drugbank_target|P03300 Genome polyprotein (DB03203; DB03963; DB04137; DB08012; DB08013; DB08014; DB08231)
 OpenBabel12092119573D

  0  0  0     0  0            999 V3000
M  V30 BEGIN CTAB
M  V30 COUNTS 34444 34851 0 0 0
M  V30 BEGIN ATOM
M  V30 1 H -0.908 1.98254 -0.117106 0
M  V30 2 N 0 1.576 0 0
M  V30 3 C 0.933 2.03868 1.02534 0
M  V30 4 C 1.911 0.928543 1.3348 0
M  V30 5 O 3.095 1.19667 1.45644 0
M  V30 6 C 0.222 2.43627 2.35294 0
M  V30 7 C -0.732 3.65373 2.2001 0
M  V30 8 S 0.101 5.13292 1.52614 0
M  V30 9 C 1.257 5.56322 2.86805 0
M  V30 10 H 1.49 2.90518 0.631377 0
M  V30 11 H -0.977 1.52953 0.210867 0
M  V30 12 H 0.981 2.67203 3.11629 0
M  V30 13 H -0.358 1.57376 2.7183 0
M  V30 14 H -1.165 3.90944 3.18086 0
M  V30 15 H -1.563 3.418 1.51819 0
M  V30 16 H 0.729 5.58782 3.83104 0
M  V30 17 H 1.672 6.56266 2.65933 0
M  V30 18 H 2.08 4.83886 2.90714 0
M  V30 19 N 1.4781 -0.272755 1.55222 0
M  V30 20 C 2.7261 -1.00234 1.75492 0
M  V30 21 C 3.0471 -1.8681 0.5592 0
M  V30 22 O 2.3171 -1.91215 -0.425882 0
M  V30 23 H 0.8971 -0.373076 0.647166 0
M  V30 24 H 3.5591 -0.296926 1.92625 0
M  V30 25 H 2.6551 -1.63913 2.65592 0
M  V30 26 N 2.9562 -1.48159 -0.537278 0
M  V30 27 C 3.9192 -1.61665 -1.62472 0
M  V30 28 C 4.9192 -0.490395 -1.5314 0
M  V30 29 O 6.1092 -0.755998 -1.5694 0
M  V30 30 C 3.2412 -1.57997 -3.02076 0
M  V30 31 H 4.4342 -2.58621 -1.51839 0
M  V30 32 H 1.9872 -1.36647 -0.758771 0
M  V30 33 H 2.7222 -0.624913 -3.18222 0
M  V30 34 H 2.5072 -2.39755 -3.10258 0
M  V30 35 H 3.9972 -1.70627 -3.81151 0
M  V30 36 N 4.4343 0.785586 -1.36625 0
M  V30 37 C 5.3663 1.90711 -1.2713 0
M  V30 38 C 6.3793 1.61688 -0.189986 0
M  V30 39 O 7.5683 1.72864 -0.445014 0
M  V30 40 C 4.6683 3.25611 -0.939713 0
M  V30 41 C 3.8413 3.82385 -2.12369 0
M  V30 42 C 2.9003 4.95732 -1.76456 0
M  V30 43 O 1.9263 5.12047 -2.48589 0
M  V30 44 N 3.1283 5.76258 -0.700492 0
M  V30 45 H 5.8933 1.99376 -2.23762 0
M  V30 46 H 3.4543 0.964041 -1.30069 0
M  V30 47 H 5.4463 3.98937 -0.680554 0
M  V30 48 H 4.0163 3.12538 -0.0624074 0
M  V30 49 H 3.2363 3.01001 -2.54543 0
M  V30 50 H 4.5243 4.17047 -2.9146 0
M  V30 51 H 3.9223 5.65609 -0.101624 0
M  V30 52 H 2.4793 6.4987 -0.501165 0
M  V30 53 N 5.9124 1.20967 1.01018 0
M  V30 54 C 7.1584 1.02526 1.74975 0
M  V30 55 C 7.4914 -0.4408 1.89131 0
M  V30 56 O 6.7664 -1.32718 1.42184 0
M  V30 57 C 7.0494 1.71699 3.1653 0
M  V30 58 C 6.9024 3.25791 3.10129 0
M  V30 59 C 8.2214 1.45531 4.15342 0
M  V30 60 H 5.3404 0.373863 0.635134 0
M  V30 61 H 7.9824 1.49071 1.17805 0
M  V30 62 H 6.1324 1.32128 3.65341 0
M  V30 63 H 7.8044 3.74697 2.69072 0
M  V30 64 H 6.0474 3.56363 2.47362 0
M  V30 65 H 6.7184 3.69353 4.10222 0
M  V30 66 H 9.1944 1.79872 3.75213 0
M  V30 67 H 8.0704 1.96453 5.1254 0
M  V30 68 H 8.3314 0.384237 4.40427 0
M  V30 69 N 7.3905 -1.2043 1.01659 0
M  V30 70 C 8.6155 -1.94318 0.724942 0
M  V30 71 C 9.0405 -1.74266 -0.708034 0
M  V30 72 O 8.3985 -1.03694 -1.48719 0
M  V30 73 C 8.4465 -3.44486 1.06591 0
M  V30 74 O 7.5505 -4.12017 0.177599 0
M  V30 75 H 6.8915 -0.60708 0.26898 0
M  V30 76 H 9.4215 -1.52861 1.35995 0
M  V30 77 H 9.4315 -3.95106 1.01762 0
M  V30 78 H 8.1065 -3.58404 2.10997 0
M  V30 79 H 6.6835 -3.71821 0.283421 0
M  V30 80 N 8.8686 -0.792821 -1.36206 0
M  V30 81 C 10.0936 -0.377701 -2.03932 0
M  V30 82 C 10.5186 0.998947 -1.59382 0
M  V30 83 O 9.8766 1.64421 -0.763903 0
M  V30 84 C 9.9246 -0.453635 -3.57735 0
M  V30 85 O 9.0286 0.538151 -4.08874 0
M  V30 86 H 8.3696 -0.159855 -0.644471 0
M  V30 87 H 10.8996 -1.07488 -1.7409 0
M  V30 88 H 10.9096 -0.318464 -4.06755 0
M  V30 89 H 9.5846 -1.45784 -3.89512 0
M  V30 90 H 8.1616 0.364359 -3.71116 0
M  V30 91 N 10.3467 1.47872 -0.545128 0
M  V30 92 C 11.2787 2.27869 0.246621 0
M  V30 93 C 12.2917 1.36282 0.890561 0
M  V30 94 O 13.4807 1.61207 0.766449 0
M  V30 95 C 10.5807 3.10159 1.36582 0
M  V30 96 C 9.7537 4.29627 0.820954 0
M  V30 97 C 8.8127 4.93607 1.82314 0
M  V30 98 O 7.8387 5.52366 1.37406 0
M  V30 99 N 9.0407 4.87211 3.15603 0
M  V30 100 H 11.8057 2.96459 -0.439539 0
M  V30 101 H 9.3667 1.57367 -0.380421 0
M  V30 102 H 11.3587 3.49829 2.03474 0
M  V30 103 H 9.9287 2.43891 1.9554 0
M  V30 104 H 9.1487 3.94192 -0.0244032 0
M  V30 105 H 10.4367 5.06928 0.436063 0
M  V30 106 H 9.8347 4.40651 3.54744 0
M  V30 107 H 8.3917 5.30937 3.78087 0
M  V30 108 N 11.8248 0.280983 1.55075 0
M  V30 109 C 12.7718 -0.603937 2.22758 0
M  V30 110 C 13.7418 -1.1452 1.20309 0
M  V30 111 O 14.9268 -1.19343 1.48869 0
M  V30 112 C 12.0668 -1.77947 2.95684 0
M  V30 113 C 11.1798 -1.2715 4.12864 0
M  V30 114 C 10.3148 -2.4093 4.7342 0
M  V30 115 C 9.3538 -1.87165 5.82783 0
M  V30 116 N 8.4908 -2.94441 6.37377 0
M  V30 117 H 13.3308 -0.020124 2.97993 0
M  V30 118 H 10.8678 0.00183425 1.471 0
M  V30 119 H 12.8258 -2.47055 3.36184 0
M  V30 120 H 11.4558 -2.33522 2.22861 0
M  V30 121 H 10.5078 -0.473331 3.77444 0
M  V30 122 H 11.8198 -0.837751 4.91715 0
M  V30 123 H 10.9738 -3.18021 5.1667 0
M  V30 124 H 9.7128 -2.87623 3.93859 0
M  V30 125 H 8.7178 -1.08556 5.38976 0
M  V30 126 H 9.9428 -1.41401 6.64216 0
M  V30 127 H 7.8888 -3.40505 5.60707 0
M  V30 128 H 7.8058 -2.55501 7.11516 0
M  V30 129 H 9.0738 -3.71489 6.85285 0
M  V30 130 N 13.3029 -1.57598 0.00835791 0
M  V30 131 C 14.5489 -1.91211 -0.675732 0
M  V30 132 C 14.8819 -0.883139 -1.72958 0
M  V30 133 O 14.1569 0.097016 -1.94258 0
M  V30 134 C 14.4399 -3.35379 -1.31123 0
M  V30 135 C 14.2929 -4.48999 -0.268356 0
M  V30 136 C 15.6119 -3.7912 -2.23508 0
M  V30 137 H 12.7309 -0.695374 -0.244179 0
M  V30 138 H 15.3729 -1.89901 0.0613655 0
M  V30 139 H 13.5229 -3.36626 -1.93946 0
M  V30 140 H 15.1949 -4.59887 0.360844 0
M  V30 141 H 13.4379 -4.31873 0.408482 0
M  V30 142 H 14.1089 -5.46851 -0.752218 0
M  V30 143 H 16.5849 -3.79477 -1.70693 0
M  V30 144 H 15.4609 -4.80729 -2.64936 0
M  V30 145 H 15.7219 -3.13455 -3.11766 0
M  V30 146 N 14.781 0.264519 -1.55364 0
M  V30 147 C 16.029 0.993021 -1.76021 0
M  V30 148 C 16.35 1.86511 -0.569099 0
M  V30 149 O 15.62 1.91438 0.415735 0
M  V30 150 H 14.2 0.369639 -0.649135 0
M  V30 151 H 16.862 0.286707 -1.9278 0
M  V30 152 H 15.958 1.62502 -2.66457 0
M  V30 153 N 16.2591 1.48442 0.529413 0
M  V30 154 C 17.2221 1.62524 1.61612 0
M  V30 155 C 18.2221 0.498509 1.52877 0
M  V30 156 O 19.4121 0.76431 1.56537 0
M  V30 157 C 16.5441 1.59597 3.01233 0
M  V30 158 H 17.7371 2.59423 1.50465 0
M  V30 159 H 15.2901 1.37047 0.751514 0
M  V30 160 H 16.0251 0.641781 3.17886 0
M  V30 161 H 15.8101 2.41397 3.08982 0
M  V30 162 H 17.3001 1.72646 3.80241 0
M  V30 163 N 17.7372 -0.778329 1.37039 0
M  V30 164 C 18.6872 -1.88142 1.28789 0
M  V30 165 C 19.6712 -1.59923 0.177063 0
M  V30 166 O 20.8632 -1.72165 0.410873 0
M  V30 167 C 17.9922 -3.25518 1.09055 0
M  V30 168 C 17.0782 -3.5971 2.24654 0
M  V30 169 N 17.4692 -3.65131 3.50018 0
M  V30 170 C 15.7672 -3.89837 2.16663 0
M  V30 171 C 16.4682 -3.95882 4.26207 0
M  V30 172 N 15.4442 -4.11441 3.55271 0
M  V30 173 H 19.2462 -1.90575 2.23737 0
M  V30 174 H 16.7602 -0.974435 1.29917 0
M  V30 175 H 18.7572 -4.04423 1.0123 0
M  V30 176 H 17.4172 -3.24353 0.15018 0
M  V30 177 H 18.4282 -3.475 3.84011 0
M  V30 178 H 15.1052 -3.96533 1.30645 0
M  V30 179 H 16.4952 -4.06907 5.34674 0
M  V30 180 N 19.2153 -1.21501 -1.00376 0
M  V30 181 C 20.1253 -0.991447 -2.12621 0
M  V30 182 C 21.1413 0.0568446 -1.73907 0
M  V30 183 O 22.3173 -0.13348 -2.00957 0
M  V30 184 C 19.3823 -0.560312 -3.42142 0
M  V30 185 C 18.4433 -1.68096 -3.95022 0
M  V30 186 C 17.6763 -1.2703 -5.18362 0
M  V30 187 O 17.8993 -0.144438 -5.70217 0
M  V30 188 O 16.8333 -2.08269 -5.64719 0
M  V30 189 H 20.6593 -1.93158 -2.34358 0
M  V30 190 H 18.2443 -0.999999 -1.10997 0
M  V30 191 H 20.1263 -0.329724 -4.20108 0
M  V30 192 H 18.8013 0.351089 -3.2179 0
M  V30 193 H 17.7083 -1.96597 -3.18278 0
M  V30 194 H 19.0413 -2.56983 -4.19786 0
M  V30 195 N 20.6934 1.19889 -1.02296 0
M  V30 196 C 21.6414 2.24938 -0.592081 0
M  V30 197 C 22.6354 1.65257 0.372357 0
M  V30 198 O 23.8414 1.78371 0.241583 0
M  V30 199 H 20.2164 0.731787 -0.173182 0
M  V30 200 H 22.1874 2.58603 -1.48885 0
M  V30 201 C 20.9364 3.47668 0.047351 0
M  V30 202 H 20.2594 3.93875 -0.685772 0
M  V30 203 H 21.6994 4.22852 0.311862 0
M  V30 204 C 20.1584 3.11136 1.29212 0
M  V30 205 O 20.6884 3.2325 2.38479 0
M  V30 206 N 18.8944 2.65625 1.17863 0
M  V30 207 H 18.4414 2.55968 0.289493 0
M  V30 208 H 18.3994 2.41553 2.01245 0
M  V30 209 N 22.1715 0.800033 1.35784 0
M  V30 210 C 23.3965 0.388511 2.03729 0
M  V30 211 C 23.8215 -0.990481 1.5991 0
M  V30 212 O 23.1795 -1.64013 0.772612 0
M  V30 213 C 23.2275 0.4726 3.5749 0
M  V30 214 O 22.3315 -0.51646 4.09153 0
M  V30 215 H 21.6725 0.163271 0.643614 0
M  V30 216 H 24.2025 1.0841 1.73518 0
M  V30 217 H 24.2125 0.34003 4.06581 0
M  V30 218 H 22.8875 1.47848 3.88734 0
M  V30 219 H 21.4645 -0.344673 3.71304 0
M  V30 220 N 23.6496 -1.47581 0.552962 0
M  V30 221 C 24.5976 -2.31648 -0.21023 0
M  V30 222 C 25.5916 -1.42663 -0.913432 0
M  V30 223 O 26.7976 -1.5945 -0.835201 0
M  V30 224 H 23.1726 -0.746989 -0.0866676 0
M  V30 225 H 25.1436 -2.93869 0.518051 0
M  V30 226 C 23.8926 -3.25226 -1.22976 0
M  V30 227 H 23.2156 -3.93658 -0.698077 0
M  V30 228 H 24.6556 -3.86889 -1.73473 0
M  V30 229 C 23.1146 -2.48448 -2.27542 0
M  V30 230 O 23.6446 -2.22585 -3.34393 0
M  V30 231 N 21.8506 -2.09532 -2.01357 0
M  V30 232 H 21.3976 -2.30765 -1.14478 0
M  V30 233 H 21.3556 -1.58476 -2.71538 0
M  V30 234 N 25.1277 -0.289203 -1.54924 0
M  V30 235 C 26.5437 0.0645403 -1.59469 0
M  V30 236 C 26.7437 1.53419 -1.30632 0
M  V30 237 O 25.7997 2.2852 -1.074 0
M  V30 238 C 27.1127 -0.32278 -2.98963 0
M  V30 239 C 28.6607 -0.270564 -3.11828 0
M  V30 240 C 29.1357 -0.632532 -4.53611 0
M  V30 241 N 30.6267 -0.584617 -4.59496 0
M  V30 242 C 31.3617 -0.837314 -5.67254 0
M  V30 243 N 30.8577 -1.15536 -6.83098 0
M  V30 244 N 32.6507 -0.765166 -5.56868 0
M  V30 245 H 24.8017 -1.24714 -1.71931 0
M  V30 246 H 27.0647 -0.504809 -0.802416 0
M  V30 247 H 26.7707 -1.34541 -3.24948 0
M  V30 248 H 26.6447 0.32944 -3.75759 0
M  V30 249 H 29.0317 0.742805 -2.85598 0
M  V30 250 H 29.1127 -0.957242 -2.37214 0
M  V30 251 H 28.7567 -1.64365 -4.80569 0
M  V30 252 H 28.6867 0.07609 -5.26545 0
M  V30 253 H 31.1777 -0.349248 -3.76283 0
M  V30 254 H 31.4907 -1.33447 -7.61191 0
M  V30 255 H 29.8357 -1.19328 -6.84679 0
M  V30 256 H 33.0267 -0.516432 -4.65243 0
M  V30 257 H 33.1997 -0.965477 -6.40767 0
M  V30 258 N 26.6058 1.57591 -0.0167156 0
M  V30 259 C 27.5688 2.08393 0.954204 0
M  V30 260 C 28.5688 0.996531 1.26198 0
M  V30 261 O 29.7588 1.25858 1.20438 0
M  V30 262 C 26.8908 2.5394 2.27436 0
M  V30 263 H 28.0838 2.95455 0.514451 0
M  V30 264 H 25.6368 1.54582 0.231089 0
M  V30 265 H 26.3718 1.70171 2.76066 0
M  V30 266 H 26.1568 3.33371 2.06412 0
M  V30 267 H 27.6468 2.93512 2.97053 0
M  V30 268 N 28.0839 -0.256276 1.55502 0
M  V30 269 C 29.3139 -1.00196 1.80677 0
M  V30 270 C 29.7219 -1.79805 0.588797 0
M  V30 271 O 29.0649 -1.78055 -0.451883 0
M  V30 272 C 29.1269 -1.99515 2.99055 0
M  V30 273 C 28.7909 -1.38688 4.35448 0
M  V30 274 C 29.7879 -0.794079 5.138 0
M  V30 275 C 27.4729 -1.40906 4.82132 0
M  V30 276 C 29.4669 -0.231562 6.36979 0
M  V30 277 C 27.1539 -0.842684 6.05262 0
M  V30 278 C 28.1519 -0.254953 6.82524 0
M  V30 279 O 27.8399 0.3027 8.0333 0
M  V30 280 H 27.5719 -0.300919 0.60533 0
M  V30 281 H 30.1259 -0.287307 2.03381 0
M  V30 282 H 28.3559 -2.74785 2.72084 0
M  V30 283 H 30.0449 -2.60349 3.11405 0
M  V30 284 H 30.8109 -0.769519 4.78856 0
M  V30 285 H 26.6899 -1.85591 4.21992 0
M  V30 286 H 30.2339 0.227816 6.97228 0
M  V30 287 H 26.1309 -0.86454 6.39684 0
M  V30 288 H 26.8989 0.193662 8.18271 0
M  V30 289 N 29.562 -1.4872 -0.521534 0
M  V30 290 C 30.81 -1.56857 -1.27437 0
M  V30 291 C 31.131 -0.247982 -1.93417 0
M  V30 292 O 30.401 0.731151 -1.81744 0
M  V30 293 H 28.981 -0.577885 -0.473347 0
M  V30 294 H 31.643 -1.85233 -0.606205 0
M  V30 295 H 30.739 -2.35402 -2.0492 0
M  V30 296 N 31.0401 0.771051 -1.3745 0
M  V30 297 C 32.2881 1.52661 -1.32435 0
M  V30 298 C 32.6091 1.9479 0.0905024 0
M  V30 299 O 31.8791 1.66348 1.03466 0
M  V30 300 H 30.4591 0.566218 -0.487244 0
M  V30 301 H 33.1211 0.917636 -1.71946 0
M  V30 302 H 32.2171 2.42568 -1.96385 0
M  V30 303 N 32.5182 1.22032 0.997298 0
M  V30 304 C 33.7432 1.06921 1.77715 0
M  V30 305 C 34.1682 -0.376226 1.84299 0
M  V30 306 O 33.5262 -1.27165 1.29223 0
M  V30 307 C 33.5742 1.67996 3.19076 0
M  V30 308 O 32.6782 0.930653 4.01762 0
M  V30 309 H 32.0192 0.375814 0.547412 0
M  V30 310 H 34.5492 1.61737 1.25309 0
M  V30 311 H 34.5592 1.72538 3.69723 0
M  V30 312 H 33.2342 2.73182 3.13599 0
M  V30 313 H 31.8112 0.960917 3.60307 0
M  V30 314 N 33.9963 -1.19345 1.0293 0
M  V30 315 C 35.2243 -1.92997 0.745644 0
M  V30 316 C 35.6393 -1.75519 -0.695589 0
M  V30 317 O 34.9963 -1.07737 -1.47306 0
M  V30 318 C 35.0473 -3.44741 1.08792 0
M  V30 319 O 34.7683 -3.61658 2.47256 0
M  V30 320 C 36.2693 -4.35515 0.827129 0
M  V30 321 H 33.4893 -0.613042 0.272801 0
M  V30 322 H 36.0333 -1.51473 1.3739 0
M  V30 323 H 34.1883 -3.84097 0.504832 0
M  V30 324 H 34.6023 -4.55514 2.60015 0
M  V30 325 H 36.0763 -5.40589 1.11658 0
M  V30 326 H 36.5533 -4.38552 -0.238436 0
M  V30 327 H 37.1593 -4.01841 1.39297 0
M  V30 328 N 35.4744 -0.807222 -1.35358 0
M  V30 329 C 36.7234 -0.384376 -1.98004 0
M  V30 330 C 37.0364 1.0543 -1.64754 0
M  V30 331 O 38.2424 1.58029 -2.20769 0
M  V30 332 C 36.6984 -0.636326 -3.5423 0
M  V30 333 C 36.3064 -2.08759 -3.96388 0
M  V30 334 C 38.0504 -0.278869 -4.23583 0
M  V30 335 C 35.9574 -2.28525 -5.45463 0
M  V30 336 H 34.8874 -0.139986 -0.740891 0
M  V30 337 H 37.5384 -0.991369 -1.54415 0
M  V30 338 H 35.9204 0.0406256 -3.95979 0
M  V30 339 H 37.0944 -2.8024 -3.6579 0
M  V30 340 H 35.4094 -2.40497 -3.39926 0
M  V30 341 H 38.0064 -0.404599 -5.33167 0
M  V30 342 H 38.3494 0.775012 -4.09022 0
M  V30 343 H 38.8824 -0.909764 -3.87257 0
M  V30 344 H 35.6214 -3.32361 -5.64992 0
M  V30 345 H 35.1414 -1.61569 -5.77629 0
M  V30 346 H 36.8204 -2.10109 -6.11934 0
M  V30 347 N 36.9525 1.47285 -0.560781 0
M  V30 348 C 37.9005 2.31756 0.197942 0
M  V30 349 C 38.8945 1.43146 0.905854 0
M  V30 350 O 40.1005 1.59891 0.826733 0
M  V30 351 H 36.4755 0.747438 0.0827049 0
M  V30 352 H 38.4465 2.9359 -0.533629 0
M  V30 353 C 37.1955 3.25874 1.21249 0
M  V30 354 H 36.5185 3.94023 0.67719 0
M  V30 355 H 37.9585 3.87803 1.71419 0
M  V30 356 C 36.4175 2.49651 2.26221 0
M  V30 357 O 36.9475 2.24355 3.33208 0
M  V30 358 N 35.1535 2.10597 2.00243 0
M  V30 359 H 34.7005 2.31369 1.13252 0
M  V30 360 H 34.6585 1.59913 2.70694 0
M  V30 361 N 38.4306 0.297415 1.54768 0
M  V30 362 C 39.6606 -0.315165 2.04182 0
M  V30 363 C 40.0686 -1.4834 1.17439 0
M  V30 364 O 39.4116 -1.82695 0.191891 0
M  V30 365 C 39.4736 -0.837583 3.49607 0
M  V30 366 C 39.1376 0.204912 4.5654 0
M  V30 367 C 40.1346 1.03214 5.09552 0
M  V30 368 C 37.8196 0.345578 5.0111 0
M  V30 369 C 39.8136 1.986 6.05671 0
M  V30 370 C 37.5006 1.30289 5.97049 0
M  V30 371 C 38.4986 2.12159 6.49213 0
M  V30 372 O 38.1866 3.06268 7.43273 0
M  V30 373 H 37.9186 -0.0729646 0.672051 0
M  V30 374 H 40.4726 0.433907 2.00765 0
M  V30 375 H 38.7026 -1.63712 3.50336 0
M  V30 376 H 40.3916 -1.36566 3.82236 0
M  V30 377 H 41.1576 0.934312 4.75916 0
M  V30 378 H 37.0366 -0.28171 4.60138 0
M  V30 379 H 40.5806 2.62542 6.46311 0
M  V30 380 H 36.4776 1.40145 6.30103 0
M  V30 381 H 37.2456 3.01205 7.61064 0
M  V30 382 N 39.9087 -1.5758 0.0250728 0
M  V30 383 C 41.1367 -1.9593 -0.664747 0
M  V30 384 C 41.5517 -0.901352 -1.65895 0
M  V30 385 O 40.9087 0.117255 -1.82123 0
M  V30 386 C 40.9597 -3.34342 -1.37468 0
M  V30 387 O 40.6807 -4.36079 -0.420324 0
M  V30 388 C 42.1817 -3.873 -2.1567 0
M  V30 389 H 39.4017 -0.645405 -0.183557 0
M  V30 390 H 41.9457 -2.04329 0.0836372 0
M  V30 391 H 40.1007 -3.27175 -2.0745 0
M  V30 392 H 40.5147 -5.16297 -0.923991 0
M  V30 393 H 41.9887 -4.86504 -2.60803 0
M  V30 394 H 42.4657 -3.21331 -2.99405 0
M  V30 395 H 43.0717 -3.97723 -1.50654 0
M  V30 396 N 41.3868 0.248026 -1.55636 0
M  V30 397 C 42.6148 0.993808 -1.81469 0
M  V30 398 C 43.0298 1.78991 -0.60064 0
M  V30 399 O 42.3868 1.77345 0.430682 0
M  V30 400 C 42.4378 1.93258 -3.05506 0
M  V30 401 O 42.1588 1.16869 -4.22224 0
M  V30 402 C 43.6598 2.79444 -3.4413 0
M  V30 403 H 40.8798 0.292486 -0.603898 0
M  V30 404 H 43.4238 0.271253 -2.02693 0
M  V30 405 H 41.5788 2.60943 -2.86335 0
M  V30 406 H 41.9928 1.80359 -4.92515 0
M  V30 407 H 43.4668 3.41066 -4.34026 0
M  V30 408 H 43.9438 3.50499 -2.64665 0
M  V30 409 H 44.5498 2.17214 -3.65648 0
M  V30 410 N 42.8649 1.48995 0.513639 0
M  V30 411 C 44.1139 1.57093 1.2651 0
M  V30 412 C 44.4269 0.257091 1.93903 0
M  V30 413 O 45.6329 0.216478 2.70636 0
M  V30 414 C 44.0889 2.77118 2.29638 0
M  V30 415 C 43.6969 4.15209 1.68241 0
M  V30 416 C 45.4409 2.94538 3.05692 0
M  V30 417 C 43.3479 5.26474 2.69406 0
M  V30 418 H 42.2779 0.584876 0.475854 0
M  V30 419 H 44.9289 1.7536 0.540487 0
M  V30 420 H 43.3109 2.52319 3.05207 0
M  V30 421 H 44.4849 4.50094 0.987505 0
M  V30 422 H 42.7999 4.03042 1.04623 0
M  V30 423 H 45.3969 3.74832 3.8132 0
M  V30 424 H 45.7399 2.04614 3.62545 0
M  V30 425 H 46.2729 3.19316 2.37238 0
M  V30 426 H 43.0119 6.18417 2.17351 0
M  V30 427 H 42.5319 4.96058 3.37175 0
M  V30 428 H 44.2109 5.55277 3.32078 0
M  V30 429 N 44.343 -0.763751 1.37857 0
M  V30 430 C 45.291 -1.89864 1.34367 0
M  V30 431 C 46.285 -1.67816 0.231143 0
M  V30 432 O 47.491 -1.75508 0.399617 0
M  V30 433 H 43.866 -0.624501 0.41893 0
M  V30 434 H 45.837 -1.89925 2.30155 0
M  V30 435 C 44.586 -3.27227 1.1755 0
M  V30 436 H 43.909 -3.44773 2.02414 0
M  V30 437 H 45.349 -4.06911 1.1916 0
M  V30 438 C 43.808 -3.36692 -0.118311 0
M  V30 439 O 44.338 -3.86374 -1.09902 0
M  V30 440 N 42.544 -2.90092 -0.171717 0
M  V30 441 H 42.091 -2.49853 0.627012 0
M  V30 442 H 42.049 -2.96806 -1.03699 0
M  V30 443 N 45.8211 -1.22559 -0.990812 0
M  V30 444 C 47.0511 -1.07623 -1.76355 0
M  V30 445 C 47.4591 0.37601 -1.85426 0
M  V30 446 O 46.8021 1.27228 -1.32509 0
M  V30 447 C 46.8641 -1.61507 -3.21179 0
M  V30 448 C 46.5281 -3.10146 -3.35646 0
M  V30 449 C 47.5251 -4.07553 -3.22796 0
M  V30 450 C 45.2101 -3.49644 -3.60631 0
M  V30 451 C 47.2041 -5.42442 -3.34716 0
M  V30 452 C 44.8911 -4.84682 -3.72192 0
M  V30 453 C 45.8891 -5.8089 -3.59243 0
M  V30 454 O 45.5771 -7.13476 -3.70415 0
M  V30 455 H 45.3091 -0.377745 -0.560611 0
M  V30 456 H 47.8631 -1.62658 -1.25425 0
M  V30 457 H 46.0931 -1.00881 -3.73309 0
M  V30 458 H 47.7821 -1.42202 -3.80175 0
M  V30 459 H 48.5481 -3.78381 -3.03403 0
M  V30 460 H 44.4271 -2.75282 -3.69785 0
M  V30 461 H 47.9711 -6.17518 -3.24526 0
M  V30 462 H 43.8681 -5.13534 -3.91092 0
M  V30 463 H 44.6361 -7.21083 -3.87275 0
M  V30 464 N 47.2992 1.18797 -1.03562 0
M  V30 465 C 48.5292 1.92319 -0.754773 0
M  V30 466 C 48.9372 1.7612 0.691248 0
M  V30 467 O 48.2802 1.08491 1.48241 0
M  V30 468 C 48.3422 3.44284 -1.03484 0
M  V30 469 C 48.0062 3.84258 -2.47376 0
M  V30 470 C 49.0032 3.88459 -3.45537 0
M  V30 471 C 46.6882 4.15701 -2.81954 0
M  V30 472 C 48.6822 4.23545 -4.76328 0
M  V30 473 C 46.3692 4.50458 -4.12954 0
M  V30 474 C 47.3672 4.54356 -5.09951 0
M  V30 475 O 47.0552 4.88305 -6.38603 0
M  V30 476 H 46.7872 0.617527 -0.275021 0
M  V30 477 H 49.3412 1.51683 -1.38497 0
M  V30 478 H 47.5712 3.85135 -0.347513 0
M  V30 479 H 49.2602 3.99049 -0.7426 0
M  V30 480 H 50.0262 3.6431 -3.20162 0
M  V30 481 H 45.9052 4.11847 -2.0713 0
M  V30 482 H 49.4492 4.26502 -5.52035 0
M  V30 483 H 45.3462 4.74067 -4.38099 0
M  V30 484 H 46.1142 5.06227 -6.43177 0
M  V30 485 N 48.7773 0.814389 1.34928 0
M  V30 486 C 50.1933 0.499084 1.51596 0
M  V30 487 C 50.3933 -0.978319 1.76157 0
M  V30 488 O 49.4493 -1.76309 1.80752 0
M  V30 489 C 50.7623 1.35121 2.68631 0
M  V30 490 C 52.3103 1.34746 2.82511 0
M  V30 491 C 52.7853 2.18388 4.0258 0
M  V30 492 N 54.2763 2.15966 4.09772 0
M  V30 493 C 55.0113 2.77437 5.01813 0
M  V30 494 N 54.5073 3.47866 5.99134 0
M  V30 495 N 56.3003 2.67037 4.94619 0
M  V30 496 H 48.4513 1.7711 1.17243 0
M  V30 497 H 50.7143 0.754256 0.574284 0
M  V30 498 H 50.4203 2.40001 2.57085 0
M  V30 499 H 50.2943 1.00991 3.63429 0
M  V30 500 H 52.6813 0.30648 2.93504 0
M  V30 501 H 52.7623 1.72869 1.88547 0
M  V30 502 H 52.4063 3.2253 3.92347 0
M  V30 503 H 52.3363 1.77621 4.9574 0
M  V30 504 H 54.8273 1.64729 3.40107 0
M  V30 505 H 55.1403 3.92038 6.65977 0
M  V30 506 H 53.4853 3.51972 5.99284 0
M  V30 507 H 56.6763 2.11597 4.17546 0
M  V30 508 H 56.8493 3.15232 5.66156 0
M  V30 509 N 50.2554 -1.46986 0.568584 0
M  V30 510 C 51.5324 -1.95592 -0.0174074 0
M  V30 511 C 51.9124 -1.51124 -1.47393 0
M  V30 512 O 51.2604 -0.755329 -2.15655 0
M  V30 513 C 51.4704 -3.48719 0.139913 0
M  V30 514 C 52.8184 -4.246 0.000426376 0
M  V30 515 O 53.8424 -3.56135 0.0680316 0
M  V30 516 O 52.7014 -5.46302 -0.146988 0
M  V30 517 H 49.7954 -0.82498 -0.0577599 0
M  V30 518 H 52.3414 -1.57335 0.635909 0
M  V30 519 H 51.1134 -3.73927 1.15301 0
M  V30 520 H 50.7364 -3.93771 -0.550491 0
M  V30 521 N 51.7335 -0.305618 -1.54608 0
M  V30 522 C 52.9585 0.307562 -2.05107 0
M  V30 523 C 53.3835 1.46385 -1.18123 0
M  V30 524 O 52.7415 1.8034 -0.186324 0
M  V30 525 C 52.7895 0.73704 -3.52987 0
M  V30 526 O 51.8935 1.84134 -3.6901 0
M  V30 527 H 51.2345 0.0589143 -0.661381 0
M  V30 528 H 53.7645 -0.448807 -1.99617 0
M  V30 529 H 53.7745 1.02459 -3.94925 0
M  V30 530 H 52.4495 -0.108773 -4.15758 0
M  V30 531 H 51.0265 1.55398 -3.38978 0
M  V30 532 N 53.2116 1.57565 -0.0334293 0
M  V30 533 C 54.1746 2.09393 0.932048 0
M  V30 534 C 55.1746 1.00986 1.25134 0
M  V30 535 O 56.3646 1.27129 1.19096 0
M  V30 536 C 53.4966 2.56338 2.2473 0
M  V30 537 H 54.6896 2.95984 0.483085 0
M  V30 538 H 52.2426 1.54819 0.21468 0
M  V30 539 H 52.9776 1.7309 2.74245 0
M  V30 540 H 52.7626 3.35542 2.02865 0
M  V30 541 H 54.2526 2.96646 2.93923 0
M  V30 542 N 54.6897 -0.239769 1.55765 0
M  V30 543 C 55.9147 -0.988373 1.82335 0
M  V30 544 C 56.3397 -1.77886 0.611421 0
M  V30 545 O 55.6977 -1.75889 -0.439639 0
M  V30 546 C 55.7457 -1.89627 3.06715 0
M  V30 547 O 54.8497 -2.98904 2.84131 0
M  V30 548 H 54.1907 -0.280858 0.601677 0
M  V30 549 H 56.7207 -0.258597 2.02959 0
M  V30 550 H 56.7307 -2.30957 3.36338 0
M  V30 551 H 55.4057 -1.31511 3.9456 0
M  V30 552 H 53.9827 -2.61651 2.65694 0
M  V30 553 N 56.1678 -1.49265 -0.50573 0
M  V30 554 C 57.1158 -1.66065 -1.62866 0
M  V30 555 C 58.1098 -0.526636 -1.61006 0
M  V30 556 O 59.3158 -0.706126 -1.65571 0
M  V30 557 H 55.6908 -0.52356 -0.539805 0
M  V30 558 H 57.6618 -2.60329 -1.45848 0
M  V30 559 C 56.4108 -1.74008 -3.01026 0
M  V30 560 H 55.7338 -2.6064 -3.03161 0
M  V30 561 H 57.1738 -1.89798 -3.79147 0
M  V30 562 C 55.6328 -0.483868 -3.33407 0
M  V30 563 O 56.1628 0.392548 -3.99777 0
M  V30 564 N 54.3688 -0.348236 -2.88506 0
M  V30 565 H 53.9158 -1.06242 -2.34671 0
M  V30 566 H 53.8738 0.491204 -3.10539 0
M  V30 567 N 57.6459 0.756429 -1.3826 0
M  V30 568 C 58.6089 1.85176 -1.35065 0
M  V30 569 C 59.6089 1.58818 -0.251703 0
M  V30 570 O 60.7989 1.66615 -0.508433 0
M  V30 571 C 57.9309 3.22596 -1.10201 0
M  V30 572 H 59.1239 1.89417 -2.3251 0
M  V30 573 H 56.6769 0.95783 -1.23512 0
M  V30 574 H 57.4119 3.24025 -0.133504 0
M  V30 575 H 57.1969 3.43122 -1.89762 0
M  V30 576 H 58.6869 4.02673 -1.10654 0
M  V30 577 N 59.124 1.23083 0.984299 0
M  V30 578 C 60.087 1.00979 2.05757 0
M  V30 579 C 61.087 -0.0269573 1.60777 0
M  V30 580 O 62.277 0.212403 1.729 0
M  V30 581 C 59.409 0.527072 3.36801 0
M  V30 582 H 60.602 1.9622 2.26799 0
M  V30 583 H 58.155 1.05072 1.15714 0
M  V30 584 H 58.89 -0.429294 3.21446 0
M  V30 585 H 58.675 1.27515 3.70786 0
M  V30 586 H 60.165 0.392942 4.15747 0
M  V30 587 N 60.6021 -1.18246 1.0419 0
M  V30 588 C 61.8271 -1.92736 0.765996 0
M  V30 589 C 62.2521 -1.75728 -0.67091 0
M  V30 590 O 61.6101 -1.06825 -1.46486 0
M  V30 591 C 61.6581 -3.42148 1.13875 0
M  V30 592 O 60.7621 -4.11548 0.264954 0
M  V30 593 H 60.1031 -0.601238 0.281797 0
M  V30 594 H 62.6331 -1.49942 1.39207 0
M  V30 595 H 62.6431 -3.92858 1.1012 0
M  V30 596 H 61.3181 -3.53848 2.18551 0
M  V30 597 H 59.8951 -3.71137 0.362226 0
M  V30 598 N 62.0802 -0.821533 -1.34494 0
M  V30 599 C 63.0272 -0.240397 -2.29545 0
M  V30 600 C 63.9972 0.634031 -1.53523 0
M  V30 601 O 65.1822 0.575966 -1.81899 0
M  V30 602 C 62.3222 0.592869 -3.39969 0
M  V30 603 C 61.4352 -0.30365 -4.30932 0
M  V30 604 C 60.5702 0.539049 -5.28458 0
M  V30 605 C 59.6092 -0.356942 -6.11058 0
M  V30 606 N 58.7462 0.446603 -7.00678 0
M  V30 607 H 63.5862 -1.05632 -2.7865 0
M  V30 608 H 61.1232 -0.532413 -1.37127 0
M  V30 609 H 63.0812 1.09129 -4.02675 0
M  V30 610 H 61.7112 1.37392 -2.92102 0
M  V30 611 H 60.7632 -0.920276 -3.691 0
M  V30 612 H 62.0752 -0.992661 -4.88823 0
M  V30 613 H 61.2292 1.102 -5.96608 0
M  V30 614 H 59.9682 1.26157 -4.71101 0
M  V30 615 H 58.9732 -0.932047 -5.41842 0
M  V30 616 H 60.1982 -1.07755 -6.70497 0
M  V30 617 H 58.1442 1.15282 -6.45791 0
M  V30 618 H 58.0612 -0.184048 -7.55776 0
M  V30 619 H 59.3292 0.992352 -7.73158 0
M  V30 620 N 63.5583 1.46682 -0.576371 0
M  V30 621 C 64.4903 2.28341 0.198231 0
M  V30 622 C 65.5033 1.38141 0.861453 0
M  V30 623 O 66.6923 1.62797 0.732082 0
M  V30 624 C 63.7923 3.12986 1.29972 0
M  V30 625 C 62.9653 4.31271 0.729639 0
M  V30 626 C 62.0243 4.97363 1.71803 0
M  V30 627 O 61.0503 5.55156 1.25658 0
M  V30 628 N 62.2523 4.93796 3.05198 0
M  V30 629 H 65.0173 2.9546 -0.502324 0
M  V30 630 H 62.5783 1.56525 -0.413715 0
M  V30 631 H 64.5703 3.54066 1.96008 0
M  V30 632 H 63.1403 2.47984 1.90323 0
M  V30 633 H 62.3603 3.94052 -0.108012 0
M  V30 634 H 63.6483 5.07739 0.328438 0
M  V30 635 H 63.0463 4.48077 3.45317 0
M  V30 636 H 61.6033 5.38837 3.6674 0
M  V30 637 N 65.0364 0.313813 1.54444 0
M  V30 638 C 66.3134 -0.345447 1.92525 0
M  V30 639 C 66.6934 -1.70667 1.24242 0
M  V30 640 O 66.0414 -2.25273 0.382654 0
M  V30 641 C 66.2514 -0.44737 3.46121 0
M  V30 642 C 67.5994 -0.712238 4.18584 0
M  V30 643 O 68.6234 -0.530678 3.52225 0
M  V30 644 O 67.4824 -1.06183 5.36085 0
M  V30 645 H 64.5764 -0.195407 0.803583 0
M  V30 646 H 67.1224 0.362813 1.65776 0
M  V30 647 H 65.8944 0.509043 3.87975 0
M  V30 648 H 65.5174 -1.20359 3.78945 0
M  V30 649 N 66.5145 -1.57545 0.0417849 0
M  V30 650 C 67.7615 -1.92317 -0.634082 0
M  V30 651 C 68.0895 -0.919334 -1.71402 0
M  V30 652 O 67.3445 0.0698253 -1.95575 0
M  V30 653 C 67.6435 -3.33794 -1.27735 0
M  V30 654 C 67.3095 -4.49716 -0.326543 0
M  V30 655 C 65.9715 -4.81156 -0.0648814 0
M  V30 656 C 68.3235 -5.20182 0.325623 0
M  V30 657 C 65.6515 -5.80414 0.856539 0
M  V30 658 C 68.0035 -6.20424 1.23518 0
M  V30 659 C 66.6675 -6.50298 1.5056 0
M  V30 660 H 65.9375 -0.703736 -0.232027 0
M  V30 661 H 68.5845 -1.91205 0.106259 0
M  V30 662 H 66.8895 -3.31228 -2.09274 0
M  V30 663 H 68.5865 -3.57975 -1.80707 0
M  V30 664 H 65.1765 -4.25176 -0.540665 0
M  V30 665 H 69.3605 -4.96112 0.136546 0
M  V30 666 H 64.6165 -6.019 1.07363 0
M  V30 667 H 68.7905 -6.74141 1.74664 0
M  V30 668 H 66.4175 -7.27025 2.22123 0
M  V30 669 N 67.9926 0.231505 -1.5589 0
M  V30 670 C 69.2176 0.978689 -1.82856 0
M  V30 671 C 69.6426 1.77559 -0.620846 0
M  V30 672 O 69.0006 1.76119 0.430305 0
M  V30 673 C 69.0486 1.87997 -3.07716 0
M  V30 674 O 68.1526 2.97393 -2.85712 0
M  V30 675 H 67.4936 0.277663 -0.603158 0
M  V30 676 H 70.0236 0.24783 -2.03093 0
M  V30 677 H 70.0336 2.2917 -3.37558 0
M  V30 678 H 68.7086 1.29417 -3.95252 0
M  V30 679 H 67.2856 2.60238 -2.67078 0
M  V30 680 N 69.4707 1.49531 0.497807 0
M  V30 681 C 70.4027 1.62559 1.61578 0
M  V30 682 C 71.4157 0.508134 1.54667 0
M  V30 683 O 72.6047 0.780309 1.60541 0
M  V30 684 C 69.7047 1.56925 3.00379 0
M  V30 685 C 68.8777 2.84257 3.3244 0
M  V30 686 C 67.9367 2.71632 4.50669 0
M  V30 687 O 66.9627 3.4557 4.52294 0
M  V30 688 N 68.1647 1.83391 5.5077 0
M  V30 689 H 70.9297 2.58981 1.50828 0
M  V30 690 H 68.4907 1.4666 0.685743 0
M  V30 691 H 70.4827 1.46129 3.77397 0
M  V30 692 H 69.0527 0.683483 3.05037 0
M  V30 693 H 68.2727 3.09381 2.44289 0
M  V30 694 H 69.5607 3.68666 3.5066 0
M  V30 695 H 68.9587 1.22583 5.52259 0
M  V30 696 H 67.5157 1.78515 6.26878 0
M  V30 697 N 70.9488 -0.749086 1.3866 0
M  V30 698 C 72.2258 -1.4992 1.25632 0
M  V30 699 C 72.6058 -2.10633 -0.140317 0
M  V30 700 O 71.9538 -1.97437 -1.15025 0
M  V30 701 C 72.1638 -2.56195 2.36992 0
M  V30 702 C 73.5118 -3.22972 2.75634 0
M  V30 703 O 74.5358 -2.66502 2.36337 0
M  V30 704 O 73.3948 -4.25122 3.43415 0
M  V30 705 H 70.4888 -0.665067 0.491544 0
M  V30 706 H 73.0348 -0.784113 1.50498 0
M  V30 707 H 71.8068 -2.09612 3.30422 0
M  V30 708 H 71.4298 -3.35279 2.13714 0
M  V30 709 N 72.4269 -1.23603 -0.977757 0
M  V30 710 C 73.8379 -1.06424 -1.53398 0
M  V30 711 C 74.1889 0.367578 -1.92726 0
M  V30 712 O 73.3139 1.25465 -1.76316 0
M  V30 713 C 73.9089 -1.92568 -2.78753 0
M  V30 714 C 72.4679 -1.79642 -3.30765 0
M  V30 715 C 71.6149 -1.88111 -2.03739 0
M  V30 716 H 74.5659 -1.37227 -0.797152 0
M  V30 717 H 74.5869 -1.45203 -3.51705 0
M  V30 718 H 74.0989 -2.96771 -2.50098 0
M  V30 719 H 72.1999 -0.782325 -3.64294 0
M  V30 720 H 72.3129 -2.63174 -4.00345 0
M  V30 721 H 70.6769 -1.31723 -2.17994 0
M  V30 722 H 71.4599 -2.93875 -1.77461 0
M  V30 723 N 73.905 1.17692 -1.04816 0
M  V30 724 C 75.13 1.92327 -0.776207 0
M  V30 725 C 75.555 1.76082 0.661581 0
M  V30 726 O 74.913 1.076 1.45917 0
M  V30 727 C 74.961 3.41539 -1.15687 0
M  V30 728 O 74.065 4.11402 -0.286775 0
M  V30 729 H 73.406 0.599735 -0.284981 0
M  V30 730 H 75.936 1.49201 -1.4 0
M  V30 731 H 75.946 3.92269 -1.12202 0
M  V30 732 H 74.621 3.52684 -2.20425 0
M  V30 733 H 73.198 3.70939 -0.381903 0
M  V30 734 N 75.3831 0.828654 1.34056 0
M  V30 735 C 76.3301 0.252567 2.29414 0
M  V30 736 C 77.3001 -0.62588 1.53857 0
M  V30 737 O 78.4851 -0.566312 1.82202 0
M  V30 738 C 75.6251 -0.574831 3.40279 0
M  V30 739 C 74.7381 0.326499 4.30764 0
M  V30 740 C 73.8731 -0.511016 5.28736 0
M  V30 741 C 72.9121 0.389342 6.1086 0
M  V30 742 N 72.0491 -0.409439 7.00905 0
M  V30 743 H 76.8891 1.07108 2.78086 0
M  V30 744 H 74.4261 0.539677 1.36843 0
M  V30 745 H 76.3841 -1.06992 4.03248 0
M  V30 746 H 75.0141 -1.35841 2.92826 0
M  V30 747 H 74.0661 0.939837 3.68607 0
M  V30 748 H 75.3781 1.01857 4.88289 0
M  V30 749 H 74.5321 -1.07035 5.97184 0
M  V30 750 H 73.2711 -1.23657 4.71763 0
M  V30 751 H 72.2761 0.960769 5.4134 0
M  V30 752 H 73.5011 1.1131 6.69916 0
M  V30 753 H 71.4471 -1.11856 6.46393 0
M  V30 754 H 71.3641 0.224126 7.55668 0
M  V30 755 H 72.6321 -0.951336 7.73673 0
M  V30 756 N 76.8612 -1.46375 0.584142 0
M  V30 757 C 78.1082 -2.02378 0.0702675 0
M  V30 758 C 78.4362 -1.45545 -1.29023 0
M  V30 759 O 77.6912 -0.610967 -1.85918 0
M  V30 760 C 77.9902 -3.57373 -0.0439342 0
M  V30 761 C 77.6562 -4.33252 1.24915 0
M  V30 762 C 76.3182 -4.53701 1.60341 0
M  V30 763 C 78.6702 -4.7681 2.1048 0
M  V30 764 C 75.9982 -5.1496 2.81128 0
M  V30 765 C 78.3502 -5.39404 3.30494 0
M  V30 766 C 77.0142 -5.5808 3.66201 0
M  V30 767 H 76.2842 -0.740554 0.0257127 0
M  V30 768 H 78.9312 -1.75727 0.761065 0
M  V30 769 H 77.2362 -3.83169 -0.817869 0
M  V30 770 H 78.9332 -3.98384 -0.457318 0
M  V30 771 H 75.5232 -4.17633 0.963364 0
M  V30 772 H 79.7072 -4.60766 1.84414 0
M  V30 773 H 74.9632 -5.27611 3.08928 0
M  V30 774 H 79.1372 -5.72114 3.97063 0
M  V30 775 H 76.7642 -6.05318 4.59885 0
M  V30 776 N 78.3393 -0.321999 -1.54275 0
M  V30 777 C 79.5673 0.283052 -2.04955 0
M  V30 778 C 79.9823 1.45904 -1.19823 0
M  V30 779 O 79.3393 1.81063 -0.228545 0
M  V30 780 C 79.3903 0.719028 -3.54277 0
M  V30 781 O 79.1113 -0.410175 -4.36176 0
M  V30 782 C 80.6123 1.38705 -4.21041 0
M  V30 783 H 77.8323 0.0584616 -0.668448 0
M  V30 784 H 80.3763 -0.467734 -1.99079 0
M  V30 785 H 78.5313 1.41979 -3.60445 0
M  V30 786 H 78.9453 -0.0669416 -5.24457 0
M  V30 787 H 80.4193 1.64306 -5.2698 0
M  V30 788 H 80.8963 2.33385 -3.72059 0
M  V30 789 H 81.5023 0.728906 -4.19007 0
M  V30 790 N 79.8174 1.5752 -0.0501392 0
M  V30 791 C 80.7274 2.14952 0.939827 0
M  V30 792 C 81.7434 1.10706 1.34239 0
M  V30 793 O 82.9194 1.42869 1.41952 0
M  V30 794 C 79.9844 2.68232 2.19665 0
M  V30 795 C 79.0454 3.87272 1.85253 0
M  V30 796 C 78.2784 4.38002 3.04943 0
M  V30 797 O 78.5014 3.87811 4.18281 0
M  V30 798 O 77.4354 5.29602 2.86017 0
M  V30 799 H 81.2614 2.9986 0.481392 0
M  V30 800 H 78.8464 1.4841 0.171699 0
M  V30 801 H 80.7284 3.02475 2.93406 0
M  V30 802 H 79.4034 1.86395 2.64648 0
M  V30 803 H 78.3104 3.5792 1.0883 0
M  V30 804 H 79.6434 4.70336 1.4507 0
M  V30 805 N 81.2955 -0.223234 1.56011 0
M  V30 806 C 82.7065 -0.790368 1.69145 0
M  V30 807 C 83.0575 -1.85055 0.651845 0
M  V30 808 O 82.1825 -2.15498 -0.197359 0
M  V30 809 C 82.7775 -1.4404 3.06656 0
M  V30 810 C 81.3365 -1.95494 3.2165 0
M  V30 811 C 80.4835 -0.814506 2.65068 0
M  V30 812 H 83.4345 0.00139011 1.587 0
M  V30 813 H 83.4555 -2.30916 3.0242 0
M  V30 814 H 82.9675 -0.668543 3.82298 0
M  V30 815 H 81.0685 -2.75487 2.50874 0
M  V30 816 H 81.1815 -2.13607 4.28846 0
M  V30 817 H 79.5455 -1.22137 2.23505 0
M  V30 818 H 80.3285 -0.0553515 3.43255 0
M  V30 819 N 82.7736 -1.49793 -0.48987 0
M  V30 820 C 84.0226 -1.59085 -1.23995 0
M  V30 821 C 84.3356 -0.287907 -1.9347 0
M  V30 822 O 85.5416 -0.259506 -2.70257 0
M  V30 823 C 83.9976 -2.80736 -2.252 0
M  V30 824 C 83.6056 -4.17833 -1.61614 0
M  V30 825 C 85.3496 -2.99364 -3.00967 0
M  V30 826 C 83.2566 -5.30693 -2.60996 0
M  V30 827 H 82.1866 -0.592372 -0.466488 0
M  V30 828 H 84.8376 -1.76197 -0.51252 0
M  V30 829 H 83.2196 -2.57142 -3.01154 0
M  V30 830 H 84.3936 -4.51608 -0.915774 0
M  V30 831 H 82.7086 -4.04656 -0.981977 0
M  V30 832 H 85.3056 -3.80851 -3.75308 0
M  V30 833 H 85.6486 -2.10356 -3.59244 0
M  V30 834 H 86.1816 -3.2305 -2.32128 0
M  V30 835 H 82.9206 -6.21796 -2.07485 0
M  V30 836 H 82.4406 -5.01359 -3.2924 0
M  V30 837 H 84.1196 -5.6049 -3.23202 0
M  V30 838 N 84.2517 0.741722 -1.39055 0
M  V30 839 C 85.1987 1.85566 -1.37237 0
M  V30 840 C 86.1687 1.64457 -0.233072 0
M  V30 841 O 87.3537 1.85957 -0.427147 0
M  V30 842 C 84.4937 3.23004 -1.215 0
M  V30 843 C 83.6067 3.55864 -2.44918 0
M  V30 844 C 82.7417 4.82669 -2.21821 0
M  V30 845 C 81.7807 5.08351 -3.40948 0
M  V30 846 N 80.9177 6.26356 -3.17211 0
M  V30 847 H 85.7577 1.86455 -2.32462 0
M  V30 848 H 83.2947 0.911176 -1.15482 0
M  V30 849 H 85.2527 4.02331 -1.10389 0
M  V30 850 H 83.8827 3.21411 -0.29908 0
M  V30 851 H 82.9347 2.7129 -2.66657 0
M  V30 852 H 84.2467 3.70765 -3.33668 0
M  V30 853 H 83.4007 5.69962 -2.07914 0
M  V30 854 H 82.1397 4.69929 -1.30454 0
M  V30 855 H 81.1447 4.19522 -3.55361 0
M  V30 856 H 82.3697 5.22981 -4.33207 0
M  V30 857 H 80.3157 6.14917 -2.28502 0
M  V30 858 H 80.2327 6.41813 -3.99515 0
M  V30 859 H 81.5007 7.16506 -3.06984 0
M  V30 860 N 85.7298 1.2412 0.971189 0
M  V30 861 C 87.0068 0.986867 1.6888 0
M  V30 862 C 87.3868 -0.491857 2.0529 0
M  V30 863 O 86.7348 -1.46531 1.75331 0
M  V30 864 C 86.9448 1.9063 2.92338 0
M  V30 865 C 88.2928 2.17515 3.64654 0
M  V30 866 O 89.3168 1.88254 3.02388 0
M  V30 867 O 88.1758 2.6719 4.7673 0
M  V30 868 H 85.2698 0.372944 0.738134 0
M  V30 869 H 87.8158 1.35203 1.02559 0
M  V30 870 H 86.5878 2.90552 2.62097 0
M  V30 871 H 86.2108 1.54408 3.66393 0
M  V30 872 N 87.2079 -1.17134 1.05439 0
M  V30 873 C 88.4539 -1.87733 0.767077 0
M  V30 874 C 88.7869 -1.8098 -0.704253 0
M  V30 875 O 88.0619 -1.21951 -1.5152 0
M  V30 876 C 88.3449 -3.37659 1.25133 0
M  V30 877 C 88.1979 -3.53149 2.78578 0
M  V30 878 C 89.5169 -4.31768 0.852324 0
M  V30 879 H 86.6359 -0.681687 0.280129 0
M  V30 880 H 89.2779 -1.37732 1.30881 0
M  V30 881 H 87.4279 -3.80373 0.790469 0
M  V30 882 H 89.0999 -3.19434 3.32806 0
M  V30 883 H 87.3429 -2.95345 3.17732 0
M  V30 884 H 88.0139 -4.58403 3.07523 0
M  V30 885 H 90.4899 -3.96909 1.24911 0
M  V30 886 H 89.3659 -5.35199 1.21873 0
M  V30 887 H 89.6269 -4.41429 -0.243485 0
M  V30 888 N 88.686 -0.835752 -1.33615 0
M  V30 889 C 89.616 -0.281739 -2.31794 0
M  V30 890 C 90.597 0.608833 -1.58831 0
M  V30 891 O 91.782 0.533035 -1.86741 0
M  V30 892 C 88.912 0.546612 -3.42971 0
M  V30 893 C 87.866 -0.247904 -4.27281 0
M  V30 894 C 87.192 0.704001 -5.30045 0
M  V30 895 C 88.492 -1.46324 -5.01385 0
M  V30 896 H 90.186 -1.10206 -2.78379 0
M  V30 897 H 87.732 -0.531388 -1.33837 0
M  V30 898 H 89.685 0.944467 -4.1068 0
M  V30 899 H 88.409 1.40011 -2.95067 0
M  V30 900 H 87.068 -0.627281 -3.61194 0
M  V30 901 H 86.716 1.55381 -4.78399 0
M  V30 902 H 86.416 0.176524 -5.87335 0
M  V30 903 H 87.94 1.09944 -6.0062 0
M  V30 904 H 89.354 -1.13871 -5.61877 0
M  V30 905 H 87.751 -1.92728 -5.6831 0
M  V30 906 H 88.821 -2.23467 -4.30338 0
M  V30 907 N 90.1641 1.46063 -0.591896 0
M  V30 908 C 91.4131 2.01547 -0.0786637 0
M  V30 909 C 91.7261 1.46796 1.29268 0
M  V30 910 O 92.9321 1.94157 1.89777 0
M  V30 911 C 91.3881 3.59787 -0.0900024 0
M  V30 912 C 90.9961 4.23534 -1.46023 0
M  V30 913 C 92.7401 4.22895 0.368806 0
M  V30 914 C 90.6471 5.73881 -1.4288 0
M  V30 915 H 89.5771 0.753564 -0.0256388 0
M  V30 916 H 92.2281 1.677 -0.744905 0
M  V30 917 H 90.6101 3.90752 0.642586 0
M  V30 918 H 91.7841 4.04167 -2.21328 0
M  V30 919 H 90.0991 3.72558 -1.85982 0
M  V30 920 H 92.6961 5.33116 0.411258 0
M  V30 921 H 93.0391 3.9247 1.38827 0
M  V30 922 H 93.5721 3.9659 -0.31001 0
M  V30 923 H 90.3111 6.0898 -2.42536 0
M  V30 924 H 89.8311 5.95486 -0.718095 0
M  V30 925 H 91.5101 6.36776 -1.14565 0
M  V30 926 N 91.6422 0.330177 1.54103 0
M  V30 927 C 92.5892 -0.532762 2.24567 0
M  V30 928 C 93.5592 -1.10635 1.23892 0
M  V30 929 O 94.7442 -1.14546 1.5259 0
M  V30 930 C 91.8842 -1.6845 3.01195 0
M  V30 931 C 90.9972 -1.13951 4.167 0
M  V30 932 C 90.1322 -2.25746 4.80845 0
M  V30 933 C 89.1712 -1.6853 5.88442 0
M  V30 934 N 88.3082 -2.74014 6.46421 0
M  V30 935 H 93.1482 0.0746905 2.97906 0
M  V30 936 H 90.6852 0.048632 1.4702 0
M  V30 937 H 92.6432 -2.36234 3.43874 0
M  V30 938 H 91.2732 -2.26314 2.30178 0
M  V30 939 H 90.3252 -0.35301 3.78758 0
M  V30 940 H 91.6372 -0.680892 4.94131 0
M  V30 941 H 90.7912 -3.01422 5.26526 0
M  V30 942 H 89.5302 -2.74947 4.0281 0
M  V30 943 H 88.5352 -0.913543 5.42157 0
M  V30 944 H 89.7602 -1.20198 6.68378 0
M  V30 945 H 87.7062 -3.22494 5.71256 0
M  V30 946 H 87.6232 -2.32735 7.19285 0
M  V30 947 H 88.8912 -3.49499 6.96757 0
M  V30 948 N 93.1203 -1.57491 0.0584922 0
M  V30 949 C 94.3483 -1.97296 -0.623037 0
M  V30 950 C 94.7633 -0.936338 -1.63946 0
M  V30 951 O 94.1203 0.0785981 -1.82331 0
M  V30 952 C 94.1713 -3.37183 -1.30345 0
M  V30 953 O 93.8923 -4.36872 -0.32773 0
M  V30 954 C 95.3933 -3.91788 -2.07406 0
M  V30 955 H 92.6133 -0.649153 -0.169826 0
M  V30 956 H 95.1573 -2.04106 0.12696 0
M  V30 957 H 93.3123 -3.31502 -2.00463 0
M  V30 958 H 93.7263 -5.18141 -0.814269 0
M  V30 959 H 95.2003 -4.91926 -2.50425 0
M  V30 960 H 95.6773 -3.27609 -2.92521 0
M  V30 961 H 96.2833 -4.00829 -1.42184 0
M  V30 962 N 94.5984 0.214957 -1.56127 0
M  V30 963 C 95.5614 1.24997 -1.92116 0
M  V30 964 C 96.5614 1.39467 -0.800344 0
M  V30 965 O 97.7514 1.37619 -1.06802 0
M  V30 966 C 94.8834 2.62271 -2.17777 0
M  V30 967 H 96.0764 0.942875 -2.84693 0
M  V30 968 H 93.6294 0.455654 -1.49511 0
M  V30 969 H 94.3644 2.98068 -1.27773 0
M  V30 970 H 94.1494 2.53143 -2.99434 0
M  V30 971 H 95.6394 3.36946 -2.46693 0
M  V30 972 N 96.0765 1.50051 0.48192 0
M  V30 973 C 97.4875 1.5348 1.06305 0
M  V30 974 C 97.8385 0.331997 1.93371 0
M  V30 975 O 96.9635 -0.556256 2.09129 0
M  V30 976 C 97.5585 2.7813 1.93466 0
M  V30 977 C 96.1175 2.84275 2.46707 0
M  V30 978 C 95.2645 2.47637 1.24785 0
M  V30 979 H 98.2155 1.56472 0.264995 0
M  V30 980 H 98.2365 2.59372 2.78399 0
M  V30 981 H 97.7485 3.65654 1.30072 0
M  V30 982 H 95.8495 2.01077 3.13686 0
M  V30 983 H 95.9625 3.8691 2.82555 0
M  V30 984 H 94.3265 1.99835 1.57918 0
M  V30 985 H 95.1095 3.37457 0.630694 0
M  V30 986 N 97.5546 -0.734337 1.39446 0
M  V30 987 C 98.4876 -1.85715 1.32609 0
M  V30 988 C 99.4656 -1.6137 0.199636 0
M  V30 989 O 100.65 -1.84626 0.380195 0
M  V30 990 C 97.7766 -3.21709 1.05929 0
M  V30 991 C 96.8226 -3.64913 2.20773 0
M  V30 992 S 97.6556 -3.74203 3.83056 0
M  V30 993 C 98.8116 -5.12986 3.58603 0
M  V30 994 H 99.0446 -1.91232 2.27635 0
M  V30 995 H 96.5776 -0.899263 1.25509 0
M  V30 996 H 98.5356 -4.00236 0.912203 0
M  V30 997 H 97.1966 -3.13848 0.125883 0
M  V30 998 H 96.3896 -4.63606 1.97699 0
M  V30 999 H 95.9916 -2.93593 2.31688 0
M  V30 1000 H 98.2836 -5.99339 3.15909 0
M  V30 1001 H 99.2266 -5.41088 4.5676 0
M  V30 1002 H 99.6346 -4.82694 2.9269 0
M  V30 1003 N 99.0327 -1.24633 -0.964593 0
M  V30 1004 C 99.9627 -1.06611 -2.07741 0
M  V30 1005 C 100.944 0.0218666 -1.70086 0
M  V30 1006 O 102.129 -0.145793 -1.93652 0
M  V30 1007 C 99.2587 -0.673444 -3.40708 0
M  V30 1008 C 98.2127 -1.71054 -3.92332 0
M  V30 1009 C 97.5387 -1.17285 -5.21678 0
M  V30 1010 C 98.8387 -3.10718 -4.19824 0
M  V30 1011 H 100.533 -1.99693 -2.23076 0
M  V30 1012 H 98.0787 -0.96152 -1.07195 0
M  V30 1013 H 100.032 -0.534345 -4.17998 0
M  V30 1014 H 98.7557 0.293073 -3.25282 0
M  V30 1015 H 97.4147 -1.83791 -3.17201 0
M  V30 1016 H 97.0627 -0.196847 -5.02615 0
M  V30 1017 H 96.7627 -1.86592 -5.57187 0
M  V30 1018 H 98.2867 -1.04593 -6.01575 0
M  V30 1019 H 99.7007 -3.01192 -4.87808 0
M  V30 1020 H 98.0977 -3.77406 -4.66567 0
M  V30 1021 H 99.1677 -3.58524 -3.26479 0
M  V30 1022 N 100.511 1.16574 -1.06058 0
M  V30 1023 C 101.459 2.22941 -0.663343 0
M  V30 1024 C 102.453 1.66358 0.319593 0
M  V30 1025 O 103.659 1.7905 0.184713 0
M  V30 1026 H 100.034 0.725907 -0.196376 0
M  V30 1027 H 102.005 2.53736 -1.57037 0
M  V30 1028 C 100.754 3.47642 -0.0632808 0
M  V30 1029 H 100.077 3.91493 -0.810733 0
M  V30 1030 H 101.517 4.2363 0.177177 0
M  V30 1031 C 99.9758 3.1509 1.19248 0
M  V30 1032 O 100.506 3.30673 2.28075 0
M  V30 1033 N 98.7118 2.6924 1.09353 0
M  V30 1034 H 98.2588 2.5676 0.207912 0
M  V30 1035 H 98.2168 2.47833 1.93458 0
M  V30 1036 N 101.989 0.842826 1.3317 0
M  V30 1037 C 103.214 0.453129 2.02389 0
M  V30 1038 C 103.639 -0.939105 1.6298 0
M  V30 1039 O 102.997 -1.61472 0.8244 0
M  V30 1040 C 103.045 0.586094 3.55805 0
M  V30 1041 O 102.149 -0.386029 4.10589 0
M  V30 1042 H 101.49 0.183664 0.638094 0
M  V30 1043 H 104.02 1.13875 1.69981 0
M  V30 1044 H 104.03 0.469209 4.05293 0
M  V30 1045 H 102.705 1.6014 3.83833 0
M  V30 1046 H 101.282 -0.226371 3.72212 0
M  V30 1047 N 103.467 -1.45747 0.599634 0
M  V30 1048 C 104.878 -1.85853 0.177681 0
M  V30 1049 C 105.229 -1.50102 -1.26348 0
M  V30 1050 O 104.354 -0.923905 -1.95686 0
M  V30 1051 C 104.949 -3.37326 0.315688 0
M  V30 1052 C 103.508 -3.76365 -0.0515144 0
M  V30 1053 C 102.655 -2.69722 0.643822 0
M  V30 1054 H 105.606 -1.36661 0.806814 0
M  V30 1055 H 105.627 -3.77778 -0.454321 0
M  V30 1056 H 105.139 -3.63315 1.36468 0
M  V30 1057 H 103.24 -3.55993 -1.09999 0
M  V30 1058 H 103.353 -4.77916 0.336594 0
M  V30 1059 H 101.717 -2.54567 0.0822881 0
M  V30 1060 H 102.5 -2.98549 1.6948 0
M  V30 1061 N 104.945 -0.338344 -1.53925 0
M  V30 1062 C 105.893 0.536231 -2.26335 0
M  V30 1063 C 106.887 1.1063 -1.28286 0
M  V30 1064 O 108.093 1.05264 -1.46012 0
M  V30 1065 H 104.468 0.191602 -0.727181 0
M  V30 1066 H 106.439 -0.0965747 -2.98244 0
M  V30 1067 C 105.188 1.67803 -3.04528 0
M  V30 1068 H 104.511 1.24864 -3.79801 0
M  V30 1069 H 105.951 2.26526 -3.58416 0
M  V30 1070 C 104.41 2.60439 -2.13712 0
M  V30 1071 O 104.94 3.6255 -1.72975 0
M  V30 1072 N 103.146 2.29006 -1.78898 0
M  V30 1073 H 102.693 1.46011 -2.12223 0
M  V30 1074 H 102.651 2.91248 -1.18416 0
M  V30 1075 N 106.423 1.57458 -0.0668435 0
M  V30 1076 C 107.672 1.92477 0.602947 0
M  V30 1077 C 107.985 0.948419 1.71068 0
M  V30 1078 O 109.191 1.19124 2.43971 0
M  V30 1079 C 107.647 3.41903 1.12383 0
M  V30 1080 C 107.255 4.47975 0.04737 0
M  V30 1081 C 108.999 3.85931 1.76797 0
M  V30 1082 C 106.906 5.88529 0.582022 0
M  V30 1083 H 105.836 0.718387 0.22899 0
M  V30 1084 H 108.487 1.82978 -0.138276 0
M  V30 1085 H 106.869 3.46459 1.91787 0
M  V30 1086 H 108.043 4.55029 -0.726978 0
M  V30 1087 H 106.358 4.13384 -0.500243 0
M  V30 1088 H 108.955 4.88322 2.17821 0
M  V30 1089 H 109.298 3.23029 2.62599 0
M  V30 1090 H 109.831 3.83958 1.04024 0
M  V30 1091 H 106.57 6.55065 -0.238721 0
M  V30 1092 H 106.09 5.85004 1.324 0
M  V30 1093 H 107.769 6.38258 1.05999 0
M  V30 1094 N 107.901 -0.206675 1.56239 0
M  V30 1095 C 108.811 -1.27686 1.96808 0
M  V30 1096 C 109.827 -1.50455 0.874035 0
M  V30 1097 O 111.003 -1.63295 1.17884 0
M  V30 1098 C 108.068 -2.60358 2.28942 0
M  V30 1099 C 107.129 -2.45762 3.51994 0
M  V30 1100 C 106.362 -3.72108 3.82585 0
M  V30 1101 O 106.585 -4.75776 3.14631 0
M  V30 1102 O 105.519 -3.6833 4.76043 0
M  V30 1103 H 109.345 -0.962593 2.88041 0
M  V30 1104 H 106.93 -0.410746 1.43643 0
M  V30 1105 H 108.812 -3.38687 2.50737 0
M  V30 1106 H 107.487 -2.91435 1.4088 0
M  V30 1107 H 106.394 -1.65584 3.35459 0
M  V30 1108 H 107.727 -2.19621 4.40486 0
M  V30 1109 N 109.379 -1.50304 -0.473955 0
M  V30 1110 C 110.342 -1.6841 -1.55469 0
M  V30 1111 C 111.342 -0.554905 -1.50922 0
M  V30 1112 O 112.532 -0.821882 -1.53593 0
M  V30 1113 C 109.664 -1.70667 -2.95102 0
M  V30 1114 H 110.857 -2.64828 -1.40733 0
M  V30 1115 H 108.41 -1.39742 -0.700132 0
M  V30 1116 H 109.145 -0.75932 -3.15285 0
M  V30 1117 H 108.93 -2.52698 -2.9981 0
M  V30 1118 H 110.42 -1.8664 -3.73571 0
M  V30 1119 N 110.857 0.726932 -1.39834 0
M  V30 1120 C 112.097 1.4992 -1.38936 0
M  V30 1121 C 112.461 1.91996 0.0126883 0
M  V30 1122 O 113.662 2.68399 0.146715 0
M  V30 1123 C 111.933 2.70013 -2.34153 0
M  V30 1124 S 113.492 3.59563 -2.51515 0
M  V30 1125 H 110.31 0.51271 -0.492595 0
M  V30 1126 H 112.912 0.85107 -1.76003 0
M  V30 1127 H 111.616 2.37254 -3.34871 0
M  V30 1128 H 111.147 3.39748 -1.98331 0
M  V30 1129 H 113.162 4.63973 -1.75909 0
M  V30 1130 N 112.336 1.25143 0.95797 0
M  V30 1131 C 113.584 1.09476 1.69881 0
M  V30 1132 C 113.905 -0.365502 1.91544 0
M  V30 1133 O 113.175 -1.25985 1.50015 0
M  V30 1134 H 111.755 0.402128 0.629525 0
M  V30 1135 H 114.417 1.57214 1.15194 0
M  V30 1136 H 113.513 1.60046 2.6794 0
M  V30 1137 N 113.814 -1.1601 1.06675 0
M  V30 1138 C 115.044 -1.90251 0.805497 0
M  V30 1139 C 115.452 -1.77891 -0.64431 0
M  V30 1140 O 114.795 -1.12383 -1.45313 0
M  V30 1141 C 114.857 -3.41419 1.12576 0
M  V30 1142 C 114.521 -3.77564 2.57477 0
M  V30 1143 C 115.518 -3.79161 3.55715 0
M  V30 1144 C 113.203 -4.08079 2.92877 0
M  V30 1145 C 115.197 -4.10767 4.8739 0
M  V30 1146 C 112.884 -4.39351 4.24751 0
M  V30 1147 C 113.882 -4.40675 5.21818 0
M  V30 1148 O 113.57 -4.71202 6.51325 0
M  V30 1149 H 113.302 -0.610018 0.291297 0
M  V30 1150 H 115.856 -1.47958 1.4247 0
M  V30 1151 H 114.086 -3.84079 0.449503 0
M  V30 1152 H 115.775 -3.9694 0.84814 0
M  V30 1153 H 116.541 -3.55693 3.29708 0
M  V30 1154 H 112.42 -4.06211 2.17976 0
M  V30 1155 H 115.964 -4.11715 5.63148 0
M  V30 1156 H 111.861 -4.62285 4.50514 0
M  V30 1157 H 112.629 -4.88996 6.56373 0
M  V30 1158 N 115.292 -0.849877 -1.32721 0
M  V30 1159 C 116.517 -0.463856 -2.02146 0
M  V30 1160 C 116.942 0.930449 -1.63476 0
M  V30 1161 O 116.3 1.61033 -0.832952 0
M  V30 1162 C 116.348 -0.604955 -3.55489 0
M  V30 1163 O 115.452 0.36425 -4.10788 0
M  V30 1164 H 114.793 -0.187046 -0.637111 0
M  V30 1165 H 117.323 -1.14775 -1.69375 0
M  V30 1166 H 117.333 -0.490696 -4.05038 0
M  V30 1167 H 116.008 -1.62174 -3.82978 0
M  V30 1168 H 114.585 0.206628 -3.72327 0
M  V30 1169 N 116.77 1.45427 -0.607355 0
M  V30 1170 C 118.047 1.9557 -0.0344566 0
M  V30 1171 C 118.427 1.54979 1.43334 0
M  V30 1172 O 117.775 0.812241 2.13576 0
M  V30 1173 C 117.985 3.48226 -0.232321 0
M  V30 1174 C 119.333 4.2445 -0.113001 0
M  V30 1175 O 120.357 3.55829 -0.162431 0
M  V30 1176 O 119.216 5.465 0.00209442 0
M  V30 1177 H 116.31 0.826222 0.0358667 0
M  V30 1178 H 118.856 1.55594 -0.6774 0
M  V30 1179 H 117.628 3.70739 -1.25174 0
M  V30 1180 H 117.251 3.95092 0.445896 0
M  V30 1181 N 118.248 0.346503 1.53744 0
M  V30 1182 C 119.664 -0.00530975 1.59599 0
M  V30 1183 C 119.864 -1.48465 1.36236 0
M  V30 1184 O 118.92 -2.24376 1.15808 0
M  V30 1185 C 120.233 0.433516 2.97559 0
M  V30 1186 C 121.781 0.386111 3.10609 0
M  V30 1187 C 122.256 0.800451 4.50951 0
M  V30 1188 N 123.747 0.754753 4.5701 0
M  V30 1189 C 124.482 1.04727 5.63755 0
M  V30 1190 N 123.978 1.4081 6.7834 0
M  V30 1191 N 125.771 0.971316 5.53644 0
M  V30 1192 H 117.922 1.31009 1.67184 0
M  V30 1193 H 120.185 0.534242 0.783128 0
M  V30 1194 H 119.891 1.46509 3.19731 0
M  V30 1195 H 119.765 -0.189753 3.76722 0
M  V30 1196 H 122.152 -0.636295 2.88158 0
M  V30 1197 H 122.233 1.04462 2.33498 0
M  V30 1198 H 121.877 1.82088 4.74137 0
M  V30 1199 H 121.807 0.119386 5.26465 0
M  V30 1200 H 124.298 0.488662 3.74727 0
M  V30 1201 H 124.611 1.61607 7.55714 0
M  V30 1202 H 122.956 1.44657 6.79779 0
M  V30 1203 H 126.147 0.688748 4.63005 0
M  V30 1204 H 126.32 1.20263 6.36742 0
M  V30 1205 N 119.726 -1.57421 0.075193 0
M  V30 1206 C 120.972 -1.93905 -0.594025 0
M  V30 1207 C 121.305 -0.955701 -1.69056 0
M  V30 1208 O 120.58 0.0145373 -1.94495 0
M  V30 1209 C 120.863 -3.40638 -1.1678 0
M  V30 1210 C 120.716 -4.49733 -0.0776792 0
M  V30 1211 C 122.035 -3.88259 -2.07228 0
M  V30 1212 H 119.154 -0.705105 -0.214466 0
M  V30 1213 H 121.796 -1.8947 0.141854 0
M  V30 1214 H 119.946 -3.44549 -1.79494 0
M  V30 1215 H 121.618 -4.57942 0.555573 0
M  V30 1216 H 119.861 -4.29751 0.591286 0
M  V30 1217 H 120.532 -5.49549 -0.519603 0
M  V30 1218 H 123.008 -3.86376 -1.54445 0
M  V30 1219 H 121.884 -4.91533 -2.44308 0
M  V30 1220 H 122.145 -3.26396 -2.98191 0
M  V30 1221 N 121.204 0.198386 -1.56346 0
M  V30 1222 C 122.134 1.24865 -1.9731 0
M  V30 1223 C 123.115 1.47651 -0.844576 0
M  V30 1224 O 124.3 1.59444 -1.10866 0
M  V30 1225 C 121.43 2.59358 -2.30977 0
M  V30 1226 C 120.384 2.5119 -3.46537 0
M  V30 1227 C 119.71 3.89926 -3.65871 0
M  V30 1228 C 121.01 2.03977 -4.80823 0
M  V30 1229 H 122.704 0.908252 -2.85291 0
M  V30 1230 H 120.25 0.435462 -1.37258 0
M  V30 1231 H 122.203 3.33011 -2.58228 0
M  V30 1232 H 120.927 2.95132 -1.39874 0
M  V30 1233 H 119.586 1.79993 -3.19371 0
M  V30 1234 H 119.234 4.23046 -2.72105 0
M  V30 1235 H 118.934 3.85336 -4.4361 0
M  V30 1236 H 120.458 4.65205 -3.95495 0
M  V30 1237 H 121.872 2.67386 -5.07127 0
M  V30 1238 H 120.269 2.10397 -5.62008 0
M  V30 1239 H 121.339 0.992861 -4.74626 0
M  V30 1240 N 122.682 1.50554 0.465978 0
M  V30 1241 C 123.614 1.65949 1.58093 0
M  V30 1242 C 124.627 0.540827 1.53554 0
M  V30 1243 O 125.816 0.814187 1.5885 0
M  V30 1244 C 122.916 1.63261 2.96983 0
M  V30 1245 C 122.089 2.91245 3.26336 0
M  V30 1246 C 121.148 2.8113 4.44806 0
M  V30 1247 O 120.174 3.55086 4.44862 0
M  V30 1248 N 121.376 1.95032 5.46756 0
M  V30 1249 H 124.141 2.62122 1.45301 0
M  V30 1250 H 121.702 1.48082 0.65448 0
M  V30 1251 H 123.694 1.54101 3.74212 0
M  V30 1252 H 122.264 0.748032 3.03518 0
M  V30 1253 H 121.484 3.14493 2.37672 0
M  V30 1254 H 122.772 3.76022 3.42761 0
M  V30 1255 H 122.17 1.3427 5.49534 0
M  V30 1256 H 120.727 1.91772 6.2295 0
M  V30 1257 N 124.16 -0.719506 1.40217 0
M  V30 1258 C 125.09 -1.8465 1.42922 0
M  V30 1259 C 126.071 -1.67599 0.29062 0
M  V30 1260 O 127.256 -1.87688 0.498677 0
M  V30 1261 C 124.386 -3.22565 1.28722 0
M  V30 1262 C 123.34 -3.54281 2.40144 0
M  V30 1263 C 122.666 -4.91298 2.11023 0
M  V30 1264 C 123.966 -3.55676 3.82481 0
M  V30 1265 H 125.66 -1.82644 2.37237 0
M  V30 1266 H 123.206 -0.877305 1.1419 0
M  V30 1267 H 125.159 -4.01095 1.29232 0
M  V30 1268 H 123.883 -3.25137 0.308811 0
M  V30 1269 H 122.542 -2.78088 2.38877 0
M  V30 1270 H 122.19 -4.90468 1.11582 0
M  V30 1271 H 121.89 -5.13485 2.8567 0
M  V30 1272 H 123.414 -5.72166 2.13209 0
M  V30 1273 H 124.828 -4.24254 3.85592 0
M  V30 1274 H 123.225 -3.89388 4.56614 0
M  V30 1275 H 124.295 -2.55144 4.12346 0
M  V30 1276 N 125.638 -1.25649 -0.95132 0
M  V30 1277 C 126.866 -1.13343 -1.73092 0
M  V30 1278 C 127.281 0.312434 -1.86197 0
M  V30 1279 O 126.638 1.21465 -1.36207 0
M  V30 1280 C 126.689 -1.78602 -3.14299 0
M  V30 1281 O 126.41 -3.17537 -3.01831 0
M  V30 1282 C 127.911 -1.72119 -4.08522 0
M  V30 1283 H 125.131 -0.395181 -0.542285 0
M  V30 1284 H 127.675 -1.66076 -1.19328 0
M  V30 1285 H 125.83 -1.29832 -3.64996 0
M  V30 1286 H 126.244 -3.49676 -3.90931 0
M  V30 1287 H 127.718 -2.22435 -5.052 0
M  V30 1288 H 128.195 -0.685635 -4.33815 0
M  V30 1289 H 128.801 -2.20393 -3.63741 0
M  V30 1290 N 127.117 1.15442 -1.07289 0
M  V30 1291 C 128.047 2.22312 -0.714107 0
M  V30 1292 C 129.028 1.67467 0.298155 0
M  V30 1293 O 130.213 1.93445 0.171048 0
M  V30 1294 C 127.343 3.47124 -0.110448 0
M  V30 1295 C 126.297 4.14926 -1.04979 0
M  V30 1296 C 125.623 5.33807 -0.308924 0
M  V30 1297 C 126.923 4.64762 -2.38314 0
M  V30 1298 H 128.617 2.5258 -1.6076 0
M  V30 1299 H 126.163 1.21404 -0.77441 0
M  V30 1300 H 128.116 4.21124 0.152482 0
M  V30 1301 H 126.84 3.16187 0.81812 0
M  V30 1302 H 125.499 3.42866 -1.29764 0
M  V30 1303 H 125.147 4.99126 0.623084 0
M  V30 1304 H 124.847 5.80113 -0.935036 0
M  V30 1305 H 126.371 6.10576 -0.0537771 0
M  V30 1306 H 127.785 5.30292 -2.1786 0
M  V30 1307 H 126.182 5.21728 -2.96514 0
M  V30 1308 H 127.252 3.80434 -3.00663 0
M  V30 1309 N 128.595 0.856903 1.32268 0
M  V30 1310 C 129.843 0.460474 1.96784 0
M  V30 1311 C 130.164 -0.987701 1.68135 0
M  V30 1312 O 129.434 -1.69058 0.989765 0
M  V30 1313 H 128.014 0.167289 0.728027 0
M  V30 1314 H 130.676 1.09383 1.61312 0
M  V30 1315 H 129.772 0.60739 3.06133 0
M  V30 1316 N 130.073 -1.45103 0.615059 0
M  V30 1317 C 131.021 -2.32331 -0.111791 0
M  V30 1318 C 132.015 -1.46409 -0.852102 0
M  V30 1319 O 133.221 -1.62849 -0.766821 0
M  V30 1320 H 129.596 -0.749993 -0.0549072 0
M  V30 1321 H 131.567 -2.91407 0.642225 0
M  V30 1322 C 130.316 -3.3015 -1.09071 0
M  V30 1323 H 129.639 -3.96265 -0.530485 0
M  V30 1324 H 131.079 -3.93898 -1.56908 0
M  V30 1325 C 129.538 -2.57875 -2.168 0
M  V30 1326 O 130.068 -2.36567 -3.24652 0
M  V30 1327 N 128.274 -2.17884 -1.92289 0
M  V30 1328 H 127.821 -2.35413 -1.04587 0
M  V30 1329 H 127.779 -1.6985 -2.64572 0
M  V30 1330 N 131.551 -0.354651 -1.53558 0
M  V30 1331 C 132.776 0.242153 -2.05981 0
M  V30 1332 C 133.201 1.42553 -1.2272 0
M  V30 1333 O 132.559 1.79656 -0.243604 0
M  V30 1334 C 132.607 0.624367 -3.55154 0
M  V30 1335 O 131.711 1.72301 -3.74681 0
M  V30 1336 H 131.052 0.0378432 -0.662921 0
M  V30 1337 H 133.582 -0.512087 -1.98088 0
M  V30 1338 H 133.592 0.898433 -3.97985 0
M  V30 1339 H 132.267 -0.240989 -4.15201 0
M  V30 1340 H 130.844 1.44535 -3.4375 0
M  V30 1341 N 133.029 1.57378 -0.0835403 0
M  V30 1342 C 134.257 1.98263 0.59157 0
M  V30 1343 C 134.672 0.962302 1.62435 0
M  V30 1344 O 134.029 -0.049581 1.82433 0
M  V30 1345 C 134.08 3.39214 1.24965 0
M  V30 1346 O 133.801 4.37339 0.258186 0
M  V30 1347 C 135.302 3.95038 2.01147 0
M  V30 1348 H 132.522 0.651773 0.159477 0
M  V30 1349 H 135.066 2.03878 -0.159415 0
M  V30 1350 H 133.221 3.34649 1.95164 0
M  V30 1351 H 133.635 5.19371 0.731734 0
M  V30 1352 H 135.109 4.95848 2.42567 0
M  V30 1353 H 135.586 3.32222 2.87272 0
M  V30 1354 H 136.192 4.0304 1.35789 0
M  V30 1355 N 134.507 -0.190092 1.56449 0
M  V30 1356 C 135.756 -0.907912 1.80111 0
M  V30 1357 C 136.069 -1.84214 0.657619 0
M  V30 1358 O 137.275 -2.60094 0.778663 0
M  V30 1359 C 135.731 -1.66485 3.19078 0
M  V30 1360 C 135.339 -0.7752 4.41242 0
M  V30 1361 C 137.083 -2.37201 3.52045 0
M  V30 1362 C 134.99 -1.53129 5.71231 0
M  V30 1363 H 133.92 -0.34276 0.671589 0
M  V30 1364 H 136.571 -0.161109 1.82791 0
M  V30 1365 H 134.953 -2.45572 3.10661 0
M  V30 1366 H 136.127 -0.0226298 4.60794 0
M  V30 1367 H 134.442 -0.178627 4.16017 0
M  V30 1368 H 137.039 -2.94329 4.46402 0
M  V30 1369 H 137.382 -3.11632 2.76028 0
M  V30 1370 H 137.915 -1.65075 3.61932 0
M  V30 1371 H 134.654 -0.82967 6.50228 0
M  V30 1372 H 134.174 -2.25767 5.55688 0
M  V30 1373 H 135.853 -2.08377 6.12526 0
M  V30 1374 N 135.985 -1.50799 -0.457987 0
M  V30 1375 C 137.213 -1.66218 -1.23203 0
M  V30 1376 C 137.628 -0.350894 -1.85511 0
M  V30 1377 O 136.985 0.668546 -1.69814 0
M  V30 1378 C 137.036 -2.76291 -2.33121 0
M  V30 1379 O 136.757 -4.02338 -1.73366 0
M  V30 1380 C 138.258 -3.028 -3.2377 0
M  V30 1381 H 135.478 -0.558361 -0.372121 0
M  V30 1382 H 138.022 -1.97099 -0.545179 0
M  V30 1383 H 136.177 -2.48068 -2.97558 0
M  V30 1384 H 136.591 -4.63312 -2.4585 0
M  V30 1385 H 138.065 -3.8345 -3.97077 0
M  V30 1386 H 138.542 -2.14385 -3.83322 0
M  V30 1387 H 139.148 -3.32604 -2.65056 0
M  V30 1388 N 137.463 0.71206 -1.40597 0
M  V30 1389 C 138.691 1.50111 -1.42388 0
M  V30 1390 C 139.106 1.88784 -0.0245395 0
M  V30 1391 O 138.463 1.55681 0.952351 0
M  V30 1392 C 138.514 2.7742 -2.31776 0
M  V30 1393 O 138.235 2.40382 -3.66262 0
M  V30 1394 C 139.736 3.7129 -2.42196 0
M  V30 1395 H 136.956 0.46314 -0.485533 0
M  V30 1396 H 139.5 0.878068 -1.8469 0
M  V30 1397 H 137.655 3.36001 -1.92827 0
M  V30 1398 H 138.069 3.22324 -4.13772 0
M  V30 1399 H 139.543 4.57448 -3.08943 0
M  V30 1400 H 140.02 4.14641 -1.44809 0
M  V30 1401 H 140.626 3.18619 -2.81712 0
M  V30 1402 N 138.941 1.26152 0.944643 0
M  V30 1403 C 139.873 1.03199 2.04652 0
M  V30 1404 C 140.886 -0.00642356 1.62799 0
M  V30 1405 O 142.075 0.233263 1.76969 0
M  V30 1406 C 139.175 0.540111 3.34568 0
M  V30 1407 C 138.348 1.64697 4.05208 0
M  V30 1408 C 137.407 1.15374 5.13396 0
M  V30 1409 O 136.433 1.85013 5.38293 0
M  V30 1410 N 137.635 0.00031529 5.805 0
M  V30 1411 H 140.4 1.9808 2.2491 0
M  V30 1412 H 137.961 1.17491 1.11389 0
M  V30 1413 H 139.953 0.194401 4.04233 0
M  V30 1414 H 138.523 -0.315021 3.11009 0
M  V30 1415 H 137.743 2.16379 3.29506 0
M  V30 1416 H 139.031 2.3903 4.49157 0
M  V30 1417 H 138.429 -0.581336 5.62705 0
M  V30 1418 H 136.986 -0.286346 6.51171 0
M  V30 1419 N 140.419 -1.14872 1.07899 0
M  V30 1420 C 141.329 -2.2341 0.715915 0
M  V30 1421 C 142.345 -1.71808 -0.275306 0
M  V30 1422 O 143.521 -2.01039 -0.120545 0
M  V30 1423 C 140.586 -3.46474 0.125168 0
M  V30 1424 C 139.647 -4.13039 1.17034 0
M  V30 1425 C 138.88 -5.30229 0.607688 0
M  V30 1426 O 139.103 -5.675 -0.574497 0
M  V30 1427 O 138.037 -5.86444 1.35526 0
M  V30 1428 H 141.863 -2.56808 1.62121 0
M  V30 1429 H 139.448 -1.22702 0.852322 0
M  V30 1430 H 141.33 -4.20917 -0.201729 0
M  V30 1431 H 140.005 -3.14811 -0.753364 0
M  V30 1432 H 138.912 -3.40493 1.54968 0
M  V30 1433 H 140.245 -4.48796 2.02097 0
M  V30 1434 N 141.898 -0.863906 -1.31812 0
M  V30 1435 C 142.861 -0.320212 -2.26952 0
M  V30 1436 C 143.861 0.525369 -1.51975 0
M  V30 1437 O 145.051 0.335547 -1.70938 0
M  V30 1438 C 142.183 0.545919 -3.365 0
M  V30 1439 H 143.376 -1.16004 -2.76556 0
M  V30 1440 H 140.929 -0.638995 -1.42641 0
M  V30 1441 H 141.664 1.40718 -2.92179 0
M  V30 1442 H 141.449 -0.0594674 -3.92055 0
M  V30 1443 H 142.939 0.918796 -4.07367 0
M  V30 1444 N 143.376 1.44774 -0.622745 0
M  V30 1445 C 144.339 2.29069 0.0774015 0
M  V30 1446 C 145.339 1.4059 0.780461 0
M  V30 1447 O 146.529 1.62551 0.626322 0
M  V30 1448 C 143.661 3.21974 1.12006 0
M  V30 1449 H 144.854 2.92459 -0.663901 0
M  V30 1450 H 142.407 1.51548 -0.382486 0
M  V30 1451 H 143.142 2.63417 1.89162 0
M  V30 1452 H 142.927 3.87168 0.619951 0
M  V30 1453 H 144.417 3.85318 1.60995 0
M  V30 1454 N 144.854 0.36279 1.53368 0
M  V30 1455 C 145.802 -0.500155 2.27159 0
M  V30 1456 C 146.796 -1.08575 1.3003 0
M  V30 1457 O 148.002 -1.02927 1.47668 0
M  V30 1458 H 144.377 -0.180009 0.730138 0
M  V30 1459 H 146.348 0.14401 2.98052 0
M  V30 1460 C 145.097 -1.62937 3.07159 0
M  V30 1461 H 144.42 -1.18806 3.8174 0
M  V30 1462 H 145.86 -2.20795 3.61975 0
M  V30 1463 C 144.319 -2.57007 2.17829 0
M  V30 1464 O 144.849 -3.59752 1.78721 0
M  V30 1465 N 143.055 -2.26131 1.82518 0
M  V30 1466 H 142.602 -1.42616 2.14519 0
M  V30 1467 H 142.56 -2.89327 1.23034 0
M  V30 1468 N 146.332 -1.57332 0.0918853 0
M  V30 1469 C 147.557 -1.98995 -0.584442 0
M  V30 1470 C 147.982 -0.970528 -1.61128 0
M  V30 1471 O 147.34 0.0613904 -1.81196 0
M  V30 1472 C 147.388 -3.39636 -1.21161 0
M  V30 1473 O 146.492 -3.40447 -2.32744 0
M  V30 1474 H 145.833 -0.647165 -0.148572 0
M  V30 1475 H 148.363 -2.03873 0.172347 0
M  V30 1476 H 148.373 -3.7726 -1.55367 0
M  V30 1477 H 147.048 -4.13356 -0.459313 0
M  V30 1478 H 145.625 -3.14614 -2.0018 0
M  V30 1479 N 147.81 0.181792 -1.56548 0
M  V30 1480 C 149.056 0.901431 -1.81665 0
M  V30 1481 C 149.389 1.82347 -0.668075 0
M  V30 1482 O 148.664 1.91669 0.330615 0
M  V30 1483 C 148.947 1.70618 -3.17115 0
M  V30 1484 C 148.8 0.807964 -4.42484 0
M  V30 1485 C 150.119 2.67605 -3.49393 0
M  V30 1486 H 147.238 0.32627 -0.660846 0
M  V30 1487 H 149.88 0.168134 -1.89255 0
M  V30 1488 H 148.03 2.33133 -3.10775 0
M  V30 1489 H 149.702 0.19649 -4.60881 0
M  V30 1490 H 147.945 0.115411 -4.33646 0
M  V30 1491 H 148.616 1.40632 -5.33785 0
M  V30 1492 H 151.092 2.15218 -3.56118 0
M  V30 1493 H 149.968 3.20985 -4.45264 0
M  V30 1494 H 150.229 3.47298 -2.73563 0
M  V30 1495 N 149.288 1.51039 0.449983 0
M  V30 1496 C 150.534 1.63322 1.20223 0
M  V30 1497 C 150.867 0.34241 1.91158 0
M  V30 1498 O 150.142 -0.657344 1.83055 0
M  V30 1499 C 150.425 2.82801 2.22925 0
M  V30 1500 C 150.278 4.21823 1.56157 0
M  V30 1501 C 151.597 2.97807 3.24035 0
M  V30 1502 H 148.716 0.594407 0.435718 0
M  V30 1503 H 151.358 1.83489 0.493136 0
M  V30 1504 H 149.508 2.65738 2.834 0
M  V30 1505 H 151.18 4.50526 0.991162 0
M  V30 1506 H 149.423 4.25105 0.864172 0
M  V30 1507 H 150.094 5.01391 2.30891 0
M  V30 1508 H 152.57 3.13497 2.73603 0
M  V30 1509 H 151.446 3.82992 3.93202 0
M  V30 1510 H 151.707 2.09328 3.89402 0
M  V30 1511 N 150.766 -0.704594 1.40972 0
M  V30 1512 C 151.729 -1.80035 1.41845 0
M  V30 1513 C 152.729 -1.57774 0.310474 0
M  V30 1514 O 153.919 -1.64613 0.56992 0
M  V30 1515 C 151.051 -3.18284 1.22098 0
M  V30 1516 H 152.244 -1.80658 2.3938 0
M  V30 1517 H 149.797 -0.911329 1.26982 0
M  V30 1518 H 150.532 -3.23306 0.253672 0
M  V30 1519 H 150.317 -3.35843 2.02366 0
M  V30 1520 H 151.807 -3.98289 1.25522 0
M  V30 1521 N 152.244 -1.26651 -0.937939 0
M  V30 1522 C 153.474 -1.15006 -1.71631 0
M  V30 1523 C 153.882 0.297026 -1.86854 0
M  V30 1524 O 153.225 1.21493 -1.37786 0
M  V30 1525 C 153.287 -1.74984 -3.14039 0
M  V30 1526 C 152.951 -3.24103 -3.2219 0
M  V30 1527 C 153.948 -4.20877 -3.05219 0
M  V30 1528 C 151.633 -3.64625 -3.45476 0
M  V30 1529 C 153.627 -5.56151 -3.11408 0
M  V30 1530 C 151.314 -5.00032 -3.513 0
M  V30 1531 C 152.312 -5.95604 -3.34282 0
M  V30 1532 O 152 -7.28545 -3.3982 0
M  V30 1533 H 151.732 -0.401183 -0.544085 0
M  V30 1534 H 154.286 -1.67832 -1.18413 0
M  V30 1535 H 152.516 -1.16624 -3.68695 0
M  V30 1536 H 154.205 -1.58199 -3.73802 0
M  V30 1537 H 154.971 -3.90908 -2.87081 0
M  V30 1538 H 150.85 -2.90718 -3.57777 0
M  V30 1539 H 154.394 -6.30727 -2.98043 0
M  V30 1540 H 150.291 -5.29659 -3.68959 0
M  V30 1541 H 151.059 -7.3686 -3.56343 0
M  V30 1542 N 153.722 1.14298 -1.08507 0
M  V30 1543 C 154.97 1.84993 -0.813763 0
M  V30 1544 C 155.291 1.83405 0.662393 0
M  V30 1545 O 154.561 1.28319 1.48024 0
M  V30 1546 H 153.141 0.684966 -0.298045 0
M  V30 1547 H 155.803 1.385 -1.37126 0
M  V30 1548 H 154.899 2.89788 -1.15884 0
M  V30 1549 N 155.201 0.870884 1.31352 0
M  V30 1550 C 156.617 0.562932 1.49343 0
M  V30 1551 C 156.817 -0.902725 1.80148 0
M  V30 1552 O 155.873 -1.68484 1.88067 0
M  V30 1553 C 157.186 1.46393 2.62659 0
M  V30 1554 C 158.734 1.46607 2.76542 0
M  V30 1555 C 159.209 2.35266 3.92955 0
M  V30 1556 N 160.7 2.33151 4.00243 0
M  V30 1557 C 161.435 2.98471 4.89594 0
M  V30 1558 N 160.931 3.72964 5.8384 0
M  V30 1559 N 162.724 2.87775 4.82848 0
M  V30 1560 H 154.875 1.81923 1.09626 0
M  V30 1561 H 157.138 0.777934 0.541777 0
M  V30 1562 H 156.844 2.50689 2.46674 0
M  V30 1563 H 156.718 1.16314 3.58819 0
M  V30 1564 H 159.105 0.43069 2.9194 0
M  V30 1565 H 159.186 1.8071 1.81046 0
M  V30 1566 H 158.83 3.38881 3.78315 0
M  V30 1567 H 158.76 1.98487 4.87761 0
M  V30 1568 H 161.251 1.79006 3.32814 0
M  V30 1569 H 161.564 4.19932 6.4875 0
M  V30 1570 H 159.909 3.77073 5.83816 0
M  V30 1571 H 163.1 2.29116 4.08195 0
M  V30 1572 H 163.273 3.38961 5.52277 0
M  V30 1573 N 156.679 -1.44442 0.630414 0
M  V30 1574 C 157.925 -2.02894 0.143332 0
M  V30 1575 C 158.28 -1.48697 -1.22094 0
M  V30 1576 O 157.573 -0.661171 -1.79831 0
M  V30 1577 C 157.767 -3.57332 0.0697835 0
M  V30 1578 C 157.596 -4.26512 1.42539 0
M  V30 1579 C 156.366 -4.63516 2.01198 0
M  V30 1580 C 158.564 -4.57004 2.35907 0
M  V30 1581 N 156.546 -5.17661 3.30001 0
M  V30 1582 C 157.917 -5.12223 3.49324 0
M  V30 1583 C 159.972 -4.38955 2.34995 0
M  V30 1584 C 158.675 -5.51295 4.62024 0
M  V30 1585 C 160.701 -4.79075 3.46758 0
M  V30 1586 C 160.063 -5.34407 4.58899 0
M  V30 1587 H 156.162 -0.776041 0.0963523 0
M  V30 1588 H 158.746 -1.75945 0.833752 0
M  V30 1589 H 156.917 -3.83894 -0.589915 0
M  V30 1590 H 158.649 -4.02451 -0.42606 0
M  V30 1591 H 155.404 -4.47811 1.54151 0
M  V30 1592 H 155.828 -5.4921 3.95851 0
M  V30 1593 H 160.47 -3.95469 1.49545 0
M  V30 1594 H 158.188 -5.93736 5.48182 0
M  V30 1595 H 161.774 -4.66824 3.47227 0
M  V30 1596 H 160.654 -5.64878 5.4395 0
M  V30 1597 N 158.157 -0.370918 -1.53173 0
M  V30 1598 C 159.568 0.107139 -1.86392 0
M  V30 1599 C 159.919 1.47714 -1.29132 0
M  V30 1600 O 159.044 2.07464 -0.615439 0
M  V30 1601 C 159.639 0.201187 -3.38202 0
M  V30 1602 C 158.198 0.623507 -3.712 0
M  V30 1603 C 157.345 -0.225978 -2.76378 0
M  V30 1604 H 160.296 -0.58951 -1.47345 0
M  V30 1605 H 160.317 1.02377 -3.66468 0
M  V30 1606 H 159.829 -0.796058 -3.79848 0
M  V30 1607 H 157.93 1.62879 -3.35114 0
M  V30 1608 H 158.043 0.394414 -4.77474 0
M  V30 1609 H 156.407 0.305962 -2.52856 0
M  V30 1610 H 157.19 -1.22086 -3.20858 0
M  V30 1611 N 159.635 1.57281 -0.100228 0
M  V30 1612 C 160.545 2.17833 0.870965 0
M  V30 1613 C 161.561 1.14921 1.30649 0
M  V30 1614 O 162.737 1.47313 1.37335 0
M  V30 1615 C 159.802 2.75085 2.1102 0
M  V30 1616 C 158.863 3.9297 1.72838 0
M  V30 1617 C 158.096 4.47482 2.90854 0
M  V30 1618 O 158.319 4.00922 4.05731 0
M  V30 1619 O 157.253 5.38433 2.69023 0
M  V30 1620 H 161.079 3.0124 0.38575 0
M  V30 1621 H 158.664 1.48881 0.124397 0
M  V30 1622 H 160.546 3.11656 2.83634 0
M  V30 1623 H 159.221 1.94721 2.58584 0
M  V30 1624 H 158.128 3.61201 0.973883 0
M  V30 1625 H 159.461 4.74713 1.30033 0
M  V30 1626 N 161.113 -0.173488 1.56642 0
M  V30 1627 C 162.343 -0.904781 1.85734 0
M  V30 1628 C 162.751 -1.76431 0.68328 0
M  V30 1629 O 162.094 -1.802 -0.356865 0
M  V30 1630 C 162.156 -1.83382 3.09211 0
M  V30 1631 C 161.82 -1.15411 4.42187 0
M  V30 1632 C 162.817 -0.520609 5.17287 0
M  V30 1633 C 160.502 -1.15151 4.88923 0
M  V30 1634 C 162.496 0.106412 6.37311 0
M  V30 1635 C 160.183 -0.520664 6.08878 0
M  V30 1636 C 161.181 0.107196 6.82916 0
M  V30 1637 O 160.869 0.728102 8.00596 0
M  V30 1638 H 160.601 -0.268408 0.62043 0
M  V30 1639 H 163.155 -0.179096 2.04618 0
M  V30 1640 H 161.385 -2.59976 2.86268 0
M  V30 1641 H 163.074 -2.43476 3.24768 0
M  V30 1642 H 163.84 -0.514606 4.82262 0
M  V30 1643 H 159.719 -1.62961 4.31236 0
M  V30 1644 H 163.263 0.597081 6.9504 0
M  V30 1645 H 159.16 -0.524242 6.43368 0
M  V30 1646 H 159.928 0.627138 8.16094 0
M  V30 1647 N 162.591 -1.51276 -0.441967 0
M  V30 1648 C 163.521 -1.752 -1.54361 0
M  V30 1649 C 164.502 -0.601682 -1.59103 0
M  V30 1650 O 165.687 -0.843913 -1.74905 0
M  V30 1651 C 162.817 -1.87282 -2.92477 0
M  V30 1652 C 161.771 -3.02687 -3.02596 0
M  V30 1653 C 161.097 -2.99947 -4.42647 0
M  V30 1654 C 162.397 -4.4273 -2.77106 0
M  V30 1655 H 164.091 -2.67442 -1.34592 0
M  V30 1656 H 161.637 -1.28694 -0.646048 0
M  V30 1657 H 163.59 -2.02602 -3.695 0
M  V30 1658 H 162.314 -0.916844 -3.13467 0
M  V30 1659 H 160.973 -2.87065 -2.28012 0
M  V30 1660 H 160.621 -2.02136 -4.60597 0
M  V30 1661 H 160.321 -3.77439 -4.50348 0
M  V30 1662 H 161.845 -3.17354 -5.2165 0
M  V30 1663 H 163.259 -4.58727 -3.43864 0
M  V30 1664 H 161.656 -5.21893 -2.96222 0
M  V30 1665 H 162.726 -4.53087 -1.72744 0
M  V30 1666 N 164.069 0.697108 -1.41344 0
M  V30 1667 C 165.485 1.00751 -1.2378 0
M  V30 1668 C 165.685 2.01105 -0.126066 0
M  V30 1669 O 164.741 2.47295 0.51004 0
M  V30 1670 C 166.054 1.53359 -2.58653 0
M  V30 1671 C 167.602 1.6525 -2.65822 0
M  V30 1672 C 168.077 2.2126 -4.01009 0
M  V30 1673 N 169.568 2.28622 -4.02847 0
M  V30 1674 C 170.303 2.72984 -5.04249 0
M  V30 1675 N 169.799 3.16962 -6.16041 0
M  V30 1676 N 171.592 2.72534 -4.91611 0
M  V30 1677 H 163.743 0.0322662 -2.12375 0
M  V30 1678 H 166.006 0.0768853 -0.944877 0
M  V30 1679 H 165.712 0.870773 -3.4075 0
M  V30 1680 H 165.586 2.51597 -2.81032 0
M  V30 1681 H 167.973 2.30644 -1.84086 0
M  V30 1682 H 168.054 0.655614 -2.47256 0
M  V30 1683 H 167.698 1.56482 -4.83193 0
M  V30 1684 H 167.628 3.21698 -4.16915 0
M  V30 1685 H 170.119 1.97585 -3.22131 0
M  V30 1686 H 170.432 3.49434 -6.89287 0
M  V30 1687 H 168.777 3.14875 -6.1958 0
M  V30 1688 H 171.968 2.37525 -4.0336 0
M  V30 1689 H 172.141 3.06789 -5.70775 0
M  V30 1690 N 165.547 1.27147 0.931209 0
M  V30 1691 C 166.824 1.0401 1.65654 0
M  V30 1692 C 167.204 -0.426297 2.06751 0
M  V30 1693 O 166.552 -1.40879 1.79904 0
M  V30 1694 C 166.762 1.99834 2.86125 0
M  V30 1695 C 168.11 2.29007 3.57549 0
M  V30 1696 O 169.134 1.97779 2.96246 0
M  V30 1697 O 167.993 2.82222 4.67989 0
M  V30 1698 H 165.087 0.396239 0.725895 0
M  V30 1699 H 167.633 1.38397 0.982056 0
M  V30 1700 H 166.405 2.98744 2.52721 0
M  V30 1701 H 166.028 1.65987 3.61295 0
M  V30 1702 N 167.025 -1.13721 1.09112 0
M  V30 1703 C 168.25 -1.89314 0.847053 0
M  V30 1704 C 168.675 -1.78416 -0.595774 0
M  V30 1705 O 168.033 -1.12942 -1.41823 0
M  V30 1706 C 168.081 -3.3701 1.28284 0
M  V30 1707 O 167.185 -4.10054 0.439267 0
M  V30 1708 H 166.526 -0.588745 0.307044 0
M  V30 1709 H 169.056 -1.43902 1.45442 0
M  V30 1710 H 169.066 -3.87834 1.26683 0
M  V30 1711 H 167.741 -3.4426 2.33363 0
M  V30 1712 H 166.318 -3.69266 0.519312 0
M  V30 1713 N 168.503 -0.877838 -1.30888 0
M  V30 1714 C 169.413 -0.343096 -2.32078 0
M  V30 1715 C 170.429 0.551022 -1.65045 0
M  V30 1716 O 171.605 0.445854 -1.96403 0
M  V30 1717 C 168.67 0.439905 -3.43898 0
M  V30 1718 C 167.731 -0.483111 -4.26573 0
M  V30 1719 C 166.964 0.262616 -5.33053 0
M  V30 1720 O 167.187 1.48967 -5.50604 0
M  V30 1721 O 166.121 -0.383593 -6.00676 0
M  V30 1722 H 169.947 -1.18203 -2.79753 0
M  V30 1723 H 167.532 -0.64145 -1.34929 0
M  V30 1724 H 169.414 0.883504 -4.12034 0
M  V30 1725 H 168.089 1.25526 -2.98371 0
M  V30 1726 H 166.996 -0.975374 -3.61161 0
M  V30 1727 H 168.329 -1.26427 -4.75686 0
M  V30 1728 N 169.982 1.44106 -0.638065 0
M  V30 1729 C 170.945 2.29138 0.0531013 0
M  V30 1730 C 171.945 1.41409 0.765506 0
M  V30 1731 O 173.135 1.63206 0.609046 0
M  V30 1732 C 170.267 3.23144 1.08584 0
M  V30 1733 H 171.46 2.91739 -0.694883 0
M  V30 1734 H 169.013 1.51134 -0.398538 0
M  V30 1735 H 169.748 2.65408 1.86357 0
M  V30 1736 H 169.533 3.87804 0.578852 0
M  V30 1737 H 171.023 3.87004 1.56899 0
M  V30 1738 N 171.46 0.379036 1.52974 0
M  V30 1739 C 172.408 -0.476033 2.27677 0
M  V30 1740 C 173.402 -1.0719 1.31174 0
M  V30 1741 O 174.608 -1.01355 1.48752 0
M  V30 1742 H 170.983 -0.172255 0.732006 0
M  V30 1743 H 172.954 0.175615 2.97883 0
M  V30 1744 C 171.703 -1.5967 3.0887 0
M  V30 1745 H 171.026 -1.1475 3.82978 0
M  V30 1746 H 172.466 -2.16943 3.64296 0
M  V30 1747 C 170.925 -2.54682 2.20542 0
M  V30 1748 O 171.455 -3.57836 1.82527 0
M  V30 1749 N 169.661 -2.24183 1.84907 0
M  V30 1750 H 169.208 -1.40333 2.1602 0
M  V30 1751 H 169.166 -2.88006 1.26096 0
M  V30 1752 N 172.938 -1.57226 0.108567 0
M  V30 1753 C 174.349 -1.8195 -0.418464 0
M  V30 1754 C 174.7 -1.02508 -1.67292 0
M  V30 1755 O 173.825 -0.258496 -2.14851 0
M  V30 1756 C 174.42 -3.30028 -0.765979 0
M  V30 1757 C 172.979 -3.55469 -1.23769 0
M  V30 1758 C 172.126 -2.7625 -0.241106 0
M  V30 1759 H 175.077 -1.55149 0.33384 0
M  V30 1760 H 175.098 -3.44086 -1.62434 0
M  V30 1761 H 174.61 -3.87821 0.147219 0
M  V30 1762 H 172.711 -3.03022 -2.16814 0
M  V30 1763 H 172.824 -4.6408 -1.19022 0
M  V30 1764 H 171.188 -2.44133 -0.72602 0
M  V30 1765 H 171.971 -3.36797 0.665007 0
M  V30 1766 N 174.416 0.165178 -1.56732 0
M  V30 1767 C 175.662 0.882112 -1.82611 0
M  V30 1768 C 175.995 1.81628 -0.687378 0
M  V30 1769 O 175.27 1.92009 0.310267 0
M  V30 1770 C 175.553 1.67245 -3.18906 0
M  V30 1771 C 175.406 0.760987 -4.43316 0
M  V30 1772 C 176.725 2.63884 -3.52212 0
M  V30 1773 H 173.844 0.319242 -0.664269 0
M  V30 1774 H 176.486 0.148052 -1.89422 0
M  V30 1775 H 174.636 2.29824 -3.1323 0
M  V30 1776 H 176.308 0.147596 -4.61064 0
M  V30 1777 H 174.551 0.0694102 -4.33744 0
M  V30 1778 H 175.222 1.34962 -5.35247 0
M  V30 1779 H 177.698 2.11429 -3.58381 0
M  V30 1780 H 176.574 3.16245 -4.48643 0
M  V30 1781 H 176.835 3.44377 -2.77231 0
M  V30 1782 N 175.894 1.51508 0.433938 0
M  V30 1783 C 177.171 1.54888 1.19453 0
M  V30 1784 C 177.551 0.315154 2.08734 0
M  V30 1785 O 176.899 -0.699558 2.17528 0
M  V30 1786 C 177.109 2.86467 1.99342 0
M  V30 1787 C 178.457 3.38545 2.56267 0
M  V30 1788 O 179.481 2.88041 2.0955 0
M  V30 1789 O 178.34 4.26675 3.41483 0
M  V30 1790 H 175.434 0.622863 0.544032 0
M  V30 1791 H 177.98 1.63823 0.442732 0
M  V30 1792 H 176.752 3.67718 1.33788 0
M  V30 1793 H 176.375 2.8071 2.8158 0
M  V30 1794 N 177.372 -0.689602 1.41712 0
M  V30 1795 C 178.304 -1.815 1.39966 0
M  V30 1796 C 179.317 -1.59995 0.300917 0
M  V30 1797 O 180.506 -1.69387 0.563039 0
M  V30 1798 C 177.606 -3.18364 1.16179 0
M  V30 1799 C 176.779 -3.66847 2.38206 0
M  V30 1800 C 175.838 -4.82398 2.10186 0
M  V30 1801 O 174.864 -4.93706 2.83272 0
M  V30 1802 N 176.066 -5.70064 1.0958 0
M  V30 1803 H 178.831 -1.83488 2.36965 0
M  V30 1804 H 176.392 -0.872149 1.36401 0
M  V30 1805 H 178.384 -3.93301 0.953756 0
M  V30 1806 H 176.954 -3.11365 0.27756 0
M  V30 1807 H 176.174 -2.82751 2.74673 0
M  V30 1808 H 177.462 -3.95978 3.19498 0
M  V30 1809 H 176.86 -5.63565 0.491019 0
M  V30 1810 H 175.417 -6.44874 0.947656 0
M  V30 1811 N 178.85 -1.27639 -0.924453 0
M  V30 1812 C 180.261 -1.12834 -1.48746 0
M  V30 1813 C 180.612 0.285505 -1.94112 0
M  V30 1814 O 179.737 1.17874 -1.81479 0
M  V30 1815 C 180.332 -2.04217 -2.70334 0
M  V30 1816 C 178.891 -1.93509 -3.22848 0
M  V30 1817 C 178.038 -1.96583 -1.95577 0
M  V30 1818 H 180.989 -1.40484 -0.738233 0
M  V30 1819 H 181.01 -1.59989 -3.4523 0
M  V30 1820 H 180.522 -3.07111 -2.37285 0
M  V30 1821 H 178.623 -0.936131 -3.60649 0
M  V30 1822 H 178.736 -2.79917 -3.88823 0
M  V30 1823 H 177.1 -1.4085 -2.12211 0
M  V30 1824 H 177.883 -3.01137 -1.64837 0
M  V30 1825 N 180.328 1.1314 -1.09713 0
M  V30 1826 C 181.556 1.88321 -0.856898 0
M  V30 1827 C 181.971 1.79276 0.592073 0
M  V30 1828 O 181.328 1.16142 1.40774 0
M  V30 1829 C 181.379 3.37812 -1.28706 0
M  V30 1830 O 181.1 3.46627 -2.67921 0
M  V30 1831 C 182.601 4.29952 -1.07964 0
M  V30 1832 H 179.821 0.596094 -0.308079 0
M  V30 1833 H 182.365 1.43205 -1.45988 0
M  V30 1834 H 180.52 3.805 -0.727912 0
M  V30 1835 H 180.934 4.39579 -2.8613 0
M  V30 1836 H 182.408 5.33159 -1.42986 0
M  V30 1837 H 182.885 4.39196 -0.0176577 0
M  V30 1838 H 183.491 3.93036 -1.62489 0
M  V30 1839 N 181.806 0.884767 1.30421 0
M  V30 1840 C 182.716 0.355398 2.31892 0
M  V30 1841 C 183.732 -0.542261 1.65335 0
M  V30 1842 O 184.908 -0.435432 1.96637 0
M  V30 1843 C 181.973 -0.421661 3.44126 0
M  V30 1844 C 181.034 0.505727 4.26311 0
M  V30 1845 C 180.267 -0.234343 5.33185 0
M  V30 1846 O 180.49 -1.46045 5.51386 0
M  V30 1847 O 179.424 0.415443 6.00465 0
M  V30 1848 H 183.25 1.19685 2.79122 0
M  V30 1849 H 180.835 0.648596 1.34587 0
M  V30 1850 H 182.717 -0.861641 4.12497 0
M  V30 1851 H 181.392 -1.23942 2.99032 0
M  V30 1852 H 180.299 0.994513 3.60639 0
M  V30 1853 H 181.632 1.28948 4.75009 0
M  V30 1854 N 183.284 -1.43765 0.645699 0
M  V30 1855 C 184.695 -1.85193 0.236719 0
M  V30 1856 C 185.046 -1.54045 -1.21509 0
M  V30 1857 O 184.171 -0.985694 -1.92647 0
M  V30 1858 C 184.766 -3.36151 0.422845 0
M  V30 1859 C 183.325 -3.76338 0.0682492 0
M  V30 1860 C 182.472 -2.67538 0.729306 0
M  V30 1861 H 185.423 -1.34025 0.849883 0
M  V30 1862 H 185.444 -3.79032 -0.333904 0
M  V30 1863 H 184.956 -3.5879 1.47958 0
M  V30 1864 H 183.057 -3.59312 -0.986179 0
M  V30 1865 H 183.17 -4.76603 0.488469 0
M  V30 1866 H 181.534 -2.54176 0.163235 0
M  V30 1867 H 182.317 -2.93006 1.78892 0
M  V30 1868 N 184.763 -0.387143 -1.52771 0
M  V30 1869 C 186.04 0.253197 -1.93954 0
M  V30 1870 C 186.42 1.64545 -1.32243 0
M  V30 1871 O 185.768 2.23191 -0.489699 0
M  V30 1872 C 185.978 0.281722 -3.47861 0
M  V30 1873 C 187.326 0.511715 -4.21505 0
M  V30 1874 O 188.35 0.362023 -3.54356 0
M  V30 1875 O 187.209 0.804847 -5.40541 0
M  V30 1876 H 184.303 0.156845 -0.811991 0
M  V30 1877 H 186.849 -0.441494 -1.63856 0
M  V30 1878 H 185.621 -0.693571 -3.85104 0
M  V30 1879 H 185.244 1.02142 -3.84256 0
M  V30 1880 N 186.241 1.57166 -0.116904 0
M  V30 1881 C 187.487 1.95412 0.542405 0
M  V30 1882 C 187.82 1.00019 1.66463 0
M  V30 1883 O 187.095 0.0370346 1.94465 0
M  V30 1884 C 187.378 3.43615 1.07708 0
M  V30 1885 C 187.231 4.49781 -0.0415868 0
M  V30 1886 C 188.55 3.93616 1.96861 0
M  V30 1887 H 185.669 0.710543 0.195696 0
M  V30 1888 H 188.311 1.89027 -0.192038 0
M  V30 1889 H 186.461 3.49187 1.70296 0
M  V30 1890 H 188.133 4.56308 -0.676793 0
M  V30 1891 H 186.376 4.28033 -0.705019 0
M  V30 1892 H 187.047 5.50733 0.373717 0
M  V30 1893 H 189.523 3.90335 1.44146 0
M  V30 1894 H 188.399 4.97838 2.3119 0
M  V30 1895 H 188.66 3.34188 2.89432 0
M  V30 1896 N 187.719 -0.156864 1.56817 0
M  V30 1897 C 188.682 -1.17781 1.96622 0
M  V30 1898 C 189.682 -1.36401 0.851555 0
M  V30 1899 O 190.872 -1.33561 1.11836 0
M  V30 1900 C 188.004 -2.54008 2.27361 0
M  V30 1901 H 189.197 -0.836564 2.87996 0
M  V30 1902 H 186.75 -0.39985 1.51099 0
M  V30 1903 H 187.485 -2.9312 1.38748 0
M  V30 1904 H 187.27 -2.41856 3.08623 0
M  V30 1905 H 188.76 -3.27558 2.59029 0
M  V30 1906 N 189.197 -1.51736 -0.425897 0
M  V30 1907 C 190.16 -1.73271 -1.50032 0
M  V30 1908 C 191.16 -0.602639 -1.4908 0
M  V30 1909 O 192.35 -0.87033 -1.509 0
M  V30 1910 C 189.482 -1.79969 -2.89523 0
M  V30 1911 H 190.675 -2.69172 -1.32237 0
M  V30 1912 H 188.228 -1.41899 -0.65532 0
M  V30 1913 H 188.963 -0.859241 -3.1271 0
M  V30 1914 H 188.748 -2.62109 -2.91619 0
M  V30 1915 H 190.238 -1.9843 -3.67444 0
M  V30 1916 N 190.675 0.682077 -1.42076 0
M  V30 1917 C 191.915 1.45424 -1.43636 0
M  V30 1918 C 192.279 1.91939 -0.0484001 0
M  V30 1919 O 193.48 2.6873 0.0612514 0
M  V30 1920 C 191.751 2.62427 -2.42625 0
M  V30 1921 S 193.31 3.51379 -2.62827 0
M  V30 1922 H 190.128 0.496779 -0.508657 0
M  V30 1923 H 192.73 0.794645 -1.78621 0
M  V30 1924 H 191.434 2.26481 -3.42249 0
M  V30 1925 H 190.965 3.33266 -2.09039 0
M  V30 1926 H 192.98 4.58141 -1.9058 0
M  V30 1927 N 192.153 1.28127 0.917671 0
M  V30 1928 C 193.569 1.05749 1.19538 0
M  V30 1929 C 193.769 -0.202633 2.00479 0
M  V30 1930 O 192.825 -0.905382 2.3571 0
M  V30 1931 C 194.138 2.30273 1.93378 0
M  V30 1932 C 195.686 2.35412 2.06277 0
M  V30 1933 C 196.161 3.59692 2.83524 0
M  V30 1934 N 197.652 3.60309 2.91087 0
M  V30 1935 C 198.387 4.53147 3.51348 0
M  V30 1936 N 197.883 5.563 4.12919 0
M  V30 1937 N 199.676 4.40751 3.48849 0
M  V30 1938 H 191.827 2.09024 0.377184 0
M  V30 1939 H 194.09 0.919798 0.22951 0
M  V30 1940 H 193.796 3.22055 1.41328 0
M  V30 1941 H 193.67 2.36378 2.93947 0
M  V30 1942 H 196.057 1.4413 2.57508 0
M  V30 1943 H 196.138 2.33304 1.04895 0
M  V30 1944 H 195.782 4.51316 2.32973 0
M  V30 1945 H 195.712 3.59054 3.85211 0
M  V30 1946 H 198.203 2.85714 2.47338 0
M  V30 1947 H 198.516 6.2329 4.56869 0
M  V30 1948 H 196.861 5.60131 4.11435 0
M  V30 1949 H 200.052 3.59367 2.99955 0
M  V30 1950 H 200.225 5.13291 3.9552 0
M  V30 1951 N 193.631 -1.12557 1.10312 0
M  V30 1952 C 194.878 -1.84038 0.844759 0
M  V30 1953 C 195.206 -1.84026 -0.629668 0
M  V30 1954 O 194.461 -1.28026 -1.48013 0
M  V30 1955 C 194.76 -3.31462 1.33669 0
M  V30 1956 C 194.426 -3.51647 2.82232 0
M  V30 1957 C 193.088 -3.56864 3.22802 0
M  V30 1958 C 195.44 -3.58867 3.77974 0
M  V30 1959 C 192.768 -3.66844 4.57867 0
M  V30 1960 C 195.12 -3.70375 5.1284 0
M  V30 1961 C 193.784 -3.73848 5.52986 0
M  V30 1962 H 193.054 -0.673444 0.309119 0
M  V30 1963 H 195.701 -1.32824 1.37949 0
M  V30 1964 H 194.006 -3.85091 0.721949 0
M  V30 1965 H 195.703 -3.85236 1.11329 0
M  V30 1966 H 192.293 -3.48249 2.49842 0
M  V30 1967 H 196.477 -3.54107 3.47738 0
M  V30 1968 H 191.733 -3.67804 4.88396 0
M  V30 1969 H 195.907 -3.74904 5.86873 0
M  V30 1970 H 193.534 -3.81333 6.57639 0
M  V30 1971 N 195.109 -0.891671 -1.2995 0
M  V30 1972 C 196.339 -0.527893 -1.99742 0
M  V30 1973 C 196.747 0.88979 -1.66971 0
M  V30 1974 O 196.09 1.59766 -0.906667 0
M  V30 1975 C 196.152 -0.630804 -3.53922 0
M  V30 1976 C 195.816 -2.01401 -4.10228 0
M  V30 1977 C 196.813 -2.98422 -4.25724 0
M  V30 1978 C 194.498 -2.32121 -4.45449 0
M  V30 1979 C 196.492 -4.24293 -4.75662 0
M  V30 1980 C 194.179 -3.58237 -4.95086 0
M  V30 1981 C 195.177 -4.54137 -5.10146 0
M  V30 1982 O 194.865 -5.78014 -5.58708 0
M  V30 1983 H 194.597 -0.201953 -0.645129 0
M  V30 1984 H 197.151 -1.20076 -1.66646 0
M  V30 1985 H 195.381 0.0990616 -3.86573 0
M  V30 1986 H 197.07 -0.277338 -4.04951 0
M  V30 1987 H 197.836 -2.76001 -3.98809 0
M  V30 1988 H 193.715 -1.5824 -4.32991 0
M  V30 1989 H 197.259 -4.99153 -4.87332 0
M  V30 1990 H 193.156 -3.80491 -5.21437 0
M  V30 1991 H 193.924 -5.8049 -5.77039 0
M  V30 1992 N 196.587 1.43421 -0.653314 0
M  V30 1993 C 197.815 2.06163 -0.174491 0
M  V30 1994 C 198.23 1.48969 1.1599 0
M  V30 1995 O 197.587 0.621042 1.71608 0
M  V30 1996 C 197.638 3.61417 -0.0774865 0
M  V30 1997 O 197.359 4.16485 -1.35912 0
M  V30 1998 C 198.86 4.41235 0.427402 0
M  V30 1999 H 196.08 0.664946 -0.0899353 0
M  V30 2000 H 198.624 1.83924 -0.893988 0
M  V30 2001 H 196.779 3.82841 0.59257 0
M  V30 2002 H 197.193 5.10153 -1.21839 0
M  V30 2003 H 198.667 5.5021 0.44423 0
M  V30 2004 H 199.144 4.14268 1.45873 0
M  V30 2005 H 199.75 4.2478 -0.210167 0
M  V30 2006 N 198.065 0.39524 1.52563 0
M  V30 2007 C 198.995 -0.428384 2.29537 0
M  V30 2008 C 199.976 -1.05831 1.33169 0
M  V30 2009 O 201.161 -1.06995 1.62067 0
M  V30 2010 C 198.291 -1.55274 3.10656 0
M  V30 2011 C 197.245 -1.04855 4.14957 0
M  V30 2012 C 196.571 -2.26543 4.84337 0
M  V30 2013 C 197.871 -0.112324 5.22179 0
M  V30 2014 H 199.565 0.213867 2.98635 0
M  V30 2015 H 197.111 0.104298 1.43622 0
M  V30 2016 H 199.064 -2.1358 3.63265 0
M  V30 2017 H 197.788 -2.22266 2.39302 0
M  V30 2018 H 196.447 -0.487985 3.63338 0
M  V30 2019 H 196.095 -2.92059 4.09525 0
M  V30 2020 H 195.795 -1.93466 5.54837 0
M  V30 2021 H 197.319 -2.85481 5.39753 0
M  V30 2022 H 198.733 -0.603752 5.70112 0
M  V30 2023 H 197.13 0.128968 5.99961 0
M  V30 2024 H 198.2 0.837052 4.77621 0
M  V30 2025 N 199.544 -1.57102 0.125237 0
M  V30 2026 C 200.821 -1.86953 -0.575142 0
M  V30 2027 C 201.201 -1.02749 -1.84407 0
M  V30 2028 O 200.549 -0.108144 -2.28244 0
M  V30 2029 C 200.759 -3.38198 -0.861583 0
M  V30 2030 C 202.107 -4.06937 -1.21192 0
M  V30 2031 O 203.131 -3.43252 -0.951645 0
M  V30 2032 O 201.99 -5.19364 -1.70068 0
M  V30 2033 H 199.084 -0.774147 -0.290906 0
M  V30 2034 H 201.63 -1.68942 0.160211 0
M  V30 2035 H 200.402 -3.91282 0.0373647 0
M  V30 2036 H 200.025 -3.61661 -1.65188 0
M  V30 2037 N 201.022 0.148545 -1.56898 0
M  V30 2038 C 202.25 0.876389 -1.87422 0
M  V30 2039 C 202.665 1.74809 -0.713256 0
M  V30 2040 O 202.022 1.79725 0.317025 0
M  V30 2041 C 202.073 1.73438 -3.17178 0
M  V30 2042 O 201.794 0.897809 -4.28802 0
M  V30 2043 C 203.295 2.56993 -3.61205 0
M  V30 2044 H 200.515 0.253489 -0.621277 0
M  V30 2045 H 203.059 0.141798 -2.04008 0
M  V30 2046 H 201.214 2.42205 -3.0235 0
M  V30 2047 H 201.628 1.48672 -5.02988 0
M  V30 2048 H 203.102 3.12773 -4.54838 0
M  V30 2049 H 203.579 3.32958 -2.86419 0
M  V30 2050 H 204.185 1.9352 -3.78722 0
M  V30 2051 N 202.5 1.5196 0.417844 0
M  V30 2052 C 203.746 1.65836 1.16732 0
M  V30 2053 C 204.079 0.382881 1.90388 0
M  V30 2054 O 203.354 -0.618368 1.84408 0
M  V30 2055 C 203.637 2.87466 2.16876 0
M  V30 2056 C 203.49 4.25041 1.47174 0
M  V30 2057 C 204.809 3.04613 3.17646 0
M  V30 2058 H 201.928 0.603515 0.423011 0
M  V30 2059 H 204.57 1.84494 0.454105 0
M  V30 2060 H 202.72 2.71689 2.777 0
M  V30 2061 H 204.392 4.52527 0.895376 0
M  V30 2062 H 202.635 4.26843 0.773806 0
M  V30 2063 H 203.306 5.06176 2.20204 0
M  V30 2064 H 205.782 3.1923 2.66892 0
M  V30 2065 H 204.658 3.91247 3.8499 0
M  V30 2066 H 204.919 2.17541 3.84874 0
M  V30 2067 N 203.978 -0.674533 1.42435 0
M  V30 2068 C 205.203 -1.46784 1.46524 0
M  V30 2069 C 205.628 -1.87938 0.078066 0
M  V30 2070 O 204.986 -1.56014 -0.92354 0
M  V30 2071 C 205.034 -2.69307 2.39805 0
M  V30 2072 O 204.138 -3.67587 1.86959 0
M  V30 2073 H 203.479 -0.440959 0.496439 0
M  V30 2074 H 206.009 -0.827326 1.87127 0
M  V30 2075 H 206.019 -3.17374 2.56393 0
M  V30 2076 H 204.694 -2.38692 3.40586 0
M  V30 2077 H 203.271 -3.2662 1.79927 0
M  V30 2078 N 205.456 -1.28612 -0.910864 0
M  V30 2079 C 206.702 -1.17116 -1.66299 0
M  V30 2080 C 207.057 0.276917 -1.90397 0
M  V30 2081 O 206.35 1.19795 -1.49532 0
M  V30 2082 C 206.544 -1.90624 -3.0232 0
M  V30 2083 C 206.373 -3.42431 -2.91498 0
M  V30 2084 C 205.143 -4.11773 -2.92867 0
M  V30 2085 C 207.341 -4.38124 -2.69355 0
M  V30 2086 N 205.323 -5.50025 -2.72664 0
M  V30 2087 C 206.694 -5.63759 -2.58023 0
M  V30 2088 C 208.749 -4.28016 -2.54375 0
M  V30 2089 C 207.452 -6.80436 -2.33238 0
M  V30 2090 C 209.478 -5.44433 -2.30969 0
M  V30 2091 C 208.84 -6.69034 -2.20394 0
M  V30 2092 H 204.939 -0.483506 -0.61461 0
M  V30 2093 H 207.523 -1.62299 -1.0755 0
M  V30 2094 H 205.694 -1.4787 -3.5915 0
M  V30 2095 H 207.426 -1.71488 -3.66571 0
M  V30 2096 H 204.181 -3.63378 -3.03732 0
M  V30 2097 H 204.605 -6.22705 -2.65646 0
M  V30 2098 H 209.247 -3.32388 -2.613 0
M  V30 2099 H 206.965 -7.7613 -2.25051 0
M  V30 2100 H 210.551 -5.38504 -2.20238 0
M  V30 2101 H 209.431 -7.57595 -2.02531 0
M  V30 2102 N 206.934 1.1197 -1.10907 0
M  V30 2103 C 208.162 1.87402 -0.876824 0
M  V30 2104 C 208.577 1.79894 0.573025 0
M  V30 2105 O 207.934 1.17629 1.39534 0
M  V30 2106 C 207.985 3.36428 -1.32282 0
M  V30 2107 O 207.706 3.43765 -2.71582 0
M  V30 2108 C 209.207 4.28783 -1.12518 0
M  V30 2109 H 206.427 0.592793 -0.314384 0
M  V30 2110 H 208.971 1.41649 -1.47499 0
M  V30 2111 H 207.126 3.79706 -0.768229 0
M  V30 2112 H 207.54 4.3652 -2.90776 0
M  V30 2113 H 209.014 5.31613 -1.48633 0
M  V30 2114 H 209.491 4.39153 -0.0642394 0
M  V30 2115 H 210.097 3.91291 -1.66648 0
M  V30 2116 N 208.412 0.89855 1.29475 0
M  V30 2117 C 209.359 0.373819 2.27753 0
M  V30 2118 C 210.329 -0.543444 1.56958 0
M  V30 2119 O 211.514 -0.468934 1.84948 0
M  V30 2120 C 208.654 -0.393648 3.42848 0
M  V30 2121 C 207.767 0.554379 4.28428 0
M  V30 2122 C 206.902 -0.230026 5.30702 0
M  V30 2123 C 205.941 0.712599 6.07938 0
M  V30 2124 N 205.078 -0.0373283 7.0209 0
M  V30 2125 H 209.918 1.21699 2.72017 0
M  V30 2126 H 207.455 0.611456 1.33789 0
M  V30 2127 H 209.413 -0.85466 4.08352 0
M  V30 2128 H 208.043 -1.20128 2.99615 0
M  V30 2129 H 207.095 1.13391 3.63107 0
M  V30 2130 H 208.407 1.27597 4.82204 0
M  V30 2131 H 207.561 -0.752288 6.02018 0
M  V30 2132 H 206.3 -0.984758 4.77654 0
M  V30 2133 H 205.305 1.24637 5.35486 0
M  V30 2134 H 206.53 1.46664 6.63074 0
M  V30 2135 H 204.476 -0.774348 6.51414 0
M  V30 2136 H 204.393 0.624374 7.53417 0
M  V30 2137 H 205.661 -0.539891 7.77628 0
M  V30 2138 N 209.89 -1.43072 0.660911 0
M  V30 2139 C 210.8 -2.34585 -0.0264163 0
M  V30 2140 C 211.816 -1.54316 -0.803898 0
M  V30 2141 O 212.992 -1.86939 -0.749391 0
M  V30 2142 C 210.057 -3.32689 -0.975639 0
M  V30 2143 C 209.118 -4.2886 -0.194236 0
M  V30 2144 C 208.351 -5.22278 -1.09825 0
M  V30 2145 O 208.574 -5.20299 -2.33763 0
M  V30 2146 O 207.508 -5.99228 -0.566513 0
M  V30 2147 H 211.334 -2.94869 0.727034 0
M  V30 2148 H 208.919 -1.43342 0.42111 0
M  V30 2149 H 210.801 -3.92995 -1.52094 0
M  V30 2150 H 209.476 -2.74898 -1.70918 0
M  V30 2151 H 208.383 -3.72011 0.394835 0
M  V30 2152 H 209.716 -4.89655 0.499899 0
M  V30 2153 N 211.368 -0.403325 -1.52352 0
M  V30 2154 C 212.593 0.176499 -2.06648 0
M  V30 2155 C 213.018 1.38577 -1.27193 0
M  V30 2156 O 212.376 1.7879 -0.300637 0
M  V30 2157 C 212.424 0.511061 -3.5696 0
M  V30 2158 O 211.528 1.60294 -3.79973 0
M  V30 2159 H 210.869 0.0167337 -0.663789 0
M  V30 2160 H 213.399 -0.574848 -1.96359 0
M  V30 2161 H 213.409 0.771362 -4.00642 0
M  V30 2162 H 212.084 -0.37296 -4.14224 0
M  V30 2163 H 210.661 1.33526 -3.48174 0
M  V30 2164 N 212.846 1.57033 -0.133567 0
M  V30 2165 C 214.262 1.58035 0.222944 0
M  V30 2166 C 214.462 1.14713 1.6566 0
M  V30 2167 O 213.518 0.841218 2.38075 0
M  V30 2168 C 214.831 3.00691 -0.0236116 0
M  V30 2169 C 216.379 3.12973 0.0411512 0
M  V30 2170 C 216.854 4.57654 -0.177899 0
M  V30 2171 N 218.345 4.63033 -0.124365 0
M  V30 2172 C 219.08 5.72771 -0.268553 0
M  V30 2173 N 218.576 6.91206 -0.46972 0
M  V30 2174 N 220.369 5.61718 -0.2071 0
M  V30 2175 H 212.52 1.8349 -1.06981 0
M  V30 2176 H 214.783 0.848677 -0.422436 0
M  V30 2177 H 214.489 3.36726 -1.0153 0
M  V30 2178 H 214.363 3.70614 0.701808 0
M  V30 2179 H 216.75 2.76787 1.02338 0
M  V30 2180 H 216.831 2.45564 -0.716383 0
M  V30 2181 H 216.475 4.94542 -1.15717 0
M  V30 2182 H 216.405 5.23173 0.599797 0
M  V30 2183 H 218.896 3.7789 0.027011 0
M  V30 2184 H 219.209 7.70693 -0.570212 0
M  V30 2185 H 217.554 6.93156 -0.505876 0
M  V30 2186 H 220.745 4.68072 -0.0507986 0
M  V30 2187 H 220.918 6.47195 -0.322909 0
M  V30 2188 N 214.325 -0.140222 1.56975 0
M  V30 2189 C 215.573 -0.850005 1.83356 0
M  V30 2190 C 215.894 -1.81399 0.71551 0
M  V30 2191 O 215.164 -1.94136 -0.262294 0
M  V30 2192 H 213.744 -0.316886 0.676456 0
M  V30 2193 H 216.406 -0.132608 1.94448 0
M  V30 2194 H 215.502 -1.40814 2.78528 0
M  V30 2195 N 215.803 -1.52179 -0.40978 0
M  V30 2196 C 217.049 -1.67408 -1.15525 0
M  V30 2197 C 217.404 -0.398746 -1.88223 0
M  V30 2198 O 216.697 0.60678 -1.81738 0
M  V30 2199 C 216.891 -2.83428 -2.17723 0
M  V30 2200 C 216.72 -4.22121 -1.55061 0
M  V30 2201 C 215.49 -4.87657 -1.3236 0
M  V30 2202 C 217.688 -5.04248 -1.01185 0
M  V30 2203 N 215.67 -6.10387 -0.655834 0
M  V30 2204 C 217.041 -6.18209 -0.470963 0
M  V30 2205 C 219.096 -4.89583 -0.906252 0
M  V30 2206 C 217.799 -7.1911 0.165172 0
M  V30 2207 C 219.825 -5.90718 -0.28397 0
M  V30 2208 C 219.187 -7.03969 0.246243 0
M  V30 2209 H 215.286 -0.666251 -0.409431 0
M  V30 2210 H 217.87 -1.89482 -0.447729 0
M  V30 2211 H 216.041 -2.6297 -2.85834 0
M  V30 2212 H 217.773 -2.87697 -2.84627 0
M  V30 2213 H 214.528 -4.46007 -1.59294 0
M  V30 2214 H 214.952 -6.76153 -0.338596 0
M  V30 2215 H 219.594 -4.02253 -1.302 0
M  V30 2216 H 217.312 -8.06066 0.572986 0
M  V30 2217 H 220.898 -5.81443 -0.203792 0
M  V30 2218 H 219.778 -7.80886 0.720173 0
M  V30 2219 N 217.281 0.66697 -1.42791 0
M  V30 2220 C 218.527 1.42754 -1.44889 0
M  V30 2221 C 218.882 1.92283 -0.0669755 0
M  V30 2222 O 218.175 1.68494 0.912154 0
M  V30 2223 C 218.369 2.6349 -2.4147 0
M  V30 2224 C 218.198 2.25776 -3.88915 0
M  V30 2225 C 216.968 2.1476 -4.57391 0
M  V30 2226 C 219.166 1.86927 -4.79127 0
M  V30 2227 N 217.148 1.70232 -5.89826 0
M  V30 2228 C 218.519 1.53378 -6.00729 0
M  V30 2229 C 220.574 1.73989 -4.66511 0
M  V30 2230 C 219.277 1.08187 -7.11117 0
M  V30 2231 C 221.303 1.30203 -5.76889 0
M  V30 2232 C 220.665 0.975818 -6.97608 0
M  V30 2233 H 216.764 0.518559 -0.585338 0
M  V30 2234 H 219.348 0.768906 -1.78874 0
M  V30 2235 H 217.519 3.27033 -2.09533 0
M  V30 2236 H 219.251 3.30123 -2.34096 0
M  V30 2237 H 216.006 2.3408 -4.11708 0
M  V30 2238 H 216.43 1.50369 -6.6009 0
M  V30 2239 H 221.072 1.97853 -3.7365 0
M  V30 2240 H 218.79 0.830701 -8.03819 0
M  V30 2241 H 222.376 1.20701 -5.69142 0
M  V30 2242 H 221.256 0.642157 -7.81566 0
M  V30 2243 N 218.759 1.29093 0.90403 0
M  V30 2244 C 220.005 1.17996 1.65676 0
M  V30 2245 C 220.36 -0.266816 1.90541 0
M  V30 2246 O 219.653 -1.19 1.50165 0
M  V30 2247 C 219.847 1.92224 3.01305 0
M  V30 2248 C 219.676 3.43972 2.89678 0
M  V30 2249 C 218.446 4.1332 2.90679 0
M  V30 2250 C 220.644 4.39546 2.67028 0
M  V30 2251 N 218.626 5.51463 2.69743 0
M  V30 2252 C 219.997 5.65119 2.5503 0
M  V30 2253 C 222.052 4.29359 2.52101 0
M  V30 2254 C 220.755 6.81663 2.29626 0
M  V30 2255 C 222.781 5.4565 2.28079 0
M  V30 2256 C 222.143 6.70193 2.16843 0
M  V30 2257 H 218.242 0.486759 0.612037 0
M  V30 2258 H 220.826 1.62868 1.06688 0
M  V30 2259 H 218.997 1.49773 3.58361 0
M  V30 2260 H 220.729 1.73429 3.65656 0
M  V30 2261 H 217.484 3.64984 3.01801 0
M  V30 2262 H 217.908 6.24105 2.6234 0
M  V30 2263 H 222.55 3.33769 2.59534 0
M  V30 2264 H 220.268 7.77313 2.20932 0
M  V30 2265 H 223.854 5.39664 2.1738 0
M  V30 2266 H 222.734 7.58659 1.98511 0
M  V30 2267 N 220.237 -1.11381 1.11499 0
M  V30 2268 C 221.184 -2.17439 0.773887 0
M  V30 2269 C 222.154 -1.64132 -0.254899 0
M  V30 2270 O 223.339 -1.90345 -0.13168 0
M  V30 2271 C 220.479 -3.44373 0.223917 0
M  V30 2272 C 219.592 -4.1168 1.30934 0
M  V30 2273 C 218.727 -5.263 0.71984 0
M  V30 2274 C 217.766 -5.85493 1.78507 0
M  V30 2275 N 216.903 -6.91507 1.21502 0
M  V30 2276 H 221.743 -2.45962 1.68246 0
M  V30 2277 H 219.28 -1.20744 0.840191 0
M  V30 2278 H 221.238 -4.17047 -0.112921 0
M  V30 2279 H 219.868 -3.16232 -0.647851 0
M  V30 2280 H 218.92 -3.37073 1.76312 0
M  V30 2281 H 220.232 -4.51729 2.11524 0
M  V30 2282 H 219.386 -6.05785 0.333094 0
M  V30 2283 H 218.125 -4.87559 -0.117377 0
M  V30 2284 H 217.13 -5.04686 2.18111 0
M  V30 2285 H 218.355 -6.26301 2.62533 0
M  V30 2286 H 216.301 -6.54783 0.399455 0
M  V30 2287 H 216.218 -7.30214 1.95763 0
M  V30 2288 H 217.486 -7.74795 0.855181 0
M  V30 2289 N 221.715 -0.905404 -1.28997 0
M  V30 2290 C 222.645 -0.404212 -2.29975 0
M  V30 2291 C 223.626 0.523784 -1.61835 0
M  V30 2292 O 224.811 0.433298 -1.89304 0
M  V30 2293 C 221.941 0.364042 -3.45387 0
M  V30 2294 C 220.895 -0.474048 -4.25367 0
M  V30 2295 C 220.221 0.422045 -5.33032 0
M  V30 2296 C 221.521 -1.72696 -4.92923 0
M  V30 2297 H 223.215 -1.24807 -2.72146 0
M  V30 2298 H 220.761 -0.601585 -1.30832 0
M  V30 2299 H 222.714 0.725447 -4.15109 0
M  V30 2300 H 221.438 1.24174 -3.02074 0
M  V30 2301 H 220.097 -0.81786 -3.57361 0
M  V30 2302 H 219.745 1.29804 -4.85963 0
M  V30 2303 H 219.445 -0.135057 -5.87445 0
M  V30 2304 H 220.969 0.779517 -6.05604 0
M  V30 2305 H 222.383 -1.43495 -5.55051 0
M  V30 2306 H 220.78 -2.22582 -5.57295 0
M  V30 2307 H 221.85 -2.45964 -4.17887 0
M  V30 2308 N 223.193 1.4272 -0.668489 0
M  V30 2309 C 224.604 1.84793 -0.266151 0
M  V30 2310 C 224.955 1.55959 1.19043 0
M  V30 2311 O 224.08 1.01622 1.91055 0
M  V30 2312 C 224.675 3.35436 -0.476271 0
M  V30 2313 C 223.234 3.76182 -0.128113 0
M  V30 2314 C 222.381 2.66344 -0.771777 0
M  V30 2315 H 225.332 1.32656 -0.871098 0
M  V30 2316 H 225.353 3.79515 0.273561 0
M  V30 2317 H 224.865 3.5639 -1.53647 0
M  V30 2318 H 222.966 3.60836 0.928891 0
M  V30 2319 H 223.079 4.75766 -0.564231 0
M  V30 2320 H 221.443 2.53885 -0.203652 0
M  V30 2321 H 222.226 2.90123 -1.83531 0
M  V30 2322 N 224.671 0.411399 1.52136 0
M  V30 2323 C 225.948 -0.222308 1.94333 0
M  V30 2324 C 226.328 -1.6242 1.34844 0
M  V30 2325 O 225.676 -2.22384 0.525145 0
M  V30 2326 C 225.886 -0.226345 3.48265 0
M  V30 2327 C 227.234 -0.444592 4.22266 0
M  V30 2328 O 228.258 -0.305602 3.54887 0
M  V30 2329 O 227.117 -0.718749 5.41753 0
M  V30 2330 H 224.211 -0.143907 0.814383 0
M  V30 2331 H 226.757 0.467506 1.63133 0
M  V30 2332 H 225.529 0.75475 3.83952 0
M  V30 2333 H 225.152 -0.960163 3.85832 0
M  V30 2334 N 226.149 -1.5696 0.141893 0
M  V30 2335 C 227.112 -2.15316 -0.785587 0
M  V30 2336 C 228.112 -1.09366 -1.1788 0
M  V30 2337 O 229.302 -1.35031 -1.10056 0
M  V30 2338 C 226.434 -2.71211 -2.06537 0
M  V30 2339 H 227.627 -2.98608 -0.278041 0
M  V30 2340 H 225.18 -1.5593 -0.107519 0
M  V30 2341 H 225.915 -1.91571 -2.6167 0
M  V30 2342 H 225.7 -3.4872 -1.79268 0
M  V30 2343 H 227.19 -3.16189 -2.72789 0
M  V30 2344 N 227.627 0.131896 -1.57047 0
M  V30 2345 C 228.557 1.16384 -2.02428 0
M  V30 2346 C 229.538 1.43936 -0.90644 0
M  V30 2347 O 230.723 1.54599 -1.17528 0
M  V30 2348 C 227.853 2.49328 -2.4177 0
M  V30 2349 C 226.807 2.36266 -3.56879 0
M  V30 2350 C 226.133 3.74057 -3.8208 0
M  V30 2351 C 227.433 1.834 -4.89042 0
M  V30 2352 H 229.127 0.786433 -2.88887 0
M  V30 2353 H 226.673 0.376855 -1.38981 0
M  V30 2354 H 228.626 3.21759 -2.7212 0
M  V30 2355 H 227.35 2.88934 -1.52266 0
M  V30 2356 H 226.009 1.66286 -3.26718 0
M  V30 2357 H 225.657 4.11125 -2.89803 0
M  V30 2358 H 225.357 3.66174 -4.59554 0
M  V30 2359 H 226.881 4.48012 -4.1487 0
M  V30 2360 H 228.295 2.45636 -5.18011 0
M  V30 2361 H 226.692 1.8637 -5.70426 0
M  V30 2362 H 227.762 0.790662 -4.7841 0
M  V30 2363 N 229.106 1.52395 0.401703 0
M  V30 2364 C 230.522 1.41363 0.740864 0
M  V30 2365 C 230.722 0.523982 1.94568 0
M  V30 2366 O 229.778 -0.00741204 2.52499 0
M  V30 2367 C 231.091 2.84011 0.987847 0
M  V30 2368 C 232.639 2.93404 1.09011 0
M  V30 2369 C 233.114 4.37036 1.3698 0
M  V30 2370 N 234.605 4.40304 1.43829 0
M  V30 2371 C 235.34 5.48508 1.67112 0
M  V30 2372 N 234.836 6.66819 1.87949 0
M  V30 2373 N 236.629 5.36034 1.69187 0
M  V30 2374 H 228.78 2.08765 -0.391262 0
M  V30 2375 H 231.043 0.941265 -0.112798 0
M  V30 2376 H 230.749 3.51265 0.174835 0
M  V30 2377 H 230.623 3.25502 1.906 0
M  V30 2378 H 233.01 2.26325 1.8937 0
M  V30 2379 H 233.091 2.55359 0.15015 0
M  V30 2380 H 232.735 5.04676 0.571353 0
M  V30 2381 H 232.665 4.72623 2.3224 0
M  V30 2382 H 235.156 3.55024 1.29486 0
M  V30 2383 H 235.469 7.45063 2.05185 0
M  V30 2384 H 233.814 6.6987 1.85199 0
M  V30 2385 H 237.005 4.42579 1.52451 0
M  V30 2386 H 237.178 6.20434 1.86993 0
M  V30 2387 N 230.584 -0.659388 1.43143 0
M  V30 2388 C 231.861 -1.41627 1.34912 0
M  V30 2389 C 232.241 -2.11099 -0.00607785 0
M  V30 2390 O 231.589 -2.04353 -1.02236 0
M  V30 2391 C 231.799 -2.40604 2.52805 0
M  V30 2392 C 233.147 -3.04789 2.95616 0
M  V30 2393 O 234.171 -2.50932 2.52807 0
M  V30 2394 O 233.03 -4.02421 3.69756 0
M  V30 2395 H 230.124 -0.63246 0.532844 0
M  V30 2396 H 232.67 -0.686814 1.5518 0
M  V30 2397 H 231.442 -1.88174 3.43083 0
M  V30 2398 H 231.065 -3.21009 2.34604 0
M  V30 2399 N 232.062 -1.29571 -0.897171 0
M  V30 2400 C 232.995 -1.0924 -2.00354 0
M  V30 2401 C 233.973 -0.00354011 -1.626 0
M  V30 2402 O 235.157 -0.15473 -1.87864 0
M  V30 2403 C 232.284 -0.66352 -3.32137 0
M  V30 2404 C 231.33 -1.75146 -3.88878 0
M  V30 2405 S 232.163 -3.35124 -4.17674 0
M  V30 2406 C 233.319 -2.9411 -5.52494 0
M  V30 2407 H 233.552 -2.02907 -2.17292 0
M  V30 2408 H 231.085 -1.13746 -1.04408 0
M  V30 2409 H 233.043 -0.422791 -4.08317 0
M  V30 2410 H 231.704 0.253588 -3.13075 0
M  V30 2411 H 230.897 -1.40337 -4.84068 0
M  V30 2412 H 230.499 -1.94584 -3.19395 0
M  V30 2413 H 232.791 -2.41312 -6.33068 0
M  V30 2414 H 233.734 -3.88161 -5.9223 0
M  V30 2415 H 234.142 -2.32332 -5.14473 0
M  V30 2416 N 233.54 1.10788 -1.12088 0
M  V30 2417 C 234.788 1.8231 -0.872205 0
M  V30 2418 C 235.109 1.85419 0.603709 0
M  V30 2419 O 234.379 1.32963 1.43867 0
M  V30 2420 H 232.959 0.675137 -0.319686 0
M  V30 2421 H 235.621 1.34068 -1.41463 0
M  V30 2422 H 234.717 2.85955 -1.25045 0
M  V30 2423 N 235.018 0.912232 1.28515 0
M  V30 2424 C 235.948 0.416403 2.29757 0
M  V30 2425 C 236.929 -0.515194 1.6211 0
M  V30 2426 O 238.114 -0.423253 1.89532 0
M  V30 2427 C 235.244 -0.34572 3.45575 0
M  V30 2428 C 234.198 0.496599 4.25109 0
M  V30 2429 C 233.524 -0.393771 5.33248 0
M  V30 2430 C 234.824 1.75307 4.92001 0
M  V30 2431 H 236.518 1.26249 2.7148 0
M  V30 2432 H 234.064 0.608515 1.30511 0
M  V30 2433 H 236.017 -0.703422 4.15488 0
M  V30 2434 H 234.741 -1.2257 3.02728 0
M  V30 2435 H 233.4 0.8368 3.56922 0
M  V30 2436 H 233.048 -1.27225 4.86644 0
M  V30 2437 H 232.748 0.166209 5.87365 0
M  V30 2438 H 234.272 -0.747389 6.06009 0
M  V30 2439 H 235.686 1.46437 5.54283 0
M  V30 2440 H 234.083 2.25534 5.56106 0
M  V30 2441 H 235.153 2.48176 4.16577 0
M  V30 2442 N 236.496 -1.42363 0.676048 0
M  V30 2443 C 237.743 -2.01522 0.19883 0
M  V30 2444 C 238.071 -1.53456 -1.19505 0
M  V30 2445 O 237.326 -0.727967 -1.81657 0
M  V30 2446 C 237.625 -3.56929 0.183431 0
M  V30 2447 C 237.291 -4.24431 1.52215 0
M  V30 2448 C 235.953 -4.42585 1.8887 0
M  V30 2449 C 238.305 -4.62459 2.40377 0
M  V30 2450 C 235.633 -4.96039 3.13309 0
M  V30 2451 C 237.985 -5.17294 3.64129 0
M  V30 2452 C 236.649 -5.33661 4.00951 0
M  V30 2453 H 235.919 -0.737419 0.0727571 0
M  V30 2454 H 238.566 -1.70531 0.871281 0
M  V30 2455 H 236.871 -3.87594 -0.572532 0
M  V30 2456 H 238.568 -4.00486 -0.203035 0
M  V30 2457 H 235.158 -4.10661 1.22701 0
M  V30 2458 H 239.342 -4.48105 2.13343 0
M  V30 2459 H 234.598 -5.06896 3.41857 0
M  V30 2460 H 238.772 -5.45704 4.32644 0
M  V30 2461 H 236.399 -5.74845 4.9745 0
M  V30 2462 N 237.974 -0.419461 -1.51915 0
M  V30 2463 C 239.222 0.152637 -2.01523 0
M  V30 2464 C 239.543 1.44762 -1.30649 0
M  V30 2465 O 238.813 1.90997 -0.435535 0
M  V30 2466 H 237.393 0.0593966 -0.744635 0
M  V30 2467 H 240.055 -0.558073 -1.86739 0
M  V30 2468 H 239.151 0.341369 -3.10227 0
M  V30 2469 N 239.452 1.56882 -0.150215 0
M  V30 2470 C 240.384 2.14057 0.819286 0
M  V30 2471 C 241.397 1.09082 1.20851 0
M  V30 2472 O 242.586 1.36347 1.15203 0
M  V30 2473 C 239.686 2.65102 2.11127 0
M  V30 2474 C 238.859 3.94511 1.88891 0
M  V30 2475 C 237.918 4.30834 3.02107 0
M  V30 2476 O 236.944 4.99099 2.73659 0
M  V30 2477 N 238.146 3.90676 4.29363 0
M  V30 2478 H 240.911 2.97871 0.330618 0
M  V30 2479 H 238.472 1.61866 0.0332538 0
M  V30 2480 H 240.464 2.86411 2.85921 0
M  V30 2481 H 239.034 1.85994 2.51247 0
M  V30 2482 H 238.254 3.81795 0.981152 0
M  V30 2483 H 239.542 4.7907 1.71376 0
M  V30 2484 H 238.94 3.35677 4.55343 0
M  V30 2485 H 237.497 4.1703 5.00928 0
M  V30 2486 N 240.93 -0.123565 1.57115 0
M  V30 2487 C 241.878 -1.17082 2.00984 0
M  V30 2488 C 242.872 -1.43136 0.906009 0
M  V30 2489 O 244.078 -1.43152 1.09121 0
M  V30 2490 H 240.453 -0.394653 0.64012 0
M  V30 2491 H 242.424 -0.774292 2.88179 0
M  V30 2492 C 241.173 -2.49057 2.42623 0
M  V30 2493 H 240.496 -2.29846 3.27125 0
M  V30 2494 H 241.936 -3.20906 2.7712 0
M  V30 2495 C 240.395 -3.11305 1.28805 0
M  V30 2496 O 240.925 -3.97171 0.60153 0
M  V30 2497 N 239.131 -2.71111 1.04628 0
M  V30 2498 H 238.678 -2.01382 1.60634 0
M  V30 2499 H 238.636 -3.1309 0.286685 0
M  V30 2500 N 242.408 -1.52605 -0.393616 0
M  V30 2501 C 243.341 -1.71798 -1.50202 0
M  V30 2502 C 244.319 -0.565743 -1.52441 0
M  V30 2503 O 245.503 -0.794987 -1.70916 0
M  V30 2504 C 242.63 -1.7714 -2.88685 0
M  V30 2505 C 241.676 -2.98845 -3.04292 0
M  V30 2506 S 242.509 -4.58909 -2.75976 0
M  V30 2507 C 243.665 -4.6706 -4.1666 0
M  V30 2508 H 243.898 -2.65542 -1.33696 0
M  V30 2509 H 241.431 -1.42839 -0.586195 0
M  V30 2510 H 243.389 -1.80903 -3.68489 0
M  V30 2511 H 242.05 -0.844969 -3.02521 0
M  V30 2512 H 241.243 -2.99111 -4.05646 0
M  V30 2513 H 240.845 -2.9305 -2.32374 0
M  V30 2514 H 243.137 -4.45391 -5.10523 0
M  V30 2515 H 244.08 -5.6905 -4.21412 0
M  V30 2516 H 244.488 -3.95944 -4.02354 0
M  V30 2517 N 243.887 0.651787 -1.4349 0
M  V30 2518 C 245.117 1.43728 -1.48411 0
M  V30 2519 C 245.525 1.8893 -0.10103 0
M  V30 2520 O 244.868 1.60182 0.899307 0
M  V30 2521 C 244.93 2.70411 -2.36893 0
M  V30 2522 C 244.594 2.4714 -3.8441 0
M  V30 2523 C 245.591 2.10271 -4.75481 0
M  V30 2524 C 243.276 2.6142 -4.28912 0
M  V30 2525 C 245.27 1.87982 -6.0905 0
M  V30 2526 C 242.957 2.38746 -5.62533 0
M  V30 2527 C 243.955 2.02083 -6.5242 0
M  V30 2528 O 243.643 1.79647 -7.8357 0
M  V30 2529 H 243.375 0.447962 -0.506267 0
M  V30 2530 H 245.929 0.80624 -1.88915 0
M  V30 2531 H 244.159 3.36079 -1.91278 0
M  V30 2532 H 245.848 3.32364 -2.33 0
M  V30 2533 H 246.614 1.98814 -4.42378 0
M  V30 2534 H 242.493 2.88931 -3.59222 0
M  V30 2535 H 246.037 1.5929 -6.7917 0
M  V30 2536 H 241.934 2.49806 -5.95203 0
M  V30 2537 H 242.702 1.9406 -7.95162 0
M  V30 2538 N 245.365 1.30045 0.890287 0
M  V30 2539 C 246.595 1.21296 1.67245 0
M  V30 2540 C 247.003 -0.227471 1.87828 0
M  V30 2541 O 246.346 -1.16296 1.422 0
M  V30 2542 C 246.408 1.86519 3.07329 0
M  V30 2543 C 246.072 3.35837 3.09939 0
M  V30 2544 C 247.069 4.31915 2.89389 0
M  V30 2545 C 244.754 3.77196 3.31706 0
M  V30 2546 C 246.748 5.67325 2.90552 0
M  V30 2547 C 244.435 5.12725 3.32499 0
M  V30 2548 C 245.433 6.076 3.11947 0
M  V30 2549 O 245.121 7.40655 3.12547 0
M  V30 2550 H 244.853 0.4211 0.528821 0
M  V30 2551 H 247.407 1.72111 1.12103 0
M  V30 2552 H 245.637 1.30228 3.64112 0
M  V30 2553 H 247.326 1.71963 3.67673 0
M  V30 2554 H 248.092 4.01294 2.72375 0
M  V30 2555 H 243.971 3.03796 3.4674 0
M  V30 2556 H 247.515 6.41354 2.74429 0
M  V30 2557 H 243.412 5.42988 3.49047 0
M  V30 2558 H 244.18 7.49577 3.28749 0
M  V30 2559 N 246.843 -1.10192 1.12674 0
M  V30 2560 C 247.793 -2.14754 0.765801 0
M  V30 2561 C 248.777 -1.59154 -0.236409 0
M  V30 2562 O 249.969 -1.76951 -0.0415261 0
M  V30 2563 C 247.098 -3.42563 0.224827 0
M  V30 2564 C 246.184 -4.05091 1.25548 0
M  V30 2565 N 246.575 -4.42287 2.4539 0
M  V30 2566 C 244.873 -4.32186 1.10142 0
M  V30 2567 C 245.574 -4.91441 3.11224 0
M  V30 2568 N 244.55 -4.88405 2.38666 0
M  V30 2569 H 248.352 -2.41309 1.67772 0
M  V30 2570 H 245.866 -1.27339 1.00789 0
M  V30 2571 H 247.863 -4.16868 -0.0519578 0
M  V30 2572 H 246.523 -3.17467 -0.681515 0
M  V30 2573 H 247.534 -4.33902 2.82754 0
M  V30 2574 H 244.211 -4.16735 0.252587 0
M  V30 2575 H 245.601 -5.29749 4.13298 0
M  V30 2576 N 248.321 -0.919034 -1.28029 0
M  V30 2577 C 249.551 -0.570143 -1.98577 0
M  V30 2578 C 249.959 0.854172 -1.68821 0
M  V30 2579 O 249.302 1.57807 -0.940351 0
M  V30 2580 C 249.364 -0.705734 -3.52505 0
M  V30 2581 C 249.028 -2.10057 -4.05863 0
M  V30 2582 C 250.025 -3.07385 -4.19298 0
M  V30 2583 C 247.71 -2.41517 -4.40426 0
M  V30 2584 C 249.704 -4.34287 -4.66555 0
M  V30 2585 C 247.391 -3.68657 -4.87376 0
M  V30 2586 C 248.389 -4.64856 -5.00398 0
M  V30 2587 O 248.077 -5.89735 -5.46322 0
M  V30 2588 H 247.809 -0.215592 -0.6407 0
M  V30 2589 H 250.363 -1.23583 -1.64062 0
M  V30 2590 H 248.593 0.0170414 -3.86696 0
M  V30 2591 H 250.282 -0.363172 -4.04272 0
M  V30 2592 H 251.048 -2.84398 -3.92865 0
M  V30 2593 H 246.927 -1.67389 -4.29537 0
M  V30 2594 H 250.471 -5.09377 -4.76635 0
M  V30 2595 H 246.368 -3.91466 -5.13249 0
M  V30 2596 H 247.136 -5.92599 -5.64596 0
M  V30 2597 N 249.799 1.42003 -0.683588 0
M  V30 2598 C 250.729 2.33487 -0.024866 0
M  V30 2599 C 251.71 1.51163 0.779975 0
M  V30 2600 O 252.895 1.79739 0.735362 0
M  V30 2601 C 250.025 3.3487 0.920836 0
M  V30 2602 C 248.979 4.27414 0.223958 0
M  V30 2603 C 248.305 5.19074 1.2832 0
M  V30 2604 C 249.605 5.14445 -0.90242 0
M  V30 2605 H 251.299 2.88819 -0.788921 0
M  V30 2606 H 248.845 1.38873 -0.38083 0
M  V30 2607 H 250.798 3.97787 1.39081 0
M  V30 2608 H 249.522 2.77861 1.71642 0
M  V30 2609 H 248.181 3.65904 -0.225864 0
M  V30 2610 H 247.829 4.58387 2.071 0
M  V30 2611 H 247.529 5.81822 0.821995 0
M  V30 2612 H 249.053 5.84867 1.75392 0
M  V30 2613 H 250.467 5.70998 -0.513272 0
M  V30 2614 H 248.864 5.86072 -1.28997 0
M  V30 2615 H 249.934 4.52322 -1.74737 0
M  V30 2616 N 251.277 0.427512 1.51691 0
M  V30 2617 C 252.525 -0.141948 2.01601 0
M  V30 2618 C 252.846 -1.44067 1.31414 0
M  V30 2619 O 252.116 -1.90763 0.445658 0
M  V30 2620 H 250.696 -0.0554468 0.744939 0
M  V30 2621 H 253.358 0.567968 1.86441 0
M  V30 2622 H 252.454 -0.324913 3.10404 0
M  V30 2623 N 252.755 -1.56801 0.158532 0
M  V30 2624 C 254.171 -1.5837 -0.197774 0
M  V30 2625 C 254.371 -1.17334 -1.63814 0
M  V30 2626 O 253.427 -0.878988 -2.36707 0
M  V30 2627 C 254.74 -3.00615 0.0714459 0
M  V30 2628 C 256.288 -3.12999 0.00864533 0
M  V30 2629 C 256.763 -4.57313 0.250685 0
M  V30 2630 N 258.254 -4.62777 0.198014 0
M  V30 2631 C 258.989 -5.72271 0.359642 0
M  V30 2632 N 258.485 -6.90371 0.579625 0
M  V30 2633 N 260.278 -5.61318 0.296438 0
M  V30 2634 H 252.429 -1.81765 1.09887 0
M  V30 2635 H 254.692 -0.841849 0.435884 0
M  V30 2636 H 254.398 -3.35068 1.06874 0
M  V30 2637 H 254.272 -3.71683 -0.642757 0
M  V30 2638 H 256.659 -2.7838 -0.979217 0
M  V30 2639 H 256.74 -2.44393 0.755359 0
M  V30 2640 H 256.384 -4.92639 1.2357 0
M  V30 2641 H 256.314 -5.24061 -0.516489 0
M  V30 2642 H 258.805 -3.77885 0.0331115 0
M  V30 2643 H 259.118 -7.69689 0.69275 0
M  V30 2644 H 257.463 -6.92264 0.616087 0
M  V30 2645 H 260.654 -4.67932 0.125258 0
M  V30 2646 H 260.827 -6.46599 0.425831 0
M  V30 2647 N 254.233 0.115231 -1.57178 0
M  V30 2648 C 255.458 0.840354 -1.89612 0
M  V30 2649 C 255.883 1.72464 -0.750845 0
M  V30 2650 O 255.241 1.78826 0.298478 0
M  V30 2651 C 255.289 1.64654 -3.20814 0
M  V30 2652 O 254.393 2.7538 -3.06985 0
M  V30 2653 H 253.734 0.232158 -0.622092 0
M  V30 2654 H 256.264 0.0964977 -2.04372 0
M  V30 2655 H 256.274 2.03499 -3.53627 0
M  V30 2656 H 254.949 0.997416 -4.03763 0
M  V30 2657 H 253.526 2.3971 -2.85646 0
M  V30 2658 N 255.711 1.52812 0.385517 0
M  V30 2659 C 256.959 1.67694 1.12797 0
M  V30 2660 C 257.28 0.421115 1.90399 0
M  V30 2661 O 256.55 -0.564551 1.87589 0
M  V30 2662 H 255.13 0.618155 0.419396 0
M  V30 2663 H 257.792 1.89938 0.436972 0
M  V30 2664 H 256.888 2.52896 1.82894 0
M  V30 2665 N 257.189 -0.644168 1.43834 0
M  V30 2666 C 258.419 -1.42939 1.49171 0
M  V30 2667 C 258.827 -1.88874 0.111048 0
M  V30 2668 O 258.17 -1.60656 -0.8908 0
M  V30 2669 C 258.232 -2.69151 2.38324 0
M  V30 2670 C 257.896 -2.45097 3.85715 0
M  V30 2671 C 258.893 -2.07747 4.76589 0
M  V30 2672 C 256.578 -2.59141 4.30292 0
M  V30 2673 C 258.572 -1.8475 6.10038 0
M  V30 2674 C 256.259 -2.35759 5.63792 0
M  V30 2675 C 257.257 -1.9862 6.53482 0
M  V30 2676 O 256.945 -1.75489 7.84512 0
M  V30 2677 H 256.677 -0.445271 0.508635 0
M  V30 2678 H 259.231 -0.79621 1.8934 0
M  V30 2679 H 257.461 -3.3506 1.93058 0
M  V30 2680 H 259.15 -3.31123 2.3476 0
M  V30 2681 H 259.916 -1.96465 4.43426 0
M  V30 2682 H 255.795 -2.87022 3.60749 0
M  V30 2683 H 259.339 -1.55686 6.80006 0
M  V30 2684 H 255.236 -2.46646 5.9652 0
M  V30 2685 H 256.004 -1.89841 7.9618 0
M  V30 2686 N 258.668 -1.30515 -0.883378 0
M  V30 2687 C 259.896 -1.22359 -1.66841 0
M  V30 2688 C 260.311 0.213296 -1.87591 0
M  V30 2689 O 259.668 1.14075 -1.42454 0
M  V30 2690 C 259.719 -1.95011 -3.04389 0
M  V30 2691 O 259.44 -3.3309 -2.84575 0
M  V30 2692 C 260.941 -1.93532 -3.98824 0
M  V30 2693 H 258.161 -0.423371 -0.520575 0
M  V30 2694 H 260.705 -1.72167 -1.10357 0
M  V30 2695 H 258.86 -1.48997 -3.57601 0
M  V30 2696 H 259.274 -3.69907 -3.71846 0
M  V30 2697 H 260.748 -2.48902 -4.92699 0
M  V30 2698 H 261.225 -0.914627 -4.29571 0
M  V30 2699 H 261.831 -2.39364 -3.51547 0
M  V30 2700 N 260.146 1.09593 -1.13257 0
M  V30 2701 C 261.392 1.82003 -0.89458 0
M  V30 2702 C 261.725 1.85402 0.577906 0
M  V30 2703 O 261 1.32099 1.42759 0
M  V30 2704 C 261.283 3.28237 -1.48096 0
M  V30 2705 C 261.136 3.3312 -3.02244 0
M  V30 2706 C 262.455 4.24871 -1.14774 0
M  V30 2707 H 259.574 0.66077 -0.326424 0
M  V30 2708 H 262.216 1.28389 -1.40058 0
M  V30 2709 H 260.366 3.74024 -1.05062 0
M  V30 2710 H 262.038 2.95748 -3.54021 0
M  V30 2711 H 260.281 2.72756 -3.37323 0
M  V30 2712 H 260.952 4.3613 -3.38371 0
M  V30 2713 H 263.428 3.87361 -1.51957 0
M  V30 2714 H 262.304 5.25532 -1.58452 0
M  V30 2715 H 262.565 4.42058 -0.0611849 0
M  V30 2716 N 261.624 0.925811 1.2754 0
M  V30 2717 C 262.574 0.394488 2.24561 0
M  V30 2718 C 263.558 -0.500183 1.52928 0
M  V30 2719 O 264.75 -0.337936 1.73744 0
M  V30 2720 C 261.879 -0.353328 3.41477 0
M  V30 2721 C 260.965 0.557752 4.20416 0
M  V30 2722 N 261.356 1.67674 4.77199 0
M  V30 2723 C 259.654 0.360404 4.44541 0
M  V30 2724 C 260.355 2.24324 5.36706 0
M  V30 2725 N 259.331 1.53305 5.21535 0
M  V30 2726 H 263.133 1.2489 2.66045 0
M  V30 2727 H 260.647 0.779864 1.4245 0
M  V30 2728 H 262.644 -0.7509 4.10082 0
M  V30 2729 H 261.304 -1.20469 3.01525 0
M  V30 2730 H 262.315 2.05915 4.75204 0
M  V30 2731 H 258.992 -0.450454 4.15063 0
M  V30 2732 H 260.382 3.18521 5.91603 0
M  V30 2733 N 263.102 -1.41638 0.69111 0
M  V30 2734 C 264.348 -2.01598 0.220519 0
M  V30 2735 C 264.681 -1.54594 -1.17535 0
M  V30 2736 O 263.956 -0.755177 -1.79241 0
M  V30 2737 C 264.239 -3.59062 0.273243 0
M  V30 2738 C 264.092 -4.16203 1.70573 0
M  V30 2739 C 265.411 -4.38546 -0.369457 0
M  V30 2740 H 262.53 -0.732468 0.0816045 0
M  V30 2741 H 265.172 -1.68445 0.878986 0
M  V30 2742 H 263.322 -3.87435 -0.287411 0
M  V30 2743 H 264.994 -3.98722 2.31989 0
M  V30 2744 H 263.237 -3.71414 2.2413 0
M  V30 2745 H 263.908 -5.25358 1.69419 0
M  V30 2746 H 266.384 -4.1596 0.107977 0
M  V30 2747 H 265.26 -5.48069 -0.302002 0
M  V30 2748 H 265.521 -4.17662 -1.44951 0
M  V30 2749 N 264.58 -0.43555 -1.51462 0
M  V30 2750 C 265.512 0.41257 -2.25456 0
M  V30 2751 C 266.525 0.987822 -1.29406 0
M  V30 2752 O 267.714 0.882266 -1.55172 0
M  V30 2753 C 264.814 1.58894 -2.99342 0
M  V30 2754 C 263.987 1.13288 -4.22474 0
M  V30 2755 C 263.046 2.17917 -4.78956 0
M  V30 2756 O 262.072 1.77425 -5.40841 0
M  V30 2757 N 263.274 3.50382 -4.62832 0
M  V30 2758 H 266.039 -0.221603 -2.9888 0
M  V30 2759 H 263.6 -0.264342 -1.59727 0
M  V30 2760 H 265.592 2.28508 -3.34015 0
M  V30 2761 H 264.162 2.12849 -2.28941 0
M  V30 2762 H 263.382 0.263881 -3.93316 0
M  V30 2763 H 264.67 0.805542 -5.02383 0
M  V30 2764 H 264.068 3.86013 -4.13534 0
M  V30 2765 H 262.625 4.15895 -5.01871 0
M  V30 2766 N 266.058 1.56714 -0.166846 0
M  V30 2767 C 267.298 1.98641 0.481763 0
M  V30 2768 C 267.662 1.05038 1.6072 0
M  V30 2769 O 268.863 1.36087 2.31805 0
M  V30 2770 C 267.134 3.44362 0.956517 0
M  V30 2771 S 268.693 4.08317 1.60694 0
M  V30 2772 H 265.511 0.693873 0.155116 0
M  V30 2773 H 268.113 1.93719 -0.263251 0
M  V30 2774 H 266.817 4.10204 0.126936 0
M  V30 2775 H 266.348 3.53041 1.73568 0
M  V30 2776 H 268.363 4.02999 2.89494 0
M  V30 2777 N 267.536 -0.106894 1.57237 0
M  V30 2778 C 268.484 -1.14944 2.02215 0
M  V30 2779 C 269.478 -1.42167 0.92114 0
M  V30 2780 O 270.684 -1.41987 1.10634 0
M  V30 2781 H 267.059 -0.387841 0.64427 0
M  V30 2782 H 269.03 -0.743683 2.88984 0
M  V30 2783 C 267.779 -2.4647 2.4525 0
M  V30 2784 H 267.102 -2.26363 3.29545 0
M  V30 2785 H 268.542 -3.17948 2.80508 0
M  V30 2786 C 267.001 -3.09921 1.321 0
M  V30 2787 O 267.531 -3.9651 0.643622 0
M  V30 2788 N 265.737 -2.69986 1.07497 0
M  V30 2789 H 265.284 -1.99667 1.62761 0
M  V30 2790 H 265.242 -3.12769 0.319876 0
M  V30 2791 N 269.014 -1.53014 -0.377408 0
M  V30 2792 C 269.977 -1.77957 -1.44444 0
M  V30 2793 C 270.977 -0.649763 -1.47087 0
M  V30 2794 O 272.167 -0.917897 -1.48055 0
M  V30 2795 C 269.299 -1.89089 -2.83651 0
M  V30 2796 H 270.492 -2.73243 -1.23606 0
M  V30 2797 H 268.045 -1.43912 -0.609844 0
M  V30 2798 H 268.78 -0.958293 -3.09818 0
M  V30 2799 H 268.565 -2.71254 -2.83132 0
M  V30 2800 H 270.055 -2.1002 -3.60945 0
M  V30 2801 N 270.492 0.636531 -1.44174 0
M  V30 2802 C 271.717 1.42847 -1.50364 0
M  V30 2803 C 272.142 1.87665 -0.127867 0
M  V30 2804 O 271.5 1.58408 0.88185 0
M  V30 2805 C 271.548 2.62854 -2.4686 0
M  V30 2806 O 270.652 3.62501 -1.9664 0
M  V30 2807 H 269.993 0.427642 -0.507955 0
M  V30 2808 H 272.523 0.777422 -1.89255 0
M  V30 2809 H 272.533 3.10465 -2.64718 0
M  V30 2810 H 271.208 2.29578 -3.46795 0
M  V30 2811 H 269.785 3.21735 -1.88523 0
M  V30 2812 N 271.97 1.30982 0.876444 0
M  V30 2813 C 272.917 1.18085 1.98304 0
M  V30 2814 C 273.887 0.0682263 1.6596 0
M  V30 2815 O 275.072 0.239937 1.89285 0
M  V30 2816 C 272.212 0.887475 3.33493 0
M  V30 2817 C 271.325 2.08281 3.78475 0
M  V30 2818 C 270.46 1.72678 5.0235 0
M  V30 2819 C 269.499 2.88657 5.39762 0
M  V30 2820 N 268.636 2.53292 6.54819 0
M  V30 2821 H 273.476 2.1275 2.08666 0
M  V30 2822 H 271.013 1.05839 1.02159 0
M  V30 2823 H 272.971 0.697961 4.1132 0
M  V30 2824 H 271.601 -0.022315 3.22792 0
M  V30 2825 H 270.653 2.3833 2.96484 0
M  V30 2826 H 271.965 2.95108 4.02135 0
M  V30 2827 H 271.119 1.50151 5.87826 0
M  V30 2828 H 269.858 0.830327 4.8058 0
M  V30 2829 H 268.863 3.1184 4.52809 0
M  V30 2830 H 270.088 3.79002 5.63502 0
M  V30 2831 H 268.034 1.66163 6.34607 0
M  V30 2832 H 267.951 3.3365 6.7839 0
M  V30 2833 H 269.219 2.34143 7.43503 0
M  V30 2834 N 273.449 -1.08991 1.13837 0
M  V30 2835 C 274.696 -1.81258 0.902882 0
M  V30 2836 C 275.024 -1.85936 -0.570803 0
M  V30 2837 O 274.279 -1.3267 -1.43865 0
M  V30 2838 C 274.578 -3.27042 1.44147 0
M  V30 2839 C 274.244 -3.4249 2.93276 0
M  V30 2840 C 272.906 -3.46414 3.33992 0
M  V30 2841 C 275.258 -3.4666 3.892 0
M  V30 2842 C 272.586 -3.52091 4.69307 0
M  V30 2843 C 274.938 -3.53872 5.24364 0
M  V30 2844 C 273.602 -3.56066 5.646 0
M  V30 2845 H 272.872 -0.663268 0.330388 0
M  V30 2846 H 275.519 -1.28368 1.42105 0
M  V30 2847 H 273.824 -3.82599 0.844097 0
M  V30 2848 H 275.521 -3.81499 1.23528 0
M  V30 2849 H 272.111 -3.40124 2.60794 0
M  V30 2850 H 276.295 -3.42865 3.58828 0
M  V30 2851 H 271.551 -3.52079 4.9985 0
M  V30 2852 H 275.725 -3.56043 5.98503 0
M  V30 2853 H 273.352 -3.60218 6.69438 0
M  V30 2854 N 274.927 -0.932562 -1.27047 0
M  V30 2855 C 275.877 -0.406392 -2.24349 0
M  V30 2856 C 276.861 0.492066 -1.53191 0
M  V30 2857 O 278.053 0.328717 -1.73921 0
M  V30 2858 C 275.182 0.335214 -3.41659 0
M  V30 2859 C 274.268 -0.58004 -4.20115 0
M  V30 2860 N 274.659 -1.70203 -4.76303 0
M  V30 2861 C 272.957 -0.383974 -4.44344 0
M  V30 2862 C 273.658 -2.27167 -5.35509 0
M  V30 2863 N 272.634 -1.56068 -5.20715 0
M  V30 2864 H 276.436 -1.26299 -2.65378 0
M  V30 2865 H 273.95 -0.787408 -1.42034 0
M  V30 2866 H 275.947 0.729142 -4.10474 0
M  V30 2867 H 274.607 1.18868 -3.0216 0
M  V30 2868 H 275.618 -2.08433 -4.74106 0
M  V30 2869 H 272.295 0.428436 -4.15296 0
M  V30 2870 H 273.685 -3.21654 -5.89905 0
M  V30 2871 N 276.405 1.4127 -0.698611 0
M  V30 2872 C 277.337 2.292 0.00399731 0
M  V30 2873 C 278.35 1.44944 0.741279 0
M  V30 2874 O 279.539 1.68416 0.591477 0
M  V30 2875 C 276.639 3.22875 1.02979 0
M  V30 2876 C 275.812 4.35904 0.36151 0
M  V30 2877 C 274.871 5.10134 1.29033 0
M  V30 2878 O 273.897 5.63809 0.781562 0
M  V30 2879 N 275.099 5.17885 2.6225 0
M  V30 2880 H 277.864 2.9014 -0.750921 0
M  V30 2881 H 275.425 1.52455 -0.544882 0
M  V30 2882 H 277.417 3.69404 1.65296 0
M  V30 2883 H 275.987 2.63221 1.68622 0
M  V30 2884 H 275.207 3.91719 -0.441584 0
M  V30 2885 H 276.495 5.08696 -0.103055 0
M  V30 2886 H 275.893 4.7573 3.061 0
M  V30 2887 H 274.45 5.6798 3.19754 0
M  V30 2888 N 277.883 0.443576 1.51229 0
M  V30 2889 C 279.131 -0.120557 2.0174 0
M  V30 2890 C 279.452 -1.42665 1.32935 0
M  V30 2891 O 278.722 -1.9028 0.465866 0
M  V30 2892 H 277.302 -0.0475426 0.745486 0
M  V30 2893 H 279.964 0.587711 1.85828 0
M  V30 2894 H 279.06 -0.291972 3.10731 0
M  V30 2895 N 279.361 -1.56624 0.175154 0
M  V30 2896 C 280.324 -2.16934 -0.739738 0
M  V30 2897 C 281.324 -1.11842 -1.15533 0
M  V30 2898 O 282.514 -1.37335 -1.07167 0
M  V30 2899 C 279.646 -2.75531 -2.00738 0
M  V30 2900 H 280.839 -2.99131 -0.214639 0
M  V30 2901 H 278.392 -1.56123 -0.0744197 0
M  V30 2902 H 279.127 -1.97078 -2.57548 0
M  V30 2903 H 278.912 -3.52444 -1.71831 0
M  V30 2904 H 280.402 -3.21904 -2.66021 0
M  V30 2905 N 280.839 0.0985539 -1.57292 0
M  V30 2906 C 281.769 1.12064 -2.04851 0
M  V30 2907 C 282.75 1.41981 -0.936767 0
M  V30 2908 O 283.935 1.52071 -1.20781 0
M  V30 2909 C 281.065 2.44144 -2.47004 0
M  V30 2910 C 280.019 2.28643 -3.6181 0
M  V30 2911 C 279.345 3.65869 -3.89929 0
M  V30 2912 C 280.645 1.72986 -4.92822 0
M  V30 2913 H 282.339 0.724979 -2.9049 0
M  V30 2914 H 279.885 0.34729 -1.39749 0
M  V30 2915 H 281.838 3.15914 -2.78884 0
M  V30 2916 H 280.562 2.85639 -1.5836 0
M  V30 2917 H 279.221 1.59318 -3.30172 0
M  V30 2918 H 278.869 4.04885 -2.98458 0
M  V30 2919 H 278.569 3.56344 -4.67218 0
M  V30 2920 H 280.093 4.39112 -4.2428 0
M  V30 2921 H 281.507 2.34593 -5.23105 0
M  V30 2922 H 279.904 1.74229 -5.74251 0
M  V30 2923 H 280.974 0.689007 -4.7998 0
M  V30 2924 N 282.317 1.53212 0.369288 0
M  V30 2925 C 283.565 1.68881 1.11012 0
M  V30 2926 C 283.886 0.441285 1.89941 0
M  V30 2927 O 283.156 -0.544623 1.88177 0
M  V30 2928 H 281.736 0.622569 0.412816 0
M  V30 2929 H 284.398 1.90391 0.416802 0
M  V30 2930 H 283.494 2.54822 1.80201 0
M  V30 2931 N 283.795 -0.628877 1.44509 0
M  V30 2932 C 285.041 -1.39045 1.47629 0
M  V30 2933 C 285.374 -1.93892 0.109343 0
M  V30 2934 O 284.649 -1.7379 -0.87334 0
M  V30 2935 C 284.932 -2.55408 2.53848 0
M  V30 2936 C 284.785 -2.05896 3.99909 0
M  V30 2937 C 286.104 -3.5759 2.56549 0
M  V30 2938 H 283.223 -0.504232 0.537512 0
M  V30 2939 H 285.865 -0.710854 1.76201 0
M  V30 2940 H 284.015 -3.13384 2.29615 0
M  V30 2941 H 285.687 -1.52734 4.35282 0
M  V30 2942 H 283.93 -1.37061 4.11578 0
M  V30 2943 H 284.601 -2.89681 4.69882 0
M  V30 2944 H 287.077 -3.09419 2.78207 0
M  V30 2945 H 285.953 -4.36527 3.32769 0
M  V30 2946 H 286.214 -4.11808 1.60832 0
M  V30 2947 N 285.273 -1.31445 -0.869486 0
M  V30 2948 C 286.52 -1.21158 -1.62256 0
M  V30 2949 C 286.848 0.230155 -1.93133 0
M  V30 2950 O 286.103 1.17906 -1.56194 0
M  V30 2951 C 286.402 -2.00145 -2.96102 0
M  V30 2952 C 286.068 -3.4964 -2.84715 0
M  V30 2953 C 284.73 -3.90403 -2.81317 0
M  V30 2954 C 287.082 -4.44769 -2.71716 0
M  V30 2955 C 284.41 -5.24561 -2.62778 0
M  V30 2956 C 286.762 -5.79054 -2.54714 0
M  V30 2957 C 285.426 -6.19037 -2.49699 0
M  V30 2958 H 284.696 -0.443348 -0.593737 0
M  V30 2959 H 287.343 -1.62715 -1.00976 0
M  V30 2960 H 285.648 -1.5127 -3.6142 0
M  V30 2961 H 287.345 -1.89566 -3.53363 0
M  V30 2962 H 283.935 -3.17256 -2.88178 0
M  V30 2963 H 288.119 -4.14208 -2.73397 0
M  V30 2964 H 283.375 -5.54613 -2.57321 0
M  V30 2965 H 287.549 -6.52393 -2.43632 0
M  V30 2966 H 285.176 -7.22935 -2.35093 0
M  V30 2967 N 286.751 1.08385 -1.14413 0
M  V30 2968 C 287.714 2.13486 -0.834048 0
M  V30 2969 C 288.714 1.59988 0.161418 0
M  V30 2970 O 289.904 1.74071 -0.0669575 0
M  V30 2971 C 287.036 3.4003 -0.243354 0
M  V30 2972 H 288.229 2.42425 -1.7655 0
M  V30 2973 H 285.782 1.24101 -0.950189 0
M  V30 2974 H 286.517 3.16726 0.696807 0
M  V30 2975 H 286.302 3.80157 -0.960367 0
M  V30 2976 H 287.792 4.17577 -0.0436242 0
M  V30 2977 N 288.23 0.939286 1.26551 0
M  V30 2978 C 289.476 0.586715 1.94128 0
M  V30 2979 C 289.809 -0.8717 1.73537 0
M  V30 2980 O 289.084 -1.62339 1.07127 0
M  V30 2981 C 289.367 0.927497 3.4795 0
M  V30 2982 C 289.22 2.44052 3.77834 0
M  V30 2983 C 290.539 0.441569 4.37879 0
M  V30 2984 H 287.658 0.21463 0.705055 0
M  V30 2985 H 290.3 1.17316 1.49455 0
M  V30 2986 H 288.45 0.428431 3.8613 0
M  V30 2987 H 290.122 3.01216 3.4938 0
M  V30 2988 H 288.365 2.8848 3.23978 0
M  V30 2989 H 289.036 2.62947 4.85348 0
M  V30 2990 H 291.512 0.869448 4.06915 0
M  V30 2991 H 290.388 0.708856 5.44304 0
M  V30 2992 H 290.649 -0.658467 4.37169 0
M  V30 2993 N 289.708 -1.40897 0.706093 0
M  V30 2994 C 291.119 -1.84023 0.315052 0
M  V30 2995 C 291.47 -1.5906 -1.14866 0
M  V30 2996 O 290.595 -1.06651 -1.88293 0
M  V30 2997 C 291.19 -3.34055 0.565038 0
M  V30 2998 C 289.749 -3.7571 0.227806 0
M  V30 2999 C 288.896 -2.64204 0.842122 0
M  V30 3000 H 291.847 -1.303 0.905963 0
M  V30 3001 H 291.868 -3.80107 -0.172843 0
M  V30 3002 H 291.38 -3.52192 1.63042 0
M  V30 3003 H 289.481 -3.63172 -0.832895 0
M  V30 3004 H 289.594 -4.74103 0.690174 0
M  V30 3005 H 287.958 -2.53255 0.270893 0
M  V30 3006 H 288.741 -2.85155 1.91158 0
M  V30 3007 N 291.186 -0.45159 -1.50991 0
M  V30 3008 C 292.096 0.358431 -2.31846 0
M  V30 3009 C 293.112 1.01438 -1.41373 0
M  V30 3010 O 294.288 1.00663 -1.74439 0
M  V30 3011 C 291.353 1.43704 -3.15515 0
M  V30 3012 C 290.414 0.799742 -4.21785 0
M  V30 3013 C 289.647 1.82696 -5.01456 0
M  V30 3014 O 289.87 3.05105 -4.81941 0
M  V30 3015 O 288.804 1.40958 -5.85162 0
M  V30 3016 H 292.63 -0.302032 -3.02194 0
M  V30 3017 H 290.215 -0.213825 -1.47862 0
M  V30 3018 H 292.097 2.06227 -3.67489 0
M  V30 3019 H 290.772 2.08133 -2.47916 0
M  V30 3020 H 289.679 0.136084 -3.73852 0
M  V30 3021 H 291.012 0.198718 -4.91799 0
M  V30 3022 N 292.664 1.56529 -0.183458 0
M  V30 3023 C 293.597 2.14417 0.781052 0
M  V30 3024 C 294.575 1.07761 1.21763 0
M  V30 3025 O 295.759 1.35807 1.30724 0
M  V30 3026 C 292.886 2.69361 2.05335 0
M  V30 3027 C 291.932 3.885 1.75982 0
M  V30 3028 S 292.765 5.27568 0.918256 0
M  V30 3029 C 293.921 5.85926 2.20095 0
M  V30 3030 H 294.154 2.95893 0.2889 0
M  V30 3031 H 291.687 1.54368 0.0313844 0
M  V30 3032 H 293.645 3.01662 2.78406 0
M  V30 3033 H 292.306 1.87949 2.51663 0
M  V30 3034 H 291.499 4.25314 2.70415 0
M  V30 3035 H 291.101 3.57149 1.10999 0
M  V30 3036 H 293.393 5.99579 3.15453 0
M  V30 3037 H 294.336 6.82761 1.87731 0
M  V30 3038 H 294.744 5.14438 2.32409 0
M  V30 3039 N 294.142 -0.090211 1.57342 0
M  V30 3040 C 295.382 -0.798365 1.88163 0
M  V30 3041 C 295.746 -1.75662 0.775046 0
M  V30 3042 O 296.947 -2.50849 0.965816 0
M  V30 3043 C 295.218 -1.50376 3.24225 0
M  V30 3044 S 296.777 -2.24952 3.76752 0
M  V30 3045 H 293.595 -0.265883 0.659414 0
M  V30 3046 H 296.197 -0.055264 1.95422 0
M  V30 3047 H 294.901 -0.792286 4.0268 0
M  V30 3048 H 294.432 -2.28666 3.20118 0
M  V30 3049 H 296.447 -3.51173 3.5056 0
M  V30 3050 N 295.62 -1.53406 -0.361157 0
M  V30 3051 C 296.55 -1.83136 -1.44857 0
M  V30 3052 C 297.531 -0.685174 -1.5569 0
M  V30 3053 O 298.716 -0.93544 -1.70186 0
M  V30 3054 C 295.846 -2.02522 -2.82138 0
M  V30 3055 C 294.8 -3.18302 -2.86126 0
M  V30 3056 C 294.126 -3.22989 -4.26125 0
M  V30 3057 C 295.426 -4.56796 -2.53248 0
M  V30 3058 H 297.12 -2.74201 -1.20226 0
M  V30 3059 H 294.666 -1.31938 -0.576922 0
M  V30 3060 H 296.619 -2.21904 -3.58241 0
M  V30 3061 H 295.343 -1.08172 -3.08166 0
M  V30 3062 H 294.002 -2.98747 -2.12475 0
M  V30 3063 H 293.65 -2.26267 -4.49235 0
M  V30 3064 H 293.35 -4.00781 -4.29708 0
M  V30 3065 H 294.874 -3.44559 -5.04094 0
M  V30 3066 H 296.288 -4.7631 -3.19064 0
M  V30 3067 H 294.685 -5.36862 -2.68141 0
M  V30 3068 H 295.755 -4.61606 -1.48484 0
M  V30 3069 N 297.098 0.621204 -1.44841 0
M  V30 3070 C 298.061 1.71459 -1.521 0
M  V30 3071 C 299.061 1.55696 -0.401933 0
M  V30 3072 O 300.251 1.61011 -0.664925 0
M  V30 3073 C 297.383 3.10624 -1.40447 0
M  V30 3074 H 298.576 1.66394 -2.49506 0
M  V30 3075 H 296.129 0.835745 -1.3208 0
M  V30 3076 H 296.864 3.21277 -0.441737 0
M  V30 3077 H 296.649 3.23473 -2.21602 0
M  V30 3078 H 298.139 3.90293 -1.4853 0
M  V30 3079 N 298.576 1.31904 0.862503 0
M  V30 3080 C 299.824 1.21776 1.61292 0
M  V30 3081 C 300.145 -0.222413 1.93727 0
M  V30 3082 O 299.415 -1.1451 1.58947 0
M  V30 3083 H 297.995 0.447717 0.597962 0
M  V30 3084 H 300.657 1.65326 1.03215 0
M  V30 3085 H 299.753 1.7948 2.5533 0
M  V30 3086 N 300.054 -1.07777 1.14986 0
M  V30 3087 C 301.331 -1.7699 0.832695 0
M  V30 3088 C 301.711 -2.001 -0.672561 0
M  V30 3089 O 301.059 -1.61598 -1.6155 0
M  V30 3090 C 301.269 -3.08139 1.63863 0
M  V30 3091 C 302.617 -3.8256 1.84208 0
M  V30 3092 O 303.641 -3.17939 1.60603 0
M  V30 3093 O 302.5 -4.98612 2.23714 0
M  V30 3094 H 299.594 -0.768389 0.305791 0
M  V30 3095 H 302.14 -1.14182 1.25541 0
M  V30 3096 H 300.912 -2.86909 2.6608 0
M  V30 3097 H 300.535 -3.78678 1.21197 0
M  V30 3098 N 301.532 -0.945985 -1.26051 0
M  V30 3099 C 302.757 -0.612525 -1.98149 0
M  V30 3100 C 303.182 0.806623 -1.69927 0
M  V30 3101 O 302.54 1.54411 -0.950108 0
M  V30 3102 C 302.588 -0.866981 -3.50023 0
M  V30 3103 O 301.692 0.0585333 -4.12358 0
M  V30 3104 H 301.033 -0.23379 -0.621481 0
M  V30 3105 H 303.563 -1.27023 -1.60395 0
M  V30 3106 H 303.573 -0.789792 -4.00283 0
M  V30 3107 H 302.248 -1.90135 -3.69894 0
M  V30 3108 H 300.825 -0.0701241 -3.72834 0
M  V30 3109 N 303.011 1.40521 -0.713556 0
M  V30 3110 C 303.959 2.32549 -0.0485227 0
M  V30 3111 C 304.953 1.51931 0.74922 0
M  V30 3112 O 306.159 1.67745 0.652816 0
M  V30 3113 H 302.534 0.751994 0.00311138 0
M  V30 3114 H 304.505 2.86291 -0.841443 0
M  V30 3115 C 303.254 3.36879 0.860687 0
M  V30 3116 H 302.577 3.98978 0.256246 0
M  V30 3117 H 304.017 4.03772 1.294 0
M  V30 3118 C 302.476 2.72197 1.9852 0
M  V30 3119 O 303.006 2.5837 3.07584 0
M  V30 3120 N 301.212 2.30612 1.76823 0
M  V30 3121 H 300.759 2.42059 0.881217 0
M  V30 3122 H 300.717 1.87672 2.52243 0
M  V30 3123 N 304.489 0.459591 1.5075 0
M  V30 3124 C 305.717 -0.0973749 2.06671 0
M  V30 3125 C 306.132 -1.34524 1.32472 0
M  V30 3126 O 305.489 -1.7827 0.390634 0
M  V30 3127 C 305.54 -0.39714 3.59312 0
M  V30 3128 O 305.261 0.801214 4.30711 0
M  V30 3129 C 306.762 -1.00234 4.31819 0
M  V30 3130 H 303.982 0.00195854 0.670997 0
M  V30 3131 H 306.526 0.645072 1.94059 0
M  V30 3132 H 304.681 -1.08951 3.71764 0
M  V30 3133 H 305.095 0.538857 5.21725 0
M  V30 3134 H 306.569 -1.16193 5.39632 0
M  V30 3135 H 307.046 -1.98939 3.91561 0
M  V30 3136 H 307.652 -0.348699 4.23868 0
M  V30 3137 N 305.967 -1.56429 0.191757 0
M  V30 3138 C 307.195 -2.01867 -0.453586 0
M  V30 3139 C 307.61 -1.07191 -1.5542 0
M  V30 3140 O 306.967 -0.0762108 -1.82341 0
M  V30 3141 C 307.018 -3.47017 -1.013 0
M  V30 3142 O 306.739 -4.38078 0.0437005 0
M  V30 3143 C 308.24 -4.07956 -1.73456 0
M  V30 3144 H 305.46 -0.661211 -0.114199 0
M  V30 3145 H 308.004 -2.02295 0.299483 0
M  V30 3146 H 306.159 -3.47298 -1.71647 0
M  V30 3147 H 306.573 -5.23178 -0.372212 0
M  V30 3148 H 308.047 -5.1138 -2.07833 0
M  V30 3149 H 308.524 -3.51222 -2.63704 0
M  V30 3150 H 309.13 -4.11437 -1.07702 0
M  V30 3151 N 307.445 0.0818655 -1.57387 0
M  V30 3152 C 308.673 0.796108 -1.9097 0
M  V30 3153 C 309.088 1.71626 -0.786757 0
M  V30 3154 O 308.445 1.80908 0.240513 0
M  V30 3155 C 308.496 1.59829 -3.24248 0
M  V30 3156 O 308.217 0.715131 -4.32224 0
M  V30 3157 C 309.718 2.41442 -3.7178 0
M  V30 3158 H 306.938 0.22691 -0.631469 0
M  V30 3159 H 309.482 0.0551439 -2.04426 0
M  V30 3160 H 307.637 2.29163 -3.12351 0
M  V30 3161 H 308.051 1.27205 -5.08841 0
M  V30 3162 H 309.525 2.932 -4.67694 0
M  V30 3163 H 310.002 3.2051 -3.00283 0
M  V30 3164 H 310.608 1.77283 -3.86589 0
M  V30 3165 N 308.923 1.53595 0.353017 0
M  V30 3166 C 309.856 1.7572 1.45594 0
M  V30 3167 C 310.834 0.605961 1.50887 0
M  V30 3168 O 312.018 0.840023 1.68748 0
M  V30 3169 C 309.145 1.84732 2.83887 0
M  V30 3170 C 308.191 3.06808 2.96262 0
M  V30 3171 S 309.024 4.66065 2.63711 0
M  V30 3172 C 310.18 4.77943 4.04131 0
M  V30 3173 H 310.413 2.68994 1.26608 0
M  V30 3174 H 307.946 1.44343 0.548117 0
M  V30 3175 H 309.904 1.9061 3.63563 0
M  V30 3176 H 308.565 0.92488 3.00175 0
M  V30 3177 H 307.758 3.09761 3.97573 0
M  V30 3178 H 307.36 2.99108 2.24523 0
M  V30 3179 H 309.652 4.5877 4.98534 0
M  V30 3180 H 310.595 5.80022 4.06177 0
M  V30 3181 H 311.003 4.06472 3.91715 0
M  V30 3182 N 310.401 -0.613514 1.45168 0
M  V30 3183 C 311.351 -1.71871 1.49815 0
M  V30 3184 C 312.335 -1.56774 0.362021 0
M  V30 3185 O 313.527 -1.66212 0.608493 0
M  V30 3186 C 310.656 -3.1061 1.46207 0
M  V30 3187 C 309.742 -3.31114 2.64999 0
M  V30 3188 N 310.133 -3.21904 3.90143 0
M  V30 3189 C 308.431 -3.61966 2.6057 0
M  V30 3190 C 309.132 -3.43577 4.69393 0
M  V30 3191 N 308.108 -3.67287 4.00751 0
M  V30 3192 H 311.91 -1.63235 2.444 0
M  V30 3193 H 309.424 -0.816577 1.40377 0
M  V30 3194 H 311.421 -3.8989 1.4762 0
M  V30 3195 H 310.081 -3.20399 0.52673 0
M  V30 3196 H 311.092 -3.00436 4.21852 0
M  V30 3197 H 307.769 -3.78629 1.75916 0
M  V30 3198 H 309.159 -3.41901 5.78406 0
M  V30 3199 N 311.879 -1.3236 -0.855495 0
M  V30 3200 C 313.107 -1.2587 -1.64208 0
M  V30 3201 C 313.522 0.173457 -1.88002 0
M  V30 3202 O 312.879 1.11027 -1.44842 0
M  V30 3203 C 312.93 -2.01424 -3.00184 0
M  V30 3204 O 312.651 -3.39051 -2.77445 0
M  V30 3205 C 314.152 -2.01948 -3.94629 0
M  V30 3206 H 311.372 -0.434318 -0.511477 0
M  V30 3207 H 313.916 -1.74469 -1.0668 0
M  V30 3208 H 312.071 -1.56549 -3.5436 0
M  V30 3209 H 312.485 -3.77711 -3.63916 0
M  V30 3210 H 313.959 -2.59297 -4.87308 0
M  V30 3211 H 314.436 -1.00554 -4.27534 0
M  V30 3212 H 315.042 -2.46767 -3.4639 0
M  V30 3213 N 313.357 1.07166 -1.15556 0
M  V30 3214 C 314.582 1.84053 -0.955988 0
M  V30 3215 C 315.007 1.81586 0.490739 0
M  V30 3216 O 314.365 1.21018 1.34997 0
M  V30 3217 C 314.413 3.28957 -1.47714 0
M  V30 3218 O 313.517 4.06795 -0.677593 0
M  V30 3219 H 312.858 0.569842 -0.340847 0
M  V30 3220 H 315.388 1.35178 -1.53584 0
M  V30 3221 H 315.398 3.79788 -1.4908 0
M  V30 3222 H 314.073 3.30068 -2.53037 0
M  V30 3223 H 312.65 3.6561 -0.733721 0
M  V30 3224 N 314.835 0.952656 1.25548 0
M  V30 3225 C 316.065 0.622592 1.96996 0
M  V30 3226 C 316.473 -0.809112 1.71026 0
M  V30 3227 O 315.816 -1.55258 0.981861 0
M  V30 3228 C 315.878 0.798946 3.5051 0
M  V30 3229 C 315.542 2.20744 4.00151 0
M  V30 3230 C 316.539 3.18394 4.11001 0
M  V30 3231 C 314.224 2.5311 4.33867 0
M  V30 3232 C 316.218 4.46504 4.54877 0
M  V30 3233 C 313.905 3.8145 4.7743 0
M  V30 3234 C 314.903 4.77959 4.87897 0
M  V30 3235 O 314.591 6.04012 5.30494 0
M  V30 3236 H 314.323 0.232503 0.634758 0
M  V30 3237 H 316.877 1.2789 1.60728 0
M  V30 3238 H 315.107 0.0854903 3.86605 0
M  V30 3239 H 316.796 0.47023 4.03167 0
M  V30 3240 H 317.562 2.94715 3.85186 0
M  V30 3241 H 313.441 1.78719 4.24948 0
M  V30 3242 H 316.985 5.21835 4.62962 0
M  V30 3243 H 312.882 4.04936 5.0269 0
M  V30 3244 H 313.65 6.0736 5.48685 0
M  V30 3245 N 316.313 -1.40141 0.720998 0
M  V30 3246 C 317.245 -2.29177 0.0324669 0
M  V30 3247 C 318.258 -1.46105 -0.718126 0
M  V30 3248 O 319.447 -1.69335 -0.564608 0
M  V30 3249 C 316.547 -3.24473 -0.978292 0
M  V30 3250 C 315.72 -4.36423 -0.292115 0
M  V30 3251 C 314.779 -5.12122 -1.20901 0
M  V30 3252 O 313.805 -5.64981 -0.691766 0
M  V30 3253 N 315.007 -5.21992 -2.53978 0
M  V30 3254 H 317.772 -2.88909 0.796984 0
M  V30 3255 H 315.333 -1.51569 0.569068 0
M  V30 3256 H 317.325 -3.71987 -1.59398 0
M  V30 3257 H 315.895 -2.65871 -1.64413 0
M  V30 3258 H 315.115 -3.90967 0.503847 0
M  V30 3259 H 316.403 -5.08467 0.183971 0
M  V30 3260 H 315.801 -4.8054 -2.98493 0
M  V30 3261 H 314.358 -5.72995 -3.10677 0
M  V30 3262 N 317.792 -0.46758 -1.50504 0
M  V30 3263 C 318.74 0.342482 -2.30065 0
M  V30 3264 C 319.734 0.993596 -1.37201 0
M  V30 3265 O 320.94 0.925102 -1.54408 0
M  V30 3266 H 317.315 0.129283 -0.740803 0
M  V30 3267 H 319.286 -0.34899 -2.96352 0
M  V30 3268 C 318.035 1.4139 -3.17654 0
M  V30 3269 H 317.358 0.922264 -3.89017 0
M  V30 3270 H 318.798 1.95335 -3.76325 0
M  V30 3271 C 317.257 2.4139 -2.35016 0
M  V30 3272 O 317.787 3.46586 -2.03079 0
M  V30 3273 N 315.993 2.13021 -1.97662 0
M  V30 3274 H 315.54 1.27499 -2.23834 0
M  V30 3275 H 315.498 2.80164 -1.42673 0
M  V30 3276 N 319.27 1.56325 -0.20005 0
M  V30 3277 C 320.233 2.18084 0.705132 0
M  V30 3278 C 321.233 1.13666 1.1374 0
M  V30 3279 O 322.423 1.39023 1.04968 0
M  V30 3280 C 319.555 2.78689 1.96329 0
M  V30 3281 H 320.748 2.99435 0.167023 0
M  V30 3282 H 318.301 1.56221 0.0495725 0
M  V30 3283 H 319.036 2.0115 2.5438 0
M  V30 3284 H 318.821 3.55133 1.66202 0
M  V30 3285 H 320.311 3.26096 2.60866 0
M  V30 3286 N 320.748 -0.0735177 1.57428 0
M  V30 3287 C 321.696 -1.10628 2.04607 0
M  V30 3288 C 322.69 -1.40181 0.951088 0
M  V30 3289 O 323.896 -1.39608 1.1362 0
M  V30 3290 H 320.271 -0.374088 0.652351 0
M  V30 3291 H 322.242 -0.682218 2.90497 0
M  V30 3292 C 320.991 -2.41212 2.50423 0
M  V30 3293 H 320.314 -2.19322 3.34272 0
M  V30 3294 H 321.754 -3.11927 2.87189 0
M  V30 3295 C 320.213 -3.0705 1.38644 0
M  V30 3296 O 320.743 -3.95056 0.727582 0
M  V30 3297 N 318.949 -2.67645 1.132 0
M  V30 3298 H 318.496 -1.96169 1.66959 0
M  V30 3299 H 318.454 -3.1202 0.386147 0
M  V30 3300 N 322.226 -1.5378 -0.344866 0
M  V30 3301 C 323.637 -1.62428 -0.920552 0
M  V30 3302 C 323.988 -0.504747 -1.89596 0
M  V30 3303 O 323.113 0.365711 -2.13287 0
M  V30 3304 C 323.708 -2.94419 -1.67639 0
M  V30 3305 C 322.267 -3.05333 -2.20111 0
M  V30 3306 C 321.414 -2.57866 -1.01982 0
M  V30 3307 H 324.365 -1.58222 -0.123042 0
M  V30 3308 H 324.386 -2.83384 -2.53917 0
M  V30 3309 H 323.898 -3.7588 -0.966224 0
M  V30 3310 H 321.999 -2.28502 -2.94308 0
M  V30 3311 H 322.112 -4.10778 -2.46573 0
M  V30 3312 H 320.476 -2.13241 -1.39285 0
M  V30 3313 H 321.259 -3.41765 -0.324308 0
M  V30 3314 N 323.704 0.605807 -1.45491 0
M  V30 3315 C 324.952 1.36207 -1.49305 0
M  V30 3316 C 325.273 1.94519 -0.136863 0
M  V30 3317 O 324.543 1.77261 0.833983 0
M  V30 3318 H 323.123 0.50565 -0.549843 0
M  V30 3319 H 325.785 0.711239 -1.81459 0
M  V30 3320 H 324.881 2.18058 -2.23287 0
M  V30 3321 N 325.182 1.32811 0.848464 0
M  V30 3322 C 326.092 1.24278 1.98978 0
M  V30 3323 C 327.108 0.155176 1.73307 0
M  V30 3324 O 328.284 0.376999 1.9784 0
M  V30 3325 C 325.349 0.972444 3.32783 0
M  V30 3326 C 324.41 2.14911 3.71634 0
M  V30 3327 C 323.643 1.89157 4.99054 0
M  V30 3328 O 323.866 0.837165 5.64223 0
M  V30 3329 O 322.8 2.75433 5.35183 0
M  V30 3330 H 326.626 2.20238 2.09115 0
M  V30 3331 H 324.211 1.12762 0.980052 0
M  V30 3332 H 326.093 0.838432 4.12975 0
M  V30 3333 H 324.768 0.043051 3.23671 0
M  V30 3334 H 323.675 2.33862 2.91992 0
M  V30 3335 H 325.008 3.06151 3.85399 0
M  V30 3336 N 326.66 -1.06551 1.16123 0
M  V30 3337 C 327.607 -2.13961 0.865414 0
M  V30 3338 C 328.577 -1.65066 -0.185055 0
M  V30 3339 O 329.762 -1.90732 -0.05083 0
M  V30 3340 C 326.902 -3.43113 0.369776 0
M  V30 3341 C 326.015 -4.05756 1.48276 0
M  V30 3342 C 325.15 -5.22773 0.942414 0
M  V30 3343 C 324.189 -5.77395 2.03179 0
M  V30 3344 N 323.326 -6.85731 1.50721 0
M  V30 3345 H 328.166 -2.38605 1.78527 0
M  V30 3346 H 325.703 -1.17072 0.890646 0
M  V30 3347 H 327.661 -4.17151 0.0640643 0
M  V30 3348 H 326.291 -3.18695 -0.513143 0
M  V30 3349 H 325.343 -3.29292 1.9045 0
M  V30 3350 H 326.655 -4.42351 2.30493 0
M  V30 3351 H 325.809 -6.03827 0.589729 0
M  V30 3352 H 324.548 -4.87618 0.0895191 0
M  V30 3353 H 323.553 -4.94981 2.3932 0
M  V30 3354 H 324.778 -6.14603 2.8886 0
M  V30 3355 H 322.724 -6.52499 0.676811 0
M  V30 3356 H 322.641 -7.21254 2.26557 0
M  V30 3357 H 323.909 -7.7047 1.18303 0
M  V30 3358 N 328.138 -0.959301 -1.25041 0
M  V30 3359 C 329.386 -0.615393 -1.92503 0
M  V30 3360 C 329.707 0.850969 -1.75452 0
M  V30 3361 O 328.977 1.60658 -1.12098 0
M  V30 3362 H 327.557 -0.224613 -0.712431 0
M  V30 3363 H 330.219 -1.21855 -1.5211 0
M  V30 3364 H 329.315 -0.848738 -3.00338 0
M  V30 3365 N 329.616 1.39756 -0.72842 0
M  V30 3366 C 330.864 2.00248 -0.272946 0
M  V30 3367 C 331.185 1.58077 1.14178 0
M  V30 3368 O 330.455 0.826014 1.77634 0
M  V30 3369 H 329.035 0.740554 -0.0979247 0
M  V30 3370 H 331.697 1.70903 -0.936912 0
M  V30 3371 H 330.793 3.10495 -0.316142 0
M  V30 3372 N 331.094 0.475555 1.50254 0
M  V30 3373 C 332.322 -0.0754493 2.06762 0
M  V30 3374 C 332.737 -1.33111 1.33891 0
M  V30 3375 O 332.094 -1.77846 0.40952 0
M  V30 3376 C 332.145 -0.359008 3.59713 0
M  V30 3377 O 331.866 0.846851 4.29837 0
M  V30 3378 C 333.367 -0.956484 4.32858 0
M  V30 3379 H 330.587 0.00907525 0.670939 0
M  V30 3380 H 333.131 0.665618 1.93364 0
M  V30 3381 H 331.286 -1.05001 3.72899 0
M  V30 3382 H 331.7 0.594162 5.21124 0
M  V30 3383 H 333.174 -1.10463 5.40834 0
M  V30 3384 H 333.651 -1.94775 3.93649 0
M  V30 3385 H 334.257 -0.303723 4.24214 0
M  V30 3386 N 332.573 -1.56217 0.208337 0
M  V30 3387 C 333.82 -1.97949 -0.42692 0
M  V30 3388 C 334.148 -1.09562 -1.60706 0
M  V30 3389 O 333.403 -0.137616 -1.95216 0
M  V30 3390 C 333.702 -3.45441 -0.916797 0
M  V30 3391 C 333.368 -4.50646 0.151391 0
M  V30 3392 C 332.03 -4.79139 0.444867 0
M  V30 3393 C 334.382 -5.13811 0.874492 0
M  V30 3394 C 331.71 -5.68084 1.46619 0
M  V30 3395 C 334.062 -6.03861 1.88506 0
M  V30 3396 C 332.726 -6.30704 2.18559 0
M  V30 3397 H 331.996 -0.724345 -0.156221 0
M  V30 3398 H 334.643 -1.89006 0.308084 0
M  V30 3399 H 332.948 -3.51521 -1.73032 0
M  V30 3400 H 334.645 -3.75094 -1.41794 0
M  V30 3401 H 331.235 -4.28511 -0.0875068 0
M  V30 3402 H 335.419 -4.91879 0.660996 0
M  V30 3403 H 330.675 -5.87151 1.7048 0
M  V30 3404 H 334.849 -6.51861 2.45051 0
M  V30 3405 H 332.476 -6.99424 2.97843 0
M  V30 3406 N 334.051 0.0651679 -1.57465 0
M  V30 3407 C 335.279 0.775808 -1.91804 0
M  V30 3408 C 335.694 1.70782 -0.804916 0
M  V30 3409 O 335.051 1.81153 0.221311 0
M  V30 3410 C 335.102 1.56381 -3.25925 0
M  V30 3411 O 334.823 0.669248 -4.32958 0
M  V30 3412 C 336.324 2.37485 -3.7432 0
M  V30 3413 H 333.544 0.2202 -0.63384 0
M  V30 3414 H 336.088 0.0334587 -2.04473 0
M  V30 3415 H 334.243 2.25837 -3.14764 0
M  V30 3416 H 334.657 1.21801 -5.10162 0
M  V30 3417 H 336.131 2.88223 -4.70778 0
M  V30 3418 H 336.608 3.17307 -3.03666 0
M  V30 3419 H 337.214 1.73173 -3.88447 0
M  V30 3420 N 335.529 1.53961 0.336706 0
M  V30 3421 C 336.777 1.71197 1.07405 0
M  V30 3422 C 337.098 0.481475 1.88962 0
M  V30 3423 O 336.368 -0.504585 1.8929 0
M  V30 3424 H 334.948 0.631185 0.399517 0
M  V30 3425 H 337.61 1.91232 0.376323 0
M  V30 3426 H 336.706 2.58587 1.74755 0
M  V30 3427 N 337.007 -0.598083 1.45811 0
M  V30 3428 C 338.235 -1.38322 1.53866 0
M  V30 3429 C 338.65 -1.87992 0.174479 0
M  V30 3430 O 338.007 -1.62756 -0.825627 0
M  V30 3431 C 338.058 -2.58125 2.53089 0
M  V30 3432 O 337.779 -2.10516 3.84206 0
M  V30 3433 C 339.28 -3.50869 2.70935 0
M  V30 3434 H 336.5 -0.423093 0.520801 0
M  V30 3435 H 339.044 -0.728527 1.91083 0
M  V30 3436 H 337.199 -3.19615 2.18917 0
M  V30 3437 H 337.613 -2.88425 4.38077 0
M  V30 3438 H 339.087 -4.31451 3.44317 0
M  V30 3439 H 339.564 -4.01822 1.77301 0
M  V30 3440 H 340.17 -2.95225 3.06141 0
M  V30 3441 N 338.485 -1.33259 -0.841409 0
M  V30 3442 C 339.732 -1.24572 -1.5965 0
M  V30 3443 C 340.06 0.189137 -1.93578 0
M  V30 3444 O 339.315 1.14566 -1.5866 0
M  V30 3445 C 339.614 -2.06381 -2.9179 0
M  V30 3446 C 339.28 -3.556 -2.77235 0
M  V30 3447 C 337.942 -3.96282 -2.72973 0
M  V30 3448 C 340.294 -4.50433 -2.62221 0
M  V30 3449 C 337.622 -5.30017 -2.51592 0
M  V30 3450 C 339.974 -5.84327 -2.42374 0
M  V30 3451 C 338.638 -6.24194 -2.36512 0
M  V30 3452 H 337.908 -0.455842 -0.5842 0
M  V30 3453 H 340.555 -1.6482 -0.975016 0
M  V30 3454 H 338.86 -1.58903 -3.5813 0
M  V30 3455 H 340.557 -1.97019 -3.49263 0
M  V30 3456 H 337.147 -3.23298 -2.81384 0
M  V30 3457 H 341.331 -4.19914 -2.64549 0
M  V30 3458 H 336.587 -5.59947 -2.45499 0
M  V30 3459 H 340.761 -6.57414 -2.29739 0
M  V30 3460 H 338.388 -7.27759 -2.19706 0
M  V30 3461 N 339.963 1.05934 -1.16686 0
M  V30 3462 C 341.191 1.8249 -0.974929 0
M  V30 3463 C 341.606 1.82679 0.476861 0
M  V30 3464 O 340.963 1.2486 1.33103 0
M  V30 3465 C 341.014 3.28943 -1.49929 0
M  V30 3466 O 340.735 3.28886 -2.89423 0
M  V30 3467 C 342.236 4.22215 -1.35089 0
M  V30 3468 H 339.456 0.575295 -0.345365 0
M  V30 3469 H 342 1.33631 -1.548 0
M  V30 3470 H 340.155 3.751 -0.968423 0
M  V30 3471 H 340.569 4.20493 -3.13506 0
M  V30 3472 H 342.043 5.22987 -1.76603 0
M  V30 3473 H 342.52 4.38195 -0.296935 0
M  V30 3474 H 343.126 3.81907 -1.87155 0
M  V30 3475 N 341.441 0.965919 1.2453 0
M  V30 3476 C 342.852 0.665929 1.7442 0
M  V30 3477 C 343.203 -0.818407 1.78316 0
M  V30 3478 O 342.328 -1.64037 1.41141 0
M  V30 3479 C 342.923 1.20211 3.16757 0
M  V30 3480 C 341.482 0.952059 3.6416 0
M  V30 3481 C 340.629 1.33848 2.42858 0
M  V30 3482 H 343.58 1.14144 1.10258 0
M  V30 3483 H 343.601 0.567544 3.76244 0
M  V30 3484 H 343.113 2.28244 3.13889 0
M  V30 3485 H 341.214 -0.112821 3.72429 0
M  V30 3486 H 341.327 1.59645 4.51719 0
M  V30 3487 H 339.691 0.756864 2.43195 0
M  V30 3488 H 340.474 2.42827 2.42673 0
M  V30 3489 N 342.919 -1.39368 0.735821 0
M  V30 3490 C 344.196 -1.94465 0.210395 0
M  V30 3491 C 344.576 -1.67254 -1.28799 0
M  V30 3492 O 343.924 -1.00123 -2.05396 0
M  V30 3493 C 344.134 -3.4472 0.544897 0
M  V30 3494 C 345.482 -4.21708 0.494689 0
M  V30 3495 O 346.506 -3.52922 0.482136 0
M  V30 3496 O 345.365 -5.44299 0.489947 0
M  V30 3497 H 342.459 -0.826096 0.0386666 0
M  V30 3498 H 345.005 -1.48863 0.814735 0
M  V30 3499 H 343.777 -3.57963 1.58045 0
M  V30 3500 H 343.4 -3.97502 -0.08837 0
M  V30 3501 N 344.397 -0.483516 -1.5 0
M  V30 3502 C 345.345 0.318061 -2.30415 0
M  V30 3503 C 346.339 0.978988 -1.38247 0
M  V30 3504 O 347.545 0.908673 -1.55381 0
M  V30 3505 H 343.92 0.121419 -0.742133 0
M  V30 3506 H 345.891 -0.380403 -2.95965 0
M  V30 3507 C 344.64 1.38013 -3.19136 0
M  V30 3508 H 343.963 0.880952 -3.89973 0
M  V30 3509 H 345.403 1.91332 -3.78375 0
M  V30 3510 C 343.862 2.38884 -2.37563 0
M  V30 3511 O 344.392 3.44412 -2.06744 0
M  V30 3512 N 342.598 2.10912 -1.99911 0
M  V30 3513 H 342.145 1.25118 -2.25174 0
M  V30 3514 H 342.103 2.78635 -1.45636 0
M  V30 3515 N 345.875 1.56104 -0.216619 0
M  V30 3516 C 346.823 2.21434 0.712036 0
M  V30 3517 C 347.817 1.19218 1.20348 0
M  V30 3518 O 349.023 1.3731 1.16387 0
M  V30 3519 H 345.398 0.70992 0.248026 0
M  V30 3520 H 347.369 2.98083 0.137558 0
M  V30 3521 C 346.118 2.90434 1.91163 0
M  V30 3522 H 345.441 3.68842 1.54258 0
M  V30 3523 H 346.881 3.39552 2.5393 0
M  V30 3524 C 345.34 1.92635 2.76394 0
M  V30 3525 O 345.87 1.44017 3.74996 0
M  V30 3526 N 344.076 1.60392 2.42328 0
M  V30 3527 H 343.623 2.00122 1.622 0
M  V30 3528 H 343.581 0.952159 2.99635 0
M  V30 3529 N 347.353 -0.0568162 1.57498 0
M  V30 3530 C 348.285 -1.09292 2.01464 0
M  V30 3531 C 349.298 -1.34112 0.922913 0
M  V30 3532 O 350.487 -1.32089 1.20062 0
M  V30 3533 C 347.587 -2.44068 2.35125 0
M  V30 3534 C 346.76 -2.38995 3.66333 0
M  V30 3535 C 345.819 -3.55997 3.87495 0
M  V30 3536 O 344.845 -3.36746 4.58901 0
M  V30 3537 N 346.047 -4.76888 3.30996 0
M  V30 3538 H 348.812 -0.718386 2.90963 0
M  V30 3539 H 346.373 -0.245235 1.60032 0
M  V30 3540 H 348.365 -3.21011 2.46443 0
M  V30 3541 H 346.935 -2.73468 1.5144 0
M  V30 3542 H 346.155 -1.47336 3.65631 0
M  V30 3543 H 347.443 -2.3272 4.52458 0
M  V30 3544 H 346.841 -4.95431 2.73065 0
M  V30 3545 H 345.398 -5.51291 3.47738 0
M  V30 3546 N 348.832 -1.54138 -0.328536 0
M  V30 3547 C 350.06 -1.76062 -1.08673 0
M  V30 3548 C 350.475 -0.506852 -1.81869 0
M  V30 3549 O 349.832 0.522223 -1.74869 0
M  V30 3550 C 349.883 -2.95054 -2.08866 0
M  V30 3551 O 349.604 -4.15583 -1.38644 0
M  V30 3552 C 351.105 -3.2915 -2.96943 0
M  V30 3553 H 348.325 -0.587889 -0.323461 0
M  V30 3554 H 350.869 -2.0101 -0.376175 0
M  V30 3555 H 349.024 -2.72394 -2.75464 0
M  V30 3556 H 349.438 -4.82481 -2.05699 0
M  V30 3557 H 350.912 -4.15723 -3.63151 0
M  V30 3558 H 351.389 -2.461 -3.63774 0
M  V30 3559 H 351.995 -3.53871 -2.35914 0
M  V30 3560 N 350.31 0.590341 -1.46126 0
M  V30 3561 C 351.535 1.37991 -1.54833 0
M  V30 3562 C 351.96 1.87163 -0.187506 0
M  V30 3563 O 351.318 1.61133 0.831008 0
M  V30 3564 C 351.366 2.54867 -2.55098 0
M  V30 3565 O 350.47 3.56061 -2.08073 0
M  V30 3566 H 349.811 0.411265 -0.521303 0
M  V30 3567 H 352.341 0.716819 -1.91632 0
M  V30 3568 H 352.351 3.01886 -2.74461 0
M  V30 3569 H 351.026 2.18429 -3.53923 0
M  V30 3570 H 349.603 3.15574 -1.98664 0
M  V30 3571 N 351.788 1.33704 0.83433 0
M  V30 3572 C 353.199 1.22813 1.4062 0
M  V30 3573 C 353.55 -0.151107 1.95617 0
M  V30 3574 O 352.675 -1.05092 1.89168 0
M  V30 3575 C 353.27 2.22355 2.55624 0
M  V30 3576 C 351.829 2.1529 3.08751 0
M  V30 3577 C 350.976 2.09589 1.8157 0
M  V30 3578 H 353.927 1.45236 0.639702 0
M  V30 3579 H 353.948 1.83391 3.33389 0
M  V30 3580 H 353.46 3.22728 2.15566 0
M  V30 3581 H 351.561 1.18235 3.53343 0
M  V30 3582 H 351.674 3.06038 3.68616 0
M  V30 3583 H 350.038 1.55134 2.02004 0
M  V30 3584 H 350.821 3.11777 1.43701 0
M  V30 3585 N 353.266 -1.05314 1.17247 0
M  V30 3586 C 354.229 -2.112 0.890357 0
M  V30 3587 C 355.229 -1.60359 -0.118943 0
M  V30 3588 O 356.419 -1.73833 0.113086 0
M  V30 3589 C 353.551 -3.39266 0.333422 0
M  V30 3590 H 354.744 -2.37659 1.82916 0
M  V30 3591 H 352.297 -1.21538 0.982758 0
M  V30 3592 H 353.032 -3.18462 -0.612587 0
M  V30 3593 H 352.817 -3.77477 1.06082 0
M  V30 3594 H 354.307 -4.17315 0.154322 0
M  V30 3595 N 354.744 -0.972509 -1.24016 0
M  V30 3596 C 356.16 -0.679827 -1.44397 0
M  V30 3597 C 356.36 0.756716 -1.86751 0
M  V30 3598 O 355.416 1.53007 -2.00861 0
M  V30 3599 C 356.729 -1.66803 -2.50195 0
M  V30 3600 C 358.277 -1.68119 -2.64017 0
M  V30 3601 C 358.752 -2.65748 -3.73017 0
M  V30 3602 N 360.243 -2.64219 -3.8045 0
M  V30 3603 C 360.978 -3.36433 -4.64328 0
M  V30 3604 N 360.474 -4.1818 -5.52356 0
M  V30 3605 N 362.267 -3.25235 -4.58453 0
M  V30 3606 H 354.418 -1.90059 -0.948228 0
M  V30 3607 H 356.681 -0.818527 -0.478245 0
M  V30 3608 H 356.387 -2.69498 -2.25973 0
M  V30 3609 H 356.261 -1.4446 -3.48441 0
M  V30 3610 H 358.648 -0.661319 -2.87594 0
M  V30 3611 H 358.729 -1.94525 -1.66113 0
M  V30 3612 H 358.373 -3.67872 -3.50189 0
M  V30 3613 H 358.303 -2.36619 -4.70446 0
M  V30 3614 H 360.794 -2.04887 -3.17537 0
M  V30 3615 H 361.107 -4.70157 -6.13329 0
M  V30 3616 H 359.452 -4.22273 -5.52006 0
M  V30 3617 H 362.643 -2.60829 -3.88698 0
M  V30 3618 H 362.816 -3.81776 -5.23594 0
M  V30 3619 N 356.222 1.38976 -0.743202 0
M  V30 3620 C 357.638 1.53984 -0.419664 0
M  V30 3621 C 357.838 1.70837 1.0685 0
M  V30 3622 O 356.894 1.7135 1.8546 0
M  V30 3623 C 358.207 2.75287 -1.20985 0
M  V30 3624 C 359.755 2.89129 -1.19889 0
M  V30 3625 C 360.23 4.13381 -1.97181 0
M  V30 3626 N 361.721 4.20437 -1.94389 0
M  V30 3627 C 362.456 5.15547 -2.50996 0
M  V30 3628 N 361.952 6.16395 -3.16274 0
M  V30 3629 N 363.745 5.07822 -2.40984 0
M  V30 3630 H 355.896 1.26285 -1.7078 0
M  V30 3631 H 358.159 0.612689 -0.723406 0
M  V30 3632 H 357.865 2.69204 -2.26323 0
M  V30 3633 H 357.739 3.68184 -0.819759 0
M  V30 3634 H 360.126 2.947 -0.153606 0
M  V30 3635 H 360.207 1.97272 -1.62841 0
M  V30 3636 H 359.851 4.08572 -3.01714 0
M  V30 3637 H 359.781 5.04298 -1.51629 0
M  V30 3638 H 362.272 3.48205 -1.46839 0
M  V30 3639 H 362.585 6.85443 -3.56915 0
M  V30 3640 H 360.93 6.16758 -3.20367 0
M  V30 3641 H 364.121 4.27973 -1.89622 0
M  V30 3642 H 364.294 5.81767 -2.85397 0
M  V30 3643 N 357.7 0.491464 1.49741 0
M  V30 3644 C 358.947 -0.0564256 2.02421 0
M  V30 3645 C 359.275 -1.37872 1.37192 0
M  V30 3646 O 358.53 -1.89375 0.493508 0
M  V30 3647 C 358.829 -0.267329 3.56399 0
M  V30 3648 C 358.495 0.975775 4.40215 0
M  V30 3649 C 357.157 1.31655 4.62839 0
M  V30 3650 C 359.509 1.80251 4.89039 0
M  V30 3651 C 356.837 2.48375 5.31532 0
M  V30 3652 C 359.189 2.96116 5.59015 0
M  V30 3653 C 357.853 3.30585 5.79888 0
M  V30 3654 H 357.123 -0.0206476 0.740712 0
M  V30 3655 H 359.77 0.649686 1.80143 0
M  V30 3656 H 358.075 -1.05588 3.77304 0
M  V30 3657 H 359.772 -0.705549 3.94744 0
M  V30 3658 H 356.362 0.700315 4.2284 0
M  V30 3659 H 360.546 1.55239 4.71396 0
M  V30 3660 H 355.802 2.7533 5.45897 0
M  V30 3661 H 359.976 3.60509 5.95824 0
M  V30 3662 H 357.603 4.21132 6.32892 0
M  V30 3663 N 359.178 -1.55987 0.224894 0
M  V30 3664 C 360.418 -2.00293 -0.407706 0
M  V30 3665 C 360.782 -1.1093 -1.56711 0
M  V30 3666 O 361.983 -1.44597 -2.26595 0
M  V30 3667 C 360.254 -3.47675 -0.82805 0
M  V30 3668 S 361.813 -4.14 -1.45429 0
M  V30 3669 H 358.631 -0.699152 -0.129256 0
M  V30 3670 H 361.233 -1.92609 0.334967 0
M  V30 3671 H 359.937 -4.10392 0.0253964 0
M  V30 3672 H 359.468 -3.59239 -1.60345 0
M  V30 3673 H 361.483 -4.13465 -2.74337 0
M  V30 3674 N 360.656 0.0484629 -1.57525 0
M  V30 3675 C 362.067 0.597486 -1.76881 0
M  V30 3676 C 362.418 1.76664 -0.853475 0
M  V30 3677 O 361.543 2.16357 -0.0433656 0
M  V30 3678 C 362.138 1.09066 -3.20765 0
M  V30 3679 C 360.697 1.58535 -3.41385 0
M  V30 3680 C 359.844 0.514868 -2.72478 0
M  V30 3681 H 362.795 -0.177758 -1.57701 0
M  V30 3682 H 362.816 1.95875 -3.2621 0
M  V30 3683 H 362.328 0.239521 -3.8736 0
M  V30 3684 H 360.429 2.45898 -2.79937 0
M  V30 3685 H 360.542 1.64622 -4.49929 0
M  V30 3686 H 358.906 0.965407 -2.35695 0
M  V30 3687 H 359.689 -0.32648 -3.41744 0
M  V30 3688 N 362.134 1.5431 0.320358 0
M  V30 3689 C 363.38 1.72924 1.05949 0
M  V30 3690 C 363.713 0.503185 1.87568 0
M  V30 3691 O 362.988 -0.499839 1.87968 0
M  V30 3692 C 363.271 3.00676 1.98156 0
M  V30 3693 C 363.124 4.3354 1.19845 0
M  V30 3694 C 364.443 3.24198 2.9763 0
M  V30 3695 H 361.562 0.629195 0.383774 0
M  V30 3696 H 364.204 1.87008 0.335854 0
M  V30 3697 H 362.354 2.888 2.59859 0
M  V30 3698 H 364.026 4.57305 0.605773 0
M  V30 3699 H 362.269 4.309 0.500784 0
M  V30 3700 H 362.94 5.19156 1.87567 0
M  V30 3701 H 365.416 3.35557 2.4605 0
M  V30 3702 H 364.292 4.14938 3.59329 0
M  V30 3703 H 364.553 2.41577 3.7026 0
M  V30 3704 N 363.613 -0.582584 1.46437 0
M  V30 3705 C 364.89 -1.34276 1.4223 0
M  V30 3706 C 365.27 -2.10835 0.10583 0
M  V30 3707 O 364.618 -2.09485 -0.912596 0
M  V30 3708 C 364.828 -2.26865 2.65204 0
M  V30 3709 C 366.176 -2.88691 3.11356 0
M  V30 3710 O 367.2 -2.37178 2.65753 0
M  V30 3711 O 366.059 -3.82255 3.90568 0
M  V30 3712 H 363.153 -0.603326 0.565621 0
M  V30 3713 H 365.699 -0.603591 1.58603 0
M  V30 3714 H 364.471 -1.69724 3.52576 0
M  V30 3715 H 364.094 -3.08122 2.5129 0
M  V30 3716 N 365.091 -1.34144 -0.827227 0
M  V30 3717 C 366.321 -1.29138 -1.61267 0
M  V30 3718 C 366.729 0.137597 -1.88699 0
M  V30 3719 O 366.072 1.09379 -1.47587 0
M  V30 3720 C 366.134 -2.0097 -2.9808 0
M  V30 3721 C 365.798 -3.50242 -2.93563 0
M  V30 3722 C 366.795 -4.4523 -2.68452 0
M  V30 3723 C 364.48 -3.92592 -3.13331 0
M  V30 3724 C 366.474 -5.80542 -2.63154 0
M  V30 3725 C 364.161 -5.28005 -3.07658 0
M  V30 3726 C 365.159 -6.21792 -2.82602 0
M  V30 3727 O 364.847 -7.54723 -2.76853 0
M  V30 3728 H 364.579 -0.445851 -0.508127 0
M  V30 3729 H 367.133 -1.77263 -1.03763 0
M  V30 3730 H 365.363 -1.47451 -3.57484 0
M  V30 3731 H 367.052 -1.89309 -3.5905 0
M  V30 3732 H 367.818 -4.13832 -2.52919 0
M  V30 3733 H 363.697 -3.19994 -3.31851 0
M  V30 3734 H 367.241 -6.53717 -2.43516 0
M  V30 3735 H 363.138 -5.59023 -3.22743 0
M  V30 3736 H 363.906 -7.64409 -2.92611 0
M  V30 3737 N 366.569 1.04691 -1.17803 0
M  V30 3738 C 367.499 2.14494 -0.92275 0
M  V30 3739 C 368.48 1.69546 0.137179 0
M  V30 3740 O 369.665 1.94195 -0.0141108 0
M  V30 3741 C 366.795 3.44491 -0.440803 0
M  V30 3742 C 365.749 4.03031 -1.4405 0
M  V30 3743 C 365.075 5.28432 -0.81631 0
M  V30 3744 C 366.375 4.39932 -2.81527 0
M  V30 3745 H 368.069 2.36107 -1.84103 0
M  V30 3746 H 365.615 1.1347 -0.886599 0
M  V30 3747 H 367.568 4.2066 -0.249602 0
M  V30 3748 H 366.292 3.22546 0.513025 0
M  V30 3749 H 364.951 3.28937 -1.61853 0
M  V30 3750 H 364.599 5.02792 0.144511 0
M  V30 3751 H 364.299 5.68559 -1.48371 0
M  V30 3752 H 365.823 6.07284 -0.635496 0
M  V30 3753 H 367.237 5.07113 -2.67412 0
M  V30 3754 H 365.634 4.9109 -3.44892 0
M  V30 3755 H 366.704 3.50045 -3.35554 0
M  V30 3756 N 368.047 0.979072 1.23499 0
M  V30 3757 C 368.977 0.537606 2.27227 0
M  V30 3758 C 369.958 -0.428539 1.64613 0
M  V30 3759 O 371.143 -0.322191 1.91509 0
M  V30 3760 C 368.273 -0.162052 3.46922 0
M  V30 3761 C 367.227 0.721242 4.21879 0
M  V30 3762 C 366.553 -0.110555 5.34586 0
M  V30 3763 C 367.853 2.01141 4.82016 0
M  V30 3764 H 369.547 1.40462 2.64406 0
M  V30 3765 H 367.093 0.67684 1.27102 0
M  V30 3766 H 369.046 -0.482192 4.18632 0
M  V30 3767 H 367.77 -1.06351 3.08799 0
M  V30 3768 H 366.429 1.02482 3.51984 0
M  V30 3769 H 366.077 -1.0125 4.92704 0
M  V30 3770 H 365.777 0.477325 5.85658 0
M  V30 3771 H 367.301 -0.425107 6.09118 0
M  V30 3772 H 368.715 1.75612 5.45741 0
M  V30 3773 H 367.112 2.54695 5.43369 0
M  V30 3774 H 368.182 2.69909 4.02836 0
M  V30 3775 N 369.525 -1.3858 0.750561 0
M  V30 3776 C 370.773 -1.99789 0.30477 0
M  V30 3777 C 371.094 -1.59874 -1.11649 0
M  V30 3778 O 370.364 -0.85417 -1.76297 0
M  V30 3779 H 368.944 -0.738902 0.109694 0
M  V30 3780 H 371.606 -1.69391 0.963983 0
M  V30 3781 H 370.702 -3.09952 0.365499 0
M  V30 3782 N 371.003 -0.499398 -1.49478 0
M  V30 3783 C 371.951 0.293604 -2.3074 0
M  V30 3784 C 372.945 0.96427 -1.39277 0
M  V30 3785 O 374.151 0.892141 -1.56336 0
M  V30 3786 H 370.526 0.113541 -0.743379 0
M  V30 3787 H 372.497 -0.411772 -2.95545 0
M  V30 3788 C 371.246 1.3462 -3.20582 0
M  V30 3789 H 370.569 0.83954 -3.90886 0
M  V30 3790 H 372.009 1.87308 -3.80384 0
M  V30 3791 C 370.468 2.36351 -2.40083 0
M  V30 3792 O 370.998 3.422 -2.10385 0
M  V30 3793 N 369.204 2.0878 -2.02137 0
M  V30 3794 H 368.751 1.22723 -2.26488 0
M  V30 3795 H 368.709 2.77075 -1.48583 0
M  V30 3796 N 372.481 1.55866 -0.233164 0
M  V30 3797 C 373.729 1.9821 0.394593 0
M  V30 3798 C 374.05 1.12234 1.59463 0
M  V30 3799 O 373.32 0.201981 1.94856 0
M  V30 3800 H 371.9 0.732034 0.148778 0
M  V30 3801 H 374.562 1.92107 -0.32876 0
M  V30 3802 H 373.658 3.03845 0.713063 0
M  V30 3803 N 373.959 -0.0401083 1.57549 0
M  V30 3804 C 375.187 -0.745196 1.93014 0
M  V30 3805 C 375.602 -1.6948 0.831984 0
M  V30 3806 O 374.959 -1.81482 -0.192463 0
M  V30 3807 C 375.01 -1.51176 3.28372 0
M  V30 3808 O 374.731 -0.600284 4.33968 0
M  V30 3809 C 376.232 -2.315 3.78051 0
M  V30 3810 H 373.452 -0.210088 0.637263 0
M  V30 3811 H 375.996 -0.000924689 2.045 0
M  V30 3812 H 374.151 -2.20801 3.18317 0
M  V30 3813 H 374.565 -1.13669 5.12035 0
M  V30 3814 H 376.039 -2.80697 4.75303 0
M  V30 3815 H 376.516 -3.12436 3.08675 0
M  V30 3816 H 377.122 -1.66971 3.91153 0
M  V30 3817 N 375.437 -1.54477 -0.31217 0
M  V30 3818 C 376.367 -1.87652 -1.38957 0
M  V30 3819 C 377.348 -0.734358 -1.53431 0
M  V30 3820 O 378.533 -0.98911 -1.67123 0
M  V30 3821 C 375.663 -2.11396 -2.75552 0
M  V30 3822 C 374.617 -3.27243 -2.75855 0
M  V30 3823 C 373.943 -3.36382 -4.15633 0
M  V30 3824 C 375.243 -4.64622 -2.38587 0
M  V30 3825 H 376.937 -2.77887 -1.11442 0
M  V30 3826 H 374.483 -1.33707 -0.534655 0
M  V30 3827 H 376.436 -2.33189 -3.51 0
M  V30 3828 H 375.16 -1.17921 -3.04569 0
M  V30 3829 H 373.819 -3.05356 -2.02863 0
M  V30 3830 H 373.467 -2.40445 -4.41809 0
M  V30 3831 H 373.167 -4.14249 -4.1674 0
M  V30 3832 H 374.691 -3.60422 -4.92877 0
M  V30 3833 H 376.105 -4.86219 -3.03749 0
M  V30 3834 H 374.502 -5.45121 -2.50925 0
M  V30 3835 H 375.572 -4.66097 -1.33723 0
M  V30 3836 N 376.915 0.57481 -1.46744 0
M  V30 3837 C 377.845 1.69337 -1.60771 0
M  V30 3838 C 378.826 1.63825 -0.457736 0
M  V30 3839 O 380.011 1.8172 -0.684947 0
M  V30 3840 C 377.141 3.0798 -1.60517 0
M  V30 3841 C 376.095 3.28327 -2.74564 0
M  V30 3842 C 375.421 4.67578 -2.59373 0
M  V30 3843 C 376.721 3.15398 -4.16319 0
M  V30 3844 H 378.415 1.57853 -2.54407 0
M  V30 3845 H 375.961 0.75799 -1.22436 0
M  V30 3846 H 377.914 3.86061 -1.68923 0
M  V30 3847 H 376.638 3.20381 -0.634305 0
M  V30 3848 H 375.297 2.52649 -2.65639 0
M  V30 3849 H 374.945 4.76755 -1.60353 0
M  V30 3850 H 374.645 4.82144 -3.35873 0
M  V30 3851 H 376.169 5.47817 -2.69682 0
M  V30 3852 H 377.583 3.83315 -4.26313 0
M  V30 3853 H 375.98 3.41482 -4.93468 0
M  V30 3854 H 377.05 2.12372 -4.3592 0
M  V30 3855 N 378.394 1.34581 0.820102 0
M  V30 3856 C 379.642 1.26845 1.57336 0
M  V30 3857 C 379.963 -0.160667 1.94337 0
M  V30 3858 O 379.233 -1.09396 1.6251 0
M  V30 3859 H 377.813 0.466514 0.583415 0
M  V30 3860 H 380.475 1.68526 0.979027 0
M  V30 3861 H 379.571 1.87513 2.4949 0
M  V30 3862 N 379.872 -1.04064 1.18357 0
M  V30 3863 C 380.82 -2.14187 0.907007 0
M  V30 3864 C 381.814 -1.68879 -0.132725 0
M  V30 3865 O 383.02 -1.79993 0.0154248 0
M  V30 3866 H 379.395 -0.699585 0.275835 0
M  V30 3867 H 381.366 -2.34711 1.84264 0
M  V30 3868 C 380.115 -3.44785 0.449254 0
M  V30 3869 H 379.438 -3.80058 1.24081 0
M  V30 3870 H 380.878 -4.22974 0.294737 0
M  V30 3871 C 379.337 -3.26391 -0.834909 0
M  V30 3872 O 379.867 -3.53973 -1.89911 0
M  V30 3873 N 378.073 -2.79726 -0.787523 0
M  V30 3874 H 377.62 -2.5748 0.0787347 0
M  V30 3875 H 377.578 -2.67798 -1.64716 0
M  V30 3876 N 381.35 -0.985608 -1.22978 0
M  V30 3877 C 382.313 -0.535071 -2.22867 0
M  V30 3878 C 383.313 0.378123 -1.56291 0
M  V30 3879 O 384.503 0.171092 -1.73358 0
M  V30 3880 C 381.635 0.222702 -3.40172 0
M  V30 3881 H 382.828 -1.41835 -2.6424 0
M  V30 3882 H 380.381 -0.772042 -1.35901 0
M  V30 3883 H 381.116 1.12229 -3.04262 0
M  V30 3884 H 380.901 -0.43288 -3.89703 0
M  V30 3885 H 382.391 0.526335 -4.1427 0
M  V30 3886 N 382.828 1.3818 -0.7579 0
M  V30 3887 C 384.075 2.00019 -0.315985 0
M  V30 3888 C 384.403 1.60163 1.10355 0
M  V30 3889 O 383.658 0.83264 1.77103 0
M  V30 3890 C 383.957 3.55252 -0.391218 0
M  V30 3891 C 383.623 4.14834 -1.76702 0
M  V30 3892 C 382.285 4.30821 -2.14353 0
M  V30 3893 C 384.637 4.47658 -2.66931 0
M  V30 3894 C 381.965 4.76928 -3.41696 0
M  V30 3895 C 384.317 4.95184 -3.93669 0
M  V30 3896 C 382.981 5.09377 -4.31383 0
M  V30 3897 H 382.251 0.731923 -0.115627 0
M  V30 3898 H 384.898 1.65161 -0.969223 0
M  V30 3899 H 383.203 3.90273 0.34558 0
M  V30 3900 H 384.9 4.00988 -0.030805 0
M  V30 3901 H 381.49 4.02808 -1.46435 0
M  V30 3902 H 385.674 4.34904 -2.39106 0
M  V30 3903 H 380.93 4.86103 -3.70829 0
M  V30 3904 H 385.104 5.19551 -4.63724 0
M  V30 3905 H 382.731 5.44865 -5.30119 0
M  V30 3906 N 384.306 0.507319 1.49211 0
M  V30 3907 C 385.552 -0.0350047 2.0277 0
M  V30 3908 C 385.885 -1.3606 1.38569 0
M  V30 3909 O 385.16 -1.87321 0.523542 0
M  V30 3910 C 385.443 -0.180916 3.59645 0
M  V30 3911 C 385.296 1.16825 4.34364 0
M  V30 3912 C 386.615 -0.918558 4.30407 0
M  V30 3913 H 383.734 -0.0112473 0.736914 0
M  V30 3914 H 386.376 0.659956 1.7817 0
M  V30 3915 H 384.526 -0.772826 3.80736 0
M  V30 3916 H 386.198 1.79952 4.24753 0
M  V30 3917 H 384.441 1.75594 3.96673 0
M  V30 3918 H 385.112 1.01939 5.42506 0
M  V30 3919 H 387.588 -0.41649 4.1401 0
M  V30 3920 H 386.464 -0.989505 5.39907 0
M  V30 3921 H 386.725 -1.96373 3.96093 0
M  V30 3922 N 385.784 -1.5574 0.241426 0
M  V30 3923 C 387.031 -1.9881 -0.384836 0
M  V30 3924 C 387.359 -1.12947 -1.58346 0
M  V30 3925 O 386.614 -0.178993 -1.9488 0
M  V30 3926 C 386.913 -3.47308 -0.843317 0
M  V30 3927 C 386.579 -4.50223 0.246946 0
M  V30 3928 C 385.241 -4.78088 0.546399 0
M  V30 3929 C 387.593 -5.11841 0.983282 0
M  V30 3930 C 384.921 -5.64846 1.58636 0
M  V30 3931 C 387.273 -5.99727 2.01272 0
M  V30 3932 C 385.937 -6.25927 2.31888 0
M  V30 3933 H 385.207 -0.727496 -0.140821 0
M  V30 3934 H 387.854 -1.8831 0.348106 0
M  V30 3935 H 386.159 -3.55112 -1.65537 0
M  V30 3936 H 387.856 -3.78017 -1.33806 0
M  V30 3937 H 384.446 -4.286 0.00340639 0
M  V30 3938 H 388.63 -4.90366 0.765182 0
M  V30 3939 H 383.886 -5.83403 1.82896 0
M  V30 3940 H 388.06 -6.46517 2.58823 0
M  V30 3941 H 385.687 -6.92949 3.12611 0
M  V30 3942 N 387.262 0.0317525 -1.57568 0
M  V30 3943 C 388.673 0.578692 -1.77505 0
M  V30 3944 C 389.024 1.75749 -0.872164 0
M  V30 3945 O 388.149 2.16298 -0.0663106 0
M  V30 3946 C 388.744 1.05658 -3.21904 0
M  V30 3947 C 387.303 1.54906 -3.43047 0
M  V30 3948 C 386.45 0.485939 -2.73009 0
M  V30 3949 H 389.401 -0.194475 -1.57504 0
M  V30 3950 H 389.422 1.92404 -3.28269 0
M  V30 3951 H 388.934 0.198422 -3.87592 0
M  V30 3952 H 387.035 2.42915 -2.82529 0
M  V30 3953 H 387.148 1.59841 -4.5165 0
M  V30 3954 H 385.512 0.940354 -2.36705 0
M  V30 3955 H 386.295 -0.362709 -3.41379 0
M  V30 3956 N 388.74 1.54641 0.303973 0
M  V30 3957 C 389.69 1.8177 1.37636 0
M  V30 3958 C 390.674 0.674697 1.46071 0
M  V30 3959 O 391.866 0.935251 1.50273 0
M  V30 3960 C 388.995 2.06584 2.74186 0
M  V30 3961 C 388.081 3.2706 2.69986 0
M  V30 3962 N 388.472 4.47682 2.35402 0
M  V30 3963 C 386.77 3.29028 3.01092 0
M  V30 3964 C 387.471 5.29689 2.40426 0
M  V30 3965 N 386.447 4.67339 2.7766 0
M  V30 3966 H 390.249 2.72596 1.09857 0
M  V30 3967 H 387.763 1.541 0.51254 0
M  V30 3968 H 389.76 2.24166 3.51504 0
M  V30 3969 H 388.42 1.17024 3.02879 0
M  V30 3970 H 389.431 4.74336 2.07908 0
M  V30 3971 H 386.108 2.49565 3.34699 0
M  V30 3972 H 387.498 6.3606 2.16512 0
M  V30 3973 N 390.218 -0.567019 1.47046 0
M  V30 3974 C 391.15 -1.68985 1.54844 0
M  V30 3975 C 392.163 -1.56869 0.435431 0
M  V30 3976 O 393.352 -1.64006 0.70457 0
M  V30 3977 C 390.452 -3.07373 1.42742 0
M  V30 3978 C 389.625 -3.45339 2.6844 0
M  V30 3979 C 388.684 -4.62849 2.50314 0
M  V30 3980 O 387.71 -4.67922 3.24095 0
M  V30 3981 N 388.912 -5.58726 1.57499 0
M  V30 3982 H 391.677 -1.62745 2.51663 0
M  V30 3983 H 389.238 -0.753411 1.43302 0
M  V30 3984 H 391.23 -3.83803 1.28365 0
M  V30 3985 H 389.8 -3.07893 0.540445 0
M  V30 3986 H 389.02 -2.58455 2.97648 0
M  V30 3987 H 390.308 -3.67476 3.51907 0
M  V30 3988 H 389.706 -5.57376 0.966876 0
M  V30 3989 H 388.263 -6.34523 1.49078 0
M  V30 3990 N 391.696 -1.35014 -0.812953 0
M  V30 3991 C 392.945 -1.27269 -1.56479 0
M  V30 3992 C 393.258 0.152771 -1.95002 0
M  V30 3993 O 394.464 0.352451 -2.69203 0
M  V30 3994 C 392.92 -2.23159 -2.82362 0
M  V30 3995 C 392.528 -3.71016 -2.511 0
M  V30 3996 C 394.272 -2.24342 -3.60376 0
M  V30 3997 C 392.179 -4.58746 -3.73237 0
M  V30 3998 H 391.109 -0.472829 -0.587324 0
M  V30 3999 H 393.76 -1.6024 -0.894171 0
M  V30 4000 H 392.142 -1.83151 -3.51101 0
M  V30 4001 H 393.316 -4.1962 -1.90409 0
M  V30 4002 H 391.631 -3.72378 -1.86343 0
M  V30 4003 H 394.228 -2.87107 -4.51081 0
M  V30 4004 H 394.571 -1.24542 -3.97234 0
M  V30 4005 H 395.104 -2.62846 -2.98591 0
M  V30 4006 H 391.843 -5.59521 -3.41492 0
M  V30 4007 H 391.363 -4.14871 -4.33176 0
M  V30 4008 H 393.042 -4.73852 -4.40537 0
M  V30 4009 N 393.175 1.03435 -1.18907 0
M  V30 4010 C 394.424 1.76143 -0.982669 0
M  V30 4011 C 394.737 1.89416 0.487953 0
M  V30 4012 O 395.943 2.59041 0.813036 0
M  V30 4013 C 394.399 3.16722 -1.70924 0
M  V30 4014 C 394.007 3.11522 -3.21959 0
M  V30 4015 C 395.751 3.93764 -1.58588 0
M  V30 4016 C 393.658 4.46999 -3.87228 0
M  V30 4017 H 392.588 0.660292 -0.364047 0
M  V30 4018 H 395.239 1.158 -1.42347 0
M  V30 4019 H 393.621 3.775 -1.19623 0
M  V30 4020 H 394.795 2.60158 -3.80335 0
M  V30 4021 H 393.11 2.47978 -3.34508 0
M  V30 4022 H 395.707 4.93963 -2.04707 0
M  V30 4023 H 396.05 4.12794 -0.539142 0
M  V30 4024 H 396.583 3.39576 -2.07203 0
M  V30 4025 H 393.322 4.33174 -4.91976 0
M  V30 4026 H 392.842 4.98441 -3.33642 0
M  V30 4027 H 394.521 5.15898 -3.90459 0
M  V30 4028 N 394.653 0.992116 1.22453 0
M  V30 4029 C 395.601 0.534644 2.26372 0
M  V30 4030 C 396.595 -0.414293 1.64256 0
M  V30 4031 O 397.801 -0.286899 1.77699 0
M  V30 4032 H 394.176 0.154502 0.735957 0
M  V30 4033 H 396.147 1.42256 2.62309 0
M  V30 4034 C 394.896 -0.135815 3.47435 0
M  V30 4035 H 394.219 0.585311 3.95492 0
M  V30 4036 H 395.659 -0.419374 4.21921 0
M  V30 4037 C 394.118 -1.37089 3.07747 0
M  V30 4038 O 394.648 -2.46629 3.17076 0
M  V30 4039 N 392.854 -1.24585 2.62539 0
M  V30 4040 H 392.401 -0.354542 2.55149 0
M  V30 4041 H 392.359 -2.07327 2.36353 0
M  V30 4042 N 396.131 -1.37776 0.765217 0
M  V30 4043 C 397.061 -2.32945 0.160953 0
M  V30 4044 C 398.042 -1.55454 -0.690516 0
M  V30 4045 O 399.227 -1.83721 -0.629318 0
M  V30 4046 C 396.357 -3.39669 -0.724031 0
M  V30 4047 C 395.311 -4.27992 0.0256173 0
M  V30 4048 C 394.637 -5.25673 -0.978383 0
M  V30 4049 C 395.937 -5.08309 1.20082 0
M  V30 4050 H 397.631 -2.83728 0.955969 0
M  V30 4051 H 395.177 -1.36416 0.461149 0
M  V30 4052 H 397.13 -4.05219 -1.15652 0
M  V30 4053 H 395.854 -2.87396 -1.5515 0
M  V30 4054 H 394.513 -3.63964 0.438812 0
M  V30 4055 H 394.161 -4.69682 -1.80022 0
M  V30 4056 H 393.861 -5.85625 -0.481378 0
M  V30 4057 H 395.385 -5.94098 -1.40995 0
M  V30 4058 H 396.799 -5.67034 0.845307 0
M  V30 4059 H 395.196 -5.77554 1.62947 0
M  V30 4060 H 396.266 -4.41365 2.00811 0
M  V30 4061 N 397.609 -0.515225 -1.4894 0
M  V30 4062 C 399.025 -0.172099 -1.58669 0
M  V30 4063 C 399.225 1.32405 -1.51892 0
M  V30 4064 O 398.281 2.10116 -1.40027 0
M  V30 4065 C 399.594 -0.761533 -2.90897 0
M  V30 4066 C 401.142 -0.728926 -3.04394 0
M  V30 4067 C 401.617 -1.29667 -4.39261 0
M  V30 4068 N 403.108 -1.25799 -4.4579 0
M  V30 4069 C 403.843 -1.66733 -5.48623 0
M  V30 4070 N 403.339 -2.15327 -6.58488 0
M  V30 4071 N 405.132 -1.58061 -5.39419 0
M  V30 4072 H 397.283 -1.48778 -1.51588 0
M  V30 4073 H 399.546 -0.617968 -0.718901 0
M  V30 4074 H 399.252 -1.81136 -3.01468 0
M  V30 4075 H 399.126 -0.230106 -3.76497 0
M  V30 4076 H 401.513 0.312098 -2.93445 0
M  V30 4077 H 401.594 -1.29766 -2.20442 0
M  V30 4078 H 401.238 -2.33655 -4.50963 0
M  V30 4079 H 401.168 -0.703752 -5.21876 0
M  V30 4080 H 403.659 -0.902102 -3.66975 0
M  V30 4081 H 403.972 -2.44594 -7.33071 0
M  V30 4082 H 402.317 -2.19311 -6.59491 0
M  V30 4083 H 405.508 -1.19906 -4.52482 0
M  V30 4084 H 405.681 -1.90284 -6.19432 0
M  V30 4085 N 399.087 1.5561 -0.249682 0
M  V30 4086 C 400.315 2.03411 0.378352 0
M  V30 4087 C 400.73 1.12886 1.51335 0
M  V30 4088 O 400.087 0.143833 1.81932 0
M  V30 4089 C 400.138 3.50537 0.88351 0
M  V30 4090 O 399.859 4.37614 -0.20626 0
M  V30 4091 C 401.36 4.14113 1.58195 0
M  V30 4092 H 398.58 0.664994 0.08958 0
M  V30 4093 H 401.124 2.01044 -0.374357 0
M  V30 4094 H 399.279 3.5343 1.58639 0
M  V30 4095 H 399.693 5.24199 0.177782 0
M  V30 4096 H 401.167 5.18741 1.8871 0
M  V30 4097 H 401.644 3.60767 2.50487 0
M  V30 4098 H 402.25 4.15151 0.923573 0
M  V30 4099 N 400.565 -0.0233959 1.57583 0
M  V30 4100 C 401.513 -1.04063 2.08023 0
M  V30 4101 C 402.507 -1.37084 0.995204 0
M  V30 4102 O 403.713 -1.35923 1.18004 0
M  V30 4103 H 400.088 -0.353144 0.663922 0
M  V30 4104 H 402.059 -0.589453 2.9252 0
M  V30 4105 C 400.808 -2.33123 2.57971 0
M  V30 4106 H 400.131 -2.08577 3.4108 0
M  V30 4107 H 401.571 -3.02632 2.96967 0
M  V30 4108 C 400.03 -3.02483 1.48342 0
M  V30 4109 O 400.56 -3.92541 0.852898 0
M  V30 4110 N 398.766 -2.63909 1.21658 0
M  V30 4111 H 398.313 -1.90758 1.73116 0
M  V30 4112 H 398.271 -3.10633 0.485218 0
M  V30 4113 N 402.043 -1.548 -0.295768 0
M  V30 4114 C 402.991 -1.86874 -1.38495 0
M  V30 4115 C 403.985 -0.742938 -1.52239 0
M  V30 4116 O 405.191 -0.926999 -1.54294 0
M  V30 4117 H 401.566 -0.592786 -0.462719 0
M  V30 4118 H 403.537 -2.77904 -1.08682 0
M  V30 4119 C 402.286 -2.13732 -2.74252 0
M  V30 4120 H 401.609 -2.99835 -2.64459 0
M  V30 4121 H 403.049 -2.4011 -3.49461 0
M  V30 4122 C 401.508 -0.937539 -3.23592 0
M  V30 4123 O 402.038 -0.160665 -4.01379 0
M  V30 4124 N 400.244 -0.741478 -2.80981 0
M  V30 4125 H 399.791 -1.37489 -2.1784 0
M  V30 4126 H 399.749 0.0597103 -3.14343 0
M  V30 4127 N 403.521 0.559213 -1.47345 0
M  V30 4128 C 404.761 1.32728 -1.55444 0
M  V30 4129 C 405.125 1.90838 -0.210895 0
M  V30 4130 O 406.326 2.68282 -0.166719 0
M  V30 4131 C 404.597 2.4092 -2.63993 0
M  V30 4132 S 406.156 3.2784 -2.91661 0
M  V30 4133 H 402.974 0.451883 -0.548929 0
M  V30 4134 H 405.576 0.640404 -1.84714 0
M  V30 4135 H 404.28 1.9666 -3.60212 0
M  V30 4136 H 403.811 3.14351 -2.36531 0
M  V30 4137 H 405.826 4.40341 -2.28722 0
M  V30 4138 N 404.999 1.35443 0.805782 0
M  V30 4139 C 405.962 1.28301 1.89925 0
M  V30 4140 C 406.962 0.194285 1.59622 0
M  V30 4141 O 408.152 0.448036 1.6834 0
M  V30 4142 C 405.284 0.984997 3.2636 0
M  V30 4143 H 406.477 2.2553 1.97677 0
M  V30 4144 H 404.03 1.19979 1.00173 0
M  V30 4145 H 404.765 0.016603 3.24296 0
M  V30 4146 H 404.55 1.77269 3.4974 0
M  V30 4147 H 406.04 0.960651 4.064 0
M  V30 4148 N 406.477 -1.02803 1.19454 0
M  V30 4149 C 407.705 -1.79841 1.02297 0
M  V30 4150 C 408.12 -1.83879 -0.428259 0
M  V30 4151 O 407.477 -1.28345 -1.29745 0
M  V30 4152 C 407.528 -3.24852 1.58598 0
M  V30 4153 O 407.249 -3.21097 2.98041 0
M  V30 4154 C 408.75 -4.18485 1.46236 0
M  V30 4155 H 405.97 -0.565936 0.360496 0
M  V30 4156 H 408.514 -1.2948 1.58288 0
M  V30 4157 H 406.669 -3.72401 1.06753 0
M  V30 4158 H 407.083 -4.12033 3.24545 0
M  V30 4159 H 408.557 -5.18121 1.90407 0
M  V30 4160 H 409.034 -4.37254 0.41301 0
M  V30 4161 H 409.64 -3.76811 1.97215 0
M  V30 4162 N 407.956 -0.998596 -1.21925 0
M  V30 4163 C 408.886 -0.573688 -2.26343 0
M  V30 4164 C 409.867 0.402296 -1.65274 0
M  V30 4165 O 411.052 0.291683 -1.91997 0
M  V30 4166 C 408.182 0.106839 -3.47136 0
M  V30 4167 C 407.136 -0.788269 -4.20678 0
M  V30 4168 C 406.462 0.0254927 -5.34694 0
M  V30 4169 C 407.762 -2.08784 -4.78755 0
M  V30 4170 H 409.456 -1.44651 -2.62138 0
M  V30 4171 H 407.002 -0.696975 -1.26009 0
M  V30 4172 H 408.955 0.415531 -4.19346 0
M  V30 4173 H 407.679 1.01424 -3.10452 0
M  V30 4174 H 406.338 -1.08069 -3.50309 0
M  V30 4175 H 405.986 0.933989 -4.94253 0
M  V30 4176 H 405.686 -0.570437 -5.84825 0
M  V30 4177 H 407.21 0.328147 -6.09718 0
M  V30 4178 H 408.624 -1.84272 -5.42878 0
M  V30 4179 H 407.021 -2.63307 -5.39249 0
M  V30 4180 H 408.091 -2.76284 -3.98491 0
M  V30 4181 N 409.434 1.37368 -0.772513 0
M  V30 4182 C 410.68 1.99969 -0.337681 0
M  V30 4183 C 411.013 1.61184 1.08321 0
M  V30 4184 O 410.288 0.858395 1.74533 0
M  V30 4185 C 410.571 3.56858 -0.482121 0
M  V30 4186 C 410.424 4.0555 -1.94549 0
M  V30 4187 C 411.743 4.39955 0.113143 0
M  V30 4188 H 408.862 0.726464 -0.124171 0
M  V30 4189 H 411.504 1.63034 -0.975699 0
M  V30 4190 H 409.654 3.88452 0.0610361 0
M  V30 4191 H 411.326 3.84518 -2.54841 0
M  V30 4192 H 409.569 3.57715 -2.45403 0
M  V30 4193 H 410.24 5.14587 -1.9976 0
M  V30 4194 H 412.716 4.14623 -0.35031 0
M  V30 4195 H 411.592 5.48897 -0.0180514 0
M  V30 4196 H 411.853 4.25403 1.20354 0
M  V30 4197 N 410.912 0.523116 1.48665 0
M  V30 4198 C 411.842 -0.23231 2.32342 0
M  V30 4199 C 412.823 -0.941637 1.41659 0
M  V30 4200 O 414.008 -0.928751 1.70552 0
M  V30 4201 C 411.138 -1.28387 3.22698 0
M  V30 4202 C 410.092 -0.693098 4.22351 0
M  V30 4203 C 409.418 -1.8468 5.01794 0
M  V30 4204 C 410.718 0.33063 5.21252 0
M  V30 4205 H 412.412 0.466192 2.95748 0
M  V30 4206 H 409.958 0.225643 1.42221 0
M  V30 4207 H 411.911 -1.82024 3.80059 0
M  V30 4208 H 410.635 -2.01186 2.57278 0
M  V30 4209 H 409.294 -0.178299 3.66166 0
M  V30 4210 H 408.942 -2.56301 4.32804 0
M  V30 4211 H 408.642 -1.45747 5.69238 0
M  V30 4212 H 410.166 -2.38709 5.62006 0
M  V30 4213 H 411.58 -0.118407 5.73178 0
M  V30 4214 H 409.977 0.636974 5.9671 0
M  V30 4215 H 411.047 1.23883 4.68808 0
M  V30 4216 N 412.39 -1.55475 0.257931 0
M  V30 4217 C 413.801 -1.8511 -0.243135 0
M  V30 4218 C 414.152 -1.17986 -1.5676 0
M  V30 4219 O 413.277 -0.462102 -2.11409 0
M  V30 4220 C 413.872 -3.35826 -0.447929 0
M  V30 4221 C 412.431 -3.65647 -0.893245 0
M  V30 4222 C 411.578 -2.7729 0.0232965 0
M  V30 4223 H 414.529 -1.51261 0.480199 0
M  V30 4224 H 414.55 -3.58002 -1.28898 0
M  V30 4225 H 414.062 -3.84652 0.516196 0
M  V30 4226 H 412.163 -3.22308 -1.86945 0
M  V30 4227 H 412.276 -4.73312 -0.742469 0
M  V30 4228 H 410.64 -2.49942 -0.490021 0
M  V30 4229 H 411.423 -3.28926 0.982994 0
M  V30 4230 N 413.868 0.0150385 -1.57593 0
M  V30 4231 C 415.098 0.713359 -1.93894 0
M  V30 4232 C 415.506 1.68663 -0.857289 0
M  V30 4233 O 414.849 1.82876 0.173788 0
M  V30 4234 C 414.911 1.51348 -3.26089 0
M  V30 4235 C 414.575 0.703451 -4.51554 0
M  V30 4236 C 415.572 -0.00237924 -5.199 0
M  V30 4237 C 413.257 0.653854 -4.98026 0
M  V30 4238 C 415.251 -0.746955 -6.33008 0
M  V30 4239 C 412.938 -0.0944578 -6.11027 0
M  V30 4240 C 413.936 -0.793609 -6.78374 0
M  V30 4241 O 413.624 -1.52974 -7.89211 0
M  V30 4242 H 413.356 0.204637 -0.644282 0
M  V30 4243 H 415.91 -0.0276411 -2.05381 0
M  V30 4244 H 414.14 2.29862 -3.10967 0
M  V30 4245 H 415.829 2.09572 -3.47612 0
M  V30 4246 H 416.595 0.0268803 -4.84993 0
M  V30 4247 H 412.474 1.18756 -4.45441 0
M  V30 4248 H 416.018 -1.2932 -6.85509 0
M  V30 4249 H 411.915 -0.125591 -6.45378 0
M  V30 4250 H 412.683 -1.44488 -8.05646 0
M  V30 4251 N 415.346 1.54954 0.287554 0
M  V30 4252 C 416.592 1.75132 1.02257 0
M  V30 4253 C 416.925 0.542858 1.86458 0
M  V30 4254 O 416.2 -0.459856 1.88986 0
M  V30 4255 C 416.483 3.04812 1.91733 0
M  V30 4256 C 416.336 4.35985 1.10622 0
M  V30 4257 C 417.655 3.30438 2.90687 0
M  V30 4258 H 414.774 0.637194 0.370341 0
M  V30 4259 H 417.416 1.87678 0.296111 0
M  V30 4260 H 415.566 2.94247 2.53675 0
M  V30 4261 H 417.238 4.58487 0.508636 0
M  V30 4262 H 415.481 4.31865 0.409271 0
M  V30 4263 H 416.152 5.23017 1.76513 0
M  V30 4264 H 418.628 3.40701 2.38877 0
M  V30 4265 H 417.504 4.22467 3.50447 0
M  V30 4266 H 417.765 2.49377 3.65053 0
M  V30 4267 N 416.824 -0.551391 1.4764 0
M  V30 4268 C 417.772 -1.67896 1.60978 0
M  V30 4269 C 418.766 -1.62549 0.476877 0
M  V30 4270 O 419.972 -1.67664 0.654878 0
M  V30 4271 H 416.347 -0.555649 0.506713 0
M  V30 4272 H 418.318 -1.53784 2.55721 0
M  V30 4273 C 417.067 -3.06234 1.64669 0
M  V30 4274 H 416.39 -3.11033 2.51194 0
M  V30 4275 H 417.83 -3.84804 1.7805 0
M  V30 4276 C 416.289 -3.34737 0.381115 0
M  V30 4277 O 416.819 -3.98381 -0.515297 0
M  V30 4278 N 415.025 -2.8944 0.259354 0
M  V30 4279 H 414.572 -2.37827 0.98976 0
M  V30 4280 H 414.53 -3.08882 -0.586464 0
M  V30 4281 N 418.302 -1.35869 -0.798587 0
M  V30 4282 C 419.527 -1.32883 -1.59238 0
M  V30 4283 C 419.952 0.0894587 -1.87887 0
M  V30 4284 O 419.31 1.05869 -1.47178 0
M  V30 4285 C 419.358 -2.14892 -2.89575 0
M  V30 4286 O 418.462 -1.53512 -3.82763 0
M  V30 4287 H 417.803 -0.455236 -0.48338 0
M  V30 4288 H 420.333 -1.79024 -0.990539 0
M  V30 4289 H 420.343 -2.27139 -3.38928 0
M  V30 4290 H 419.018 -3.17998 -2.68049 0
M  V30 4291 H 417.595 -1.50153 -3.41334 0
M  V30 4292 N 419.78 1.02168 -1.19998 0
M  V30 4293 C 420.71 2.12488 -0.96804 0
M  V30 4294 C 421.691 1.69799 0.101185 0
M  V30 4295 O 422.876 1.94121 -0.0552993 0
M  V30 4296 C 420.006 3.43479 -0.513776 0
M  V30 4297 C 418.96 3.99884 -1.52566 0
M  V30 4298 C 418.286 5.26582 -0.928214 0
M  V30 4299 C 419.586 4.33861 -2.90795 0
M  V30 4300 H 421.28 2.32149 -1.89069 0
M  V30 4301 H 418.826 1.11564 -0.910468 0
M  V30 4302 H 420.779 4.20036 -0.338774 0
M  V30 4303 H 419.503 3.23561 0.444493 0
M  V30 4304 H 418.162 3.25429 -1.68794 0
M  V30 4305 H 417.81 5.02986 0.0378289 0
M  V30 4306 H 417.51 5.65284 -1.60397 0
M  V30 4307 H 419.034 6.05799 -0.764167 0
M  V30 4308 H 420.448 5.01327 -2.78109 0
M  V30 4309 H 418.845 4.83664 -3.55231 0
M  V30 4310 H 419.915 3.42848 -3.42904 0
M  V30 4311 N 421.258 1.00505 1.21394 0
M  V30 4312 C 422.483 0.706367 1.95001 0
M  V30 4313 C 422.908 -0.72463 1.73582 0
M  V30 4314 O 422.266 -1.49702 1.0227 0
M  V30 4315 C 422.314 1.03299 3.45487 0
M  V30 4316 O 421.418 0.138275 4.12168 0
M  V30 4317 H 420.759 0.263175 0.609619 0
M  V30 4318 H 423.289 1.34531 1.54151 0
M  V30 4319 H 423.299 0.979872 3.96059 0
M  V30 4320 H 421.974 2.07567 3.60401 0
M  V30 4321 H 420.551 0.247928 3.72075 0
M  V30 4322 N 422.737 -1.36956 0.779787 0
M  V30 4323 C 423.986 -1.98738 0.344405 0
M  V30 4324 C 424.299 -1.62596 -1.08728 0
M  V30 4325 O 425.505 -2.1754 -1.62445 0
M  V30 4326 C 423.961 -3.5544 0.564829 0
M  V30 4327 C 423.569 -4.00514 2.0073 0
M  V30 4328 C 425.313 -4.24059 0.193471 0
M  V30 4329 C 423.22 -5.49957 2.17489 0
M  V30 4330 H 422.15 -0.743561 0.12503 0
M  V30 4331 H 424.801 -1.56381 0.960057 0
M  V30 4332 H 423.183 -3.95817 -0.120397 0
M  V30 4333 H 424.357 -3.71362 2.72814 0
M  V30 4334 H 422.672 -3.44703 2.336 0
M  V30 4335 H 425.269 -5.33874 0.297097 0
M  V30 4336 H 425.612 -4.07378 -0.857263 0
M  V30 4337 H 426.145 -3.89012 0.831556 0
M  V30 4338 H 422.884 -5.71574 3.2091 0
M  V30 4339 H 422.404 -5.80767 1.49899 0
M  V30 4340 H 424.083 -6.16043 1.97738 0
M  V30 4341 N 424.215 -0.530993 -1.48385 0
M  V30 4342 C 425.492 0.0671788 -1.95485 0
M  V30 4343 C 425.872 1.51191 -1.47324 0
M  V30 4344 O 425.22 2.17507 -0.700202 0
M  V30 4345 C 425.43 -0.0511206 -3.48963 0
M  V30 4346 C 426.778 0.107632 -4.24464 0
M  V30 4347 O 427.802 0.0226248 -3.56193 0
M  V30 4348 O 426.661 0.285972 -5.45751 0
M  V30 4349 H 423.755 0.0787365 -0.823243 0
M  V30 4350 H 426.301 -0.595662 -1.58902 0
M  V30 4351 H 425.073 -1.05747 -3.7674 0
M  V30 4352 H 424.696 0.650525 -3.92242 0
M  V30 4353 N 425.693 1.55336 -0.266172 0
M  V30 4354 C 426.918 2.04258 0.359661 0
M  V30 4355 C 427.343 1.14359 1.49344 0
M  V30 4356 O 426.701 0.140369 1.80756 0
M  V30 4357 C 426.749 3.50997 0.826635 0
M  V30 4358 O 425.853 3.64204 1.93466 0
M  V30 4359 H 425.194 0.659668 0.075727 0
M  V30 4360 H 427.724 2.00694 -0.39786 0
M  V30 4361 H 427.734 3.9219 1.12477 0
M  V30 4362 H 426.409 4.159 -0.00293032 0
M  V30 4363 H 424.986 3.34913 1.63974 0
M  V30 4364 N 427.171 -0.0066808 1.57599 0
M  V30 4365 C 428.104 -1.03397 2.03431 0
M  V30 4366 C 429.082 -1.33872 0.922877 0
M  V30 4367 O 430.266 -1.4615 1.19048 0
M  V30 4368 C 427.393 -2.36325 2.42628 0
M  V30 4369 C 426.439 -2.21557 3.64438 0
M  V30 4370 S 427.272 -1.54789 5.12641 0
M  V30 4371 C 428.428 -2.8916 5.55101 0
M  V30 4372 H 428.661 -0.643687 2.90248 0
M  V30 4373 H 426.194 -0.217349 1.52863 0
M  V30 4374 H 428.152 -3.12759 2.65879 0
M  V30 4375 H 426.813 -2.72495 1.56222 0
M  V30 4376 H 426.006 -3.1974 3.89592 0
M  V30 4377 H 425.608 -1.53267 3.41153 0
M  V30 4378 H 427.9 -3.8547 5.57153 0
M  V30 4379 H 428.843 -2.68713 6.55133 0
M  V30 4380 H 429.251 -2.92762 4.82649 0
M  V30 4381 N 428.649 -1.55105 -0.279332 0
M  V30 4382 C 429.895 -1.75672 -1.01327 0
M  V30 4383 C 430.228 -0.552739 -1.86168 0
M  V30 4384 O 429.503 0.449827 -1.89227 0
M  V30 4385 C 429.786 -3.05825 -1.90114 0
M  V30 4386 C 429.639 -4.36565 -1.08309 0
M  V30 4387 C 430.958 -3.31975 -2.8893 0
M  V30 4388 H 428.077 -0.639149 -0.366957 0
M  V30 4389 H 430.719 -1.87833 -0.286154 0
M  V30 4390 H 428.869 -2.95588 -2.52111 0
M  V30 4391 H 430.541 -4.58751 -0.484314 0
M  V30 4392 H 428.784 -4.32076 -0.386362 0
M  V30 4393 H 429.455 -5.23946 -1.73737 0
M  V30 4394 H 431.931 -3.41963 -2.37067 0
M  V30 4395 H 430.807 -4.2432 -3.48201 0
M  V30 4396 H 431.068 -2.51309 -3.63725 0
M  V30 4397 N 430.127 0.543554 -1.4793 0
M  V30 4398 C 431.074 1.64942 -1.6144 0
M  V30 4399 C 432.044 1.59692 -0.456903 0
M  V30 4400 O 433.229 1.78321 -0.678688 0
M  V30 4401 C 430.369 3.03238 -1.64744 0
M  V30 4402 C 429.482 3.18823 -2.91506 0
M  V30 4403 C 428.617 4.47599 -2.86057 0
M  V30 4404 C 427.656 4.56664 -4.07584 0
M  V30 4405 N 426.793 5.76811 -4.00292 0
M  V30 4406 H 431.633 1.52733 -2.55884 0
M  V30 4407 H 429.17 0.7438 -1.2691 0
M  V30 4408 H 431.128 3.83339 -1.64641 0
M  V30 4409 H 429.758 3.1425 -0.738017 0
M  V30 4410 H 428.81 2.32064 -3.01414 0
M  V30 4411 H 430.122 3.21384 -3.81463 0
M  V30 4412 H 429.276 5.35975 -2.84281 0
M  V30 4413 H 428.015 4.47538 -1.93807 0
M  V30 4414 H 427.02 3.66697 -4.09651 0
M  V30 4415 H 428.245 4.58474 -5.00978 0
M  V30 4416 H 426.191 5.77673 -3.10853 0
M  V30 4417 H 426.108 5.80808 -4.8394 0
M  V30 4418 H 427.376 6.67512 -4.02553 0
M  V30 4419 N 431.605 1.3629 0.791371 0
M  V30 4420 C 432.555 1.26988 1.89362 0
M  V30 4421 C 433.539 0.161795 1.60084 0
M  V30 4422 O 434.731 0.394426 1.72549 0
M  V30 4423 C 431.86 1.05944 3.26544 0
M  V30 4424 C 430.946 2.21211 3.61838 0
M  V30 4425 N 431.337 3.46518 3.68455 0
M  V30 4426 C 429.635 2.12933 3.91887 0
M  V30 4427 C 430.336 4.2241 3.99931 0
M  V30 4428 N 429.312 3.51329 4.14812 0
M  V30 4429 H 433.114 2.21908 1.92702 0
M  V30 4430 H 430.628 1.28982 0.986787 0
M  V30 4431 H 432.625 0.973666 4.05371 0
M  V30 4432 H 431.285 0.119223 3.24481 0
M  V30 4433 H 432.296 3.80677 3.51148 0
M  V30 4434 H 428.973 1.26855 3.97761 0
M  V30 4435 H 430.363 5.30767 4.1199 0
M  V30 4436 N 433.083 -1.0153 1.20538 0
M  V30 4437 C 434.031 -2.12215 0.952235 0
M  V30 4438 C 435.025 -1.69123 -0.0968735 0
M  V30 4439 O 436.231 -1.7992 0.0536006 0
M  V30 4440 H 432.606 -0.693576 0.290613 0
M  V30 4441 H 434.577 -2.3075 1.89201 0
M  V30 4442 C 433.326 -3.43755 0.522287 0
M  V30 4443 H 432.649 -3.7734 1.32115 0
M  V30 4444 H 434.089 -4.22254 0.384389 0
M  V30 4445 C 432.548 -3.28088 -0.765489 0
M  V30 4446 O 433.078 -3.57921 -1.8236 0
M  V30 4447 N 431.284 -2.81333 -0.728011 0
M  V30 4448 H 430.831 -2.57255 0.133332 0
M  V30 4449 H 430.789 -2.71232 -1.58999 0
M  V30 4450 N 434.561 -1.01147 -1.20859 0
M  V30 4451 C 435.509 -0.57059 -2.25493 0
M  V30 4452 C 436.503 0.388109 -1.64894 0
M  V30 4453 O 437.709 0.258592 -1.78133 0
M  V30 4454 H 434.084 -0.166191 -0.733406 0
M  V30 4455 H 436.055 -1.46411 -2.60012 0
M  V30 4456 C 434.804 0.0805241 -3.47607 0
M  V30 4457 H 434.127 -0.648156 -3.94511 0
M  V30 4458 H 435.567 0.352197 -4.22535 0
M  V30 4459 C 434.026 1.32175 -3.09889 0
M  V30 4460 O 434.556 2.41553 -3.20959 0
M  V30 4461 N 432.762 1.20392 -2.64488 0
M  V30 4462 H 432.309 0.313905 -2.5568 0
M  V30 4463 H 432.267 2.03541 -2.39621 0
M  V30 4464 N 436.039 1.36541 -0.78704 0
M  V30 4465 C 437.285 2.00044 -0.367938 0
M  V30 4466 C 437.64 1.61345 1.04812 0
M  V30 4467 O 436.933 0.856936 1.71368 0
M  V30 4468 C 437.127 3.54343 -0.466485 0
M  V30 4469 C 436.956 4.08029 -1.89058 0
M  V30 4470 C 435.726 4.38284 -2.51466 0
M  V30 4471 C 437.924 4.27954 -2.85236 0
M  V30 4472 N 435.906 4.77778 -3.85488 0
M  V30 4473 C 437.277 4.70227 -4.04088 0
M  V30 4474 C 439.332 4.10119 -2.82324 0
M  V30 4475 C 438.035 4.96532 -5.20432 0
M  V30 4476 C 440.061 4.37569 -3.97854 0
M  V30 4477 C 439.423 4.80095 -5.15449 0
M  V30 4478 H 435.522 0.760525 -0.182004 0
M  V30 4479 H 438.106 1.65589 -1.02413 0
M  V30 4480 H 436.277 3.88072 0.159606 0
M  V30 4481 H 438.009 4.04693 -0.0238577 0
M  V30 4482 H 434.764 4.27905 -2.02965 0
M  V30 4483 H 435.188 5.01813 -4.54437 0
M  V30 4484 H 439.83 3.76399 -1.92571 0
M  V30 4485 H 437.548 5.29134 -6.10773 0
M  V30 4486 H 441.134 4.25341 -3.96958 0
M  V30 4487 H 440.014 5.00925 -6.0336 0
M  V30 4488 N 437.518 0.538854 1.48102 0
M  V30 4489 C 438.766 0.00798599 2.02098 0
M  V30 4490 C 439.087 -1.33922 1.41739 0
M  V30 4491 O 438.357 -1.86932 0.585934 0
M  V30 4492 H 436.937 -3.62179e-05 0.747 0
M  V30 4493 H 439.599 0.7047 1.81714 0
M  V30 4494 H 438.695 -0.0937672 3.11959 0
M  V30 4495 N 438.996 -1.55193 0.274407 0
M  V30 4496 C 440.245 -1.98758 -0.343213 0
M  V30 4497 C 440.558 -1.16624 -1.5703 0
M  V30 4498 O 441.764 -1.5033 -2.26082 0
M  V30 4499 C 440.22 -3.53759 -0.661996 0
M  V30 4500 C 439.828 -4.4467 0.54524 0
M  V30 4501 C 441.572 -4.05916 -1.24228 0
M  V30 4502 C 439.479 -5.91058 0.201084 0
M  V30 4503 H 438.409 -0.742353 -0.132014 0
M  V30 4504 H 441.06 -1.79545 0.378948 0
M  V30 4505 H 439.442 -3.68772 -1.44304 0
M  V30 4506 H 440.616 -4.41426 1.32212 0
M  V30 4507 H 438.931 -4.03143 1.04232 0
M  V30 4508 H 441.528 -5.12831 -1.51357 0
M  V30 4509 H 441.871 -3.54908 -2.17592 0
M  V30 4510 H 442.404 -3.9434 -0.523542 0
M  V30 4511 H 439.143 -6.46161 1.10258 0
M  V30 4512 H 438.663 -5.97373 -0.539045 0
M  V30 4513 H 440.342 -6.46669 -0.206954 0
M  V30 4514 N 440.474 -0.00167713 -1.576 0
M  V30 4515 C 441.437 0.974046 -2.07473 0
M  V30 4516 C 442.437 1.27143 -0.984444 0
M  V30 4517 O 443.627 1.21633 -1.24703 0
M  V30 4518 C 440.759 2.29849 -2.51759 0
M  V30 4519 H 441.952 0.54262 -2.9495 0
M  V30 4520 H 439.505 0.245829 -1.54355 0
M  V30 4521 H 440.24 2.77677 -1.67529 0
M  V30 4522 H 440.025 2.09584 -3.31386 0
M  V30 4523 H 441.515 2.9984 -2.90664 0
M  V30 4524 N 441.952 1.55251 0.271103 0
M  V30 4525 C 443.201 1.75151 1.00025 0
M  V30 4526 C 443.514 0.561041 1.87381 0
M  V30 4527 O 444.72 0.642506 2.63788 0
M  V30 4528 C 443.176 3.09999 1.82835 0
M  V30 4529 C 442.784 4.3662 1.00336 0
M  V30 4530 C 444.528 3.39249 2.55168 0
M  V30 4531 C 442.435 5.62506 1.82595 0
M  V30 4532 H 441.365 0.652877 0.377183 0
M  V30 4533 H 444.016 1.81708 0.255843 0
M  V30 4534 H 442.398 2.97485 2.61378 0
M  V30 4535 H 443.572 4.60055 0.261959 0
M  V30 4536 H 441.887 4.14527 0.394486 0
M  V30 4537 H 444.484 4.3051 3.1712 0
M  V30 4538 H 444.827 2.59467 3.2555 0
M  V30 4539 H 445.36 3.52869 1.83653 0
M  V30 4540 H 442.099 6.45041 1.16631 0
M  V30 4541 H 441.619 5.43211 2.54327 0
M  V30 4542 H 443.298 6.00875 2.39913 0
M  V30 4543 N 443.43 -0.535701 1.48216 0
M  V30 4544 C 444.36 -1.65014 1.65204 0
M  V30 4545 C 445.341 -1.62554 0.501011 0
M  V30 4546 O 446.526 -1.7984 0.732886 0
M  V30 4547 C 443.656 -3.03616 1.68626 0
M  V30 4548 C 442.61 -3.20932 2.83172 0
M  V30 4549 C 441.936 -4.60537 2.71679 0
M  V30 4550 C 443.236 -3.04249 4.24535 0
M  V30 4551 H 444.93 -1.51053 2.58502 0
M  V30 4552 H 442.476 -0.725262 1.24402 0
M  V30 4553 H 444.429 -3.81446 1.79099 0
M  V30 4554 H 443.153 -3.18587 0.719026 0
M  V30 4555 H 441.812 -2.45517 2.72244 0
M  V30 4556 H 441.46 -4.72336 1.72937 0
M  V30 4557 H 441.16 -4.73069 3.48538 0
M  V30 4558 H 442.684 -5.40475 2.84112 0
M  V30 4559 H 444.098 -3.71877 4.36326 0
M  V30 4560 H 442.495 -3.28278 5.02348 0
M  V30 4561 H 443.565 -2.00739 4.41397 0
M  V30 4562 N 444.908 -1.36708 -0.784132 0
M  V30 4563 C 446.319 -1.27947 -1.35965 0
M  V30 4564 C 446.67 0.0784013 -1.96043 0
M  V30 4565 O 445.795 0.979989 -1.92938 0
M  V30 4566 C 446.39 -2.31689 -2.47195 0
M  V30 4567 C 444.949 -2.26601 -3.00548 0
M  V30 4568 C 444.096 -2.16184 -1.73666 0
M  V30 4569 H 447.047 -1.4751 -0.585358 0
M  V30 4570 H 447.068 -1.95638 -3.26352 0
M  V30 4571 H 446.58 -3.30506 -2.03439 0
M  V30 4572 H 444.681 -1.31268 -3.48711 0
M  V30 4573 H 444.794 -3.19508 -3.57004 0
M  V30 4574 H 443.158 -1.62524 -1.96107 0
M  V30 4575 H 443.941 -3.16896 -1.32031 0
M  V30 4576 N 446.386 1.0089 -1.21074 0
M  V30 4577 C 447.316 2.1145 -0.990523 0
M  V30 4578 C 448.297 1.69897 0.0831699 0
M  V30 4579 O 449.482 1.94052 -0.0758853 0
M  V30 4580 C 446.612 3.42914 -0.550177 0
M  V30 4581 C 445.566 3.98244 -1.56799 0
M  V30 4582 C 444.892 5.25568 -0.984013 0
M  V30 4583 C 446.192 4.30752 -2.95381 0
M  V30 4584 H 447.886 2.3013 -1.91521 0
M  V30 4585 H 445.432 1.10592 -0.92225 0
M  V30 4586 H 447.385 4.19653 -0.383305 0
M  V30 4587 H 446.109 3.24014 0.41015 0
M  V30 4588 H 444.768 3.23621 -1.72236 0
M  V30 4589 H 444.416 5.02998 -0.0155216 0
M  V30 4590 H 444.116 5.63551 -1.66384 0
M  V30 4591 H 445.64 6.04955 -0.828378 0
M  V30 4592 H 447.054 4.98349 -2.8341 0
M  V30 4593 H 445.451 4.79869 -3.60341 0
M  V30 4594 H 446.521 3.39192 -3.46521 0
M  V30 4595 N 447.864 1.01787 1.20321 0
M  V30 4596 C 448.827 0.593972 2.2137 0
M  V30 4597 C 449.827 -0.336553 1.57239 0
M  V30 4598 O 451.017 -0.125069 1.7375 0
M  V30 4599 C 448.149 -0.132433 3.40643 0
M  V30 4600 H 449.342 1.48791 2.60387 0
M  V30 4601 H 446.895 0.807803 1.33807 0
M  V30 4602 H 447.63 -1.04123 3.0713 0
M  V30 4603 H 447.415 0.53605 3.88418 0
M  V30 4604 H 448.905 -0.416314 4.1552 0
M  V30 4605 N 449.342 -1.36122 0.79427 0
M  V30 4606 C 450.753 -1.81646 0.431446 0
M  V30 4607 C 451.104 -1.66043 -1.04518 0
M  V30 4608 O 450.229 -1.1841 -1.8113 0
M  V30 4609 C 450.824 -3.29785 0.776341 0
M  V30 4610 C 449.383 -3.73501 0.466282 0
M  V30 4611 C 448.53 -2.58313 1.00844 0
M  V30 4612 H 451.481 -1.24274 0.986995 0
M  V30 4613 H 451.502 -3.80437 0.0692413 0
M  V30 4614 H 451.014 -3.4111 1.8511 0
M  V30 4615 H 449.115 -3.67733 -0.600245 0
M  V30 4616 H 449.228 -4.68754 0.990288 0
M  V30 4617 H 447.592 -2.5102 0.431406 0
M  V30 4618 H 448.375 -2.72421 2.08906 0
M  V30 4619 N 450.82 -0.546701 -1.47814 0
M  V30 4620 C 451.75 0.195317 -2.32682 0
M  V30 4621 C 452.731 0.918981 -1.43139 0
M  V30 4622 O 453.916 0.901501 -1.72008 0
M  V30 4623 C 451.046 1.23237 -3.247 0
M  V30 4624 C 450 0.625818 -4.234 0
M  V30 4625 C 449.326 1.76674 -5.04669 0
M  V30 4626 C 450.626 -0.413515 -5.2066 0
M  V30 4627 H 452.32 -0.513184 -2.94969 0
M  V30 4628 H 449.866 -0.248241 -1.41844 0
M  V30 4629 H 451.819 1.75955 -3.82907 0
M  V30 4630 H 450.543 1.97067 -2.60446 0
M  V30 4631 H 449.202 0.120023 -3.66403 0
M  V30 4632 H 448.85 2.49383 -4.36826 0
M  V30 4633 H 448.55 1.36673 -5.71484 0
M  V30 4634 H 450.074 2.29738 -5.65732 0
M  V30 4635 H 451.488 0.0272042 -5.73294 0
M  V30 4636 H 449.885 -0.731825 -5.95621 0
M  V30 4637 H 450.955 -1.31325 -4.66778 0
M  V30 4638 N 452.299 1.55045 -0.282633 0
M  V30 4639 C 453.247 2.24254 0.617478 0
M  V30 4640 C 454.241 1.24215 1.15183 0
M  V30 4641 O 455.447 1.42123 1.10459 0
M  V30 4642 H 451.822 0.719801 0.217693 0
M  V30 4643 H 453.793 2.98398 0.0110076 0
M  V30 4644 C 452.542 2.98281 1.78672 0
M  V30 4645 H 451.865 3.75053 1.38475 0
M  V30 4646 H 453.305 3.50017 2.393 0
M  V30 4647 C 451.764 2.04184 2.67975 0
M  V30 4648 O 452.294 1.59792 3.6855 0
M  V30 4649 N 450.5 1.70526 2.35307 0
M  V30 4650 H 450.047 2.06821 1.53567 0
M  V30 4651 H 450.005 1.07839 2.95327 0
M  V30 4652 N 453.777 0.010035 1.57597 0
M  V30 4653 C 455.024 -0.6727 1.91 0
M  V30 4654 C 455.352 -1.73219 0.884614 0
M  V30 4655 O 454.607 -1.95395 -0.109215 0
M  V30 4656 C 454.906 -1.34434 3.31153 0
M  V30 4657 C 454.572 -0.417083 4.48967 0
M  V30 4658 C 453.234 -0.161809 4.80928 0
M  V30 4659 C 455.586 0.220753 5.20732 0
M  V30 4660 C 452.914 0.739426 5.82022 0
M  V30 4661 C 455.266 1.10993 6.22787 0
M  V30 4662 C 453.93 1.37428 6.532 0
M  V30 4663 H 453.2 -0.246158 0.698918 0
M  V30 4664 H 455.847 0.0677145 1.9138 0
M  V30 4665 H 454.152 -2.15905 3.26944 0
M  V30 4666 H 455.849 -1.87883 3.54261 0
M  V30 4667 H 452.439 -0.626217 4.24001 0
M  V30 4668 H 456.623 0.0365643 4.96287 0
M  V30 4669 H 451.879 0.952139 6.03941 0
M  V30 4670 H 456.053 1.61046 6.77523 0
M  V30 4671 H 453.68 2.0743 7.31353 0
M  V30 4672 N 455.255 -1.55392 -0.262866 0
M  V30 4673 C 456.218 -1.88181 -1.30846 0
M  V30 4674 C 457.218 -0.757079 -1.41862 0
M  V30 4675 O 458.408 -1.02519 -1.40838 0
M  V30 4676 C 455.54 -2.09609 -2.68844 0
M  V30 4677 H 456.733 -2.81659 -1.02997 0
M  V30 4678 H 454.286 -1.48039 -0.501414 0
M  V30 4679 H 455.021 -1.18547 -3.01856 0
M  V30 4680 H 454.806 -2.91508 -2.62231 0
M  V30 4681 H 456.296 -2.36215 -3.44372 0
M  V30 4682 N 456.733 0.527833 -1.48498 0
M  V30 4683 C 457.958 1.313 -1.60546 0
M  V30 4684 C 458.383 1.86199 -0.26672 0
M  V30 4685 O 457.741 1.64513 0.761918 0
M  V30 4686 C 457.789 2.43818 -2.65678 0
M  V30 4687 O 456.893 3.46916 -2.22987 0
M  V30 4688 H 456.234 0.388784 -0.538277 0
M  V30 4689 H 458.764 0.634896 -1.945 0
M  V30 4690 H 458.774 2.89973 -2.87018 0
M  V30 4691 H 457.449 2.03222 -3.62869 0
M  V30 4692 H 456.026 3.06864 -2.11869 0
M  V30 4693 N 458.211 1.37122 0.776871 0
M  V30 4694 C 459.121 1.34651 1.9211 0
M  V30 4695 C 460.137 0.246824 1.7224 0
M  V30 4696 O 461.313 0.48134 1.95563 0
M  V30 4697 C 458.378 1.14748 3.2716 0
M  V30 4698 C 457.439 2.34308 3.5972 0
M  V30 4699 C 456.672 2.15345 4.88326 0
M  V30 4700 O 456.895 1.13507 5.58992 0
M  V30 4701 O 455.829 3.03414 5.1983 0
M  V30 4702 H 459.655 2.31013 1.97146 0
M  V30 4703 H 457.24 1.17799 0.918901 0
M  V30 4704 H 459.122 1.05616 4.0795 0
M  V30 4705 H 457.797 0.214562 3.22988 0
M  V30 4706 H 456.704 2.49011 2.79185 0
M  V30 4707 H 458.037 3.26149 3.68629 0
M  V30 4708 N 459.689 -1.00246 1.21608 0
M  V30 4709 C 460.914 -1.78167 1.06167 0
M  V30 4710 C 461.339 -1.84138 -0.384035 0
M  V30 4711 O 460.697 -1.28683 -1.27712 0
M  V30 4712 C 460.745 -3.19786 1.66642 0
M  V30 4713 O 459.849 -4.02153 0.913613 0
M  V30 4714 H 459.19 -0.549 0.37349 0
M  V30 4715 H 461.72 -1.25994 1.61204 0
M  V30 4716 H 461.73 -3.70451 1.70969 0
M  V30 4717 H 460.405 -3.14754 2.7185 0
M  V30 4718 H 458.982 -3.60711 0.945635 0
M  V30 4719 N 461.167 -1.02423 -1.1978 0
M  V30 4720 C 462.392 -0.7373 -1.93852 0
M  V30 4721 C 462.817 0.696923 -1.74713 0
M  V30 4722 O 462.175 1.48056 -1.04638 0
M  V30 4723 C 462.223 -1.08783 -3.438 0
M  V30 4724 O 461.327 -0.20383 -4.11896 0
M  V30 4725 H 460.668 -0.27284 -0.605355 0
M  V30 4726 H 463.198 -1.36966 -1.51992 0
M  V30 4727 H 463.208 -1.04276 -3.9445 0
M  V30 4728 H 461.883 -2.13274 -3.57053 0
M  V30 4729 H 460.46 -0.307091 -3.71633 0
M  V30 4730 N 462.645 1.35699 -0.801477 0
M  V30 4731 C 464.056 1.81415 -0.441073 0
M  V30 4732 C 464.407 1.66595 1.03636 0
M  V30 4733 O 463.532 1.19369 1.80499 0
M  V30 4734 C 464.127 3.29369 -0.793819 0
M  V30 4735 C 462.686 3.73248 -0.486083 0
M  V30 4736 C 461.833 2.57775 -1.02213 0
M  V30 4737 H 464.784 1.23749 -0.993572 0
M  V30 4738 H 464.805 3.80395 -0.0894158 0
M  V30 4739 H 464.317 3.40123 -1.86917 0
M  V30 4740 H 462.418 3.68046 0.580735 0
M  V30 4741 H 462.531 4.68222 -1.01513 0
M  V30 4742 H 460.895 2.50788 -0.444712 0
M  V30 4743 H 461.678 2.71309 -2.10348 0
M  V30 4744 N 464.123 0.554532 1.47522 0
M  V30 4745 C 465.033 -0.197865 2.33764 0
M  V30 4746 C 466.049 -0.914576 1.48025 0
M  V30 4747 O 467.225 -0.884067 1.80959 0
M  V30 4748 C 464.29 -1.21628 3.24665 0
M  V30 4749 C 463.351 -0.507283 4.26292 0
M  V30 4750 C 462.584 -1.47718 5.1285 0
M  V30 4751 O 462.807 -2.7118 5.01814 0
M  V30 4752 O 461.741 -1.00313 5.93482 0
M  V30 4753 H 465.567 0.50949 2.99396 0
M  V30 4754 H 463.152 0.315176 1.46038 0
M  V30 4755 H 465.034 -1.80421 3.80823 0
M  V30 4756 H 463.709 -1.9056 2.61665 0
M  V30 4757 H 462.616 0.121778 3.73902 0
M  V30 4758 H 463.949 0.140544 4.91999 0
M  V30 4759 N 465.601 -1.54893 0.290851 0
M  V30 4760 C 466.85 -1.99111 -0.322113 0
M  V30 4761 C 467.163 -1.18283 -1.55784 0
M  V30 4762 O 468.369 -1.5272 -2.24475 0
M  V30 4763 C 466.825 -3.54442 -0.624438 0
M  V30 4764 C 466.433 -4.44066 0.592373 0
M  V30 4765 C 468.177 -4.07211 -1.19916 0
M  V30 4766 C 466.084 -5.90812 0.263762 0
M  V30 4767 H 465.014 -0.743712 -0.124133 0
M  V30 4768 H 467.665 -1.79132 0.39797 0
M  V30 4769 H 466.047 -3.70281 -1.40384 0
M  V30 4770 H 467.221 -4.39999 1.36886 0
M  V30 4771 H 465.536 -4.02015 1.08502 0
M  V30 4772 H 468.133 -5.14407 -1.45909 0
M  V30 4773 H 468.476 -3.57196 -2.13815 0
M  V30 4774 H 469.009 -3.94873 -0.481687 0
M  V30 4775 H 465.748 -6.44955 1.17105 0
M  V30 4776 H 465.268 -5.97911 -0.475655 0
M  V30 4777 H 466.947 -6.46852 -0.138354 0
M  V30 4778 N 467.08 -0.0183926 -1.57589 0
M  V30 4779 C 468.491 0.521927 -1.79256 0
M  V30 4780 C 468.842 1.72885 -0.927636 0
M  V30 4781 O 467.967 2.15978 -0.135091 0
M  V30 4782 C 468.562 0.953632 -3.25102 0
M  V30 4783 C 467.121 1.43913 -3.47801 0
M  V30 4784 C 466.268 0.398837 -2.74417 0
M  V30 4785 H 469.219 -0.244485 -1.56805 0
M  V30 4786 H 469.24 1.81863 -3.34224 0
M  V30 4787 H 468.752 0.0750123 -3.88028 0
M  V30 4788 H 466.853 2.33804 -2.90115 0
M  V30 4789 H 466.966 1.45391 -4.56507 0
M  V30 4790 H 465.33 0.864572 -2.39577 0
M  V30 4791 H 466.113 -0.471132 -3.40052 0
M  V30 4792 N 468.558 1.5553 0.254621 0
M  V30 4793 C 469.807 1.76202 0.981612 0
M  V30 4794 C 470.12 0.580883 1.86776 0
M  V30 4795 O 471.326 0.670448 2.63092 0
M  V30 4796 C 469.782 3.11921 1.79537 0
M  V30 4797 C 469.39 4.37659 0.956991 0
M  V30 4798 C 471.134 3.41936 2.51555 0
M  V30 4799 C 469.041 5.64411 1.76619 0
M  V30 4800 H 467.971 0.656841 0.370237 0
M  V30 4801 H 470.622 1.81969 0.236556 0
M  V30 4802 H 469.004 3.00241 2.58208 0
M  V30 4803 H 470.178 4.60307 0.21315 0
M  V30 4804 H 468.493 4.14922 0.350497 0
M  V30 4805 H 471.09 4.33849 3.12536 0
M  V30 4806 H 471.433 2.62905 3.22779 0
M  V30 4807 H 471.966 3.54797 1.799 0
M  V30 4808 H 468.705 6.46241 1.09783 0
M  V30 4809 H 468.225 5.45877 2.48551 0
M  V30 4810 H 469.904 6.03386 2.33527 0
M  V30 4811 N 470.036 -0.519951 1.48776 0
M  V30 4812 C 471.264 -1.29971 1.60982 0
M  V30 4813 C 471.679 -1.86803 0.273885 0
M  V30 4814 O 471.036 -1.66904 -0.738193 0
M  V30 4815 C 471.087 -2.44346 2.66415 0
M  V30 4816 O 470.808 -1.89855 3.94825 0
M  V30 4817 C 472.309 -3.36014 2.89153 0
M  V30 4818 H 469.529 -0.394891 0.542496 0
M  V30 4819 H 472.073 -0.626214 1.94676 0
M  V30 4820 H 470.228 -3.07562 2.35552 0
M  V30 4821 H 470.642 -2.64798 4.5275 0
M  V30 4822 H 472.116 -4.12593 3.66703 0
M  V30 4823 H 472.593 -3.91859 1.98351 0
M  V30 4824 H 473.199 -2.78582 3.21359 0
M  V30 4825 N 471.514 -1.37532 -0.769588 0
M  V30 4826 C 472.444 -1.36172 -1.89682 0
M  V30 4827 C 473.425 -0.23001 -1.68538 0
M  V30 4828 O 474.61 -0.43069 -1.89364 0
M  V30 4829 C 471.74 -1.1701 -3.26995 0
M  V30 4830 C 470.694 -2.27216 -3.62708 0
M  V30 4831 C 470.02 -1.93174 -4.98586 0
M  V30 4832 C 471.32 -3.6941 -3.69234 0
M  V30 4833 H 473.014 -2.30499 -1.91078 0
M  V30 4834 H 470.56 -1.10953 -0.917902 0
M  V30 4835 H 472.513 -1.14688 -4.05493 0
M  V30 4836 H 471.237 -0.191395 -3.26039 0
M  V30 4837 H 469.896 -2.28697 -2.86519 0
M  V30 4838 H 469.544 -0.938281 -4.94171 0
M  V30 4839 H 469.244 -2.66973 -5.23449 0
M  V30 4840 H 470.768 -1.92443 -5.79481 0
M  V30 4841 H 472.182 -3.70047 -4.37879 0
M  V30 4842 H 470.579 -4.4228 -4.05597 0
M  V30 4843 H 471.649 -4.0288 -2.69844 0
M  V30 4844 N 472.992 0.995999 -1.22138 0
M  V30 4845 C 474.22 1.77066 -1.07029 0
M  V30 4846 C 474.635 1.8495 0.379357 0
M  V30 4847 O 473.992 1.3174 1.26297 0
M  V30 4848 C 474.043 3.20533 -1.67155 0
M  V30 4849 O 473.764 3.13082 -3.06449 0
M  V30 4850 C 475.265 4.14461 -1.5728 0
M  V30 4851 H 472.485 0.556179 -0.375374 0
M  V30 4852 H 475.029 1.25238 -1.61666 0
M  V30 4853 H 473.184 3.6944 -1.16589 0
M  V30 4854 H 473.598 4.03283 -3.35355 0
M  V30 4855 H 475.072 5.1289 -2.04078 0
M  V30 4856 H 475.549 4.36005 -0.528795 0
M  V30 4857 H 476.155 3.71449 -2.07136 0
M  V30 4858 N 474.47 1.03057 1.19235 0
M  V30 4859 C 475.719 0.72326 1.88287 0
M  V30 4860 C 476.032 -0.751333 1.80594 0
M  V30 4861 O 477.238 -1.17176 2.44912 0
M  V30 4862 C 475.694 1.24338 3.3774 0
M  V30 4863 C 475.302 2.74587 3.53986 0
M  V30 4864 C 477.046 1.01213 4.12257 0
M  V30 4865 C 474.953 3.20009 4.97341 0
M  V30 4866 H 473.883 0.266848 0.705201 0
M  V30 4867 H 476.534 1.24509 1.34795 0
M  V30 4868 H 474.916 0.649457 3.90638 0
M  V30 4869 H 476.09 3.39649 3.11408 0
M  V30 4870 H 474.405 2.9601 2.9286 0
M  V30 4871 H 477.002 1.32675 5.17978 0
M  V30 4872 H 477.345 -0.051001 4.16269 0
M  V30 4873 H 477.878 1.57014 3.65501 0
M  V30 4874 H 474.617 4.25659 4.98493 0
M  V30 4875 H 474.137 2.59676 5.40674 0
M  V30 4876 H 475.816 3.13447 5.66003 0
M  V30 4877 N 475.948 -1.35272 0.808662 0
M  V30 4878 C 476.911 -2.28082 0.226093 0
M  V30 4879 C 477.911 -1.49673 -0.587762 0
M  V30 4880 O 479.101 -1.69404 -0.405943 0
M  V30 4881 C 476.233 -3.33955 -0.684596 0
M  V30 4882 H 477.426 -2.81116 1.04469 0
M  V30 4883 H 474.979 -1.45162 0.579466 0
M  V30 4884 H 475.714 -2.86111 -1.5268 0
M  V30 4885 H 475.499 -3.91965 -0.102699 0
M  V30 4886 H 476.989 -4.03219 -1.08646 0
M  V30 4887 N 477.426 -0.562348 -1.47226 0
M  V30 4888 C 478.837 -0.130325 -1.86245 0
M  V30 4889 C 479.188 1.30128 -1.46838 0
M  V30 4890 O 478.313 1.97974 -0.873805 0
M  V30 4891 C 478.908 -0.229738 -3.3802 0
M  V30 4892 C 477.467 0.14728 -3.76112 0
M  V30 4893 C 476.614 -0.574971 -2.71274 0
M  V30 4894 H 479.565 -0.771773 -1.3867 0
M  V30 4895 H 479.586 0.550316 -3.76499 0
M  V30 4896 H 479.098 -1.27178 -3.66671 0
M  V30 4897 H 477.199 1.19023 -3.53078 0
M  V30 4898 H 477.312 -0.214858 -4.78618 0
M  V30 4899 H 475.676 -0.0174756 -2.54694 0
M  V30 4900 H 476.459 -1.61827 -3.02766 0
M  V30 4901 N 478.904 1.54736 -0.299062 0
M  V30 4902 C 479.837 2.1962 0.619851 0
M  V30 4903 C 480.815 1.16496 1.13434 0
M  V30 4904 O 481.999 1.4513 1.2029 0
M  V30 4905 C 479.126 2.8385 1.84788 0
M  V30 4906 C 478.172 4.00484 1.46679 0
M  V30 4907 S 479.005 5.32926 0.524389 0
M  V30 4908 C 480.161 6.00638 1.76026 0
M  V30 4909 H 480.394 2.97221 0.0686177 0
M  V30 4910 H 477.927 1.54176 -0.0832085 0
M  V30 4911 H 479.885 3.21483 2.55263 0
M  V30 4912 H 478.546 2.06099 2.37028 0
M  V30 4913 H 477.739 4.44201 2.38121 0
M  V30 4914 H 477.341 3.64398 0.842008 0
M  V30 4915 H 479.633 6.21327 2.70109 0
M  V30 4916 H 480.576 6.94805 1.36569 0
M  V30 4917 H 480.984 5.3026 1.93609 0
M  V30 4918 N 480.382 0.0267497 1.57577 0
M  V30 4919 C 481.622 -0.65659 1.93567 0
M  V30 4920 C 481.986 -1.69429 0.903213 0
M  V30 4921 O 483.187 -2.42994 1.14923 0
M  V30 4922 C 481.458 -1.25912 3.34486 0
M  V30 4923 S 483.017 -1.96386 3.924 0
M  V30 4924 H 479.835 -0.216237 0.67732 0
M  V30 4925 H 482.437 0.0898475 1.95293 0
M  V30 4926 H 481.141 -0.491405 4.07447 0
M  V30 4927 H 480.672 -2.04291 3.36198 0
M  V30 4928 H 482.687 -3.24202 3.75643 0
M  V30 4929 N 481.861 -1.55662 -0.24637 0
M  V30 4930 C 483.101 -1.79283 -0.981685 0
M  V30 4931 C 483.465 -0.596356 -1.82504 0
M  V30 4932 O 484.666 -0.711342 -2.59217 0
M  V30 4933 C 482.937 -3.07648 -1.819 0
M  V30 4934 S 484.496 -3.52491 -2.61334 0
M  V30 4935 H 481.314 -0.629676 -0.330196 0
M  V30 4936 H 483.916 -1.93901 -0.249498 0
M  V30 4937 H 482.62 -3.92794 -1.18915 0
M  V30 4938 H 482.151 -2.95768 -2.59393 0
M  V30 4939 H 484.166 -3.13866 -3.84321 0
M  V30 4940 N 483.339 0.512053 -1.4905 0
M  V30 4941 C 484.249 1.64139 -1.67617 0
M  V30 4942 C 485.265 1.64786 -0.558701 0
M  V30 4943 O 486.441 1.8341 -0.832034 0
M  V30 4944 C 483.506 3.00548 -1.72835 0
M  V30 4945 C 482.567 3.10615 -2.96339 0
M  V30 4946 C 481.8 4.40517 -3.01298 0
M  V30 4947 O 482.023 5.28671 -2.14157 0
M  V30 4948 O 480.957 4.55325 -3.93653 0
M  V30 4949 H 484.783 1.51407 -2.63267 0
M  V30 4950 H 482.368 0.687131 -1.32661 0
M  V30 4951 H 484.25 3.81641 -1.78683 0
M  V30 4952 H 482.925 3.13566 -0.803616 0
M  V30 4953 H 481.832 2.2875 -2.96014 0
M  V30 4954 H 483.165 3.0252 -3.88256 0
M  V30 4955 N 484.817 1.37938 0.762283 0
M  V30 4956 C 486.064 1.33668 1.52115 0
M  V30 4957 C 486.392 -0.0759538 1.94352 0
M  V30 4958 O 485.647 -1.05121 1.6507 0
M  V30 4959 C 485.946 2.23042 2.79261 0
M  V30 4960 C 485.612 3.71159 2.56031 0
M  V30 4961 C 484.274 4.11523 2.49404 0
M  V30 4962 C 486.626 4.64955 2.35513 0
M  V30 4963 C 483.954 5.43784 2.20263 0
M  V30 4964 C 486.306 5.97464 2.07894 0
M  V30 4965 C 484.97 6.36922 1.99718 0
M  V30 4966 H 484.24 0.489127 0.556629 0
M  V30 4967 H 486.887 1.70224 0.877262 0
M  V30 4968 H 485.192 1.79512 3.48256 0
M  V30 4969 H 486.889 2.17047 3.37182 0
M  V30 4970 H 483.479 3.39153 2.62056 0
M  V30 4971 H 487.663 4.34623 2.39617 0
M  V30 4972 H 482.919 5.73307 2.12435 0
M  V30 4973 H 487.093 6.6969 1.91019 0
M  V30 4974 H 484.72 7.39331 1.76902 0
M  V30 4975 N 486.295 -0.989507 1.22664 0
M  V30 4976 C 487.243 -2.10148 0.997035 0
M  V30 4977 C 488.237 -1.6929 -0.0609783 0
M  V30 4978 O 489.443 -1.79766 0.0917523 0
M  V30 4979 H 485.818 -0.687256 0.305259 0
M  V30 4980 H 487.789 -2.26685 1.94053 0
M  V30 4981 C 486.538 -3.4257 0.595085 0
M  V30 4982 H 485.861 -3.74453 1.40089 0
M  V30 4983 H 487.301 -4.21344 0.473869 0
M  V30 4984 C 485.76 -3.29638 -0.695725 0
M  V30 4985 O 486.29 -3.61709 -1.74727 0
M  V30 4986 N 484.496 -2.82814 -0.668173 0
M  V30 4987 H 484.043 -2.56914 0.18787 0
M  V30 4988 H 484.001 -2.74544 -1.5321 0
M  V30 4989 N 487.773 -1.03688 -1.18687 0
M  V30 4990 C 489.021 -0.736572 -1.88199 0
M  V30 4991 C 489.342 0.737665 -1.80509 0
M  V30 4992 O 488.612 1.53204 -1.22088 0
M  V30 4993 H 487.192 -0.269466 -0.696704 0
M  V30 4994 H 489.854 -1.31282 -1.44052 0
M  V30 4995 H 488.95 -1.03802 -2.94332 0
M  V30 4996 N 489.251 1.34841 -0.815825 0
M  V30 4997 C 490.181 2.32187 -0.247298 0
M  V30 4998 C 491.162 1.5791 0.632344 0
M  V30 4999 O 492.347 1.8593 0.560698 0
M  V30 5000 C 489.477 3.42122 0.597466 0
M  V30 5001 C 488.431 4.27602 -0.184446 0
M  V30 5002 C 487.757 5.28942 0.782609 0
M  V30 5003 C 489.057 5.03502 -1.38865 0
M  V30 5004 H 490.751 2.79985 -1.06061 0
M  V30 5005 H 488.297 1.34611 -0.511461 0
M  V30 5006 H 490.25 4.09232 1.00533 0
M  V30 5007 H 488.974 2.92956 1.44376 0
M  V30 5008 H 487.633 3.62085 -0.573592 0
M  V30 5009 H 487.281 4.7604 1.62466 0
M  V30 5010 H 486.981 5.87008 0.263695 0
M  V30 5011 H 488.505 5.98922 1.18848 0
M  V30 5012 H 489.919 5.63506 -1.05518 0
M  V30 5013 H 488.316 5.71108 -1.8427 0
M  V30 5014 H 489.386 4.33608 -2.17054 0
M  V30 5015 N 490.729 0.570148 1.46925 0
M  V30 5016 C 492.145 0.23087 1.57921 0
M  V30 5017 C 492.345 -1.26676 1.56702 0
M  V30 5018 O 491.401 -2.04774 1.47729 0
M  V30 5019 C 492.714 0.868973 2.8787 0
M  V30 5020 C 494.262 0.841397 3.01479 0
M  V30 5021 C 494.737 1.45881 4.34146 0
M  V30 5022 N 496.228 1.42258 4.40814 0
M  V30 5023 C 496.963 1.8698 5.42057 0
M  V30 5024 N 496.459 2.39618 6.50042 0
M  V30 5025 N 498.252 1.77972 5.33181 0
M  V30 5026 H 490.403 1.54301 1.45962 0
M  V30 5027 H 492.666 0.644224 0.69547 0
M  V30 5028 H 492.372 1.922 2.94537 0
M  V30 5029 H 492.246 0.369682 3.75384 0
M  V30 5030 H 494.633 -0.202973 2.94401 0
M  V30 5031 H 494.714 1.37858 2.15474 0
M  V30 5032 H 494.358 2.50231 4.4198 0
M  V30 5033 H 494.288 0.896958 5.18905 0
M  V30 5034 H 496.779 1.03768 3.63374 0
M  V30 5035 H 497.092 2.71633 7.23488 0
M  V30 5036 H 495.437 2.43636 6.50897 0
M  V30 5037 H 498.628 1.36617 4.4772 0
M  V30 5038 H 498.801 2.13143 6.11943 0
M  V30 5039 N 492.207 -1.54576 0.307264 0
M  V30 5040 C 493.155 -2.25208 -0.581723 0
M  V30 5041 C 494.149 -1.26031 -1.13192 0
M  V30 5042 O 495.355 -1.43862 -1.08184 0
M  V30 5043 H 491.73 -0.723173 -0.206214 0
M  V30 5044 H 493.701 -2.98378 0.0364663 0
M  V30 5045 C 492.45 -3.01086 -1.73904 0
M  V30 5046 H 491.773 -3.77208 -1.32491 0
M  V30 5047 H 493.213 -3.5378 -2.33701 0
M  V30 5048 C 491.672 -2.08422 -2.64692 0
M  V30 5049 O 492.202 -1.65636 -3.65961 0
M  V30 5050 N 490.408 -1.74247 -2.32564 0
M  V30 5051 H 489.955 -2.09238 -1.50257 0
M  V30 5052 H 489.913 -1.12524 -2.93574 0
M  V30 5053 N 493.685 -0.035106 -1.57561 0
M  V30 5054 C 494.934 0.641604 -1.91223 0
M  V30 5055 C 495.247 1.72944 -0.913761 0
M  V30 5056 O 496.453 2.46321 -1.14185 0
M  V30 5057 C 494.909 1.19249 -3.3957 0
M  V30 5058 C 494.517 0.137616 -4.47789 0
M  V30 5059 C 496.261 1.84537 -3.82291 0
M  V30 5060 C 494.168 0.700478 -5.87237 0
M  V30 5061 H 493.098 0.243417 -0.713627 0
M  V30 5062 H 495.749 -0.101382 -1.8322 0
M  V30 5063 H 494.131 1.98728 -3.42525 0
M  V30 5064 H 495.305 -0.635153 -4.56402 0
M  V30 5065 H 493.62 -0.416855 -4.14308 0
M  V30 5066 H 496.217 2.27616 -4.83834 0
M  V30 5067 H 496.56 2.69054 -3.17672 0
M  V30 5068 H 497.093 1.11739 -3.81784 0
M  V30 5069 H 493.832 -0.106693 -6.55413 0
M  V30 5070 H 493.352 1.4416 -5.82218 0
M  V30 5071 H 495.031 1.18837 -6.35993 0
M  V30 5072 N 495.163 1.55791 0.238111 0
M  V30 5073 C 496.391 1.82098 0.982233 0
M  V30 5074 C 496.806 0.612025 1.78605 0
M  V30 5075 O 496.163 -0.419381 1.77616 0
M  V30 5076 C 496.214 3.0673 1.91309 0
M  V30 5077 O 495.935 4.2296 1.14179 0
M  V30 5078 C 497.436 3.45903 2.77248 0
M  V30 5079 H 494.656 0.605748 0.288635 0
M  V30 5080 H 497.2 2.02862 0.258341 0
M  V30 5081 H 495.355 2.87991 2.59114 0
M  V30 5082 H 495.769 4.93653 1.7722 0
M  V30 5083 H 497.243 4.36189 3.38295 0
M  V30 5084 H 497.72 2.66891 3.48806 0
M  V30 5085 H 498.326 3.67024 2.14881 0
M  V30 5086 N 496.642 -0.504142 1.49319 0
M  V30 5087 C 497.572 -1.61473 1.68667 0
M  V30 5088 C 498.553 -1.61455 0.535378 0
M  V30 5089 O 499.738 -1.78245 0.770868 0
M  V30 5090 C 496.868 -2.99971 1.75028 0
M  V30 5091 C 495.822 -3.14854 2.89916 0
M  V30 5092 C 495.148 -4.54671 2.81387 0
M  V30 5093 C 496.448 -2.95176 4.30893 0
M  V30 5094 H 498.142 -1.45535 2.61648 0
M  V30 5095 H 495.688 -0.698711 1.25913 0
M  V30 5096 H 497.641 -3.77562 1.8715 0
M  V30 5097 H 496.365 -3.1699 0.786441 0
M  V30 5098 H 495.024 -2.39687 2.77391 0
M  V30 5099 H 494.672 -4.68562 1.82917 0
M  V30 5100 H 494.372 -4.6557 3.58494 0
M  V30 5101 H 495.896 -5.34327 2.95512 0
M  V30 5102 H 497.31 -3.62538 4.44116 0
M  V30 5103 H 495.707 -3.17549 5.09198 0
M  V30 5104 H 496.777 -1.91332 4.45556 0
M  V30 5105 N 498.12 -1.38341 -0.754957 0
M  V30 5106 C 499.531 -1.30803 -1.3322 0
M  V30 5107 C 499.882 0.0368 -1.96165 0
M  V30 5108 O 499.007 0.938844 -1.94974 0
M  V30 5109 C 499.602 -2.3688 -2.42225 0
M  V30 5110 C 498.161 -2.32925 -2.95674 0
M  V30 5111 C 497.308 -2.19819 -1.69042 0
M  V30 5112 H 500.259 -1.48719 -0.553937 0
M  V30 5113 H 500.28 -2.02517 -3.22129 0
M  V30 5114 H 499.792 -3.34747 -1.96383 0
M  V30 5115 H 497.893 -1.38635 -3.45848 0
M  V30 5116 H 498.006 -3.27008 -3.50146 0
M  V30 5117 H 496.37 -1.66648 -1.92615 0
M  V30 5118 H 497.153 -3.19625 -1.25279 0
M  V30 5119 N 499.598 0.982988 -1.23187 0
M  V30 5120 C 501.014 1.2487 -0.993967 0
M  V30 5121 C 501.214 1.99155 0.306498 0
M  V30 5122 O 500.27 2.30688 1.0266 0
M  V30 5123 C 501.583 2.05078 -2.19917 0
M  V30 5124 C 503.131 2.18227 -2.2438 0
M  V30 5125 C 503.606 3.01825 -3.44479 0
M  V30 5126 N 505.097 3.09411 -3.44702 0
M  V30 5127 C 505.832 3.74412 -4.34285 0
M  V30 5128 N 505.328 4.41259 -5.341 0
M  V30 5129 N 507.121 3.71273 -4.22035 0
M  V30 5130 H 499.272 0.485253 -2.06783 0
M  V30 5131 H 501.535 0.276979 -0.906635 0
M  V30 5132 H 501.241 1.57867 -3.14279 0
M  V30 5133 H 501.115 3.05829 -2.2079 0
M  V30 5134 H 503.502 2.64648 -1.30559 0
M  V30 5135 H 503.583 1.16873 -2.2754 0
M  V30 5136 H 503.227 2.56102 -4.38605 0
M  V30 5137 H 503.157 4.03342 -3.38559 0
M  V30 5138 H 505.648 2.61845 -2.7248 0
M  V30 5139 H 505.961 4.88629 -5.98717 0
M  V30 5140 H 504.306 4.39975 -5.38002 0
M  V30 5141 H 507.497 3.18217 -3.43301 0
M  V30 5142 H 507.67 4.21649 -4.92053 0
M  V30 5143 N 501.076 1.04316 1.18135 0
M  V30 5144 C 502.006 0.657299 2.24058 0
M  V30 5145 C 502.987 -0.340678 1.66654 0
M  V30 5146 O 504.172 -0.220223 1.92947 0
M  V30 5147 C 501.302 0.0220715 3.47293 0
M  V30 5148 C 500.256 0.943857 4.17463 0
M  V30 5149 C 499.582 0.172973 5.3442 0
M  V30 5150 C 500.882 2.26409 4.70677 0
M  V30 5151 H 502.576 1.5428 2.56589 0
M  V30 5152 H 500.122 0.743263 1.23335 0
M  V30 5153 H 502.075 -0.259607 4.206 0
M  V30 5154 H 500.799 -0.898323 3.14003 0
M  V30 5155 H 499.458 1.20996 3.46057 0
M  V30 5156 H 499.106 -0.749907 4.97379 0
M  V30 5157 H 498.806 0.787098 5.82304 0
M  V30 5158 H 500.33 -0.101628 6.10515 0
M  V30 5159 H 501.744 2.04294 5.35665 0
M  V30 5160 H 500.141 2.8314 5.29105 0
M  V30 5161 H 501.211 2.90883 3.87962 0
M  V30 5162 N 502.554 -1.34406 0.822964 0
M  V30 5163 C 503.486 -2.28305 0.202375 0
M  V30 5164 C 504.499 -1.5103 -0.60777 0
M  V30 5165 O 505.688 -1.73057 -0.437444 0
M  V30 5166 C 502.788 -3.30836 -0.734911 0
M  V30 5167 C 501.961 -4.37388 0.0324177 0
M  V30 5168 C 501.02 -5.1968 -0.825803 0
M  V30 5169 O 500.046 -5.68556 -0.270771 0
M  V30 5170 N 501.248 -5.39393 -2.14558 0
M  V30 5171 H 504.013 -2.82201 1.00909 0
M  V30 5172 H 501.574 -1.4693 0.67993 0
M  V30 5173 H 503.566 -3.82786 -1.31365 0
M  V30 5174 H 502.136 -2.77334 -1.44238 0
M  V30 5175 H 501.356 -3.86152 0.792469 0
M  V30 5176 H 502.644 -5.05702 0.560633 0
M  V30 5177 H 502.042 -5.01357 -2.62025 0
M  V30 5178 H 500.599 -5.94461 -2.67318 0
M  V30 5179 N 504.032 -0.577932 -1.46621 0
M  V30 5180 C 505.28 -0.061566 -2.02006 0
M  V30 5181 C 505.601 1.30117 -1.4524 0
M  V30 5182 O 504.871 1.85313 -0.63529 0
M  V30 5183 H 503.451 -0.0197692 -0.746738 0
M  V30 5184 H 506.113 -0.752631 -1.79782 0
M  V30 5185 H 505.209 0.0110238 -3.12098 0
M  V30 5186 N 505.51 1.54411 -0.315457 0
M  V30 5187 C 506.44 2.27002 0.547039 0
M  V30 5188 C 507.421 1.27492 1.12605 0
M  V30 5189 O 508.606 1.5629 1.15269 0
M  V30 5190 C 505.736 3.02171 1.71201 0
M  V30 5191 C 504.69 4.0895 1.26268 0
M  V30 5192 C 504.016 4.71915 2.51396 0
M  V30 5193 C 505.316 5.20891 0.383419 0
M  V30 5194 H 507.01 2.99343 -0.0584517 0
M  V30 5195 H 504.556 1.4397 -0.0295527 0
M  V30 5196 H 506.509 3.51681 2.32161 0
M  V30 5197 H 505.233 2.27433 2.34397 0
M  V30 5198 H 503.892 3.60312 0.676062 0
M  V30 5199 H 503.54 3.93801 3.12937 0
M  V30 5200 H 503.24 5.44039 2.22026 0
M  V30 5201 H 504.764 5.24195 3.13133 0
M  V30 5202 H 506.178 5.66206 0.899082 0
M  V30 5203 H 504.575 5.99821 0.182857 0
M  V30 5204 H 505.645 4.81324 -0.587821 0
M  V30 5205 N 506.988 0.0434614 1.5754 0
M  V30 5206 C 508.399 -0.493343 1.80064 0
M  V30 5207 C 508.75 -1.71388 0.955023 0
M  V30 5208 O 507.875 -2.15736 0.169434 0
M  V30 5209 C 508.47 -0.90179 3.26578 0
M  V30 5210 C 507.029 -1.38362 3.50047 0
M  V30 5211 C 506.176 -0.355129 2.75017 0
M  V30 5212 H 509.127 0.2694 1.56397 0
M  V30 5213 H 509.148 -1.76523 3.37075 0
M  V30 5214 H 508.66 -0.013271 3.88098 0
M  V30 5215 H 506.761 -2.29159 2.93798 0
M  V30 5216 H 506.874 -1.3811 4.58762 0
M  V30 5217 H 505.238 -0.826348 2.40922 0
M  V30 5218 H 506.021 0.525172 3.39259 0
M  V30 5219 N 508.466 -1.55915 -0.229846 0
M  V30 5220 C 509.712 -1.78807 -0.956868 0
M  V30 5221 C 510.045 -0.611687 -1.84315 0
M  V30 5222 O 509.32 0.389398 -1.90562 0
M  V30 5223 C 509.603 -3.11718 -1.80288 0
M  V30 5224 C 509.456 -4.3979 -0.943649 0
M  V30 5225 C 510.775 -3.40999 -2.78222 0
M  V30 5226 H 507.894 -0.6505 -0.346437 0
M  V30 5227 H 510.536 -1.88648 -0.226252 0
M  V30 5228 H 508.686 -3.03459 -2.42579 0
M  V30 5229 H 510.358 -4.60059 -0.338121 0
M  V30 5230 H 508.601 -4.33086 -0.248705 0
M  V30 5231 H 509.272 -5.29208 -1.5698 0
M  V30 5232 H 511.748 -3.49332 -2.26067 0
M  V30 5233 H 510.624 -4.35183 -3.34526 0
M  V30 5234 H 510.885 -2.62754 -3.55546 0
M  V30 5235 N 509.944 0.496216 -1.49584 0
M  V30 5236 C 510.877 1.61508 -1.61215 0
M  V30 5237 C 511.855 1.55927 -0.461045 0
M  V30 5238 O 513.039 1.75914 -0.677231 0
M  V30 5239 C 510.166 3.00035 -1.57152 0
M  V30 5240 C 509.212 3.23861 -2.77518 0
M  V30 5241 S 510.045 3.06466 -4.39134 0
M  V30 5242 C 511.201 4.4738 -4.37724 0
M  V30 5243 H 511.434 1.51398 -2.55863 0
M  V30 5244 H 508.967 0.681727 -1.38535 0
M  V30 5245 H 510.925 3.7991 -1.55494 0
M  V30 5246 H 509.586 3.07556 -0.637834 0
M  V30 5247 H 508.779 4.25 -2.70908 0
M  V30 5248 H 508.381 2.51716 -2.76614 0
M  V30 5249 H 510.673 5.39556 -4.09738 0
M  V30 5250 H 511.616 4.59038 -5.39156 0
M  V30 5251 H 512.024 4.28283 -3.67742 0
M  V30 5252 N 511.423 1.38739 0.74761 0
M  V30 5253 C 512.371 1.36573 1.88283 0
M  V30 5254 C 513.365 0.250712 1.67534 0
M  V30 5255 O 514.571 0.420073 1.7503 0
M  V30 5256 H 510.946 0.42619 0.619569 0
M  V30 5257 H 512.917 2.32356 1.87226 0
M  V30 5258 C 511.666 1.21361 3.25832 0
M  V30 5259 H 510.989 2.06424 3.42388 0
M  V30 5260 H 512.429 1.23901 4.05493 0
M  V30 5261 C 510.888 -0.0790099 3.36807 0
M  V30 5262 O 511.418 -1.05385 3.8763 0
M  V30 5263 N 509.624 -0.13785 2.90273 0
M  V30 5264 H 509.171 0.656128 2.49104 0
M  V30 5265 H 509.129 -1.00228 2.97996 0
M  V30 5266 N 512.901 -0.976442 1.23707 0
M  V30 5267 C 514.129 -1.75341 1.09833 0
M  V30 5268 C 514.544 -1.8553 -0.349885 0
M  V30 5269 O 513.901 -1.33732 -1.24185 0
M  V30 5270 C 513.952 -3.17833 1.72233 0
M  V30 5271 O 513.673 -3.08167 3.11391 0
M  V30 5272 C 515.174 -4.11906 1.63853 0
M  V30 5273 H 512.394 -0.550137 0.384175 0
M  V30 5274 H 514.938 -1.2265 1.63638 0
M  V30 5275 H 513.093 -3.67538 1.22452 0
M  V30 5276 H 513.507 -3.97897 3.41729 0
M  V30 5277 H 514.981 -5.09579 2.12211 0
M  V30 5278 H 515.458 -4.35109 0.598092 0
M  V30 5279 H 516.064 -3.68107 2.13019 0
M  V30 5280 N 514.379 -1.04941 -1.1758 0
M  V30 5281 C 515.79 -0.784501 -1.69418 0
M  V30 5282 C 516.141 0.693625 -1.8353 0
M  V30 5283 O 515.266 1.53925 -1.52106 0
M  V30 5284 C 515.861 -1.41746 -3.07723 0
M  V30 5285 C 514.42 -1.20066 -3.56737 0
M  V30 5286 C 513.567 -1.5026 -2.33061 0
M  V30 5287 H 516.518 -1.21469 -1.02133 0
M  V30 5288 H 516.539 -0.825381 -3.7144 0
M  V30 5289 H 516.051 -2.49325 -2.9742 0
M  V30 5290 H 514.152 -0.144006 -3.72322 0
M  V30 5291 H 514.265 -1.90384 -4.39648 0
M  V30 5292 H 512.629 -0.922598 -2.37403 0
M  V30 5293 H 513.412 -2.58967 -2.25368 0
M  V30 5294 N 515.857 1.33968 -0.830081 0
M  V30 5295 C 517.105 1.97672 -0.420734 0
M  V30 5296 C 517.426 1.66111 1.02138 0
M  V30 5297 O 516.696 0.955503 1.71017 0
M  V30 5298 H 515.276 0.73125 -0.152587 0
M  V30 5299 H 517.938 1.63483 -1.0611 0
M  V30 5300 H 517.034 3.07294 -0.545588 0
M  V30 5301 N 517.335 0.585699 1.46312 0
M  V30 5302 C 518.56 0.0762461 2.0726 0
M  V30 5303 C 518.985 -1.22071 1.43109 0
M  V30 5304 O 518.343 -1.73804 0.515942 0
M  V30 5305 C 518.391 -0.0729404 3.60526 0
M  V30 5306 O 517.495 -1.1287 3.96654 0
M  V30 5307 H 516.836 0.0641558 0.660893 0
M  V30 5308 H 519.366 0.809492 1.87905 0
M  V30 5309 H 519.376 -0.278158 4.07051 0
M  V30 5310 H 518.051 0.874188 4.06609 0
M  V30 5311 H 516.628 -0.901703 3.61834 0
M  V30 5312 N 518.813 -1.54241 0.323641 0
M  V30 5313 C 519.761 -2.25813 -0.557804 0
M  V30 5314 C 520.755 -1.27225 -1.11849 0
M  V30 5315 O 521.961 -1.45001 -1.06652 0
M  V30 5316 H 518.336 -0.72532 -0.198532 0
M  V30 5317 H 520.307 -2.98322 0.0681112 0
M  V30 5318 C 519.056 -3.02913 -1.70701 0
M  V30 5319 H 518.379 -3.78593 -1.28482 0
M  V30 5320 H 519.819 -3.56238 -2.29935 0
M  V30 5321 C 518.278 -2.11217 -2.62467 0
M  V30 5322 O 518.808 -1.69508 -3.64184 0
M  V30 5323 N 517.014 -1.76704 -2.30703 0
M  V30 5324 H 516.561 -2.1082 -1.48029 0
M  V30 5325 H 516.519 -1.15631 -2.92364 0
M  V30 5326 N 520.291 -0.0518155 -1.57515 0
M  V30 5327 C 521.223 0.951542 -2.08515 0
M  V30 5328 C 522.236 1.27436 -1.01311 0
M  V30 5329 O 523.425 1.23504 -1.28876 0
M  V30 5330 C 520.525 2.27291 -2.5138 0
M  V30 5331 C 519.698 2.13191 -3.81927 0
M  V30 5332 C 518.757 3.28458 -4.11098 0
M  V30 5333 O 517.783 3.04334 -4.81009 0
M  V30 5334 N 518.985 4.52954 -3.63061 0
M  V30 5335 H 521.75 0.516242 -2.9522 0
M  V30 5336 H 519.311 0.13441 -1.61341 0
M  V30 5337 H 521.303 3.03272 -2.67971 0
M  V30 5338 H 519.873 2.62386 -1.69919 0
M  V30 5339 H 519.093 1.21798 -3.74912 0
M  V30 5340 H 520.381 2.00999 -4.67415 0
M  V30 5341 H 519.779 4.75444 -3.06545 0
M  V30 5342 H 518.336 5.26026 -3.84889 0
M  V30 5343 N 521.769 1.56035 0.221574 0
M  V30 5344 C 522.999 1.82864 0.961468 0
M  V30 5345 C 523.407 0.628703 1.78449 0
M  V30 5346 O 522.75 -0.412109 1.79018 0
M  V30 5347 C 522.812 3.03425 1.92804 0
M  V30 5348 C 522.476 4.38429 1.28954 0
M  V30 5349 C 523.473 5.15441 0.679431 0
M  V30 5350 C 521.158 4.85151 1.30131 0
M  V30 5351 C 523.152 6.37337 0.0896148 0
M  V30 5352 C 520.839 6.06989 0.707651 0
M  V30 5353 C 521.837 6.82923 0.102855 0
M  V30 5354 O 521.525 8.02456 -0.48157 0
M  V30 5355 H 521.257 0.611883 0.28736 0
M  V30 5356 H 523.811 2.0397 0.241932 0
M  V30 5357 H 522.041 2.78138 2.68656 0
M  V30 5358 H 523.73 3.17127 2.53348 0
M  V30 5359 H 524.496 4.80452 0.662661 0
M  V30 5360 H 520.375 4.26021 1.76145 0
M  V30 5361 H 523.919 6.96547 -0.383069 0
M  V30 5362 H 519.816 6.41451 0.721834 0
M  V30 5363 H 520.584 8.17636 -0.375887 0
M  V30 5364 N 523.247 -0.488276 1.49845 0
M  V30 5365 C 524.177 -1.59675 1.70371 0
M  V30 5366 C 525.158 -1.60878 0.552473 0
M  V30 5367 O 526.343 -1.77417 0.78973 0
M  V30 5368 C 523.473 -2.98098 1.782 0
M  V30 5369 C 522.427 -3.11761 2.93239 0
M  V30 5370 C 521.753 -4.51661 2.86193 0
M  V30 5371 C 523.053 -2.90589 4.33999 0
M  V30 5372 H 524.747 -1.42752 2.63177 0
M  V30 5373 H 522.293 -0.685317 1.26647 0
M  V30 5374 H 524.246 -3.75555 1.91144 0
M  V30 5375 H 522.97 -3.16138 0.820018 0
M  V30 5376 H 521.629 -2.36732 2.79917 0
M  V30 5377 H 521.277 -4.66595 1.87877 0
M  V30 5378 H 520.977 -4.61742 3.63412 0
M  V30 5379 H 522.501 -5.31162 3.01163 0
M  V30 5380 H 523.915 -3.57807 4.47936 0
M  V30 5381 H 522.312 -3.1213 5.12538 0
M  V30 5382 H 523.382 -1.86595 4.4756 0
M  V30 5383 N 524.725 -1.39134 -0.740242 0
M  V30 5384 C 525.953 -1.39334 -1.5295 0
M  V30 5385 C 526.368 0.0135008 -1.88795 0
M  V30 5386 O 525.725 0.983524 -1.5373 0
M  V30 5387 C 525.776 -2.2614 -2.82034 0
M  V30 5388 O 525.497 -3.61345 -2.47712 0
M  V30 5389 C 526.998 -2.34666 -3.76094 0
M  V30 5390 H 524.218 -0.476103 -0.472828 0
M  V30 5391 H 526.762 -1.82883 -0.9151 0
M  V30 5392 H 524.917 -1.86018 -3.39818 0
M  V30 5393 H 525.331 -4.07194 -3.30595 0
M  V30 5394 H 526.805 -2.99663 -4.63579 0
M  V30 5395 H 527.282 -1.36426 -4.17474 0
M  V30 5396 H 527.888 -2.75236 -3.2423 0
M  V30 5397 N 526.204 0.969867 -1.24223 0
M  V30 5398 C 527.167 2.04564 -1.03373 0
M  V30 5399 C 528.167 1.60798 0.00819206 0
M  V30 5400 O 529.357 1.72641 -0.232567 0
M  V30 5401 C 526.489 3.36163 -0.566343 0
M  V30 5402 H 527.682 2.24494 -1.98853 0
M  V30 5403 H 525.235 1.1448 -1.06415 0
M  V30 5404 H 525.97 3.21925 0.391751 0
M  V30 5405 H 525.755 3.69273 -1.31834 0
M  V30 5406 H 527.245 4.1526 -0.441435 0
M  V30 5407 N 527.682 1.05563 1.17022 0
M  V30 5408 C 528.959 0.68165 1.83338 0
M  V30 5409 C 529.339 -0.837665 1.93769 0
M  V30 5410 O 528.687 -1.74507 1.47511 0
M  V30 5411 C 528.897 1.375 3.20772 0
M  V30 5412 C 530.245 1.51545 3.96635 0
M  V30 5413 O 531.269 1.33431 3.30264 0
M  V30 5414 O 530.128 1.812 5.15586 0
M  V30 5415 H 527.222 0.240412 0.791285 0
M  V30 5416 H 529.768 1.15545 1.24288 0
M  V30 5417 H 528.54 2.41135 3.08171 0
M  V30 5418 H 528.163 0.890798 3.87493 0
M  V30 5419 N 529.16 -1.33526 0.837174 0
M  V30 5420 C 530.108 -2.31168 0.257698 0
M  V30 5421 C 531.102 -1.5806 -0.609388 0
M  V30 5422 O 532.308 -1.72941 -0.499139 0
M  V30 5423 H 528.683 -0.74922 0.0646058 0
M  V30 5424 H 530.654 -2.77552 1.09578 0
M  V30 5425 C 529.403 -3.4326 -0.553887 0
M  V30 5426 H 528.726 -3.99665 0.104008 0
M  V30 5427 H 530.166 -4.13782 -0.925219 0
M  V30 5428 C 528.625 -2.88965 -1.73207 0
M  V30 5429 O 529.155 -2.85013 -2.83073 0
M  V30 5430 N 527.361 -2.45596 -1.55342 0
M  V30 5431 H 526.908 -2.49009 -0.659705 0
M  V30 5432 H 526.866 -2.0962 -2.34322 0
M  V30 5433 N 530.638 -0.59345 -1.46 0
M  V30 5434 C 531.885 -0.0831523 -2.02329 0
M  V30 5435 C 532.213 1.28093 -1.46364 0
M  V30 5436 O 531.468 1.85526 -0.622793 0
M  V30 5437 C 531.767 0.021178 -3.57394 0
M  V30 5438 C 531.433 -1.27671 -4.32448 0
M  V30 5439 C 530.095 -1.63227 -4.5267 0
M  V30 5440 C 532.447 -2.13511 -4.7546 0
M  V30 5441 C 529.775 -2.84401 -5.1316 0
M  V30 5442 C 532.127 -3.33922 -5.37289 0
M  V30 5443 C 530.791 -3.69747 -5.55737 0
M  V30 5444 H 530.061 -0.0304276 -0.740375 0
M  V30 5445 H 532.708 -0.772239 -1.75239 0
M  V30 5446 H 531.013 0.793454 -3.83682 0
M  V30 5447 H 532.71 0.431942 -3.98667 0
M  V30 5448 H 529.3 -0.989937 -4.17011 0
M  V30 5449 H 533.484 -1.87344 -4.59582 0
M  V30 5450 H 528.74 -3.12282 -5.25633 0
M  V30 5451 H 532.914 -4.00698 -5.69574 0
M  V30 5452 H 530.541 -4.6373 -6.02377 0
M  V30 5453 N 532.116 1.54067 -0.331816 0
M  V30 5454 C 533.048 2.22139 0.564538 0
M  V30 5455 C 534.061 1.22408 1.07332 0
M  V30 5456 O 535.25 1.4883 0.985481 0
M  V30 5457 C 532.35 2.87876 1.78831 0
M  V30 5458 C 531.523 4.13817 1.41682 0
M  V30 5459 C 530.582 4.63072 2.49901 0
M  V30 5460 O 529.608 5.27562 2.13699 0
M  V30 5461 N 530.81 4.38001 3.80967 0
M  V30 5462 H 533.575 2.99694 -0.0183736 0
M  V30 5463 H 531.136 1.61153 -0.155396 0
M  V30 5464 H 533.128 3.17747 2.50637 0
M  V30 5465 H 531.698 2.13977 2.27887 0
M  V30 5466 H 530.918 3.9062 0.530044 0
M  V30 5467 H 532.206 4.95762 1.14443 0
M  V30 5468 H 531.604 3.864 4.13173 0
M  V30 5469 H 530.161 4.72507 4.48977 0
M  V30 5470 N 533.594 0.0601682 1.57485 0
M  V30 5471 C 534.819 -0.624416 1.97777 0
M  V30 5472 C 535.244 -1.63051 0.937867 0
M  V30 5473 O 534.602 -1.81036 -0.0978845 0
M  V30 5474 C 534.65 -1.27979 3.37126 0
M  V30 5475 O 533.754 -2.39556 3.35688 0
M  V30 5476 H 533.095 -0.161581 0.64404 0
M  V30 5477 H 535.625 0.131237 2.04179 0
M  V30 5478 H 535.635 -1.62937 3.74053 0
M  V30 5479 H 534.31 -0.542501 4.12347 0
M  V30 5480 H 532.887 -2.06478 3.10517 0
M  V30 5481 N 535.072 -1.5615 -0.213296 0
M  V30 5482 C 536.483 -1.69645 -0.779582 0
M  V30 5483 C 536.834 -0.663615 -1.84636 0
M  V30 5484 O 535.959 0.183633 -2.15619 0
M  V30 5485 C 536.554 -3.07567 -1.42084 0
M  V30 5486 C 535.113 -3.22889 -1.93442 0
M  V30 5487 C 534.26 -2.65581 -0.797612 0
M  V30 5488 H 537.211 -1.58696 0.0114951 0
M  V30 5489 H 537.232 -3.03884 -2.28986 0
M  V30 5490 H 536.744 -3.82716 -0.644187 0
M  V30 5491 H 534.845 -2.52623 -2.73884 0
M  V30 5492 H 534.958 -4.30197 -2.10872 0
M  V30 5493 H 533.322 -2.24278 -1.20712 0
M  V30 5494 H 534.105 -3.43284 -0.033494 0
M  V30 5495 N 536.55 0.480323 -1.50102 0
M  V30 5496 C 537.79 1.24301 -1.62261 0
M  V30 5497 C 538.154 1.89452 -0.311758 0
M  V30 5498 O 539.355 2.67022 -0.308696 0
M  V30 5499 C 537.626 2.26588 -2.76392 0
M  V30 5500 S 539.185 3.11919 -3.08629 0
M  V30 5501 H 536.003 0.42215 -0.57211 0
M  V30 5502 H 538.605 0.541591 -1.87848 0
M  V30 5503 H 537.309 1.7729 -3.70131 0
M  V30 5504 H 536.84 3.01371 -2.52862 0
M  V30 5505 H 538.855 4.27598 -2.51742 0
M  V30 5506 N 538.028 1.39524 0.732853 0
M  V30 5507 C 538.991 1.38189 1.82857 0
M  V30 5508 C 539.991 0.278624 1.58368 0
M  V30 5509 O 541.181 0.536639 1.65728 0
M  V30 5510 C 538.313 1.15661 3.2068 0
M  V30 5511 H 539.506 2.35692 1.85444 0
M  V30 5512 H 537.059 1.2512 0.936728 0
M  V30 5513 H 537.794 0.188482 3.23752 0
M  V30 5514 H 537.579 1.95559 3.39852 0
M  V30 5515 H 539.069 1.17472 4.00737 0
M  V30 5516 N 539.506 -0.963266 1.24736 0
M  V30 5517 C 540.436 -2.07628 1.06832 0
M  V30 5518 C 541.417 -1.70088 -0.0200566 0
M  V30 5519 O 542.602 -1.93636 0.147854 0
M  V30 5520 C 539.732 -3.40636 0.677069 0
M  V30 5521 C 538.686 -3.9215 1.71471 0
M  V30 5522 C 538.012 -5.21553 1.1784 0
M  V30 5523 C 539.312 -4.19493 3.11164 0
M  V30 5524 H 541.006 -2.22864 1.9993 0
M  V30 5525 H 538.552 -1.07093 0.96266 0
M  V30 5526 H 540.505 -4.17941 0.538792 0
M  V30 5527 H 539.229 -3.25313 -0.289612 0
M  V30 5528 H 537.888 -3.17005 1.84128 0
M  V30 5529 H 537.536 -5.02593 0.202195 0
M  V30 5530 H 537.236 -5.56988 1.87185 0
M  V30 5531 H 538.76 -6.01463 1.05233 0
M  V30 5532 H 540.174 -4.87487 3.01711 0
M  V30 5533 H 538.571 -4.66165 3.77902 0
M  V30 5534 H 539.641 -3.26097 3.58871 0
M  V30 5535 N 540.985 -1.06182 -1.16461 0
M  V30 5536 C 542.396 -0.802426 -1.68576 0
M  V30 5537 C 542.747 0.67412 -1.84255 0
M  V30 5538 O 541.872 1.52303 -1.5373 0
M  V30 5539 C 542.467 -1.45002 -3.06202 0
M  V30 5540 C 541.026 -1.23843 -3.55443 0
M  V30 5541 C 540.173 -1.52724 -2.31454 0
M  V30 5542 H 543.124 -1.22545 -1.00839 0
M  V30 5543 H 543.145 -0.864731 -3.70544 0
M  V30 5544 H 542.657 -2.52466 -2.94759 0
M  V30 5545 H 540.758 -0.183487 -3.72148 0
M  V30 5546 H 540.871 -1.95036 -4.37604 0
M  V30 5547 H 539.235 -0.947726 -2.36411 0
M  V30 5548 H 540.018 -2.61343 -2.22609 0
M  V30 5549 N 542.463 1.3308 -0.844243 0
M  V30 5550 C 543.373 2.32876 -0.283922 0
M  V30 5551 C 544.389 1.63589 0.592846 0
M  V30 5552 O 545.565 1.95205 0.495693 0
M  V30 5553 C 542.63 3.42667 0.527283 0
M  V30 5554 C 541.691 4.27664 -0.374394 0
M  V30 5555 C 540.924 5.32212 0.39819 0
M  V30 5556 O 541.147 5.46635 1.62932 0
M  V30 5557 O 540.081 6.01458 -0.2306 0
M  V30 5558 H 543.907 2.82671 -1.11045 0
M  V30 5559 H 541.492 1.36518 -0.606903 0
M  V30 5560 H 543.374 4.09652 0.988078 0
M  V30 5561 H 542.049 2.95079 1.33078 0
M  V30 5562 H 540.956 3.63526 -0.883144 0
M  V30 5563 H 542.289 4.78749 -1.1428 0
M  V30 5564 N 543.941 0.601185 1.45683 0
M  V30 5565 C 545.188 0.0938811 2.02282 0
M  V30 5566 C 545.516 -1.27315 1.47041 0
M  V30 5567 O 544.771 -1.85193 0.632623 0
M  V30 5568 C 545.07 -0.00222425 3.574 0
M  V30 5569 C 544.736 1.29963 4.31764 0
M  V30 5570 C 543.398 1.65625 4.51798 0
M  V30 5571 C 545.75 2.1603 4.74321 0
M  V30 5572 C 543.078 2.87119 5.11644 0
M  V30 5573 C 545.43 3.36766 5.3551 0
M  V30 5574 C 544.094 3.72689 5.53768 0
M  V30 5575 H 543.364 0.0343535 0.740203 0
M  V30 5576 H 546.011 0.781522 1.74827 0
M  V30 5577 H 544.316 -0.773096 3.84097 0
M  V30 5578 H 546.013 -0.410794 3.9889 0
M  V30 5579 H 542.603 1.01204 4.1648 0
M  V30 5580 H 546.787 1.89778 4.58582 0
M  V30 5581 H 542.043 3.15065 5.2397 0
M  V30 5582 H 546.217 4.03713 5.67441 0
M  V30 5583 H 543.844 4.66918 5.99909 0
M  V30 5584 N 545.419 -1.53889 0.339982 0
M  V30 5585 C 546.696 -1.93084 -0.312719 0
M  V30 5586 C 547.076 -1.2712 -1.68534 0
M  V30 5587 O 546.424 -0.420835 -2.24591 0
M  V30 5588 C 546.634 -3.4683 -0.388558 0
M  V30 5589 C 547.982 -4.19732 -0.641088 0
M  V30 5590 O 549.006 -3.53075 -0.470818 0
M  V30 5591 O 547.865 -5.3781 -0.970685 0
M  V30 5592 H 544.959 -0.806784 -0.18174 0
M  V30 5593 H 547.505 -1.65137 0.390898 0
M  V30 5594 H 546.277 -3.87055 0.574821 0
M  V30 5595 H 545.9 -3.80933 -1.1391 0
M  V30 5596 N 546.897 -0.0685191 -1.57451 0
M  V30 5597 C 548.143 0.602239 -1.93652 0
M  V30 5598 C 548.476 1.6946 -0.948526 0
M  V30 5599 O 547.751 1.94487 0.022782 0
M  V30 5600 C 548.034 1.18223 -3.4014 0
M  V30 5601 C 547.887 0.0967431 -4.49696 0
M  V30 5602 C 549.206 2.08872 -3.87377 0
M  V30 5603 H 546.325 0.217453 -0.70419 0
M  V30 5604 H 548.967 -0.133821 -1.89528 0
M  V30 5605 H 547.117 1.80953 -3.43785 0
M  V30 5606 H 548.789 -0.536155 -4.58174 0
M  V30 5607 H 547.032 -0.573063 -4.29998 0
M  V30 5608 H 547.703 0.542894 -5.49324 0
M  V30 5609 H 550.179 1.56081 -3.85717 0
M  V30 5610 H 549.055 2.46389 -4.90493 0
M  V30 5611 H 549.316 2.99572 -3.25129 0
M  V30 5612 N 548.375 1.56261 0.205012 0
M  V30 5613 C 549.603 1.84141 0.943386 0
M  V30 5614 C 550.018 0.649772 1.77266 0
M  V30 5615 O 549.375 -0.381612 1.78466 0
M  V30 5616 C 549.426 3.10719 1.84759 0
M  V30 5617 O 549.147 4.25286 1.05181 0
M  V30 5618 C 550.648 3.51706 2.69848 0
M  V30 5619 H 547.868 0.611734 0.275721 0
M  V30 5620 H 550.412 2.03364 0.215253 0
M  V30 5621 H 548.567 2.93422 2.52947 0
M  V30 5622 H 548.981 4.97301 1.66709 0
M  V30 5623 H 550.455 4.43266 3.28967 0
M  V30 5624 H 550.932 2.7423 3.43067 0
M  V30 5625 H 551.538 3.71499 2.07047 0
M  V30 5626 N 549.853 -0.472356 1.50355 0
M  V30 5627 C 551.264 -1.05326 1.54154 0
M  V30 5628 C 551.615 -1.93155 0.344303 0
M  V30 5629 O 550.74 -2.09479 -0.542928 0
M  V30 5630 C 551.335 -1.91691 2.79356 0
M  V30 5631 C 549.894 -2.44892 2.8584 0
M  V30 5632 C 549.041 -1.23205 2.48426 0
M  V30 5633 H 551.992 -0.255027 1.56637 0
M  V30 5634 H 552.013 -2.76742 2.6114 0
M  V30 5635 H 551.525 -1.27741 3.66475 0
M  V30 5636 H 549.626 -3.12399 2.0307 0
M  V30 5637 H 549.739 -2.80086 3.88701 0
M  V30 5638 H 548.103 -1.56643 2.00836 0
M  V30 5639 H 548.886 -0.609194 3.37852 0
M  V30 5640 N 551.331 -1.39911 -0.725443 0
M  V30 5641 C 552.742 -1.33599 -1.30415 0
M  V30 5642 C 553.093 -0.00481792 -1.96199 0
M  V30 5643 O 552.218 0.897275 -1.96921 0
M  V30 5644 C 552.813 -2.41965 -2.37146 0
M  V30 5645 C 551.372 -2.39144 -2.90667 0
M  V30 5646 C 550.519 -2.23355 -1.64341 0
M  V30 5647 H 553.47 -1.4986 -0.522267 0
M  V30 5648 H 553.491 -2.09304 -3.17761 0
M  V30 5649 H 553.003 -3.38837 -1.89238 0
M  V30 5650 H 551.104 -1.4594 -3.4283 0
M  V30 5651 H 551.217 -3.34362 -3.43131 0
M  V30 5652 H 549.581 -1.70696 -1.89037 0
M  V30 5653 H 550.364 -3.2221 -1.18471 0
M  V30 5654 N 552.809 0.956637 -1.25245 0
M  V30 5655 C 554.058 1.69537 -1.0927 0
M  V30 5656 C 554.371 1.92136 0.366503 0
M  V30 5657 O 555.577 2.63687 0.64665 0
M  V30 5658 C 554.033 3.05211 -1.9072 0
M  V30 5659 C 553.641 2.90416 -3.41119 0
M  V30 5660 C 555.385 3.82882 -1.83308 0
M  V30 5661 C 553.292 4.21468 -4.14872 0
M  V30 5662 H 552.222 0.635804 -0.405302 0
M  V30 5663 H 554.873 1.06513 -1.49423 0
M  V30 5664 H 553.255 3.69128 -1.43389 0
M  V30 5665 H 554.429 2.35444 -3.9611 0
M  V30 5666 H 552.744 2.26203 -3.49602 0
M  V30 5667 H 555.341 4.79944 -2.35706 0
M  V30 5668 H 555.684 4.0853 -0.800572 0
M  V30 5669 H 556.217 3.25711 -2.28379 0
M  V30 5670 H 552.956 4.01009 -5.18529 0
M  V30 5671 H 552.476 4.76213 -3.64665 0
M  V30 5672 H 554.155 4.90022 -4.22478 0
M  V30 5673 N 554.287 1.06798 1.15896 0
M  V30 5674 C 555.564 0.701057 1.82605 0
M  V30 5675 C 555.944 -0.817066 1.94646 0
M  V30 5676 O 555.292 -1.72933 1.49353 0
M  V30 5677 C 555.502 1.40895 3.19296 0
M  V30 5678 C 556.85 1.55744 3.95005 0
M  V30 5679 O 557.874 1.36927 3.28831 0
M  V30 5680 O 556.733 1.86658 5.13635 0
M  V30 5681 H 553.827 0.248791 0.78869 0
M  V30 5682 H 556.373 1.16857 1.23055 0
M  V30 5683 H 555.145 2.4439 3.05596 0
M  V30 5684 H 554.768 0.931847 3.86526 0
M  V30 5685 N 555.766 -1.3263 0.851289 0
M  V30 5686 C 557.015 -1.96633 0.449267 0
M  V30 5687 C 557.328 -1.68131 -0.999562 0
M  V30 5688 O 558.534 -2.25845 -1.50685 0
M  V30 5689 C 556.99 -3.51946 0.752446 0
M  V30 5690 C 556.598 -3.89311 2.21678 0
M  V30 5691 C 558.342 -4.22437 0.417983 0
M  V30 5692 C 556.249 -5.37655 2.46336 0
M  V30 5693 H 555.179 -0.735888 0.164269 0
M  V30 5694 H 557.83 -1.51073 1.0416 0
M  V30 5695 H 556.212 -3.95899 0.0895858 0
M  V30 5696 H 557.386 -3.56378 2.92115 0
M  V30 5697 H 555.701 -3.31836 2.51543 0
M  V30 5698 H 558.298 -5.31549 0.579674 0
M  V30 5699 H 558.641 -4.11349 -0.640115 0
M  V30 5700 H 559.174 -3.84057 1.03659 0
M  V30 5701 H 555.913 -5.5376 3.50757 0
M  V30 5702 H 555.433 -5.72005 1.80473 0
M  V30 5703 H 557.112 -6.04695 2.30115 0
M  V30 5704 N 557.244 -0.608902 -1.45362 0
M  V30 5705 C 558.655 -0.189511 -1.85736 0
M  V30 5706 C 559.006 1.2539 -1.50903 0
M  V30 5707 O 558.131 1.95094 -0.936347 0
M  V30 5708 C 558.726 -0.33716 -3.37118 0
M  V30 5709 C 557.285 0.0275487 -3.7639 0
M  V30 5710 C 556.432 -0.660983 -2.69307 0
M  V30 5711 H 559.383 -0.815499 -1.36144 0
M  V30 5712 H 559.404 0.430257 -3.7806 0
M  V30 5713 H 558.916 -1.38779 -3.62439 0
M  V30 5714 H 557.017 1.0773 -3.56686 0
M  V30 5715 H 557.13 -0.367018 -4.77692 0
M  V30 5716 H 555.494 -0.0984958 -2.54509 0
M  V30 5717 H 556.277 -1.71377 -2.97464 0
M  V30 5718 N 558.722 1.53707 -0.348139 0
M  V30 5719 C 559.97 2.00591 0.246478 0
M  V30 5720 C 560.291 1.23753 1.50699 0
M  V30 5721 O 559.561 0.345964 1.92821 0
M  V30 5722 H 558.141 0.741053 0.0940679 0
M  V30 5723 H 560.803 1.89139 -0.470354 0
M  V30 5724 H 559.899 3.08297 0.485714 0
M  V30 5725 N 560.2 0.0768682 1.57412 0
M  V30 5726 C 561.11 -0.903207 2.16516 0
M  V30 5727 C 562.126 -1.32341 1.12968 0
M  V30 5728 O 563.302 -1.39507 1.45258 0
M  V30 5729 C 560.367 -2.1508 2.71922 0
M  V30 5730 C 559.428 -1.78653 3.90361 0
M  V30 5731 C 558.661 -2.97465 4.43114 0
M  V30 5732 O 558.884 -4.11638 3.94854 0
M  V30 5733 O 557.818 -2.76987 5.3438 0
M  V30 5734 H 561.644 -0.430427 3.00634 0
M  V30 5735 H 559.229 -0.146485 1.4868 0
M  V30 5736 H 561.111 -2.8823 3.07411 0
M  V30 5737 H 559.786 -2.61446 1.9086 0
M  V30 5738 H 558.693 -1.0274 3.59716 0
M  V30 5739 H 560.026 -1.37066 4.7273 0
M  V30 5740 N 561.678 -1.56367 -0.196722 0
M  V30 5741 C 562.924 -1.80796 -0.918725 0
M  V30 5742 C 563.257 -0.650645 -1.82976 0
M  V30 5743 O 562.532 0.348889 -1.91345 0
M  V30 5744 C 562.815 -3.15472 -1.73636 0
M  V30 5745 C 562.668 -4.41693 -0.85015 0
M  V30 5746 C 563.987 -3.46824 -2.70927 0
M  V30 5747 H 561.106 -0.657702 -0.332561 0
M  V30 5748 H 563.748 -1.89086 -0.186186 0
M  V30 5749 H 561.898 -3.08536 -2.36088 0
M  V30 5750 H 563.57 -4.60673 -0.240459 0
M  V30 5751 H 561.813 -4.33517 -0.156785 0
M  V30 5752 H 562.484 -5.32419 -1.45719 0
M  V30 5753 H 564.96 -3.54049 -2.18607 0
M  V30 5754 H 563.836 -4.4218 -3.25219 0
M  V30 5755 H 564.097 -2.70236 -3.49893 0
M  V30 5756 N 563.156 0.464375 -1.50603 0
M  V30 5757 C 564.103 1.56152 -1.69956 0
M  V30 5758 C 565.073 1.57046 -0.54091 0
M  V30 5759 O 566.258 1.74473 -0.772258 0
M  V30 5760 C 563.398 2.94079 -1.80586 0
M  V30 5761 C 562.511 3.02923 -3.07996 0
M  V30 5762 C 561.646 4.31806 -3.09382 0
M  V30 5763 C 560.685 4.34417 -4.31218 0
M  V30 5764 N 559.822 5.54782 -4.30304 0
M  V30 5765 H 564.662 1.38955 -2.6362 0
M  V30 5766 H 562.199 0.675482 -1.30674 0
M  V30 5767 H 564.157 3.74073 -1.8473 0
M  V30 5768 H 562.787 3.09896 -0.903556 0
M  V30 5769 H 561.839 2.1576 -3.13292 0
M  V30 5770 H 563.151 3.00712 -3.97962 0
M  V30 5771 H 562.305 5.20153 -3.12292 0
M  V30 5772 H 561.044 4.36636 -2.17257 0
M  V30 5773 H 560.049 3.44467 -4.28512 0
M  V30 5774 H 561.274 4.31273 -5.24576 0
M  V30 5775 H 559.22 5.60384 -3.41037 0
M  V30 5776 H 559.137 5.54339 -5.14047 0
M  V30 5777 H 560.405 6.45235 -4.3737 0
M  V30 5778 N 564.634 1.40294 0.718013 0
M  V30 5779 C 565.582 1.40536 1.85344 0
M  V30 5780 C 566.576 0.286192 1.66965 0
M  V30 5781 O 567.782 0.457105 1.74099 0
M  V30 5782 H 564.157 0.439236 0.61039 0
M  V30 5783 H 566.128 2.36275 1.82255 0
M  V30 5784 C 564.877 1.28245 3.23185 0
M  V30 5785 H 564.2 2.1364 3.37932 0
M  V30 5786 H 565.64 1.32474 4.02774 0
M  V30 5787 C 564.099 -0.0075503 3.36899 0
M  V30 5788 O 564.629 -0.971391 3.89778 0
M  V30 5789 N 562.835 -0.0762479 2.905 0
M  V30 5790 H 562.382 0.708819 2.47656 0
M  V30 5791 H 562.34 -0.938846 3.00055 0
M  V30 5792 N 566.112 -0.949982 1.2575 0
M  V30 5793 C 567.045 -2.047 1.00862 0
M  V30 5794 C 568.023 -1.62475 -0.0636982 0
M  V30 5795 O 569.207 -1.88343 0.0769153 0
M  V30 5796 C 566.334 -3.34597 0.525613 0
M  V30 5797 C 565.38 -3.95788 1.58916 0
M  V30 5798 S 566.213 -4.31175 3.17567 0
M  V30 5799 C 567.369 -5.64183 2.71013 0
M  V30 5800 H 567.602 -2.25497 1.93749 0
M  V30 5801 H 565.135 -1.09022 1.09332 0
M  V30 5802 H 567.093 -4.09716 0.25359 0
M  V30 5803 H 565.754 -3.11758 -0.382828 0
M  V30 5804 H 564.947 -4.89457 1.20201 0
M  V30 5805 H 564.549 -3.27168 1.81211 0
M  V30 5806 H 566.841 -6.42504 2.14928 0
M  V30 5807 H 567.784 -6.07774 3.6334 0
M  V30 5808 H 568.192 -5.2364 2.1086 0
M  V30 5809 N 567.59 -1.07411 -1.15328 0
M  V30 5810 C 568.523 -0.63913 -2.19067 0
M  V30 5811 C 569.501 0.343929 -1.58921 0
M  V30 5812 O 570.685 0.250207 -1.86832 0
M  V30 5813 C 567.812 0.0613977 -3.38644 0
M  V30 5814 C 566.858 -0.880201 -4.17318 0
M  V30 5815 S 567.691 -2.38152 -4.79629 0
M  V30 5816 C 568.847 -1.69281 -6.02573 0
M  V30 5817 H 569.08 -1.51799 -2.55626 0
M  V30 5818 H 566.613 -0.888138 -1.26299 0
M  V30 5819 H 568.571 0.459323 -4.07922 0
M  V30 5820 H 567.232 0.916605 -3.00428 0
M  V30 5821 H 566.425 -0.336781 -5.02874 0
M  V30 5822 H 566.027 -1.21854 -3.53592 0
M  V30 5823 H 568.319 -1.00488 -6.70006 0
M  V30 5824 H 569.262 -2.52671 -6.61485 0
M  V30 5825 H 569.67 -1.17053 -5.52231 0
M  V30 5826 N 569.068 1.32177 -0.85831 0
M  V30 5827 C 569.978 2.32561 -0.308606 0
M  V30 5828 C 570.994 1.64209 0.575462 0
M  V30 5829 O 572.17 1.95719 0.474961 0
M  V30 5830 C 569.235 3.43207 0.490909 0
M  V30 5831 C 568.296 4.27243 -0.419733 0
M  V30 5832 C 567.529 5.32605 0.341719 0
M  V30 5833 O 567.752 5.48332 1.57125 0
M  V30 5834 O 566.686 6.0118 -0.294379 0
M  V30 5835 H 570.512 2.81477 -1.14037 0
M  V30 5836 H 568.097 1.35866 -0.621349 0
M  V30 5837 H 569.979 4.10677 0.944574 0
M  V30 5838 H 568.654 2.96474 1.29941 0
M  V30 5839 H 567.561 3.62569 -0.921652 0
M  V30 5840 H 568.894 4.7751 -1.19352 0
M  V30 5841 N 570.547 0.616602 1.45037 0
M  V30 5842 C 571.477 -0.0840787 2.33349 0
M  V30 5843 C 572.458 -0.849641 1.4736 0
M  V30 5844 O 573.643 -0.818407 1.76113 0
M  V30 5845 C 570.773 -1.07604 3.3021 0
M  V30 5846 C 569.727 -0.423096 4.25904 0
M  V30 5847 C 569.053 -1.52394 5.12523 0
M  V30 5848 C 570.353 0.661457 5.18095 0
M  V30 5849 H 572.047 0.653333 2.92185 0
M  V30 5850 H 569.593 0.315634 1.40498 0
M  V30 5851 H 571.546 -1.57485 3.90866 0
M  V30 5852 H 570.27 -1.84416 2.69552 0
M  V30 5853 H 568.929 0.05493 3.66559 0
M  V30 5854 H 568.577 -2.28257 4.48227 0
M  V30 5855 H 568.277 -1.09251 5.77354 0
M  V30 5856 H 569.801 -2.02485 5.76049 0
M  V30 5857 H 571.215 0.246353 5.7277 0
M  V30 5858 H 569.612 1.01517 5.91451 0
M  V30 5859 H 570.682 1.53446 4.59981 0
M  V30 5860 N 572.025 -1.5352 0.356285 0
M  V30 5861 C 572.988 -2.24071 -0.482182 0
M  V30 5862 C 573.988 -1.24531 -1.01729 0
M  V30 5863 O 575.178 -1.48876 -0.904513 0
M  V30 5864 C 572.31 -2.97025 -1.67299 0
M  V30 5865 H 573.503 -2.99596 0.135031 0
M  V30 5866 H 571.056 -1.55928 0.107825 0
M  V30 5867 H 571.791 -2.25719 -2.32855 0
M  V30 5868 H 571.576 -3.7005 -1.29636 0
M  V30 5869 H 573.066 -3.50683 -2.26741 0
M  V30 5870 N 573.503 -0.0852151 -1.57369 0
M  V30 5871 C 574.413 0.891712 -2.16992 0
M  V30 5872 C 575.429 1.3174 -1.13669 0
M  V30 5873 O 576.605 1.38735 -1.45995 0
M  V30 5874 C 573.67 2.13635 -2.73059 0
M  V30 5875 C 572.731 1.7658 -3.91303 0
M  V30 5876 C 571.964 2.95111 -4.44686 0
M  V30 5877 O 572.187 4.09539 -3.97032 0
M  V30 5878 O 571.121 2.74149 -5.35841 0
M  V30 5879 H 574.947 0.414477 -3.00858 0
M  V30 5880 H 572.532 0.138598 -1.48756 0
M  V30 5881 H 574.414 2.86595 -3.08935 0
M  V30 5882 H 573.089 2.6043 -1.92244 0
M  V30 5883 H 571.996 1.00831 -3.60255 0
M  V30 5884 H 573.329 1.34557 -4.7345 0
M  V30 5885 N 574.981 1.5647 0.188427 0
M  V30 5886 C 576.23 1.80207 0.905995 0
M  V30 5887 C 576.543 0.659579 1.84144 0
M  V30 5888 O 577.749 0.781431 2.60011 0
M  V30 5889 C 576.205 3.19255 1.66145 0
M  V30 5890 C 575.813 4.41324 0.770504 0
M  V30 5891 C 577.557 3.52298 2.36826 0
M  V30 5892 C 575.464 5.71394 1.52521 0
M  V30 5893 H 574.394 0.671953 0.342045 0
M  V30 5894 H 577.045 1.82808 0.159164 0
M  V30 5895 H 575.427 3.10922 2.45242 0
M  V30 5896 H 576.601 4.60797 0.0177261 0
M  V30 5897 H 574.916 4.16035 0.174199 0
M  V30 5898 H 577.513 4.46715 2.93854 0
M  V30 5899 H 577.856 2.76359 3.11338 0
M  V30 5900 H 578.389 3.62108 1.6469 0
M  V30 5901 H 575.128 6.50316 0.82275 0
M  V30 5902 H 574.648 5.55928 2.25175 0
M  V30 5903 H 576.327 6.12747 2.07725 0
M  V30 5904 N 576.459 -0.456382 1.50847 0
M  V30 5905 C 577.736 -1.21739 1.53098 0
M  V30 5906 C 578.116 -2.09179 0.284132 0
M  V30 5907 O 577.464 -2.16466 -0.731773 0
M  V30 5908 C 577.674 -2.03573 2.83477 0
M  V30 5909 C 579.022 -2.61264 3.34703 0
M  V30 5910 O 580.046 -2.13802 2.84898 0
M  V30 5911 O 578.905 -3.47779 4.21559 0
M  V30 5912 H 575.999 -0.553219 0.614718 0
M  V30 5913 H 578.545 -0.467003 1.63148 0
M  V30 5914 H 577.317 -1.39232 3.65691 0
M  V30 5915 H 576.94 -2.85716 2.76499 0
M  V30 5916 N 577.937 -1.40673 -0.710563 0
M  V30 5917 C 579.165 -1.42547 -1.4996 0
M  V30 5918 C 579.58 -0.0265485 -1.88781 0
M  V30 5919 O 578.937 0.950694 -1.55782 0
M  V30 5920 C 578.988 -2.32071 -2.77173 0
M  V30 5921 O 578.709 -3.66518 -2.39992 0
M  V30 5922 C 580.21 -2.42591 -3.71032 0
M  V30 5923 H 577.43 -0.486025 -0.462623 0
M  V30 5924 H 579.974 -1.84783 -0.876102 0
M  V30 5925 H 578.129 -1.93184 -3.35795 0
M  V30 5926 H 578.543 -4.14115 -3.21884 0
M  V30 5927 H 580.017 -3.09429 -4.57119 0
M  V30 5928 H 580.494 -1.4525 -4.14486 0
M  V30 5929 H 581.1 -2.82051 -3.18319 0
M  V30 5930 N 579.415 0.9433 -1.26252 0
M  V30 5931 C 580.348 2.04162 -1.01946 0
M  V30 5932 C 581.326 1.62507 0.0550808 0
M  V30 5933 O 582.51 1.883 -0.0869025 0
M  V30 5934 C 579.637 3.34313 -0.54335 0
M  V30 5935 C 578.683 3.94939 -1.61013 0
M  V30 5936 S 579.516 4.29484 -3.19849 0
M  V30 5937 C 580.672 5.62738 -2.74001 0
M  V30 5938 H 580.905 2.24466 -1.94942 0
M  V30 5939 H 578.438 1.08441 -1.09909 0
M  V30 5940 H 580.396 4.09576 -0.275315 0
M  V30 5941 H 579.057 3.11957 0.36629 0
M  V30 5942 H 578.25 4.88812 -1.22795 0
M  V30 5943 H 577.852 3.26202 -1.82943 0
M  V30 5944 H 580.144 6.41356 -2.18333 0
M  V30 5945 H 581.087 6.05839 -3.66558 0
M  V30 5946 H 581.495 5.22514 -2.13634 0
M  V30 5947 N 580.893 1.08022 1.14757 0
M  V30 5948 C 582.142 0.802468 1.8505 0
M  V30 5949 C 582.455 -0.674061 1.83619 0
M  V30 5950 O 583.661 -1.06683 2.49662 0
M  V30 5951 C 582.117 1.38551 3.32162 0
M  V30 5952 C 581.725 2.89354 3.42021 0
M  V30 5953 C 583.469 1.18608 4.07594 0
M  V30 5954 C 581.376 3.40815 4.83321 0
M  V30 5955 H 580.306 0.296518 0.693248 0
M  V30 5956 H 582.957 1.30114 1.29393 0
M  V30 5957 H 581.339 0.814556 3.87532 0
M  V30 5958 H 582.513 3.52552 2.96722 0
M  V30 5959 H 580.828 3.08165 2.80041 0
M  V30 5960 H 583.425 1.54525 5.11885 0
M  V30 5961 H 583.768 0.125599 4.1611 0
M  V30 5962 H 584.301 1.72375 3.58513 0
M  V30 5963 H 581.04 4.46418 4.79991 0
M  V30 5964 H 580.56 2.82374 5.29174 0
M  V30 5965 H 582.239 3.37171 5.522 0
M  V30 5966 N 582.371 -1.3172 0.865308 0
M  V30 5967 C 583.782 -1.79104 0.527126 0
M  V30 5968 C 584.133 -1.7135 -0.955695 0
M  V30 5969 O 583.258 -1.27845 -1.74598 0
M  V30 5970 C 583.853 -3.25207 0.950061 0
M  V30 5971 C 582.412 -3.70504 0.663611 0
M  V30 5972 C 581.559 -2.52605 1.14395 0
M  V30 5973 H 584.51 -1.18868 1.05148 0
M  V30 5974 H 584.531 -3.79535 0.270805 0
M  V30 5975 H 584.043 -3.30818 2.02931 0
M  V30 5976 H 582.144 -3.70398 -0.404474 0
M  V30 5977 H 582.257 -4.62845 1.23737 0
M  V30 5978 H 580.621 -2.4838 0.563859 0
M  V30 5979 H 581.404 -2.60964 2.23053 0
M  V30 5980 N 583.85 -0.624285 -1.44708 0
M  V30 5981 C 585.096 -0.126051 -2.02107 0
M  V30 5982 C 585.425 1.2496 -1.49048 0
M  V30 5983 O 584.68 1.84163 -0.662005 0
M  V30 5984 C 584.979 -0.0546353 -3.57358 0
M  V30 5985 C 584.644 -1.36815 -4.29642 0
M  V30 5986 C 583.307 -1.72792 -4.49106 0
M  V30 5987 C 585.659 -2.23549 -4.70824 0
M  V30 5988 C 582.986 -2.95222 -5.07012 0
M  V30 5989 C 585.339 -3.45243 -5.30085 0
M  V30 5990 C 584.003 -3.81452 -5.47769 0
M  V30 5991 H 583.273 -0.0461252 -0.739563 0
M  V30 5992 H 585.92 -0.809236 -1.73562 0
M  V30 5993 H 584.225 0.711891 -3.85278 0
M  V30 5994 H 585.922 0.347282 -3.99493 0
M  V30 5995 H 582.512 -1.07817 -4.14817 0
M  V30 5996 H 586.696 -1.9705 -4.55505 0
M  V30 5997 H 581.952 -3.23361 -5.18891 0
M  V30 5998 H 586.125 -4.12689 -5.60946 0
M  V30 5999 H 583.753 -4.76403 -5.92405 0
M  V30 6000 N 585.328 1.53329 -0.364422 0
M  V30 6001 C 586.605 1.93557 0.281962 0
M  V30 6002 C 586.985 1.29786 1.6649 0
M  V30 6003 O 586.333 0.456512 2.23893 0
M  V30 6004 C 586.543 3.47405 0.333331 0
M  V30 6005 C 587.891 4.20699 0.574231 0
M  V30 6006 O 588.915 3.53779 0.414588 0
M  V30 6007 O 587.774 5.39287 0.885002 0
M  V30 6008 H 584.868 0.809573 0.168881 0
M  V30 6009 H 587.414 1.64494 -0.417121 0
M  V30 6010 H 586.186 3.86091 -0.636326 0
M  V30 6011 H 585.809 3.82697 1.07836 0
M  V30 6012 N 586.806 0.0935595 1.57322 0
M  V30 6013 C 587.736 -0.863062 2.16964 0
M  V30 6014 C 588.717 -1.29528 1.10256 0
M  V30 6015 O 589.902 -1.36245 1.38387 0
M  V30 6016 C 587.032 -2.12276 2.74875 0
M  V30 6017 C 585.986 -1.82921 3.86942 0
M  V30 6018 C 585.312 -3.15707 4.31548 0
M  V30 6019 C 586.612 -1.11737 5.10208 0
M  V30 6020 H 588.306 -0.366145 2.97153 0
M  V30 6021 H 585.852 -0.174673 1.42937 0
M  V30 6022 H 587.805 -2.79634 3.1525 0
M  V30 6023 H 586.529 -2.64248 1.91938 0
M  V30 6024 H 585.188 -1.17961 3.47103 0
M  V30 6025 H 584.836 -3.65563 3.45504 0
M  V30 6026 H 584.536 -2.96849 5.07104 0
M  V30 6027 H 586.06 -3.84226 4.74555 0
M  V30 6028 H 587.474 -1.69203 5.47762 0
M  V30 6029 H 585.871 -1.03064 5.91183 0
M  V30 6030 H 586.941 -0.0998818 4.84797 0
M  V30 6031 N 588.284 -1.56567 -0.180126 0
M  V30 6032 C 589.509 -1.85975 -0.918041 0
M  V30 6033 C 589.934 -0.678888 -1.75422 0
M  V30 6034 O 589.292 0.372168 -1.77439 0
M  V30 6035 C 589.34 -3.13731 -1.77779 0
M  V30 6036 O 588.444 -2.95335 -2.87838 0
M  V30 6037 H 587.785 -0.61196 -0.257683 0
M  V30 6038 H 590.315 -2.03798 -0.180923 0
M  V30 6039 H 590.325 -3.4491 -2.17948 0
M  V30 6040 H 589 -3.99293 -1.16352 0
M  V30 6041 H 587.577 -2.7549 -2.51316 0
M  V30 6042 N 589.762 0.448376 -1.51087 0
M  V30 6043 C 590.725 1.52588 -1.71025 0
M  V30 6044 C 591.725 1.49958 -0.580442 0
M  V30 6045 O 592.915 1.52176 -0.847833 0
M  V30 6046 C 590.047 2.92163 -1.75652 0
M  V30 6047 H 591.24 1.36218 -2.67179 0
M  V30 6048 H 588.793 0.676313 -1.4091 0
M  V30 6049 H 589.528 3.13951 -0.812724 0
M  V30 6050 H 589.313 2.95478 -2.57751 0
M  V30 6051 H 590.803 3.70349 -1.92953 0
M  V30 6052 N 591.24 1.41047 0.703093 0
M  V30 6053 C 592.468 1.4334 1.49202 0
M  V30 6054 C 592.883 0.0365596 1.88765 0
M  V30 6055 O 592.24 -0.942419 1.56284 0
M  V30 6056 C 592.291 2.33538 2.75939 0
M  V30 6057 O 592.012 3.67786 2.38045 0
M  V30 6058 C 593.513 2.44555 3.6974 0
M  V30 6059 H 590.733 0.488472 0.460039 0
M  V30 6060 H 593.277 1.85245 0.86629 0
M  V30 6061 H 591.432 1.94962 3.34766 0
M  V30 6062 H 591.846 4.15816 3.19683 0
M  V30 6063 H 593.32 3.11849 4.55471 0
M  V30 6064 H 593.797 1.47447 4.1371 0
M  V30 6065 H 594.403 2.83735 3.16819 0
M  V30 6066 N 592.718 -0.936591 1.26751 0
M  V30 6067 C 593.665 -2.03597 1.08706 0
M  V30 6068 C 594.635 -1.66097 -0.00926542 0
M  V30 6069 O 595.82 -1.90199 0.151377 0
M  V30 6070 C 592.96 -3.3727 0.73094 0
M  V30 6071 C 592.073 -3.87778 1.90399 0
M  V30 6072 C 591.208 -5.09859 1.49056 0
M  V30 6073 C 590.247 -5.5264 2.63164 0
M  V30 6074 N 589.384 -6.65921 2.22471 0
M  V30 6075 H 594.224 -2.18364 2.02784 0
M  V30 6076 H 591.761 -1.06985 1.00958 0
M  V30 6077 H 593.719 -4.14128 0.505328 0
M  V30 6078 H 592.349 -3.22337 -0.172868 0
M  V30 6079 H 591.401 -3.07279 2.2424 0
M  V30 6080 H 592.713 -4.15464 2.76028 0
M  V30 6081 H 591.867 -5.9419 1.22567 0
M  V30 6082 H 590.606 -4.8393 0.60524 0
M  V30 6083 H 589.611 -4.66863 2.90377 0
M  V30 6084 H 590.836 -5.80568 3.52303 0
M  V30 6085 H 588.782 -6.41667 1.36379 0
M  V30 6086 H 588.699 -6.93216 3.01641 0
M  V30 6087 H 589.967 -7.53616 1.99205 0
M  V30 6088 N 594.196 -1.08629 -1.14182 0
M  V30 6089 C 595.143 -0.718299 -2.19338 0
M  V30 6090 C 596.113 0.296587 -1.63431 0
M  V30 6091 O 597.298 0.180079 -1.89948 0
M  V30 6092 C 594.438 -0.136203 -3.44831 0
M  V30 6093 C 593.551 -1.20414 -4.14879 0
M  V30 6094 C 592.686 -0.585666 -5.27962 0
M  V30 6095 C 591.725 -1.63548 -5.89846 0
M  V30 6096 N 590.862 -1.03864 -6.94375 0
M  V30 6097 H 595.702 -1.61932 -2.50164 0
M  V30 6098 H 593.239 -0.80919 -1.22844 0
M  V30 6099 H 595.197 0.219021 -4.16625 0
M  V30 6100 H 593.827 0.728121 -3.14481 0
M  V30 6101 H 592.879 -1.67676 -3.41451 0
M  V30 6102 H 594.191 -1.99959 -4.56966 0
M  V30 6103 H 593.345 -0.178818 -6.06436 0
M  V30 6104 H 592.084 0.24142 -4.87102 0
M  V30 6105 H 591.089 -2.05197 -5.10073 0
M  V30 6106 H 592.314 -2.46509 -6.3278 0
M  V30 6107 H 590.26 -0.232687 -6.55587 0
M  V30 6108 H 590.177 -1.77116 -7.3496 0
M  V30 6109 H 591.445 -0.657724 -7.7672 0
M  V30 6110 N 595.674 1.31259 -0.872281 0
M  V30 6111 C 596.622 2.30404 -0.318897 0
M  V30 6112 C 597.616 1.5962 0.567267 0
M  V30 6113 O 598.822 1.74204 0.453111 0
M  V30 6114 H 595.197 0.747243 -0.0844474 0
M  V30 6115 H 597.168 2.74549 -1.16899 0
M  V30 6116 C 595.917 3.44608 0.462683 0
M  V30 6117 H 595.24 3.99248 -0.209936 0
M  V30 6118 H 596.68 4.1609 0.815187 0
M  V30 6119 C 595.139 2.93456 1.65485 0
M  V30 6120 O 595.669 2.92418 2.75417 0
M  V30 6121 N 593.875 2.49628 1.48776 0
M  V30 6122 H 593.422 2.50671 0.593452 0
M  V30 6123 H 593.38 2.15759 2.28682 0
M  V30 6124 N 597.152 0.631951 1.44375 0
M  V30 6125 C 598.38 0.143867 2.06399 0
M  V30 6126 C 598.795 -1.18188 1.47231 0
M  V30 6127 O 598.152 -1.72511 0.595498 0
M  V30 6128 C 598.203 0.0238253 3.61492 0
M  V30 6129 O 597.924 1.29715 4.18456 0
M  V30 6130 C 599.425 -0.492856 4.40552 0
M  V30 6131 H 596.645 0.0800542 0.666207 0
M  V30 6132 H 599.189 0.866586 1.85231 0
M  V30 6133 H 597.344 -0.649338 3.81919 0
M  V30 6134 H 597.758 1.14252 5.11905 0
M  V30 6135 H 599.232 -0.525861 5.49489 0
M  V30 6136 H 599.709 -1.52006 4.12057 0
M  V30 6137 H 600.315 0.147085 4.25046 0
M  V30 6138 N 598.631 -1.53133 0.372548 0
M  V30 6139 C 599.564 -2.22328 -0.514361 0
M  V30 6140 C 600.542 -1.21776 -1.07747 0
M  V30 6141 O 601.726 -1.50704 -1.13228 0
M  V30 6142 C 598.853 -2.92343 -1.71035 0
M  V30 6143 C 597.899 -4.07026 -1.27405 0
M  V30 6144 S 598.732 -5.34821 -0.269526 0
M  V30 6145 C 599.888 -6.08352 -1.47168 0
M  V30 6146 H 600.121 -2.9721 0.0732683 0
M  V30 6147 H 597.654 -1.53603 0.156673 0
M  V30 6148 H 599.612 -3.33296 -2.39634 0
M  V30 6149 H 598.273 -2.17173 -2.26925 0
M  V30 6150 H 597.466 -4.55056 -2.16656 0
M  V30 6151 H 597.068 -3.68001 -0.66719 0
M  V30 6152 H 599.36 -6.33507 -2.40157 0
M  V30 6153 H 600.303 -7.0053 -1.03263 0
M  V30 6154 H 600.711 -5.38893 -1.6809 0
M  V30 6155 N 600.109 -0.101901 -1.5727 0
M  V30 6156 C 601.019 0.868647 -2.17926 0
M  V30 6157 C 602.035 1.30527 -1.1506 0
M  V30 6158 O 603.211 1.37178 -1.47459 0
M  V30 6159 C 600.276 2.10727 -2.75309 0
M  V30 6160 C 599.337 1.7242 -3.93154 0
M  V30 6161 C 598.57 2.90377 -4.47791 0
M  V30 6162 O 598.793 4.05305 -4.01353 0
M  V30 6163 O 597.727 2.6845 -5.38719 0
M  V30 6164 H 601.553 0.382544 -3.01281 0
M  V30 6165 H 599.138 0.122812 -1.48894 0
M  V30 6166 H 601.02 2.83303 -3.11958 0
M  V30 6167 H 599.695 2.58376 -1.94996 0
M  V30 6168 H 598.602 0.970039 -3.61305 0
M  V30 6169 H 599.935 1.29528 -4.74851 0
M  V30 6170 N 601.587 1.56661 0.17182 0
M  V30 6171 C 602.52 1.91474 1.24149 0
M  V30 6172 C 603.498 0.777485 1.42807 0
M  V30 6173 O 604.682 1.03075 1.57822 0
M  V30 6174 C 601.809 2.16523 2.60453 0
M  V30 6175 C 600.855 3.39209 2.58533 0
M  V30 6176 S 601.688 4.93594 2.07665 0
M  V30 6177 C 602.844 5.21737 3.45747 0
M  V30 6178 H 603.077 2.81903 0.944346 0
M  V30 6179 H 600.61 1.49743 0.376364 0
M  V30 6180 H 602.568 2.31635 3.38903 0
M  V30 6181 H 601.229 1.26802 2.87368 0
M  V30 6182 H 600.422 3.53935 3.58812 0
M  V30 6183 H 600.024 3.2321 1.88178 0
M  V30 6184 H 602.316 5.13684 4.41741 0
M  V30 6185 H 603.259 6.23361 3.35896 0
M  V30 6186 H 603.667 4.49307 3.41736 0
M  V30 6187 N 603.065 -0.440357 1.51323 0
M  V30 6188 C 604.295 -1.21079 1.67402 0
M  V30 6189 C 604.703 -1.85555 0.369599 0
M  V30 6190 O 604.046 -1.71375 -0.661525 0
M  V30 6191 C 604.108 -2.33839 2.73056 0
M  V30 6192 C 603.772 -1.89755 4.15743 0
M  V30 6193 C 604.769 -1.40268 5.0062 0
M  V30 6194 C 602.454 -1.97539 4.61826 0
M  V30 6195 C 604.448 -0.991474 6.29642 0
M  V30 6196 C 602.135 -1.56029 5.90845 0
M  V30 6197 C 603.133 -1.06915 6.7458 0
M  V30 6198 O 602.821 -0.659933 8.01187 0
M  V30 6199 H 602.553 -0.371133 0.56501 0
M  V30 6200 H 605.107 -0.528409 1.98487 0
M  V30 6201 H 603.337 -3.05345 2.37279 0
M  V30 6202 H 605.026 -2.95713 2.78044 0
M  V30 6203 H 605.792 -1.33652 4.66221 0
M  V30 6204 H 601.671 -2.34713 3.96776 0
M  V30 6205 H 605.215 -0.607425 6.9495 0
M  V30 6206 H 601.112 -1.62315 6.24759 0
M  V30 6207 H 601.88 -0.786052 8.14717 0
M  V30 6208 N 604.543 -1.41418 -0.695603 0
M  V30 6209 C 605.959 -1.23887 -1.00619 0
M  V30 6210 C 606.159 -0.128206 -2.01092 0
M  V30 6211 O 605.215 0.507408 -2.47349 0
M  V30 6212 C 606.528 -2.58816 -1.53083 0
M  V30 6213 C 608.076 -2.65998 -1.64967 0
M  V30 6214 C 608.551 -4.01244 -2.20833 0
M  V30 6215 N 610.042 -4.0309 -2.28194 0
M  V30 6216 C 610.777 -5.04539 -2.72448 0
M  V30 6217 N 610.273 -6.16378 -3.16306 0
M  V30 6218 N 612.066 -4.91901 -2.72011 0
M  V30 6219 H 604.217 -2.12379 -0.0300061 0
M  V30 6220 H 606.48 -0.944958 -0.0758797 0
M  V30 6221 H 606.186 -3.40842 -0.867147 0
M  V30 6222 H 606.06 -2.81299 -2.51298 0
M  V30 6223 H 608.447 -1.84331 -2.30448 0
M  V30 6224 H 608.528 -2.47325 -0.652982 0
M  V30 6225 H 608.172 -4.83359 -1.55968 0
M  V30 6226 H 608.102 -4.17257 -3.21254 0
M  V30 6227 H 610.593 -3.22341 -1.97242 0
M  V30 6228 H 610.906 -6.89658 -3.487 0
M  V30 6229 H 609.251 -6.19914 -3.14215 0
M  V30 6230 H 612.442 -4.03613 -2.37095 0
M  V30 6231 H 612.615 -5.71102 -3.06181 0
M  V30 6232 N 606.021 0.929856 -1.27246 0
M  V30 6233 C 607.267 1.6798 -1.13625 0
M  V30 6234 C 607.6 1.91586 0.317589 0
M  V30 6235 O 606.875 1.50467 1.23247 0
M  V30 6236 C 607.158 3.04766 -1.91806 0
M  V30 6237 C 607.011 2.88415 -3.45162 0
M  V30 6238 C 608.33 4.05063 -1.72082 0
M  V30 6239 H 605.449 0.609632 -0.414147 0
M  V30 6240 H 608.091 1.0792 -1.56376 0
M  V30 6241 H 606.241 3.56034 -1.55474 0
M  V30 6242 H 607.913 2.44282 -3.91311 0
M  V30 6243 H 606.156 2.23802 -3.71611 0
M  V30 6244 H 606.827 3.85482 -3.95105 0
M  V30 6245 H 609.303 3.62798 -2.03757 0
M  V30 6246 H 608.179 4.98765 -2.29182 0
M  V30 6247 H 608.44 4.37021 -0.668206 0
M  V30 6248 N 607.499 1.09233 1.13605 0
M  V30 6249 C 608.915 0.82163 1.36826 0
M  V30 6250 C 609.115 -0.565021 1.93416 0
M  V30 6251 O 608.171 -1.32026 2.15234 0
M  V30 6252 C 609.484 1.91124 2.32147 0
M  V30 6253 C 611.032 1.93824 2.45767 0
M  V30 6254 C 611.507 3.01923 3.44393 0
M  V30 6255 N 612.998 3.01149 3.51942 0
M  V30 6256 C 613.733 3.81434 4.2813 0
M  V30 6257 N 613.229 4.71621 5.07489 0
M  V30 6258 N 615.022 3.69702 4.23411 0
M  V30 6259 H 607.173 1.98633 0.752234 0
M  V30 6260 H 609.436 0.862482 0.393482 0
M  V30 6261 H 609.142 2.90862 1.97717 0
M  V30 6262 H 609.016 1.78777 3.32142 0
M  V30 6263 H 611.403 0.94726 2.79483 0
M  V30 6264 H 611.484 2.10248 1.45703 0
M  V30 6265 H 611.128 4.01232 3.11408 0
M  V30 6266 H 611.058 2.82742 4.44257 0
M  V30 6267 H 613.549 2.35789 2.95317 0
M  V30 6268 H 613.862 5.29468 5.62924 0
M  V30 6269 H 612.207 4.75658 5.06729 0
M  V30 6270 H 615.398 2.98606 3.60489 0
M  V30 6271 H 615.571 4.32509 4.82535 0
M  V30 6272 N 608.977 -1.30795 0.87923 0
M  V30 6273 C 609.907 -2.30742 0.357796 0
M  V30 6274 C 610.888 -1.60747 -0.556283 0
M  V30 6275 O 612.073 -1.88393 -0.47135 0
M  V30 6276 C 609.203 -3.44583 -0.433555 0
M  V30 6277 C 608.157 -4.26235 0.388251 0
M  V30 6278 C 607.483 -5.32073 -0.529352 0
M  V30 6279 C 608.783 -4.96303 1.62729 0
M  V30 6280 H 610.477 -2.74605 1.19299 0
M  V30 6281 H 608.023 -1.32017 0.575104 0
M  V30 6282 H 609.976 -4.13563 -0.808934 0
M  V30 6283 H 608.7 -2.99511 -1.30234 0
M  V30 6284 H 607.359 -3.58936 0.745695 0
M  V30 6285 H 607.007 -4.83249 -1.39569 0
M  V30 6286 H 606.707 -5.87598 0.0166741 0
M  V30 6287 H 608.231 -6.0391 -0.901373 0
M  V30 6288 H 609.645 -5.5783 1.32283 0
M  V30 6289 H 608.042 -5.61666 2.11309 0
M  V30 6290 H 609.112 -4.22758 2.37494 0
M  V30 6291 N 610.455 -0.639598 -1.44038 0
M  V30 6292 C 611.68 -0.153117 -2.06834 0
M  V30 6293 C 612.105 1.16676 -1.47541 0
M  V30 6294 O 611.463 1.71769 -0.580093 0
M  V30 6295 C 611.511 -0.0609169 -3.60549 0
M  V30 6296 O 610.615 0.98071 -4.00569 0
M  V30 6297 H 609.956 -0.0886402 -0.658057 0
M  V30 6298 H 612.486 -0.878674 -1.84771 0
M  V30 6299 H 612.496 0.126892 -4.07803 0
M  V30 6300 H 611.171 -1.0245 -4.03084 0
M  V30 6301 H 609.748 0.766789 -3.64931 0
M  V30 6302 N 611.933 1.52934 -0.380664 0
M  V30 6303 C 613.21 1.93845 0.261417 0
M  V30 6304 C 613.59 1.31544 1.65104 0
M  V30 6305 O 612.938 0.480234 2.23397 0
M  V30 6306 C 613.148 3.47739 0.296466 0
M  V30 6307 C 614.496 4.21284 0.529578 0
M  V30 6308 O 615.52 3.54199 0.377041 0
M  V30 6309 O 614.379 5.40195 0.827753 0
M  V30 6310 H 611.473 0.811318 0.160285 0
M  V30 6311 H 614.019 1.64042 -0.434544 0
M  V30 6312 H 612.791 3.85395 -0.67724 0
M  V30 6313 H 612.414 3.8382 1.0377 0
M  V30 6314 N 613.412 0.11024 1.57214 0
M  V30 6315 C 614.359 -0.843195 2.14846 0
M  V30 6316 C 615.329 -1.26954 1.07107 0
M  V30 6317 O 616.514 -1.34861 1.34971 0
M  V30 6318 C 613.654 -2.09123 2.74521 0
M  V30 6319 C 612.767 -1.71404 3.96541 0
M  V30 6320 C 611.902 -2.91107 4.44331 0
M  V30 6321 C 610.941 -2.49586 5.58903 0
M  V30 6322 N 610.078 -3.62175 6.01477 0
M  V30 6323 H 614.918 -0.344886 2.95998 0
M  V30 6324 H 612.455 -0.15855 1.46243 0
M  V30 6325 H 614.413 -2.82234 3.07246 0
M  V30 6326 H 613.043 -2.56427 1.96074 0
M  V30 6327 H 612.095 -0.88201 3.70033 0
M  V30 6328 H 613.407 -1.36884 4.7965 0
M  V30 6329 H 612.561 -3.72454 4.78919 0
M  V30 6330 H 611.3 -3.28848 3.60153 0
M  V30 6331 H 610.305 -1.6667 5.23929 0
M  V30 6332 H 611.53 -2.12973 6.4484 0
M  V30 6333 H 609.476 -3.99605 5.20242 0
M  V30 6334 H 609.393 -3.3155 6.79419 0
M  V30 6335 H 610.661 -4.43987 6.407 0
M  V30 6336 N 614.89 -1.56749 -0.16351 0
M  V30 6337 C 616.301 -1.72039 -0.725216 0
M  V30 6338 C 616.652 -0.72202 -1.82432 0
M  V30 6339 O 615.777 0.114942 -2.16095 0
M  V30 6340 C 616.372 -3.11932 -1.32227 0
M  V30 6341 C 614.931 -3.28879 -1.83072 0
M  V30 6342 C 614.078 -2.67984 -0.712716 0
M  V30 6343 H 617.029 -1.58579 0.0619772 0
M  V30 6344 H 617.05 -3.11015 -2.19202 0
M  V30 6345 H 616.562 -3.84572 -0.522103 0
M  V30 6346 H 614.663 -2.61209 -2.65708 0
M  V30 6347 H 614.776 -4.36688 -1.97079 0
M  V30 6348 H 613.14 -2.28005 -1.13515 0
M  V30 6349 H 613.923 -3.43216 0.0757361 0
M  V30 6350 N 616.368 0.432326 -1.51554 0
M  V30 6351 C 617.318 1.52366 -1.69614 0
M  V30 6352 C 618.302 1.51205 -0.550083 0
M  V30 6353 O 619.494 1.57573 -0.806206 0
M  V30 6354 C 616.623 2.90513 -1.82913 0
M  V30 6355 C 615.709 2.9641 -3.03318 0
M  V30 6356 N 616.1 2.72043 -4.26411 0
M  V30 6357 C 614.398 3.27572 -3.02675 0
M  V30 6358 C 615.099 2.83912 -5.07709 0
M  V30 6359 N 614.075 3.15798 -4.42462 0
M  V30 6360 H 617.877 1.32285 -2.62446 0
M  V30 6361 H 615.391 0.639708 -1.4927 0
M  V30 6362 H 617.388 3.69032 -1.93962 0
M  V30 6363 H 616.048 3.1161 -0.912655 0
M  V30 6364 H 617.059 2.46876 -4.55272 0
M  V30 6365 H 613.736 3.54411 -2.20678 0
M  V30 6366 H 615.126 2.68984 -6.15709 0
M  V30 6367 N 617.846 1.41785 0.688094 0
M  V30 6368 C 619.074 1.44915 1.47673 0
M  V30 6369 C 619.489 0.0565786 1.88715 0
M  V30 6370 O 618.846 -0.92579 1.57275 0
M  V30 6371 C 618.897 2.36452 2.73446 0
M  V30 6372 O 618.618 3.7029 2.34131 0
M  V30 6373 C 620.119 2.48463 3.67125 0
M  V30 6374 H 617.339 0.493324 0.454832 0
M  V30 6375 H 619.883 1.86153 0.846594 0
M  V30 6376 H 618.038 1.98502 3.3268 0
M  V30 6377 H 618.452 4.19183 3.15255 0
M  V30 6378 H 619.926 3.16662 4.52138 0
M  V30 6379 H 620.403 1.51826 4.12123 0
M  V30 6380 H 621.009 2.8708 3.13792 0
M  V30 6381 N 619.324 -0.923095 1.27737 0
M  V30 6382 C 620.601 -1.64989 1.05062 0
M  V30 6383 C 620.981 -2.07018 -0.413124 0
M  V30 6384 O 620.329 -1.80797 -1.39731 0
M  V30 6385 C 620.539 -2.84847 2.01652 0
M  V30 6386 C 621.887 -3.56083 2.31279 0
M  V30 6387 O 622.911 -2.94981 1.99662 0
M  V30 6388 O 621.77 -4.66182 2.85196 0
M  V30 6389 H 618.864 -0.723357 0.400853 0
M  V30 6390 H 621.41 -0.973224 1.3902 0
M  V30 6391 H 620.182 -2.50814 3.00347 0
M  V30 6392 H 619.805 -3.60231 1.68284 0
M  V30 6393 N 620.802 -1.09834 -1.13024 0
M  V30 6394 C 622.079 -0.749225 -1.80682 0
M  V30 6395 C 622.459 0.765171 -1.96744 0
M  V30 6396 O 621.807 1.68912 -1.53886 0
M  V30 6397 C 622.017 -1.49311 -3.15448 0
M  V30 6398 C 623.365 -1.66162 -3.90737 0
M  V30 6399 O 624.389 -1.45597 -3.25085 0
M  V30 6400 O 623.248 -2.00211 -5.08505 0
M  V30 6401 H 620.342 -0.269614 -0.781817 0
M  V30 6402 H 622.888 -1.20078 -1.19914 0
M  V30 6403 H 621.66 -2.52407 -2.99009 0
M  V30 6404 H 621.283 -1.034 -3.8392 0
M  V30 6405 N 622.28 1.30327 -0.886154 0
M  V30 6406 C 623.691 1.78243 -0.555554 0
M  V30 6407 C 624.042 1.72849 0.928314 0
M  V30 6408 O 623.167 1.30607 1.72542 0
M  V30 6409 C 623.762 3.23654 -1.00168 0
M  V30 6410 C 622.321 3.69401 -0.722471 0
M  V30 6411 C 621.468 2.50753 -1.18399 0
M  V30 6412 H 624.419 1.1718 -1.07026 0
M  V30 6413 H 624.44 3.79056 -0.331152 0
M  V30 6414 H 623.952 3.27548 -2.08169 0
M  V30 6415 H 622.053 3.70995 0.345496 0
M  V30 6416 H 622.166 4.60818 -1.31085 0
M  V30 6417 H 620.53 2.47452 -0.603303 0
M  V30 6418 H 621.313 2.57383 -2.27176 0
M  V30 6419 N 623.758 0.647228 1.43697 0
M  V30 6420 C 625.007 0.155552 2.01099 0
M  V30 6421 C 625.32 -1.23569 1.51624 0
M  V30 6422 O 626.526 -1.82226 2.01261 0
M  V30 6423 C 624.982 0.227296 3.59182 0
M  V30 6424 C 624.59 1.62086 4.17651 0
M  V30 6425 C 626.334 -0.207085 4.23995 0
M  V30 6426 C 624.241 1.64685 5.68008 0
M  V30 6427 H 623.171 0.0543895 0.752036 0
M  V30 6428 H 625.822 0.808386 1.64734 0
M  V30 6429 H 624.204 -0.492937 3.9292 0
M  V30 6430 H 625.378 2.36597 3.95422 0
M  V30 6431 H 623.693 2.0007 3.65186 0
M  V30 6432 H 626.29 -0.207426 5.34298 0
M  V30 6433 H 626.633 -1.23742 3.97484 0
M  V30 6434 H 627.166 0.461193 3.95118 0
M  V30 6435 H 623.905 2.65608 5.99277 0
M  V30 6436 H 623.425 0.944914 5.9231 0
M  V30 6437 H 625.104 1.38792 6.31938 0
M  V30 6438 N 625.236 -1.5273 0.388769 0
M  V30 6439 C 626.166 -2.29353 -0.438111 0
M  V30 6440 C 627.147 -1.32719 -1.06394 0
M  V30 6441 O 628.332 -1.61612 -1.07681 0
M  V30 6442 C 625.462 -3.09995 -1.56589 0
M  V30 6443 C 624.416 -4.14509 -1.06613 0
M  V30 6444 C 623.742 -4.83372 -2.28594 0
M  V30 6445 C 625.042 -5.22127 -0.134459 0
M  V30 6446 H 626.736 -2.98723 0.201206 0
M  V30 6447 H 624.282 -1.43665 0.0982089 0
M  V30 6448 H 626.235 -3.62357 -2.15118 0
M  V30 6449 H 624.959 -2.38357 -2.23279 0
M  V30 6450 H 623.618 -3.63128 -0.503383 0
M  V30 6451 H 623.266 -4.08283 -2.93792 0
M  V30 6452 H 622.966 -5.54012 -1.95817 0
M  V30 6453 H 624.49 -5.38538 -2.87766 0
M  V30 6454 H 625.904 -5.69851 -0.627914 0
M  V30 6455 H 624.301 -6.00011 0.103534 0
M  V30 6456 H 625.371 -4.77971 0.816798 0
M  V30 6457 N 626.714 -0.118576 -1.57153 0
M  V30 6458 C 627.954 0.542618 -1.97066 0
M  V30 6459 C 628.318 1.63874 -1.00046 0
M  V30 6460 O 629.519 2.3588 -1.28895 0
M  V30 6461 C 627.79 1.06196 -3.41258 0
M  V30 6462 S 629.349 1.73174 -4.03183 0
M  V30 6463 H 626.167 0.17638 -0.688775 0
M  V30 6464 H 628.769 -0.203556 -1.94437 0
M  V30 6465 H 627.473 0.253016 -4.09619 0
M  V30 6466 H 627.004 1.84342 -3.47536 0
M  V30 6467 H 629.019 3.01749 -3.93906 0
M  V30 6468 N 628.193 1.56834 0.155195 0
M  V30 6469 C 629.123 2.00678 1.19376 0
M  V30 6470 C 630.104 0.884973 1.45266 0
M  V30 6471 O 631.289 1.1522 1.56326 0
M  V30 6472 C 628.419 2.38042 2.5289 0
M  V30 6473 C 627.373 3.53332 2.41538 0
M  V30 6474 C 626.699 3.76485 3.79688 0
M  V30 6475 C 627.999 4.86265 1.9064 0
M  V30 6476 H 629.693 2.87688 0.829232 0
M  V30 6477 H 627.239 1.38407 0.397445 0
M  V30 6478 H 629.192 2.67314 3.25763 0
M  V30 6479 H 627.916 1.4796 2.91162 0
M  V30 6480 H 626.575 3.24213 1.71117 0
M  V30 6481 H 626.223 2.83667 4.15382 0
M  V30 6482 H 625.923 4.54068 3.72956 0
M  V30 6483 H 627.447 4.08174 4.54122 0
M  V30 6484 H 628.861 5.14308 2.53299 0
M  V30 6485 H 627.258 5.67597 1.94818 0
M  V30 6486 H 628.328 4.77184 0.861596 0
M  V30 6487 N 629.671 -0.424282 1.51781 0
M  V30 6488 C 630.896 -1.19928 1.6921 0
M  V30 6489 C 631.321 -1.8392 0.394355 0
M  V30 6490 O 630.679 -1.69371 -0.646778 0
M  V30 6491 C 630.727 -2.24937 2.81843 0
M  V30 6492 O 629.831 -3.3073 2.46356 0
M  V30 6493 H 629.172 -0.35078 0.563781 0
M  V30 6494 H 631.702 -0.499401 1.98412 0
M  V30 6495 H 631.712 -2.69512 3.06312 0
M  V30 6496 H 630.387 -1.77742 3.76006 0
M  V30 6497 H 628.964 -2.9154 2.32505 0
M  V30 6498 N 631.149 -1.42148 -0.680565 0
M  V30 6499 C 632.079 -1.4796 -1.80638 0
M  V30 6500 C 633.06 -0.336728 -1.66734 0
M  V30 6501 O 634.245 -0.550247 -1.86242 0
M  V30 6502 C 631.375 -1.37569 -3.18892 0
M  V30 6503 C 630.329 -2.49823 -3.47524 0
M  V30 6504 C 629.655 -2.24491 -4.85291 0
M  V30 6505 C 630.955 -3.92144 -3.44994 0
M  V30 6506 H 632.649 -2.42184 -1.76032 0
M  V30 6507 H 630.195 -1.16566 -0.845481 0
M  V30 6508 H 632.148 -1.40243 -3.97379 0
M  V30 6509 H 630.872 -0.398357 -3.24162 0
M  V30 6510 H 629.531 -2.46455 -2.71395 0
M  V30 6511 H 629.179 -1.25066 -4.87204 0
M  V30 6512 H 628.879 -2.99722 -5.05411 0
M  V30 6513 H 630.403 -2.28906 -5.66069 0
M  V30 6514 H 631.817 -3.97145 -4.13459 0
M  V30 6515 H 630.214 -4.67179 -3.76648 0
M  V30 6516 H 631.284 -4.19225 -2.43676 0
M  V30 6517 N 632.627 0.916307 -1.28225 0
M  V30 6518 C 633.852 1.7043 -1.18188 0
M  V30 6519 C 634.277 1.86346 0.256274 0
M  V30 6520 O 633.635 1.37175 1.18544 0
M  V30 6521 C 633.683 3.07546 -1.88275 0
M  V30 6522 O 632.787 3.94904 -1.18848 0
M  V30 6523 H 632.128 0.521967 -0.410423 0
M  V30 6524 H 634.658 1.14589 -1.69501 0
M  V30 6525 H 634.668 3.57793 -1.96082 0
M  V30 6526 H 633.343 2.95279 -2.92887 0
M  V30 6527 H 631.92 3.53339 -1.19187 0
M  V30 6528 N 634.105 1.10431 1.1244 0
M  V30 6529 C 635.516 0.864439 1.65482 0
M  V30 6530 C 635.867 -0.60527 1.8663 0
M  V30 6531 O 634.992 -1.46492 1.59276 0
M  V30 6532 C 635.587 1.56267 3.0061 0
M  V30 6533 C 634.146 1.3695 3.50602 0
M  V30 6534 C 633.293 1.61209 2.25626 0
M  V30 6535 H 636.244 1.26203 0.962209 0
M  V30 6536 H 636.265 1.00166 3.67079 0
M  V30 6537 H 635.777 2.63231 2.85186 0
M  V30 6538 H 633.878 0.321481 3.71211 0
M  V30 6539 H 633.991 2.11143 4.30064 0
M  V30 6540 H 632.355 1.03482 2.32731 0
M  V30 6541 H 633.138 2.69425 2.12756 0
M  V30 6542 N 635.583 -1.29855 0.893053 0
M  V30 6543 C 636.546 -2.26183 0.370687 0
M  V30 6544 C 637.546 -1.53108 -0.491385 0
M  V30 6545 O 638.736 -1.71643 -0.297386 0
M  V30 6546 C 635.868 -3.37633 -0.470827 0
M  V30 6547 H 637.061 -2.73903 1.22135 0
M  V30 6548 H 634.614 -1.41183 0.67061 0
M  V30 6549 H 635.349 -2.95241 -1.34175 0
M  V30 6550 H 635.134 -3.91825 0.146784 0
M  V30 6551 H 636.624 -4.09313 -0.827825 0
M  V30 6552 N 637.061 -0.65484 -1.43351 0
M  V30 6553 C 638.286 -0.175046 -2.0666 0
M  V30 6554 C 638.711 1.15104 -1.4877 0
M  V30 6555 O 638.069 1.71144 -0.598279 0
M  V30 6556 C 638.117 -0.0991544 -3.60464 0
M  V30 6557 O 637.221 0.938169 -4.01587 0
M  V30 6558 H 636.562 -0.0956148 -0.65708 0
M  V30 6559 H 639.092 -0.898222 -1.83829 0
M  V30 6560 H 639.102 0.083632 -4.07914 0
M  V30 6561 H 637.777 -1.06719 -4.01975 0
M  V30 6562 H 636.354 0.72804 -3.65724 0
M  V30 6563 N 638.539 1.52521 -0.396863 0
M  V30 6564 C 639.816 1.94112 0.240842 0
M  V30 6565 C 640.196 1.33288 1.637 0
M  V30 6566 O 639.544 0.503901 2.22875 0
M  V30 6567 C 639.754 3.48033 0.259567 0
M  V30 6568 C 641.102 4.21822 0.484866 0
M  V30 6569 O 642.126 3.54579 0.339453 0
M  V30 6570 O 640.985 5.41042 0.770412 0
M  V30 6571 H 638.079 0.812973 0.151671 0
M  V30 6572 H 640.625 1.63572 -0.451918 0
M  V30 6573 H 639.397 3.84655 -0.718078 0
M  V30 6574 H 639.02 3.84899 0.996937 0
M  V30 6575 N 640.017 0.126909 1.57088 0
M  V30 6576 C 641.428 -0.397201 1.82426 0
M  V30 6577 C 641.779 -1.66084 1.04453 0
M  V30 6578 O 640.904 -2.14534 0.283552 0
M  V30 6579 C 641.499 -0.727411 3.30899 0
M  V30 6580 C 640.058 -1.19612 3.56889 0
M  V30 6581 C 639.205 -0.20885 2.76512 0
M  V30 6582 H 642.156 0.351924 1.54749 0
M  V30 6583 H 642.177 -1.58407 3.45959 0
M  V30 6584 H 641.689 0.19247 3.87622 0
M  V30 6585 H 639.79 -2.13263 3.05532 0
M  V30 6586 H 639.903 -1.13598 4.65438 0
M  V30 6587 H 638.267 -0.697479 2.44964 0
M  V30 6588 H 639.05 0.704267 3.35998 0
M  V30 6589 N 641.495 -1.56914 -0.146875 0
M  V30 6590 C 642.911 -1.51582 -0.499518 0
M  V30 6591 C 643.111 -0.83535 -1.83369 0
M  V30 6592 O 642.167 -0.405932 -2.49216 0
M  V30 6593 C 643.48 -2.96349 -0.509711 0
M  V30 6594 C 645.028 -3.07288 -0.595217 0
M  V30 6595 C 645.503 -4.53562 -0.636071 0
M  V30 6596 N 646.994 -4.57906 -0.69829 0
M  V30 6597 C 647.729 -5.68462 -0.750886 0
M  V30 6598 N 647.225 -6.88588 -0.76282 0
M  V30 6599 N 649.018 -5.56496 -0.791777 0
M  V30 6600 H 641.169 -1.99547 0.727656 0
M  V30 6601 H 643.432 -0.910113 0.265327 0
M  V30 6602 H 643.138 -3.4939 0.402409 0
M  V30 6603 H 643.012 -3.52307 -1.34758 0
M  V30 6604 H 645.399 -2.54266 -1.49776 0
M  V30 6605 H 645.48 -2.54373 0.2698 0
M  V30 6606 H 645.124 -5.07222 0.262313 0
M  V30 6607 H 645.054 -5.04259 -1.51758 0
M  V30 6608 H 647.545 -3.71429 -0.696362 0
M  V30 6609 H 647.858 -7.68598 -0.804804 0
M  V30 6610 H 646.203 -6.91148 -0.730694 0
M  V30 6611 H 649.394 -4.61562 -0.779624 0
M  V30 6612 H 649.567 -6.42671 -0.829301 0
M  V30 6613 N 642.974 0.416227 -1.52004 0
M  V30 6614 C 643.904 1.51365 -1.77795 0
M  V30 6615 C 644.885 1.58059 -0.628601 0
M  V30 6616 O 646.07 1.73447 -0.873478 0
M  V30 6617 C 643.2 2.89256 -1.92219 0
M  V30 6618 C 642.154 2.97415 -3.0778 0
M  V30 6619 C 641.48 4.37492 -3.07417 0
M  V30 6620 C 642.78 2.69551 -4.47369 0
M  V30 6621 H 644.474 1.30033 -2.69688 0
M  V30 6622 H 642.02 0.624112 -1.29772 0
M  V30 6623 H 643.973 3.66008 -2.08845 0
M  V30 6624 H 642.697 3.11866 -0.969917 0
M  V30 6625 H 641.356 2.23107 -2.90893 0
M  V30 6626 H 641.004 4.571 -2.09925 0
M  V30 6627 H 640.704 4.43877 -3.85029 0
M  V30 6628 H 642.228 5.16188 -3.26162 0
M  V30 6629 H 643.642 3.36028 -4.64497 0
M  V30 6630 H 642.039 2.87321 -5.26846 0
M  V30 6631 H 643.109 1.65029 -4.55953 0
M  V30 6632 N 644.452 1.42507 0.673017 0
M  V30 6633 C 645.677 1.4668 1.46627 0
M  V30 6634 C 646.102 0.080066 1.8793 0
M  V30 6635 O 645.46 -0.921879 1.56112 0
M  V30 6636 C 645.508 2.40091 2.69051 0
M  V30 6637 O 644.612 1.8735 3.67387 0
M  V30 6638 H 643.953 0.496908 0.44043 0
M  V30 6639 H 646.483 1.87215 0.825334 0
M  V30 6640 H 646.493 2.56731 3.17101 0
M  V30 6641 H 645.168 3.4084 2.3833 0
M  V30 6642 H 643.745 1.80274 3.26429 0
M  V30 6643 N 645.93 -0.909495 1.28709 0
M  V30 6644 C 646.88 -1.9991 1.09636 0
M  V30 6645 C 647.864 -1.60889 0.01872 0
M  V30 6646 O 649.056 -1.75374 0.239338 0
M  V30 6647 C 646.185 -3.34675 0.764702 0
M  V30 6648 C 645.271 -3.80085 1.8814 0
M  V30 6649 N 645.662 -3.97824 3.12361 0
M  V30 6650 C 643.96 -4.09278 1.77221 0
M  V30 6651 C 644.661 -4.35928 3.85151 0
M  V30 6652 N 643.637 -4.44426 3.13028 0
M  V30 6653 H 647.439 -2.11681 2.03883 0
M  V30 6654 H 644.953 -1.09763 1.1969 0
M  V30 6655 H 646.95 -4.12426 0.609132 0
M  V30 6656 H 645.61 -3.24255 -0.169952 0
M  V30 6657 H 646.621 -3.83626 3.47925 0
M  V30 6658 H 643.298 -4.0747 0.909621 0
M  V30 6659 H 644.688 -4.57581 4.92006 0
M  V30 6660 N 647.408 -1.11026 -1.11852 0
M  V30 6661 C 648.636 -0.878818 -1.87308 0
M  V30 6662 C 649.051 0.57111 -1.79955 0
M  V30 6663 O 648.408 1.39409 -1.17777 0
M  V30 6664 C 648.459 -1.3264 -3.36287 0
M  V30 6665 O 648.18 -2.71948 -3.43476 0
M  V30 6666 C 649.681 -1.12974 -4.28663 0
M  V30 6667 H 646.901 -0.315015 -0.592458 0
M  V30 6668 H 649.445 -1.47649 -1.41492 0
M  V30 6669 H 647.6 -0.772269 -3.79625 0
M  V30 6670 H 648.014 -2.91241 -4.3621 0
M  V30 6671 H 649.488 -1.49198 -5.31454 0
M  V30 6672 H 649.965 -0.0689127 -4.39146 0
M  V30 6673 H 650.571 -1.67064 -3.91113 0
M  V30 6674 N 648.886 1.2938 -0.899927 0
M  V30 6675 C 649.819 2.25911 -0.322386 0
M  V30 6676 C 650.797 1.52447 0.565567 0
M  V30 6677 O 651.981 1.81404 0.512324 0
M  V30 6678 C 649.108 3.3436 0.540455 0
M  V30 6679 C 648.154 4.25579 -0.280211 0
M  V30 6680 S 648.987 5.08526 -1.67814 0
M  V30 6681 C 650.143 6.20476 -0.822224 0
M  V30 6682 H 650.376 2.7455 -1.1406 0
M  V30 6683 H 647.909 1.37606 -0.700285 0
M  V30 6684 H 649.867 3.97303 1.0325 0
M  V30 6685 H 648.528 2.84416 1.33291 0
M  V30 6686 H 647.721 5.02574 0.378915 0
M  V30 6687 H 647.323 3.67287 -0.705405 0
M  V30 6688 H 649.615 6.77485 -0.0457138 0
M  V30 6689 H 650.558 6.90606 -1.56426 0
M  V30 6690 H 650.966 5.63243 -0.37651 0
M  V30 6691 N 650.364 0.662433 1.43002 0
M  V30 6692 C 651.294 -0.00979809 2.33498 0
M  V30 6693 C 652.275 -0.802329 1.49989 0
M  V30 6694 O 653.46 -0.761964 1.78627 0
M  V30 6695 C 650.59 -0.970446 3.33466 0
M  V30 6696 C 649.544 -0.287383 4.27034 0
M  V30 6697 C 648.87 -1.36012 5.17112 0
M  V30 6698 C 650.17 0.82595 5.15728 0
M  V30 6699 H 651.864 0.745959 2.89958 0
M  V30 6700 H 649.41 0.360172 1.39423 0
M  V30 6701 H 651.363 -1.44971 3.95679 0
M  V30 6702 H 650.087 -1.75748 2.75282 0
M  V30 6703 H 648.746 0.17152 3.66199 0
M  V30 6704 H 648.394 -2.13882 4.55262 0
M  V30 6705 H 648.094 -0.908276 5.80538 0
M  V30 6706 H 649.618 -1.84056 5.82199 0
M  V30 6707 H 651.032 0.42845 5.71697 0
M  V30 6708 H 649.429 1.20282 5.87922 0
M  V30 6709 H 650.499 1.68003 4.54866 0
M  V30 6710 N 651.842 -1.52309 0.404946 0
M  V30 6711 C 653.09 -2.01368 -0.17186 0
M  V30 6712 C 653.411 -1.29261 -1.46002 0
M  V30 6713 O 652.681 -0.41729 -1.91404 0
M  V30 6714 H 651.261 -0.744034 -0.0664993 0
M  V30 6715 H 653.923 -1.87263 0.540228 0
M  V30 6716 H 653.019 -3.09888 -0.370957 0
M  V30 6717 N 653.32 -0.135238 -1.57019 0
M  V30 6718 C 654.23 0.822226 -2.19719 0
M  V30 6719 C 655.246 1.28057 -1.17802 0
M  V30 6720 O 656.422 1.3402 -1.50335 0
M  V30 6721 C 653.487 2.0484 -2.79717 0
M  V30 6722 C 652.548 1.64042 -3.96723 0
M  V30 6723 C 651.781 2.80814 -4.53849 0
M  V30 6724 O 652.004 3.967 -4.0986 0
M  V30 6725 O 650.938 2.56963 -5.44292 0
M  V30 6726 H 654.764 0.318552 -3.02025 0
M  V30 6727 H 652.349 0.0912021 -1.49121 0
M  V30 6728 H 654.231 2.76622 -3.17897 0
M  V30 6729 H 652.906 2.54182 -2.00432 0
M  V30 6730 H 651.813 0.893182 -3.63281 0
M  V30 6731 H 653.146 1.19426 -4.77492 0
M  V30 6732 N 654.798 1.5699 0.138552 0
M  V30 6733 C 656.047 1.82998 0.848205 0
M  V30 6734 C 656.36 0.717829 1.81952 0
M  V30 6735 O 657.566 0.863756 2.57394 0
M  V30 6736 C 656.022 3.24379 1.55904 0
M  V30 6737 C 655.63 4.43552 0.62971 0
M  V30 6738 C 657.374 3.59654 2.25498 0
M  V30 6739 C 655.281 5.75957 1.34266 0
M  V30 6740 H 654.211 0.682495 0.320495 0
M  V30 6741 H 656.862 1.83222 0.100924 0
M  V30 6742 H 655.244 3.18567 2.35226 0
M  V30 6743 H 656.418 4.6062 -0.128882 0
M  V30 6744 H 654.733 4.16379 0.0417526 0
M  V30 6745 H 657.33 4.55837 2.79493 0
M  V30 6746 H 657.673 2.86124 3.02388 0
M  V30 6747 H 658.206 3.67164 1.53087 0
M  V30 6748 H 654.945 6.52604 0.615441 0
M  V30 6749 H 654.465 5.62811 2.07375 0
M  V30 6750 H 656.144 6.19046 1.88126 0
M  V30 6751 N 656.276 -0.40816 1.52223 0
M  V30 6752 C 657.206 -1.5042 1.78595 0
M  V30 6753 C 658.187 -1.57723 0.636974 0
M  V30 6754 O 659.372 -1.72982 0.882664 0
M  V30 6755 C 656.502 -2.88232 1.93751 0
M  V30 6756 C 655.456 -2.95779 3.09352 0
M  V30 6757 C 654.782 -4.35855 3.09732 0
M  V30 6758 C 656.082 -2.67175 4.48793 0
M  V30 6759 H 657.776 -1.28601 2.70374 0
M  V30 6760 H 655.322 -0.617221 1.30101 0
M  V30 6761 H 657.275 -3.64895 2.10783 0
M  V30 6762 H 655.999 -3.11347 0.986443 0
M  V30 6763 H 654.658 -2.21561 2.92072 0
M  V30 6764 H 654.306 -4.55981 2.12346 0
M  V30 6765 H 654.006 -4.41829 3.87377 0
M  V30 6766 H 655.53 -5.14451 3.28895 0
M  V30 6767 H 656.944 -3.3356 4.66273 0
M  V30 6768 H 655.341 -2.84523 5.28362 0
M  V30 6769 H 656.411 -1.62609 4.56822 0
M  V30 6770 N 657.755 -1.42862 -0.66545 0
M  V30 6771 C 658.703 -1.47319 -1.8 0
M  V30 6772 C 659.697 -0.347963 -1.65788 0
M  V30 6773 O 660.903 -0.521406 -1.72283 0
M  V30 6774 H 657.278 -0.461588 -0.593667 0
M  V30 6775 H 659.249 -2.42876 -1.7336 0
M  V30 6776 C 657.998 -1.40152 -3.18203 0
M  V30 6777 H 657.321 -2.26035 -3.2977 0
M  V30 6778 H 658.761 -1.47331 -3.9758 0
M  V30 6779 C 657.22 -0.117493 -3.36695 0
M  V30 6780 O 657.75 0.826058 -3.93115 0
M  V30 6781 N 655.956 -0.0316218 -2.90583 0
M  V30 6782 H 655.503 -0.800247 -2.44855 0
M  V30 6783 H 655.461 0.826835 -3.03333 0
M  V30 6784 N 659.233 0.902656 -1.29189 0
M  V30 6785 C 660.463 1.68394 -1.19695 0
M  V30 6786 C 660.871 1.87602 0.245384 0
M  V30 6787 O 660.214 1.41084 1.17648 0
M  V30 6788 C 660.276 3.09094 -1.83578 0
M  V30 6789 C 659.94 3.1313 -3.32864 0
M  V30 6790 C 660.937 2.93497 -4.29134 0
M  V30 6791 C 658.622 3.3529 -3.74013 0
M  V30 6792 C 660.616 2.95953 -5.64527 0
M  V30 6793 C 658.303 3.37377 -5.09529 0
M  V30 6794 C 659.301 3.1773 -6.04596 0
M  V30 6795 O 658.989 3.196 -7.37639 0
M  V30 6796 H 658.721 0.532815 -0.416034 0
M  V30 6797 H 661.275 1.1374 -1.71033 0
M  V30 6798 H 659.505 3.65338 -1.26747 0
M  V30 6799 H 661.194 3.69297 -1.68447 0
M  V30 6800 H 661.96 2.76192 -3.98677 0
M  V30 6801 H 657.839 3.49623 -3.00474 0
M  V30 6802 H 661.383 2.80536 -6.38706 0
M  V30 6803 H 657.28 3.54213 -5.39633 0
M  V30 6804 H 658.048 3.35887 -7.46406 0
M  V30 6805 N 660.711 1.11618 1.11262 0
M  V30 6806 C 661.941 0.88745 1.86569 0
M  V30 6807 C 662.349 -0.56636 1.80524 0
M  V30 6808 O 661.692 -1.40289 1.18594 0
M  V30 6809 C 661.754 1.27313 3.36202 0
M  V30 6810 C 661.418 2.73649 3.66013 0
M  V30 6811 C 662.415 3.71863 3.63337 0
M  V30 6812 C 660.1 3.10342 3.9496 0
M  V30 6813 C 662.094 5.04788 3.89188 0
M  V30 6814 C 659.781 4.43451 4.20469 0
M  V30 6815 C 660.779 5.40484 4.17572 0
M  V30 6816 O 660.467 6.71195 4.42439 0
M  V30 6817 H 660.199 0.317543 0.596777 0
M  V30 6818 H 662.753 1.48768 1.41624 0
M  V30 6819 H 660.983 0.616062 3.81761 0
M  V30 6820 H 662.672 1.01991 3.92877 0
M  V30 6821 H 663.438 3.44861 3.41022 0
M  V30 6822 H 659.317 2.35431 3.9635 0
M  V30 6823 H 662.861 5.80516 3.86842 0
M  V30 6824 H 658.758 4.70187 4.42261 0
M  V30 6825 H 659.526 6.77012 4.59997 0
M  V30 6826 N 662.189 -1.289 0.906776 0
M  V30 6827 C 663.417 -1.99401 0.551969 0
M  V30 6828 C 663.832 -1.67816 -0.865048 0
M  V30 6829 O 663.189 -0.927078 -1.57199 0
M  V30 6830 C 663.24 -3.53779 0.743152 0
M  V30 6831 O 662.961 -3.84248 2.1044 0
M  V30 6832 C 664.462 -4.41543 0.39424 0
M  V30 6833 H 661.682 -0.636926 0.211106 0
M  V30 6834 H 664.226 -1.64266 1.21807 0
M  V30 6835 H 662.381 -3.87201 0.124143 0
M  V30 6836 H 662.795 -4.78904 2.13895 0
M  V30 6837 H 664.269 -5.48957 0.578814 0
M  V30 6838 H 664.746 -4.34073 -0.669137 0
M  V30 6839 H 665.352 -4.13605 0.990491 0
M  V30 6840 N 663.667 -0.670007 -1.42649 0
M  V30 6841 C 664.617 0.0339546 -2.27975 0
M  V30 6842 C 665.601 0.778295 -1.40824 0
M  V30 6843 O 666.793 0.657997 -1.64315 0
M  V30 6844 C 663.922 0.987899 -3.28779 0
M  V30 6845 C 663.008 0.241153 -4.23414 0
M  V30 6846 N 663.399 -0.751392 -5.00188 0
M  V30 6847 C 661.697 0.480269 -4.43407 0
M  V30 6848 C 662.398 -1.19615 -5.69269 0
M  V30 6849 N 661.374 -0.527045 -5.41039 0
M  V30 6850 H 665.176 -0.727425 -2.84756 0
M  V30 6851 H 662.69 -0.498673 -1.54554 0
M  V30 6852 H 664.687 1.50716 -3.88703 0
M  V30 6853 H 663.347 1.74916 -2.73559 0
M  V30 6854 H 664.358 -1.13075 -5.05405 0
M  V30 6855 H 661.035 1.2214 -3.99234 0
M  V30 6856 H 662.425 -2.01836 -6.40868 0
M  V30 6857 N 665.145 1.52092 -0.413018 0
M  V30 6858 C 666.391 2.02815 0.154104 0
M  V30 6859 C 666.746 1.293 1.42475 0
M  V30 6860 O 666.039 0.391835 1.87551 0
M  V30 6861 C 666.233 3.54529 0.4521 0
M  V30 6862 C 666.062 4.4274 -0.788116 0
M  V30 6863 C 664.832 4.87903 -1.31447 0
M  V30 6864 C 667.03 4.86522 -1.66735 0
M  V30 6865 N 665.012 5.60254 -2.50976 0
M  V30 6866 C 666.383 5.57692 -2.70886 0
M  V30 6867 C 668.438 4.68534 -1.68465 0
M  V30 6868 C 667.141 6.12783 -3.76682 0
M  V30 6869 C 669.167 5.24524 -2.73182 0
M  V30 6870 C 668.529 5.9562 -3.76054 0
M  V30 6871 H 664.628 0.781796 0.0178567 0
M  V30 6872 H 667.212 1.86223 -0.568237 0
M  V30 6873 H 665.383 3.71186 1.14348 0
M  V30 6874 H 667.115 3.91934 1.00844 0
M  V30 6875 H 663.87 4.65504 -0.871931 0
M  V30 6876 H 664.294 6.01069 -3.11521 0
M  V30 6877 H 668.936 4.13051 -0.902708 0
M  V30 6878 H 666.654 6.67335 -4.55729 0
M  V30 6879 H 670.24 5.12473 -2.75433 0
M  V30 6880 H 669.12 6.38169 -4.55752 0
M  V30 6881 N 666.623 0.143563 1.56945 0
M  V30 6882 C 667.586 -0.783295 2.154 0
M  V30 6883 C 668.586 -1.17763 1.09492 0
M  V30 6884 O 669.776 -1.09912 1.35148 0
M  V30 6885 C 666.908 -2.06248 2.7143 0
M  V30 6886 H 668.101 -0.274863 2.98638 0
M  V30 6887 H 665.654 -0.105859 1.55941 0
M  V30 6888 H 666.389 -2.61466 1.91849 0
M  V30 6889 H 666.174 -1.78897 3.4891 0
M  V30 6890 H 667.664 -2.72453 3.16479 0
M  V30 6891 N 668.101 -1.57061 -0.130224 0
M  V30 6892 C 669.349 -1.83893 -0.838313 0
M  V30 6893 C 669.67 -0.727046 -1.80939 0
M  V30 6894 O 668.94 0.249927 -1.94299 0
M  V30 6895 H 667.52 -0.67846 -0.312573 0
M  V30 6896 H 670.182 -1.94529 -0.120224 0
M  V30 6897 H 669.278 -2.79419 -1.39038 0
M  V30 6898 N 669.579 0.400081 -1.52437 0
M  V30 6899 C 670.804 1.17221 -1.71096 0
M  V30 6900 C 671.229 1.83269 -0.423565 0
M  V30 6901 O 670.587 1.70378 0.619751 0
M  V30 6902 C 670.635 2.20425 -2.85386 0
M  V30 6903 O 669.739 3.26769 -2.51586 0
M  V30 6904 H 669.08 0.341766 -0.569291 0
M  V30 6905 H 671.61 0.467772 -1.99181 0
M  V30 6906 H 671.62 2.64605 -3.10561 0
M  V30 6907 H 670.295 1.71737 -3.78786 0
M  V30 6908 H 668.872 2.87804 -2.37114 0
M  V30 6909 N 671.057 1.43213 0.657864 0
M  V30 6910 C 671.987 1.50815 1.78262 0
M  V30 6911 C 672.968 0.363211 1.66177 0
M  V30 6912 O 674.153 0.579806 1.85343 0
M  V30 6913 C 671.283 1.42625 3.16663 0
M  V30 6914 C 670.237 2.5532 3.43505 0
M  V30 6915 C 669.563 2.32184 4.81658 0
M  V30 6916 C 670.863 3.97583 3.38711 0
M  V30 6917 H 672.557 2.44954 1.72157 0
M  V30 6918 H 670.103 1.17896 0.82683 0
M  V30 6919 H 672.056 1.46548 3.95097 0
M  V30 6920 H 670.78 0.449877 3.23487 0
M  V30 6921 H 669.439 2.50742 2.6744 0
M  V30 6922 H 669.087 1.32801 4.85153 0
M  V30 6923 H 668.787 3.07724 5.00579 0
M  V30 6924 H 670.311 2.37883 5.62356 0
M  V30 6925 H 671.725 4.03673 4.07089 0
M  V30 6926 H 670.122 4.73112 3.69168 0
M  V30 6927 H 671.192 4.23049 2.36976 0
M  V30 6928 N 672.536 -0.895792 1.29666 0
M  V30 6929 C 673.483 -2.00035 1.15129 0
M  V30 6930 C 674.453 -1.66043 0.0435819 0
M  V30 6931 O 675.638 -1.89621 0.211811 0
M  V30 6932 C 672.778 -3.34774 0.83787 0
M  V30 6933 C 671.891 -3.81525 2.0264 0
M  V30 6934 C 671.026 -5.04858 1.65201 0
M  V30 6935 C 670.065 -5.43988 2.80612 0
M  V30 6936 N 669.202 -6.58507 2.43544 0
M  V30 6937 H 674.042 -2.11802 2.09628 0
M  V30 6938 H 671.579 -1.03719 1.04311 0
M  V30 6939 H 673.537 -4.12311 0.636824 0
M  V30 6940 H 672.167 -3.22724 -0.0702314 0
M  V30 6941 H 671.219 -2.9999 2.33903 0
M  V30 6942 H 672.531 -4.06472 2.89106 0
M  V30 6943 H 671.685 -5.8999 1.41408 0
M  V30 6944 H 670.424 -4.81759 0.758893 0
M  V30 6945 H 669.429 -4.57388 3.05083 0
M  V30 6946 H 670.654 -5.69066 3.70595 0
M  V30 6947 H 668.6 -6.37004 1.56724 0
M  V30 6948 H 668.517 -6.83269 3.23542 0
M  V30 6949 H 669.785 -7.46897 2.2308 0
M  V30 6950 N 674.014 -1.12206 -1.10668 0
M  V30 6951 C 675.261 -0.875875 -1.82578 0
M  V30 6952 C 675.589 0.598342 -1.85068 0
M  V30 6953 O 674.844 1.45818 -1.3052 0
M  V30 6954 C 675.143 -1.39276 -3.29146 0
M  V30 6955 C 674.809 -2.8816 -3.46806 0
M  V30 6956 C 673.471 -3.28813 -3.51334 0
M  V30 6957 C 675.823 -3.8401 -3.52399 0
M  V30 6958 C 673.151 -4.64028 -3.59019 0
M  V30 6959 C 675.503 -5.19053 -3.61617 0
M  V30 6960 C 674.167 -5.59252 -3.64408 0
M  V30 6961 H 673.437 -0.320505 -0.6681 0
M  V30 6962 H 676.084 -1.40184 -1.30464 0
M  V30 6963 H 674.389 -0.787207 -3.8381 0
M  V30 6964 H 676.086 -1.17851 -3.83291 0
M  V30 6965 H 672.676 -2.55716 -3.43958 0
M  V30 6966 H 676.86 -3.53698 -3.48154 0
M  V30 6967 H 672.116 -4.94568 -3.59461 0
M  V30 6968 H 676.29 -5.93152 -3.64889 0
M  V30 6969 H 673.917 -6.64017 -3.70116 0
M  V30 6970 N 675.492 1.28418 -0.913599 0
M  V30 6971 C 676.72 1.99106 -0.562536 0
M  V30 6972 C 677.135 1.68273 0.856137 0
M  V30 6973 O 676.492 0.935401 1.56705 0
M  V30 6974 C 676.543 3.5338 -0.761903 0
M  V30 6975 O 676.264 3.83127 -2.12475 0
M  V30 6976 C 677.765 4.41328 -0.417651 0
M  V30 6977 H 674.985 0.635798 -0.214481 0
M  V30 6978 H 677.529 1.63618 -1.22676 0
M  V30 6979 H 675.684 3.8713 -0.144676 0
M  V30 6980 H 676.098 4.77763 -2.16431 0
M  V30 6981 H 677.572 5.48642 -0.607919 0
M  V30 6982 H 678.049 4.34422 0.646108 0
M  V30 6983 H 678.655 4.13074 -1.01241 0
M  V30 6984 N 676.97 0.677563 1.42291 0
M  V30 6985 C 678.217 0.200975 2.015 0
M  V30 6986 C 678.545 -1.19342 1.53583 0
M  V30 6987 O 677.8 -1.81579 0.7299 0
M  V30 6988 C 678.099 0.187229 3.56909 0
M  V30 6989 C 677.765 1.52667 4.24268 0
M  V30 6990 C 676.427 1.89341 4.42384 0
M  V30 6991 C 678.779 2.40869 4.62203 0
M  V30 6992 C 676.107 3.13836 4.95705 0
M  V30 6993 C 678.459 3.64679 5.16906 0
M  V30 6994 C 677.123 4.01519 5.33234 0
M  V30 6995 H 676.393 0.0735418 0.737342 0
M  V30 6996 H 679.04 0.873095 1.70439 0
M  V30 6997 H 677.345 -0.568407 3.87655 0
M  V30 6998 H 679.042 -0.198773 4.00507 0
M  V30 6999 H 675.632 1.23138 4.1053 0
M  V30 7000 H 679.816 2.1382 4.47878 0
M  V30 7001 H 675.072 3.42396 5.06532 0
M  V30 7002 H 679.246 4.33224 5.45243 0
M  V30 7003 H 676.873 4.98062 5.74316 0
M  V30 7004 N 678.448 -1.51871 0.421078 0
M  V30 7005 C 679.378 -2.30231 -0.389363 0
M  V30 7006 C 680.359 -1.34946 -1.03555 0
M  V30 7007 O 681.544 -1.63859 -1.04229 0
M  V30 7008 C 678.674 -3.13247 -1.49979 0
M  V30 7009 C 677.628 -4.16677 -0.977966 0
M  V30 7010 C 676.954 -4.88112 -2.1829 0
M  V30 7011 C 678.254 -5.22295 -0.0236775 0
M  V30 7012 H 679.948 -2.98229 0.264524 0
M  V30 7013 H 677.494 -1.43424 0.12866 0
M  V30 7014 H 679.447 -3.66838 -2.07383 0
M  V30 7015 H 678.171 -2.4304 -2.18173 0
M  V30 7016 H 676.83 -3.64114 -0.426245 0
M  V30 7017 H 676.478 -4.14423 -2.85066 0
M  V30 7018 H 676.178 -5.58041 -1.84021 0
M  V30 7019 H 677.702 -5.44521 -2.76278 0
M  V30 7020 H 679.116 -5.71055 -0.506899 0
M  V30 7021 H 677.513 -5.99656 0.230782 0
M  V30 7022 H 678.583 -4.76131 0.917999 0
M  V30 7023 N 679.926 -0.151884 -1.56866 0
M  V30 7024 C 681.173 0.498004 -1.96281 0
M  V30 7025 C 681.501 1.64551 -1.03698 0
M  V30 7026 O 680.756 1.95585 -0.0671497 0
M  V30 7027 C 681.055 1.04074 -3.41911 0
M  V30 7028 C 680.721 0.0111688 -4.50899 0
M  V30 7029 C 679.383 -0.271844 -4.80432 0
M  V30 7030 C 681.735 -0.68869 -5.1663 0
M  V30 7031 C 679.063 -1.26044 -5.73001 0
M  V30 7032 C 681.415 -1.66613 -6.10264 0
M  V30 7033 C 680.079 -1.9568 -6.38174 0
M  V30 7034 H 679.349 0.182233 -0.718242 0
M  V30 7035 H 681.996 -0.239746 -1.89993 0
M  V30 7036 H 680.301 1.85592 -3.45055 0
M  V30 7037 H 681.998 1.55224 -3.69738 0
M  V30 7038 H 678.588 0.241932 -4.27917 0
M  V30 7039 H 682.772 -0.48324 -4.93942 0
M  V30 7040 H 678.028 -1.49202 -5.92915 0
M  V30 7041 H 682.202 -2.21392 -6.60272 0
M  V30 7042 H 679.829 -2.72434 -7.09707 0
M  V30 7043 N 681.404 1.57128 0.121893 0
M  V30 7044 C 682.644 1.86517 0.836113 0
M  V30 7045 C 683.008 0.739497 1.77188 0
M  V30 7046 O 684.209 0.91508 2.52744 0
M  V30 7047 C 682.48 3.21129 1.56878 0
M  V30 7048 S 684.039 3.72143 2.32497 0
M  V30 7049 H 680.857 0.653923 0.279115 0
M  V30 7050 H 683.459 1.95271 0.0946254 0
M  V30 7051 H 682.163 4.01002 0.873255 0
M  V30 7052 H 681.694 3.15446 2.35069 0
M  V30 7053 H 683.709 3.43413 3.58164 0
M  V30 7054 N 682.882 -0.391992 1.52647 0
M  V30 7055 C 684.13 -1.13507 1.67214 0
M  V30 7056 C 684.451 -1.90575 0.41304 0
M  V30 7057 O 683.721 -1.87348 -0.572498 0
M  V30 7058 H 682.301 -0.422013 0.616372 0
M  V30 7059 H 684.963 -0.44502 1.89751 0
M  V30 7060 H 684.059 -1.83964 2.52118 0
M  V30 7061 N 684.36 -1.4356 -0.65026 0
M  V30 7062 C 685.607 -1.45333 -1.41012 0
M  V30 7063 C 685.935 -0.0787282 -1.94341 0
M  V30 7064 O 685.19 0.916715 -1.72901 0
M  V30 7065 C 685.489 -2.44528 -2.60654 0
M  V30 7066 C 685.155 -3.90331 -2.25727 0
M  V30 7067 C 683.817 -4.3004 -2.15914 0
M  V30 7068 C 686.169 -4.822 -1.97821 0
M  V30 7069 C 683.497 -5.59568 -1.76354 0
M  V30 7070 C 685.849 -6.12095 -1.59759 0
M  V30 7071 C 684.513 -6.50778 -1.48473 0
M  V30 7072 H 683.783 -0.531813 -0.516 0
M  V30 7073 H 686.43 -1.76657 -0.739219 0
M  V30 7074 H 684.735 -2.06619 -3.3289 0
M  V30 7075 H 686.432 -2.43155 -3.18868 0
M  V30 7076 H 683.022 -3.58905 -2.34276 0
M  V30 7077 H 687.206 -4.5229 -2.04322 0
M  V30 7078 H 682.462 -5.88376 -1.66205 0
M  V30 7079 H 686.636 -6.82751 -1.37198 0
M  V30 7080 H 684.263 -7.5105 -1.17591 0
M  V30 7081 N 685.838 0.888903 -1.30139 0
M  V30 7082 C 686.771 1.99655 -1.10514 0
M  V30 7083 C 687.749 1.62594 -0.0138934 0
M  V30 7084 O 688.933 1.87762 -0.166689 0
M  V30 7085 C 686.06 3.31708 -0.684655 0
M  V30 7086 C 685.106 3.87755 -1.77619 0
M  V30 7087 S 685.939 4.15532 -3.37777 0
M  V30 7088 C 687.095 5.5061 -2.97622 0
M  V30 7089 H 687.328 2.15996 -2.04287 0
M  V30 7090 H 684.861 1.03682 -1.14409 0
M  V30 7091 H 686.819 4.08039 -0.448782 0
M  V30 7092 H 685.48 3.1323 0.233648 0
M  V30 7093 H 684.673 4.83164 -1.43417 0
M  V30 7094 H 684.275 3.18149 -1.96614 0
M  V30 7095 H 686.567 6.31518 -2.45338 0
M  V30 7096 H 687.51 5.89747 -3.91924 0
M  V30 7097 H 687.918 5.12983 -2.35603 0
M  V30 7098 N 687.317 1.12792 1.10072 0
M  V30 7099 C 688.25 0.742921 2.15768 0
M  V30 7100 C 689.228 -0.267714 1.60381 0
M  V30 7101 O 690.412 -0.160782 1.87813 0
M  V30 7102 C 687.539 0.100244 3.38552 0
M  V30 7103 C 686.585 1.07831 4.12644 0
M  V30 7104 S 687.418 2.60765 4.6772 0
M  V30 7105 C 688.574 1.97838 5.9381 0
M  V30 7106 H 688.807 1.63822 2.48092 0
M  V30 7107 H 686.34 0.947385 1.21918 0
M  V30 7108 H 688.298 -0.264175 4.09649 0
M  V30 7109 H 686.959 -0.772223 3.04459 0
M  V30 7110 H 686.152 0.576325 5.00694 0
M  V30 7111 H 685.754 1.38586 3.47376 0
M  V30 7112 H 688.046 1.32341 6.64449 0
M  V30 7113 H 688.989 2.83943 6.48677 0
M  V30 7114 H 689.397 1.43267 5.46017 0
M  V30 7115 N 688.795 -1.27931 0.920396 0
M  V30 7116 C 689.758 -2.25345 0.41858 0
M  V30 7117 C 690.758 -1.54116 -0.458798 0
M  V30 7118 O 691.948 -1.72235 -0.260912 0
M  V30 7119 C 689.08 -3.38556 -0.399104 0
M  V30 7120 H 690.273 -2.71251 1.27918 0
M  V30 7121 H 687.826 -1.39728 0.700406 0
M  V30 7122 H 688.561 -2.98021 -1.27882 0
M  V30 7123 H 688.346 -3.91426 0.229863 0
M  V30 7124 H 689.836 -4.10976 -0.740817 0
M  V30 7125 N 690.273 -0.685099 -1.4193 0
M  V30 7126 C 691.501 -0.220372 -2.05723 0
M  V30 7127 C 691.916 1.12642 -1.51516 0
M  V30 7128 O 691.273 1.70182 -0.659114 0
M  V30 7129 C 691.324 -0.157974 -3.61155 0
M  V30 7130 O 691.045 -1.45156 -4.13354 0
M  V30 7131 C 692.546 0.329009 -4.42077 0
M  V30 7132 H 689.766 -0.104725 -0.662777 0
M  V30 7133 H 692.31 -0.934736 -1.81887 0
M  V30 7134 H 690.465 0.507144 -3.84066 0
M  V30 7135 H 690.879 -1.33172 -5.07312 0
M  V30 7136 H 692.353 0.321559 -5.51063 0
M  V30 7137 H 692.83 1.36608 -4.17414 0
M  V30 7138 H 693.436 -0.304737 -4.24207 0
M  V30 7139 N 691.751 1.51645 -0.429126 0
M  V30 7140 C 692.999 2.01616 0.139802 0
M  V30 7141 C 693.32 1.31568 1.43927 0
M  V30 7142 O 692.59 0.447688 1.90716 0
M  V30 7143 H 691.17 0.744998 0.054654 0
M  V30 7144 H 693.832 1.8638 -0.569952 0
M  V30 7145 H 692.928 3.10439 0.321609 0
M  V30 7146 N 693.229 0.160201 1.56784 0
M  V30 7147 C 694.176 -0.774416 2.1742 0
M  V30 7148 C 695.146 -1.23483 1.11091 0
M  V30 7149 O 696.331 -1.30499 1.39193 0
M  V30 7150 C 693.471 -2.00283 2.81035 0
M  V30 7151 C 692.584 -1.58701 4.01793 0
M  V30 7152 C 691.719 -2.76824 4.53367 0
M  V30 7153 C 690.758 -2.31679 5.66561 0
M  V30 7154 N 689.895 -3.42856 6.12694 0
M  V30 7155 H 694.735 -0.250542 2.96945 0
M  V30 7156 H 692.272 -0.111943 1.46673 0
M  V30 7157 H 694.23 -2.72316 3.16069 0
M  V30 7158 H 692.86 -2.5006 2.04132 0
M  V30 7159 H 691.912 -0.76384 3.72652 0
M  V30 7160 H 693.224 -1.21555 4.83762 0
M  V30 7161 H 692.378 -3.57029 4.90525 0
M  V30 7162 H 691.117 -3.17223 3.70433 0
M  V30 7163 H 690.122 -1.49917 5.28966 0
M  V30 7164 H 691.347 -1.9235 6.5129 0
M  V30 7165 H 689.293 -3.82852 5.32692 0
M  V30 7166 H 689.21 -3.09767 6.89624 0
M  V30 7167 H 690.478 -4.23379 6.545 0
M  V30 7168 N 694.707 -1.5719 -0.113559 0
M  V30 7169 C 695.637 -2.03772 -1.14013 0
M  V30 7170 C 696.618 -0.923176 -1.42869 0
M  V30 7171 O 697.803 -1.19325 -1.53216 0
M  V30 7172 C 694.933 -2.44663 -2.4649 0
M  V30 7173 C 693.887 -3.59612 -2.32085 0
M  V30 7174 C 693.213 -3.8642 -3.69573 0
M  V30 7175 C 694.513 -4.91149 -1.7768 0
M  V30 7176 H 696.207 -2.89785 -0.752665 0
M  V30 7177 H 693.753 -1.39412 -0.360609 0
M  V30 7178 H 695.706 -2.75857 -3.18561 0
M  V30 7179 H 694.43 -1.55628 -2.87137 0
M  V30 7180 H 693.089 -3.28636 -1.62461 0
M  V30 7181 H 692.737 -2.94581 -4.07715 0
M  V30 7182 H 692.437 -4.63797 -3.60786 0
M  V30 7183 H 693.961 -4.2007 -4.4314 0
M  V30 7184 H 695.375 -5.20843 -2.39574 0
M  V30 7185 H 693.772 -5.72562 -1.79701 0
M  V30 7186 H 694.842 -4.79301 -0.734776 0
M  V30 7187 N 696.185 0.383891 -1.52853 0
M  V30 7188 C 697.115 1.47559 -1.80965 0
M  V30 7189 C 698.096 1.5669 -0.661986 0
M  V30 7190 O 699.281 1.71556 -0.910072 0
M  V30 7191 C 696.411 2.85114 -1.98312 0
M  V30 7192 C 695.365 2.9082 -3.14019 0
M  V30 7193 C 694.691 4.30873 -3.16627 0
M  V30 7194 C 695.991 2.60001 -4.52986 0
M  V30 7195 H 697.685 1.24283 -2.72386 0
M  V30 7196 H 695.231 0.596445 -1.31067 0
M  V30 7197 H 697.184 3.61496 -2.16561 0
M  V30 7198 H 695.908 3.09738 -1.03585 0
M  V30 7199 H 694.567 2.16886 -2.9556 0
M  V30 7200 H 694.215 4.52545 -2.19573 0
M  V30 7201 H 693.915 4.3561 -3.94357 0
M  V30 7202 H 695.439 5.09154 -3.37038 0
M  V30 7203 H 696.853 3.261 -4.71521 0
M  V30 7204 H 695.25 2.76081 -5.32822 0
M  V30 7205 H 696.32 1.5532 -4.59351 0
M  V30 7206 N 697.663 1.43903 0.642637 0
M  V30 7207 C 698.909 1.46296 1.40447 0
M  V30 7208 C 699.242 0.0908361 1.93987 0
M  V30 7209 O 698.517 -0.889884 1.72949 0
M  V30 7210 C 698.8 2.51399 2.57819 0
M  V30 7211 C 698.653 3.97926 2.09702 0
M  V30 7212 C 699.972 2.53125 3.60022 0
M  V30 7213 H 697.091 0.532676 0.509338 0
M  V30 7214 H 699.733 1.75515 0.727635 0
M  V30 7215 H 697.883 2.26614 3.1556 0
M  V30 7216 H 699.555 4.33804 1.5688 0
M  V30 7217 H 697.798 4.10252 1.40982 0
M  V30 7218 H 698.469 4.67096 2.94152 0
M  V30 7219 H 700.945 2.75242 3.12059 0
M  V30 7220 H 699.821 3.28589 4.39682 0
M  V30 7221 H 700.082 1.56895 4.13324 0
M  V30 7222 N 699.141 -0.881989 1.30609 0
M  V30 7223 C 700.366 -1.67236 1.22665 0
M  V30 7224 C 700.791 -1.8696 -0.206777 0
M  V30 7225 O 700.149 -1.4027 -1.14865 0
M  V30 7226 C 700.197 -3.02446 1.96363 0
M  V30 7227 O 699.301 -3.91614 1.29276 0
M  V30 7228 H 698.642 -0.510902 0.424117 0
M  V30 7229 H 701.172 -1.10055 1.72479 0
M  V30 7230 H 701.182 -3.52468 2.055 0
M  V30 7231 H 699.857 -2.8741 3.00613 0
M  V30 7232 H 698.434 -3.50055 1.28514 0
M  V30 7233 N 700.619 -1.13374 -1.09472 0
M  V30 7234 C 701.849 -0.917019 -1.85133 0
M  V30 7235 C 702.257 0.537568 -1.81402 0
M  V30 7236 O 701.6 1.38385 -1.20811 0
M  V30 7237 C 701.662 -1.32646 -3.34134 0
M  V30 7238 C 701.326 -2.79437 -3.61613 0
M  V30 7239 C 702.323 -3.77596 -3.57375 0
M  V30 7240 C 700.008 -3.16586 -3.89973 0
M  V30 7241 C 702.002 -5.10916 -3.81108 0
M  V30 7242 C 699.689 -4.50085 -4.13361 0
M  V30 7243 C 700.687 -5.47059 -4.0892 0
M  V30 7244 O 700.375 -6.78149 -4.31705 0
M  V30 7245 H 700.107 -0.326997 -0.591649 0
M  V30 7246 H 702.661 -1.51002 -1.39239 0
M  V30 7247 H 700.891 -0.676719 -3.80733 0
M  V30 7248 H 702.58 -1.08229 -3.91205 0
M  V30 7249 H 703.346 -3.50242 -3.35493 0
M  V30 7250 H 699.225 -2.41707 -3.92554 0
M  V30 7251 H 702.769 -5.86597 -3.77558 0
M  V30 7252 H 698.666 -4.77163 -4.34724 0
M  V30 7253 H 699.434 -6.84244 -4.49168 0
M  V30 7254 N 702.098 1.27442 -0.927168 0
M  V30 7255 C 703.061 2.2512 -0.430525 0
M  V30 7256 C 704.061 1.54357 0.450619 0
M  V30 7257 O 705.251 1.72371 0.251774 0
M  V30 7258 C 702.383 3.38763 0.381144 0
M  V30 7259 H 703.576 2.70569 -1.29354 0
M  V30 7260 H 701.129 1.39355 -0.707806 0
M  V30 7261 H 701.864 2.98695 1.263 0
M  V30 7262 H 701.649 3.91298 -0.250618 0
M  V30 7263 H 703.139 4.11364 0.719012 0
M  V30 7264 N 703.576 0.692616 1.41565 0
M  V30 7265 C 704.987 0.297478 1.84315 0
M  V30 7266 C 705.338 -1.16379 1.57957 0
M  V30 7267 O 704.463 -1.89303 1.0485 0
M  V30 7268 C 705.058 0.533136 3.34579 0
M  V30 7269 C 703.617 0.191944 3.7591 0
M  V30 7270 C 702.764 0.816873 2.64995 0
M  V30 7271 H 705.715 0.893488 1.31158 0
M  V30 7272 H 705.736 -0.209105 3.79925 0
M  V30 7273 H 705.248 1.59674 3.53731 0
M  V30 7274 H 703.349 -0.867512 3.6236 0
M  V30 7275 H 703.462 0.644902 4.7474 0
M  V30 7276 H 701.826 0.246715 2.53502 0
M  V30 7277 H 702.609 1.88429 2.86966 0
M  V30 7278 N 705.054 -1.51416 0.437162 0
M  V30 7279 C 706.465 -1.86682 -0.0260005 0
M  V30 7280 C 706.816 -1.35432 -1.4196 0
M  V30 7281 O 705.941 -0.705055 -2.04592 0
M  V30 7282 C 706.536 -3.38757 -0.0539577 0
M  V30 7283 C 705.095 -3.7356 -0.461532 0
M  V30 7284 C 704.242 -2.75134 0.345924 0
M  V30 7285 H 707.193 -1.44642 0.653013 0
M  V30 7286 H 707.214 -3.70573 -0.863478 0
M  V30 7287 H 706.726 -3.76028 0.96045 0
M  V30 7288 H 704.827 -3.41878 -1.48155 0
M  V30 7289 H 704.94 -4.78737 -0.186451 0
M  V30 7290 H 703.304 -2.53947 -0.195739 0
M  V30 7291 H 704.087 -3.15247 1.35921 0
M  V30 7292 N 706.532 -0.168513 -1.56696 0
M  V30 7293 C 707.78 0.476216 -1.96409 0
M  V30 7294 C 708.101 1.63968 -1.05544 0
M  V30 7295 O 707.371 1.95525 -0.121235 0
M  V30 7296 H 705.951 0.178921 -0.725256 0
M  V30 7297 H 708.613 -0.249042 -1.93302 0
M  V30 7298 H 707.709 0.838094 -3.00637 0
M  V30 7299 N 708.01 1.57248 0.105221 0
M  V30 7300 C 708.973 2.00388 1.11252 0
M  V30 7301 C 709.973 0.89594 1.33527 0
M  V30 7302 O 711.163 1.16166 1.29811 0
M  V30 7303 C 708.295 2.35589 2.46395 0
M  V30 7304 H 709.488 2.90591 0.741424 0
M  V30 7305 H 707.041 1.52332 0.349956 0
M  V30 7306 H 707.776 1.4831 2.884 0
M  V30 7307 H 707.561 3.16408 2.31578 0
M  V30 7308 H 709.051 2.69658 3.18864 0
M  V30 7309 N 709.488 -0.375779 1.53054 0
M  V30 7310 C 710.765 -1.13453 1.59336 0
M  V30 7311 C 711.145 -2.07379 0.394614 0
M  V30 7312 O 710.493 -2.2004 -0.616 0
M  V30 7313 C 710.703 -1.8826 2.93869 0
M  V30 7314 C 712.051 -2.43155 3.48081 0
M  V30 7315 O 713.075 -1.984 2.95831 0
M  V30 7316 O 711.934 -3.24944 4.39401 0
M  V30 7317 H 709.028 -0.519856 0.643179 0
M  V30 7318 H 711.574 -0.379865 1.65394 0
M  V30 7319 H 710.346 -1.19652 3.72558 0
M  V30 7320 H 709.969 -2.70658 2.91256 0
M  V30 7321 N 710.966 -1.44241 -0.634997 0
M  V30 7322 C 712.377 -1.41622 -1.21655 0
M  V30 7323 C 712.728 -0.129584 -1.95772 0
M  V30 7324 O 711.853 0.770225 -2.02229 0
M  V30 7325 C 712.448 -2.56557 -2.21278 0
M  V30 7326 C 711.007 -2.57145 -2.7487 0
M  V30 7327 C 710.154 -2.33354 -1.49804 0
M  V30 7328 H 713.105 -1.52878 -0.425905 0
M  V30 7329 H 713.126 -2.29089 -3.03807 0
M  V30 7330 H 712.638 -3.50186 -1.67306 0
M  V30 7331 H 710.739 -1.67447 -3.32855 0
M  V30 7332 H 710.852 -3.55507 -3.21172 0
M  V30 7333 H 709.216 -1.82372 -1.77799 0
M  V30 7334 H 709.999 -3.29092 -0.977402 0
M  V30 7335 N 712.444 0.87505 -1.31075 0
M  V30 7336 C 713.855 1.4433 -1.18431 0
M  V30 7337 C 714.206 1.9506 0.211189 0
M  V30 7338 O 713.331 1.85847 1.10859 0
M  V30 7339 C 713.926 2.62341 -2.14389 0
M  V30 7340 C 712.485 3.15225 -2.05694 0
M  V30 7341 C 711.632 1.87929 -2.03907 0
M  V30 7342 H 714.583 0.684061 -1.432 0
M  V30 7343 H 714.604 3.3887 -1.73053 0
M  V30 7344 H 714.116 2.25388 -3.15946 0
M  V30 7345 H 712.217 3.56812 -1.07314 0
M  V30 7346 H 712.33 3.77853 -2.94558 0
M  V30 7347 H 710.694 2.06679 -1.48849 0
M  V30 7348 H 711.477 1.53221 -3.07211 0
M  V30 7349 N 713.922 1.13953 1.08869 0
M  V30 7350 C 714.869 0.82213 2.15661 0
M  V30 7351 C 715.839 -0.218274 1.6466 0
M  V30 7352 O 717.024 -0.0892475 1.90591 0
M  V30 7353 C 714.164 0.300572 3.43789 0
M  V30 7354 C 713.277 1.40071 4.08661 0
M  V30 7355 C 712.412 0.836897 5.24566 0
M  V30 7356 C 711.451 1.91504 5.81371 0
M  V30 7357 N 710.588 1.36875 6.88629 0
M  V30 7358 H 715.428 1.73683 2.42153 0
M  V30 7359 H 712.965 0.866879 1.18843 0
M  V30 7360 H 714.923 -0.0199943 4.17195 0
M  V30 7361 H 713.553 -0.577248 3.17597 0
M  V30 7362 H 712.605 1.83776 3.33062 0
M  V30 7363 H 713.917 2.21534 4.46905 0
M  V30 7364 H 713.071 0.467953 6.04893 0
M  V30 7365 H 711.81 -0.00874207 4.87699 0
M  V30 7366 H 710.815 2.29299 4.99702 0
M  V30 7367 H 712.04 2.76419 6.20298 0
M  V30 7368 H 709.986 0.545211 6.5373 0
M  V30 7369 H 709.903 2.1198 7.25672 0
M  V30 7370 H 711.171 1.02756 7.72698 0
M  V30 7371 N 715.4 -1.26948 0.933913 0
M  V30 7372 C 716.347 -2.26635 0.436484 0
M  V30 7373 C 717.317 -1.58397 -0.499953 0
M  V30 7374 O 718.502 -1.86171 -0.417753 0
M  V30 7375 C 715.642 -3.43803 -0.298951 0
M  V30 7376 C 714.755 -4.26736 0.672316 0
M  V30 7377 C 713.89 -5.31134 -0.0835872 0
M  V30 7378 C 712.929 -6.05742 0.879979 0
M  V30 7379 N 712.066 -7.01926 0.156301 0
M  V30 7380 H 716.906 -2.68558 1.29154 0
M  V30 7381 H 714.443 -1.32052 0.648118 0
M  V30 7382 H 716.401 -4.10554 -0.741723 0
M  V30 7383 H 715.031 -3.02814 -1.1182 0
M  V30 7384 H 714.083 -3.59842 1.23361 0
M  V30 7385 H 715.395 -4.78502 1.40846 0
M  V30 7386 H 714.549 -6.03863 -0.585984 0
M  V30 7387 H 713.288 -4.80188 -0.852661 0
M  V30 7388 H 712.293 -5.31846 1.39357 0
M  V30 7389 H 713.518 -6.58777 1.64894 0
M  V30 7390 H 711.464 -6.53301 -0.594413 0
M  V30 7391 H 711.381 -7.51409 0.831906 0
M  V30 7392 H 712.649 -7.78821 -0.325239 0
M  V30 7393 N 716.879 -0.700114 -1.41195 0
M  V30 7394 C 718.295 -0.372114 -1.55201 0
M  V30 7395 C 718.495 1.12053 -1.6747 0
M  V30 7396 O 717.551 1.90642 -1.65566 0
M  V30 7397 C 718.864 -1.12462 -2.78878 0
M  V30 7398 C 720.412 -1.10941 -2.92679 0
M  V30 7399 C 720.887 -1.84376 -4.19249 0
M  V30 7400 N 722.378 -1.81368 -4.26216 0
M  V30 7401 C 723.113 -2.35024 -5.23021 0
M  V30 7402 N 722.609 -2.9717 -6.25829 0
M  V30 7403 N 724.402 -2.25254 -5.14992 0
M  V30 7404 H 716.553 -1.66816 -1.31477 0
M  V30 7405 H 718.816 -0.704223 -0.634644 0
M  V30 7406 H 718.522 -2.17937 -2.76037 0
M  V30 7407 H 718.396 -0.706152 -3.70531 0
M  V30 7408 H 720.783 -0.062911 -2.95033 0
M  V30 7409 H 720.864 -1.56698 -2.02187 0
M  V30 7410 H 720.508 -2.89008 -4.17656 0
M  V30 7411 H 720.438 -1.3605 -5.08722 0
M  V30 7412 H 722.929 -1.36062 -3.52556 0
M  V30 7413 H 723.242 -3.35668 -6.96094 0
M  V30 7414 H 721.587 -3.01249 -6.26318 0
M  V30 7415 H 724.778 -1.76372 -4.33602 0
M  V30 7416 H 724.951 -2.67373 -5.90268 0
M  V30 7417 N 718.357 1.51182 -0.445186 0
M  V30 7418 C 719.304 2.27939 0.362291 0
M  V30 7419 C 720.274 1.31864 1.01 0
M  V30 7420 O 721.459 1.60776 1.02741 0
M  V30 7421 C 718.599 3.13016 1.45311 0
M  V30 7422 C 717.712 4.24093 0.822757 0
M  V30 7423 C 716.847 4.96467 1.88928 0
M  V30 7424 C 715.886 5.99454 1.23778 0
M  V30 7425 N 715.023 6.65206 2.24602 0
M  V30 7426 H 719.863 2.965 -0.29862 0
M  V30 7427 H 717.4 1.46237 -0.15911 0
M  V30 7428 H 719.358 3.60673 2.09692 0
M  V30 7429 H 717.988 2.46553 2.08354 0
M  V30 7430 H 717.04 3.80341 0.0670364 0
M  V30 7431 H 718.352 4.97853 0.307184 0
M  V30 7432 H 717.506 5.47712 2.60953 0
M  V30 7433 H 716.245 4.22355 2.4386 0
M  V30 7434 H 715.25 5.47494 0.503042 0
M  V30 7435 H 716.475 6.75527 0.695694 0
M  V30 7436 H 714.421 5.93901 2.78599 0
M  V30 7437 H 714.338 7.34756 1.77958 0
M  V30 7438 H 715.606 7.21078 2.96085 0
M  V30 7439 N 719.835 0.176821 1.56605 0
M  V30 7440 C 720.745 -0.763682 2.21822 0
M  V30 7441 C 721.761 -1.24889 1.21156 0
M  V30 7442 O 722.937 -1.29987 1.53836 0
M  V30 7443 C 720.002 -1.97352 2.8505 0
M  V30 7444 C 719.063 -1.53466 4.00932 0
M  V30 7445 C 718.296 -2.68682 4.61135 0
M  V30 7446 O 718.519 -3.85694 4.20234 0
M  V30 7447 O 717.453 -2.42442 5.50913 0
M  V30 7448 H 721.279 -0.238363 3.02763 0
M  V30 7449 H 718.864 -0.0516331 1.49311 0
M  V30 7450 H 720.746 -2.68096 3.25119 0
M  V30 7451 H 719.421 -2.48779 2.07101 0
M  V30 7452 H 718.328 -0.796551 3.65521 0
M  V30 7453 H 719.661 -1.06724 4.8049 0
M  V30 7454 N 721.313 -1.57302 -0.09688 0
M  V30 7455 C 722.276 -2.00976 -1.10188 0
M  V30 7456 C 723.276 -0.903009 -1.3305 0
M  V30 7457 O 724.466 -1.16853 -1.29194 0
M  V30 7458 C 721.598 -2.36893 -2.45142 0
M  V30 7459 H 722.791 -2.9098 -0.726003 0
M  V30 7460 H 720.344 -1.52515 -0.341872 0
M  V30 7461 H 721.079 -1.49837 -2.8761 0
M  V30 7462 H 720.864 -3.17632 -2.29897 0
M  V30 7463 H 722.354 -2.71345 -3.1743 0
M  V30 7464 N 722.791 0.367657 -1.53252 0
M  V30 7465 C 723.724 1.47264 -1.74323 0
M  V30 7466 C 724.702 1.51458 -0.591535 0
M  V30 7467 O 725.886 1.69542 -0.823883 0
M  V30 7468 C 723.013 2.85637 -1.82015 0
M  V30 7469 C 722.059 2.99176 -3.03967 0
M  V30 7470 S 722.892 2.68147 -4.63527 0
M  V30 7471 C 724.048 4.08673 -4.74065 0
M  V30 7472 H 724.281 1.29169 -2.67773 0
M  V30 7473 H 721.814 0.561866 -1.43814 0
M  V30 7474 H 723.772 3.65365 -1.87132 0
M  V30 7475 H 722.433 3.01043 -0.896195 0
M  V30 7476 H 721.626 4.00511 -3.05953 0
M  V30 7477 H 721.228 2.27367 -2.96952 0
M  V30 7478 H 723.52 5.02889 -4.53992 0
M  V30 7479 H 724.463 4.11693 -5.7612 0
M  V30 7480 H 724.871 3.95576 -4.02716 0
M  V30 7481 N 724.269 1.44576 0.627338 0
M  V30 7482 C 725.199 1.54562 1.75022 0
M  V30 7483 C 726.18 0.398378 1.65369 0
M  V30 7484 O 727.365 0.61899 1.84071 0
M  V30 7485 C 724.495 1.49309 3.13567 0
M  V30 7486 C 723.449 2.62549 3.38012 0
M  V30 7487 C 722.775 2.42348 4.76625 0
M  V30 7488 C 724.075 4.04678 3.30202 0
M  V30 7489 H 725.769 2.4855 1.66922 0
M  V30 7490 H 723.315 1.19624 0.801636 0
M  V30 7491 H 725.268 1.54895 3.919 0
M  V30 7492 H 723.992 0.518392 3.2246 0
M  V30 7493 H 722.651 2.56358 2.62061 0
M  V30 7494 H 722.299 1.43062 4.82226 0
M  V30 7495 H 721.999 3.18273 4.93939 0
M  V30 7496 H 723.523 2.49758 5.57183 0
M  V30 7497 H 724.937 4.12217 3.98435 0
M  V30 7498 H 723.334 4.80836 3.5905 0
M  V30 7499 H 724.404 4.2798 2.27949 0
M  V30 7500 N 725.747 -0.868086 1.31537 0
M  V30 7501 C 726.995 -1.61807 1.21091 0
M  V30 7502 C 727.316 -1.93631 -0.230623 0
M  V30 7503 O 726.586 -1.5846 -1.15183 0
M  V30 7504 H 725.166 -0.599854 0.445178 0
M  V30 7505 H 727.828 -1.03915 1.64887 0
M  V30 7506 H 726.924 -2.56088 1.78396 0
M  V30 7507 N 727.225 -1.14528 -1.08264 0
M  V30 7508 C 728.453 -0.937964 -1.84418 0
M  V30 7509 C 728.868 0.51357 -1.81681 0
M  V30 7510 O 728.225 1.35591 -1.22153 0
M  V30 7511 C 728.276 -1.43272 -3.31897 0
M  V30 7512 O 727.997 -2.82738 -3.34651 0
M  V30 7513 C 729.498 -1.26555 -4.24851 0
M  V30 7514 H 726.718 -0.333704 -0.582136 0
M  V30 7515 H 729.262 -1.52076 -1.36723 0
M  V30 7516 H 727.417 -0.892653 -3.76975 0
M  V30 7517 H 727.831 -3.04971 -4.26724 0
M  V30 7518 H 729.305 -1.66031 -5.26439 0
M  V30 7519 H 729.782 -0.208589 -4.38704 0
M  V30 7520 H 730.388 -1.79423 -3.856 0
M  V30 7521 N 728.703 1.26451 -0.940633 0
M  V30 7522 C 729.653 2.24086 -0.420669 0
M  V30 7523 C 730.637 1.53501 0.482301 0
M  V30 7524 O 731.829 1.74127 0.317636 0
M  V30 7525 C 728.958 3.41866 0.313452 0
M  V30 7526 C 728.044 4.19737 -0.606779 0
M  V30 7527 N 728.435 4.7521 -1.73232 0
M  V30 7528 C 726.733 4.44091 -0.41226 0
M  V30 7529 C 727.434 5.34052 -2.30572 0
M  V30 7530 N 726.41 5.1971 -1.59381 0
M  V30 7531 H 730.212 2.64569 -1.27986 0
M  V30 7532 H 727.726 1.4153 -0.796436 0
M  V30 7533 H 729.723 4.1093 0.702991 0
M  V30 7534 H 728.383 3.0291 1.16942 0
M  V30 7535 H 729.394 4.72769 -2.11447 0
M  V30 7536 H 726.071 4.1556 0.401984 0
M  V30 7537 H 727.461 5.87845 -3.25404 0
M  V30 7538 N 730.181 0.707592 1.40822 0
M  V30 7539 C 731.427 0.244031 2.01326 0
M  V30 7540 C 731.76 -1.15722 1.55955 0
M  V30 7541 O 731.035 -1.78347 0.776044 0
M  V30 7542 C 731.318 0.315128 3.58718 0
M  V30 7543 C 731.171 1.75419 4.14184 0
M  V30 7544 C 732.49 -0.318251 4.38948 0
M  V30 7545 H 729.609 0.0901471 0.731466 0
M  V30 7546 H 732.251 0.898584 1.67408 0
M  V30 7547 H 730.401 -0.242176 3.87744 0
M  V30 7548 H 732.073 2.36626 3.95987 0
M  V30 7549 H 730.316 2.28449 3.68773 0
M  V30 7550 H 730.987 1.75538 5.23345 0
M  V30 7551 H 733.463 0.156514 4.15806 0
M  V30 7552 H 732.339 -0.238019 5.48384 0
M  V30 7553 H 732.6 -1.40067 4.19325 0
M  V30 7554 N 731.66 -1.50943 0.453197 0
M  V30 7555 C 732.909 -2.01402 -0.10951 0
M  V30 7556 C 733.222 -1.3411 -1.42386 0
M  V30 7557 O 734.428 -1.75626 -2.07045 0
M  V30 7558 C 732.884 -3.5906 -0.245693 0
M  V30 7559 C 732.492 -4.353 1.05916 0
M  V30 7560 C 734.236 -4.17617 -0.761318 0
M  V30 7561 C 732.143 -5.84699 0.887752 0
M  V30 7562 H 731.073 -0.752674 -0.0447013 0
M  V30 7563 H 733.724 -1.73913 0.585375 0
M  V30 7564 H 732.106 -3.83062 -1.00395 0
M  V30 7565 H 733.28 -4.23034 1.82698 0
M  V30 7566 H 731.595 -3.88269 1.50452 0
M  V30 7567 H 734.192 -5.26963 -0.906306 0
M  V30 7568 H 734.535 -3.77824 -1.74799 0
M  V30 7569 H 735.068 -3.97753 -0.0609416 0
M  V30 7570 H 731.807 -6.28933 1.84726 0
M  V30 7571 H 731.327 -5.99587 0.160006 0
M  V30 7572 H 733.006 -6.44682 0.547223 0
M  V30 7573 N 733.138 -0.185124 -1.56509 0
M  V30 7574 C 734.384 0.450356 -1.98352 0
M  V30 7575 C 734.739 1.59923 -1.06969 0
M  V30 7576 O 734.032 1.91272 -0.112084 0
M  V30 7577 C 734.226 0.967977 -3.44042 0
M  V30 7578 C 734.055 -0.129208 -4.49514 0
M  V30 7579 C 732.825 -0.58351 -5.0192 0
M  V30 7580 C 735.023 -0.93459 -5.05737 0
M  V30 7581 N 733.005 -1.65956 -5.91043 0
M  V30 7582 C 734.376 -1.86026 -5.91434 0
M  V30 7583 C 736.431 -0.978125 -4.88198 0
M  V30 7584 C 735.134 -2.82582 -6.61468 0
M  V30 7585 C 737.16 -1.93169 -5.58963 0
M  V30 7586 C 736.522 -2.84481 -6.44399 0
M  V30 7587 H 732.621 0.132504 -0.770692 0
M  V30 7588 H 735.205 -0.288523 -1.9255 0
M  V30 7589 H 733.376 1.67633 -3.50362 0
M  V30 7590 H 735.108 1.57323 -3.72869 0
M  V30 7591 H 731.863 -0.178676 -4.73263 0
M  V30 7592 H 732.287 -2.19848 -6.40309 0
M  V30 7593 H 736.929 -0.286169 -4.2183 0
M  V30 7594 H 734.647 -3.52758 -7.2704 0
M  V30 7595 H 738.233 -1.97166 -5.47373 0
M  V30 7596 H 737.113 -3.57065 -6.98194 0
M  V30 7597 N 734.616 1.57351 0.0885366 0
M  V30 7598 C 735.893 1.77449 0.822873 0
M  V30 7599 C 736.273 0.768463 1.96616 0
M  V30 7600 O 735.621 -0.201757 2.27608 0
M  V30 7601 C 735.831 3.23425 1.31137 0
M  V30 7602 C 737.179 3.86791 1.75152 0
M  V30 7603 O 738.203 3.27215 1.40745 0
M  V30 7604 O 737.062 4.91568 2.38794 0
M  V30 7605 H 734.156 0.727653 0.393002 0
M  V30 7606 H 736.702 1.69556 0.0699095 0
M  V30 7607 H 735.474 3.88188 0.49254 0
M  V30 7608 H 735.097 3.35977 2.12615 0
M  V30 7609 N 736.094 -0.359525 1.53444 0
M  V30 7610 C 737.343 -1.09886 1.69139 0
M  V30 7611 C 737.656 -1.90285 0.452863 0
M  V30 7612 O 738.862 -2.67033 0.490459 0
M  V30 7613 C 737.318 -2.0028 2.99025 0
M  V30 7614 C 736.926 -1.25164 4.30161 0
M  V30 7615 C 738.67 -2.74168 3.24086 0
M  V30 7616 C 736.577 -2.14494 5.51132 0
M  V30 7617 H 735.507 -0.413936 0.630217 0
M  V30 7618 H 738.158 -0.359434 1.79945 0
M  V30 7619 H 736.54 -2.77978 2.82036 0
M  V30 7620 H 737.714 -0.524867 4.57801 0
M  V30 7621 H 736.029 -0.631116 4.11589 0
M  V30 7622 H 738.626 -3.41243 4.11652 0
M  V30 7623 H 738.969 -3.39868 2.40407 0
M  V30 7624 H 739.502 -2.0355 3.41778 0
M  V30 7625 H 736.241 -1.53362 6.37307 0
M  V30 7626 H 735.761 -2.85004 5.27762 0
M  V30 7627 H 737.44 -2.73914 5.86157 0
M  V30 7628 N 737.572 -1.44907 -0.619662 0
M  V30 7629 C 738.82 -1.47999 -1.37625 0
M  V30 7630 C 739.141 -0.118295 -1.94641 0
M  V30 7631 O 738.411 0.85086 -1.76457 0
M  V30 7632 H 736.991 -0.544993 -0.510873 0
M  V30 7633 H 739.653 -1.80772 -0.728522 0
M  V30 7634 H 738.749 -2.21196 -2.20179 0
M  V30 7635 N 739.05 0.861098 -1.31996 0
M  V30 7636 C 739.98 1.98482 -1.22993 0
M  V30 7637 C 740.961 1.6971 -0.115168 0
M  V30 7638 O 742.146 1.91849 -0.30126 0
M  V30 7639 C 739.276 3.34179 -0.945615 0
M  V30 7640 C 738.23 3.77284 -2.02091 0
M  V30 7641 C 737.556 5.1054 -1.58912 0
M  V30 7642 C 738.856 3.93439 -3.43515 0
M  V30 7643 H 740.55 2.06271 -2.17008 0
M  V30 7644 H 738.096 0.991043 -1.04472 0
M  V30 7645 H 740.049 4.12338 -0.869206 0
M  V30 7646 H 738.773 3.26586 0.0301849 0
M  V30 7647 H 737.432 3.01371 -2.08737 0
M  V30 7648 H 737.08 4.99397 -0.600942 0
M  V30 7649 H 736.78 5.40352 -2.30854 0
M  V30 7650 H 738.304 5.91199 -1.52696 0
M  V30 7651 H 739.718 4.6197 -3.39495 0
M  V30 7652 H 738.115 4.34661 -4.13751 0
M  V30 7653 H 739.185 2.96548 -3.8365 0
M  V30 7654 N 740.528 1.15101 1.07655 0
M  V30 7655 C 741.46 0.802722 2.14684 0
M  V30 7656 C 742.473 -0.183874 1.61758 0
M  V30 7657 O 743.662 0.0389349 1.78458 0
M  V30 7658 C 740.762 0.172135 3.38463 0
M  V30 7659 C 739.935 1.19538 4.20749 0
M  V30 7660 C 738.994 0.58714 5.22914 0
M  V30 7661 O 738.02 1.25224 5.55255 0
M  V30 7662 N 739.222 -0.632566 5.77043 0
M  V30 7663 H 741.987 1.72379 2.45164 0
M  V30 7664 H 739.548 1.04647 1.23534 0
M  V30 7665 H 741.54 -0.247465 4.03943 0
M  V30 7666 H 740.11 -0.652214 3.0572 0
M  V30 7667 H 739.33 1.79165 3.51132 0
M  V30 7668 H 740.618 1.88636 4.7254 0
M  V30 7669 H 740.016 -1.19135 5.53013 0
M  V30 7670 H 738.573 -0.994566 6.44167 0
M  V30 7671 N 742.006 -1.2595 0.947325 0
M  V30 7672 C 743.231 -1.98083 0.614633 0
M  V30 7673 C 743.656 -1.70013 -0.804815 0
M  V30 7674 O 743.014 -0.95175 -1.54309 0
M  V30 7675 C 743.062 -3.4993 0.870706 0
M  V30 7676 O 742.166 -4.12364 -0.0541451 0
M  V30 7677 H 741.507 -0.621232 0.234451 0
M  V30 7678 H 744.037 -1.60259 1.27193 0
M  V30 7679 H 744.047 -4.00198 0.794051 0
M  V30 7680 H 742.722 -3.69691 1.90529 0
M  V30 7681 H 741.299 -3.72826 0.0740917 0
M  V30 7682 N 743.484 -0.715051 -1.40445 0
M  V30 7683 C 744.709 -0.26254 -2.05732 0
M  V30 7684 C 745.134 1.08691 -1.53519 0
M  V30 7685 O 744.492 1.68453 -0.670328 0
M  V30 7686 C 744.54 -0.25195 -3.59719 0
M  V30 7687 O 743.644 0.766998 -4.05205 0
M  V30 7688 H 742.985 -0.123398 -0.652433 0
M  V30 7689 H 745.515 -0.975382 -1.79854 0
M  V30 7690 H 745.525 -0.0894537 -4.07902 0
M  V30 7691 H 744.2 -1.23672 -3.97087 0
M  V30 7692 H 742.777 0.572269 -3.68483 0
M  V30 7693 N 744.962 1.50701 -0.461195 0
M  V30 7694 C 746.202 2.04174 0.0960673 0
M  V30 7695 C 746.566 1.33628 1.37868 0
M  V30 7696 O 747.767 1.77602 2.0177 0
M  V30 7697 C 746.038 3.56256 0.285676 0
M  V30 7698 S 747.597 4.31392 0.802917 0
M  V30 7699 H 744.415 0.710701 0.0206282 0
M  V30 7700 H 747.017 1.85204 -0.62607 0
M  V30 7701 H 745.721 4.05159 -0.653773 0
M  V30 7702 H 745.252 3.79562 1.03421 0
M  V30 7703 H 747.267 4.50611 2.07761 0
M  V30 7704 N 746.441 0.193421 1.56409 0
M  V30 7705 C 747.669 -0.451438 2.01915 0
M  V30 7706 C 748.084 -1.55306 1.07357 0
M  V30 7707 O 747.441 -1.82333 0.0781512 0
M  V30 7708 C 747.492 -1.00931 3.47124 0
M  V30 7709 O 747.213 0.0483623 4.38073 0
M  V30 7710 C 748.714 -1.73021 4.0814 0
M  V30 7711 H 745.934 -0.113495 0.661332 0
M  V30 7712 H 748.478 0.301636 2.02263 0
M  V30 7713 H 746.633 -1.71277 3.47481 0
M  V30 7714 H 747.047 -0.366644 5.23217 0
M  V30 7715 H 748.521 -2.07289 5.11601 0
M  V30 7716 H 748.998 -2.6333 3.51502 0
M  V30 7717 H 749.604 -1.07264 4.11551 0
M  V30 7718 N 747.919 -1.57396 -0.0801906 0
M  V30 7719 C 748.852 -1.98386 -1.12774 0
M  V30 7720 C 749.83 -0.859423 -1.38031 0
M  V30 7721 O 751.014 -1.12101 -1.51544 0
M  V30 7722 C 748.141 -2.3134 -2.47386 0
M  V30 7723 C 747.187 -3.53706 -2.38316 0
M  V30 7724 S 748.02 -5.04862 -1.78534 0
M  V30 7725 C 749.176 -5.41008 -3.1474 0
M  V30 7726 H 749.409 -2.86929 -0.778382 0
M  V30 7727 H 746.942 -1.51682 -0.28842 0
M  V30 7728 H 748.9 -2.51 -3.24822 0
M  V30 7729 H 747.561 -1.4334 -2.79486 0
M  V30 7730 H 746.754 -3.74253 -3.37566 0
M  V30 7731 H 746.356 -3.33632 -1.69014 0
M  V30 7732 H 748.648 -5.38565 -4.1104 0
M  V30 7733 H 749.591 -6.41885 -2.98981 0
M  V30 7734 H 749.999 -4.68467 -3.14958 0
M  V30 7735 N 749.397 0.351382 -1.53633 0
M  V30 7736 C 750.643 1.09411 -1.70754 0
M  V30 7737 C 750.976 1.88544 -0.465293 0
M  V30 7738 O 750.251 1.86923 0.537608 0
M  V30 7739 C 750.534 2.04173 -2.96623 0
M  V30 7740 C 750.387 1.28556 -4.31038 0
M  V30 7741 C 751.706 3.04102 -3.18136 0
M  V30 7742 H 748.825 0.396373 -0.621335 0
M  V30 7743 H 751.467 0.373464 -1.86293 0
M  V30 7744 H 749.617 2.65625 -2.83506 0
M  V30 7745 H 751.289 0.697786 -4.55992 0
M  V30 7746 H 749.532 0.587498 -4.29803 0
M  V30 7747 H 750.203 1.97989 -5.15271 0
M  V30 7748 H 752.679 2.5276 -3.30532 0
M  V30 7749 H 751.555 3.67616 -4.07615 0
M  V30 7750 H 751.816 3.75053 -2.34068 0
M  V30 7751 N 750.875 1.45233 0.611969 0
M  V30 7752 C 752.121 1.49242 1.37312 0
M  V30 7753 C 752.454 0.131963 1.93751 0
M  V30 7754 O 751.729 -0.852999 1.74798 0
M  V30 7755 C 752.012 2.56811 2.52428 0
M  V30 7756 C 751.865 4.02284 2.01215 0
M  V30 7757 C 753.184 2.60705 3.54572 0
M  V30 7758 H 750.303 0.54336 0.497925 0
M  V30 7759 H 752.945 1.77019 0.690242 0
M  V30 7760 H 751.095 2.33256 3.10683 0
M  V30 7761 H 752.767 4.37035 1.47643 0
M  V30 7762 H 751.01 4.1315 1.32248 0
M  V30 7763 H 751.681 4.7323 2.84178 0
M  V30 7764 H 754.157 2.81799 3.06151 0
M  V30 7765 H 753.033 3.37841 4.32614 0
M  V30 7766 H 753.294 1.65627 4.09903 0
M  V30 7767 N 752.353 -0.854086 1.3245 0
M  V30 7768 C 753.764 -1.42427 1.20712 0
M  V30 7769 C 754.115 -1.95371 -0.18013 0
M  V30 7770 O 753.24 -1.87587 -1.07889 0
M  V30 7771 C 753.835 -2.58897 2.18536 0
M  V30 7772 C 752.394 -3.11913 2.10683 0
M  V30 7773 C 751.541 -1.84661 2.06871 0
M  V30 7774 H 754.492 -0.661192 1.4427 0
M  V30 7775 H 754.513 -3.36074 1.78422 0
M  V30 7776 H 754.025 -2.20333 3.19492 0
M  V30 7777 H 752.126 -3.55059 1.12977 0
M  V30 7778 H 752.239 -3.73119 3.00532 0
M  V30 7779 H 750.603 -2.04285 1.52118 0
M  V30 7780 H 751.386 -1.48314 3.09609 0
M  V30 7781 N 753.831 -1.1567 -1.07043 0
M  V30 7782 C 755.077 -0.944878 -1.80121 0
M  V30 7783 C 755.432 0.522239 -1.85177 0
M  V30 7784 O 754.725 1.38228 -1.32678 0
M  V30 7785 C 754.919 -1.49677 -3.24548 0
M  V30 7786 C 754.748 -3.01602 -3.33566 0
M  V30 7787 C 753.518 -3.70177 -3.43943 0
M  V30 7788 C 755.716 -3.99362 -3.24059 0
M  V30 7789 N 753.698 -5.09882 -3.41896 0
M  V30 7790 C 755.069 -5.25404 -3.29167 0
M  V30 7791 C 757.124 -3.91289 -3.07891 0
M  V30 7792 C 755.827 -6.44314 -3.19769 0
M  V30 7793 C 757.853 -5.09761 -2.99829 0
M  V30 7794 C 757.215 -6.34679 -3.05552 0
M  V30 7795 H 753.314 -0.399447 -0.672284 0
M  V30 7796 H 755.898 -1.4693 -1.27749 0
M  V30 7797 H 754.069 -0.998941 -3.75334 0
M  V30 7798 H 755.801 -1.22346 -3.85764 0
M  V30 7799 H 752.556 -3.2078 -3.48421 0
M  V30 7800 H 752.98 -5.82857 -3.44393 0
M  V30 7801 H 757.622 -2.95573 -3.02318 0
M  V30 7802 H 755.34 -7.4026 -3.24101 0
M  V30 7803 H 758.926 -5.05279 -2.88418 0
M  V30 7804 H 757.806 -7.24812 -2.99361 0
M  V30 7805 N 755.309 1.25446 -0.953992 0
M  V30 7806 C 756.558 1.92441 -0.604101 0
M  V30 7807 C 756.871 1.75543 0.862796 0
M  V30 7808 O 758.077 2.37106 1.32262 0
M  V30 7809 C 756.533 3.44854 -1.02974 0
M  V30 7810 C 756.141 3.70464 -2.51914 0
M  V30 7811 C 757.885 4.1778 -0.752352 0
M  V30 7812 C 755.792 5.1638 -2.88281 0
M  V30 7813 H 754.722 0.720508 -0.222227 0
M  V30 7814 H 757.373 1.42318 -1.15836 0
M  V30 7815 H 755.755 3.93935 -0.403904 0
M  V30 7816 H 756.929 3.32038 -3.19511 0
M  V30 7817 H 755.244 3.10797 -2.77117 0
M  V30 7818 H 757.841 5.25261 -1.00024 0
M  V30 7819 H 758.184 4.15135 0.311212 0
M  V30 7820 H 758.717 3.74605 -1.33851 0
M  V30 7821 H 755.456 5.24135 -3.93653 0
M  V30 7822 H 754.976 5.55855 -2.25357 0
M  V30 7823 H 756.655 5.84497 -2.77439 0
M  V30 7824 N 756.787 0.722489 1.40064 0
M  V30 7825 C 758.012 0.273446 2.05589 0
M  V30 7826 C 758.437 -1.07875 1.54093 0
M  V30 7827 O 757.795 -1.68095 0.679252 0
M  V30 7828 C 757.843 0.271023 3.5958 0
M  V30 7829 O 756.947 -0.745499 4.05606 0
M  V30 7830 H 756.288 0.126856 0.65177 0
M  V30 7831 H 758.818 0.984906 1.79334 0
M  V30 7832 H 758.828 0.111084 4.07849 0
M  V30 7833 H 757.503 1.25776 3.96425 0
M  V30 7834 H 756.08 -0.552719 3.68781 0
M  V30 7835 N 758.265 -1.50454 0.469181 0
M  V30 7836 C 759.213 -2.30101 -0.340033 0
M  V30 7837 C 760.207 -1.37306 -0.992135 0
M  V30 7838 O 761.413 -1.54506 -0.923458 0
M  V30 7839 H 757.788 -0.740941 -0.128495 0
M  V30 7840 H 759.759 -2.96315 0.352144 0
M  V30 7841 C 758.508 -3.17804 -1.41052 0
M  V30 7842 H 757.831 -3.89115 -0.918124 0
M  V30 7843 H 759.271 -3.76533 -1.94934 0
M  V30 7844 C 757.73 -2.35272 -2.4114 0
M  V30 7845 O 758.26 -2.03448 -3.4637 0
M  V30 7846 N 756.466 -1.97889 -2.1281 0
M  V30 7847 H 756.013 -2.2397 -1.27261 0
M  V30 7848 H 755.971 -1.42971 -2.80012 0
M  V30 7849 N 759.743 -0.201713 -1.56304 0
M  V30 7850 C 760.971 0.440723 -2.02152 0
M  V30 7851 C 761.386 1.54735 -1.08179 0
M  V30 7852 O 760.743 1.82289 -0.0878196 0
M  V30 7853 C 760.794 0.990884 -3.47655 0
M  V30 7854 O 760.515 -0.0715937 -4.38041 0
M  V30 7855 C 762.016 1.70854 -4.09052 0
M  V30 7856 H 759.236 0.109987 -0.661924 0
M  V30 7857 H 761.78 -0.312358 -2.021 0
M  V30 7858 H 759.935 1.69432 -3.48384 0
M  V30 7859 H 760.349 0.338892 -5.23404 0
M  V30 7860 H 761.823 2.04572 -5.12693 0
M  V30 7861 H 762.3 2.61462 -3.52894 0
M  V30 7862 H 762.906 1.0508 -4.12114 0
M  V30 7863 N 761.222 1.57436 0.0718424 0
M  V30 7864 C 762.45 1.91474 0.783932 0
M  V30 7865 C 762.865 0.797669 1.71122 0
M  V30 7866 O 762.222 -0.228989 1.81058 0
M  V30 7867 C 762.273 3.25259 1.57761 0
M  V30 7868 O 761.994 4.3267 0.687596 0
M  V30 7869 C 763.495 3.7331 2.3907 0
M  V30 7870 H 760.715 0.632901 0.222885 0
M  V30 7871 H 763.259 2.04457 0.0421262 0
M  V30 7872 H 761.414 3.13804 2.27169 0
M  V30 7873 H 761.828 5.09641 1.23962 0
M  V30 7874 H 763.302 4.69551 2.90216 0
M  V30 7875 H 763.779 3.02318 3.18591 0
M  V30 7876 H 764.385 3.8771 1.74818 0
M  V30 7877 N 762.7 -0.34323 1.53817 0
M  V30 7878 C 763.93 -1.10188 1.74763 0
M  V30 7879 C 764.338 -1.82829 0.486856 0
M  V30 7880 O 763.681 -1.75236 -0.551198 0
M  V30 7881 C 763.743 -2.16 2.87375 0
M  V30 7882 C 763.407 -1.62931 4.26969 0
M  V30 7883 C 764.404 -1.08147 5.08528 0
M  V30 7884 C 762.089 -1.67769 4.73454 0
M  V30 7885 C 764.083 -0.589039 6.34672 0
M  V30 7886 C 761.77 -1.18138 5.99572 0
M  V30 7887 C 762.768 -0.637979 6.80014 0
M  V30 7888 O 762.456 -0.149073 8.03762 0
M  V30 7889 H 762.188 -0.33445 0.587469 0
M  V30 7890 H 764.742 -0.401109 2.01445 0
M  V30 7891 H 762.972 -2.89637 2.56218 0
M  V30 7892 H 764.661 -2.77432 2.96287 0
M  V30 7893 H 765.427 -1.03732 4.73777 0
M  V30 7894 H 761.306 -2.09004 4.10899 0
M  V30 7895 H 764.85 -0.164233 6.97407 0
M  V30 7896 H 760.747 -1.22254 6.33817 0
M  V30 7897 H 761.515 -0.266332 8.18067 0
M  V30 7898 N 764.178 -1.45556 -0.604258 0
M  V30 7899 C 765.594 -1.30035 -0.925368 0
M  V30 7900 C 765.794 -0.255833 -1.99869 0
M  V30 7901 O 764.85 0.349076 -2.50075 0
M  V30 7902 C 766.163 -2.68028 -1.36314 0
M  V30 7903 C 767.711 -2.75951 -1.47717 0
M  V30 7904 C 768.186 -4.14476 -1.94868 0
M  V30 7905 N 769.677 -4.16787 -2.02097 0
M  V30 7906 C 770.412 -5.20845 -2.39809 0
M  V30 7907 N 769.908 -6.35246 -2.76467 0
M  V30 7908 N 771.701 -5.08204 -2.40177 0
M  V30 7909 H 763.852 -2.1214 0.10512 0
M  V30 7910 H 766.115 -0.947871 -0.0156303 0
M  V30 7911 H 765.821 -3.45667 -0.648628 0
M  V30 7912 H 765.695 -2.96711 -2.329 0
M  V30 7913 H 768.082 -1.98613 -2.18258 0
M  V30 7914 H 768.163 -2.50977 -0.494371 0
M  V30 7915 H 767.807 -4.923 -1.24912 0
M  V30 7916 H 767.737 -4.36843 -2.94068 0
M  V30 7917 H 770.228 -3.34233 -1.76343 0
M  V30 7918 H 770.541 -7.10438 -3.04134 0
M  V30 7919 H 768.886 -6.38642 -2.74155 0
M  V30 7920 H 772.077 -4.17874 -2.10947 0
M  V30 7921 H 772.25 -5.89417 -2.69242 0
M  V30 7922 N 765.656 0.84705 -1.32902 0
M  V30 7923 C 766.588 1.96308 -1.18304 0
M  V30 7924 C 767.601 1.62386 -0.116082 0
M  V30 7925 O 768.79 1.74713 -0.365751 0
M  V30 7926 C 765.89 3.29556 -0.790305 0
M  V30 7927 C 765.063 3.91668 -1.94717 0
M  V30 7928 C 764.122 5.0326 -1.53674 0
M  V30 7929 O 763.148 5.22847 -2.24989 0
M  V30 7930 N 764.35 5.78852 -0.437075 0
M  V30 7931 H 767.115 2.09369 -2.14441 0
M  V30 7932 H 764.676 1.02233 -1.25539 0
M  V30 7933 H 766.668 4.01624 -0.49799 0
M  V30 7934 H 765.238 3.12497 0.0801286 0
M  V30 7935 H 764.458 3.12292 -2.40557 0
M  V30 7936 H 765.746 4.299 -2.72146 0
M  V30 7937 H 765.144 5.65484 0.156316 0
M  V30 7938 H 763.701 6.51479 -0.204399 0
M  V30 7939 N 767.134 1.16236 1.06428 0
M  V30 7940 C 768.362 0.967184 1.82902 0
M  V30 7941 C 768.777 -0.484601 1.82475 0
M  V30 7942 O 768.134 -1.33631 1.24294 0
M  V30 7943 C 768.185 1.48534 3.29576 0
M  V30 7944 O 767.906 2.88026 3.3011 0
M  V30 7945 C 769.407 1.33298 4.22784 0
M  V30 7946 H 766.627 0.342923 0.576754 0
M  V30 7947 H 769.171 1.54232 1.34286 0
M  V30 7948 H 767.326 0.952513 3.75508 0
M  V30 7949 H 767.74 3.11721 4.21818 0
M  V30 7950 H 769.214 1.74385 5.23731 0
M  V30 7951 H 769.691 0.278356 4.38317 0
M  V30 7952 H 770.297 1.85535 3.82697 0
M  V30 7953 N 768.612 -1.24939 0.960631 0
M  V30 7954 C 769.861 -1.92118 0.614298 0
M  V30 7955 C 770.174 -1.75998 -0.853474 0
M  V30 7956 O 771.38 -2.37804 -1.31003 0
M  V30 7957 C 769.836 -3.44303 1.04801 0
M  V30 7958 C 769.444 -3.69123 2.53875 0
M  V30 7959 C 771.188 -4.17375 0.774497 0
M  V30 7960 C 769.095 -5.14843 2.91016 0
M  V30 7961 H 768.025 -0.719319 0.226045 0
M  V30 7962 H 770.676 -1.41701 1.16589 0
M  V30 7963 H 769.058 -3.93715 0.42479 0
M  V30 7964 H 770.232 -3.30339 3.21267 0
M  V30 7965 H 768.547 -3.09323 2.78762 0
M  V30 7966 H 771.144 -5.24723 1.02808 0
M  V30 7967 H 771.487 -4.15294 -0.289192 0
M  V30 7968 H 772.02 -3.7389 1.35835 0
M  V30 7969 H 768.759 -5.2204 3.96427 0
M  V30 7970 H 768.279 -5.54652 2.28302 0
M  V30 7971 H 769.958 -5.83017 2.80535 0
M  V30 7972 N 770.09 -0.729906 -1.39679 0
M  V30 7973 C 771.367 -0.202149 -1.94553 0
M  V30 7974 C 771.747 1.29507 -1.66707 0
M  V30 7975 O 771.095 2.05819 -0.992517 0
M  V30 7976 C 771.305 -0.530279 -3.44948 0
M  V30 7977 C 772.653 -0.476808 -4.21914 0
M  V30 7978 O 773.677 -0.467171 -3.53123 0
M  V30 7979 O 772.536 -0.466869 -5.44502 0
M  V30 7980 H 769.63 -0.0351644 -0.826252 0
M  V30 7981 H 772.176 -0.808417 -1.49207 0
M  V30 7982 H 770.948 -1.56526 -3.5863 0
M  V30 7983 H 770.571 0.10522 -3.97461 0
M  V30 7984 N 771.568 1.50203 -0.477153 0
M  V30 7985 C 772.845 1.95115 0.137609 0
M  V30 7986 C 773.225 1.41778 1.56404 0
M  V30 7987 O 772.573 0.621333 2.1989 0
M  V30 7988 C 772.783 3.4892 0.0747168 0
M  V30 7989 C 774.131 4.238 0.260585 0
M  V30 7990 O 775.155 3.5588 0.151021 0
M  V30 7991 O 774.014 5.44366 0.482534 0
M  V30 7992 H 771.108 0.81987 0.108364 0
M  V30 7993 H 773.654 1.60946 -0.537989 0
M  V30 7994 H 772.426 3.80308 -0.920966 0
M  V30 7995 H 772.049 3.89642 0.791509 0
M  V30 7996 N 773.046 0.209999 1.56195 0
M  V30 7997 C 774.271 -0.433064 2.02828 0
M  V30 7998 C 774.696 -1.5337 1.08901 0
M  V30 7999 O 774.054 -1.81144 0.0751132 0
M  V30 8000 C 774.102 -0.952635 3.47789 0
M  V30 8001 O 773.206 -2.0647 3.56993 0
M  V30 8002 H 772.547 -0.0994594 0.656509 0
M  V30 8003 H 775.077 0.32525 2.01998 0
M  V30 8004 H 775.087 -1.26542 3.8788 0
M  V30 8005 H 773.762 -0.147007 4.1564 0
M  V30 8006 H 772.339 -1.75942 3.28784 0
M  V30 8007 N 774.524 -1.57472 -0.0634922 0
M  V30 8008 C 775.771 -1.87654 -0.761066 0
M  V30 8009 C 776.099 -0.802847 -1.77157 0
M  V30 8010 O 775.354 0.200244 -1.94673 0
M  V30 8011 C 775.653 -3.24521 -1.49736 0
M  V30 8012 C 775.319 -4.46532 -0.626065 0
M  V30 8013 C 773.981 -4.7965 -0.385978 0
M  V30 8014 C 776.333 -5.21195 -0.0224001 0
M  V30 8015 C 773.661 -5.84837 0.467118 0
M  V30 8016 C 776.013 -6.27286 0.818198 0
M  V30 8017 C 774.677 -6.58899 1.06808 0
M  V30 8018 H 773.947 -0.686675 -0.278494 0
M  V30 8019 H 776.594 -1.91488 -0.0216348 0
M  V30 8020 H 774.899 -3.16516 -2.30921 0
M  V30 8021 H 776.596 -3.45111 -2.04204 0
M  V30 8022 H 773.186 -4.20618 -0.823325 0
M  V30 8023 H 777.37 -4.95917 -0.194985 0
M  V30 8024 H 772.626 -6.07725 0.669375 0
M  V30 8025 H 776.8 -6.84298 1.29265 0
M  V30 8026 H 774.427 -7.40233 1.73088 0
M  V30 8027 N 776.003 0.335068 -1.53997 0
M  V30 8028 C 777.231 1.09418 -1.756 0
M  V30 8029 C 777.646 1.82083 -0.499138 0
M  V30 8030 O 777.003 1.74646 0.529631 0
M  V30 8031 C 777.054 2.10115 -2.94166 0
M  V30 8032 O 776.775 1.40404 -4.14992 0
M  V30 8033 C 778.276 2.98336 -3.27888 0
M  V30 8034 H 775.496 0.32595 -0.586513 0
M  V30 8035 H 778.04 0.384693 -2.00849 0
M  V30 8036 H 776.195 2.76616 -2.71224 0
M  V30 8037 H 776.609 2.07743 -4.81605 0
M  V30 8038 H 778.083 3.6491 -4.1418 0
M  V30 8039 H 778.56 3.64814 -2.44556 0
M  V30 8040 H 779.166 2.37412 -3.52868 0
M  V30 8041 N 777.481 1.45874 0.596531 0
M  V30 8042 C 778.391 1.57947 1.73464 0
M  V30 8043 C 779.407 0.463461 1.67714 0
M  V30 8044 O 780.583 0.725685 1.87872 0
M  V30 8045 C 777.648 1.55348 3.09948 0
M  V30 8046 C 776.709 2.78074 3.27068 0
M  V30 8047 C 775.942 2.75589 4.57041 0
M  V30 8048 O 776.165 1.83545 5.40063 0
M  V30 8049 O 775.099 3.66945 4.77111 0
M  V30 8050 H 778.925 2.54169 1.66228 0
M  V30 8051 H 776.51 1.2851 0.76194 0
M  V30 8052 H 778.392 1.56545 3.91244 0
M  V30 8053 H 777.067 0.622811 3.17652 0
M  V30 8054 H 775.974 2.82435 2.45319 0
M  V30 8055 H 777.307 3.70303 3.24248 0
M  V30 8056 N 778.959 -0.83999 1.33349 0
M  V30 8057 C 780.207 -1.59202 1.24496 0
M  V30 8058 C 780.528 -1.94077 -0.189499 0
M  V30 8059 O 779.798 -1.60868 -1.11796 0
M  V30 8060 H 778.378 -0.590276 0.457802 0
M  V30 8061 H 781.04 -1.00394 1.67054 0
M  V30 8062 H 780.136 -2.52247 1.83788 0
M  V30 8063 N 780.437 -1.16799 -1.0581 0
M  V30 8064 C 781.685 -0.950642 -1.78346 0
M  V30 8065 C 782.006 0.522524 -1.87869 0
M  V30 8066 O 781.276 1.3795 -1.39092 0
M  V30 8067 H 779.856 -0.348736 -0.6606 0
M  V30 8068 H 782.518 -1.47158 -1.27791 0
M  V30 8069 H 781.614 -1.37359 -2.80248 0
M  V30 8070 N 781.915 1.24427 -0.967243 0
M  V30 8071 C 783.145 1.96256 -0.64554 0
M  V30 8072 C 783.553 1.71959 0.789098 0
M  V30 8073 O 782.896 0.999913 1.54102 0
M  V30 8074 C 782.958 3.49553 -0.839798 0
M  V30 8075 C 782.622 3.97548 -2.25399 0
M  V30 8076 C 783.619 4.07257 -3.23168 0
M  V30 8077 C 781.304 4.30884 -2.58156 0
M  V30 8078 C 783.298 4.49635 -4.51782 0
M  V30 8079 C 780.985 4.72946 -3.86996 0
M  V30 8080 C 781.983 4.82286 -4.83621 0
M  V30 8081 O 781.671 5.23409 -6.10162 0
M  V30 8082 H 781.403 0.632002 -0.239895 0
M  V30 8083 H 783.957 1.59224 -1.29757 0
M  V30 8084 H 782.187 3.86479 -0.130603 0
M  V30 8085 H 783.876 4.02591 -0.517249 0
M  V30 8086 H 784.642 3.8172 -2.9919 0
M  V30 8087 H 780.521 4.22833 -1.83666 0
M  V30 8088 H 784.065 4.5684 -5.27203 0
M  V30 8089 H 779.962 4.9793 -4.10775 0
M  V30 8090 H 780.73 5.4156 -6.13722 0
M  V30 8091 N 783.393 0.737304 1.3929 0
M  V30 8092 C 784.642 0.283129 1.99703 0
M  V30 8093 C 784.955 -1.13677 1.59176 0
M  V30 8094 O 786.161 -1.69058 2.12442 0
M  V30 8095 C 784.617 0.455262 3.57009 0
M  V30 8096 C 784.225 1.88319 4.06497 0
M  V30 8097 C 785.969 0.0629786 4.24453 0
M  V30 8098 C 783.876 2.00475 5.56385 0
M  V30 8099 H 782.806 0.102106 0.747054 0
M  V30 8100 H 785.457 0.911515 1.5926 0
M  V30 8101 H 783.839 -0.242057 3.9526 0
M  V30 8102 H 785.013 2.61265 3.79575 0
M  V30 8103 H 783.328 2.2289 3.51723 0
M  V30 8104 H 785.925 0.132787 5.34535 0
M  V30 8105 H 786.268 -0.982128 4.04549 0
M  V30 8106 H 786.801 0.71154 3.91385 0
M  V30 8107 H 783.54 3.03182 5.81172 0
M  V30 8108 H 783.06 1.31969 5.85102 0
M  V30 8109 H 784.739 1.787 6.21832 0
M  V30 8110 N 784.871 -1.49948 0.485112 0
M  V30 8111 C 786.096 -2.073 -0.0645059 0
M  V30 8112 C 786.521 -1.345 -1.31497 0
M  V30 8113 O 785.879 -0.39687 -1.76903 0
M  V30 8114 C 785.927 -3.59201 -0.317304 0
M  V30 8115 O 785.031 -3.88085 -1.39514 0
M  V30 8116 H 784.372 -0.663723 0.0191822 0
M  V30 8117 H 786.902 -1.92963 0.680179 0
M  V30 8118 H 786.912 -4.04227 -0.553604 0
M  V30 8119 H 785.587 -4.11602 0.596387 0
M  V30 8120 H 784.164 -3.54885 -1.14504 0
M  V30 8121 N 786.349 -0.21828 -1.56081 0
M  V30 8122 C 787.595 0.414921 -1.9851 0
M  V30 8123 C 787.928 1.59648 -1.10573 0
M  V30 8124 O 787.203 1.93818 -0.162695 0
M  V30 8125 C 787.486 0.852647 -3.4986 0
M  V30 8126 C 787.339 -0.33232 -4.48571 0
M  V30 8127 C 788.658 1.70998 -4.05521 0
M  V30 8128 H 785.777 0.149344 -0.72171 0
M  V30 8129 H 788.419 -0.313858 -1.8739 0
M  V30 8130 H 786.569 1.47362 -3.59467 0
M  V30 8131 H 788.241 -0.970418 -4.50977 0
M  V30 8132 H 786.484 -0.980302 -4.22578 0
M  V30 8133 H 787.155 0.0168407 -5.51997 0
M  V30 8134 H 789.631 1.18606 -3.98838 0
M  V30 8135 H 788.507 1.98517 -5.11744 0
M  V30 8136 H 788.768 2.67219 -3.52202 0
M  V30 8137 N 787.827 1.57504 0.0551401 0
M  V30 8138 C 789.074 1.88055 0.751104 0
M  V30 8139 C 789.402 0.812231 1.76729 0
M  V30 8140 O 788.657 -0.189918 1.94776 0
M  V30 8141 C 788.956 3.25311 1.48013 0
M  V30 8142 C 788.622 4.46858 0.602375 0
M  V30 8143 C 787.284 4.79847 0.360536 0
M  V30 8144 C 789.636 5.212 -0.00524047 0
M  V30 8145 C 786.964 5.84582 -0.498127 0
M  V30 8146 C 789.316 6.26844 -0.851453 0
M  V30 8147 C 787.98 6.58324 -1.103 0
M  V30 8148 H 787.25 0.688142 0.274848 0
M  V30 8149 H 789.897 1.91497 0.0114795 0
M  V30 8150 H 788.202 3.17737 2.29239 0
M  V30 8151 H 789.899 3.46189 2.02371 0
M  V30 8152 H 786.489 4.21049 0.801007 0
M  V30 8153 H 790.673 4.96013 0.168682 0
M  V30 8154 H 785.929 6.07361 -0.701594 0
M  V30 8155 H 790.103 6.83603 -1.32893 0
M  V30 8156 H 787.73 7.39304 -1.77011 0
M  V30 8157 N 789.305 -0.326896 1.54172 0
M  V30 8158 C 790.535 -1.08328 1.75922 0
M  V30 8159 C 790.943 -1.82302 0.50622 0
M  V30 8160 O 790.286 -1.7581 -0.532581 0
M  V30 8161 C 790.348 -2.1294 2.8965 0
M  V30 8162 C 790.012 -1.58394 4.28673 0
M  V30 8163 C 791.009 -1.02747 5.09646 0
M  V30 8164 C 788.694 -1.62737 4.75207 0
M  V30 8165 C 790.688 -0.52169 6.35261 0
M  V30 8166 C 788.375 -1.11772 6.00791 0
M  V30 8167 C 789.373 -0.565819 6.80652 0
M  V30 8168 O 789.061 -0.0638146 8.03875 0
M  V30 8169 H 788.793 -0.3282 0.590983 0
M  V30 8170 H 791.347 -0.37972 2.0186 0
M  V30 8171 H 789.577 -2.86903 2.59275 0
M  V30 8172 H 791.266 -2.74274 2.99213 0
M  V30 8173 H 792.032 -0.987007 4.74851 0
M  V30 8174 H 787.911 -2.04635 4.13093 0
M  V30 8175 H 791.455 -0.0902544 6.97542 0
M  V30 8176 H 787.352 -1.15524 6.35078 0
M  V30 8177 H 788.12 -0.17955 8.18303 0
M  V30 8178 N 790.784 -1.46188 -0.588786 0
M  V30 8179 C 791.716 -1.52319 -1.71265 0
M  V30 8180 C 792.729 -0.412096 -1.57498 0
M  V30 8181 O 793.918 -0.680146 -1.65034 0
M  V30 8182 C 791.018 -1.38164 -3.09458 0
M  V30 8183 C 790.191 -2.63284 -3.49286 0
M  V30 8184 C 789.25 -2.43415 -4.66514 0
M  V30 8185 O 788.276 -3.17113 -4.72682 0
M  V30 8186 N 789.478 -1.49187 -5.61002 0
M  V30 8187 H 792.243 -2.49219 -1.66463 0
M  V30 8188 H 789.804 -1.42167 -0.774601 0
M  V30 8189 H 791.796 -1.22653 -3.85666 0
M  V30 8190 H 790.366 -0.494678 -3.08661 0
M  V30 8191 H 789.586 -2.93779 -2.62845 0
M  V30 8192 H 790.874 -3.46413 -3.7266 0
M  V30 8193 H 790.272 -0.884027 -5.5875 0
M  V30 8194 H 788.829 -1.39642 -6.36666 0
M  V30 8195 N 792.262 0.832906 -1.33792 0
M  V30 8196 C 793.49 1.62048 -1.28639 0
M  V30 8197 C 793.905 1.88269 0.141522 0
M  V30 8198 O 793.262 1.46706 1.08553 0
M  V30 8199 C 793.313 2.96722 -2.0649 0
M  V30 8200 O 793.034 2.7165 -3.43712 0
M  V30 8201 C 794.535 3.91144 -2.08617 0
M  V30 8202 H 791.755 0.504032 -0.442937 0
M  V30 8203 H 794.299 1.03704 -1.76255 0
M  V30 8204 H 792.454 3.51652 -1.62541 0
M  V30 8205 H 792.868 3.57453 -3.83833 0
M  V30 8206 H 794.342 4.82837 -2.67531 0
M  V30 8207 H 794.819 4.25766 -1.07796 0
M  V30 8208 H 795.425 3.42152 -2.52611 0
M  V30 8209 N 793.74 1.17359 1.05189 0
M  V30 8210 C 795.156 0.920861 1.30355 0
M  V30 8211 C 795.356 -0.419993 1.97074 0
M  V30 8212 O 794.412 -1.15696 2.24434 0
M  V30 8213 C 795.725 2.07818 2.1733 0
M  V30 8214 C 797.273 2.1152 2.30712 0
M  V30 8215 C 797.748 3.26637 3.21048 0
M  V30 8216 N 799.239 3.26426 3.28634 0
M  V30 8217 C 799.974 4.12141 3.98657 0
M  V30 8218 N 799.47 5.07966 4.71107 0
M  V30 8219 N 801.263 4.00091 3.94821 0
M  V30 8220 H 793.414 2.03666 0.602821 0
M  V30 8221 H 795.677 0.889294 0.328421 0
M  V30 8222 H 795.383 3.04727 1.75597 0
M  V30 8223 H 795.257 2.02922 3.17966 0
M  V30 8224 H 797.644 1.15196 2.71687 0
M  V30 8225 H 797.725 2.20477 1.29706 0
M  V30 8226 H 797.369 4.23227 2.80788 0
M  V30 8227 H 797.299 3.14917 4.2206 0
M  V30 8228 H 799.79 2.57045 2.77013 0
M  V30 8229 H 800.103 5.69766 5.22099 0
M  V30 8230 H 798.448 5.11936 4.7005 0
M  V30 8231 H 801.639 3.24523 3.37346 0
M  V30 8232 H 801.812 4.6711 4.49123 0
M  V30 8233 N 795.218 -1.23913 0.973828 0
M  V30 8234 C 796.467 -1.91455 0.63464 0
M  V30 8235 C 796.78 -1.76893 -0.834759 0
M  V30 8236 O 797.986 -2.3918 -1.28473 0
M  V30 8237 C 796.442 -3.43172 1.08447 0
M  V30 8238 C 796.05 -3.66409 2.57776 0
M  V30 8239 C 797.794 -4.1653 0.818721 0
M  V30 8240 C 795.701 -5.11728 2.9646 0
M  V30 8241 H 794.631 -0.716881 0.233661 0
M  V30 8242 H 797.282 -1.40457 1.18085 0
M  V30 8243 H 795.664 -3.93242 0.466524 0
M  V30 8244 H 796.838 -3.26913 3.24753 0
M  V30 8245 H 795.153 -3.06349 2.82027 0
M  V30 8246 H 797.75 -5.23603 1.08367 0
M  V30 8247 H 798.093 -4.15578 -0.245128 0
M  V30 8248 H 798.626 -3.72428 1.39793 0
M  V30 8249 H 795.365 -5.17806 4.01941 0
M  V30 8250 H 794.885 -5.52199 2.34172 0
M  V30 8251 H 796.564 -5.80009 2.86703 0
M  V30 8252 N 796.696 -0.74468 -1.38897 0
M  V30 8253 C 797.942 -0.297324 -2.00609 0
M  V30 8254 C 798.275 1.11547 -1.58968 0
M  V30 8255 O 797.55 1.76227 -0.823057 0
M  V30 8256 C 797.833 -0.410125 -3.57757 0
M  V30 8257 C 797.686 -1.86338 -4.09387 0
M  V30 8258 C 799.005 0.20176 -4.39637 0
M  V30 8259 H 796.124 -0.109509 -0.728819 0
M  V30 8260 H 798.766 -0.942653 -1.64967 0
M  V30 8261 H 796.916 0.139287 -3.8825 0
M  V30 8262 H 798.588 -2.47042 -3.89574 0
M  V30 8263 H 796.831 -2.38146 -3.62586 0
M  V30 8264 H 797.502 -1.89352 -5.18507 0
M  V30 8265 H 799.978 -0.266703 -4.15244 0
M  V30 8266 H 798.854 0.0925415 -5.48822 0
M  V30 8267 H 799.115 1.289 -4.22891 0
M  V30 8268 N 798.174 1.49689 -0.493057 0
M  V30 8269 C 799.42 2.02727 0.0543518 0
M  V30 8270 C 799.753 1.37264 1.37376 0
M  V30 8271 O 799.028 0.505644 1.87812 0
M  V30 8272 C 799.311 3.59456 0.215226 0
M  V30 8273 C 799.164 4.35459 -1.12675 0
M  V30 8274 C 800.483 4.29511 0.959586 0
M  V30 8275 H 797.602 0.736773 0.0182786 0
M  V30 8276 H 800.244 1.78792 -0.642924 0
M  V30 8277 H 798.394 3.79981 0.809122 0
M  V30 8278 H 800.066 4.2645 -1.75891 0
M  V30 8279 H 798.309 3.9833 -1.71801 0
M  V30 8280 H 798.98 5.43454 -0.967578 0
M  V30 8281 H 801.456 4.13594 0.455977 0
M  V30 8282 H 800.332 5.38939 1.04098 0
M  V30 8283 H 800.593 3.94202 2.00144 0
M  V30 8284 N 799.652 0.226554 1.55963 0
M  V30 8285 C 801.063 -0.280381 1.84583 0
M  V30 8286 C 801.414 -1.59105 1.14804 0
M  V30 8287 O 800.539 -2.12297 0.419414 0
M  V30 8288 C 801.134 -0.515499 3.34855 0
M  V30 8289 C 799.693 -0.966733 3.63774 0
M  V30 8290 C 798.84 -0.0325753 2.77281 0
M  V30 8291 H 801.791 0.449626 1.52197 0
M  V30 8292 H 801.812 -1.36085 3.55332 0
M  V30 8293 H 801.324 0.438594 3.85614 0
M  V30 8294 H 799.425 -1.93401 3.18476 0
M  V30 8295 H 799.538 -0.837679 4.7172 0
M  V30 8296 H 797.902 -0.540279 2.48904 0
M  V30 8297 H 798.685 0.916524 3.30839 0
M  V30 8298 N 801.13 -1.57531 -0.0467866 0
M  V30 8299 C 802.06 -2.08425 -1.05268 0
M  V30 8300 C 803.041 -0.982941 -1.38825 0
M  V30 8301 O 804.226 -1.25716 -1.48018 0
M  V30 8302 C 801.356 -2.54897 -2.35891 0
M  V30 8303 C 800.31 -3.69132 -2.16623 0
M  V30 8304 C 799.636 -4.01747 -3.52851 0
M  V30 8305 C 800.936 -4.98243 -1.56689 0
M  V30 8306 H 802.63 -2.92716 -0.62908 0
M  V30 8307 H 800.176 -1.40816 -0.301156 0
M  V30 8308 H 802.129 -2.8912 -3.06574 0
M  V30 8309 H 800.853 -1.67666 -2.80278 0
M  V30 8310 H 799.512 -3.35231 -1.48377 0
M  V30 8311 H 799.16 -3.11608 -3.94853 0
M  V30 8312 H 798.86 -4.78681 -3.4079 0
M  V30 8313 H 800.384 -4.38487 -4.24925 0
M  V30 8314 H 801.798 -5.30535 -2.17268 0
M  V30 8315 H 800.195 -5.79669 -1.55255 0
M  V30 8316 H 801.265 -4.81986 -0.530827 0
M  V30 8317 N 802.608 0.318715 -1.54344 0
M  V30 8318 C 803.833 1.07987 -1.77069 0
M  V30 8319 C 804.258 1.80766 -0.520117 0
M  V30 8320 O 803.616 1.73424 0.528566 0
M  V30 8321 C 803.664 2.04987 -2.96669 0
M  V30 8322 O 802.768 3.12974 -2.68554 0
M  V30 8323 H 802.109 0.311109 -0.586606 0
M  V30 8324 H 804.639 0.361533 -2.0138 0
M  V30 8325 H 804.649 2.47771 -3.2415 0
M  V30 8326 H 803.324 1.51417 -3.87357 0
M  V30 8327 H 801.901 2.74831 -2.52037 0
M  V30 8328 N 804.086 1.46499 0.581025 0
M  V30 8329 C 805.314 1.5547 1.36517 0
M  V30 8330 C 805.729 0.196407 1.87776 0
M  V30 8331 O 805.086 -0.806577 1.63709 0
M  V30 8332 C 805.137 2.56084 2.55154 0
M  V30 8333 O 804.858 3.86637 2.06018 0
M  V30 8334 C 806.359 2.75011 3.47683 0
M  V30 8335 H 803.579 0.525703 0.416986 0
M  V30 8336 H 806.123 1.9192 0.706177 0
M  V30 8337 H 804.278 2.22633 3.17039 0
M  V30 8338 H 804.692 4.41413 2.83292 0
M  V30 8339 H 806.166 3.49329 4.27403 0
M  V30 8340 H 806.643 1.81978 3.99726 0
M  V30 8341 H 807.249 3.09565 2.91632 0
M  V30 8342 N 805.565 -0.825799 1.34232 0
M  V30 8343 C 806.976 -1.39835 1.23706 0
M  V30 8344 C 807.327 -1.95709 -0.138649 0
M  V30 8345 O 806.452 -1.89833 -1.03886 0
M  V30 8346 C 807.047 -2.54203 2.23978 0
M  V30 8347 C 805.606 -3.07374 2.17251 0
M  V30 8348 C 804.753 -1.80232 2.10741 0
M  V30 8349 H 807.704 -0.630442 1.4564 0
M  V30 8350 H 807.725 -3.32214 1.8551 0
M  V30 8351 H 807.237 -2.13506 3.24094 0
M  V30 8352 H 805.338 -3.52583 1.20483 0
M  V30 8353 H 805.451 -3.6666 3.08379 0
M  V30 8354 H 803.815 -2.01012 1.56417 0
M  V30 8355 H 804.598 -1.41713 3.12686 0
M  V30 8356 N 807.043 -1.17915 -1.04565 0
M  V30 8357 C 808.459 -0.927761 -1.29864 0
M  V30 8358 C 808.659 0.409536 -1.97294 0
M  V30 8359 O 807.715 1.14505 -2.25044 0
M  V30 8360 C 809.028 -2.08967 -2.16225 0
M  V30 8361 C 810.576 -2.12741 -2.29587 0
M  V30 8362 C 811.051 -3.28335 -3.19312 0
M  V30 8363 N 812.542 -3.28164 -3.26898 0
M  V30 8364 C 813.277 -4.14249 -3.96466 0
M  V30 8365 N 812.773 -5.10457 -4.68407 0
M  V30 8366 N 814.566 -4.02179 -3.92694 0
M  V30 8367 H 806.717 -2.03983 -0.592011 0
M  V30 8368 H 808.98 -0.891023 -0.323701 0
M  V30 8369 H 808.686 -3.05654 -1.73979 0
M  V30 8370 H 808.56 -2.04606 -3.16885 0
M  V30 8371 H 810.947 -1.16636 -2.71072 0
M  V30 8372 H 811.028 -2.21162 -1.28535 0
M  V30 8373 H 810.672 -4.2471 -2.78539 0
M  V30 8374 H 810.602 -3.17151 -4.20384 0
M  V30 8375 H 813.093 -2.58511 -2.75646 0
M  V30 8376 H 813.406 -5.72526 -5.1907 0
M  V30 8377 H 811.751 -5.14422 -4.67328 0
M  V30 8378 H 814.942 -3.26308 -3.3562 0
M  V30 8379 H 815.115 -4.69486 -4.4664 0
M  V30 8380 N 808.521 1.23394 -0.980386 0
M  V30 8381 C 809.431 2.28561 -0.528864 0
M  V30 8382 C 810.447 1.68946 0.416329 0
M  V30 8383 O 811.623 1.99355 0.286251 0
M  V30 8384 C 808.688 3.46323 0.16155 0
M  V30 8385 C 807.749 4.21297 -0.825044 0
M  V30 8386 C 806.982 5.33437 -0.167483 0
M  V30 8387 O 807.205 5.60812 1.04146 0
M  V30 8388 O 806.139 5.95637 -0.866047 0
M  V30 8389 H 809.965 2.69326 -1.40346 0
M  V30 8390 H 807.55 1.29325 -0.748019 0
M  V30 8391 H 809.432 4.17811 0.548841 0
M  V30 8392 H 808.107 3.0751 1.01092 0
M  V30 8393 H 807.014 3.52134 -1.26303 0
M  V30 8394 H 808.347 4.6396 -1.64322 0
M  V30 8395 N 809.999 0.752036 1.385 0
M  V30 8396 C 810.932 0.0717411 2.28087 0
M  V30 8397 C 811.91 -0.729945 1.45295 0
M  V30 8398 O 813.094 -0.708902 1.74662 0
M  V30 8399 C 810.221 -0.905237 3.26379 0
M  V30 8400 C 809.267 -0.189973 4.26077 0
M  V30 8401 S 810.1 1.10815 5.23909 0
M  V30 8402 C 811.256 0.134202 6.25756 0
M  V30 8403 H 811.489 0.831438 2.85437 0
M  V30 8404 H 809.022 0.544552 1.44478 0
M  V30 8405 H 810.98 -1.46358 3.83523 0
M  V30 8406 H 809.641 -1.63789 2.68015 0
M  V30 8407 H 808.834 -0.92985 4.95348 0
M  V30 8408 H 808.436 0.296804 3.7282 0
M  V30 8409 H 810.728 -0.700345 6.7387 0
M  V30 8410 H 811.671 0.794532 7.03628 0
M  V30 8411 H 812.079 -0.245801 5.63965 0
M  V30 8412 N 811.477 -1.49425 0.500989 0
M  V30 8413 C 812.754 -1.9531 -0.106551 0
M  V30 8414 C 813.134 -1.44248 -1.54129 0
M  V30 8415 O 812.482 -0.656237 -2.18874 0
M  V30 8416 C 812.692 -3.48995 -0.0191972 0
M  V30 8417 C 814.04 -4.24161 -0.193129 0
M  V30 8418 O 815.064 -3.56075 -0.0943843 0
M  V30 8419 O 813.923 -5.45064 -0.395869 0
M  V30 8420 H 811.017 -0.82149 -0.0953068 0
M  V30 8421 H 813.563 -1.6007 0.563526 0
M  V30 8422 H 812.335 -3.78794 0.981353 0
M  V30 8423 H 811.958 -3.90852 -0.72942 0
M  V30 8424 N 812.955 -0.234822 -1.55841 0
M  V30 8425 C 814.204 0.393685 -1.97821 0
M  V30 8426 C 814.517 1.59947 -1.1259 0
M  V30 8427 O 815.723 2.29835 -1.44528 0
M  V30 8428 C 814.179 0.751811 -3.5196 0
M  V30 8429 C 813.787 -0.431898 -4.45913 0
M  V30 8430 C 815.531 1.34518 -4.02623 0
M  V30 8431 C 813.438 -0.0505976 -5.91378 0
M  V30 8432 H 812.368 0.150864 -0.738753 0
M  V30 8433 H 815.019 -0.333132 -1.80451 0
M  V30 8434 H 813.401 1.53642 -3.6498 0
M  V30 8435 H 814.575 -1.20935 -4.44647 0
M  V30 8436 H 812.89 -0.939385 -4.05666 0
M  V30 8437 H 815.487 1.64359 -5.08813 0
M  V30 8438 H 815.83 2.26554 -3.49255 0
M  V30 8439 H 816.363 0.623729 -3.9288 0
M  V30 8440 H 813.102 -0.937779 -6.48757 0
M  V30 8441 H 812.622 0.690898 -5.95808 0
M  V30 8442 H 814.301 0.37146 -6.45933 0
M  V30 8443 N 814.433 1.57553 0.0384317 0
M  V30 8444 C 815.363 2.0898 1.04161 0
M  V30 8445 C 816.344 0.99029 1.38301 0
M  V30 8446 O 817.529 1.26499 1.47349 0
M  V30 8447 C 814.659 2.56145 2.34536 0
M  V30 8448 C 813.613 3.70275 2.14663 0
M  V30 8449 C 812.939 4.03612 3.50715 0
M  V30 8450 C 814.239 4.99067 1.54045 0
M  V30 8451 H 815.933 2.93046 0.613548 0
M  V30 8452 H 813.479 1.40973 0.293684 0
M  V30 8453 H 815.432 2.90741 3.05037 0
M  V30 8454 H 814.156 1.6915 2.79385 0
M  V30 8455 H 812.815 3.36013 1.46597 0
M  V30 8456 H 812.463 3.13698 3.93195 0
M  V30 8457 H 812.163 4.80482 3.38247 0
M  V30 8458 H 813.687 4.40735 4.22593 0
M  V30 8459 H 815.101 5.3168 2.14451 0
M  V30 8460 H 813.498 5.80484 1.52178 0
M  V30 8461 H 814.568 4.8226 0.505259 0
M  V30 8462 N 815.911 -0.310526 1.54511 0
M  V30 8463 C 817.159 -1.04484 1.72996 0
M  V30 8464 C 817.48 -1.88118 0.513479 0
M  V30 8465 O 816.75 -1.90119 -0.472384 0
M  V30 8466 H 815.33 -0.388747 0.637875 0
M  V30 8467 H 817.992 -0.343811 1.91844 0
M  V30 8468 H 817.088 -1.70341 2.61515 0
M  V30 8469 N 817.389 -1.46805 -0.573248 0
M  V30 8470 C 818.636 -1.52604 -1.3311 0
M  V30 8471 C 818.964 -0.181633 -1.9365 0
M  V30 8472 O 818.219 0.823775 -1.77517 0
M  V30 8473 C 818.518 -2.58001 -2.47326 0
M  V30 8474 C 818.184 -4.01747 -2.04719 0
M  V30 8475 C 816.846 -4.40881 -1.92814 0
M  V30 8476 C 819.198 -4.92008 -1.71982 0
M  V30 8477 C 816.526 -5.68129 -1.46445 0
M  V30 8478 C 818.878 -6.19703 -1.27089 0
M  V30 8479 C 817.542 -6.57733 -1.13768 0
M  V30 8480 H 816.812 -0.558417 -0.487084 0
M  V30 8481 H 819.459 -1.80327 -0.644538 0
M  V30 8482 H 817.764 -2.23974 -3.2147 0
M  V30 8483 H 819.461 -2.59715 -3.05531 0
M  V30 8484 H 816.051 -3.70819 -2.14922 0
M  V30 8485 H 820.235 -4.62485 -1.8006 0
M  V30 8486 H 815.491 -5.96359 -1.34783 0
M  V30 8487 H 819.665 -6.89064 -1.00814 0
M  V30 8488 H 817.292 -7.56228 -0.776142 0
M  V30 8489 N 818.867 0.818669 -1.34668 0
M  V30 8490 C 820.113 1.57746 -1.27453 0
M  V30 8491 C 820.446 1.93588 0.154077 0
M  V30 8492 O 819.721 1.60371 1.10051 0
M  V30 8493 C 820.004 2.87414 -2.16945 0
M  V30 8494 C 819.857 2.58125 -3.68363 0
M  V30 8495 C 821.176 3.89021 -2.05792 0
M  V30 8496 H 818.295 0.572339 -0.464324 0
M  V30 8497 H 820.937 0.942784 -1.64959 0
M  V30 8498 H 819.087 3.41576 -1.85089 0
M  V30 8499 H 820.759 2.10239 -4.10606 0
M  V30 8500 H 819.002 1.91503 -3.89242 0
M  V30 8501 H 819.673 3.5061 -4.26353 0
M  V30 8502 H 822.149 3.44224 -2.33771 0
M  V30 8503 H 821.025 4.77548 -2.70628 0
M  V30 8504 H 821.286 4.29786 -1.03618 0
M  V30 8505 N 820.346 1.18468 1.03938 0
M  V30 8506 C 821.571 1.00638 1.81347 0
M  V30 8507 C 821.996 -0.440477 1.8287 0
M  V30 8508 O 821.354 -1.31609 1.24695 0
M  V30 8509 C 821.402 1.5673 3.24759 0
M  V30 8510 O 820.506 0.789517 4.04772 0
M  V30 8511 H 819.847 0.356432 0.560225 0
M  V30 8512 H 822.377 1.57253 1.30891 0
M  V30 8513 H 822.387 1.59496 3.75533 0
M  V30 8514 H 821.062 2.62043 3.22965 0
M  V30 8515 H 819.639 0.834267 3.63448 0
M  V30 8516 N 821.824 -1.22873 0.986916 0
M  V30 8517 C 822.787 -2.2281 0.537442 0
M  V30 8518 C 823.787 -1.56331 -0.37646 0
M  V30 8519 O 824.977 -1.73376 -0.169247 0
M  V30 8520 C 822.109 -3.40195 -0.219082 0
M  V30 8521 H 823.302 -2.64089 1.42116 0
M  V30 8522 H 820.855 -1.35819 0.773488 0
M  V30 8523 H 821.59 -3.04381 -1.11905 0
M  V30 8524 H 821.375 -3.89657 0.437026 0
M  V30 8525 H 822.865 -4.14326 -0.521926 0
M  V30 8526 N 823.302 -0.75937 -1.38099 0
M  V30 8527 C 824.542 -0.323116 -2.0183 0
M  V30 8528 C 824.906 1.07658 -1.58977 0
M  V30 8529 O 826.107 1.61227 -2.1508 0
M  V30 8530 C 824.378 -0.448234 -3.54578 0
M  V30 8531 S 825.937 -0.0954152 -4.38696 0
M  V30 8532 H 822.755 -0.125013 -0.699923 0
M  V30 8533 H 825.357 -0.991262 -1.68506 0
M  V30 8534 H 824.061 -1.46778 -3.83255 0
M  V30 8535 H 823.592 0.236895 -3.92686 0
M  V30 8536 H 825.607 1.11312 -4.83554 0
M  V30 8537 N 824.78 1.49157 -0.508906 0
M  V30 8538 C 825.728 2.30922 0.278906 0
M  V30 8539 C 826.722 1.39889 0.955382 0
M  V30 8540 O 827.928 1.56901 0.882169 0
M  V30 8541 H 824.303 0.744087 0.108805 0
M  V30 8542 H 826.274 2.95277 -0.430583 0
M  V30 8543 C 825.023 3.21432 1.32576 0
M  V30 8544 H 824.346 3.91413 0.814634 0
M  V30 8545 H 825.786 3.81568 1.84882 0
M  V30 8546 C 824.245 2.41583 2.34817 0
M  V30 8547 O 824.775 2.1256 3.40854 0
M  V30 8548 N 822.981 2.03462 2.07489 0
M  V30 8549 H 822.528 2.27265 1.21278 0
M  V30 8550 H 822.486 1.50345 2.76123 0
M  V30 8551 N 826.258 0.243083 1.55714 0
M  V30 8552 C 827.535 -0.432851 1.90751 0
M  V30 8553 C 827.915 -1.76153 1.16333 0
M  V30 8554 O 827.263 -2.26783 0.279565 0
M  V30 8555 C 827.473 -0.604685 3.43722 0
M  V30 8556 C 828.821 -0.90231 4.14902 0
M  V30 8557 O 829.845 -0.690689 3.49439 0
M  V30 8558 O 828.704 -1.3051 5.30688 0
M  V30 8559 H 825.798 -0.231835 0.79384 0
M  V30 8560 H 828.344 0.286867 1.67258 0
M  V30 8561 H 827.116 0.331655 3.89892 0
M  V30 8562 H 826.739 -1.37509 3.73065 0
M  V30 8563 N 827.736 -1.57571 -0.0300757 0
M  V30 8564 C 828.983 -1.89226 -0.721091 0
M  V30 8565 C 829.311 -0.840244 -1.75414 0
M  V30 8566 O 828.566 0.158906 -1.95054 0
M  V30 8567 C 828.865 -3.27624 -1.42818 0
M  V30 8568 C 828.531 -4.4776 -0.531208 0
M  V30 8569 C 827.193 -4.8036 -0.28415 0
M  V30 8570 C 829.545 -5.21125 0.0881582 0
M  V30 8571 C 826.873 -5.83715 0.591065 0
M  V30 8572 C 829.225 -6.2541 0.95107 0
M  V30 8573 C 827.889 -6.56486 1.2076 0
M  V30 8574 H 827.159 -0.692428 -0.263866 0
M  V30 8575 H 829.806 -1.91491 0.0189874 0
M  V30 8576 H 828.111 -3.21343 -2.24155 0
M  V30 8577 H 829.808 -3.49365 -1.96838 0
M  V30 8578 H 826.398 -4.2227 -0.73392 0
M  V30 8579 H 830.582 -4.96219 -0.0897496 0
M  V30 8580 H 825.838 -6.06168 0.798132 0
M  V30 8581 H 830.012 -6.81402 1.43751 0
M  V30 8582 H 827.639 -7.36395 1.88751 0
M  V30 8583 N 829.214 0.302327 -1.54673 0
M  V30 8584 C 830.439 1.06103 -1.78205 0
M  V30 8585 C 830.864 1.80204 -0.53926 0
M  V30 8586 O 830.222 1.73975 0.510142 0
M  V30 8587 C 830.27 2.01829 -2.98827 0
M  V30 8588 O 829.374 3.10108 -2.71858 0
M  V30 8589 H 828.715 0.30487 -0.589873 0
M  V30 8590 H 831.245 0.340153 -2.01753 0
M  V30 8591 H 831.255 2.44319 -3.2676 0
M  V30 8592 H 829.93 1.473 -3.88942 0
M  V30 8593 H 828.507 2.72142 -2.54937 0
M  V30 8594 N 830.692 1.47107 0.565454 0
M  V30 8595 C 831.938 1.53535 1.32495 0
M  V30 8596 C 832.271 0.193537 1.93233 0
M  V30 8597 O 831.546 -0.796956 1.77423 0
M  V30 8598 C 831.829 2.64712 2.4413 0
M  V30 8599 C 831.682 4.08482 1.88314 0
M  V30 8600 C 833.001 2.71853 3.46098 0
M  V30 8601 H 830.12 0.558926 0.480386 0
M  V30 8602 H 832.762 1.79125 0.633575 0
M  V30 8603 H 830.912 2.43023 3.03104 0
M  V30 8604 H 832.584 4.4151 1.33665 0
M  V30 8605 H 830.827 4.17148 1.19037 0
M  V30 8606 H 831.498 4.82032 2.68978 0
M  V30 8607 H 833.974 2.91397 2.97031 0
M  V30 8608 H 832.85 3.51433 4.21646 0
M  V30 8609 H 833.111 1.78584 4.04426 0
M  V30 8610 N 832.17 -0.811516 1.35101 0
M  V30 8611 C 833.586 -1.10634 1.15031 0
M  V30 8612 C 833.786 -2.01459 -0.0405379 0
M  V30 8613 O 832.842 -2.42235 -0.712635 0
M  V30 8614 C 834.155 -1.74207 2.45097 0
M  V30 8615 C 835.703 -1.8665 2.51258 0
M  V30 8616 C 836.178 -2.53638 3.81355 0
M  V30 8617 N 837.669 -2.61128 3.82579 0
M  V30 8618 C 838.404 -3.13717 4.79968 0
M  V30 8619 N 837.9 -3.66782 5.87744 0
M  V30 8620 N 839.693 -3.12224 4.67411 0
M  V30 8621 H 831.844 -0.207641 2.11383 0
M  V30 8622 H 834.107 -0.154697 0.935293 0
M  V30 8623 H 833.813 -1.14936 3.32389 0
M  V30 8624 H 833.687 -2.73958 2.59281 0
M  V30 8625 H 836.074 -2.45066 1.64398 0
M  V30 8626 H 836.155 -0.857678 2.40993 0
M  V30 8627 H 835.799 -1.95873 4.68611 0
M  V30 8628 H 835.729 -3.55047 3.88907 0
M  V30 8629 H 838.22 -2.23527 3.04703 0
M  V30 8630 H 838.533 -4.05194 6.58056 0
M  V30 8631 H 836.878 -3.64994 5.91443 0
M  V30 8632 H 840.069 -2.70042 3.82354 0
M  V30 8633 H 840.242 -3.52903 5.43474 0
M  V30 8634 N 833.648 -1.19017 -1.03309 0
M  V30 8635 C 834.578 -0.94772 -2.13402 0
M  V30 8636 C 835.559 0.117383 -1.69694 0
M  V30 8637 O 836.744 -0.0367733 -1.94165 0
M  V30 8638 C 833.874 -0.480977 -3.43953 0
M  V30 8639 C 832.828 -1.48743 -4.01322 0
M  V30 8640 C 832.154 -0.877924 -5.27443 0
M  V30 8641 C 833.454 -2.86642 -4.36616 0
M  V30 8642 H 835.148 -1.86846 -2.33942 0
M  V30 8643 H 832.694 -0.899781 -1.12427 0
M  V30 8644 H 834.647 -0.298677 -4.2034 0
M  V30 8645 H 833.371 0.475348 -3.23122 0
M  V30 8646 H 832.03 -1.65681 -3.27025 0
M  V30 8647 H 831.678 0.0858232 -5.02927 0
M  V30 8648 H 831.378 -1.54996 -5.66789 0
M  V30 8649 H 832.902 -0.706326 -6.06501 0
M  V30 8650 H 834.316 -2.73312 -5.03958 0
M  V30 8651 H 832.713 -3.50599 -4.87032 0
M  V30 8652 H 833.783 -3.39617 -3.46105 0
M  V30 8653 N 835.127 1.22348 -0.993418 0
M  V30 8654 C 836.057 2.26584 -0.564088 0
M  V30 8655 C 837.038 1.65102 0.409298 0
M  V30 8656 O 838.223 1.91872 0.299819 0
M  V30 8657 C 835.353 3.47087 0.121554 0
M  V30 8658 C 834.307 4.21009 -0.770429 0
M  V30 8659 C 833.633 5.34678 0.0481586 0
M  V30 8660 C 834.933 4.79636 -2.06752 0
M  V30 8661 H 836.627 2.62749 -1.43538 0
M  V30 8662 H 834.173 1.26303 -0.691628 0
M  V30 8663 H 836.126 4.19166 0.433303 0
M  V30 8664 H 834.85 3.1002 1.0274 0
M  V30 8665 H 833.509 3.50764 -1.06583 0
M  V30 8666 H 833.157 4.93852 0.954933 0
M  V30 8667 H 832.857 5.85061 -0.545641 0
M  V30 8668 H 834.381 6.09573 0.353991 0
M  V30 8669 H 835.795 5.43654 -1.81969 0
M  V30 8670 H 834.192 5.4036 -2.61019 0
M  V30 8671 H 835.262 3.99659 -2.74592 0
M  V30 8672 N 836.605 0.766683 1.37694 0
M  V30 8673 C 838.021 0.445739 1.53249 0
M  V30 8674 C 838.221 -1.03935 1.72626 0
M  V30 8675 O 837.277 -1.82525 1.74473 0
M  V30 8676 C 838.59 1.2564 2.73194 0
M  V30 8677 C 840.138 1.24779 2.87053 0
M  V30 8678 C 840.613 2.04169 4.09974 0
M  V30 8679 N 842.104 2.01497 4.17077 0
M  V30 8680 C 842.839 2.5971 5.11212 0
M  V30 8681 N 842.335 3.26691 6.10938 0
M  V30 8682 N 844.128 2.49568 5.03659 0
M  V30 8683 H 836.279 1.72899 1.23368 0
M  V30 8684 H 838.542 0.733701 0.600322 0
M  V30 8685 H 838.248 2.30859 2.65324 0
M  V30 8686 H 838.122 0.882133 3.6674 0
M  V30 8687 H 840.509 0.203603 2.94397 0
M  V30 8688 H 840.59 1.66166 1.9448 0
M  V30 8689 H 840.234 3.08606 4.03392 0
M  V30 8690 H 840.164 1.60167 5.01651 0
M  V30 8691 H 842.655 1.52728 3.45662 0
M  V30 8692 H 842.968 3.68497 6.79286 0
M  V30 8693 H 841.313 3.30789 6.11231 0
M  V30 8694 H 844.504 1.96859 4.24693 0
M  V30 8695 H 844.677 2.95231 5.76839 0
M  V30 8696 N 838.083 -1.48885 0.516809 0
M  V30 8697 C 839.36 -1.95412 -0.0858293 0
M  V30 8698 C 839.74 -1.45875 -1.5259 0
M  V30 8699 O 839.088 -0.679415 -2.18166 0
M  V30 8700 C 839.298 -3.48995 0.0178194 0
M  V30 8701 C 840.646 -4.24342 -0.14813 0
M  V30 8702 O 841.67 -3.56155 -0.0566125 0
M  V30 8703 O 840.529 -5.45454 -0.338035 0
M  V30 8704 H 837.623 -0.822455 -0.0865884 0
M  V30 8705 H 840.169 -1.59464 0.580472 0
M  V30 8706 H 838.941 -3.77732 1.02147 0
M  V30 8707 H 838.564 -3.91604 -0.687924 0
M  V30 8708 N 839.561 -0.251338 -1.55583 0
M  V30 8709 C 840.789 0.376187 -2.03451 0
M  V30 8710 C 841.204 1.51215 -1.13047 0
M  V30 8711 O 840.561 1.81917 -0.145769 0
M  V30 8712 C 840.612 0.879779 -3.50631 0
M  V30 8713 O 840.333 -0.210917 -4.37592 0
M  V30 8714 C 841.834 1.57754 -4.14281 0
M  V30 8715 H 839.054 0.0888722 -0.665089 0
M  V30 8716 H 841.598 -0.376497 -2.01004 0
M  V30 8717 H 839.753 1.58263 -3.53598 0
M  V30 8718 H 840.167 0.172203 -5.24217 0
M  V30 8719 H 841.641 1.88158 -5.18942 0
M  V30 8720 H 842.118 2.50103 -3.61034 0
M  V30 8721 H 842.724 0.919154 -4.15249 0
M  V30 8722 N 841.039 1.57585 0.0217189 0
M  V30 8723 C 842.267 1.93871 0.722619 0
M  V30 8724 C 842.682 0.851706 1.68498 0
M  V30 8725 O 842.039 -0.17127 1.81695 0
M  V30 8726 C 842.09 3.30114 1.47333 0
M  V30 8727 O 841.811 4.34639 0.549597 0
M  V30 8728 C 843.312 3.80727 2.27072 0
M  V30 8729 H 840.532 0.639671 0.202637 0
M  V30 8730 H 843.076 2.04487 -0.0229414 0
M  V30 8731 H 841.231 3.20872 2.17071 0
M  V30 8732 H 841.645 5.13326 1.07686 0
M  V30 8733 H 843.119 4.78547 2.75131 0
M  V30 8734 H 843.596 3.12301 3.08812 0
M  V30 8735 H 844.202 3.93075 1.62395 0
M  V30 8736 N 842.517 -0.29412 1.54831 0
M  V30 8737 C 843.467 -1.36476 1.82643 0
M  V30 8738 C 844.451 -1.45638 0.683984 0
M  V30 8739 O 845.643 -1.49675 0.944801 0
M  V30 8740 C 842.772 -2.72865 2.08326 0
M  V30 8741 C 841.858 -2.67898 3.28773 0
M  V30 8742 N 842.249 -2.32547 4.49172 0
M  V30 8743 C 840.547 -2.98991 3.30939 0
M  V30 8744 C 841.248 -2.37048 5.31209 0
M  V30 8745 N 840.224 -2.74679 4.69097 0
M  V30 8746 H 844.026 -1.08119 2.7329 0
M  V30 8747 H 841.54 -0.502718 1.54423 0
M  V30 8748 H 843.537 -3.5007 2.264 0
M  V30 8749 H 842.197 -3.02127 1.1895 0
M  V30 8750 H 843.208 -2.04883 4.7565 0
M  V30 8751 H 839.885 -3.33104 2.51691 0
M  V30 8752 H 841.275 -2.12457 6.37426 0
M  V30 8753 N 843.995 -1.47404 -0.557645 0
M  V30 8754 C 845.244 -1.53268 -1.31118 0
M  V30 8755 C 845.557 -0.199414 -1.94581 0
M  V30 8756 O 846.763 -0.136039 -2.71159 0
M  V30 8757 C 845.219 -2.70178 -2.37764 0
M  V30 8758 C 844.827 -4.10032 -1.80493 0
M  V30 8759 C 846.571 -2.85334 -3.14301 0
M  V30 8760 C 844.478 -5.18244 -2.84916 0
M  V30 8761 H 843.408 -0.570491 -0.493007 0
M  V30 8762 H 846.059 -1.73678 -0.592308 0
M  V30 8763 H 844.441 -2.43147 -3.12563 0
M  V30 8764 H 845.615 -4.46964 -1.12069 0
M  V30 8765 H 843.93 -3.99759 -1.16542 0
M  V30 8766 H 846.527 -3.63347 -3.92279 0
M  V30 8767 H 846.87 -1.93761 -3.68459 0
M  V30 8768 H 847.403 -3.12133 -2.46613 0
M  V30 8769 H 844.142 -6.11691 -2.35614 0
M  V30 8770 H 843.662 -4.85829 -3.51753 0
M  V30 8771 H 845.341 -5.45174 -3.48417 0
M  V30 8772 N 845.473 0.80434 -1.35529 0
M  V30 8773 C 846.383 1.94784 -1.30753 0
M  V30 8774 C 847.399 1.72703 -0.212071 0
M  V30 8775 O 848.575 1.96494 -0.441841 0
M  V30 8776 C 845.64 3.29406 -1.08133 0
M  V30 8777 C 844.701 3.64367 -2.27013 0
M  V30 8778 C 843.934 4.92566 -2.05463 0
M  V30 8779 O 844.157 5.61166 -1.02222 0
M  V30 8780 O 843.091 5.25838 -2.92879 0
M  V30 8781 H 846.917 2.01761 -2.26994 0
M  V30 8782 H 844.502 0.942448 -1.15924 0
M  V30 8783 H 846.384 4.09995 -0.973756 0
M  V30 8784 H 845.059 3.23355 -0.149444 0
M  V30 8785 H 843.966 2.84146 -2.43335 0
M  V30 8786 H 845.299 3.75125 -3.18656 0
M  V30 8787 N 846.951 1.19563 1.02676 0
M  V30 8788 C 847.883 0.893054 2.11086 0
M  V30 8789 C 848.896 -0.115101 1.62393 0
M  V30 8790 O 850.085 0.11459 1.78132 0
M  V30 8791 C 847.185 0.315533 3.37428 0
M  V30 8792 C 846.358 1.37276 4.153 0
M  V30 8793 C 845.417 0.808398 5.19953 0
M  V30 8794 O 844.443 1.48661 5.49444 0
M  V30 8795 N 845.645 -0.387253 5.79207 0
M  V30 8796 H 848.41 1.82622 2.37633 0
M  V30 8797 H 845.971 1.09792 1.18984 0
M  V30 8798 H 847.963 -0.0759166 4.04629 0
M  V30 8799 H 846.533 -0.521961 3.08211 0
M  V30 8800 H 845.753 1.93897 3.43217 0
M  V30 8801 H 847.041 2.08509 4.64114 0
M  V30 8802 H 846.439 -0.955725 5.57568 0
M  V30 8803 H 844.996 -0.720457 6.47806 0
M  V30 8804 N 848.429 -1.21819 0.999893 0
M  V30 8805 C 849.376 -2.24003 0.556005 0
M  V30 8806 C 850.346 -1.60825 -0.415287 0
M  V30 8807 O 851.531 -1.88123 -0.318481 0
M  V30 8808 C 848.671 -3.44904 -0.116289 0
M  V30 8809 C 847.784 -4.22573 0.897574 0
M  V30 8810 C 846.919 -5.30831 0.198073 0
M  V30 8811 C 845.958 -6.00225 1.19983 0
M  V30 8812 N 845.095 -7.00111 0.528157 0
M  V30 8813 H 849.935 -2.61334 1.43208 0
M  V30 8814 H 847.472 -1.28431 0.717205 0
M  V30 8815 H 849.43 -4.13908 -0.523055 0
M  V30 8816 H 848.06 -3.08315 -0.956108 0
M  V30 8817 H 847.112 -3.52797 1.42262 0
M  V30 8818 H 848.424 -4.70363 1.66013 0
M  V30 8819 H 847.578 -6.06121 -0.265065 0
M  V30 8820 H 846.317 -4.84033 -0.596924 0
M  V30 8821 H 845.322 -5.23711 1.67353 0
M  V30 8822 H 846.547 -6.4911 1.99582 0
M  V30 8823 H 844.493 -6.55534 -0.247276 0
M  V30 8824 H 844.41 -7.45943 1.22904 0
M  V30 8825 H 845.678 -7.7945 0.0880543 0
M  V30 8826 N 849.908 -0.773975 -1.37286 0
M  V30 8827 C 850.871 -0.167974 -2.28584 0
M  V30 8828 C 851.871 0.625662 -1.48129 0
M  V30 8829 O 853.061 0.448924 -1.68316 0
M  V30 8830 C 850.193 0.769364 -3.32105 0
M  V30 8831 H 851.386 -0.972806 -2.83684 0
M  V30 8832 H 848.939 -0.542335 -1.46589 0
M  V30 8833 H 849.674 1.59912 -2.82132 0
M  V30 8834 H 849.459 0.202419 -3.91577 0
M  V30 8835 H 850.949 1.18872 -4.00324 0
M  V30 8836 N 851.386 1.48609 -0.524698 0
M  V30 8837 C 852.316 2.32366 0.229837 0
M  V30 8838 C 853.297 1.41759 0.940129 0
M  V30 8839 O 854.482 1.7065 0.926936 0
M  V30 8840 C 851.612 3.22835 1.28043 0
M  V30 8841 C 850.566 4.22424 0.688603 0
M  V30 8842 C 849.892 5.0199 1.84146 0
M  V30 8843 C 851.192 5.21217 -0.336176 0
M  V30 8844 H 852.886 2.95698 -0.469339 0
M  V30 8845 H 850.432 1.42197 -0.227156 0
M  V30 8846 H 852.385 3.80253 1.8162 0
M  V30 8847 H 851.109 2.57492 2.00912 0
M  V30 8848 H 849.768 3.66185 0.174402 0
M  V30 8849 H 849.416 4.33076 2.5584 0
M  V30 8850 H 849.116 5.69392 1.45142 0
M  V30 8851 H 850.64 5.62259 2.38111 0
M  V30 8852 H 852.054 5.7319 0.112307 0
M  V30 8853 H 850.451 5.96642 -0.643324 0
M  V30 8854 H 851.521 4.68676 -1.24381 0
M  V30 8855 N 852.864 0.259585 1.55447 0
M  V30 8856 C 853.827 -0.621359 2.20617 0
M  V30 8857 C 854.827 -1.09317 1.17925 0
M  V30 8858 O 856.017 -0.995842 1.42929 0
M  V30 8859 C 853.149 -1.85546 2.85982 0
M  V30 8860 H 854.342 -0.0525833 2.99854 0
M  V30 8861 H 851.895 0.0101055 1.56297 0
M  V30 8862 H 852.63 -2.46515 2.10715 0
M  V30 8863 H 852.415 -1.52523 3.61219 0
M  V30 8864 H 853.905 -2.48227 3.35817 0
M  V30 8865 N 854.342 -1.57594 -0.0133615 0
M  V30 8866 C 855.274 -2.04402 -1.03695 0
M  V30 8867 C 856.287 -0.959546 -1.31516 0
M  V30 8868 O 857.476 -1.23659 -1.28727 0
M  V30 8869 C 854.576 -2.41766 -2.37491 0
M  V30 8870 C 853.749 -3.72785 -2.28802 0
M  V30 8871 C 852.808 -3.97165 -3.45176 0
M  V30 8872 O 851.834 -4.68013 -3.23963 0
M  V30 8873 N 853.036 -3.44021 -4.67579 0
M  V30 8874 H 855.801 -2.92833 -0.637874 0
M  V30 8875 H 853.362 -1.60647 -0.20101 0
M  V30 8876 H 855.354 -2.55201 -3.14093 0
M  V30 8877 H 853.924 -1.58924 -2.69188 0
M  V30 8878 H 853.144 -3.69555 -1.37197 0
M  V30 8879 H 854.432 -4.58704 -2.20154 0
M  V30 8880 H 853.83 -2.86623 -4.87713 0
M  V30 8881 H 852.387 -3.62808 -5.41492 0
M  V30 8882 N 855.82 0.285905 -1.54985 0
M  V30 8883 C 857.068 1.01718 -1.74636 0
M  V30 8884 C 857.389 1.87277 -0.543342 0
M  V30 8885 O 856.659 1.90847 0.442078 0
M  V30 8886 H 855.239 0.378549 -0.643979 0
M  V30 8887 H 857.901 0.313247 -1.92366 0
M  V30 8888 H 856.997 1.66159 -2.64192 0
M  V30 8889 N 857.298 1.47698 0.54982 0
M  V30 8890 C 858.228 1.63622 1.66583 0
M  V30 8891 C 859.209 0.485477 1.63025 0
M  V30 8892 O 860.394 0.715692 1.80531 0
M  V30 8893 C 857.524 1.65721 3.05211 0
M  V30 8894 C 856.478 2.80097 3.2362 0
M  V30 8895 C 855.804 2.67272 4.63109 0
M  V30 8896 C 857.104 4.21612 3.08286 0
M  V30 8897 H 858.798 2.57049 1.53512 0
M  V30 8898 H 856.344 1.23705 0.737099 0
M  V30 8899 H 858.297 1.75451 3.83138 0
M  V30 8900 H 857.021 0.688593 3.19258 0
M  V30 8901 H 855.68 2.69889 2.48104 0
M  V30 8902 H 855.328 1.68422 4.73965 0
M  V30 8903 H 855.028 3.44008 4.76374 0
M  V30 8904 H 856.552 2.78942 5.43161 0
M  V30 8905 H 857.966 4.32758 3.76024 0
M  V30 8906 H 856.363 4.99193 3.33057 0
M  V30 8907 H 857.433 4.39462 2.04942 0
M  V30 8908 N 858.776 -0.797141 1.35954 0
M  V30 8909 C 860.024 -1.55161 1.29497 0
M  V30 8910 C 860.345 -1.94582 -0.127659 0
M  V30 8911 O 859.615 -1.64343 -1.06622 0
M  V30 8912 H 858.195 -0.575413 0.47635 0
M  V30 8913 H 860.857 -0.950282 1.70164 0
M  V30 8914 H 859.953 -2.46272 1.9172 0
M  V30 8915 N 860.254 -1.20106 -1.0204 0
M  V30 8916 C 861.186 -0.904236 -2.10609 0
M  V30 8917 C 862.199 0.106487 -1.62451 0
M  V30 8918 O 863.388 -0.124035 -1.78069 0
M  V30 8919 C 860.488 -0.333423 -3.37256 0
M  V30 8920 C 859.661 -1.39476 -4.14566 0
M  V30 8921 C 858.72 -0.835961 -5.19517 0
M  V30 8922 O 857.746 -1.51573 -5.48648 0
M  V30 8923 N 858.948 0.356531 -5.79404 0
M  V30 8924 H 861.713 -1.8388 -2.36661 0
M  V30 8925 H 859.274 -1.10422 -1.184 0
M  V30 8926 H 861.266 0.0544571 -4.04663 0
M  V30 8927 H 859.836 0.505608 -3.08484 0
M  V30 8928 H 859.056 -1.95714 -3.42184 0
M  V30 8929 H 860.344 -2.10967 -4.63001 0
M  V30 8930 H 859.742 0.926143 -5.58067 0
M  V30 8931 H 858.299 0.686093 -6.48179 0
M  V30 8932 N 861.732 1.21287 -1.00634 0
M  V30 8933 C 862.665 2.22366 -0.512687 0
M  V30 8934 C 863.643 1.56692 0.434332 0
M  V30 8935 O 864.827 1.85094 0.35674 0
M  V30 8936 C 861.954 3.37738 0.255139 0
M  V30 8937 C 861 4.21673 -0.639883 0
M  V30 8938 S 861.833 4.92474 -2.10308 0
M  V30 8939 C 862.989 6.11275 -1.34512 0
M  V30 8940 H 863.222 2.63896 -1.36918 0
M  V30 8941 H 860.755 1.31176 -0.814387 0
M  V30 8942 H 862.713 4.04624 0.692067 0
M  V30 8943 H 861.374 2.94689 1.08707 0
M  V30 8944 H 860.567 5.03977 -0.0483821 0
M  V30 8945 H 860.169 3.59988 -1.01414 0
M  V30 8946 H 862.461 6.7466 -0.619721 0
M  V30 8947 H 863.404 6.74864 -2.14393 0
M  V30 8948 H 863.812 5.58026 -0.852506 0
M  V30 8949 N 863.21 0.781244 1.36873 0
M  V30 8950 C 864.14 0.188128 2.32741 0
M  V30 8951 C 865.121 -0.672326 1.56249 0
M  V30 8952 O 866.306 -0.607835 1.84442 0
M  V30 8953 C 863.436 -0.684341 3.40491 0
M  V30 8954 C 862.39 0.0755641 4.27933 0
M  V30 8955 C 861.716 -0.916968 5.26779 0
M  V30 8956 C 863.016 1.26006 5.06873 0
M  V30 8957 H 864.71 0.989016 2.82593 0
M  V30 8958 H 862.256 0.477038 1.35869 0
M  V30 8959 H 864.209 -1.10915 4.06541 0
M  V30 8960 H 862.933 -1.51785 2.89187 0
M  V30 8961 H 861.592 0.481258 3.63427 0
M  V30 8962 H 861.24 -1.74528 4.71751 0
M  V30 8963 H 860.94 -0.413 5.86147 0
M  V30 8964 H 862.464 -1.34052 5.95703 0
M  V30 8965 H 863.878 0.911425 5.66009 0
M  V30 8966 H 862.275 1.69676 5.75613 0
M  V30 8967 H 863.345 2.05948 4.38991 0
M  V30 8968 N 864.689 -1.48329 0.532571 0
M  V30 8969 C 865.599 -2.33445 -0.232546 0
M  V30 8970 C 866.615 -1.46651 -0.93645 0
M  V30 8971 O 867.791 -1.79627 -0.910834 0
M  V30 8972 C 864.856 -3.22824 -1.26434 0
M  V30 8973 C 863.917 -4.25492 -0.570511 0
M  V30 8974 C 863.15 -5.10601 -1.55315 0
M  V30 8975 O 863.373 -4.97733 -2.78599 0
M  V30 8976 O 862.307 -5.91927 -1.09112 0
M  V30 8977 H 866.133 -3.00119 0.464988 0
M  V30 8978 H 863.718 -1.46489 0.293462 0
M  V30 8979 H 865.6 -3.78103 -1.86055 0
M  V30 8980 H 864.275 -2.58807 -1.94424 0
M  V30 8981 H 863.182 -3.74041 0.0662587 0
M  V30 8982 H 864.515 -4.92154 0.0674904 0
M  V30 8983 N 866.167 -0.267825 -1.55308 0
M  V30 8984 C 867.392 0.357487 -2.04296 0
M  V30 8985 C 867.817 1.49222 -1.14518 0
M  V30 8986 O 867.175 1.80741 -0.142292 0
M  V30 8987 C 867.223 0.822899 -3.51085 0
M  V30 8988 O 866.327 1.93078 -3.6441 0
M  V30 8989 H 865.668 0.075025 -0.659748 0
M  V30 8990 H 868.198 -0.399996 -2.00652 0
M  V30 8991 H 868.208 1.12059 -3.92309 0
M  V30 8992 H 866.883 -0.0073562 -4.15899 0
M  V30 8993 H 865.46 1.63618 -3.35087 0
M  V30 8994 N 867.645 1.57599 0.00500368 0
M  V30 8995 C 868.578 2.03541 1.03181 0
M  V30 8996 C 869.556 0.924301 1.33774 0
M  V30 8997 O 870.74 1.19204 1.46023 0
M  V30 8998 C 867.867 2.42879 2.36067 0
M  V30 8999 C 866.913 3.64673 2.21169 0
M  V30 9000 S 867.746 5.12805 1.54243 0
M  V30 9001 C 868.902 5.55408 2.88569 0
M  V30 9002 H 869.135 2.90316 0.640598 0
M  V30 9003 H 866.668 1.52886 0.215722 0
M  V30 9004 H 868.626 2.66212 3.12476 0
M  V30 9005 H 867.287 1.56512 2.72329 0
M  V30 9006 H 866.48 3.89932 3.19326 0
M  V30 9007 H 866.082 3.41316 1.52904 0
M  V30 9008 H 868.374 5.57563 3.84876 0
M  V30 9009 H 869.317 6.55418 2.68016 0
M  V30 9010 H 869.725 4.82961 2.92249 0
M  V30 9011 N 869.123 -0.277682 1.55134 0
M  V30 9012 C 870.372 -1.00766 1.74726 0
M  V30 9013 C 870.685 -1.87617 0.553092 0
M  V30 9014 O 871.891 -2.64058 0.631318 0
M  V30 9015 C 870.347 -1.84147 3.09221 0
M  V30 9016 C 869.955 -1.02186 4.3619 0
M  V30 9017 C 871.699 -2.56604 3.38164 0
M  V30 9018 C 869.606 -1.84978 5.61727 0
M  V30 9019 H 868.536 -0.379948 0.651273 0
M  V30 9020 H 871.187 -0.263543 1.81598 0
M  V30 9021 H 869.569 -2.62637 2.96375 0
M  V30 9022 H 870.743 -0.281459 4.5994 0
M  V30 9023 H 869.058 -0.412054 4.14356 0
M  V30 9024 H 871.655 -3.18942 4.29162 0
M  V30 9025 H 871.998 -3.26647 2.58085 0
M  V30 9026 H 872.531 -1.85147 3.52087 0
M  V30 9027 H 869.27 -1.19365 6.4454 0
M  V30 9028 H 868.79 -2.56628 5.42128 0
M  V30 9029 H 870.469 -2.42458 5.99853 0
M  V30 9030 N 870.601 -1.47988 -0.541979 0
M  V30 9031 C 871.878 -1.45878 -1.30303 0
M  V30 9032 C 872.258 -0.163931 -2.10463 0
M  V30 9033 O 871.606 0.854479 -2.11922 0
M  V30 9034 C 871.816 -2.71359 -2.19466 0
M  V30 9035 C 873.164 -3.19199 -2.79995 0
M  V30 9036 O 874.188 -2.72193 -2.2976 0
M  V30 9037 O 873.047 -4.00961 -3.71339 0
M  V30 9038 H 870.141 -0.582043 -0.587498 0
M  V30 9039 H 872.687 -1.60207 -0.559623 0
M  V30 9040 H 871.459 -3.57122 -1.59936 0
M  V30 9041 H 871.082 -2.59692 -3.01075 0
M  V30 9042 N 872.079 0.78992 -1.36375 0
M  V30 9043 C 873.027 1.92394 -1.30719 0
M  V30 9044 C 874.021 1.68226 -0.199076 0
M  V30 9045 O 875.227 1.76239 -0.366051 0
M  V30 9046 H 871.602 0.632382 -0.406936 0
M  V30 9047 H 873.573 1.94282 -2.26488 0
M  V30 9048 C 872.322 3.2941 -1.11284 0
M  V30 9049 H 871.645 3.48573 -1.95798 0
M  V30 9050 H 873.085 4.09111 -1.11373 0
M  V30 9051 C 871.544 3.36405 0.182543 0
M  V30 9052 O 872.074 3.84206 1.17255 0
M  V30 9053 N 870.28 2.89712 0.227046 0
M  V30 9054 H 869.827 2.51004 -0.579217 0
M  V30 9055 H 869.785 2.94773 1.09344 0
M  V30 9056 N 873.557 1.20646 1.01402 0
M  V30 9057 C 874.785 1.04389 1.78635 0
M  V30 9058 C 875.2 -0.406771 1.84366 0
M  V30 9059 O 874.557 -1.28239 1.2985 0
M  V30 9060 C 874.608 1.62378 3.22979 0
M  V30 9061 O 874.329 3.01768 3.17597 0
M  V30 9062 C 875.83 1.5111 4.1675 0
M  V30 9063 H 873.05 0.367077 0.56169 0
M  V30 9064 H 875.594 1.59789 1.27624 0
M  V30 9065 H 873.749 1.11092 3.7113 0
M  V30 9066 H 874.163 3.29331 4.08217 0
M  V30 9067 H 875.637 1.96441 5.15863 0
M  V30 9068 H 876.114 0.464011 4.36742 0
M  V30 9069 H 876.72 2.01599 3.74483 0
M  V30 9070 N 875.035 -1.20752 1.01276 0
M  V30 9071 C 876.281 -1.90302 0.700924 0
M  V30 9072 C 876.614 -1.78406 -0.767142 0
M  V30 9073 O 875.889 -1.16575 -1.55694 0
M  V30 9074 C 876.172 -3.41831 1.13242 0
M  V30 9075 C 876.025 -3.6268 2.66051 0
M  V30 9076 C 877.344 -4.34486 0.700738 0
M  V30 9077 H 874.463 -0.69107 0.256107 0
M  V30 9078 H 877.105 -1.42227 1.25982 0
M  V30 9079 H 875.255 -3.82906 0.656902 0
M  V30 9080 H 876.927 -3.30882 3.21426 0
M  V30 9081 H 875.17 -3.06281 3.07204 0
M  V30 9082 H 875.841 -4.68882 2.91296 0
M  V30 9083 H 878.317 -4.01036 1.10948 0
M  V30 9084 H 877.193 -5.39136 1.03073 0
M  V30 9085 H 877.454 -4.40307 -0.39778 0
M  V30 9086 N 876.513 -0.788492 -1.36457 0
M  V30 9087 C 877.929 -0.470063 -1.52521 0
M  V30 9088 C 878.129 1.01176 -1.74258 0
M  V30 9089 O 877.185 1.79726 -1.77355 0
M  V30 9090 C 878.498 -1.2997 -2.71161 0
M  V30 9091 C 880.046 -1.2933 -2.85031 0
M  V30 9092 C 880.521 -2.10665 -4.06674 0
M  V30 9093 N 882.012 -2.08107 -4.13819 0
M  V30 9094 C 882.747 -2.6781 -5.07016 0
M  V30 9095 N 882.243 -3.36369 -6.05663 0
M  V30 9096 N 884.036 -2.57549 -4.99625 0
M  V30 9097 H 876.187 -1.7484 -1.20602 0
M  V30 9098 H 878.45 -0.743159 -0.588574 0
M  V30 9099 H 878.156 -2.35051 -2.61618 0
M  V30 9100 H 878.03 -0.940367 -3.6529 0
M  V30 9101 H 880.417 -0.250414 -2.94036 0
M  V30 9102 H 880.498 -1.69239 -1.91812 0
M  V30 9103 H 880.142 -3.14984 -3.98431 0
M  V30 9104 H 880.072 -1.68128 -4.9904 0
M  V30 9105 H 882.563 -1.58208 -3.43189 0
M  V30 9106 H 882.876 -3.79258 -6.73338 0
M  V30 9107 H 881.221 -3.40471 -6.05891 0
M  V30 9108 H 884.412 -2.0359 -4.21508 0
M  V30 9109 H 884.585 -3.0437 -5.72069 0
M  V30 9110 N 877.991 1.48044 -0.54043 0
M  V30 9111 C 878.901 2.33565 0.220163 0
M  V30 9112 C 879.917 1.47146 0.928659 0
M  V30 9113 O 881.093 1.80107 0.901295 0
M  V30 9114 C 878.158 3.2349 1.2472 0
M  V30 9115 C 877.219 4.25789 0.547938 0
M  V30 9116 C 876.452 5.11417 1.52605 0
M  V30 9117 O 876.675 4.99204 2.75956 0
M  V30 9118 O 875.609 5.92498 1.05972 0
M  V30 9119 H 879.435 2.99868 -0.480898 0
M  V30 9120 H 877.02 1.46332 -0.301226 0
M  V30 9121 H 878.902 3.79084 1.84047 0
M  V30 9122 H 877.577 2.59835 1.93048 0
M  V30 9123 H 876.484 3.74001 -0.0860941 0
M  V30 9124 H 877.817 4.92111 -0.0935896 0
M  V30 9125 N 879.47 0.276058 1.55163 0
M  V30 9126 C 880.698 -0.343772 2.04024 0
M  V30 9127 C 881.113 -1.49397 1.15438 0
M  V30 9128 O 880.47 -1.81662 0.174692 0
M  V30 9129 C 880.521 -0.823885 3.51986 0
M  V30 9130 O 880.242 0.280507 4.37201 0
M  V30 9131 C 881.743 -1.51143 4.16738 0
M  V30 9132 H 878.963 -0.07828 0.666418 0
M  V30 9133 H 881.507 0.408427 2.0038 0
M  V30 9134 H 879.662 -1.52617 3.56071 0
M  V30 9135 H 880.076 -0.0887831 5.24425 0
M  V30 9136 H 881.55 -1.79878 5.2187 0
M  V30 9137 H 882.027 -2.44327 3.64967 0
M  V30 9138 H 882.633 -0.852975 4.16659 0
M  V30 9139 N 880.948 -1.576 0.00335426 0
M  V30 9140 C 882.194 -1.90996 -0.681799 0
M  V30 9141 C 882.527 -0.877643 -1.73237 0
M  V30 9142 O 881.802 0.103183 -1.94226 0
M  V30 9143 C 882.085 -3.34961 -1.32187 0
M  V30 9144 C 881.938 -4.48911 -0.28261 0
M  V30 9145 C 883.257 -3.78408 -2.24711 0
M  V30 9146 H 880.376 -0.694596 -0.246386 0
M  V30 9147 H 883.018 -1.89919 0.055336 0
M  V30 9148 H 881.168 -3.36008 -1.95014 0
M  V30 9149 H 882.84 -4.59999 0.346241 0
M  V30 9150 H 881.083 -4.32 0.394768 0
M  V30 9151 H 881.754 -5.46609 -0.769576 0
M  V30 9152 H 884.23 -3.78934 -1.71897 0
M  V30 9153 H 883.106 -4.79885 -2.66461 0
M  V30 9154 H 883.367 -3.12464 -3.1276 0
M  V30 9155 N 882.426 0.269451 -1.5528 0
M  V30 9156 C 883.674 0.998604 -1.75705 0
M  V30 9157 C 883.995 1.86691 -0.563175 0
M  V30 9158 O 883.265 1.91305 0.421811 0
M  V30 9159 H 881.845 0.371698 -0.647958 0
M  V30 9160 H 884.507 0.292826 -1.92688 0
M  V30 9161 H 883.603 1.63348 -2.6594 0
M  V30 9162 N 883.904 1.48273 0.534124 0
M  V30 9163 C 884.867 1.6201 1.62127 0
M  V30 9164 C 885.867 0.493653 1.53035 0
M  V30 9165 O 887.057 0.759337 1.56779 0
M  V30 9166 C 884.189 1.5864 3.01739 0
M  V30 9167 H 885.382 2.58944 1.51288 0
M  V30 9168 H 882.935 1.36808 0.755861 0
M  V30 9169 H 883.67 0.631685 3.18088 0
M  V30 9170 H 883.455 2.40415 3.09747 0
M  V30 9171 H 884.945 1.71438 3.80787 0
M  V30 9172 N 885.382 -0.782676 1.36792 0
M  V30 9173 C 886.345 -1.8772 1.31507 0
M  V30 9174 C 887.345 -1.59269 0.221349 0
M  V30 9175 O 888.535 -1.67555 0.476544 0
M  V30 9176 C 885.667 -3.24641 1.04025 0
M  V30 9177 H 886.86 -1.9382 2.28853 0
M  V30 9178 H 884.413 -0.981226 1.21662 0
M  V30 9179 H 885.148 -3.24221 0.0716439 0
M  V30 9180 H 884.933 -3.46681 1.8318 0
M  V30 9181 H 886.423 -4.04711 1.02949 0
M  V30 9182 N 886.86 -1.21182 -1.00761 0
M  V30 9183 C 888.088 -1.05335 -1.78079 0
M  V30 9184 C 888.503 0.396988 -1.84579 0
M  V30 9185 O 887.86 1.27548 -1.30529 0
M  V30 9186 C 887.911 -1.64089 -3.22113 0
M  V30 9187 O 887.632 -3.03448 -3.15992 0
M  V30 9188 C 889.133 -1.53318 -4.15943 0
M  V30 9189 H 886.353 -0.37005 -0.559736 0
M  V30 9190 H 888.897 -1.60463 -1.26775 0
M  V30 9191 H 887.052 -1.13059 -3.70535 0
M  V30 9192 H 887.466 -3.31492 -4.06465 0
M  V30 9193 H 888.94 -1.99174 -5.14814 0
M  V30 9194 H 889.417 -0.487166 -4.3649 0
M  V30 9195 H 890.023 -2.03582 -3.73409 0
M  V30 9196 N 888.338 1.20213 -1.01915 0
M  V30 9197 C 889.563 1.94163 -0.729076 0
M  V30 9198 C 889.988 1.74416 0.704323 0
M  V30 9199 O 889.346 1.0401 1.48498 0
M  V30 9200 C 889.394 3.44258 -1.07324 0
M  V30 9201 O 888.498 4.11979 -0.186367 0
M  V30 9202 H 887.839 0.606506 -0.270272 0
M  V30 9203 H 890.369 1.52571 -1.3632 0
M  V30 9204 H 890.379 3.94888 -1.02603 0
M  V30 9205 H 889.054 3.57954 -2.11759 0
M  V30 9206 H 887.631 3.7176 -0.291334 0
M  V30 9207 N 889.816 0.795718 1.36037 0
M  V30 9208 C 891.232 0.478145 1.52269 0
M  V30 9209 C 891.432 -1.0025 1.74792 0
M  V30 9210 O 890.488 -1.78783 1.78305 0
M  V30 9211 C 891.801 1.31406 2.70468 0
M  V30 9212 C 893.349 1.3084 2.84341 0
M  V30 9213 C 893.824 2.12819 4.05551 0
M  V30 9214 N 895.315 2.10298 4.12709 0
M  V30 9215 C 896.05 2.70495 5.05589 0
M  V30 9216 N 895.546 3.39576 6.03871 0
M  V30 9217 N 897.339 2.60195 4.98252 0
M  V30 9218 H 889.49 1.75477 1.19673 0
M  V30 9219 H 891.753 0.74627 0.584624 0
M  V30 9220 H 891.459 2.36435 2.60368 0
M  V30 9221 H 891.333 0.959726 3.64786 0
M  V30 9222 H 893.72 0.266003 2.93899 0
M  V30 9223 H 893.801 1.70254 1.90912 0
M  V30 9224 H 893.445 3.17093 3.96755 0
M  V30 9225 H 893.375 1.70772 4.98141 0
M  V30 9226 H 895.866 1.60026 3.42345 0
M  V30 9227 H 896.179 3.82823 6.71317 0
M  V30 9228 H 894.524 3.43679 6.04077 0
M  V30 9229 H 897.715 2.05823 4.20422 0
M  V30 9230 H 897.888 3.074 5.70447 0
M  V30 9231 N 891.294 -1.47756 0.548274 0
M  V30 9232 C 892.571 -1.9555 -0.0443603 0
M  V30 9233 C 892.951 -1.49079 -1.49462 0
M  V30 9234 O 892.299 -0.725538 -2.16675 0
M  V30 9235 C 892.509 -3.48879 0.0918425 0
M  V30 9236 C 893.857 -4.2456 -0.0580879 0
M  V30 9237 O 894.881 -3.56195 0.018946 0
M  V30 9238 O 893.74 -5.46048 -0.222261 0
M  V30 9239 H 890.834 -0.824106 -0.0691235 0
M  V30 9240 H 893.38 -1.58196 0.614166 0
M  V30 9241 H 892.152 -3.7548 1.10137 0
M  V30 9242 H 891.775 -3.92975 -0.604704 0
M  V30 9243 N 892.772 -0.284283 -1.55015 0
M  V30 9244 C 893.735 0.586182 -2.21577 0
M  V30 9245 C 894.735 1.07427 -1.1965 0
M  V30 9246 O 895.925 0.972977 -1.44495 0
M  V30 9247 C 893.057 1.80973 -2.88897 0
M  V30 9248 H 894.25 0.00487253 -2.999 0
M  V30 9249 H 891.803 -0.0349696 -1.56261 0
M  V30 9250 H 892.538 2.43131 -2.14611 0
M  V30 9251 H 892.323 1.46757 -3.636 0
M  V30 9252 H 893.813 2.42853 -3.39724 0
M  V30 9253 N 894.251 1.57596 -0.0117121 0
M  V30 9254 C 895.181 2.12188 0.9746 0
M  V30 9255 C 896.162 1.03379 1.35081 0
M  V30 9256 O 897.347 1.31123 1.4325 0
M  V30 9257 C 894.477 2.63477 2.26268 0
M  V30 9258 C 893.431 3.76917 2.02774 0
M  V30 9259 C 892.757 4.14566 3.37697 0
M  V30 9260 C 894.057 5.03715 1.38089 0
M  V30 9261 H 895.751 2.9485 0.520007 0
M  V30 9262 H 893.297 1.41836 0.248685 0
M  V30 9263 H 895.25 3.00299 2.95633 0
M  V30 9264 H 893.974 1.77953 2.73862 0
M  V30 9265 H 892.633 3.40507 1.35832 0
M  V30 9266 H 892.281 3.26048 3.83016 0
M  V30 9267 H 891.981 4.91 3.22789 0
M  V30 9268 H 893.505 4.53956 4.08358 0
M  V30 9269 H 894.919 5.38233 1.97428 0
M  V30 9270 H 893.316 5.85032 1.33634 0
M  V30 9271 H 894.386 4.83624 0.351575 0
M  V30 9272 N 895.729 -0.261212 1.5542 0
M  V30 9273 C 897.14 -0.83138 1.67167 0
M  V30 9274 C 897.491 -1.8659 0.606525 0
M  V30 9275 O 896.616 -2.14953 -0.24985 0
M  V30 9276 C 897.211 -1.51475 3.03052 0
M  V30 9277 C 895.77 -2.0328 3.16787 0
M  V30 9278 C 894.917 -0.878903 2.63003 0
M  V30 9279 H 897.868 -0.0373102 1.58656 0
M  V30 9280 H 897.889 -2.38222 2.96699 0
M  V30 9281 H 897.401 -0.76157 3.80554 0
M  V30 9282 H 895.502 -2.81523 2.44082 0
M  V30 9283 H 895.615 -2.24001 4.2351 0
M  V30 9284 H 893.979 -1.27551 2.2046 0
M  V30 9285 H 894.762 -0.13904 3.43018 0
M  V30 9286 N 897.207 -1.48554 -0.526253 0
M  V30 9287 C 898.155 -1.63804 -1.65139 0
M  V30 9288 C 899.149 -0.504398 -1.61716 0
M  V30 9289 O 900.355 -0.683241 -1.66529 0
M  V30 9290 H 896.73 -0.516071 -0.546969 0
M  V30 9291 H 898.701 -2.58294 -1.49421 0
M  V30 9292 C 897.45 -1.69843 -3.03395 0
M  V30 9293 H 896.773 -2.56438 -3.06724 0
M  V30 9294 H 898.213 -1.84555 -3.81727 0
M  V30 9295 C 896.672 -0.437875 -3.34042 0
M  V30 9296 O 897.202 0.447604 -3.99198 0
M  V30 9297 N 895.408 -0.308444 -2.88958 0
M  V30 9298 H 894.955 -1.02998 -2.36112 0
M  V30 9299 H 894.913 0.533952 -3.09833 0
M  V30 9300 N 898.685 0.775411 -1.37205 0
M  V30 9301 C 899.913 1.56446 -1.35397 0
M  V30 9302 C 900.328 1.887 0.0615437 0
M  V30 9303 O 899.685 1.51178 1.02233 0
M  V30 9304 C 899.736 2.87697 -2.18889 0
M  V30 9305 O 899.457 2.56828 -3.54924 0
M  V30 9306 C 900.958 3.81944 -2.25019 0
M  V30 9307 H 898.178 0.484792 -0.463916 0
M  V30 9308 H 900.722 0.961346 -1.80495 0
M  V30 9309 H 898.877 3.44442 -1.7731 0
M  V30 9310 H 899.291 3.40851 -3.98649 0
M  V30 9311 H 900.765 4.71055 -2.87769 0
M  V30 9312 H 901.242 4.20811 -1.25757 0
M  V30 9313 H 901.848 3.3113 -2.66895 0
M  V30 9314 N 900.163 1.21714 1.00117 0
M  V30 9315 C 901.073 0.99597 2.12409 0
M  V30 9316 C 902.089 -0.0531431 1.73919 0
M  V30 9317 O 903.265 0.137757 2.00928 0
M  V30 9318 C 900.33 0.567593 3.42022 0
M  V30 9319 C 899.391 1.68936 3.94663 0
M  V30 9320 C 898.624 1.28133 5.1809 0
M  V30 9321 O 898.847 0.156574 5.70185 0
M  V30 9322 O 897.781 2.0947 5.64275 0
M  V30 9323 H 901.607 1.93657 2.33946 0
M  V30 9324 H 899.192 1.00236 1.10784 0
M  V30 9325 H 901.074 0.338664 4.20037 0
M  V30 9326 H 899.749 -0.34424 3.21864 0
M  V30 9327 H 898.656 1.97274 3.17858 0
M  V30 9328 H 899.989 2.57876 4.19238 0
M  V30 9329 N 901.641 -1.19671 1.02551 0
M  V30 9330 C 902.604 -2.20987 0.608055 0
M  V30 9331 C 903.604 -1.5745 -0.326534 0
M  V30 9332 O 904.794 -1.73827 -0.114003 0
M  V30 9333 C 901.926 -3.4072 -0.11074 0
M  V30 9334 H 903.119 -2.59434 1.50446 0
M  V30 9335 H 900.672 -1.3329 0.816307 0
M  V30 9336 H 901.407 -3.07787 -1.02165 0
M  V30 9337 H 901.192 -3.88069 0.560772 0
M  V30 9338 H 902.682 -4.15776 -0.389848 0
M  V30 9339 N 903.119 -0.802921 -1.35613 0
M  V30 9340 C 904.344 -0.392846 -2.03645 0
M  V30 9341 C 904.769 0.987075 -1.6012 0
M  V30 9342 O 904.127 1.63849 -0.776101 0
M  V30 9343 C 904.175 -0.480208 -3.57388 0
M  V30 9344 O 903.279 0.507751 -4.09262 0
M  V30 9345 H 902.62 -0.16464 -0.643265 0
M  V30 9346 H 905.15 -1.08779 -1.73287 0
M  V30 9347 H 905.16 -0.348683 -4.06507 0
M  V30 9348 H 903.835 -1.48675 -3.88418 0
M  V30 9349 H 902.412 0.336769 -3.71376 0
M  V30 9350 N 904.597 1.47463 -0.556102 0
M  V30 9351 C 905.845 2.02075 -0.0315712 0
M  V30 9352 C 906.166 1.43292 1.32259 0
M  V30 9353 O 905.436 0.60771 1.86236 0
M  V30 9354 H 904.016 0.74695 -0.0086816 0
M  V30 9355 H 906.678 1.80879 -0.725859 0
M  V30 9356 H 905.774 3.12047 0.0573538 0
M  V30 9357 N 906.075 0.2925 1.54862 0
M  V30 9358 C 907.486 -0.201841 1.85606 0
M  V30 9359 C 907.837 -1.54093 1.21449 0
M  V30 9360 O 906.962 -2.10327 0.509079 0
M  V30 9361 C 907.557 -0.373011 3.3674 0
M  V30 9362 C 906.116 -0.811574 3.67547 0
M  V30 9363 C 905.263 0.0850583 2.7717 0
M  V30 9364 H 908.214 0.513774 1.50153 0
M  V30 9365 H 908.235 -1.20892 3.60785 0
M  V30 9366 H 907.747 0.601751 3.83407 0
M  V30 9367 H 905.848 -1.79719 3.26392 0
M  V30 9368 H 905.961 -0.636853 4.74848 0
M  V30 9369 H 904.325 -0.434224 2.50971 0
M  V30 9370 H 905.108 1.05602 3.26654 0
M  V30 9371 N 907.553 -1.57587 0.0200696 0
M  V30 9372 C 908.781 -1.95718 -0.670964 0
M  V30 9373 C 909.196 -0.896081 -1.6618 0
M  V30 9374 O 908.553 0.123037 -1.82085 0
M  V30 9375 C 908.604 -3.33904 -1.38529 0
M  V30 9376 O 908.325 -4.35943 -0.434167 0
M  V30 9377 C 909.826 -3.86614 -2.16898 0
M  V30 9378 H 907.046 -0.644819 -0.185606 0
M  V30 9379 H 909.59 -2.04354 0.0771495 0
M  V30 9380 H 907.745 -3.26515 -2.08487 0
M  V30 9381 H 908.159 -5.16001 -0.940378 0
M  V30 9382 H 909.633 -4.85673 -2.62346 0
M  V30 9383 H 910.11 -3.20379 -3.00423 0
M  V30 9384 H 910.716 -3.97243 -1.51916 0
M  V30 9385 N 909.032 0.252966 -1.55557 0
M  V30 9386 C 909.982 1.31585 -1.86197 0
M  V30 9387 C 910.966 1.43773 -0.722357 0
M  V30 9388 O 912.158 1.47117 -0.984152 0
M  V30 9389 C 909.287 2.67245 -2.15487 0
M  V30 9390 C 908.373 2.59087 -3.3576 0
M  V30 9391 N 908.764 2.20556 -4.5518 0
M  V30 9392 C 907.062 2.90112 -3.3875 0
M  V30 9393 C 907.763 2.22881 -5.37307 0
M  V30 9394 N 906.739 2.62145 -4.76215 0
M  V30 9395 H 910.541 1.00835 -2.76061 0
M  V30 9396 H 908.055 0.461598 -1.55702 0
M  V30 9397 H 910.052 3.43944 -2.35602 0
M  V30 9398 H 908.712 2.98867 -1.26919 0
M  V30 9399 H 909.723 1.922 -4.80915 0
M  V30 9400 H 906.4 3.26313 -2.60434 0
M  V30 9401 H 907.79 1.95482 -6.42835 0
M  V30 9402 N 910.51 1.48831 0.518367 0
M  V30 9403 C 911.735 1.61379 1.30275 0
M  V30 9404 C 912.16 0.278571 1.86026 0
M  V30 9405 O 911.518 -0.751427 1.64995 0
M  V30 9406 C 911.566 2.67225 2.42122 0
M  V30 9407 O 910.67 2.25192 3.45489 0
M  V30 9408 H 910.011 0.540742 0.385349 0
M  V30 9409 H 912.541 1.949 0.622498 0
M  V30 9410 H 912.551 2.88859 2.8814 0
M  V30 9411 H 911.226 3.64155 2.00907 0
M  V30 9412 H 909.803 2.13819 3.05509 0
M  V30 9413 N 911.988 -0.768124 1.37614 0
M  V30 9414 C 912.935 -1.88151 1.33671 0
M  V30 9415 C 913.905 -1.64871 0.201645 0
M  V30 9416 O 915.09 -1.86739 0.391582 0
M  V30 9417 C 912.23 -3.25264 1.15314 0
M  V30 9418 C 911.343 -3.60473 2.38082 0
M  V30 9419 C 910.478 -4.86814 2.12569 0
M  V30 9420 C 909.517 -5.14765 3.31184 0
M  V30 9421 N 908.654 -6.32295 3.052 0
M  V30 9422 H 913.494 -1.90857 2.28862 0
M  V30 9423 H 911.031 -0.933048 1.13722 0
M  V30 9424 H 912.989 -4.04364 1.02691 0
M  V30 9425 H 911.619 -3.21924 0.237689 0
M  V30 9426 H 910.671 -2.7633 2.61431 0
M  V30 9427 H 911.983 -3.77065 3.26532 0
M  V30 9428 H 911.137 -5.73826 1.96999 0
M  V30 9429 H 909.876 -4.72333 1.21462 0
M  V30 9430 H 908.881 -4.26227 3.4729 0
M  V30 9431 H 910.106 -5.31153 4.23147 0
M  V30 9432 H 908.052 -6.19166 2.16726 0
M  V30 9433 H 907.969 -6.4932 3.87195 0
M  V30 9434 H 909.237 -7.22234 2.93254 0
M  V30 9435 N 913.466 -1.22244 -0.994698 0
M  V30 9436 C 914.376 -1.00722 -2.11878 0
M  V30 9437 C 915.392 0.043919 -1.73945 0
M  V30 9438 O 916.568 -0.148411 -2.00852 0
M  V30 9439 C 913.633 -0.585723 -3.41717 0
M  V30 9440 C 912.694 -1.71027 -3.93762 0
M  V30 9441 C 911.927 -1.30879 -5.17403 0
M  V30 9442 O 912.15 -0.18681 -5.70094 0
M  V30 9443 O 911.084 -2.1246 -5.63156 0
M  V30 9444 H 914.91 -1.94894 -2.32916 0
M  V30 9445 H 912.495 -1.00822 -1.10251 0
M  V30 9446 H 914.377 -0.360935 -4.19851 0
M  V30 9447 H 913.052 0.327166 -3.22042 0
M  V30 9448 H 911.959 -1.98956 -3.16808 0
M  V30 9449 H 913.292 -2.60096 -4.17865 0
M  V30 9450 N 914.944 1.19125 -1.03184 0
M  V30 9451 C 916.193 1.8821 -0.725264 0
M  V30 9452 C 916.506 1.80674 0.749411 0
M  V30 9453 O 917.712 2.45037 1.16915 0
M  V30 9454 C 916.168 3.37607 -1.24697 0
M  V30 9455 C 915.776 3.53693 -2.74964 0
M  V30 9456 C 917.52 4.12149 -1.01652 0
M  V30 9457 C 915.427 4.97001 -3.20538 0
M  V30 9458 H 914.357 0.704916 -0.267599 0
M  V30 9459 H 917.008 1.34663 -1.24652 0
M  V30 9460 H 915.39 3.90569 -0.653614 0
M  V30 9461 H 916.564 3.11046 -3.39981 0
M  V30 9462 H 914.879 2.92544 -2.96322 0
M  V30 9463 H 917.476 5.17837 -1.33226 0
M  V30 9464 H 917.819 4.16274 0.0465712 0
M  V30 9465 H 918.352 3.65334 -1.57403 0
M  V30 9466 H 915.091 4.9804 -4.26189 0
M  V30 9467 H 914.611 5.40398 -2.60251 0
M  V30 9468 H 916.29 5.65669 -3.14049 0
M  V30 9469 N 916.422 0.810101 1.35185 0
M  V30 9470 C 917.833 0.452616 1.81131 0
M  V30 9471 C 918.184 -1.02573 1.67252 0
M  V30 9472 O 917.309 -1.79735 1.20516 0
M  V30 9473 C 917.904 0.814775 3.28857 0
M  V30 9474 C 916.463 0.509839 3.72931 0
M  V30 9475 C 915.61 1.03852 2.57119 0
M  V30 9476 H 918.561 1.00143 1.23114 0
M  V30 9477 H 918.582 0.113635 3.8033 0
M  V30 9478 H 918.094 1.89078 3.38926 0
M  V30 9479 H 916.195 -0.557289 3.68409 0
M  V30 9480 H 916.308 1.04493 4.67566 0
M  V30 9481 H 914.672 0.460671 2.50499 0
M  V30 9482 H 915.455 2.12071 2.69964 0
M  V30 9483 N 917.9 -1.47166 0.563914 0
M  V30 9484 C 918.863 -2.28571 -0.169624 0
M  V30 9485 C 919.863 -1.37331 -0.836467 0
M  V30 9486 O 921.053 -1.59896 -0.6913 0
M  V30 9487 C 918.185 -3.17201 -1.24886 0
M  V30 9488 H 919.378 -2.94896 0.545539 0
M  V30 9489 H 916.931 -1.52966 0.321121 0
M  V30 9490 H 917.666 -2.55582 -1.99621 0
M  V30 9491 H 917.451 -3.84356 -0.775426 0
M  V30 9492 H 918.941 -3.7852 -1.76388 0
M  V30 9493 N 919.378 -0.300708 -1.54705 0
M  V30 9494 C 920.308 0.568675 -2.26469 0
M  V30 9495 C 921.289 1.13817 -1.26411 0
M  V30 9496 O 922.474 1.16756 -1.55183 0
M  V30 9497 C 919.604 1.74077 -3.00524 0
M  V30 9498 C 918.558 1.30165 -4.07727 0
M  V30 9499 C 917.884 2.55888 -4.69495 0
M  V30 9500 C 919.184 0.433106 -5.20501 0
M  V30 9501 H 920.878 -0.0298851 -2.99385 0
M  V30 9502 H 918.424 -0.0158135 -1.43991 0
M  V30 9503 H 920.377 2.35506 -3.49449 0
M  V30 9504 H 919.101 2.36556 -2.25186 0
M  V30 9505 H 917.76 0.710414 -3.59651 0
M  V30 9506 H 917.408 3.16681 -3.90797 0
M  V30 9507 H 917.108 2.27207 -5.41895 0
M  V30 9508 H 918.632 3.18121 -5.21183 0
M  V30 9509 H 920.046 0.95307 -5.65322 0
M  V30 9510 H 918.443 0.240085 -5.9962 0
M  V30 9511 H 919.513 -0.541866 -4.81863 0
M  V30 9512 N 920.856 1.57574 -0.0284266 0
M  V30 9513 C 922.084 1.96071 0.660575 0
M  V30 9514 C 922.499 0.904881 1.65703 0
M  V30 9515 O 921.856 -0.113379 1.82147 0
M  V30 9516 C 921.907 3.34634 1.36756 0
M  V30 9517 O 921.628 4.36167 0.411041 0
M  V30 9518 C 923.129 3.87758 2.14845 0
M  V30 9519 H 920.349 0.645794 0.182183 0
M  V30 9520 H 922.893 2.04311 -0.0879858 0
M  V30 9521 H 921.048 3.27616 2.06753 0
M  V30 9522 H 921.462 5.16493 0.913 0
M  V30 9523 H 922.936 4.87058 2.59767 0
M  V30 9524 H 923.413 3.21967 2.9872 0
M  V30 9525 H 924.019 3.98043 1.49807 0
M  V30 9526 N 922.334 -0.244713 1.55689 0
M  V30 9527 C 923.297 -1.2864 1.89695 0
M  V30 9528 C 924.297 -1.40969 0.773583 0
M  V30 9529 O 925.487 -1.39632 1.04156 0
M  V30 9530 C 922.619 -2.66379 2.12732 0
M  V30 9531 H 923.812 -0.997033 2.82841 0
M  V30 9532 H 921.365 -0.484103 1.48614 0
M  V30 9533 H 922.1 -3.00452 1.22062 0
M  V30 9534 H 921.885 -2.58812 2.94549 0
M  V30 9535 H 923.375 -3.41592 2.40218 0
M  V30 9536 N 923.813 -1.49104 -0.510467 0
M  V30 9537 C 925.059 -1.58346 -1.26705 0
M  V30 9538 C 925.392 -0.265121 -1.92382 0
M  V30 9539 O 924.667 0.730558 -1.80258 0
M  V30 9540 C 924.95 -2.7359 -2.34137 0
M  V30 9541 C 924.803 -4.1519 -1.73024 0
M  V30 9542 C 926.122 -2.84511 -3.3577 0
M  V30 9543 H 923.241 -0.57637 -0.459311 0
M  V30 9544 H 925.883 -1.81353 -0.566658 0
M  V30 9545 H 924.033 -2.54105 -2.93876 0
M  V30 9546 H 925.705 -4.46167 -1.17186 0
M  V30 9547 H 923.948 -4.21279 -1.03473 0
M  V30 9548 H 924.619 -4.91683 -2.50903 0
M  V30 9549 H 927.095 -3.0222 -2.86011 0
M  V30 9550 H 925.971 -3.6684 -4.08313 0
M  V30 9551 H 926.232 -1.93471 -3.97519 0
M  V30 9552 N 925.291 0.760815 -1.38019 0
M  V30 9553 C 926.201 1.90526 -1.36884 0
M  V30 9554 C 927.217 1.71941 -0.266908 0
M  V30 9555 O 928.393 1.94988 -0.50413 0
M  V30 9556 C 925.458 3.25799 -1.18558 0
M  V30 9557 C 924.519 3.56961 -2.3849 0
M  V30 9558 C 923.752 4.8578 -2.21029 0
M  V30 9559 O 923.975 5.57629 -1.20023 0
M  V30 9560 O 922.909 5.16254 -3.0946 0
M  V30 9561 H 926.735 1.94437 -2.33298 0
M  V30 9562 H 924.32 0.905091 -1.18863 0
M  V30 9563 H 926.202 4.0669 -1.1037 0
M  V30 9564 H 924.877 3.22716 -0.252241 0
M  V30 9565 H 923.784 2.7626 -2.52252 0
M  V30 9566 H 925.117 3.64798 -3.30429 0
M  V30 9567 N 926.769 1.22769 0.988202 0
M  V30 9568 C 927.997 1.08155 1.76381 0
M  V30 9569 C 928.412 -0.367573 1.85187 0
M  V30 9570 O 927.769 -1.25455 1.32541 0
M  V30 9571 C 927.82 1.69193 3.19462 0
M  V30 9572 O 927.541 3.08437 3.11125 0
M  V30 9573 C 929.042 1.59915 4.13451 0
M  V30 9574 H 926.262 0.378908 0.553778 0
M  V30 9575 H 928.806 1.6246 1.24206 0
M  V30 9576 H 926.961 1.18939 3.6869 0
M  V30 9577 H 927.375 3.37916 4.0114 0
M  V30 9578 H 928.849 2.07339 5.1158 0
M  V30 9579 H 929.326 0.556546 4.3566 0
M  V30 9580 H 929.932 2.09497 3.70123 0
M  V30 9581 N 928.247 -1.18576 1.03814 0
M  V30 9582 C 929.495 -1.88121 0.738574 0
M  V30 9583 C 929.816 -1.80587 -0.735744 0
M  V30 9584 O 929.086 -1.22251 -1.53074 0
M  V30 9585 H 927.666 -0.696417 0.270208 0
M  V30 9586 H 930.328 -1.43912 1.31435 0
M  V30 9587 H 929.424 -2.94222 1.04115 0
M  V30 9588 N 929.725 -0.817259 -1.34754 0
M  V30 9589 C 930.688 -0.240611 -2.27934 0
M  V30 9590 C 931.688 0.578219 -1.50044 0
M  V30 9591 O 932.878 0.395148 -1.69659 0
M  V30 9592 C 930.01 0.663318 -3.34384 0
M  V30 9593 H 931.203 -1.06257 -2.80445 0
M  V30 9594 H 928.756 -0.588697 -1.4479 0
M  V30 9595 H 929.491 1.50855 -2.87077 0
M  V30 9596 H 929.276 0.0777388 -3.92023 0
M  V30 9597 H 930.766 1.06076 -4.03903 0
M  V30 9598 N 931.203 1.46865 -0.571711 0
M  V30 9599 C 932.431 2.06818 -0.0583975 0
M  V30 9600 C 932.846 1.42218 1.24175 0
M  V30 9601 O 932.203 0.523655 1.74826 0
M  V30 9602 C 932.254 3.61281 0.125673 0
M  V30 9603 O 931.975 4.23462 -1.123 0
M  V30 9604 C 933.476 4.38137 0.674604 0
M  V30 9605 H 930.696 0.668948 -0.052438 0
M  V30 9606 H 933.24 1.88656 -0.789251 0
M  V30 9607 H 931.395 3.78908 0.806707 0
M  V30 9608 H 931.809 5.16192 -0.929869 0
M  V30 9609 H 933.283 5.46845 0.752626 0
M  V30 9610 H 933.76 4.05419 1.68915 0
M  V30 9611 H 934.366 4.2529 0.0287979 0
M  V30 9612 N 932.681 0.308908 1.54543 0
M  V30 9613 C 933.629 -0.579326 2.2527 0
M  V30 9614 C 934.623 -1.13058 1.26152 0
M  V30 9615 O 935.829 -1.08031 1.43977 0
M  V30 9616 H 932.204 -0.205444 0.723392 0
M  V30 9617 H 934.175 0.0396415 2.98374 0
M  V30 9618 C 932.924 -1.73584 3.01271 0
M  V30 9619 H 932.247 -1.32089 3.77349 0
M  V30 9620 H 933.687 -2.33324 3.54028 0
M  V30 9621 C 932.146 -2.6447 2.08703 0
M  V30 9622 O 932.676 -3.65785 1.66025 0
M  V30 9623 N 930.882 -2.32379 1.74495 0
M  V30 9624 H 930.429 -1.50034 2.09398 0
M  V30 9625 H 930.387 -2.93454 1.12836 0
M  V30 9626 N 934.159 -1.57557 0.0367827 0
M  V30 9627 C 935.57 -1.79853 -0.500971 0
M  V30 9628 C 935.921 -0.947749 -1.71791 0
M  V30 9629 O 935.046 -0.160287 -2.15806 0
M  V30 9630 C 935.641 -3.26193 -0.915626 0
M  V30 9631 C 934.2 -3.49457 -1.39845 0
M  V30 9632 C 933.347 -2.74864 -0.366784 0
M  V30 9633 H 936.298 -1.56509 0.262768 0
M  V30 9634 H 936.319 -3.36324 -1.7795 0
M  V30 9635 H 935.831 -3.88089 -0.0297227 0
M  V30 9636 H 933.932 -2.92823 -2.30402 0
M  V30 9637 H 934.045 -4.58172 -1.40054 0
M  V30 9638 H 932.409 -2.4057 -0.836554 0
M  V30 9639 H 933.192 -3.39479 0.510785 0
M  V30 9640 N 935.637 0.236453 -1.55816 0
M  V30 9641 C 936.567 1.29639 -1.94206 0
M  V30 9642 C 937.548 1.49667 -0.808319 0
M  V30 9643 O 938.733 1.621 -1.06945 0
M  V30 9644 C 935.863 2.64914 -2.24584 0
M  V30 9645 C 934.817 2.59565 -3.40308 0
M  V30 9646 C 934.143 3.98732 -3.56254 0
M  V30 9647 C 935.443 2.15642 -4.75706 0
M  V30 9648 H 937.137 0.977552 -2.82992 0
M  V30 9649 H 934.683 0.468804 -1.36155 0
M  V30 9650 H 936.636 3.39209 -2.50031 0
M  V30 9651 H 935.36 2.98455 -1.32636 0
M  V30 9652 H 934.019 1.87728 -3.14887 0
M  V30 9653 H 933.667 4.29556 -2.61707 0
M  V30 9654 H 933.367 3.96039 -4.34082 0
M  V30 9655 H 934.891 4.74711 -3.84033 0
M  V30 9656 H 936.305 2.79673 -5.00456 0
M  V30 9657 H 934.702 2.24039 -5.56711 0
M  V30 9658 H 935.772 1.10831 -4.72064 0
M  V30 9659 N 937.115 1.49373 0.502552 0
M  V30 9660 C 938.361 1.59016 1.25864 0
M  V30 9661 C 938.694 0.27532 1.92238 0
M  V30 9662 O 937.969 -0.720988 1.80643 0
M  V30 9663 C 938.252 2.74828 2.32683 0
M  V30 9664 C 938.105 4.16102 1.7082 0
M  V30 9665 C 939.424 2.86288 3.34256 0
M  V30 9666 H 936.543 0.578798 0.456248 0
M  V30 9667 H 939.185 1.81651 0.557032 0
M  V30 9668 H 937.335 2.5566 2.92524 0
M  V30 9669 H 939.007 4.46782 1.14818 0
M  V30 9670 H 937.25 4.21822 1.01238 0
M  V30 9671 H 937.921 4.93006 2.48292 0
M  V30 9672 H 940.397 3.03733 2.84404 0
M  V30 9673 H 939.273 3.69001 4.06362 0
M  V30 9674 H 939.534 1.95576 3.96488 0
M  V30 9675 N 938.594 -0.753485 1.38421 0
M  V30 9676 C 940.005 -1.33081 1.30944 0
M  V30 9677 C 940.356 -1.96169 -0.0347124 0
M  V30 9678 O 939.481 -1.95073 -0.936768 0
M  V30 9679 C 940.076 -2.41973 2.37138 0
M  V30 9680 C 938.635 -2.95426 2.33239 0
M  V30 9681 C 937.782 -1.68808 2.19998 0
M  V30 9682 H 940.733 -0.552354 1.48777 0
M  V30 9683 H 940.754 -3.21913 2.02859 0
M  V30 9684 H 940.266 -1.96027 3.34956 0
M  V30 9685 H 938.367 -3.45701 1.39003 0
M  V30 9686 H 938.48 -3.49798 3.27381 0
M  V30 9687 H 936.844 -1.92438 1.66852 0
M  V30 9688 H 937.627 -1.24939 3.19758 0
M  V30 9689 N 940.072 -1.23292 -0.981677 0
M  V30 9690 C 941.297 -1.09176 -1.76339 0
M  V30 9691 C 941.722 0.352726 -1.84763 0
M  V30 9692 O 941.08 1.25509 -1.30832 0
M  V30 9693 C 941.128 -1.72046 -3.16911 0
M  V30 9694 O 940.232 -0.98174 -4.00544 0
M  V30 9695 H 939.573 -0.382755 -0.542581 0
M  V30 9696 H 942.103 -1.63319 -1.23239 0
M  V30 9697 H 942.113 -1.77232 -3.67495 0
M  V30 9698 H 940.788 -2.77154 -3.10095 0
M  V30 9699 H 939.365 -1.00672 -3.59054 0
M  V30 9700 N 941.55 1.18024 -1.04442 0
M  V30 9701 C 942.827 1.8398 -0.664125 0
M  V30 9702 C 943.207 1.92961 0.856116 0
M  V30 9703 O 942.555 1.45839 1.75907 0
M  V30 9704 C 942.765 3.22069 -1.34433 0
M  V30 9705 C 944.113 3.98063 -1.47754 0
M  V30 9706 O 945.137 3.31523 -1.30274 0
M  V30 9707 O 943.996 5.17291 -1.76272 0
M  V30 9708 H 941.09 0.793543 -0.23285 0
M  V30 9709 H 943.636 1.25385 -1.14354 0
M  V30 9710 H 942.408 3.10458 -2.38184 0
M  V30 9711 H 942.031 3.88325 -0.853782 0
M  V30 9712 N 943.028 0.824394 1.34319 0
M  V30 9713 C 944.256 0.426194 2.02463 0
M  V30 9714 C 944.671 -0.968298 1.62078 0
M  V30 9715 O 944.028 -1.62689 0.82696 0
M  V30 9716 C 944.079 0.520465 3.57734 0
M  V30 9717 O 943.8 1.86 3.96656 0
M  V30 9718 C 945.301 0.117353 4.43145 0
M  V30 9719 H 942.521 0.170864 0.648881 0
M  V30 9720 H 945.065 1.11296 1.71562 0
M  V30 9721 H 943.22 -0.118233 3.8722 0
M  V30 9722 H 943.634 1.83528 4.91343 0
M  V30 9723 H 945.108 0.234395 5.51502 0
M  V30 9724 H 945.585 -0.939271 4.29039 0
M  V30 9725 H 946.191 0.729908 4.1899 0
M  V30 9726 N 944.506 -1.46559 0.579492 0
M  V30 9727 C 945.752 -2.02699 0.0639363 0
M  V30 9728 C 946.085 -1.4504 -1.29139 0
M  V30 9729 O 945.36 -0.614284 -1.84545 0
M  V30 9730 C 945.643 -3.601 -0.00528618 0
M  V30 9731 C 945.496 -4.28149 1.37871 0
M  V30 9732 C 946.815 -4.34375 -0.707537 0
M  V30 9733 H 943.934 -0.736586 0.0247085 0
M  V30 9734 H 946.576 -1.74739 0.746071 0
M  V30 9735 H 944.726 -3.84052 -0.586206 0
M  V30 9736 H 946.398 -4.1547 2.00455 0
M  V30 9737 H 944.641 -3.87636 1.94732 0
M  V30 9738 H 945.312 -5.36888 1.28278 0
M  V30 9739 H 947.788 -4.15549 -0.214064 0
M  V30 9740 H 946.664 -5.44091 -0.724992 0
M  V30 9741 H 946.925 -4.052 -1.7682 0
M  V30 9742 N 945.984 -0.3171 -1.54377 0
M  V30 9743 C 946.916 0.58571 -2.2159 0
M  V30 9744 C 947.929 1.08495 -1.21378 0
M  V30 9745 O 949.118 0.999638 -1.47883 0
M  V30 9746 C 946.218 1.8157 -2.86156 0
M  V30 9747 C 945.391 1.45625 -4.12447 0
M  V30 9748 C 944.45 2.54308 -4.60667 0
M  V30 9749 O 943.476 2.18724 -5.25498 0
M  V30 9750 N 944.678 3.85129 -4.34345 0
M  V30 9751 H 947.443 0.0102247 -2.99698 0
M  V30 9752 H 945.004 -0.140011 -1.61293 0
M  V30 9753 H 946.996 2.53657 -3.15341 0
M  V30 9754 H 945.566 2.29919 -2.11793 0
M  V30 9755 H 944.786 0.567294 -3.90097 0
M  V30 9756 H 946.074 1.19169 -4.94648 0
M  V30 9757 H 945.472 4.16841 -3.8244 0
M  V30 9758 H 944.029 4.53466 -4.68201 0
M  V30 9759 N 947.462 1.57535 -0.0451378 0
M  V30 9760 C 948.69 1.96761 0.639742 0
M  V30 9761 C 949.105 0.922405 1.64734 0
M  V30 9762 O 948.462 -0.0940535 1.82257 0
M  V30 9763 C 948.513 3.36066 1.33199 0
M  V30 9764 O 948.234 4.36579 0.364757 0
M  V30 9765 C 949.735 3.90015 2.1072 0
M  V30 9766 H 946.955 0.64769 0.175324 0
M  V30 9767 H 949.499 2.04206 -0.109651 0
M  V30 9768 H 947.654 3.2979 2.03266 0
M  V30 9769 H 948.068 5.17432 0.858168 0
M  V30 9770 H 949.542 4.89785 2.54586 0
M  V30 9771 H 950.019 3.25117 2.95288 0
M  V30 9772 H 950.625 3.99609 1.45577 0
M  V30 9773 N 948.94 -0.228186 1.55939 0
M  V30 9774 C 950.356 -0.577583 1.48782 0
M  V30 9775 C 950.556 -1.87461 0.738972 0
M  V30 9776 O 949.612 -2.50988 0.275929 0
M  V30 9777 C 950.925 -0.662961 2.93301 0
M  V30 9778 C 952.473 -0.754035 3.03782 0
M  V30 9779 C 952.948 -0.870815 4.49645 0
M  V30 9780 N 954.439 -0.935208 4.53661 0
M  V30 9781 C 955.174 -1.04516 5.63794 0
M  V30 9782 N 954.67 -1.11948 6.83696 0
M  V30 9783 N 956.463 -1.07978 5.51631 0
M  V30 9784 H 948.614 0.623018 2.03057 0
M  V30 9785 H 950.877 0.217692 0.922667 0
M  V30 9786 H 950.583 0.220375 3.51009 0
M  V30 9787 H 950.457 -1.52876 3.44831 0
M  V30 9788 H 952.844 -1.62782 2.46143 0
M  V30 9789 H 952.925 0.137301 2.55431 0
M  V30 9790 H 952.569 -0.0015186 5.079 0
M  V30 9791 H 952.499 -1.77747 4.95695 0
M  V30 9792 H 954.99 -0.88836 3.6731 0
M  V30 9793 H 955.303 -1.20297 7.6338 0
M  V30 9794 H 953.648 -1.08873 6.8642 0
M  V30 9795 H 956.839 -1.01833 4.56889 0
M  V30 9796 H 957.012 -1.16202 6.37496 0
M  V30 9797 N 950.418 -1.49637 -0.494624 0
M  V30 9798 C 951.368 -1.63168 -1.59249 0
M  V30 9799 C 952.352 -0.487089 -1.5335 0
M  V30 9800 O 953.544 -0.74036 -1.60772 0
M  V30 9801 C 950.673 -1.70744 -2.97828 0
M  V30 9802 C 949.759 -2.90802 -3.08699 0
M  V30 9803 N 950.15 -4.14797 -2.89442 0
M  V30 9804 C 948.448 -2.88871 -3.39808 0
M  V30 9805 C 949.149 -4.95535 -3.04663 0
M  V30 9806 N 948.125 -4.29025 -3.33824 0
M  V30 9807 H 951.927 -2.56751 -1.43024 0
M  V30 9808 H 949.441 -1.46497 -0.700885 0
M  V30 9809 H 951.438 -1.78537 -3.76736 0
M  V30 9810 H 950.098 -0.783024 -3.15117 0
M  V30 9811 H 951.109 -4.44675 -2.6549 0
M  V30 9812 H 947.786 -2.05834 -3.63233 0
M  V30 9813 H 949.176 -6.0406 -2.94214 0
M  V30 9814 N 951.896 0.746133 -1.38819 0
M  V30 9815 C 953.142 1.50768 -1.35635 0
M  V30 9816 C 953.475 1.94132 0.0512435 0
M  V30 9817 O 952.75 1.65979 1.01396 0
M  V30 9818 C 953.033 2.7551 -2.31875 0
M  V30 9819 C 952.886 2.38236 -3.81528 0
M  V30 9820 C 954.205 3.77566 -2.26124 0
M  V30 9821 H 951.324 0.546922 -0.494009 0
M  V30 9822 H 953.966 0.854017 -1.69725 0
M  V30 9823 H 952.116 3.31285 -2.02935 0
M  V30 9824 H 953.788 1.88178 -4.21173 0
M  V30 9825 H 952.031 1.70601 -3.98846 0
M  V30 9826 H 952.702 3.27517 -4.44339 0
M  V30 9827 H 955.178 3.31349 -2.51689 0
M  V30 9828 H 954.054 4.62531 -2.95561 0
M  V30 9829 H 954.315 4.23689 -1.26254 0
M  V30 9830 N 953.375 1.23811 0.975125 0
M  V30 9831 C 954.621 1.07495 1.71967 0
M  V30 9832 C 954.954 -0.386451 1.90316 0
M  V30 9833 O 954.229 -1.28591 1.45927 0
M  V30 9834 C 954.512 1.80694 3.11483 0
M  V30 9835 C 954.365 3.3454 3.00671 0
M  V30 9836 C 955.684 1.57367 4.11003 0
M  V30 9837 H 952.803 0.3919 0.624166 0
M  V30 9838 H 955.445 1.52383 1.13487 0
M  V30 9839 H 953.595 1.42538 3.61407 0
M  V30 9840 H 955.267 3.8225 2.5823 0
M  V30 9841 H 953.51 3.63301 2.37054 0
M  V30 9842 H 954.181 3.80951 3.99475 0
M  V30 9843 H 956.657 1.90545 3.69908 0
M  V30 9844 H 955.533 2.11052 5.06703 0
M  V30 9845 H 955.794 0.510221 4.39146 0
M  V30 9846 N 954.853 -1.17469 1.05066 0
M  V30 9847 C 955.785 -2.20974 0.608526 0
M  V30 9848 C 956.798 -1.59481 -0.327066 0
M  V30 9849 O 957.987 -1.78096 -0.12 0
M  V30 9850 C 955.087 -3.38652 -0.12969 0
M  V30 9851 C 954.26 -4.29716 0.816285 0
M  V30 9852 C 953.319 -5.26064 0.119556 0
M  V30 9853 O 952.345 -5.64194 0.753241 0
M  V30 9854 N 953.547 -5.69126 -1.14347 0
M  V30 9855 H 956.312 -2.59529 1.49882 0
M  V30 9856 H 953.873 -1.32355 0.932406 0
M  V30 9857 H 955.865 -4.00139 -0.605886 0
M  V30 9858 H 954.435 -2.98705 -0.921638 0
M  V30 9859 H 953.655 -3.6568 1.47213 0
M  V30 9860 H 954.943 -4.87449 1.45845 0
M  V30 9861 H 954.341 -5.4022 -1.67866 0
M  V30 9862 H 952.898 -6.32764 -1.56376 0
M  V30 9863 N 956.331 -0.831506 -1.3388 0
M  V30 9864 C 957.281 -0.231656 -2.2682 0
M  V30 9865 C 958.265 0.609075 -1.48926 0
M  V30 9866 O 959.457 0.462249 -1.70857 0
M  V30 9867 C 956.586 0.59846 -3.38043 0
M  V30 9868 C 955.672 -0.253372 -4.23342 0
M  V30 9869 N 956.063 -1.32854 -4.8804 0
M  V30 9870 C 954.361 -0.0391537 -4.45983 0
M  V30 9871 C 955.062 -1.85069 -5.51475 0
M  V30 9872 N 954.038 -1.15327 -5.31226 0
M  V30 9873 H 957.84 -1.05396 -2.74352 0
M  V30 9874 H 955.354 -0.675195 -1.47699 0
M  V30 9875 H 957.351 1.04443 -4.03605 0
M  V30 9876 H 956.011 1.41882 -2.92061 0
M  V30 9877 H 957.022 -1.71139 -4.88806 0
M  V30 9878 H 953.699 0.748356 -4.10738 0
M  V30 9879 H 955.089 -2.75065 -6.13016 0
M  V30 9880 N 957.809 1.4625 -0.587256 0
M  V30 9881 C 959.225 1.57641 -0.249284 0
M  V30 9882 C 959.425 1.58169 1.24839 0
M  V30 9883 O 958.481 1.50109 2.03036 0
M  V30 9884 C 959.794 2.86837 -0.902509 0
M  V30 9885 C 961.342 3.00476 -0.876524 0
M  V30 9886 C 961.817 4.32414 -1.50938 0
M  V30 9887 N 963.308 4.39124 -1.47392 0
M  V30 9888 C 964.043 5.39838 -1.93293 0
M  V30 9889 N 963.539 6.47202 -2.47188 0
M  V30 9890 N 965.332 5.31068 -1.84183 0
M  V30 9891 H 957.483 1.44151 -1.55994 0
M  V30 9892 H 959.746 0.687905 -0.652297 0
M  V30 9893 H 959.452 2.92274 -1.95624 0
M  V30 9894 H 959.326 3.74927 -0.413466 0
M  V30 9895 H 961.713 2.94618 0.168601 0
M  V30 9896 H 961.794 2.1385 -1.40363 0
M  V30 9897 H 961.438 4.3903 -2.55372 0
M  V30 9898 H 961.368 5.17823 -0.957455 0
M  V30 9899 H 963.859 3.62138 -1.08002 0
M  V30 9900 H 964.172 7.20269 -2.80058 0
M  V30 9901 H 962.517 6.48009 -2.51216 0
M  V30 9902 H 965.708 4.46095 -1.41833 0
M  V30 9903 H 965.881 6.09414 -2.2027 0
M  V30 9904 N 959.287 0.325282 1.54207 0
M  V30 9905 C 960.512 -0.281418 2.05482 0
M  V30 9906 C 960.937 -1.44869 1.19977 0
M  V30 9907 O 960.295 -1.80088 0.209275 0
M  V30 9908 C 960.343 -0.692029 3.53897 0
M  V30 9909 O 959.447 -1.7942 3.71325 0
M  V30 9910 H 958.788 -0.0504872 0.662078 0
M  V30 9911 H 961.318 0.474191 1.99029 0
M  V30 9912 H 961.328 -0.974219 3.96198 0
M  V30 9913 H 960.003 0.161709 4.15586 0
M  V30 9914 H 958.58 -1.51069 3.40929 0
M  V30 9915 N 960.765 -1.57509 0.0534917 0
M  V30 9916 C 962.181 -1.56696 -0.303067 0
M  V30 9917 C 962.381 -1.06135 -1.71282 0
M  V30 9918 O 961.437 -0.71899 -2.42047 0
M  V30 9919 C 962.75 -3.00421 -0.129418 0
M  V30 9920 C 964.298 -3.12358 -0.200346 0
M  V30 9921 C 964.773 -4.57967 -0.0551971 0
M  V30 9922 N 966.264 -4.63066 -0.111398 0
M  V30 9923 C 966.999 -5.73395 -0.0232344 0
M  V30 9924 N 966.495 -6.92701 0.11741 0
M  V30 9925 N 968.288 -5.62045 -0.078984 0
M  V30 9926 H 960.439 -1.88696 0.975064 0
M  V30 9927 H 962.702 -0.869072 0.378706 0
M  V30 9928 H 962.408 -3.41456 0.842653 0
M  V30 9929 H 962.282 -3.66563 -0.889476 0
M  V30 9930 H 964.669 -2.71221 -1.16289 0
M  V30 9931 H 964.75 -2.48891 0.590506 0
M  V30 9932 H 964.394 -4.9979 0.904034 0
M  V30 9933 H 964.324 -5.19443 -0.865223 0
M  V30 9934 H 966.815 -3.77263 -0.219256 0
M  V30 9935 H 967.128 -7.72597 0.177326 0
M  V30 9936 H 965.473 -6.94833 0.152526 0
M  V30 9937 H 968.664 -4.67725 -0.187434 0
M  V30 9938 H 968.837 -6.48 -0.00681731 0
M  V30 9939 N 962.243 0.219913 -1.56058 0
M  V30 9940 C 963.468 0.965073 -1.83579 0
M  V30 9941 C 963.893 1.77092 -0.634024 0
M  V30 9942 O 963.251 1.76434 0.417205 0
M  V30 9943 C 963.299 1.85705 -3.09105 0
M  V30 9944 O 962.403 2.95261 -2.87914 0
M  V30 9945 H 961.744 0.273173 -0.605204 0
M  V30 9946 H 964.274 0.23273 -2.03272 0
M  V30 9947 H 964.284 2.26655 -3.39252 0
M  V30 9948 H 962.959 1.26476 -3.96203 0
M  V30 9949 H 961.536 2.58246 -2.69005 0
M  V30 9950 N 963.721 1.49897 0.486681 0
M  V30 9951 C 964.631 1.70379 1.6127 0
M  V30 9952 C 965.647 0.58659 1.63814 0
M  V30 9953 O 966.823 0.863044 1.81971 0
M  V30 9954 C 963.888 1.77911 2.97571 0
M  V30 9955 C 962.949 3.01569 3.0554 0
M  V30 9956 C 962.182 3.08732 4.35339 0
M  V30 9957 O 962.405 2.23099 5.2496 0
M  V30 9958 O 961.339 4.01325 4.48578 0
M  V30 9959 H 965.165 2.65799 1.46916 0
M  V30 9960 H 962.75 1.33808 0.664516 0
M  V30 9961 H 964.632 1.85135 3.78554 0
M  V30 9962 H 963.307 0.856722 3.12157 0
M  V30 9963 H 962.214 2.99854 2.23693 0
M  V30 9964 H 963.547 3.93335 2.95886 0
M  V30 9965 N 965.199 -0.738761 1.39212 0
M  V30 9966 C 966.424 -1.5331 1.39681 0
M  V30 9967 C 966.849 -1.88098 -0.00768715 0
M  V30 9968 O 966.207 -1.51642 -0.993699 0
M  V30 9969 C 966.255 -2.79958 2.27279 0
M  V30 9970 O 965.359 -3.75727 1.70008 0
M  V30 9971 H 964.7 -0.463131 0.475821 0
M  V30 9972 H 967.23 -0.911768 1.83161 0
M  V30 9973 H 967.24 -3.28732 2.41659 0
M  V30 9974 H 965.915 -2.5397 3.29351 0
M  V30 9975 H 964.492 -3.34483 1.64851 0
M  V30 9976 N 966.677 -1.24326 -0.968545 0
M  V30 9977 C 967.902 -1.1104 -1.75171 0
M  V30 9978 C 968.327 0.333109 -1.85127 0
M  V30 9979 O 967.685 1.24115 -1.32156 0
M  V30 9980 C 967.733 -1.75397 -3.15068 0
M  V30 9981 O 966.837 -1.02417 -3.9948 0
M  V30 9982 H 966.178 -0.388488 -0.538491 0
M  V30 9983 H 968.708 -1.64617 -1.215 0
M  V30 9984 H 968.718 -1.8112 -3.65595 0
M  V30 9985 H 967.393 -2.80427 -3.07138 0
M  V30 9986 H 965.97 -1.04475 -3.57966 0
M  V30 9987 N 968.156 1.1691 -1.05688 0
M  V30 9988 C 969.405 1.86629 -0.765022 0
M  V30 9989 C 969.718 1.82223 0.710918 0
M  V30 9990 O 970.924 2.47462 1.11691 0
M  V30 9991 C 969.38 3.34886 -1.3183 0
M  V30 9992 C 968.988 3.47781 -2.82404 0
M  V30 9993 C 970.732 4.099 -1.10372 0
M  V30 9994 C 968.639 4.9009 -3.31008 0
M  V30 9995 H 967.569 0.699082 -0.282491 0
M  V30 9996 H 970.22 1.31989 -1.27481 0
M  V30 9997 H 968.602 3.89094 -0.736312 0
M  V30 9998 H 969.776 3.03765 -3.46502 0
M  V30 9999 H 968.091 2.86193 -3.02461 0
M  V30 10000 H 970.688 5.14894 -1.4418 0
M  V30 10001 H 971.031 4.16279 -0.0417372 0
M  V30 10002 H 971.564 3.61913 -1.65117 0
M  V30 10003 H 968.303 4.88887 -4.36657 0
M  V30 10004 H 967.823 5.34756 -2.71655 0
M  V30 10005 H 969.502 5.58881 -3.25977 0
M  V30 10006 N 969.634 0.838594 1.33437 0
M  V30 10007 C 970.544 0.274048 2.32994 0
M  V30 10008 C 971.56 -0.599776 1.63336 0
M  V30 10009 O 972.736 -0.503963 1.94993 0
M  V30 10010 C 969.801 -0.541804 3.4244 0
M  V30 10011 C 968.862 0.356262 4.27819 0
M  V30 10012 C 968.095 -0.420747 5.32039 0
M  V30 10013 O 968.318 -1.65247 5.45939 0
M  V30 10014 O 967.252 0.205101 6.0155 0
M  V30 10015 H 971.078 1.09846 2.83139 0
M  V30 10016 H 968.663 0.601111 1.36774 0
M  V30 10017 H 970.545 -1.00544 4.0923 0
M  V30 10018 H 969.22 -1.34328 2.94513 0
M  V30 10019 H 968.127 0.867726 3.63897 0
M  V30 10020 H 969.46 1.1225 4.79229 0
M  V30 10021 N 971.112 -1.45937 0.595003 0
M  V30 10022 C 972.337 -2.07207 0.0894416 0
M  V30 10023 C 972.762 -1.43884 -1.21157 0
M  V30 10024 O 972.12 -0.526998 -1.73472 0
M  V30 10025 C 972.168 -3.60565 -0.0499828 0
M  V30 10026 O 971.272 -3.97364 -1.10342 0
M  V30 10027 H 970.613 -0.660471 0.0683627 0
M  V30 10028 H 973.143 -1.87386 0.82144 0
M  V30 10029 H 973.153 -4.0722 -0.252234 0
M  V30 10030 H 971.828 -4.06044 0.90006 0
M  V30 10031 H 970.405 -3.62401 -0.878645 0
M  V30 10032 N 972.59 -0.333456 -1.54032 0
M  V30 10033 C 973.837 0.266133 -2.00744 0
M  V30 10034 C 974.165 1.51361 -1.22148 0
M  V30 10035 O 973.42 1.93473 -0.294368 0
M  V30 10036 C 973.719 0.63565 -3.51702 0
M  V30 10037 C 973.385 -0.513786 -4.47963 0
M  V30 10038 C 972.047 -0.829253 -4.74001 0
M  V30 10039 C 974.399 -1.2854 -5.05101 0
M  V30 10040 C 971.727 -1.91888 -5.54433 0
M  V30 10041 C 974.079 -2.3652 -5.86721 0
M  V30 10042 C 972.743 -2.68637 -6.11057 0
M  V30 10043 H 972.013 0.097385 -0.734573 0
M  V30 10044 H 974.66 -0.459282 -1.85911 0
M  V30 10045 H 972.965 1.44163 -3.64313 0
M  V30 10046 H 974.662 1.11129 -3.85294 0
M  V30 10047 H 971.252 -0.25784 -4.27824 0
M  V30 10048 H 975.436 -1.05494 -4.84958 0
M  V30 10049 H 970.692 -2.17208 -5.71516 0
M  V30 10050 H 974.866 -2.96747 -6.30011 0
M  V30 10051 H 972.493 -3.53197 -6.73169 0
M  V30 10052 N 974.068 1.57479 -0.061844 0
M  V30 10053 C 975.315 1.93108 0.60954 0
M  V30 10054 C 975.643 0.941086 1.70217 0
M  V30 10055 O 974.898 -0.044914 1.95648 0
M  V30 10056 C 975.197 3.35394 1.23474 0
M  V30 10057 C 974.863 4.50095 0.269247 0
M  V30 10058 C 973.525 4.812 0.00360316 0
M  V30 10059 C 975.877 5.19725 -0.391839 0
M  V30 10060 C 973.205 5.79276 -0.930383 0
M  V30 10061 C 975.557 6.18801 -1.31408 0
M  V30 10062 C 974.221 6.48328 -1.58829 0
M  V30 10063 H 973.491 0.706634 0.223046 0
M  V30 10064 H 976.138 1.91054 -0.1306 0
M  V30 10065 H 974.443 3.33866 2.05039 0
M  V30 10066 H 976.14 3.60247 1.76134 0
M  V30 10067 H 972.73 4.2583 0.486477 0
M  V30 10068 H 976.914 4.95898 -0.199713 0
M  V30 10069 H 972.17 6.00484 -1.15019 0
M  V30 10070 H 976.344 6.71862 -1.83234 0
M  V30 10071 H 973.971 7.24137 -2.31363 0
M  V30 10072 N 975.546 -0.211634 1.56173 0
M  V30 10073 C 976.509 -1.24588 1.92381 0
M  V30 10074 C 977.509 -1.39297 0.803311 0
M  V30 10075 O 978.699 -1.37392 1.07094 0
M  V30 10076 C 975.831 -2.61807 2.18335 0
M  V30 10077 H 977.024 -0.936814 2.84893 0
M  V30 10078 H 974.577 -0.452471 1.49607 0
M  V30 10079 H 975.312 -2.97795 1.28407 0
M  V30 10080 H 975.097 -2.52506 2.99972 0
M  V30 10081 H 976.587 -3.3642 2.4741 0
M  V30 10082 N 977.024 -1.50153 -0.478725 0
M  V30 10083 C 978.44 -1.3741 -0.811833 0
M  V30 10084 C 978.64 -0.424303 -1.96982 0
M  V30 10085 O 977.696 0.13588 -2.52134 0
M  V30 10086 C 979.009 -2.78616 -1.13108 0
M  V30 10087 C 980.557 -2.87477 -1.23798 0
M  V30 10088 C 981.032 -4.295 -1.5904 0
M  V30 10089 N 982.523 -4.32415 -1.66047 0
M  V30 10090 C 983.258 -5.39295 -1.94805 0
M  V30 10091 N 982.754 -6.56392 -2.21635 0
M  V30 10092 N 984.547 -5.26731 -1.96243 0
M  V30 10093 H 976.698 -2.10486 0.284531 0
M  V30 10094 H 978.961 -0.945786 0.0647585 0
M  V30 10095 H 978.667 -3.49921 -0.35334 0
M  V30 10096 H 978.541 -3.15382 -2.06915 0
M  V30 10097 H 980.928 -2.16396 -2.00641 0
M  V30 10098 H 981.009 -2.54264 -0.279888 0
M  V30 10099 H 980.653 -5.01115 -0.827404 0
M  V30 10100 H 980.583 -4.60194 -2.55987 0
M  V30 10101 H 983.074 -3.47975 -1.47383 0
M  V30 10102 H 983.387 -7.33658 -2.4283 0
M  V30 10103 H 981.732 -6.59579 -2.19043 0
M  V30 10104 H 984.923 -4.34249 -1.74773 0
M  V30 10105 H 985.096 -6.10115 -2.1832 0
M  V30 10106 N 978.502 0.731368 -1.39602 0
M  V30 10107 C 979.75 1.48805 -1.36753 0
M  V30 10108 C 980.071 1.94969 0.034676 0
M  V30 10109 O 979.341 1.69243 0.986591 0
M  V30 10110 H 977.921 0.55203 -0.503261 0
M  V30 10111 H 980.583 0.868013 -1.74504 0
M  V30 10112 H 979.679 2.36844 -2.03252 0
M  V30 10113 N 979.98 1.24838 0.961938 0
M  V30 10114 C 980.943 1.04674 2.03902 0
M  V30 10115 C 981.943 0.00204674 1.608 0
M  V30 10116 O 983.133 0.243555 1.72489 0
M  V30 10117 C 980.265 0.587736 3.35795 0
M  V30 10118 H 981.458 2.00278 2.23223 0
M  V30 10119 H 979.011 1.07142 1.138 0
M  V30 10120 H 979.746 -0.371244 3.22168 0
M  V30 10121 H 979.531 1.34182 3.68426 0
M  V30 10122 H 981.021 0.467867 4.14971 0
M  V30 10123 N 981.458 -1.16348 1.06306 0
M  V30 10124 C 982.698 -1.88556 0.789055 0
M  V30 10125 C 983.062 -1.79849 -0.672179 0
M  V30 10126 O 984.263 -2.46984 -1.06078 0
M  V30 10127 C 982.534 -3.34069 1.27016 0
M  V30 10128 S 984.093 -4.24128 1.12522 0
M  V30 10129 H 980.911 -0.65084 0.286232 0
M  V30 10130 H 983.513 -1.40443 1.36 0
M  V30 10131 H 982.217 -3.37944 2.32856 0
M  V30 10132 H 981.748 -3.87231 0.693963 0
M  V30 10133 H 983.763 -4.96168 0.0562142 0
M  V30 10134 N 982.937 -0.845659 -1.3299 0
M  V30 10135 C 984.183 -0.445311 -1.9785 0
M  V30 10136 C 984.516 0.994476 -1.66805 0
M  V30 10137 O 983.791 1.69636 -0.95151 0
M  V30 10138 C 984.074 -0.674371 -3.53729 0
M  V30 10139 C 983.927 -2.16192 -3.94437 0
M  V30 10140 C 985.246 -0.124908 -4.39923 0
M  V30 10141 H 982.365 -0.163269 -0.718688 0
M  V30 10142 H 985.007 -1.06242 -1.5752 0
M  V30 10143 H 983.157 -0.149091 -3.88214 0
M  V30 10144 H 984.829 -2.75259 -3.70176 0
M  V30 10145 H 983.072 -2.64386 -3.43922 0
M  V30 10146 H 983.743 -2.27292 -5.03033 0
M  V30 10147 H 986.219 -0.573986 -4.12122 0
M  V30 10148 H 985.095 -0.314816 -5.47996 0
M  V30 10149 H 985.356 0.971758 -4.31288 0
M  V30 10150 N 984.415 1.45619 -0.602734 0
M  V30 10151 C 985.643 2.06647 -0.102253 0
M  V30 10152 C 986.058 1.4482 1.21131 0
M  V30 10153 O 985.415 0.560621 1.73676 0
M  V30 10154 C 985.466 3.61467 0.0490113 0
M  V30 10155 O 985.187 4.20985 -1.21257 0
M  V30 10156 C 986.688 4.39469 0.581517 0
M  V30 10157 H 983.908 0.667685 -0.0666155 0
M  V30 10158 H 986.452 1.86939 -0.829091 0
M  V30 10159 H 984.607 3.80534 0.726153 0
M  V30 10160 H 985.021 5.14103 -1.03915 0
M  V30 10161 H 986.495 5.48318 0.636462 0
M  V30 10162 H 986.972 4.0891 1.60277 0
M  V30 10163 H 987.578 4.25256 -0.061419 0
M  V30 10164 N 985.893 0.34162 1.53853 0
M  V30 10165 C 987.142 -0.256475 2.00063 0
M  V30 10166 C 987.455 -1.51811 1.23341 0
M  V30 10167 O 988.661 -2.19332 1.60017 0
M  V30 10168 C 987.117 -0.507567 3.56303 0
M  V30 10169 C 986.725 0.738052 4.41879 0
M  V30 10170 C 988.469 -1.06463 4.10933 0
M  V30 10171 C 986.376 0.457865 5.89625 0
M  V30 10172 H 985.306 -0.0996143 0.747391 0
M  V30 10173 H 987.957 0.456649 1.77727 0
M  V30 10174 H 986.339 -1.28134 3.74697 0
M  V30 10175 H 987.513 1.51278 4.3526 0
M  V30 10176 H 985.828 1.21661 3.98231 0
M  V30 10177 H 988.425 -1.28918 5.18926 0
M  V30 10178 H 988.768 -2.01956 3.64032 0
M  V30 10179 H 989.301 -0.351601 3.96243 0
M  V30 10180 H 986.04 1.38247 6.40756 0
M  V30 10181 H 985.56 -0.278818 5.99152 0
M  V30 10182 H 987.239 0.0743914 6.46957 0
M  V30 10183 N 987.371 -1.57444 0.0701946 0
M  V30 10184 C 988.304 -2.08232 -0.93352 0
M  V30 10185 C 989.282 -0.987073 -1.29212 0
M  V30 10186 O 990.466 -1.26035 -1.40169 0
M  V30 10187 C 987.593 -2.53866 -2.2421 0
M  V30 10188 C 986.639 -3.7481 -2.03518 0
M  V30 10189 S 987.472 -5.1958 -1.29601 0
M  V30 10190 C 988.628 -5.68544 -2.61742 0
M  V30 10191 H 988.861 -2.93042 -0.501354 0
M  V30 10192 H 986.394 -1.53741 -0.142533 0
M  V30 10193 H 988.352 -2.80818 -2.99419 0
M  V30 10194 H 987.013 -1.69327 -2.64551 0
M  V30 10195 H 986.206 -4.04724 -3.00358 0
M  V30 10196 H 985.808 -3.48222 -1.36445 0
M  V30 10197 H 988.1 -5.75291 -3.57836 0
M  V30 10198 H 989.043 -6.67459 -2.3644 0
M  V30 10199 H 989.451 -4.96354 -2.68873 0
M  V30 10200 N 988.849 0.203349 -1.56283 0
M  V30 10201 C 990.077 0.941426 -1.84241 0
M  V30 10202 C 990.492 1.77197 -0.651658 0
M  V30 10203 O 989.849 1.78506 0.379713 0
M  V30 10204 C 989.9 1.84429 -3.10915 0
M  V30 10205 O 989.621 1.04729 -4.25398 0
M  V30 10206 C 991.122 2.69474 -3.51993 0
M  V30 10207 H 988.342 0.27507 -0.612027 0
M  V30 10208 H 990.886 0.213088 -2.03387 0
M  V30 10209 H 989.041 2.52635 -2.93691 0
M  V30 10210 H 989.455 1.66179 -4.97478 0
M  V30 10211 H 990.929 3.28495 -4.43616 0
M  V30 10212 H 991.406 3.42775 -2.74594 0
M  V30 10213 H 992.012 2.06652 -3.71719 0
M  V30 10214 N 990.327 1.50405 0.470755 0
M  V30 10215 C 991.573 1.6165 1.22462 0
M  V30 10216 C 991.906 0.316034 1.91611 0
M  V30 10217 O 991.181 -0.682509 1.82132 0
M  V30 10218 C 991.464 2.79702 2.26801 0
M  V30 10219 C 991.317 4.19631 1.61955 0
M  V30 10220 C 992.636 2.93313 3.28109 0
M  V30 10221 H 989.755 0.588345 0.443868 0
M  V30 10222 H 992.397 1.82792 0.518376 0
M  V30 10223 H 990.547 2.61807 2.87036 0
M  V30 10224 H 992.219 4.49117 1.05316 0
M  V30 10225 H 990.462 4.23874 0.922674 0
M  V30 10226 H 991.133 4.98162 2.37779 0
M  V30 10227 H 993.609 3.09697 2.77897 0
M  V30 10228 H 992.485 3.77537 3.98443 0
M  V30 10229 H 992.746 2.03942 3.9225 0
M  V30 10230 N 991.805 -0.723954 1.39988 0
M  V30 10231 C 993.082 -1.4763 1.28316 0
M  V30 10232 C 993.462 -2.10852 -0.102302 0
M  V30 10233 O 992.81 -1.9948 -1.11445 0
M  V30 10234 C 993.02 -2.51878 2.41574 0
M  V30 10235 C 994.368 -3.17948 2.81415 0
M  V30 10236 O 995.392 -2.62195 2.41106 0
M  V30 10237 O 994.251 -4.18858 3.51027 0
M  V30 10238 H 991.345 -0.656092 0.50346 0
M  V30 10239 H 993.891 -0.75684 1.51888 0
M  V30 10240 H 992.663 -2.03618 3.34149 0
M  V30 10241 H 992.286 -3.3137 2.19727 0
M  V30 10242 N 993.283 -1.25346 -0.955304 0
M  V30 10243 C 994.231 -1.05461 -2.07318 0
M  V30 10244 C 995.225 0.0142699 -1.69394 0
M  V30 10245 O 996.431 -0.141292 -1.79445 0
M  V30 10246 H 992.806 -0.324095 -0.678577 0
M  V30 10247 H 994.777 -2.00231 -2.21247 0
M  V30 10248 C 993.526 -0.689329 -3.40798 0
M  V30 10249 H 992.849 -1.50362 -3.70447 0
M  V30 10250 H 994.289 -0.589883 -4.19877 0
M  V30 10251 C 992.748 0.604556 -3.31431 0
M  V30 10252 O 993.278 1.64686 -3.6639 0
M  V30 10253 N 991.484 0.589927 -2.84549 0
M  V30 10254 H 991.031 -0.258647 -2.56298 0
M  V30 10255 H 990.989 1.4558 -2.78664 0
M  V30 10256 N 994.761 1.15782 -1.06922 0
M  V30 10257 C 996.172 1.68062 -0.813144 0
M  V30 10258 C 996.523 1.84681 0.662374 0
M  V30 10259 O 995.648 1.54696 1.51321 0
M  V30 10260 C 996.243 3.05273 -1.46949 0
M  V30 10261 C 994.802 3.54647 -1.26104 0
M  V30 10262 C 993.949 2.30477 -1.54194 0
M  V30 10263 H 996.9 1.00056 -1.23185 0
M  V30 10264 H 996.921 3.69986 -0.888308 0
M  V30 10265 H 996.433 2.93145 -2.54337 0
M  V30 10266 H 994.534 3.72024 -0.20718 0
M  V30 10267 H 994.647 4.36354 -1.97819 0
M  V30 10268 H 993.011 2.35803 -0.96276 0
M  V30 10269 H 993.794 2.2094 -2.62755 0
M  V30 10270 N 996.239 0.8527 1.3254 0
M  V30 10271 C 997.202 0.300959 2.27215 0
M  V30 10272 C 998.202 -0.538235 1.51525 0
M  V30 10273 O 999.392 -0.350027 1.70647 0
M  V30 10274 C 996.524 -0.574428 3.36025 0
M  V30 10275 H 997.717 1.13655 2.77529 0
M  V30 10276 H 995.27 0.626878 1.43178 0
M  V30 10277 H 996.005 -1.43191 2.90976 0
M  V30 10278 H 995.79 0.0262265 3.92091 0
M  V30 10279 H 997.28 -0.9533 4.06573 0
M  V30 10280 N 997.718 -1.45297 0.610449 0
M  V30 10281 C 998.943 -2.07101 0.111414 0
M  V30 10282 C 999.368 -1.45161 -1.19625 0
M  V30 10283 O 998.726 -0.545368 -1.72903 0
M  V30 10284 C 998.774 -3.60598 -0.0117372 0
M  V30 10285 O 997.878 -3.98512 -1.06122 0
M  V30 10286 H 997.219 -0.659709 0.075364 0
M  V30 10287 H 999.749 -1.86504 0.841269 0
M  V30 10288 H 999.759 -4.07464 -0.209028 0
M  V30 10289 H 998.434 -4.05067 0.943076 0
M  V30 10290 H 997.011 -3.63312 -0.840158 0
M  V30 10291 N 999.196 -0.349774 -1.5367 0
M  V30 10292 C 1000.42 0.246038 -2.05432 0
M  V30 10293 C 1000.84 1.43719 -1.22435 0
M  V30 10294 O 1000.2 1.80622 -0.261166 0
M  V30 10295 C 1000.25 0.65501 -3.55516 0
M  V30 10296 O 999.968 -0.488782 -4.35365 0
M  V30 10297 C 1001.47 1.31088 -4.23475 0
M  V30 10298 H 998.689 0.0463952 -0.669394 0
M  V30 10299 H 1001.23 -0.503566 -1.98203 0
M  V30 10300 H 999.388 1.35455 -3.62947 0
M  V30 10301 H 999.802 -0.161528 -5.24251 0
M  V30 10302 H 1001.28 1.54774 -5.29857 0
M  V30 10303 H 1001.75 2.26636 -3.76208 0
M  V30 10304 H 1002.36 0.653211 -4.20254 0
M  V30 10305 N 1000.67 1.57404 -0.0785433 0
M  V30 10306 C 1001.9 1.98074 0.597862 0
M  V30 10307 C 1002.32 0.95714 1.6274 0
M  V30 10308 O 1001.67 -0.0553728 1.82416 0
M  V30 10309 C 1001.72 3.38815 1.26041 0
M  V30 10310 O 1001.45 4.37254 0.27207 0
M  V30 10311 C 1002.95 3.94397 2.024 0
M  V30 10312 H 1000.17 0.651263 0.161546 0
M  V30 10313 H 1002.71 2.03927 -0.152941 0
M  V30 10314 H 1000.87 3.34028 1.96225 0
M  V30 10315 H 1001.28 5.19136 0.74822 0
M  V30 10316 H 1002.75 4.95075 2.4414 0
M  V30 10317 H 1003.23 3.31308 2.88326 0
M  V30 10318 H 1003.84 4.02607 1.37068 0
M  V30 10319 N 1002.15 -0.195058 1.56388 0
M  V30 10320 C 1003.1 -1.26122 1.95438 0
M  V30 10321 C 1004.09 -1.47117 0.839818 0
M  V30 10322 O 1005.3 -1.47978 1.02482 0
M  V30 10323 H 1001.67 -0.423422 0.621464 0
M  V30 10324 H 1003.65 -0.904854 2.8435 0
M  V30 10325 C 1002.39 -2.59858 2.31017 0
M  V30 10326 H 1001.72 -2.44519 3.16308 0
M  V30 10327 H 1003.16 -3.33205 2.62203 0
M  V30 10328 C 1001.62 -3.16853 1.14481 0
M  V30 10329 O 1002.15 -3.995 0.419853 0
M  V30 10330 N 1000.35 -2.75599 0.921604 0
M  V30 10331 H 999.9 -2.08495 1.51287 0
M  V30 10332 H 999.858 -3.14072 0.143663 0
M  V30 10333 N 1003.63 -1.50653 -0.462772 0
M  V30 10334 C 1004.58 -1.70122 -1.55971 0
M  V30 10335 C 1005.55 -0.542581 -1.56988 0
M  V30 10336 O 1006.73 -0.774114 -1.74391 0
M  V30 10337 C 1003.87 -1.80899 -2.93887 0
M  V30 10338 C 1002.98 -3.08318 -3.02595 0
M  V30 10339 C 1002.12 -3.09841 -4.31477 0
M  V30 10340 C 1001.16 -4.3168 -4.33957 0
M  V30 10341 N 1000.3 -4.30894 -5.54323 0
M  V30 10342 H 1005.14 -2.63768 -1.38674 0
M  V30 10343 H 1002.67 -1.30746 -0.674091 0
M  V30 10344 H 1004.63 -1.85128 -3.73876 0
M  V30 10345 H 1003.26 -0.906854 -3.098 0
M  V30 10346 H 1002.31 -3.13521 -2.15427 0
M  V30 10347 H 1003.62 -3.98282 -3.00288 0
M  V30 10348 H 1002.78 -3.12845 -5.1982 0
M  V30 10349 H 1001.52 -2.17722 -4.36404 0
M  V30 10350 H 1000.52 -4.28879 -3.4401 0
M  V30 10351 H 1001.75 -5.25035 -4.30715 0
M  V30 10352 H 999.694 -3.41633 -5.6002 0
M  V30 10353 H 999.611 -5.14636 -5.53792 0
M  V30 10354 H 1000.88 -4.38056 -6.44769 0
M  V30 10355 N 1005.11 0.71652 -1.4037 0
M  V30 10356 C 1006.39 1.46947 -1.29097 0
M  V30 10357 C 1006.77 2.10903 0.0911182 0
M  V30 10358 O 1006.11 2.00068 1.10385 0
M  V30 10359 C 1006.32 2.50594 -2.42907 0
M  V30 10360 C 1007.67 3.16451 -2.83097 0
M  V30 10361 O 1008.7 2.60913 -2.42493 0
M  V30 10362 O 1007.55 4.16991 -3.53244 0
M  V30 10363 H 1004.65 0.653413 -0.506932 0
M  V30 10364 H 1007.19 0.748774 -1.52287 0
M  V30 10365 H 1005.97 2.01843 -3.35224 0
M  V30 10366 H 1005.59 3.302 -2.21481 0
M  V30 10367 N 1006.59 1.25851 0.948643 0
M  V30 10368 C 1007.53 1.06759 2.04625 0
M  V30 10369 C 1008.5 -0.0251144 1.66081 0
M  V30 10370 O 1009.69 0.133221 1.90334 0
M  V30 10371 C 1006.83 0.698724 3.37952 0
M  V30 10372 C 1005.94 1.8669 3.89578 0
M  V30 10373 C 1005.08 1.44184 5.11258 0
M  V30 10374 C 1004.12 2.57878 5.55126 0
M  V30 10375 N 1003.25 2.16106 6.68014 0
M  V30 10376 H 1008.09 2.00691 2.20289 0
M  V30 10377 H 1005.63 0.999327 1.07944 0
M  V30 10378 H 1007.59 0.465788 4.14592 0
M  V30 10379 H 1006.22 -0.203618 3.22157 0
M  V30 10380 H 1005.27 2.21298 3.09405 0
M  V30 10381 H 1006.58 2.72051 4.18079 0
M  V30 10382 H 1005.74 1.16891 5.95333 0
M  V30 10383 H 1004.47 0.559035 4.84485 0
M  V30 10384 H 1003.48 2.85909 4.69612 0
M  V30 10385 H 1004.7 3.46747 5.83904 0
M  V30 10386 H 1002.65 1.3025 6.42939 0
M  V30 10387 H 1002.57 2.95012 6.96063 0
M  V30 10388 H 1003.84 1.92005 7.55483 0
M  V30 10389 N 1008.06 -1.15214 1.07534 0
M  V30 10390 C 1008.99 -2.2216 0.718837 0
M  V30 10391 C 1009.98 -1.6753 -0.29459 0
M  V30 10392 O 1011.16 -1.93481 -0.166931 0
M  V30 10393 C 1008.29 -3.471 0.117836 0
M  V30 10394 C 1007.24 -4.14701 1.05862 0
M  V30 10395 C 1006.57 -5.3374 0.320284 0
M  V30 10396 C 1007.87 -4.64254 2.39302 0
M  V30 10397 H 1009.56 -2.52237 1.61297 0
M  V30 10398 H 1007.11 -1.21239 0.776992 0
M  V30 10399 H 1009.06 -4.21156 -0.143519 0
M  V30 10400 H 1007.79 -3.16361 -0.811389 0
M  V30 10401 H 1006.45 -3.42589 1.30493 0
M  V30 10402 H 1006.09 -4.99257 -0.61246 0
M  V30 10403 H 1005.79 -5.79912 0.947381 0
M  V30 10404 H 1007.32 -6.10563 0.0667721 0
M  V30 10405 H 1008.73 -5.29827 2.18988 0
M  V30 10406 H 1007.13 -5.21095 2.97623 0
M  V30 10407 H 1008.2 -3.79793 3.01472 0
M  V30 10408 N 1009.54 -0.859717 -1.32086 0
M  V30 10409 C 1010.79 -0.465581 -1.97075 0
M  V30 10410 C 1011.12 0.979917 -1.68012 0
M  V30 10411 O 1010.37 1.70337 -0.96353 0
M  V30 10412 C 1010.67 -0.657397 -3.51302 0
M  V30 10413 C 1010.34 -2.07413 -4.00363 0
M  V30 10414 C 1009 -2.4616 -4.13472 0
M  V30 10415 C 1011.35 -2.99855 -4.26305 0
M  V30 10416 C 1008.68 -3.76611 -4.49868 0
M  V30 10417 C 1011.03 -4.2981 -4.64161 0
M  V30 10418 C 1009.7 -4.68485 -4.75476 0
M  V30 10419 H 1008.97 -0.170368 -0.721149 0
M  V30 10420 H 1011.61 -1.09074 -1.57401 0
M  V30 10421 H 1009.92 0.0509638 -3.91767 0
M  V30 10422 H 1011.61 -0.332416 -3.9962 0
M  V30 10423 H 1008.2 -1.76327 -3.90649 0
M  V30 10424 H 1012.39 -2.7115 -4.15682 0
M  V30 10425 H 1007.64 -4.06352 -4.56824 0
M  V30 10426 H 1011.82 -5.015 -4.83188 0
M  V30 10427 H 1009.45 -5.69612 -5.03435 0
M  V30 10428 N 1011.02 1.44971 -0.618145 0
M  V30 10429 C 1011.98 2.29044 0.0846739 0
M  V30 10430 C 1012.98 1.40341 0.784921 0
M  V30 10431 O 1014.17 1.62351 0.631479 0
M  V30 10432 C 1011.31 3.21617 1.13027 0
M  V30 10433 H 1012.5 2.92668 -0.654612 0
M  V30 10434 H 1010.05 1.51668 -0.377672 0
M  V30 10435 H 1010.79 2.62815 1.89997 0
M  V30 10436 H 1010.57 3.86969 0.63224 0
M  V30 10437 H 1012.06 3.84805 1.62218 0
M  V30 10438 N 1012.5 0.357919 1.53482 0
M  V30 10439 C 1013.74 -0.23451 2.0144 0
M  V30 10440 C 1014.08 -1.49044 1.24497 0
M  V30 10441 O 1013.35 -1.91566 0.336535 0
M  V30 10442 C 1013.64 -0.534193 3.56116 0
M  V30 10443 C 1013.49 0.734834 4.43757 0
M  V30 10444 C 1014.81 -1.33793 4.1927 0
M  V30 10445 H 1011.93 -0.0837595 0.732225 0
M  V30 10446 H 1014.57 0.481297 1.83803 0
M  V30 10447 H 1012.72 -1.144 3.71275 0
M  V30 10448 H 1014.39 1.37251 4.40409 0
M  V30 10449 H 1012.63 1.35678 4.12036 0
M  V30 10450 H 1013.3 0.48021 5.49907 0
M  V30 10451 H 1015.78 -0.822158 4.07897 0
M  V30 10452 H 1014.66 -1.51636 5.27539 0
M  V30 10453 H 1014.92 -2.34423 3.74831 0
M  V30 10454 N 1013.98 -1.5736 0.0868897 0
M  V30 10455 C 1015.22 -1.95147 -0.573512 0
M  V30 10456 C 1015.58 -0.967591 -1.66299 0
M  V30 10457 O 1014.87 0.00774571 -1.91598 0
M  V30 10458 C 1015.06 -3.37316 -1.18123 0
M  V30 10459 C 1014.89 -4.49443 -0.152145 0
M  V30 10460 C 1013.66 -5.04586 0.268496 0
M  V30 10461 C 1015.86 -5.10592 0.616502 0
M  V30 10462 N 1013.84 -6.00264 1.28671 0
M  V30 10463 C 1015.21 -6.0191 1.48677 0
M  V30 10464 C 1017.27 -4.93359 0.67092 0
M  V30 10465 C 1015.97 -6.77844 2.40664 0
M  V30 10466 C 1018 -5.69949 1.57837 0
M  V30 10467 C 1017.36 -6.60927 2.43628 0
M  V30 10468 H 1013.46 -0.760898 -0.180439 0
M  V30 10469 H 1016.04 -1.93978 0.167548 0
M  V30 10470 H 1014.21 -3.39194 -1.89214 0
M  V30 10471 H 1015.95 -3.62301 -1.80332 0
M  V30 10472 H 1012.7 -4.73454 -0.117625 0
M  V30 10473 H 1013.13 -6.52804 1.79377 0
M  V30 10474 H 1017.77 -4.22794 0.0218207 0
M  V30 10475 H 1015.49 -7.47677 3.06603 0
M  V30 10476 H 1019.07 -5.58631 1.6255 0
M  V30 10477 H 1017.95 -7.19156 3.12705 0
M  V30 10478 N 1015.45 0.186762 -1.56489 0
M  V30 10479 C 1016.4 1.23141 -1.95205 0
M  V30 10480 C 1017.37 1.44799 -0.81378 0
M  V30 10481 O 1018.56 1.57795 -1.07263 0
M  V30 10482 C 1015.7 2.56926 -2.30397 0
M  V30 10483 C 1014.81 2.42777 -3.57328 0
M  V30 10484 C 1013.94 3.69323 -3.81804 0
M  V30 10485 C 1012.98 3.50041 -5.02133 0
M  V30 10486 N 1012.12 4.68619 -5.2282 0
M  V30 10487 H 1016.96 0.894256 -2.84266 0
M  V30 10488 H 1014.5 0.430187 -1.40669 0
M  V30 10489 H 1016.46 3.3488 -2.4882 0
M  V30 10490 H 1015.09 2.88668 -1.44466 0
M  V30 10491 H 1014.14 1.56078 -3.46906 0
M  V30 10492 H 1015.45 2.24468 -4.45439 0
M  V30 10493 H 1014.6 4.55715 -4.00511 0
M  V30 10494 H 1013.34 3.90595 -2.92039 0
M  V30 10495 H 1012.35 2.62034 -4.8334 0
M  V30 10496 H 1013.57 3.30206 -5.93414 0
M  V30 10497 H 1011.52 4.90139 -4.36005 0
M  V30 10498 H 1011.44 4.53165 -6.05126 0
M  V30 10499 H 1012.7 5.56338 -5.45993 0
M  V30 10500 N 1016.93 1.50896 0.454776 0
M  V30 10501 C 1018.18 1.61936 1.20248 0
M  V30 10502 C 1018.49 0.332983 1.92745 0
M  V30 10503 O 1019.7 0.322512 2.69578 0
M  V30 10504 C 1018.16 2.85916 2.18587 0
M  V30 10505 C 1017.76 4.21492 1.51818 0
M  V30 10506 C 1019.51 3.06307 2.93898 0
M  V30 10507 C 1017.42 5.3664 2.48539 0
M  V30 10508 H 1016.35 0.603098 0.452536 0
M  V30 10509 H 1019 1.77345 0.471257 0
M  V30 10510 H 1017.38 2.64101 2.95071 0
M  V30 10511 H 1018.55 4.53623 0.810123 0
M  V30 10512 H 1016.87 4.06837 0.887265 0
M  V30 10513 H 1019.46 3.89507 3.66317 0
M  V30 10514 H 1019.81 2.18683 3.54236 0
M  V30 10515 H 1020.34 3.2838 2.24525 0
M  V30 10516 H 1017.08 6.26469 1.92916 0
M  V30 10517 H 1016.6 5.08907 3.17449 0
M  V30 10518 H 1018.28 5.67881 3.10033 0
M  V30 10519 N 1018.41 -0.709066 1.40748 0
M  V30 10520 C 1019.64 -1.49808 1.42707 0
M  V30 10521 C 1020.05 -1.88778 0.0285574 0
M  V30 10522 O 1019.41 -1.55883 -0.949035 0
M  V30 10523 C 1019.46 -2.76926 2.32366 0
M  V30 10524 O 1019.18 -2.39602 3.66773 0
M  V30 10525 C 1020.68 -3.70773 2.42986 0
M  V30 10526 H 1017.9 -0.462106 0.486517 0
M  V30 10527 H 1020.45 -0.874135 1.84876 0
M  V30 10528 H 1018.6 -3.3559 1.93541 0
M  V30 10529 H 1019.02 -3.21443 4.14457 0
M  V30 10530 H 1020.49 -4.56789 3.09916 0
M  V30 10531 H 1020.97 -4.14332 1.45691 0
M  V30 10532 H 1021.57 -3.18019 2.8239 0
M  V30 10533 N 1019.89 -1.26353 -0.941956 0
M  V30 10534 C 1021.12 -1.1446 -1.71996 0
M  V30 10535 C 1021.53 0.302957 -1.86759 0
M  V30 10536 O 1020.87 1.2193 -1.374 0
M  V30 10537 C 1020.93 -1.73986 -3.14593 0
M  V30 10538 C 1020.6 -3.23078 -3.23217 0
M  V30 10539 C 1021.59 -4.19905 -3.06554 0
M  V30 10540 C 1019.28 -3.63526 -3.46632 0
M  V30 10541 C 1021.27 -5.55159 -3.13172 0
M  V30 10542 C 1018.96 -4.98914 -3.52886 0
M  V30 10543 C 1019.96 -5.9454 -3.36172 0
M  V30 10544 O 1019.65 -7.27462 -3.42132 0
M  V30 10545 H 1019.38 -0.399453 -0.545356 0
M  V30 10546 H 1021.93 -1.67455 -1.18945 0
M  V30 10547 H 1020.16 -1.15453 -3.69063 0
M  V30 10548 H 1021.85 -1.57011 -3.74302 0
M  V30 10549 H 1022.62 -3.89995 -2.88321 0
M  V30 10550 H 1018.5 -2.8958 -3.58698 0
M  V30 10551 H 1022.04 -6.29777 -3.00044 0
M  V30 10552 H 1017.94 -5.28485 -3.70639 0
M  V30 10553 H 1018.7 -7.35725 -3.5868 0
M  V30 10554 N 1021.37 1.14642 -1.08144 0
M  V30 10555 C 1022.31 2.1964 -0.708995 0
M  V30 10556 C 1023.28 1.63303 0.303512 0
M  V30 10557 O 1024.47 1.8987 0.18813 0
M  V30 10558 C 1021.61 3.44886 -0.121585 0
M  V30 10559 C 1020.72 4.15386 -1.18654 0
M  V30 10560 C 1019.86 5.28205 -0.56328 0
M  V30 10561 C 1018.9 5.90534 -1.61046 0
M  V30 10562 N 1018.03 6.94809 -1.00919 0
M  V30 10563 H 1022.87 2.50848 -1.6087 0
M  V30 10564 H 1020.41 1.23185 -0.803975 0
M  V30 10565 H 1022.37 4.16528 0.23668 0
M  V30 10566 H 1021 3.14169 0.741445 0
M  V30 10567 H 1020.05 3.42159 -1.66227 0
M  V30 10568 H 1021.36 4.57809 -1.9802 0
M  V30 10569 H 1020.52 6.06507 -0.153109 0
M  V30 10570 H 1019.26 4.86995 0.262066 0
M  V30 10571 H 1018.26 5.10938 -2.03033 0
M  V30 10572 H 1019.49 6.33819 -2.43824 0
M  V30 10573 H 1017.43 6.5568 -0.204894 0
M  V30 10574 H 1017.35 7.35704 -1.73999 0
M  V30 10575 H 1018.62 7.76992 -0.624792 0
M  V30 10576 N 1022.85 0.866709 1.31628 0
M  V30 10577 C 1024.12 0.396828 1.91532 0
M  V30 10578 C 1024.5 -1.12081 1.78889 0
M  V30 10579 O 1023.85 -1.94791 1.19452 0
M  V30 10580 C 1024.06 0.874578 3.37864 0
M  V30 10581 C 1025.41 0.8988 4.14978 0
M  V30 10582 O 1026.43 0.820014 3.46633 0
M  V30 10583 O 1025.29 1.01223 5.37044 0
M  V30 10584 H 1022.39 0.1181 0.818524 0
M  V30 10585 H 1024.93 0.954407 1.40318 0
M  V30 10586 H 1023.7 1.91807 3.41066 0
M  V30 10587 H 1023.33 0.295126 3.96503 0
M  V30 10588 N 1024.32 -1.44642 0.625825 0
M  V30 10589 C 1025.55 -2.06458 0.135116 0
M  V30 10590 C 1025.97 -1.46729 -1.18811 0
M  V30 10591 O 1025.32 -0.58818 -1.72762 0
M  V30 10592 C 1025.37 -3.61499 0.00850114 0
M  V30 10593 O 1025.1 -4.19002 1.2794 0
M  V30 10594 C 1026.6 -4.40339 -0.511527 0
M  V30 10595 H 1023.82 -0.666541 0.0772294 0
M  V30 10596 H 1026.36 -1.85597 0.858726 0
M  V30 10597 H 1024.52 -3.81641 -0.665522 0
M  V30 10598 H 1024.93 -5.12385 1.12081 0
M  V30 10599 H 1026.4 -5.49262 -0.549149 0
M  V30 10600 H 1026.88 -4.11409 -1.53752 0
M  V30 10601 H 1027.49 -4.25104 0.129066 0
M  V30 10602 N 1025.8 -0.366053 -1.5329 0
M  V30 10603 C 1027.05 0.223824 -2.01561 0
M  V30 10604 C 1027.38 1.48382 -1.25286 0
M  V30 10605 O 1026.66 1.91385 -0.34669 0
M  V30 10606 C 1026.94 0.5153 -3.56394 0
M  V30 10607 C 1026.79 -0.758357 -4.43361 0
M  V30 10608 C 1028.11 1.31568 -4.19974 0
M  V30 10609 H 1025.23 0.0798751 -0.732659 0
M  V30 10610 H 1027.87 -0.491038 -1.83545 0
M  V30 10611 H 1026.02 1.12429 -3.71876 0
M  V30 10612 H 1027.69 -1.39584 -4.39675 0
M  V30 10613 H 1025.94 -1.37862 -4.11311 0
M  V30 10614 H 1026.61 -0.509366 -5.49645 0
M  V30 10615 H 1029.08 0.800514 -4.08327 0
M  V30 10616 H 1027.96 1.48837 -5.28336 0
M  V30 10617 H 1028.22 2.32432 -3.76069 0
M  V30 10618 N 1027.28 1.57312 -0.0952337 0
M  V30 10619 C 1028.21 2.11059 0.893678 0
M  V30 10620 C 1029.22 1.04787 1.24594 0
M  V30 10621 O 1030.41 1.32233 1.19903 0
M  V30 10622 C 1027.51 2.57552 2.20272 0
M  V30 10623 C 1026.69 3.87661 2.02578 0
M  V30 10624 C 1025.75 4.2 3.16996 0
M  V30 10625 O 1024.77 4.89219 2.90953 0
M  V30 10626 N 1025.97 3.75414 4.42769 0
M  V30 10627 H 1028.74 2.96532 0.434632 0
M  V30 10628 H 1026.3 1.6165 0.0898661 0
M  V30 10629 H 1028.29 2.76232 2.95766 0
M  V30 10630 H 1026.86 1.7709 2.576 0
M  V30 10631 H 1026.08 3.78128 1.11413 0
M  V30 10632 H 1027.37 4.7278 1.88032 0
M  V30 10633 H 1026.77 3.1954 4.66809 0
M  V30 10634 H 1025.32 3.99249 5.15212 0
M  V30 10635 N 1028.76 -0.17846 1.56586 0
M  V30 10636 C 1029.69 -1.22342 1.98884 0
M  V30 10637 C 1030.67 -1.46564 0.86331 0
M  V30 10638 O 1031.85 -1.58019 1.12887 0
M  V30 10639 C 1028.98 -2.56396 2.34261 0
M  V30 10640 C 1027.94 -2.46756 3.49708 0
M  V30 10641 C 1027.26 -3.85235 3.70807 0
M  V30 10642 C 1028.56 -1.97838 4.83381 0
M  V30 10643 H 1030.26 -0.871848 2.86425 0
M  V30 10644 H 1027.8 -0.417948 1.37801 0
M  V30 10645 H 1029.76 -3.29695 2.62448 0
M  V30 10646 H 1028.48 -2.93327 1.43621 0
M  V30 10647 H 1027.14 -1.75912 3.21637 0
M  V30 10648 H 1026.79 -4.19547 2.7747 0
M  V30 10649 H 1026.49 -3.79655 4.48481 0
M  V30 10650 H 1028.01 -4.60131 4.01387 0
M  V30 10651 H 1029.43 -2.60906 5.10491 0
M  V30 10652 H 1027.82 -2.03223 5.64642 0
M  V30 10653 H 1028.89 -0.932339 4.75852 0
M  V30 10654 N 1030.24 -1.51135 -0.446768 0
M  V30 10655 C 1031.65 -1.39101 -0.782504 0
M  V30 10656 C 1031.85 -0.46599 -1.96038 0
M  V30 10657 O 1030.91 0.0823679 -2.52366 0
M  V30 10658 C 1032.22 -2.80953 -1.07173 0
M  V30 10659 C 1033.77 -2.90038 -1.17673 0
M  V30 10660 C 1034.24 -4.32777 -1.49894 0
M  V30 10661 N 1035.73 -4.3584 -1.56837 0
M  V30 10662 C 1036.47 -5.43305 -1.83322 0
M  V30 10663 N 1035.97 -6.60945 -2.07662 0
M  V30 10664 N 1037.76 -5.30775 -1.85026 0
M  V30 10665 H 1029.91 -2.09835 0.329114 0
M  V30 10666 H 1032.17 -0.944199 0.0848054 0
M  V30 10667 H 1031.88 -3.50591 -0.279037 0
M  V30 10668 H 1031.75 -3.197 -2.00179 0
M  V30 10669 H 1034.14 -2.20603 -1.96005 0
M  V30 10670 H 1034.22 -2.54801 -0.225892 0
M  V30 10671 H 1033.86 -5.02757 -0.720924 0
M  V30 10672 H 1033.79 -4.6552 -2.46168 0
M  V30 10673 H 1036.29 -3.51023 -1.39968 0
M  V30 10674 H 1036.6 -7.38643 -2.27214 0
M  V30 10675 H 1034.94 -6.64077 -2.05003 0
M  V30 10676 H 1038.13 -4.37858 -1.65523 0
M  V30 10677 H 1038.31 -6.14609 -2.05329 0
M  V30 10678 N 1031.71 0.701592 -1.41122 0
M  V30 10679 C 1033.13 1.01143 -1.23459 0
M  V30 10680 C 1033.33 2.01144 -0.11968 0
M  V30 10681 O 1032.39 2.47132 0.517889 0
M  V30 10682 C 1033.7 1.54179 -2.58165 0
M  V30 10683 C 1035.25 1.66093 -2.65296 0
M  V30 10684 C 1035.72 2.22532 -4.00304 0
M  V30 10685 N 1037.21 2.299 -4.0212 0
M  V30 10686 C 1037.95 2.74584 -5.0338 0
M  V30 10687 N 1037.44 3.18917 -6.15032 0
M  V30 10688 N 1039.24 2.74094 -4.90743 0
M  V30 10689 H 1031.39 0.0390087 -2.12364 0
M  V30 10690 H 1033.65 0.0798848 -0.944628 0
M  V30 10691 H 1033.36 0.881587 -3.40472 0
M  V30 10692 H 1033.23 2.52488 -2.80231 0
M  V30 10693 H 1035.62 2.31227 -1.83352 0
M  V30 10694 H 1035.7 0.663461 -2.47046 0
M  V30 10695 H 1035.34 1.58016 -4.82694 0
M  V30 10696 H 1035.27 3.2302 -4.15891 0
M  V30 10697 H 1037.76 1.98607 -3.21502 0
M  V30 10698 H 1038.08 3.5162 -6.88174 0
M  V30 10699 H 1036.42 3.1684 -6.18577 0
M  V30 10700 H 1039.61 2.38804 -4.02604 0
M  V30 10701 H 1039.79 3.086 -5.69798 0
M  V30 10702 N 1033.19 1.2685 0.935242 0
M  V30 10703 C 1034.14 1.08923 2.03481 0
M  V30 10704 C 1035.11 -0.00749786 1.66098 0
M  V30 10705 O 1036.29 0.153401 1.90182 0
M  V30 10706 C 1033.43 0.734529 3.37192 0
M  V30 10707 C 1032.55 1.90812 3.87576 0
M  V30 10708 C 1031.68 1.49599 5.097 0
M  V30 10709 C 1030.72 2.63752 5.5236 0
M  V30 10710 N 1029.86 2.23179 6.65684 0
M  V30 10711 H 1034.7 2.03016 2.18148 0
M  V30 10712 H 1032.23 1.01072 1.06878 0
M  V30 10713 H 1034.19 0.509734 4.14074 0
M  V30 10714 H 1032.82 -0.169438 3.22355 0
M  V30 10715 H 1031.87 2.24567 3.0704 0
M  V30 10716 H 1033.19 2.7647 4.1517 0
M  V30 10717 H 1032.34 1.23199 5.9406 0
M  V30 10718 H 1031.08 0.61039 4.83865 0
M  V30 10719 H 1030.08 2.90874 4.66554 0
M  V30 10720 H 1031.31 3.5292 5.80193 0
M  V30 10721 H 1029.26 1.37061 6.41522 0
M  V30 10722 H 1029.17 3.02379 6.92895 0
M  V30 10723 H 1030.44 2.00007 7.53404 0
M  V30 10724 N 1034.67 -1.14067 1.0875 0
M  V30 10725 C 1035.6 -2.21385 0.74236 0
M  V30 10726 C 1036.58 -1.67833 -0.276805 0
M  V30 10727 O 1037.77 -1.93647 -0.1464 0
M  V30 10728 C 1034.9 -3.46956 0.154644 0
M  V30 10729 C 1033.85 -4.13555 1.10255 0
M  V30 10730 C 1033.18 -5.3337 0.376877 0
M  V30 10731 C 1034.48 -4.6169 2.44213 0
M  V30 10732 H 1036.17 -2.50512 1.63964 0
M  V30 10733 H 1033.72 -1.20408 0.789807 0
M  V30 10734 H 1035.67 -4.21284 -0.0988419 0
M  V30 10735 H 1034.39 -3.17203 -0.777789 0
M  V30 10736 H 1033.05 -3.41186 1.34119 0
M  V30 10737 H 1032.7 -4.99879 -0.559472 0
M  V30 10738 H 1032.4 -5.78875 1.00884 0
M  V30 10739 H 1033.92 -6.10458 0.131527 0
M  V30 10740 H 1035.34 -5.27475 2.24595 0
M  V30 10741 H 1033.74 -5.17909 3.03134 0
M  V30 10742 H 1034.81 -3.76574 3.05483 0
M  V30 10743 N 1036.15 -0.873678 -1.31166 0
M  V30 10744 C 1037.06 -0.335726 -2.32185 0
M  V30 10745 C 1038.07 0.556259 -1.64869 0
M  V30 10746 O 1039.25 0.452087 -1.9626 0
M  V30 10747 C 1036.32 0.450822 -3.43756 0
M  V30 10748 C 1035.38 -0.469565 -4.26724 0
M  V30 10749 C 1034.61 0.279538 -5.32967 0
M  V30 10750 O 1034.83 1.50715 -5.50128 0
M  V30 10751 O 1033.77 -0.36452 -6.00795 0
M  V30 10752 H 1037.59 -1.17314 -2.80127 0
M  V30 10753 H 1035.18 -0.637163 -1.35132 0
M  V30 10754 H 1037.06 0.896582 -4.11752 0
M  V30 10755 H 1035.73 1.26472 -2.9797 0
M  V30 10756 H 1034.64 -0.963902 -3.61469 0
M  V30 10757 H 1035.97 -1.24916 -4.76085 0
M  V30 10758 N 1037.63 1.44308 -0.633487 0
M  V30 10759 C 1038.87 2.02023 -0.138917 0
M  V30 10760 C 1039.2 1.49841 1.24008 0
M  V30 10761 O 1038.46 0.673718 1.83738 0
M  V30 10762 C 1038.76 3.57316 -0.0773886 0
M  V30 10763 C 1038.42 4.28762 -1.39548 0
M  V30 10764 C 1037.08 4.47997 -1.75648 0
M  V30 10765 C 1039.44 4.69391 -2.26542 0
M  V30 10766 C 1036.76 5.05121 -2.98445 0
M  V30 10767 C 1039.12 5.27876 -3.48612 0
M  V30 10768 C 1037.78 5.45329 -3.84932 0
M  V30 10769 H 1037.05 0.739254 -0.0508333 0
M  V30 10770 H 1039.7 1.73043 -0.820271 0
M  V30 10771 H 1038 3.85724 0.687345 0
M  V30 10772 H 1039.7 3.99706 0.321837 0
M  V30 10773 H 1036.29 4.14122 -1.10456 0
M  V30 10774 H 1040.47 4.54241 -1.99946 0
M  V30 10775 H 1035.73 5.16821 -3.26658 0
M  V30 10776 H 1039.9 5.58307 -4.16253 0
M  V30 10777 H 1037.53 5.8936 -4.80166 0
M  V30 10778 N 1039.1 0.374177 1.53094 0
M  V30 10779 C 1040.35 -0.212816 2.01379 0
M  V30 10780 C 1040.68 -1.48069 1.26118 0
M  V30 10781 O 1039.93 -1.92625 0.345561 0
M  V30 10782 C 1040.23 -0.542179 3.53264 0
M  V30 10783 C 1039.9 0.632375 4.46444 0
M  V30 10784 C 1038.56 0.954635 4.71636 0
M  V30 10785 C 1040.91 1.41887 5.01515 0
M  V30 10786 C 1038.24 2.06521 5.4915 0
M  V30 10787 C 1040.59 2.51993 5.80243 0
M  V30 10788 C 1039.26 2.84744 6.03719 0
M  V30 10789 H 1038.53 -0.0778749 0.736897 0
M  V30 10790 H 1041.17 0.508412 1.84628 0
M  V30 10791 H 1039.48 -1.34454 3.68007 0
M  V30 10792 H 1041.18 -1.00874 3.88105 0
M  V30 10793 H 1037.77 0.371179 4.2699 0
M  V30 10794 H 1041.95 1.18315 4.81991 0
M  V30 10795 H 1037.21 2.32284 5.65557 0
M  V30 10796 H 1041.38 3.13346 6.21922 0
M  V30 10797 H 1039.01 3.70921 6.63568 0
M  V30 10798 N 1040.58 -1.57259 0.103575 0
M  V30 10799 C 1041.81 -1.99 -0.566275 0
M  V30 10800 C 1042.23 -0.982909 -1.61197 0
M  V30 10801 O 1041.58 0.026345 -1.82481 0
M  V30 10802 C 1041.63 -3.40778 -1.20635 0
M  V30 10803 O 1041.35 -4.37632 -0.202472 0
M  V30 10804 C 1042.86 -3.97567 -1.961 0
M  V30 10805 H 1040.08 -0.653751 -0.151164 0
M  V30 10806 H 1042.62 -2.03658 0.185365 0
M  V30 10807 H 1040.77 -3.37107 -1.90886 0
M  V30 10808 H 1041.19 -5.2026 -0.665535 0
M  V30 10809 H 1042.66 -4.98897 -2.36233 0
M  V30 10810 H 1043.14 -3.35853 -2.83018 0
M  V30 10811 H 1043.75 -4.04737 -1.30645 0
M  V30 10812 N 1042.06 0.170153 -1.56679 0
M  V30 10813 C 1043.29 0.900826 -1.85927 0
M  V30 10814 C 1043.7 1.76285 -0.687033 0
M  V30 10815 O 1043.04 1.80276 0.353029 0
M  V30 10816 C 1043.1 1.82723 -3.096 0
M  V30 10817 C 1042.77 1.14469 -4.42432 0
M  V30 10818 C 1043.76 0.509598 -5.17396 0
M  V30 10819 C 1041.45 1.1411 -4.89167 0
M  V30 10820 C 1043.44 -0.119976 -6.37287 0
M  V30 10821 C 1041.13 0.507703 -6.08987 0
M  V30 10822 C 1042.13 -0.121731 -6.82892 0
M  V30 10823 O 1041.82 -0.74514 -8.00439 0
M  V30 10824 H 1041.55 0.267087 -0.621 0
M  V30 10825 H 1044.1 0.17474 -2.04655 0
M  V30 10826 H 1042.33 2.59367 -2.8682 0
M  V30 10827 H 1044.02 2.42784 -3.25285 0
M  V30 10828 H 1044.79 0.504341 -4.82371 0
M  V30 10829 H 1040.67 1.62043 -4.31582 0
M  V30 10830 H 1044.21 -0.611872 -6.94911 0
M  V30 10831 H 1040.11 0.510548 -6.43478 0
M  V30 10832 H 1040.88 -0.644506 -8.15959 0
M  V30 10833 N 1043.54 1.5137 0.438746 0
M  V30 10834 C 1044.76 1.68058 1.21537 0
M  V30 10835 C 1045.19 0.376787 1.84288 0
M  V30 10836 O 1044.55 -0.662911 1.68746 0
M  V30 10837 C 1044.59 2.79684 2.27616 0
M  V30 10838 O 1043.7 2.43189 3.33066 0
M  V30 10839 H 1043.04 0.560408 0.356144 0
M  V30 10840 H 1045.57 1.97926 0.518311 0
M  V30 10841 H 1045.58 3.03726 2.72423 0
M  V30 10842 H 1044.25 3.74293 1.81321 0
M  V30 10843 H 1042.83 2.29713 2.93746 0
M  V30 10844 N 1045.02 -0.694098 1.41492 0
M  V30 10845 C 1046.43 -1.00487 1.23994 0
M  V30 10846 C 1046.63 -2.01078 0.130346 0
M  V30 10847 O 1045.69 -2.47403 -0.504775 0
M  V30 10848 C 1047 -1.52808 2.58979 0
M  V30 10849 C 1048.55 -1.64684 2.66173 0
M  V30 10850 C 1049.02 -2.20406 4.01479 0
M  V30 10851 N 1050.52 -2.27765 4.03333 0
M  V30 10852 C 1051.25 -2.7191 5.04829 0
M  V30 10853 N 1050.75 -3.1565 6.16714 0
M  V30 10854 N 1052.54 -2.71487 4.9219 0
M  V30 10855 H 1044.69 -0.027746 2.12382 0
M  V30 10856 H 1046.95 -0.0748741 0.945039 0
M  V30 10857 H 1046.66 -0.863519 3.40934 0
M  V30 10858 H 1046.53 -2.50998 2.81566 0
M  V30 10859 H 1048.92 -2.30251 1.84576 0
M  V30 10860 H 1049 -0.65035 2.47395 0
M  V30 10861 H 1048.65 -1.55454 4.83525 0
M  V30 10862 H 1048.58 -3.2081 4.17599 0
M  V30 10863 H 1051.07 -1.96899 3.22551 0
M  V30 10864 H 1051.38 -3.47966 6.90029 0
M  V30 10865 H 1049.72 -3.13555 6.20248 0
M  V30 10866 H 1052.92 -2.36666 4.03865 0
M  V30 10867 H 1053.09 -3.05573 5.71427 0
M  V30 10868 N 1046.49 -1.27344 -0.928501 0
M  V30 10869 C 1047.74 -1.13635 -1.6761 0
M  V30 10870 C 1048.07 0.317957 -1.91884 0
M  V30 10871 O 1047.32 1.24904 -1.50657 0
M  V30 10872 C 1047.62 -1.86439 -3.04918 0
M  V30 10873 C 1047.29 -3.36298 -3.00358 0
M  V30 10874 C 1045.95 -3.77173 -2.98821 0
M  V30 10875 C 1048.3 -4.31921 -2.91708 0
M  V30 10876 C 1045.63 -5.12037 -2.86417 0
M  V30 10877 C 1047.98 -5.66841 -2.80846 0
M  V30 10878 C 1046.65 -6.07011 -2.77659 0
M  V30 10879 H 1045.92 -0.415821 -0.61333 0
M  V30 10880 H 1048.56 -1.57943 -1.08288 0
M  V30 10881 H 1046.87 -1.34638 -3.6794 0
M  V30 10882 H 1048.57 -1.73261 -3.61637 0
M  V30 10883 H 1045.16 -3.0379 -3.0234 0
M  V30 10884 H 1049.34 -4.01314 -2.91994 0
M  V30 10885 H 1044.6 -5.42307 -2.82336 0
M  V30 10886 H 1048.77 -6.40608 -2.73119 0
M  V30 10887 H 1046.4 -7.11467 -2.67804 0
M  V30 10888 N 1047.97 1.13488 -1.09353 0
M  V30 10889 C 1049.25 1.80998 -0.741559 0
M  V30 10890 C 1049.63 1.96418 0.773505 0
M  V30 10891 O 1048.98 1.53168 1.69563 0
M  V30 10892 C 1049.19 3.16078 -1.47972 0
M  V30 10893 C 1050.54 3.91438 -1.64504 0
M  V30 10894 O 1051.56 3.25699 -1.44218 0
M  V30 10895 O 1050.42 5.0935 -1.98054 0
M  V30 10896 H 1047.51 0.782953 -0.266297 0
M  V30 10897 H 1050.06 1.20422 -1.19569 0
M  V30 10898 H 1048.83 3.00076 -2.51137 0
M  V30 10899 H 1048.45 3.84354 -1.01772 0
M  V30 10900 N 1049.45 0.880621 1.30701 0
M  V30 10901 C 1050.38 0.288813 2.26365 0
M  V30 10902 C 1051.36 -0.588135 1.51591 0
M  V30 10903 O 1052.55 -0.539197 1.80624 0
M  V30 10904 C 1049.67 -0.590032 3.33521 0
M  V30 10905 C 1048.72 0.217003 4.25948 0
M  V30 10906 S 1049.55 1.60246 5.10961 0
M  V30 10907 C 1050.71 0.730023 6.21628 0
M  V30 10908 H 1050.94 1.09971 2.76213 0
M  V30 10909 H 1048.47 0.67978 1.3863 0
M  V30 10910 H 1050.43 -1.09136 3.95727 0
M  V30 10911 H 1049.09 -1.37498 2.82406 0
M  V30 10912 H 1048.29 -0.453481 5.01956 0
M  V30 10913 H 1047.89 0.650803 3.68294 0
M  V30 10914 H 1050.18 -0.0548644 6.77478 0
M  V30 10915 H 1051.12 1.46157 6.92852 0
M  V30 10916 H 1051.53 0.292854 5.6374 0
M  V30 10917 N 1050.93 -1.4397 0.641131 0
M  V30 10918 C 1051.84 -2.34526 -0.058742 0
M  V30 10919 C 1052.86 -1.53194 -0.825088 0
M  V30 10920 O 1054.03 -1.85888 -0.775081 0
M  V30 10921 C 1051.1 -3.31313 -1.02139 0
M  V30 10922 C 1050.16 -4.28552 -0.253319 0
M  V30 10923 C 1049.39 -5.20715 -1.17012 0
M  V30 10924 O 1049.61 -5.17028 -2.40911 0
M  V30 10925 O 1048.55 -5.9839 -0.649039 0
M  V30 10926 H 1052.37 -2.95843 0.686329 0
M  V30 10927 H 1049.96 -1.43909 0.401316 0
M  V30 10928 H 1051.84 -3.90862 -1.57496 0
M  V30 10929 H 1050.52 -2.72516 -1.7469 0
M  V30 10930 H 1049.42 -3.72519 0.343531 0
M  V30 10931 H 1050.76 -4.90297 0.432372 0
M  V30 10932 N 1052.41 -0.382291 -1.52893 0
M  V30 10933 C 1053.34 0.447829 -2.29165 0
M  V30 10934 C 1054.32 1.06956 -1.32267 0
M  V30 10935 O 1055.5 1.08365 -1.61154 0
M  V30 10936 C 1052.63 1.57902 -3.09329 0
M  V30 10937 C 1051.59 1.08369 -4.14053 0
M  V30 10938 C 1050.91 2.30641 -4.82399 0
M  V30 10939 C 1052.21 0.156591 -5.22065 0
M  V30 10940 H 1053.91 -0.188541 -2.98806 0
M  V30 10941 H 1051.45 -0.0921179 -1.43705 0
M  V30 10942 H 1053.41 2.16652 -3.61442 0
M  V30 10943 H 1052.13 2.24287 -2.37409 0
M  V30 10944 H 1050.79 0.518772 -3.62911 0
M  V30 10945 H 1050.44 2.9552 -4.07034 0
M  V30 10946 H 1050.14 1.98163 -5.53177 0
M  V30 10947 H 1051.66 2.90047 -5.37313 0
M  V30 10948 H 1053.08 0.652065 -5.6958 0
M  V30 10949 H 1051.47 -0.0780978 -6.00049 0
M  V30 10950 H 1052.54 -0.796529 -4.78313 0
M  V30 10951 N 1053.89 1.57202 -0.111913 0
M  V30 10952 C 1055.11 1.99297 0.555713 0
M  V30 10953 C 1055.53 0.991444 1.60673 0
M  V30 10954 O 1054.89 -0.0166672 1.82492 0
M  V30 10955 C 1054.94 3.41413 1.18826 0
M  V30 10956 O 1054.66 4.37733 0.179261 0
M  V30 10957 C 1056.16 3.98602 1.93989 0
M  V30 10958 H 1053.38 0.654543 0.147695 0
M  V30 10959 H 1055.92 2.03557 -0.196163 0
M  V30 10960 H 1054.08 3.38115 1.89096 0
M  V30 10961 H 1054.49 5.20606 0.637935 0
M  V30 10962 H 1055.97 5.00143 2.33584 0
M  V30 10963 H 1056.44 3.37349 2.81233 0
M  V30 10964 H 1057.05 4.05424 1.28497 0
M  V30 10965 N 1055.36 -0.161842 1.56767 0
M  V30 10966 C 1056.61 -0.876925 1.82527 0
M  V30 10967 C 1056.94 -1.81831 0.690492 0
M  V30 10968 O 1056.19 -1.9304 -0.32159 0
M  V30 10969 C 1056.49 -1.69736 3.14522 0
M  V30 10970 C 1056.16 -0.904075 4.41743 0
M  V30 10971 C 1054.82 -0.685168 4.76297 0
M  V30 10972 C 1057.17 -0.348282 5.20035 0
M  V30 10973 C 1054.5 0.10048 5.86614 0
M  V30 10974 C 1056.85 0.424327 6.31175 0
M  V30 10975 C 1055.52 0.653948 6.64289 0
M  V30 10976 H 1054.79 -0.320889 0.667915 0
M  V30 10977 H 1057.43 -0.141338 1.90978 0
M  V30 10978 H 1055.74 -2.50262 3.01456 0
M  V30 10979 H 1057.44 -2.25386 3.31666 0
M  V30 10980 H 1054.03 -1.08474 4.14646 0
M  V30 10981 H 1058.21 -0.504721 4.93727 0
M  V30 10982 H 1053.47 0.288029 6.10721 0
M  V30 10983 H 1057.64 0.862203 6.91042 0
M  V30 10984 H 1055.27 1.26459 7.49608 0
M  V30 10985 N 1056.84 -1.516 -0.430713 0
M  V30 10986 C 1058.09 -1.6484 -1.18134 0
M  V30 10987 C 1058.42 -0.366725 -1.90706 0
M  V30 10988 O 1057.7 0.63398 -1.83878 0
M  V30 10989 C 1057.98 -2.85617 -2.19306 0
M  V30 10990 C 1057.83 -4.23778 -1.50773 0
M  V30 10991 C 1059.15 -3.01909 -3.20217 0
M  V30 10992 H 1056.27 -0.599907 -0.428113 0
M  V30 10993 H 1058.91 -1.84102 -0.46973 0
M  V30 10994 H 1057.06 -2.69325 -2.79993 0
M  V30 10995 H 1058.73 -4.51752 -0.93371 0
M  V30 10996 H 1056.98 -4.26171 -0.809966 0
M  V30 10997 H 1057.65 -5.04291 -2.24487 0
M  V30 10998 H 1060.12 -3.16956 -2.69589 0
M  V30 10999 H 1059 -3.87968 -3.88293 0
M  V30 11000 H 1059.26 -2.1427 -3.86705 0
M  V30 11001 N 1058.32 0.686584 -1.41858 0
M  V30 11002 C 1059.57 1.44879 -1.41908 0
M  V30 11003 C 1059.9 1.94175 -0.0311408 0
M  V30 11004 O 1059.17 1.70131 0.942646 0
M  V30 11005 C 1059.46 2.65428 -2.43352 0
M  V30 11006 C 1059.31 2.2184 -3.91289 0
M  V30 11007 C 1060.63 3.67635 -2.41934 0
M  V30 11008 H 1057.75 0.525477 -0.516762 0
M  V30 11009 H 1060.39 0.781263 -1.73194 0
M  V30 11010 H 1058.54 3.2238 -2.16803 0
M  V30 11011 H 1060.21 1.70146 -4.28775 0
M  V30 11012 H 1058.45 1.53531 -4.05722 0
M  V30 11013 H 1059.13 3.08376 -4.5783 0
M  V30 11014 H 1061.6 3.20376 -2.65516 0
M  V30 11015 H 1060.48 4.49579 -3.14913 0
M  V30 11016 H 1060.74 4.17953 -1.44111 0
M  V30 11017 N 1059.8 1.27835 0.921735 0
M  V30 11018 C 1061.03 1.17352 1.704 0
M  V30 11019 C 1061.44 -0.268892 1.86875 0
M  V30 11020 O 1060.8 -1.18253 1.39005 0
M  V30 11021 C 1060.85 1.85889 3.10045 0
M  V30 11022 O 1060.57 3.24495 2.94338 0
M  V30 11023 C 1062.07 1.81607 4.04393 0
M  V30 11024 H 1059.29 0.40773 0.532914 0
M  V30 11025 H 1061.83 1.68815 1.15419 0
M  V30 11026 H 1059.99 1.38316 3.61867 0
M  V30 11027 H 1060.4 3.58705 3.82663 0
M  V30 11028 H 1061.88 2.34165 4.99871 0
M  V30 11029 H 1062.35 0.786697 4.32097 0
M  V30 11030 H 1062.96 2.28822 3.58498 0
M  V30 11031 N 1061.28 -1.12907 1.09954 0
M  V30 11032 C 1062.24 -2.16673 0.747364 0
M  V30 11033 C 1063.24 -1.59208 -0.225741 0
M  V30 11034 O 1064.43 -1.742 -0.00322482 0
M  V30 11035 C 1061.56 -3.40735 0.106169 0
M  V30 11036 H 1062.75 -2.49341 1.6664 0
M  V30 11037 H 1060.31 -1.27828 0.899421 0
M  V30 11038 H 1061.04 -3.13661 -0.82384 0
M  V30 11039 H 1060.83 -3.83717 0.806434 0
M  V30 11040 H 1062.32 -4.17414 -0.12464 0
M  V30 11041 N 1062.75 -0.88754 -1.30232 0
M  V30 11042 C 1063.7 -0.345765 -2.30016 0
M  V30 11043 C 1064.7 0.5486 -1.60271 0
M  V30 11044 O 1065.9 0.43275 -1.74721 0
M  V30 11045 H 1062.28 -0.0931623 -0.746207 0
M  V30 11046 H 1064.25 -1.20095 -2.73166 0
M  V30 11047 C 1063 0.422435 -3.45124 0
M  V30 11048 H 1062.32 -0.256516 -3.98976 0
M  V30 11049 H 1063.76 0.766572 -4.17013 0
M  V30 11050 C 1062.22 1.62049 -2.95367 0
M  V30 11051 O 1062.75 2.71985 -2.95613 0
M  V30 11052 N 1060.95 1.45852 -2.51347 0
M  V30 11053 H 1060.5 0.564158 -2.51346 0
M  V30 11054 H 1060.46 2.26148 -2.18413 0
M  V30 11055 N 1064.23 1.43628 -0.648757 0
M  V30 11056 C 1065.48 2.01864 -0.160336 0
M  V30 11057 C 1065.81 1.51148 1.22412 0
M  V30 11058 O 1065.06 0.693168 1.83013 0
M  V30 11059 C 1065.36 3.57214 -0.115282 0
M  V30 11060 C 1065.03 4.27258 -1.44088 0
M  V30 11061 C 1063.69 4.46109 -1.8039 0
M  V30 11062 C 1066.04 4.66962 -2.31508 0
M  V30 11063 C 1063.37 5.01928 -3.03785 0
M  V30 11064 C 1065.72 5.24148 -3.54191 0
M  V30 11065 C 1064.39 5.41216 -3.90694 0
M  V30 11066 H 1063.66 0.738674 -0.0586712 0
M  V30 11067 H 1066.3 1.72163 -0.838578 0
M  V30 11068 H 1064.61 3.86431 0.646395 0
M  V30 11069 H 1066.3 4.00025 0.279425 0
M  V30 11070 H 1062.89 4.12928 -1.14842 0
M  V30 11071 H 1067.08 4.52095 -2.04753 0
M  V30 11072 H 1062.33 5.13328 -3.32122 0
M  V30 11073 H 1066.51 5.53861 -4.22151 0
M  V30 11074 H 1064.14 5.84234 -4.8639 0
M  V30 11075 N 1065.71 0.390394 1.52688 0
M  V30 11076 C 1066.94 -0.191485 2.06012 0
M  V30 11077 C 1067.35 -1.40422 1.26202 0
M  V30 11078 O 1066.71 -1.79866 0.308963 0
M  V30 11079 C 1066.76 -0.560521 3.57128 0
M  V30 11080 O 1066.48 0.60404 4.33916 0
M  V30 11081 C 1067.98 -1.19814 4.26801 0
M  V30 11082 H 1065.2 -0.0286311 0.670389 0
M  V30 11083 H 1067.75 0.555939 1.96798 0
M  V30 11084 H 1065.9 -1.25784 3.66411 0
M  V30 11085 H 1066.32 0.300467 5.23639 0
M  V30 11086 H 1067.79 -1.40672 5.33775 0
M  V30 11087 H 1068.27 -2.16582 3.82085 0
M  V30 11088 H 1068.87 -0.541558 4.21838 0
M  V30 11089 N 1067.19 -1.57141 0.120249 0
M  V30 11090 C 1068.1 -2.18925 -0.843155 0
M  V30 11091 C 1069.11 -1.16575 -1.29175 0
M  V30 11092 O 1070.29 -1.4905 -1.35448 0
M  V30 11093 C 1067.36 -2.7775 -2.075 0
M  V30 11094 C 1066.42 -3.95139 -1.6782 0
M  V30 11095 C 1065.65 -4.51149 -2.85132 0
M  V30 11096 O 1065.87 -4.06056 -4.00593 0
M  V30 11097 O 1064.81 -5.41815 -2.62145 0
M  V30 11098 H 1068.63 -3.01707 -0.347357 0
M  V30 11099 H 1066.22 -1.49028 -0.105427 0
M  V30 11100 H 1068.1 -3.15243 -2.79643 0
M  V30 11101 H 1066.77 -1.97998 -2.56083 0
M  V30 11102 H 1065.68 -3.62412 -0.927807 0
M  V30 11103 H 1067.01 -4.7633 -1.23977 0
M  V30 11104 N 1068.67 0.153526 -1.5685 0
M  V30 11105 C 1069.89 0.882335 -1.87143 0
M  V30 11106 C 1070.31 1.75034 -0.707702 0
M  V30 11107 O 1069.67 1.79624 0.32273 0
M  V30 11108 C 1069.72 1.74444 -3.16625 0
M  V30 11109 O 1069.44 0.911419 -4.28515 0
M  V30 11110 C 1070.94 2.58139 -3.60388 0
M  V30 11111 H 1068.16 0.25546 -0.620469 0
M  V30 11112 H 1070.7 0.148275 -2.03962 0
M  V30 11113 H 1068.86 2.43163 -3.0158 0
M  V30 11114 H 1069.27 1.50268 -5.02513 0
M  V30 11115 H 1070.75 3.14215 -4.53842 0
M  V30 11116 H 1071.22 3.33865 -2.85361 0
M  V30 11117 H 1071.83 1.94721 -3.78105 0
M  V30 11118 N 1070.14 1.51827 0.422667 0
M  V30 11119 C 1071.09 1.74791 1.53463 0
M  V30 11120 C 1072.09 0.614602 1.57858 0
M  V30 11121 O 1073.29 0.796336 1.61426 0
M  V30 11122 H 1069.67 0.552524 0.510118 0
M  V30 11123 H 1071.64 2.67974 1.31273 0
M  V30 11124 C 1070.39 1.90339 2.90975 0
M  V30 11125 H 1069.71 2.76958 2.8833 0
M  V30 11126 H 1071.15 2.10413 3.68106 0
M  V30 11127 C 1069.61 0.66695 3.30232 0
M  V30 11128 O 1070.14 -0.171542 4.01334 0
M  V30 11129 N 1068.35 0.506768 2.86147 0
M  V30 11130 H 1067.89 1.19019 2.28456 0
M  V30 11131 H 1067.85 -0.319247 3.12775 0
M  V30 11132 N 1071.62 -0.679052 1.4222 0
M  V30 11133 C 1072.57 -1.81398 1.45594 0
M  V30 11134 C 1073.56 -1.66112 0.332127 0
M  V30 11135 O 1074.77 -1.72772 0.504942 0
M  V30 11136 H 1071.15 -0.598045 0.455902 0
M  V30 11137 H 1073.12 -1.7567 2.41211 0
M  V30 11138 C 1071.87 -3.19525 1.37109 0
M  V30 11139 H 1071.19 -3.31912 2.22878 0
M  V30 11140 H 1072.63 -3.98967 1.43531 0
M  V30 11141 C 1071.09 -3.36792 0.0853593 0
M  V30 11142 O 1071.62 -3.92309 -0.863532 0
M  V30 11143 N 1069.82 -2.906 0.00389229 0
M  V30 11144 H 1069.37 -2.45607 0.776846 0
M  V30 11145 H 1069.33 -3.0253 -0.855742 0
M  V30 11146 N 1073.1 -1.28322 -0.914942 0
M  V30 11147 C 1074.35 -1.15179 -1.66067 0
M  V30 11148 C 1074.67 0.300279 -1.92674 0
M  V30 11149 O 1073.94 1.20821 -1.54205 0
M  V30 11150 H 1072.52 -0.423264 -0.615513 0
M  V30 11151 H 1075.18 -1.61034 -1.09791 0
M  V30 11152 H 1074.28 -1.69048 -2.62353 0
M  V30 11153 N 1074.58 1.12322 -1.10551 0
M  V30 11154 C 1075.53 2.16177 -0.724679 0
M  V30 11155 C 1076.51 1.58674 0.266739 0
M  V30 11156 O 1077.7 1.7684 0.0752872 0
M  V30 11157 C 1074.83 3.4293 -0.159413 0
M  V30 11158 C 1073.92 4.07413 -1.17794 0
M  V30 11159 N 1074.31 4.46889 -2.36905 0
M  V30 11160 C 1072.61 4.34209 -1.01874 0
M  V30 11161 C 1073.31 4.97291 -3.01789 0
M  V30 11162 N 1072.29 4.92871 -2.29302 0
M  V30 11163 H 1076.09 2.44466 -1.63136 0
M  V30 11164 H 1073.6 1.2924 -0.983407 0
M  V30 11165 H 1075.6 4.16693 0.131502 0
M  V30 11166 H 1074.26 3.16109 0.741975 0
M  V30 11167 H 1075.27 4.39219 -2.74422 0
M  V30 11168 H 1071.95 4.17141 -0.173013 0
M  V30 11169 H 1073.34 5.3754 -4.03114 0
M  V30 11170 N 1076.06 0.894434 1.2976 0
M  V30 11171 C 1077.02 0.373094 2.26143 0
M  V30 11172 C 1078.02 -0.489756 1.5316 0
M  V30 11173 O 1079.21 -0.29556 1.71674 0
M  V30 11174 C 1076.34 -0.467234 3.37683 0
M  V30 11175 H 1077.53 1.22427 2.73773 0
M  V30 11176 H 1075.09 0.672112 1.41111 0
M  V30 11177 H 1075.82 -1.33861 2.95384 0
M  V30 11178 H 1075.61 0.150954 3.91809 0
M  V30 11179 H 1077.1 -0.823469 4.094 0
M  V30 11180 N 1077.53 -1.43282 0.656365 0
M  V30 11181 C 1078.46 -2.33492 -0.0196962 0
M  V30 11182 C 1079.45 -1.49647 -0.80868 0
M  V30 11183 O 1080.63 -1.78303 -0.769529 0
M  V30 11184 C 1077.76 -3.33052 -0.984574 0
M  V30 11185 C 1076.71 -4.26908 -0.305483 0
M  V30 11186 C 1076.04 -5.16531 -1.38202 0
M  V30 11187 C 1077.34 -5.16073 0.804081 0
M  V30 11188 H 1079.03 -2.90272 0.733661 0
M  V30 11189 H 1076.58 -1.39574 0.354259 0
M  V30 11190 H 1078.53 -3.9506 -1.46647 0
M  V30 11191 H 1077.26 -2.74535 -1.76913 0
M  V30 11192 H 1075.92 -3.66268 0.155995 0
M  V30 11193 H 1075.56 -4.54351 -2.1581 0
M  V30 11194 H 1075.26 -5.80148 -0.932878 0
M  V30 11195 H 1076.79 -5.81414 -1.86522 0
M  V30 11196 H 1078.2 -5.71873 0.404212 0
M  V30 11197 H 1076.6 -5.88427 1.17789 0
M  V30 11198 H 1077.67 -4.55574 1.66073 0
M  V30 11199 N 1079.01 -0.398486 -1.52479 0
M  V30 11200 C 1079.96 0.447001 -2.28264 0
M  V30 11201 C 1080.96 1.05511 -1.32529 0
M  V30 11202 O 1082.16 0.994528 -1.5003 0
M  V30 11203 H 1078.54 0.162919 -0.73414 0
M  V30 11204 H 1080.51 -0.213534 -2.97635 0
M  V30 11205 C 1079.26 1.55724 -3.10879 0
M  V30 11206 H 1078.58 1.09864 -3.84409 0
M  V30 11207 H 1080.02 2.12286 -3.67029 0
M  V30 11208 C 1078.48 2.51853 -2.23768 0
M  V30 11209 O 1079.01 3.55483 -1.87069 0
M  V30 11210 N 1077.21 2.2181 -1.87746 0
M  V30 11211 H 1076.76 1.3757 -2.17789 0
M  V30 11212 H 1076.72 2.86376 -1.29753 0
M  V30 11213 N 1080.49 1.57075 -0.12858 0
M  V30 11214 C 1081.42 2.12907 0.848708 0
M  V30 11215 C 1082.44 1.07406 1.22343 0
M  V30 11216 O 1083.63 1.34746 1.17071 0
M  V30 11217 C 1080.73 2.62167 2.1476 0
M  V30 11218 C 1079.9 3.91871 1.94309 0
M  V30 11219 C 1078.96 4.26629 3.08016 0
M  V30 11220 O 1077.98 4.9528 2.80511 0
M  V30 11221 N 1079.19 3.84721 4.34706 0
M  V30 11222 H 1081.95 2.97387 0.371636 0
M  V30 11223 H 1079.51 1.61805 0.0555574 0
M  V30 11224 H 1081.5 2.82444 2.89841 0
M  V30 11225 H 1080.07 1.82514 2.53786 0
M  V30 11226 H 1079.29 3.80406 1.03367 0
M  V30 11227 H 1080.58 4.76662 1.77962 0
M  V30 11228 H 1079.98 3.2937 4.59926 0
M  V30 11229 H 1078.54 4.10087 5.06628 0
M  V30 11230 N 1081.97 -0.145205 1.5693 0
M  V30 11231 C 1083.22 -0.858786 1.83719 0
M  V30 11232 C 1083.55 -1.80738 0.710452 0
M  V30 11233 O 1082.82 -1.92389 -0.285791 0
M  V30 11234 C 1083.11 -1.6317 3.2101 0
M  V30 11235 C 1082.96 -0.704472 4.44249 0
M  V30 11236 C 1084.28 -2.59377 3.55544 0
M  V30 11237 H 1081.4 -0.310757 0.66828 0
M  V30 11238 H 1084.04 -0.123918 1.89595 0
M  V30 11239 H 1082.19 -2.25816 3.16132 0
M  V30 11240 H 1083.86 -0.08887 4.61214 0
M  V30 11241 H 1082.1 -0.0141693 4.33798 0
M  V30 11242 H 1082.78 -1.28135 5.36922 0
M  V30 11243 H 1085.25 -2.06848 3.61044 0
M  V30 11244 H 1084.13 -3.10506 4.52634 0
M  V30 11245 H 1084.39 -3.40819 2.81594 0
M  V30 11246 N 1083.45 -1.52049 -0.414609 0
M  V30 11247 C 1084.68 -1.69433 -1.18221 0
M  V30 11248 C 1085.09 -0.40104 -1.84901 0
M  V30 11249 O 1084.43 0.632342 -1.72474 0
M  V30 11250 C 1084.49 -2.76986 -2.2917 0
M  V30 11251 C 1084.15 -4.18903 -1.82671 0
M  V30 11252 C 1085.15 -5.02929 -1.31751 0
M  V30 11253 C 1082.84 -4.65113 -1.89672 0
M  V30 11254 C 1084.83 -6.31234 -0.884461 0
M  V30 11255 C 1082.52 -5.93408 -1.45978 0
M  V30 11256 C 1083.52 -6.76297 -0.9545 0
M  V30 11257 O 1083.2 -8.02191 -0.523852 0
M  V30 11258 H 1082.94 -0.571228 -0.36149 0
M  V30 11259 H 1085.49 -1.99355 -0.494643 0
M  V30 11260 H 1083.72 -2.42428 -3.01273 0
M  V30 11261 H 1085.41 -2.83023 -2.90951 0
M  V30 11262 H 1086.17 -4.68422 -1.2572 0
M  V30 11263 H 1082.05 -4.00702 -2.27945 0
M  V30 11264 H 1085.6 -6.95881 -0.489383 0
M  V30 11265 H 1081.49 -6.27424 -1.51687 0
M  V30 11266 H 1082.26 -8.15934 -0.647656 0
M  V30 11267 N 1084.93 0.6715 -1.42579 0
M  V30 11268 C 1085.86 1.79703 -1.42266 0
M  V30 11269 C 1086.87 1.59599 -0.321268 0
M  V30 11270 O 1088.06 1.68657 -0.584564 0
M  V30 11271 C 1085.16 3.16859 -1.20224 0
M  V30 11272 C 1084.33 3.63783 -2.42859 0
M  V30 11273 C 1083.39 4.79683 -2.16312 0
M  V30 11274 O 1082.42 4.90058 -2.89537 0
M  V30 11275 N 1083.62 5.68622 -1.16831 0
M  V30 11276 H 1086.38 1.80455 -2.39282 0
M  V30 11277 H 1083.95 0.854708 -1.375 0
M  V30 11278 H 1085.94 3.92054 -1.00376 0
M  V30 11279 H 1084.51 3.10987 -0.317188 0
M  V30 11280 H 1083.73 2.7923 -2.78252 0
M  V30 11281 H 1085.02 3.91877 -3.24514 0
M  V30 11282 H 1084.41 5.62894 -0.562746 0
M  V30 11283 H 1082.97 6.43615 -1.0297 0
M  V30 11284 N 1086.4 1.28806 0.908124 0
M  V30 11285 C 1087.65 1.15663 1.65242 0
M  V30 11286 C 1087.97 -0.292883 1.93395 0
M  V30 11287 O 1089.17 -0.545509 2.65963 0
M  V30 11288 C 1087.63 2.02233 2.97707 0
M  V30 11289 C 1087.24 3.51958 2.77181 0
M  V30 11290 C 1088.98 1.97792 3.75604 0
M  V30 11291 C 1086.89 4.3066 4.05322 0
M  V30 11292 H 1085.82 0.42928 0.619867 0
M  V30 11293 H 1088.47 1.5338 1.00731 0
M  V30 11294 H 1086.85 1.57377 3.63385 0
M  V30 11295 H 1088.02 4.0481 2.20149 0
M  V30 11296 H 1086.34 3.57983 2.12691 0
M  V30 11297 H 1088.94 2.53858 4.70596 0
M  V30 11298 H 1089.28 0.955956 4.05175 0
M  V30 11299 H 1089.81 2.40648 3.16755 0
M  V30 11300 H 1086.55 5.3346 3.8092 0
M  V30 11301 H 1086.07 3.8258 4.61944 0
M  V30 11302 H 1087.75 4.40878 4.73535 0
M  V30 11303 N 1087.88 -1.11734 1.11145 0
M  V30 11304 C 1088.81 -2.16847 0.710809 0
M  V30 11305 C 1089.79 -1.59966 -0.291494 0
M  V30 11306 O 1090.98 -1.87554 -0.188645 0
M  V30 11307 C 1088.1 -3.38663 0.0499744 0
M  V30 11308 C 1087.15 -4.14199 1.01693 0
M  V30 11309 S 1087.98 -4.7154 2.53793 0
M  V30 11310 C 1089.14 -5.96682 1.89001 0
M  V30 11311 H 1089.37 -2.50497 1.60121 0
M  V30 11312 H 1086.9 -1.23311 0.929182 0
M  V30 11313 H 1088.86 -4.09212 -0.324959 0
M  V30 11314 H 1087.52 -3.03279 -0.817335 0
M  V30 11315 H 1086.72 -5.01494 0.501933 0
M  V30 11316 H 1086.32 -3.49395 1.33414 0
M  V30 11317 H 1088.61 -6.6634 1.22462 0
M  V30 11318 H 1089.55 -6.52821 2.74282 0
M  V30 11319 H 1089.96 -5.48084 1.35145 0
M  V30 11320 N 1089.36 -0.901303 -1.29284 0
M  V30 11321 C 1090.59 -0.542723 -1.99344 0
M  V30 11322 C 1091 0.877357 -1.67628 0
M  V30 11323 O 1090.34 1.59088 -0.918515 0
M  V30 11324 C 1090.4 -0.657088 -3.53444 0
M  V30 11325 C 1090.07 -2.04444 -4.0872 0
M  V30 11326 C 1091.06 -3.01577 -4.23494 0
M  V30 11327 C 1088.75 -2.35425 -4.43712 0
M  V30 11328 C 1090.74 -4.27816 -4.72496 0
M  V30 11329 C 1088.43 -3.61906 -4.9241 0
M  V30 11330 C 1089.43 -4.57916 -5.06757 0
M  V30 11331 O 1089.12 -5.8215 -5.54397 0
M  V30 11332 H 1088.85 -0.206742 -0.64361 0
M  V30 11333 H 1091.4 -1.21311 -1.65749 0
M  V30 11334 H 1089.63 0.0703305 -3.86636 0
M  V30 11335 H 1091.32 -0.307425 -4.04734 0
M  V30 11336 H 1092.09 -2.78957 -3.96747 0
M  V30 11337 H 1087.97 -1.61454 -4.31803 0
M  V30 11338 H 1091.51 -5.0276 -4.83609 0
M  V30 11339 H 1087.41 -3.84356 -5.18595 0
M  V30 11340 H 1088.17 -5.84762 -5.72709 0
M  V30 11341 N 1090.84 1.42931 -0.663954 0
M  V30 11342 C 1092.08 2.01982 -0.182007 0
M  V30 11343 C 1092.42 1.52323 1.20463 0
M  V30 11344 O 1091.69 0.720834 1.80649 0
M  V30 11345 C 1091.97 3.59518 -0.204671 0
M  V30 11346 C 1091.83 4.19382 -1.62599 0
M  V30 11347 C 1093.15 4.37762 0.45308 0
M  V30 11348 H 1090.27 0.733892 -0.0676115 0
M  V30 11349 H 1092.91 1.70092 -0.84668 0
M  V30 11350 H 1091.06 3.86816 0.361295 0
M  V30 11351 H 1092.73 4.03076 -2.24337 0
M  V30 11352 H 1090.97 3.75623 -2.17001 0
M  V30 11353 H 1091.64 5.28496 -1.59362 0
M  V30 11354 H 1094.12 4.1609 -0.0285774 0
M  V30 11355 H 1093 5.47392 0.406538 0
M  V30 11356 H 1093.26 4.1482 1.52895 0
M  V30 11357 N 1092.32 0.406567 1.52266 0
M  V30 11358 C 1093.73 -0.063607 1.86592 0
M  V30 11359 C 1094.08 -1.4466 1.32544 0
M  V30 11360 O 1093.2 -2.05971 0.663692 0
M  V30 11361 C 1093.8 -0.122198 3.3858 0
M  V30 11362 C 1092.36 -0.536701 3.72554 0
M  V30 11363 C 1091.5 0.290422 2.75775 0
M  V30 11364 H 1094.45 0.623738 1.45929 0
M  V30 11365 H 1094.48 -0.937964 3.68758 0
M  V30 11366 H 1093.99 0.884495 3.77887 0
M  V30 11367 H 1092.09 -1.55013 3.38824 0
M  V30 11368 H 1092.2 -0.282867 4.78264 0
M  V30 11369 H 1090.57 -0.246864 2.53501 0
M  V30 11370 H 1091.35 1.29541 3.17921 0
M  V30 11371 N 1093.79 -1.57004 0.136909 0
M  V30 11372 C 1095.21 -1.82675 -0.385577 0
M  V30 11373 C 1095.56 -1.05508 -1.65416 0
M  V30 11374 O 1094.68 -0.297207 -2.14349 0
M  V30 11375 C 1095.28 -3.31356 -0.706326 0
M  V30 11376 C 1093.84 -3.57644 -1.17337 0
M  V30 11377 C 1092.98 -2.7664 -0.191239 0
M  V30 11378 H 1095.93 -1.54522 0.36177 0
M  V30 11379 H 1095.95 -3.4696 -1.56201 0
M  V30 11380 H 1095.47 -3.87492 0.217147 0
M  V30 11381 H 1093.57 -3.06883 -2.11313 0
M  V30 11382 H 1093.68 -4.66152 -1.10632 0
M  V30 11383 H 1092.04 -2.45403 -0.681867 0
M  V30 11384 H 1092.83 -3.35543 0.725647 0
M  V30 11385 N 1095.27 0.136881 -1.57004 0
M  V30 11386 C 1096.52 0.8461 -1.83536 0
M  V30 11387 C 1096.84 1.81246 -0.71937 0
M  V30 11388 O 1096.11 1.94191 0.258161 0
M  V30 11389 H 1094.69 0.315446 -0.677128 0
M  V30 11390 H 1097.35 0.128469 -1.94476 0
M  V30 11391 H 1096.45 1.40221 -2.78827 0
M  V30 11392 N 1096.75 1.52266 0.40654 0
M  V30 11393 C 1097.71 1.75168 1.47814 0
M  V30 11394 C 1098.71 0.621575 1.48301 0
M  V30 11395 O 1099.9 0.889476 1.4978 0
M  V30 11396 C 1097.04 1.83642 2.87208 0
M  V30 11397 H 1098.23 2.70834 1.28798 0
M  V30 11398 H 1095.78 1.42722 0.637196 0
M  V30 11399 H 1096.52 0.898994 3.1159 0
M  V30 11400 H 1096.3 2.65801 2.88257 0
M  V30 11401 H 1097.79 2.03093 3.64888 0
M  V30 11402 N 1098.23 -0.663929 1.42933 0
M  V30 11403 C 1099.64 -1.24484 1.39143 0
M  V30 11404 C 1099.99 -1.95993 0.0901142 0
M  V30 11405 O 1099.12 -2.00636 -0.810812 0
M  V30 11406 C 1099.71 -2.26402 2.52047 0
M  V30 11407 C 1098.27 -2.79995 2.51555 0
M  V30 11408 C 1097.42 -1.54475 2.30289 0
M  V30 11409 H 1100.37 -0.456619 1.51989 0
M  V30 11410 H 1100.39 -3.08361 2.22921 0
M  V30 11411 H 1099.9 -1.74328 3.46744 0
M  V30 11412 H 1098 -3.36161 1.60707 0
M  V30 11413 H 1098.11 -3.2827 3.48964 0
M  V30 11414 H 1096.48 -1.81437 1.78753 0
M  V30 11415 H 1097.26 -1.04351 3.27056 0
M  V30 11416 N 1099.71 -1.29285 -0.901281 0
M  V30 11417 C 1100.95 -1.17339 -1.65407 0
M  V30 11418 C 1101.29 0.274834 -1.92245 0
M  V30 11419 O 1100.56 1.19865 -1.53176 0
M  V30 11420 C 1100.84 -1.98547 -3.00418 0
M  V30 11421 C 1100.7 -3.51501 -2.80655 0
M  V30 11422 C 1102.02 -1.81062 -4.01129 0
M  V30 11423 H 1099.13 -0.427624 -0.600255 0
M  V30 11424 H 1101.78 -1.58741 -1.0441 0
M  V30 11425 H 1099.93 -1.63366 -3.52482 0
M  V30 11426 H 1101.6 -3.96655 -2.35505 0
M  V30 11427 H 1099.84 -3.76504 -2.15469 0
M  V30 11428 H 1100.51 -4.03593 -3.76585 0
M  V30 11429 H 1102.99 -2.11788 -3.58169 0
M  V30 11430 H 1101.86 -2.40235 -4.93536 0
M  V30 11431 H 1102.13 -0.765388 -4.35424 0
M  V30 11432 N 1101.18 1.11143 -1.11736 0
M  V30 11433 C 1102.6 1.64462 -0.883693 0
M  V30 11434 C 1102.95 1.87324 0.583448 0
M  V30 11435 O 1102.07 1.60975 1.44623 0
M  V30 11436 C 1102.67 2.98765 -1.59764 0
M  V30 11437 C 1101.23 3.4898 -1.41032 0
M  V30 11438 C 1100.37 2.23729 -1.63831 0
M  V30 11439 H 1103.32 0.947415 -1.27317 0
M  V30 11440 H 1103.34 3.65885 -1.04443 0
M  V30 11441 H 1102.86 2.82094 -2.66542 0
M  V30 11442 H 1100.96 3.7081 -0.364781 0
M  V30 11443 H 1101.07 4.27571 -2.16148 0
M  V30 11444 H 1099.43 2.31507 -1.06191 0
M  V30 11445 H 1100.22 2.09597 -2.7189 0
M  V30 11446 N 1102.66 0.908147 1.28804 0
M  V30 11447 C 1103.57 0.397167 2.31214 0
M  V30 11448 C 1104.59 -0.512352 1.66286 0
M  V30 11449 O 1105.76 -0.399893 1.9739 0
M  V30 11450 C 1102.83 -0.359522 3.44831 0
M  V30 11451 C 1101.89 0.582539 4.25329 0
M  V30 11452 C 1101.12 -0.138133 5.33521 0
M  V30 11453 O 1101.35 -1.36076 5.53931 0
M  V30 11454 O 1100.28 0.523682 5.99618 0
M  V30 11455 H 1104.11 1.247 2.76918 0
M  V30 11456 H 1101.69 0.672766 1.33395 0
M  V30 11457 H 1103.57 -0.787098 4.13984 0
M  V30 11458 H 1102.25 -1.18528 3.01219 0
M  V30 11459 H 1101.16 1.0594 3.58786 0
M  V30 11460 H 1102.49 1.37495 4.72605 0
M  V30 11461 N 1104.14 -1.42577 0.671525 0
M  V30 11462 C 1105.09 -2.30798 -0.00883676 0
M  V30 11463 C 1106.06 -1.4578 -0.796076 0
M  V30 11464 O 1107.24 -1.74617 -0.768987 0
M  V30 11465 C 1104.38 -3.31581 -0.956452 0
M  V30 11466 C 1103.5 -4.31691 -0.163381 0
M  V30 11467 C 1102.63 -5.19549 -1.10645 0
M  V30 11468 C 1101.67 -6.1134 -0.304876 0
M  V30 11469 N 1100.81 -6.91761 -1.20048 0
M  V30 11470 H 1105.65 -2.88426 0.749301 0
M  V30 11471 H 1103.18 -1.42074 0.381251 0
M  V30 11472 H 1105.14 -3.88539 -1.51966 0
M  V30 11473 H 1103.77 -2.75561 -1.68126 0
M  V30 11474 H 1102.82 -3.76879 0.516396 0
M  V30 11475 H 1104.14 -4.96683 0.459099 0
M  V30 11476 H 1103.29 -5.81223 -1.73969 0
M  V30 11477 H 1102.03 -4.54726 -1.76282 0
M  V30 11478 H 1101.03 -5.48738 0.341597 0
M  V30 11479 H 1102.26 -6.78211 0.347352 0
M  V30 11480 H 1100.2 -6.2957 -1.84331 0
M  V30 11481 H 1100.12 -7.53345 -0.633003 0
M  V30 11482 H 1101.39 -7.57924 -1.82129 0
M  V30 11483 N 1105.62 -0.414636 -1.52048 0
M  V30 11484 C 1106.86 0.151945 -2.02832 0
M  V30 11485 C 1107.22 1.42337 -1.29452 0
M  V30 11486 O 1106.51 1.87509 -0.39383 0
M  V30 11487 C 1106.71 0.448327 -3.54577 0
M  V30 11488 C 1106.54 -0.792827 -4.42656 0
M  V30 11489 C 1105.31 -1.31966 -4.87763 0
M  V30 11490 C 1107.5 -1.67252 -4.86345 0
M  V30 11491 N 1105.49 -2.51572 -5.59986 0
M  V30 11492 C 1106.86 -2.71479 -5.57404 0
M  V30 11493 C 1108.91 -1.68963 -4.68354 0
M  V30 11494 C 1107.61 -3.77334 -6.12382 0
M  V30 11495 C 1109.64 -2.7374 -5.24233 0
M  V30 11496 C 1109 -3.76687 -5.95219 0
M  V30 11497 H 1105.1 0.0170247 -0.781815 0
M  V30 11498 H 1107.69 -0.570219 -1.86163 0
M  V30 11499 H 1105.86 1.13953 -3.71307 0
M  V30 11500 H 1107.59 1.00427 -3.92041 0
M  V30 11501 H 1104.34 -0.876885 -4.65411 0
M  V30 11502 H 1104.77 -3.12161 -6.00737 0
M  V30 11503 H 1109.41 -0.907103 -4.12955 0
M  V30 11504 H 1107.13 -4.56439 -6.6685 0
M  V30 11505 H 1110.71 -2.75978 -5.12179 0
M  V30 11506 H 1109.59 -4.56431 -6.37684 0
M  V30 11507 N 1107.1 1.56929 -0.145233 0
M  V30 11508 C 1108.37 1.8767 0.551288 0
M  V30 11509 C 1108.75 1.05089 1.83083 0
M  V30 11510 O 1108.1 0.137201 2.28088 0
M  V30 11511 C 1108.31 3.39268 0.818445 0
M  V30 11512 C 1109.66 4.08447 1.16 0
M  V30 11513 O 1110.68 3.44436 0.907857 0
M  V30 11514 O 1109.54 5.21488 1.63441 0
M  V30 11515 H 1106.64 0.777788 0.281024 0
M  V30 11516 H 1109.18 1.68724 -0.181712 0
M  V30 11517 H 1107.95 3.91203 -0.0871897 0
M  V30 11518 H 1107.58 3.63735 1.60569 0
M  V30 11519 N 1108.58 -0.128553 1.57075 0
M  V30 11520 C 1109.85 -0.867766 1.75297 0
M  V30 11521 C 1110.23 -1.98508 0.718176 0
M  V30 11522 O 1109.58 -2.2702 -0.259616 0
M  V30 11523 C 1109.79 -1.39326 3.19983 0
M  V30 11524 C 1111.14 -1.84939 3.82208 0
M  V30 11525 O 1112.16 -1.49027 3.23527 0
M  V30 11526 O 1111.02 -2.51227 4.85332 0
M  V30 11527 H 1108.12 -0.411393 0.717415 0
M  V30 11528 H 1110.66 -0.113038 1.69323 0
M  V30 11529 H 1109.43 -0.591172 3.86809 0
M  V30 11530 H 1109.06 -2.21097 3.30457 0
M  V30 11531 N 1110.05 -1.5248 -0.398459 0
M  V30 11532 C 1111.28 -1.70677 -1.16417 0
M  V30 11533 C 1111.69 -0.420629 -1.84465 0
M  V30 11534 O 1111.03 0.614013 -1.73135 0
M  V30 11535 C 1111.1 -2.79401 -2.2622 0
M  V30 11536 C 1110.76 -4.20817 -1.78218 0
M  V30 11537 C 1111.76 -5.04298 -1.26409 0
M  V30 11538 C 1109.44 -4.67098 -1.84728 0
M  V30 11539 C 1111.44 -6.32136 -0.817461 0
M  V30 11540 C 1109.12 -5.94923 -1.39676 0
M  V30 11541 C 1110.12 -6.77272 -0.882716 0
M  V30 11542 O 1109.81 -8.02702 -0.438739 0
M  V30 11543 H 1109.54 -0.57503 -0.355411 0
M  V30 11544 H 1112.1 -1.99868 -0.473471 0
M  V30 11545 H 1110.33 -2.4561 -2.98685 0
M  V30 11546 H 1112.01 -2.86093 -2.87933 0
M  V30 11547 H 1112.78 -4.6973 -1.20744 0
M  V30 11548 H 1108.66 -4.03097 -2.23682 0
M  V30 11549 H 1112.2 -6.96361 -0.415548 0
M  V30 11550 H 1108.1 -6.28998 -1.45024 0
M  V30 11551 H 1108.87 -8.16575 -0.561079 0
M  V30 11552 N 1111.53 0.65634 -1.43283 0
M  V30 11553 C 1112.76 1.44408 -1.48168 0
M  V30 11554 C 1113.17 1.88542 -0.0986016 0
M  V30 11555 O 1112.53 1.59298 0.890527 0
M  V30 11556 C 1112.58 2.68111 -2.42484 0
M  V30 11557 O 1112.3 2.25824 -3.75413 0
M  V30 11558 C 1113.8 3.61499 -2.56579 0
M  V30 11559 H 1111.02 0.443731 -0.503333 0
M  V30 11560 H 1113.57 0.804917 -1.87993 0
M  V30 11561 H 1111.72 3.28175 -2.05863 0
M  V30 11562 H 1112.14 3.05839 -4.26102 0
M  V30 11563 H 1113.61 4.44972 -3.26655 0
M  V30 11564 H 1114.09 4.08639 -1.60969 0
M  V30 11565 H 1114.69 3.07319 -2.93998 0
M  V30 11566 N 1113.01 1.29761 0.894412 0
M  V30 11567 C 1114.26 1.19224 1.64794 0
M  V30 11568 C 1114.61 -0.252648 1.90734 0
M  V30 11569 O 1113.9 -1.17881 1.51045 0
M  V30 11570 C 1114.1 1.94458 2.99868 0
M  V30 11571 C 1113.93 3.46115 2.87114 0
M  V30 11572 C 1112.7 4.15469 2.87599 0
M  V30 11573 C 1114.89 4.41518 2.63754 0
M  V30 11574 N 1112.88 5.53453 2.65637 0
M  V30 11575 C 1114.25 5.66999 2.50823 0
M  V30 11576 C 1116.3 4.31221 2.48903 0
M  V30 11577 C 1115.01 6.83351 2.24554 0
M  V30 11578 C 1117.03 5.4733 2.24018 0
M  V30 11579 C 1116.39 6.71786 2.11856 0
M  V30 11580 H 1112.49 0.491294 0.608403 0
M  V30 11581 H 1115.08 1.63656 1.05474 0
M  V30 11582 H 1113.25 1.52432 3.57238 0
M  V30 11583 H 1114.98 1.76142 3.64357 0
M  V30 11584 H 1111.73 3.67217 2.9908 0
M  V30 11585 H 1112.16 6.26037 2.57695 0
M  V30 11586 H 1116.8 3.35689 2.57046 0
M  V30 11587 H 1114.52 7.78933 2.15149 0
M  V30 11588 H 1118.1 5.41265 2.13363 0
M  V30 11589 H 1116.98 7.60113 1.92867 0
M  V30 11590 N 1114.49 -1.10549 1.12324 0
M  V30 11591 C 1115.42 -2.16657 0.747826 0
M  V30 11592 C 1116.43 -1.61238 -0.224981 0
M  V30 11593 O 1117.62 -1.78499 -0.00649408 0
M  V30 11594 C 1114.72 -3.38791 0.0859421 0
M  V30 11595 C 1113.89 -4.23655 1.08792 0
M  V30 11596 C 1112.95 -5.24239 0.453871 0
M  V30 11597 O 1111.98 -5.58262 1.11052 0
M  V30 11598 N 1113.18 -5.75246 -0.779215 0
M  V30 11599 H 1115.95 -2.49472 1.66084 0
M  V30 11600 H 1113.51 -1.26157 1.01469 0
M  V30 11601 H 1115.5 -4.03182 -0.350186 0
M  V30 11602 H 1114.07 -3.03961 -0.729807 0
M  V30 11603 H 1113.29 -3.55578 1.70171 0
M  V30 11604 H 1114.58 -4.77187 1.76549 0
M  V30 11605 H 1113.98 -5.49802 -1.3317 0
M  V30 11606 H 1112.53 -6.41428 -1.15818 0
M  V30 11607 N 1115.97 -0.914965 -1.28321 0
M  V30 11608 C 1117.19 -0.564654 -1.99046 0
M  V30 11609 C 1117.61 0.854345 -1.68364 0
M  V30 11610 O 1116.97 1.56605 -0.937068 0
M  V30 11611 C 1117.02 -0.765663 -3.53299 0
M  V30 11612 O 1116.74 -2.12883 -3.829 0
M  V30 11613 C 1118.24 -0.422347 -4.41283 0
M  V30 11614 H 1115.46 -0.215158 -0.635569 0
M  V30 11615 H 1118 -1.2285 -1.63487 0
M  V30 11616 H 1116.16 -0.148795 -3.87114 0
M  V30 11617 H 1116.57 -2.1694 -4.77533 0
M  V30 11618 H 1118.05 -0.613757 -5.48577 0
M  V30 11619 H 1118.52 0.641484 -4.3449 0
M  V30 11620 H 1119.13 -1.01681 -4.12966 0
M  V30 11621 N 1117.44 1.42219 -0.679077 0
M  V30 11622 C 1118.67 2.06333 -0.210097 0
M  V30 11623 C 1119.09 1.50703 1.12562 0
M  V30 11624 O 1118.45 0.627241 1.70104 0
M  V30 11625 C 1118.5 3.60243 -0.160322 0
M  V30 11626 O 1117.6 4.03122 0.869872 0
M  V30 11627 H 1116.94 0.655362 -0.106754 0
M  V30 11628 H 1119.47 1.82278 -0.929294 0
M  V30 11629 H 1119.48 4.07997 0.014384 0
M  V30 11630 H 1118.16 4.00106 -1.13526 0
M  V30 11631 H 1116.74 3.66907 0.66586 0
M  V30 11632 N 1118.92 0.422693 1.51826 0
M  V30 11633 C 1120.15 -0.15017 2.06856 0
M  V30 11634 C 1120.57 -1.36946 1.28948 0
M  V30 11635 O 1119.93 -1.78393 0.32338 0
M  V30 11636 C 1119.98 -0.465563 3.57582 0
M  V30 11637 O 1119.08 -1.55442 3.81984 0
M  V30 11638 H 1118.42 -0.00827931 0.663948 0
M  V30 11639 H 1120.95 0.599806 1.95611 0
M  V30 11640 H 1120.96 -0.720279 4.01592 0
M  V30 11641 H 1119.64 0.425679 4.13716 0
M  V30 11642 H 1118.21 -1.29081 3.49846 0
M  V30 11643 N 1120.4 -1.5685 0.153553 0
M  V30 11644 C 1121.35 -2.18385 -0.800667 0
M  V30 11645 C 1122.34 -1.14272 -1.25053 0
M  V30 11646 O 1123.55 -1.32509 -1.21825 0
M  V30 11647 H 1119.92 -0.699352 -0.276425 0
M  V30 11648 H 1121.89 -2.97287 -0.257535 0
M  V30 11649 C 1120.64 -2.82497 -2.02708 0
M  V30 11650 H 1119.97 -3.62328 -1.68992 0
M  V30 11651 H 1121.41 -3.29047 -2.67403 0
M  V30 11652 C 1119.86 -1.81343 -2.8393 0
M  V30 11653 O 1120.39 -1.28793 -3.80493 0
M  V30 11654 N 1118.6 -1.50499 -2.48593 0
M  V30 11655 H 1118.15 -1.93425 -1.70131 0
M  V30 11656 H 1118.11 -0.830672 -3.03228 0
M  V30 11657 N 1121.88 0.120221 -1.57141 0
M  V30 11658 C 1123.29 0.677497 -1.73974 0
M  V30 11659 C 1123.64 1.80371 -0.772055 0
M  V30 11660 O 1122.76 2.16329 0.0553062 0
M  V30 11661 C 1123.36 1.23575 -3.1546 0
M  V30 11662 C 1121.92 1.73933 -3.33803 0
M  V30 11663 C 1121.07 0.638542 -2.69848 0
M  V30 11664 H 1124.02 -0.105685 -1.58348 0
M  V30 11665 H 1124.04 2.10542 -3.16942 0
M  V30 11666 H 1123.55 0.415851 -3.85866 0
M  V30 11667 H 1121.65 2.58404 -2.68437 0
M  V30 11668 H 1121.76 1.84961 -4.41957 0
M  V30 11669 H 1120.13 1.07185 -2.31049 0
M  V30 11670 H 1120.91 -0.170356 -3.42877 0
M  V30 11671 N 1123.36 1.52689 0.390367 0
M  V30 11672 C 1124.58 1.71839 1.16129 0
M  V30 11673 C 1125.01 0.435226 1.82996 0
M  V30 11674 O 1124.36 -0.60889 1.70769 0
M  V30 11675 C 1124.41 2.86784 2.18603 0
M  V30 11676 O 1123.52 2.53662 3.25161 0
M  V30 11677 H 1122.86 0.571455 0.338135 0
M  V30 11678 H 1125.39 1.99475 0.45508 0
M  V30 11679 H 1125.4 3.12239 2.62622 0
M  V30 11680 H 1124.07 3.79872 1.69322 0
M  V30 11681 H 1122.65 2.38942 2.86289 0
M  V30 11682 N 1124.83 -0.648732 1.43629 0
M  V30 11683 C 1126.08 -1.40446 1.44768 0
M  V30 11684 C 1126.4 -1.95447 0.0773445 0
M  V30 11685 O 1127.6 -2.71479 -0.0337942 0
M  V30 11686 C 1126.06 -2.54194 2.54781 0
M  V30 11687 C 1125.67 -2.05781 3.97942 0
M  V30 11688 C 1127.41 -3.31529 2.65121 0
M  V30 11689 C 1125.32 -3.16767 4.99412 0
M  V30 11690 H 1124.25 -0.527717 0.538545 0
M  V30 11691 H 1126.9 -0.699756 1.69634 0
M  V30 11692 H 1125.28 -3.27156 2.23125 0
M  V30 11693 H 1126.45 -1.398 4.39081 0
M  V30 11694 H 1124.77 -1.41312 3.91688 0
M  V30 11695 H 1127.37 -4.14233 3.38105 0
M  V30 11696 H 1127.71 -3.79855 1.70341 0
M  V30 11697 H 1128.24 -2.65649 2.961 0
M  V30 11698 H 1124.98 -2.73404 5.9576 0
M  V30 11699 H 1124.5 -3.81445 4.62882 0
M  V30 11700 H 1126.18 -3.81827 5.22319 0
M  V30 11701 N 1126.31 -1.30234 -0.887518 0
M  V30 11702 C 1127.56 -1.1891 -1.6391 0
M  V30 11703 C 1127.89 0.256749 -1.92798 0
M  V30 11704 O 1127.14 1.20047 -1.54555 0
M  V30 11705 C 1127.44 -1.96046 -2.98832 0
M  V30 11706 C 1127.11 -3.45683 -2.89507 0
M  V30 11707 C 1125.77 -3.86489 -2.8667 0
M  V30 11708 C 1128.12 -4.40983 -2.7782 0
M  V30 11709 C 1125.45 -5.2089 -2.69982 0
M  V30 11710 C 1127.8 -5.75489 -2.6267 0
M  V30 11711 C 1126.47 -6.15537 -2.58207 0
M  V30 11712 H 1125.74 -0.435123 -0.599791 0
M  V30 11713 H 1128.38 -1.61308 -1.03209 0
M  V30 11714 H 1126.69 -1.46275 -3.6347 0
M  V30 11715 H 1128.38 -1.84678 -3.55942 0
M  V30 11716 H 1124.97 -3.13255 -2.92523 0
M  V30 11717 H 1129.16 -4.10401 -2.79079 0
M  V30 11718 H 1124.41 -5.51014 -2.6494 0
M  V30 11719 H 1128.59 -6.48973 -2.526 0
M  V30 11720 H 1126.22 -7.19627 -2.45034 0
M  V30 11721 N 1127.79 1.09952 -1.12909 0
M  V30 11722 C 1129.02 1.8552 -0.909163 0
M  V30 11723 C 1129.43 1.81173 0.545253 0
M  V30 11724 O 1128.77 1.20223 1.38896 0
M  V30 11725 C 1128.83 3.34693 -1.31228 0
M  V30 11726 C 1128.5 3.62794 -2.77902 0
M  V30 11727 C 1129.49 3.58973 -3.76078 0
M  V30 11728 C 1127.18 3.91311 -3.1493 0
M  V30 11729 C 1129.17 3.83271 -5.09296 0
M  V30 11730 C 1126.86 4.15265 -4.48328 0
M  V30 11731 C 1127.86 4.11236 -5.4532 0
M  V30 11732 O 1127.55 4.34576 -6.76313 0
M  V30 11733 H 1127.28 0.59303 -0.324486 0
M  V30 11734 H 1129.83 1.39878 -1.5041 0
M  V30 11735 H 1128.06 3.81016 -0.660573 0
M  V30 11736 H 1129.75 3.9166 -1.06569 0
M  V30 11737 H 1130.52 3.36974 -3.48817 0
M  V30 11738 H 1126.4 3.93575 -2.40041 0
M  V30 11739 H 1129.94 3.80041 -5.84991 0
M  V30 11740 H 1125.84 4.36743 -4.75316 0
M  V30 11741 H 1126.61 4.52065 -6.82334 0
M  V30 11742 N 1129.27 0.921757 1.27833 0
M  V30 11743 C 1130.5 0.575202 1.98744 0
M  V30 11744 C 1130.91 -0.845405 1.68815 0
M  V30 11745 O 1130.27 -1.56106 0.94536 0
M  V30 11746 C 1130.32 0.784389 3.52888 0
M  V30 11747 O 1130.04 2.1491 3.81766 0
M  V30 11748 C 1131.54 0.445744 4.41053 0
M  V30 11749 H 1128.76 0.218525 0.634419 0
M  V30 11750 H 1131.31 1.23715 1.62834 0
M  V30 11751 H 1129.46 0.169323 3.8703 0
M  V30 11752 H 1129.87 2.19469 4.76375 0
M  V30 11753 H 1131.35 0.64284 5.48244 0
M  V30 11754 H 1131.83 -0.618433 4.34824 0
M  V30 11755 H 1132.43 1.03869 4.12421 0
M  V30 11756 N 1130.75 -1.41857 0.686609 0
M  V30 11757 C 1131.98 -2.05401 0.222238 0
M  V30 11758 C 1132.38 -1.51731 -1.13023 0
M  V30 11759 O 1131.73 -0.656701 -1.71561 0
M  V30 11760 C 1131.79 -3.59381 0.0926608 0
M  V30 11761 C 1131.45 -4.35801 1.37573 0
M  V30 11762 C 1132.45 -4.65678 2.31171 0
M  V30 11763 C 1130.14 -4.75233 1.62661 0
M  V30 11764 C 1132.13 -5.33936 3.48125 0
M  V30 11765 C 1129.82 -5.43229 2.79902 0
M  V30 11766 C 1130.81 -5.72507 3.72458 0
M  V30 11767 O 1130.5 -6.39106 4.87646 0
M  V30 11768 H 1130.23 -0.668126 0.102876 0
M  V30 11769 H 1132.79 -1.82775 0.93714 0
M  V30 11770 H 1131.02 -3.80711 -0.67793 0
M  V30 11771 H 1132.71 -4.04529 -0.333364 0
M  V30 11772 H 1133.47 -4.35704 2.13042 0
M  V30 11773 H 1129.35 -4.51831 0.914862 0
M  V30 11774 H 1132.9 -5.56706 4.20386 0
M  V30 11775 H 1128.79 -5.72621 2.97951 0
M  V30 11776 H 1129.56 -6.576 4.87344 0
M  V30 11777 N 1132.22 -0.430739 -1.51599 0
M  V30 11778 C 1133.47 0.137657 -2.01631 0
M  V30 11779 C 1133.79 1.43787 -1.31721 0
M  V30 11780 O 1133.06 1.90668 -0.449717 0
M  V30 11781 H 1131.64 0.0538611 -0.745056 0
M  V30 11782 H 1134.31 -0.571935 -1.86319 0
M  V30 11783 H 1133.4 0.318305 -3.10473 0
M  V30 11784 N 1133.7 1.56767 -0.161869 0
M  V30 11785 C 1134.93 2.00964 0.492027 0
M  V30 11786 C 1135.35 1.04206 1.57437 0
M  V30 11787 O 1134.7 0.0413998 1.82453 0
M  V30 11788 C 1134.75 3.4502 1.07904 0
M  V30 11789 O 1134.47 4.38082 0.0399085 0
M  V30 11790 C 1135.98 4.04572 1.81209 0
M  V30 11791 H 1133.2 0.658911 0.126797 0
M  V30 11792 H 1135.74 2.0283 -0.260824 0
M  V30 11793 H 1133.89 3.43959 1.78243 0
M  V30 11794 H 1134.31 5.22372 0.471985 0
M  V30 11795 H 1135.78 5.07321 2.17554 0
M  V30 11796 H 1136.26 3.46126 2.70359 0
M  V30 11797 H 1136.87 4.09307 1.15534 0
M  V30 11798 N 1135.18 -0.111886 1.57202 0
M  V30 11799 C 1136.14 -1.12101 1.99915 0
M  V30 11800 C 1137.14 -1.33906 0.890272 0
M  V30 11801 O 1138.33 -1.30303 1.15615 0
M  V30 11802 C 1135.47 -2.47392 2.34543 0
M  V30 11803 H 1136.66 -0.753736 2.90274 0
M  V30 11804 H 1134.21 -0.35641 1.52182 0
M  V30 11805 H 1134.95 -2.89026 1.47086 0
M  V30 11806 H 1134.73 -2.32917 3.15423 0
M  V30 11807 H 1136.22 -3.20004 2.68304 0
M  V30 11808 N 1136.66 -1.52894 -0.382264 0
M  V30 11809 C 1138.07 -1.60135 -0.959887 0
M  V30 11810 C 1138.42 -0.458363 -1.90771 0
M  V30 11811 O 1137.55 0.417614 -2.12332 0
M  V30 11812 C 1138.14 -2.90243 -1.74769 0
M  V30 11813 C 1136.7 -2.99874 -2.27491 0
M  V30 11814 C 1135.85 -2.55302 -1.0824 0
M  V30 11815 H 1138.8 -1.57875 -0.161589 0
M  V30 11816 H 1138.82 -2.77108 -2.60751 0
M  V30 11817 H 1138.33 -3.73412 -1.0576 0
M  V30 11818 H 1136.43 -2.21258 -2.99793 0
M  V30 11819 H 1136.54 -4.04643 -2.56516 0
M  V30 11820 H 1134.91 -2.09781 -1.44444 0
M  V30 11821 H 1135.69 -3.40872 -0.407553 0
M  V30 11822 N 1138.14 0.641106 -1.43971 0
M  V30 11823 C 1139.1 1.73539 -1.49723 0
M  V30 11824 C 1140.1 1.56235 -0.380438 0
M  V30 11825 O 1141.29 1.61912 -0.642673 0
M  V30 11826 C 1138.42 3.1253 -1.36153 0
M  V30 11827 H 1139.62 1.69816 -2.47189 0
M  V30 11828 H 1137.17 0.853867 -1.30915 0
M  V30 11829 H 1137.9 3.21856 -0.39742 0
M  V30 11830 H 1137.69 3.26496 -2.17124 0
M  V30 11831 H 1139.18 3.92303 -1.43138 0
M  V30 11832 N 1139.62 1.30703 0.880598 0
M  V30 11833 C 1141.03 1.09129 1.1646 0
M  V30 11834 C 1141.23 -0.145131 2.00977 0
M  V30 11835 O 1140.29 -0.837502 2.38206 0
M  V30 11836 C 1141.6 2.35717 1.86703 0
M  V30 11837 C 1143.15 2.41224 1.9945 0
M  V30 11838 C 1143.62 3.67665 2.73105 0
M  V30 11839 N 1145.11 3.68498 2.80648 0
M  V30 11840 C 1145.85 4.63024 3.38225 0
M  V30 11841 N 1145.35 5.67898 3.96817 0
M  V30 11842 N 1147.14 4.50561 3.36082 0
M  V30 11843 H 1139.29 2.10019 0.317164 0
M  V30 11844 H 1141.55 0.925994 0.203072 0
M  V30 11845 H 1141.26 3.2597 1.32046 0
M  V30 11846 H 1141.13 2.447 2.87057 0
M  V30 11847 H 1143.52 1.51446 2.53275 0
M  V30 11848 H 1143.6 2.36212 0.981704 0
M  V30 11849 H 1143.24 4.57803 2.19951 0
M  V30 11850 H 1143.17 3.69939 3.7477 0
M  V30 11851 H 1145.67 2.92681 2.39053 0
M  V30 11852 H 1145.98 6.3612 4.3883 0
M  V30 11853 H 1144.32 5.71685 3.95223 0
M  V30 11854 H 1147.51 3.67811 2.89539 0
M  V30 11855 H 1147.69 5.24408 3.80657 0
M  V30 11856 N 1141.09 -1.09351 1.1349 0
M  V30 11857 C 1142.34 -1.80915 0.89177 0
M  V30 11858 C 1142.66 -1.86688 -0.5837 0
M  V30 11859 O 1143.86 -2.54568 -0.943788 0
M  V30 11860 C 1142.32 -3.25009 1.54587 0
M  V30 11861 C 1141.93 -3.27501 3.05691 0
M  V30 11862 C 1143.67 -4.01323 1.38346 0
M  V30 11863 C 1141.58 -4.66123 3.63983 0
M  V30 11864 H 1140.51 -0.677961 0.329978 0
M  V30 11865 H 1143.16 -1.22893 1.3627 0
M  V30 11866 H 1141.54 -3.83098 1.0026 0
M  V30 11867 H 1142.71 -2.79174 3.66604 0
M  V30 11868 H 1141.03 -2.64677 3.21457 0
M  V30 11869 H 1143.63 -5.03739 1.79307 0
M  V30 11870 H 1143.97 -4.15003 0.328404 0
M  V30 11871 H 1144.5 -3.49679 1.89656 0
M  V30 11872 H 1141.24 -4.57646 4.69298 0
M  V30 11873 H 1140.76 -5.14772 3.07848 0
M  V30 11874 H 1142.44 -5.35097 3.63703 0
M  V30 11875 N 1142.57 -0.928524 -1.27343 0
M  V30 11876 C 1143.8 -0.58516 -1.98974 0
M  V30 11877 C 1144.22 0.829964 -1.68799 0
M  V30 11878 O 1143.58 1.55705 -0.928738 0
M  V30 11879 C 1143.63 -0.818662 -3.51184 0
M  V30 11880 O 1142.73 0.115355 -4.12239 0
M  V30 11881 H 1142.07 -0.225203 -0.624644 0
M  V30 11882 H 1144.6 -1.248 -1.6213 0
M  V30 11883 H 1144.61 -0.734554 -4.01333 0
M  V30 11884 H 1143.29 -1.8502 -3.72479 0
M  V30 11885 H 1141.86 -0.0187371 -3.72895 0
M  V30 11886 N 1144.05 1.41491 -0.694123 0
M  V30 11887 C 1145.3 2.0155 -0.224809 0
M  V30 11888 C 1145.63 1.54844 1.17205 0
M  V30 11889 O 1144.9 0.75899 1.7908 0
M  V30 11890 C 1145.19 3.59003 -0.280884 0
M  V30 11891 C 1145.04 4.15839 -1.71458 0
M  V30 11892 C 1146.36 4.38624 0.360122 0
M  V30 11893 H 1143.48 0.732293 -0.0831632 0
M  V30 11894 H 1146.12 1.68258 -0.882569 0
M  V30 11895 H 1144.27 3.87496 0.279164 0
M  V30 11896 H 1145.94 3.98227 -2.32837 0
M  V30 11897 H 1144.18 3.70936 -2.2492 0
M  V30 11898 H 1144.86 5.24997 -1.70536 0
M  V30 11899 H 1147.33 4.15936 -0.11683 0
M  V30 11900 H 1146.21 5.48132 0.290337 0
M  V30 11901 H 1146.47 4.1797 1.44062 0
M  V30 11902 N 1145.53 0.438773 1.51369 0
M  V30 11903 C 1146.94 -0.0240139 1.86685 0
M  V30 11904 C 1147.29 -1.41816 1.35583 0
M  V30 11905 O 1146.41 -2.04517 0.707232 0
M  V30 11906 C 1147.01 -0.0503527 3.38763 0
M  V30 11907 C 1145.57 -0.457556 3.73609 0
M  V30 11908 C 1144.72 0.348852 2.75097 0
M  V30 11909 H 1147.67 0.654552 1.44573 0
M  V30 11910 H 1147.69 -0.859534 3.70665 0
M  V30 11911 H 1147.2 0.964451 3.75925 0
M  V30 11912 H 1145.3 -1.47791 3.42036 0
M  V30 11913 H 1145.41 -0.181357 4.78757 0
M  V30 11914 H 1143.78 -0.193037 2.53967 0
M  V30 11915 H 1144.56 1.36256 3.15102 0
M  V30 11916 N 1147.01 -1.56678 0.170181 0
M  V30 11917 C 1148.24 -2.00931 -0.480664 0
M  V30 11918 C 1148.64 -1.04947 -1.57425 0
M  V30 11919 O 1147.99 -0.042229 -1.83651 0
M  V30 11920 C 1148.05 -3.4161 -1.11996 0
M  V30 11921 C 1147.71 -4.5669 -0.168167 0
M  V30 11922 C 1148.71 -5.16273 0.613059 0
M  V30 11923 C 1146.39 -5.02259 -0.0643243 0
M  V30 11924 C 1148.39 -6.19852 1.48534 0
M  V30 11925 C 1146.08 -6.05687 0.811542 0
M  V30 11926 C 1147.07 -6.64355 1.58496 0
M  V30 11927 O 1146.76 -7.65778 2.44619 0
M  V30 11928 H 1146.49 -0.66386 -0.12754 0
M  V30 11929 H 1149.05 -2.03635 0.2687 0
M  V30 11930 H 1147.28 -3.35815 -1.91743 0
M  V30 11931 H 1148.97 -3.69823 -1.67289 0
M  V30 11932 H 1149.73 -4.81951 0.542999 0
M  V30 11933 H 1145.61 -4.56307 -0.656102 0
M  V30 11934 H 1149.16 -6.65572 2.08948 0
M  V30 11935 H 1145.05 -6.39435 0.88281 0
M  V30 11936 H 1145.82 -7.83096 2.38122 0
M  V30 11937 N 1148.48 0.103547 -1.57259 0
M  V30 11938 C 1149.73 0.809774 -1.85931 0
M  V30 11939 C 1150.06 1.78791 -0.758122 0
M  V30 11940 O 1149.34 1.93079 0.234682 0
M  V30 11941 C 1149.62 1.54601 -3.25224 0
M  V30 11942 C 1149.47 0.586439 -4.45961 0
M  V30 11943 C 1150.79 2.4986 -3.62296 0
M  V30 11944 H 1147.91 0.29293 -0.676285 0
M  V30 11945 H 1150.55 0.0736065 -1.89857 0
M  V30 11946 H 1148.7 2.17355 -3.22008 0
M  V30 11947 H 1150.38 -0.0334441 -4.61288 0
M  V30 11948 H 1148.62 -0.10085 -4.33683 0
M  V30 11949 H 1149.29 1.13855 -5.40131 0
M  V30 11950 H 1151.77 1.97203 -3.66402 0
M  V30 11951 H 1150.64 2.98396 -4.60707 0
M  V30 11952 H 1150.9 3.33233 -2.90531 0
M  V30 11953 N 1149.96 1.53094 0.37415 0
M  V30 11954 C 1151.21 1.68527 1.11548 0
M  V30 11955 C 1151.53 0.435253 1.9008 0
M  V30 11956 O 1150.8 -0.550594 1.88003 0
M  V30 11957 H 1149.38 0.621255 0.41479 0
M  V30 11958 H 1152.04 1.90258 0.422844 0
M  V30 11959 H 1151.14 2.54248 1.81009 0
M  V30 11960 N 1151.44 -0.633461 1.44309 0
M  V30 11961 C 1152.69 -1.38902 1.4625 0
M  V30 11962 C 1153 -1.95354 0.0980699 0
M  V30 11963 O 1154.21 -2.715 -0.0049983 0
M  V30 11964 C 1152.66 -2.51477 2.57463 0
M  V30 11965 C 1152.27 -2.01549 4.00103 0
M  V30 11966 C 1154.02 -3.28698 2.68622 0
M  V30 11967 C 1151.92 -3.11452 5.02744 0
M  V30 11968 H 1150.85 -0.521976 0.544112 0
M  V30 11969 H 1153.5 -0.681725 1.70367 0
M  V30 11970 H 1151.89 -3.24771 2.26582 0
M  V30 11971 H 1153.06 -1.35135 4.4054 0
M  V30 11972 H 1151.37 -1.3715 3.93165 0
M  V30 11973 H 1153.97 -4.10624 3.42479 0
M  V30 11974 H 1154.31 -3.78027 1.7436 0
M  V30 11975 H 1154.85 -2.62494 2.98901 0
M  V30 11976 H 1151.59 -2.6707 5.98627 0
M  V30 11977 H 1151.11 -3.76514 4.66902 0
M  V30 11978 H 1152.79 -3.76265 5.2634 0
M  V30 11979 N 1152.92 -1.31168 -0.873655 0
M  V30 11980 C 1154.14 -1.23728 -1.66452 0
M  V30 11981 C 1154.57 0.194869 -1.87088 0
M  V30 11982 O 1153.93 1.1397 -1.40998 0
M  V30 11983 C 1153.97 -1.98285 -3.0119 0
M  V30 11984 O 1153.08 -1.31767 -3.90783 0
M  V30 11985 H 1152.42 -0.427362 -0.508191 0
M  V30 11986 H 1154.95 -1.73176 -1.08955 0
M  V30 11987 H 1154.96 -2.0774 -3.51153 0
M  V30 11988 H 1153.63 -3.02437 -2.8549 0
M  V30 11989 H 1152.21 -1.3074 -3.4923 0
M  V30 11990 N 1154.4 1.08748 -1.14068 0
M  V30 11991 C 1155.34 2.17667 -0.819981 0
M  V30 11992 C 1156.34 1.68207 0.200654 0
M  V30 11993 O 1157.54 1.79909 0.0571014 0
M  V30 11994 H 1153.92 0.710129 -0.247427 0
M  V30 11995 H 1155.89 2.41944 -1.74659 0
M  V30 11996 C 1154.64 3.46315 -0.309985 0
M  V30 11997 H 1153.96 3.84748 -1.08669 0
M  V30 11998 H 1155.4 4.23818 -0.124094 0
M  V30 11999 C 1153.86 3.22762 0.965724 0
M  V30 12000 O 1154.39 3.46034 2.04018 0
M  V30 12001 N 1152.6 2.76326 0.899576 0
M  V30 12002 H 1152.14 2.57588 0.0250598 0
M  V30 12003 H 1152.1 2.60945 1.75371 0
M  V30 12004 N 1155.87 0.935264 1.26849 0
M  V30 12005 C 1156.84 0.44485 2.24842 0
M  V30 12006 C 1157.84 -0.440781 1.54641 0
M  V30 12007 O 1159.03 -0.240793 1.72528 0
M  V30 12008 C 1156.16 -0.359566 3.38998 0
M  V30 12009 H 1157.35 1.31074 2.6974 0
M  V30 12010 H 1154.91 0.716665 1.38901 0
M  V30 12011 H 1155.64 -1.24396 2.99493 0
M  V30 12012 H 1155.43 0.275529 3.91131 0
M  V30 12013 H 1156.92 -0.692804 4.11813 0
M  V30 12014 N 1157.35 -1.41121 0.701616 0
M  V30 12015 C 1158.58 -2.05154 0.244011 0
M  V30 12016 C 1158.99 -1.52922 -1.11407 0
M  V30 12017 O 1158.33 -0.67486 -1.70855 0
M  V30 12018 C 1158.4 -3.59262 0.130773 0
M  V30 12019 C 1158.06 -4.34318 1.42187 0
M  V30 12020 C 1159.06 -4.632 2.36097 0
M  V30 12021 C 1156.74 -4.73481 1.67693 0
M  V30 12022 C 1158.74 -5.30214 3.53768 0
M  V30 12023 C 1156.42 -5.4023 2.85648 0
M  V30 12024 C 1157.42 -5.68524 3.78509 0
M  V30 12025 O 1157.11 -6.33898 4.94397 0
M  V30 12026 H 1156.84 -0.666997 0.109957 0
M  V30 12027 H 1159.39 -1.81771 0.956473 0
M  V30 12028 H 1157.62 -3.81409 -0.637512 0
M  V30 12029 H 1159.31 -4.0486 -0.29044 0
M  V30 12030 H 1160.08 -4.3342 2.17652 0
M  V30 12031 H 1155.96 -4.50835 0.962733 0
M  V30 12032 H 1159.5 -5.52215 4.26267 0
M  V30 12033 H 1155.4 -5.69429 3.04008 0
M  V30 12034 H 1156.17 -6.52394 4.94292 0
M  V30 12035 N 1158.83 -0.446794 -1.51134 0
M  V30 12036 C 1160.06 0.117242 -2.07068 0
M  V30 12037 C 1160.48 1.34877 -1.3111 0
M  V30 12038 O 1159.84 1.77856 -0.35172 0
M  V30 12039 C 1159.89 0.408616 -3.58277 0
M  V30 12040 O 1158.99 1.49345 -3.84408 0
M  V30 12041 H 1158.33 -0.00228458 -0.663996 0
M  V30 12042 H 1160.86 -0.63085 -1.94632 0
M  V30 12043 H 1160.87 0.656298 -4.02687 0
M  V30 12044 H 1159.55 -0.491444 -4.12986 0
M  V30 12045 H 1158.12 1.23499 -3.51856 0
M  V30 12046 N 1160.31 1.56586 -0.178487 0
M  V30 12047 C 1161.26 2.1491 0.761432 0
M  V30 12048 C 1162.24 1.08528 1.18788 0
M  V30 12049 O 1163.43 1.34633 1.14904 0
M  V30 12050 C 1160.56 2.79902 1.98771 0
M  V30 12051 C 1159.65 3.93452 1.58293 0
M  V30 12052 N 1160.04 4.97942 0.888124 0
M  V30 12053 C 1158.34 4.04745 1.87343 0
M  V30 12054 C 1159.04 5.7762 0.68772 0
M  V30 12055 N 1158.02 5.2947 1.23136 0
M  V30 12056 H 1161.82 2.93063 0.221693 0
M  V30 12057 H 1159.33 1.62385 0.0219283 0
M  V30 12058 H 1161.33 3.20067 2.67138 0
M  V30 12059 H 1159.99 2.03232 2.53233 0
M  V30 12060 H 1161 5.1502 0.545387 0
M  V30 12061 H 1157.68 3.39186 2.43432 0
M  V30 12062 H 1159.07 6.71759 0.13775 0
M  V30 12063 N 1161.79 -0.095206 1.57312 0
M  V30 12064 C 1163.03 -0.798719 1.86083 0
M  V30 12065 C 1163.36 -1.78739 0.766991 0
M  V30 12066 O 1162.62 -1.9423 -0.239425 0
M  V30 12067 C 1162.92 -1.56244 3.21438 0
M  V30 12068 C 1162.58 -0.715903 4.4518 0
M  V30 12069 C 1161.24 -0.482537 4.78774 0
M  V30 12070 C 1163.6 -0.127404 5.21044 0
M  V30 12071 C 1160.92 0.349193 5.8566 0
M  V30 12072 C 1163.28 0.691649 6.28808 0
M  V30 12073 C 1161.94 0.935107 6.60918 0
M  V30 12074 H 1161.21 -0.292272 0.680924 0
M  V30 12075 H 1163.86 -0.0602105 1.91405 0
M  V30 12076 H 1162.16 -2.37251 3.118 0
M  V30 12077 H 1163.86 -2.11116 3.40927 0
M  V30 12078 H 1160.45 -0.907902 4.18874 0
M  V30 12079 H 1164.63 -0.29486 4.95423 0
M  V30 12080 H 1159.89 0.546797 6.0895 0
M  V30 12081 H 1164.06 1.15452 6.86763 0
M  V30 12082 H 1161.69 1.58139 7.4357 0
M  V30 12083 N 1163.26 -1.53291 -0.366026 0
M  V30 12084 C 1164.49 -1.73108 -1.1277 0
M  V30 12085 C 1164.9 -0.459662 -1.83531 0
M  V30 12086 O 1164.25 0.577151 -1.74398 0
M  V30 12087 C 1164.31 -2.84137 -2.20242 0
M  V30 12088 C 1163.97 -4.24503 -1.69252 0
M  V30 12089 C 1164.97 -5.06866 -1.15684 0
M  V30 12090 C 1162.65 -4.70912 -1.74778 0
M  V30 12091 C 1164.65 -6.33728 -0.683191 0
M  V30 12092 C 1162.33 -5.97752 -1.27025 0
M  V30 12093 C 1163.33 -6.78992 -0.738858 0
M  V30 12094 O 1163.02 -8.03452 -0.268375 0
M  V30 12095 H 1162.75 -0.582439 -0.343134 0
M  V30 12096 H 1165.31 -2.00828 -0.430969 0
M  V30 12097 H 1163.54 -2.5189 -2.93408 0
M  V30 12098 H 1165.23 -2.92136 -2.818 0
M  V30 12099 H 1165.99 -4.72185 -1.10753 0
M  V30 12100 H 1161.87 -4.07751 -2.15081 0
M  V30 12101 H 1165.41 -6.97086 -0.267746 0
M  V30 12102 H 1161.31 -6.31933 -1.31649 0
M  V30 12103 H 1162.08 -8.17581 -0.387745 0
M  V30 12104 N 1164.74 0.6258 -1.44643 0
M  V30 12105 C 1166.02 1.38439 -1.38181 0
M  V30 12106 C 1166.4 2.11056 -0.0431928 0
M  V30 12107 O 1165.75 2.06683 0.974383 0
M  V30 12108 C 1165.96 2.34639 -2.58352 0
M  V30 12109 C 1167.31 2.97807 -3.02649 0
M  V30 12110 O 1168.33 2.44963 -2.58595 0
M  V30 12111 O 1167.19 3.93682 -3.79048 0
M  V30 12112 H 1164.28 0.619852 -0.54746 0
M  V30 12113 H 1166.83 0.650409 -1.56741 0
M  V30 12114 H 1165.6 1.80116 -3.47382 0
M  V30 12115 H 1165.22 3.15446 -2.42032 0
M  V30 12116 N 1166.22 1.31629 0.866686 0
M  V30 12117 C 1167.47 1.21263 1.61678 0
M  V30 12118 C 1167.79 -0.228562 1.93656 0
M  V30 12119 O 1167.06 -1.15014 1.58583 0
M  V30 12120 H 1165.64 0.445817 0.59938 0
M  V30 12121 H 1168.3 1.64998 1.03739 0
M  V30 12122 H 1167.4 1.78669 2.55898 0
M  V30 12123 N 1167.7 -1.08142 1.14644 0
M  V30 12124 C 1168.95 -1.80582 0.916327 0
M  V30 12125 C 1169.27 -1.86355 -0.556969 0
M  V30 12126 O 1168.53 -1.33736 -1.42875 0
M  V30 12127 C 1168.83 -3.25962 1.46573 0
M  V30 12128 C 1168.49 -3.40302 2.95814 0
M  V30 12129 C 1167.16 -3.43922 3.36557 0
M  V30 12130 C 1169.51 -3.43758 3.91765 0
M  V30 12131 C 1166.84 -3.48594 4.7191 0
M  V30 12132 C 1169.19 -3.49965 5.26979 0
M  V30 12133 C 1167.85 -3.5186 5.67231 0
M  V30 12134 H 1167.12 -0.660795 0.335308 0
M  V30 12135 H 1169.77 -1.27309 1.43055 0
M  V30 12136 H 1168.07 -3.81961 0.872507 0
M  V30 12137 H 1169.77 -3.80571 1.2636 0
M  V30 12138 H 1166.36 -3.38176 2.63315 0
M  V30 12139 H 1170.55 -3.40189 3.61366 0
M  V30 12140 H 1165.8 -3.48355 5.02453 0
M  V30 12141 H 1169.98 -3.51585 6.01133 0
M  V30 12142 H 1167.6 -3.55233 6.72097 0
M  V30 12143 N 1169.18 -0.941978 -1.26351 0
M  V30 12144 C 1170.4 -0.606231 -1.98342 0
M  V30 12145 C 1170.83 0.812014 -1.6967 0
M  V30 12146 O 1170.19 1.54712 -0.9452 0
M  V30 12147 C 1170.23 -0.855864 -3.50296 0
M  V30 12148 O 1169.34 0.0716251 -4.12338 0
M  V30 12149 H 1168.68 -0.231815 -0.62222 0
M  V30 12150 H 1171.21 -1.26513 -1.60797 0
M  V30 12151 H 1171.22 -0.777079 -4.00531 0
M  V30 12152 H 1169.89 -1.8896 -3.70496 0
M  V30 12153 H 1168.47 -0.0582866 -3.72854 0
M  V30 12154 N 1170.66 1.40747 -0.709091 0
M  V30 12155 C 1171.6 2.30741 -0.0523584 0
M  V30 12156 C 1172.57 1.4784 0.757145 0
M  V30 12157 O 1173.76 1.76595 0.72242 0
M  V30 12158 C 1170.9 3.34 0.868203 0
M  V30 12159 C 1170.01 4.31972 0.0488686 0
M  V30 12160 C 1169.15 5.223 0.968311 0
M  V30 12161 C 1168.18 6.11934 0.142682 0
M  V30 12162 N 1167.32 6.947 1.01665 0
M  V30 12163 H 1172.16 2.86338 -0.825509 0
M  V30 12164 H 1169.7 1.41013 -0.418785 0
M  V30 12165 H 1171.66 3.92431 1.41611 0
M  V30 12166 H 1170.29 2.79921 1.6076 0
M  V30 12167 H 1169.34 3.75377 -0.616137 0
M  V30 12168 H 1170.65 4.95291 -0.590625 0
M  V30 12169 H 1169.8 5.85631 1.58498 0
M  V30 12170 H 1168.54 4.5924 1.64164 0
M  V30 12171 H 1167.55 5.47639 -0.486965 0
M  V30 12172 H 1168.77 6.77052 -0.527046 0
M  V30 12173 H 1166.72 6.34236 1.67575 0
M  V30 12174 H 1166.64 7.54759 0.433045 0
M  V30 12175 H 1167.9 7.62487 1.6197 0
M  V30 12176 N 1172.13 0.454803 1.50895 0
M  V30 12177 C 1173.38 -0.105927 2.02523 0
M  V30 12178 C 1173.71 -1.40825 1.33724 0
M  V30 12179 O 1172.99 -1.89038 0.457683 0
M  V30 12180 C 1173.27 -0.306635 3.58792 0
M  V30 12181 C 1173.12 1.01556 4.38185 0
M  V30 12182 C 1174.44 -1.06858 4.2693 0
M  V30 12183 H 1171.56 -0.0370232 0.736069 0
M  V30 12184 H 1174.2 0.597215 1.8037 0
M  V30 12185 H 1172.35 -0.905563 3.77799 0
M  V30 12186 H 1174.03 1.64981 4.30789 0
M  V30 12187 H 1172.27 1.61608 4.02574 0
M  V30 12188 H 1172.94 0.828959 5.4574 0
M  V30 12189 H 1175.42 -0.561086 4.123 0
M  V30 12190 H 1174.29 -1.1778 5.36115 0
M  V30 12191 H 1174.55 -2.10111 3.8898 0
M  V30 12192 N 1173.61 -1.56489 0.186789 0
M  V30 12193 C 1175.02 -1.83809 -0.327265 0
M  V30 12194 C 1175.37 -1.10718 -1.61976 0
M  V30 12195 O 1174.5 -0.36525 -2.13295 0
M  V30 12196 C 1175.09 -3.33435 -0.600551 0
M  V30 12197 C 1173.65 -3.61195 -1.059 0
M  V30 12198 C 1172.8 -2.77108 -0.103131 0
M  V30 12199 H 1175.75 -1.53292 0.410747 0
M  V30 12200 H 1175.77 -3.51754 -1.45084 0
M  V30 12201 H 1175.28 -3.86605 0.340315 0
M  V30 12202 H 1173.38 -3.13451 -2.01443 0
M  V30 12203 H 1173.5 -4.69435 -0.957458 0
M  V30 12204 H 1171.86 -2.47448 -0.603449 0
M  V30 12205 H 1172.64 -3.33065 0.832031 0
M  V30 12206 N 1175.09 0.086862 -1.5736 0
M  V30 12207 C 1176.02 1.10538 -2.05678 0
M  V30 12208 C 1177 1.41281 -0.947293 0
M  V30 12209 O 1178.19 1.51169 -1.21908 0
M  V30 12210 C 1175.32 2.42302 -2.48812 0
M  V30 12211 C 1174.27 2.25948 -3.63499 0
M  V30 12212 C 1173.6 3.62961 -3.92637 0
M  V30 12213 C 1174.9 1.69319 -4.94094 0
M  V30 12214 H 1176.59 0.703371 -2.91021 0
M  V30 12215 H 1174.14 0.336895 -1.40004 0
M  V30 12216 H 1176.09 3.13833 -2.81224 0
M  V30 12217 H 1174.81 2.84454 -1.60479 0
M  V30 12218 H 1173.47 1.5686 -3.31347 0
M  V30 12219 H 1173.12 4.02656 -3.01459 0
M  V30 12220 H 1172.82 3.52862 -4.69853 0
M  V30 12221 H 1174.34 4.35946 -4.27531 0
M  V30 12222 H 1175.76 2.30699 -5.24834 0
M  V30 12223 H 1174.15 1.69957 -5.7553 0
M  V30 12224 H 1175.22 0.653318 -4.80479 0
M  V30 12225 N 1176.57 1.53483 0.357892 0
M  V30 12226 C 1177.51 1.80463 1.43881 0
M  V30 12227 C 1178.48 0.649438 1.52877 0
M  V30 12228 O 1179.67 0.892409 1.68644 0
M  V30 12229 C 1176.81 2.00714 2.80727 0
M  V30 12230 C 1175.92 3.28431 2.80637 0
M  V30 12231 C 1175.06 3.38828 4.09107 0
M  V30 12232 C 1174.1 4.60549 4.03189 0
M  V30 12233 N 1173.23 4.68057 5.23323 0
M  V30 12234 H 1178.07 2.72694 1.20174 0
M  V30 12235 H 1175.61 1.35079 0.582422 0
M  V30 12236 H 1177.57 2.10444 3.60235 0
M  V30 12237 H 1176.2 1.11811 3.02817 0
M  V30 12238 H 1175.25 3.27617 1.93317 0
M  V30 12239 H 1176.56 4.18022 2.72138 0
M  V30 12240 H 1175.72 3.47911 4.97034 0
M  V30 12241 H 1174.46 2.47267 4.20369 0
M  V30 12242 H 1173.46 4.51558 3.13649 0
M  V30 12243 H 1174.69 5.53459 3.93523 0
M  V30 12244 H 1172.63 3.794 5.35156 0
M  V30 12245 H 1172.55 5.51563 5.17024 0
M  V30 12246 H 1173.82 4.81433 6.1306 0
M  V30 12247 N 1178.05 -0.61812 1.44973 0
M  V30 12248 C 1179.32 -1.37705 1.38913 0
M  V30 12249 C 1179.7 -2.1103 0.054385 0
M  V30 12250 O 1179.05 -2.07197 -0.963409 0
M  V30 12251 C 1179.26 -2.33265 2.59593 0
M  V30 12252 C 1180.61 -2.96197 3.04224 0
M  V30 12253 O 1181.63 -2.43589 2.59891 0
M  V30 12254 O 1180.49 -3.91666 3.8113 0
M  V30 12255 H 1177.59 -0.61694 0.55074 0
M  V30 12256 H 1180.13 -0.642088 1.57084 0
M  V30 12257 H 1178.9 -1.78271 3.48332 0
M  V30 12258 H 1178.53 -3.14158 2.43702 0
M  V30 12259 N 1179.52 -1.32087 -0.859693 0
M  V30 12260 C 1180.46 -1.16426 -1.97428 0
M  V30 12261 C 1181.47 -0.100582 -1.62489 0
M  V30 12262 O 1182.66 -0.349063 -1.75054 0
M  V30 12263 C 1179.76 -0.758822 -3.30295 0
M  V30 12264 C 1178.93 -1.90971 -3.93508 0
M  V30 12265 C 1177.99 -1.48865 -5.04704 0
M  V30 12266 O 1177.02 -2.1999 -5.2497 0
M  V30 12267 N 1178.22 -0.38182 -5.79243 0
M  V30 12268 H 1180.98 -2.12433 -2.11406 0
M  V30 12269 H 1178.54 -1.24558 -1.03426 0
M  V30 12270 H 1180.54 -0.459643 -4.02081 0
M  V30 12271 H 1179.11 0.109944 -3.12407 0
M  V30 12272 H 1178.33 -2.37566 -3.14573 0
M  V30 12273 H 1179.61 -2.68032 -4.32477 0
M  V30 12274 H 1179.01 0.210268 -5.65309 0
M  V30 12275 H 1177.57 -0.142224 -6.51645 0
M  V30 12276 N 1181 1.07532 -1.15215 0
M  V30 12277 C 1182.23 1.84356 -0.950139 0
M  V30 12278 C 1182.65 1.81429 0.496502 0
M  V30 12279 O 1182.01 1.20589 1.35381 0
M  V30 12280 C 1182.06 3.29425 -1.46669 0
M  V30 12281 O 1181.16 4.07008 -0.664674 0
M  V30 12282 H 1180.5 0.570921 -0.339036 0
M  V30 12283 H 1183.03 1.35665 -1.53154 0
M  V30 12284 H 1183.04 3.8026 -1.47873 0
M  V30 12285 H 1181.72 3.3087 -2.51988 0
M  V30 12286 H 1180.29 3.65841 -0.72211 0
M  V30 12287 N 1182.48 0.948665 1.2585 0
M  V30 12288 C 1183.44 0.468673 2.24357 0
M  V30 12289 C 1184.44 -0.424355 1.551 0
M  V30 12290 O 1185.63 -0.222481 1.72773 0
M  V30 12291 C 1182.77 -0.32359 3.39361 0
M  V30 12292 H 1183.96 1.33928 2.68334 0
M  V30 12293 H 1181.51 0.731357 1.38133 0
M  V30 12294 H 1182.25 -1.21212 3.00796 0
M  V30 12295 H 1182.03 0.316998 3.90816 0
M  V30 12296 H 1183.52 -0.649087 4.12525 0
M  V30 12297 N 1183.96 -1.40369 0.716545 0
M  V30 12298 C 1184.92 -2.29083 0.0733105 0
M  V30 12299 C 1185.92 -1.45415 -0.686378 0
M  V30 12300 O 1187.11 -1.66316 -0.518139 0
M  V30 12301 C 1184.24 -3.28639 -0.906032 0
M  V30 12302 H 1185.44 -2.87464 0.85467 0
M  V30 12303 H 1182.99 -1.48706 0.481256 0
M  V30 12304 H 1183.72 -2.75279 -1.71441 0
M  V30 12305 H 1183.51 -3.90405 -0.364163 0
M  V30 12306 H 1185 -3.95066 -1.35324 0
M  V30 12307 N 1185.44 -0.462799 -1.50652 0
M  V30 12308 C 1186.37 0.325724 -2.31217 0
M  V30 12309 C 1187.35 0.997942 -1.3775 0
M  V30 12310 O 1188.53 0.996707 -1.66671 0
M  V30 12311 C 1185.66 1.41283 -3.17264 0
M  V30 12312 C 1184.62 0.862687 -4.19216 0
M  V30 12313 C 1183.94 2.04746 -4.93946 0
M  V30 12314 C 1185.24 -0.120365 -5.22161 0
M  V30 12315 H 1186.94 -0.346666 -2.97386 0
M  V30 12316 H 1184.48 -0.168163 -1.43015 0
M  V30 12317 H 1186.44 1.97188 -3.72418 0
M  V30 12318 H 1185.16 2.11387 -2.48964 0
M  V30 12319 H 1183.82 0.325671 -3.65151 0
M  V30 12320 H 1183.47 2.73529 -4.22127 0
M  V30 12321 H 1183.17 1.68562 -5.62904 0
M  V30 12322 H 1184.69 2.61157 -5.51932 0
M  V30 12323 H 1186.1 0.349226 -5.72235 0
M  V30 12324 H 1184.5 -0.396061 -5.98792 0
M  V30 12325 H 1185.57 -1.04895 -4.73418 0
M  V30 12326 N 1186.91 1.56388 -0.195085 0
M  V30 12327 C 1188.16 1.97189 0.44281 0
M  V30 12328 C 1188.48 1.08312 1.62153 0
M  V30 12329 O 1187.75 0.154404 1.95291 0
M  V30 12330 H 1186.33 0.728188 0.166585 0
M  V30 12331 H 1189 1.92852 -0.281815 0
M  V30 12332 H 1188.09 3.02016 0.786945 0
M  V30 12333 N 1188.39 -0.0785156 1.57404 0
M  V30 12334 C 1189.67 -0.811557 1.77969 0
M  V30 12335 C 1190.05 -1.96123 0.780966 0
M  V30 12336 O 1189.4 -2.27731 -0.18726 0
M  V30 12337 C 1189.61 -1.29075 3.24254 0
M  V30 12338 C 1190.96 -1.72685 3.87898 0
M  V30 12339 O 1191.98 -1.38658 3.28104 0
M  V30 12340 O 1190.84 -2.3566 4.93079 0
M  V30 12341 H 1187.93 -0.388361 0.73014 0
M  V30 12342 H 1190.48 -0.0591118 1.69597 0
M  V30 12343 H 1189.25 -0.467813 3.88494 0
M  V30 12344 H 1188.87 -2.10472 3.37324 0
M  V30 12345 N 1189.87 -1.5367 -0.349747 0
M  V30 12346 C 1191.1 -1.74858 -1.11532 0
M  V30 12347 C 1191.52 -0.483591 -1.81777 0
M  V30 12348 O 1190.88 0.563399 -1.72324 0
M  V30 12349 C 1190.93 -2.92479 -2.10923 0
M  V30 12350 O 1190.03 -2.62194 -3.18321 0
M  V30 12351 H 1189.37 -0.580219 -0.322865 0
M  V30 12352 H 1191.9 -2.00611 -0.402033 0
M  V30 12353 H 1191.91 -3.19093 -2.54252 0
M  V30 12354 H 1190.59 -3.84228 -1.59191 0
M  V30 12355 H 1189.16 -2.46448 -2.79853 0
M  V30 12356 N 1191.35 0.610423 -1.45298 0
M  V30 12357 C 1192.28 1.73207 -1.56594 0
M  V30 12358 C 1193.26 1.64893 -0.417651 0
M  V30 12359 O 1194.44 1.83336 -0.64043 0
M  V30 12360 C 1191.57 3.11803 -1.52959 0
M  V30 12361 C 1190.53 3.34925 -2.66475 0
M  V30 12362 C 1189.85 4.73764 -2.47894 0
M  V30 12363 C 1191.15 3.25456 -4.08504 0
M  V30 12364 H 1192.85 1.6401 -2.50482 0
M  V30 12365 H 1190.39 0.787621 -1.20551 0
M  V30 12366 H 1192.35 3.90065 -1.59458 0
M  V30 12367 H 1191.07 3.21833 -0.55599 0
M  V30 12368 H 1189.73 2.59051 -2.59399 0
M  V30 12369 H 1189.38 4.80524 -1.4868 0
M  V30 12370 H 1189.08 4.90191 -3.24016 0
M  V30 12371 H 1190.6 5.54231 -2.56243 0
M  V30 12372 H 1192.02 3.93597 -4.16839 0
M  V30 12373 H 1190.41 3.53414 -4.84994 0
M  V30 12374 H 1191.48 2.22939 -4.30612 0
M  V30 12375 N 1192.83 1.32541 0.852676 0
M  V30 12376 C 1194.06 1.26037 1.63702 0
M  V30 12377 C 1194.46 -0.173583 1.88402 0
M  V30 12378 O 1193.81 -1.12175 1.45473 0
M  V30 12379 C 1193.87 1.95245 3.01861 0
M  V30 12380 C 1193.53 3.44576 3.00193 0
M  V30 12381 C 1194.53 4.40026 2.76899 0
M  V30 12382 C 1192.22 3.86541 3.20766 0
M  V30 12383 C 1194.21 5.75414 2.74185 0
M  V30 12384 C 1191.9 5.22038 3.17678 0
M  V30 12385 C 1192.89 6.16286 2.94416 0
M  V30 12386 O 1192.58 7.49303 2.91206 0
M  V30 12387 H 1192.31 0.436073 0.516543 0
M  V30 12388 H 1194.87 1.75251 1.07127 0
M  V30 12389 H 1193.1 1.40603 3.60233 0
M  V30 12390 H 1194.79 1.82423 3.62597 0
M  V30 12391 H 1195.55 4.0893 2.6077 0
M  V30 12392 H 1191.43 3.13603 3.37897 0
M  V30 12393 H 1194.98 6.4895 2.55947 0
M  V30 12394 H 1190.87 5.52762 3.33353 0
M  V30 12395 H 1191.64 7.58686 3.07146 0
M  V30 12396 N 1194.3 -1.0692 1.15784 0
M  V30 12397 C 1195.55 -1.79245 0.933581 0
M  V30 12398 C 1195.87 -1.87362 -0.540427 0
M  V30 12399 O 1195.14 -1.37769 -1.39271 0
M  V30 12400 H 1193.72 -0.663898 0.342416 0
M  V30 12401 H 1196.39 -1.29189 1.45932 0
M  V30 12402 H 1195.48 -2.81546 1.34679 0
M  V30 12403 N 1195.78 -0.955326 -1.25345 0
M  V30 12404 C 1196.75 -0.480564 -2.24105 0
M  V30 12405 C 1197.75 0.416123 -1.55322 0
M  V30 12406 O 1198.94 0.213315 -1.72889 0
M  V30 12407 C 1196.07 0.305589 -3.39528 0
M  V30 12408 H 1197.26 -1.35349 -2.6762 0
M  V30 12409 H 1194.81 -0.738673 -1.37744 0
M  V30 12410 H 1195.55 1.19615 -3.01434 0
M  V30 12411 H 1195.33 -0.337719 -3.90643 0
M  V30 12412 H 1196.82 0.627201 -4.12863 0
M  V30 12413 N 1197.26 1.39987 -0.723979 0
M  V30 12414 C 1198.22 2.29041 -0.0854583 0
M  V30 12415 C 1199.22 1.45777 0.678657 0
M  V30 12416 O 1200.41 1.66588 0.509311 0
M  V30 12417 C 1197.55 3.29115 0.88859 0
M  V30 12418 H 1198.74 2.87006 -0.869903 0
M  V30 12419 H 1196.29 1.48449 -0.489136 0
M  V30 12420 H 1197.03 2.76184 1.69979 0
M  V30 12421 H 1196.81 3.90593 0.343454 0
M  V30 12422 H 1198.3 3.95778 1.33227 0
M  V30 12423 N 1198.74 0.470782 1.50404 0
M  V30 12424 C 1199.96 -0.084284 2.07229 0
M  V30 12425 C 1200.39 -1.32774 1.33239 0
M  V30 12426 O 1199.75 -1.77274 0.379971 0
M  V30 12427 C 1199.8 -0.351565 3.58882 0
M  V30 12428 O 1198.9 -1.43211 3.86736 0
M  V30 12429 H 1198.24 0.0128479 0.663876 0
M  V30 12430 H 1200.77 0.661735 1.93603 0
M  V30 12431 H 1200.78 -0.592151 4.0368 0
M  V30 12432 H 1199.46 0.557084 4.12152 0
M  V30 12433 H 1198.03 -1.17886 3.53776 0
M  V30 12434 N 1200.22 -1.56282 0.203376 0
M  V30 12435 C 1201.15 -2.2247 -0.709183 0
M  V30 12436 C 1202.13 -1.19046 -1.21499 0
M  V30 12437 O 1203.31 -1.47578 -1.26231 0
M  V30 12438 C 1200.44 -2.8905 -1.92529 0
M  V30 12439 C 1199.4 -3.98789 -1.55407 0
M  V30 12440 C 1198.72 -4.52574 -2.84747 0
M  V30 12441 C 1200.02 -5.16774 -0.75775 0
M  V30 12442 H 1201.72 -2.98986 -0.157392 0
M  V30 12443 H 1199.26 -1.43808 -0.0742613 0
M  V30 12444 H 1201.22 -3.34038 -2.56898 0
M  V30 12445 H 1199.94 -2.09952 -2.50175 0
M  V30 12446 H 1198.6 -3.54504 -0.933928 0
M  V30 12447 H 1198.25 -3.70229 -3.40499 0
M  V30 12448 H 1197.95 -5.26627 -2.6065 0
M  V30 12449 H 1199.47 -5.00269 -3.5009 0
M  V30 12450 H 1200.89 -5.58256 -1.30472 0
M  V30 12451 H 1199.28 -5.96945 -0.614583 0
M  V30 12452 H 1200.35 -4.84308 0.239476 0
M  V30 12453 N 1201.7 0.070167 -1.57444 0
M  V30 12454 C 1202.64 1.10193 -2.04842 0
M  V30 12455 C 1203.64 1.39978 -0.954069 0
M  V30 12456 O 1204.84 1.39366 -1.13917 0
M  V30 12457 H 1201.22 0.372699 -0.653146 0
M  V30 12458 H 1203.19 0.676033 -2.90641 0
M  V30 12459 C 1201.94 2.40679 -2.50936 0
M  V30 12460 H 1201.26 2.1861 -3.34738 0
M  V30 12461 H 1202.7 3.11315 -2.87852 0
M  V30 12462 C 1201.16 3.06754 -1.39297 0
M  V30 12463 O 1201.69 3.949 -0.735989 0
M  V30 12464 N 1199.9 2.67404 -1.13769 0
M  V30 12465 H 1199.44 1.95813 -1.67376 0
M  V30 12466 H 1199.4 3.11937 -0.392787 0
M  V30 12467 N 1203.17 1.53854 0.341593 0
M  V30 12468 C 1204.45 1.61823 1.09875 0
M  V30 12469 C 1204.83 0.440711 2.06448 0
M  V30 12470 O 1204.18 -0.566833 2.21358 0
M  V30 12471 C 1204.39 2.9799 1.81668 0
M  V30 12472 C 1205.74 3.53411 2.35341 0
M  V30 12473 O 1206.76 3.00177 1.91761 0
M  V30 12474 O 1205.62 4.4653 3.15076 0
M  V30 12475 H 1202.71 0.654599 0.5054 0
M  V30 12476 H 1205.26 1.66199 0.342929 0
M  V30 12477 H 1204.03 3.7513 1.11323 0
M  V30 12478 H 1203.65 2.97213 2.64103 0
M  V30 12479 N 1204.65 -0.602709 1.4562 0
M  V30 12480 C 1205.9 -1.36158 1.49891 0
M  V30 12481 C 1206.23 -1.93977 0.142581 0
M  V30 12482 O 1205.48 -1.75822 -0.859374 0
M  V30 12483 C 1205.78 -2.52474 2.52966 0
M  V30 12484 C 1205.45 -2.12772 3.97541 0
M  V30 12485 C 1204.11 -2.01658 4.36907 0
M  V30 12486 C 1206.46 -1.8186 4.88443 0
M  V30 12487 C 1203.79 -1.57862 5.65063 0
M  V30 12488 C 1206.14 -1.39548 6.17016 0
M  V30 12489 C 1204.8 -1.26997 6.55308 0
M  V30 12490 H 1204.07 -0.498236 0.54849 0
M  V30 12491 H 1206.72 -0.680738 1.78992 0
M  V30 12492 H 1205.03 -3.25917 2.17452 0
M  V30 12493 H 1206.72 -3.10701 2.53507 0
M  V30 12494 H 1203.31 -2.22349 3.66413 0
M  V30 12495 H 1207.5 -1.89341 4.58763 0
M  V30 12496 H 1202.75 -1.46771 5.93522 0
M  V30 12497 H 1206.93 -1.14677 6.86893 0
M  V30 12498 H 1204.55 -0.928346 7.5451 0
M  V30 12499 N 1206.13 -1.32992 -0.845635 0
M  V30 12500 C 1207.38 -1.2382 -1.59728 0
M  V30 12501 C 1207.7 0.197724 -1.93995 0
M  V30 12502 O 1206.97 1.12477 -1.60392 0
M  V30 12503 H 1205.55 -0.455296 -0.592212 0
M  V30 12504 H 1208.21 -1.66627 -1.01101 0
M  V30 12505 H 1207.31 -1.82717 -2.53023 0
M  V30 12506 N 1207.61 1.06304 -1.1635 0
M  V30 12507 C 1208.86 1.78487 -0.939423 0
M  V30 12508 C 1209.17 1.8817 0.533998 0
M  V30 12509 O 1210.38 2.56981 0.875962 0
M  V30 12510 C 1208.83 3.20796 -1.63149 0
M  V30 12511 C 1208.44 3.19281 -3.14267 0
M  V30 12512 C 1210.18 3.97514 -1.48938 0
M  V30 12513 C 1208.09 4.56309 -3.76213 0
M  V30 12514 H 1207.02 0.668973 -0.347837 0
M  V30 12515 H 1209.67 1.19237 -1.3948 0
M  V30 12516 H 1208.05 3.80305 -1.10382 0
M  V30 12517 H 1209.23 2.69356 -3.73877 0
M  V30 12518 H 1207.54 2.56062 -3.28362 0
M  V30 12519 H 1210.14 4.98808 -1.926 0
M  V30 12520 H 1210.48 4.13986 -0.438319 0
M  V30 12521 H 1211.02 3.44528 -1.98861 0
M  V30 12522 H 1207.75 4.45042 -4.81267 0
M  V30 12523 H 1207.27 5.06429 -3.21388 0
M  V30 12524 H 1208.95 5.25266 -3.77762 0
M  V30 12525 N 1209.09 0.96196 1.24836 0
M  V30 12526 C 1210.02 0.506241 2.27946 0
M  V30 12527 C 1211 -0.451183 1.64007 0
M  V30 12528 O 1212.18 -0.348552 1.91046 0
M  V30 12529 C 1209.31 -0.209846 3.46665 0
M  V30 12530 C 1208.27 0.663035 4.22833 0
M  V30 12531 C 1207.59 -0.184216 5.34383 0
M  V30 12532 C 1208.89 1.94479 4.84742 0
M  V30 12533 H 1210.59 1.36805 2.66317 0
M  V30 12534 H 1208.13 0.65926 1.28023 0
M  V30 12535 H 1210.08 -0.539838 4.17928 0
M  V30 12536 H 1208.81 -1.10596 3.07305 0
M  V30 12537 H 1207.47 0.976216 3.53363 0
M  V30 12538 H 1207.12 -1.08031 4.91262 0
M  V30 12539 H 1206.82 0.39657 5.8626 0
M  V30 12540 H 1208.34 -0.509009 6.08475 0
M  V30 12541 H 1209.75 1.68074 5.48109 0
M  V30 12542 H 1208.15 2.47183 5.46828 0
M  V30 12543 H 1209.22 2.64332 4.06517 0
M  V30 12544 N 1210.56 -1.39601 0.731392 0
M  V30 12545 C 1211.53 -2.28992 0.0976037 0
M  V30 12546 C 1212.53 -1.46135 -0.670917 0
M  V30 12547 O 1213.72 -1.66856 -0.50047 0
M  V30 12548 C 1210.85 -3.29582 -0.871124 0
M  V30 12549 H 1212.04 -2.86541 0.885112 0
M  V30 12550 H 1209.59 -1.48188 0.497002 0
M  V30 12551 H 1210.33 -2.77082 -1.68512 0
M  V30 12552 H 1210.11 -3.9077 -0.322735 0
M  V30 12553 H 1211.6 -3.96479 -1.31126 0
M  V30 12554 N 1212.04 -0.478751 -1.50152 0
M  V30 12555 C 1213.29 0.073694 -2.02666 0
M  V30 12556 C 1213.62 1.38679 -1.35947 0
M  V30 12557 O 1212.9 1.88286 -0.4877 0
M  V30 12558 C 1213.18 0.249516 -3.59235 0
M  V30 12559 C 1213.03 -1.08514 -4.36514 0
M  V30 12560 C 1214.35 1.00053 -4.28576 0
M  V30 12561 H 1211.47 0.0253082 -0.736565 0
M  V30 12562 H 1214.11 -0.625834 -1.79397 0
M  V30 12563 H 1212.26 0.845343 -3.79192 0
M  V30 12564 H 1213.93 -1.71814 -4.28109 0
M  V30 12565 H 1212.18 -1.67992 -3.99952 0
M  V30 12566 H 1212.85 -0.915676 -5.44352 0
M  V30 12567 H 1215.32 0.495422 -4.1314 0
M  V30 12568 H 1214.2 1.09236 -5.37921 0
M  V30 12569 H 1214.46 2.03896 -3.92274 0
M  V30 12570 N 1213.52 1.56172 -0.211661 0
M  V30 12571 C 1214.94 1.5895 0.143907 0
M  V30 12572 C 1215.14 1.22826 1.59737 0
M  V30 12573 O 1214.19 0.958823 2.33587 0
M  V30 12574 C 1215.51 3.00199 -0.173438 0
M  V30 12575 C 1217.05 3.12789 -0.114877 0
M  V30 12576 C 1217.53 4.56199 -0.405759 0
M  V30 12577 N 1219.02 4.61838 -0.354973 0
M  V30 12578 C 1219.75 5.70721 -0.553671 0
M  V30 12579 N 1219.25 6.88006 -0.813613 0
M  V30 12580 N 1221.04 5.59988 -0.486787 0
M  V30 12581 H 1213.19 1.77931 -1.15993 0
M  V30 12582 H 1215.46 0.826569 -0.464206 0
M  V30 12583 H 1215.16 3.31248 -1.18186 0
M  V30 12584 H 1215.04 3.73651 0.516232 0
M  V30 12585 H 1217.42 2.81543 0.884166 0
M  V30 12586 H 1217.51 2.41688 -0.837875 0
M  V30 12587 H 1217.15 4.88161 -1.40219 0
M  V30 12588 H 1217.08 5.25512 0.338318 0
M  V30 12589 H 1219.57 3.77555 -0.161352 0
M  V30 12590 H 1219.88 7.66894 -0.953594 0
M  V30 12591 H 1218.23 6.89774 -0.850696 0
M  V30 12592 H 1221.42 4.67238 -0.284009 0
M  V30 12593 H 1221.59 6.44781 -0.645051 0
M  V30 12594 N 1215 -0.0618163 1.57479 0
M  V30 12595 C 1216.24 -0.760193 1.88013 0
M  V30 12596 C 1216.58 -1.76718 0.805258 0
M  V30 12597 O 1215.85 -1.93633 -0.183408 0
M  V30 12598 C 1216.14 -1.45924 3.29208 0
M  V30 12599 C 1215.99 -0.467994 4.47359 0
M  V30 12600 C 1217.31 -2.40166 3.68793 0
M  V30 12601 H 1214.43 -0.274896 0.683814 0
M  V30 12602 H 1217.07 -0.0232433 1.89986 0
M  V30 12603 H 1215.22 -2.08741 3.27657 0
M  V30 12604 H 1216.89 0.155735 4.61037 0
M  V30 12605 H 1215.13 0.215797 4.33263 0
M  V30 12606 H 1215.8 -0.994942 5.42959 0
M  V30 12607 H 1218.28 -1.87419 3.71501 0
M  V30 12608 H 1217.16 -2.86076 4.68457 0
M  V30 12609 H 1217.42 -3.25413 2.99264 0
M  V30 12610 N 1216.48 -1.54033 -0.333429 0
M  V30 12611 C 1217.72 -1.72019 -1.07411 0
M  V30 12612 C 1218.06 -0.487265 -1.87988 0
M  V30 12613 O 1217.33 0.515757 -1.87537 0
M  V30 12614 C 1217.61 -2.98986 -2.00698 0
M  V30 12615 C 1217.47 -4.32509 -1.23517 0
M  V30 12616 C 1218.79 -3.21663 -3.00368 0
M  V30 12617 H 1215.9 -0.625919 -0.389094 0
M  V30 12618 H 1218.55 -1.86717 -0.351697 0
M  V30 12619 H 1216.7 -2.86586 -2.62298 0
M  V30 12620 H 1218.37 -4.56775 -0.644522 0
M  V30 12621 H 1216.61 -4.3046 -0.537298 0
M  V30 12622 H 1217.28 -5.17547 -1.91962 0
M  V30 12623 H 1219.76 -3.33459 -2.48886 0
M  V30 12624 H 1218.63 -4.11877 -3.62834 0
M  V30 12625 H 1218.9 -2.3843 -3.72295 0
M  V30 12626 N 1217.95 0.594978 -1.45938 0
M  V30 12627 C 1218.9 1.726 -1.55923 0
M  V30 12628 C 1219.9 1.63893 -0.428411 0
M  V30 12629 O 1221.1 1.69535 -0.604815 0
M  V30 12630 H 1217.48 0.570447 -0.489994 0
M  V30 12631 H 1219.45 1.61308 -2.51043 0
M  V30 12632 C 1218.2 3.10988 -1.55505 0
M  V30 12633 H 1217.52 3.18353 -2.4185 0
M  V30 12634 H 1218.96 3.8992 -1.66548 0
M  V30 12635 C 1217.42 3.35721 -0.281573 0
M  V30 12636 O 1217.95 3.96676 0.633336 0
M  V30 12637 N 1216.16 2.90083 -0.173314 0
M  V30 12638 H 1215.7 2.4066 -0.91872 0
M  V30 12639 H 1215.66 3.07005 0.677903 0
M  V30 12640 N 1219.43 1.33438 0.838571 0
M  V30 12641 C 1220.71 1.1551 1.5785 0
M  V30 12642 C 1221.09 -0.278405 2.09256 0
M  V30 12643 O 1220.44 -1.27748 1.89453 0
M  V30 12644 C 1220.65 2.19647 2.71212 0
M  V30 12645 C 1222 2.53818 3.40384 0
M  V30 12646 O 1223.02 2.18317 2.81454 0
M  V30 12647 O 1221.88 3.14741 4.46766 0
M  V30 12648 H 1218.97 0.446785 0.695925 0
M  V30 12649 H 1221.52 1.45021 0.8813 0
M  V30 12650 H 1220.29 3.15936 2.30869 0
M  V30 12651 H 1219.91 1.91224 3.48596 0
M  V30 12652 N 1220.91 -1.05686 1.16912 0
M  V30 12653 C 1221.86 -2.11584 0.849483 0
M  V30 12654 C 1222.84 -1.59959 -0.173774 0
M  V30 12655 O 1224.04 -1.76978 0.0279436 0
M  V30 12656 C 1221.17 -3.41417 0.359079 0
M  V30 12657 C 1220.25 -3.99852 1.41347 0
M  V30 12658 N 1220.64 -4.32317 2.62557 0
M  V30 12659 C 1218.94 -4.27531 1.27017 0
M  V30 12660 C 1219.64 -4.7885 3.30269 0
M  V30 12661 N 1218.62 -4.78664 2.57647 0
M  V30 12662 H 1222.42 -2.34539 1.77112 0
M  V30 12663 H 1219.93 -1.23286 1.05708 0
M  V30 12664 H 1221.93 -4.1675 0.111666 0
M  V30 12665 H 1220.59 -3.19897 -0.556413 0
M  V30 12666 H 1221.6 -4.22472 2.99563 0
M  V30 12667 H 1218.28 -4.15423 0.415924 0
M  V30 12668 H 1219.67 -5.13123 4.33768 0
M  V30 12669 N 1222.39 -0.968567 -1.24324 0
M  V30 12670 C 1223.34 -0.491346 -2.27351 0
M  V30 12671 C 1224.33 0.445563 -1.63435 0
M  V30 12672 O 1225.54 0.320758 -1.77119 0
M  V30 12673 H 1221.91 -0.14043 -0.738772 0
M  V30 12674 H 1223.88 -1.37224 -2.64976 0
M  V30 12675 C 1222.63 0.202093 -3.47112 0
M  V30 12676 H 1221.95 -0.50973 -3.96537 0
M  V30 12677 H 1223.39 0.499815 -4.21044 0
M  V30 12678 C 1221.85 1.42937 -3.05075 0
M  V30 12679 O 1222.38 2.52635 -3.12312 0
M  V30 12680 N 1220.59 1.29572 -2.60114 0
M  V30 12681 H 1220.14 0.403169 -2.54425 0
M  V30 12682 H 1220.09 2.118 -2.32353 0
M  V30 12683 N 1223.87 1.39211 -0.738786 0
M  V30 12684 C 1225.28 1.83237 -0.357916 0
M  V30 12685 C 1225.63 1.61698 1.11123 0
M  V30 12686 O 1224.75 1.11017 1.85753 0
M  V30 12687 C 1225.35 3.32645 -0.64285 0
M  V30 12688 C 1223.91 3.75076 -0.315432 0
M  V30 12689 C 1223.05 2.62166 -0.903556 0
M  V30 12690 H 1226.01 1.2815 -0.936127 0
M  V30 12691 H 1226.03 3.80407 0.0840812 0
M  V30 12692 H 1225.54 3.4829 -1.71218 0
M  V30 12693 H 1223.64 3.65017 0.747907 0
M  V30 12694 H 1223.75 4.72363 -0.800638 0
M  V30 12695 H 1222.12 2.52554 -0.329927 0
M  V30 12696 H 1222.9 2.80616 -1.97761 0
M  V30 12697 N 1225.34 0.486708 1.49896 0
M  V30 12698 C 1226.57 -0.0600816 2.06813 0
M  V30 12699 C 1226.99 -1.32112 1.34877 0
M  V30 12700 O 1226.34 -1.77537 0.422725 0
M  V30 12701 C 1226.4 -0.332266 3.5997 0
M  V30 12702 O 1226.12 0.878771 4.29196 0
M  V30 12703 C 1227.62 -0.924289 4.33557 0
M  V30 12704 H 1224.84 0.0140611 0.670853 0
M  V30 12705 H 1227.38 0.67997 1.92864 0
M  V30 12706 H 1225.54 -1.02227 3.73669 0
M  V30 12707 H 1225.95 0.632873 5.20668 0
M  V30 12708 H 1227.42 -1.06441 5.4164 0
M  V30 12709 H 1227.9 -1.91844 3.95085 0
M  V30 12710 H 1228.51 -0.272189 4.24428 0
M  V30 12711 N 1226.82 -1.56058 0.219941 0
M  V30 12712 C 1227.77 -2.20218 -0.690846 0
M  V30 12713 C 1228.74 -1.15725 -1.19151 0
M  V30 12714 O 1229.93 -1.44073 -1.2509 0
M  V30 12715 C 1227.07 -2.88477 -1.89408 0
M  V30 12716 C 1226.18 -4.07559 -1.43246 0
M  V30 12717 C 1225.31 -4.63605 -2.59314 0
M  V30 12718 C 1224.35 -5.74993 -2.0988 0
M  V30 12719 N 1223.49 -6.25337 -3.19214 0
M  V30 12720 H 1228.33 -2.97685 -0.136992 0
M  V30 12721 H 1225.87 -1.46994 -0.055865 0
M  V30 12722 H 1227.82 -3.26235 -2.60051 0
M  V30 12723 H 1226.45 -2.1353 -2.42084 0
M  V30 12724 H 1225.51 -3.75297 -0.621013 0
M  V30 12725 H 1226.82 -4.8805 -1.02997 0
M  V30 12726 H 1225.97 -5.03798 -3.38041 0
M  V30 12727 H 1224.71 -3.82274 -3.0285 0
M  V30 12728 H 1223.72 -5.34304 -1.29613 0
M  V30 12729 H 1224.94 -6.58158 -1.67345 0
M  V30 12730 H 1222.89 -5.4692 -3.62236 0
M  V30 12731 H 1222.8 -7.00947 -2.83213 0
M  V30 12732 H 1224.07 -6.70187 -3.98083 0
M  V30 12733 N 1228.3 0.053464 -1.57509 0
M  V30 12734 C 1229.55 0.750212 -1.88414 0
M  V30 12735 C 1229.88 1.76288 -0.814619 0
M  V30 12736 O 1229.16 1.93728 0.173136 0
M  V30 12737 C 1229.44 1.44176 -3.29978 0
M  V30 12738 C 1229.29 0.444263 -4.47601 0
M  V30 12739 C 1230.61 2.38207 -3.70061 0
M  V30 12740 H 1227.73 0.271266 -0.685262 0
M  V30 12741 H 1230.37 0.0131676 -1.89995 0
M  V30 12742 H 1228.52 2.07001 -3.2876 0
M  V30 12743 H 1230.19 -0.180182 -4.60948 0
M  V30 12744 H 1228.44 -0.238771 -4.33142 0
M  V30 12745 H 1229.11 0.966134 -5.43479 0
M  V30 12746 H 1231.58 1.85446 -3.7249 0
M  V30 12747 H 1230.46 2.83588 -4.69967 0
M  V30 12748 H 1230.72 3.23821 -3.00985 0
M  V30 12749 N 1229.78 1.54207 0.325255 0
M  V30 12750 C 1231.01 1.76293 1.08298 0
M  V30 12751 C 1231.42 0.510722 1.81761 0
M  V30 12752 O 1230.78 -0.5185 1.7498 0
M  V30 12753 C 1230.83 2.95498 2.08238 0
M  V30 12754 O 1230.55 4.15877 1.37759 0
M  V30 12755 C 1232.05 3.29781 2.96242 0
M  V30 12756 H 1229.27 0.588576 0.322209 0
M  V30 12757 H 1231.82 2.0109 0.371896 0
M  V30 12758 H 1229.97 2.72979 2.74884 0
M  V30 12759 H 1230.39 4.82918 2.04672 0
M  V30 12760 H 1231.86 4.16495 3.62265 0
M  V30 12761 H 1232.34 2.46874 3.63249 0
M  V30 12762 H 1232.94 3.54372 2.3516 0
M  V30 12763 N 1231.26 -0.58723 1.46251 0
M  V30 12764 C 1232.48 -1.37661 1.55126 0
M  V30 12765 C 1232.91 -1.87123 0.191489 0
M  V30 12766 O 1232.27 -1.6131 -0.827576 0
M  V30 12767 C 1232.31 -2.54324 2.5564 0
M  V30 12768 O 1231.42 -3.55617 2.0883 0
M  V30 12769 H 1230.76 -0.410154 0.522178 0
M  V30 12770 H 1233.29 -0.712738 1.91784 0
M  V30 12771 H 1233.3 -3.01301 2.75103 0
M  V30 12772 H 1231.97 -2.17675 3.54387 0
M  V30 12773 H 1230.55 -3.15151 1.99335 0
M  V30 12774 N 1232.74 -1.33881 -0.831482 0
M  V30 12775 C 1233.68 -1.24748 -1.94182 0
M  V30 12776 C 1234.65 -0.124516 -1.65633 0
M  V30 12777 O 1235.84 -0.304045 -1.88362 0
M  V30 12778 C 1232.98 -1.00016 -3.30289 0
M  V30 12779 C 1232.09 -2.21007 -3.71187 0
M  V30 12780 C 1231.23 -1.89629 -4.962 0
M  V30 12781 C 1230.26 -3.06811 -5.29654 0
M  V30 12782 N 1229.4 -2.75372 -6.45844 0
M  V30 12783 H 1234.24 -2.19709 -2.01325 0
M  V30 12784 H 1231.78 -1.09245 -0.985081 0
M  V30 12785 H 1233.74 -0.837167 -4.08714 0
M  V30 12786 H 1232.37 -0.0872582 -3.22682 0
M  V30 12787 H 1231.42 -2.48256 -2.88224 0
M  V30 12788 H 1232.73 -3.08587 -3.91887 0
M  V30 12789 H 1231.88 -1.70016 -5.82391 0
M  V30 12790 H 1230.62 -0.992964 -4.77485 0
M  V30 12791 H 1229.63 -3.27029 -4.41964 0
M  V30 12792 H 1230.85 -3.97909 -5.50314 0
M  V30 12793 H 1228.8 -1.87607 -6.28601 0
M  V30 12794 H 1228.72 -3.56483 -6.66675 0
M  V30 12795 H 1229.98 -2.59244 -7.35128 0
M  V30 12796 N 1234.21 1.05064 -1.1747 0
M  V30 12797 C 1235.46 1.77481 -0.958301 0
M  V30 12798 C 1235.78 1.88725 0.51401 0
M  V30 12799 O 1236.98 2.57895 0.848657 0
M  V30 12800 C 1235.44 3.19048 -1.66543 0
M  V30 12801 C 1235.05 3.1593 -3.17636 0
M  V30 12802 C 1236.79 3.95912 -1.53146 0
M  V30 12803 C 1234.7 4.52293 -3.81032 0
M  V30 12804 H 1233.63 0.665247 -0.354913 0
M  V30 12805 H 1236.28 1.17751 -1.40737 0
M  V30 12806 H 1234.66 3.79113 -1.1441 0
M  V30 12807 H 1235.83 2.65375 -3.76713 0
M  V30 12808 H 1234.15 2.52564 -3.31059 0
M  V30 12809 H 1236.75 4.96737 -1.9788 0
M  V30 12810 H 1237.09 4.13498 -0.482203 0
M  V30 12811 H 1237.62 3.42399 -2.02504 0
M  V30 12812 H 1234.36 4.39913 -4.8596 0
M  V30 12813 H 1233.88 5.02991 -3.26741 0
M  V30 12814 H 1235.56 5.2123 -3.83312 0
M  V30 12815 N 1235.69 0.975146 1.23809 0
M  V30 12816 C 1237.11 0.682899 1.44252 0
M  V30 12817 C 1237.31 -0.752739 1.86912 0
M  V30 12818 O 1236.36 -1.52579 2.01186 0
M  V30 12819 C 1237.68 1.67335 2.49839 0
M  V30 12820 C 1239.22 1.6868 2.63659 0
M  V30 12821 C 1239.7 2.66542 3.72451 0
M  V30 12822 N 1241.19 2.65028 3.79887 0
M  V30 12823 C 1241.93 3.37421 4.63611 0
M  V30 12824 N 1241.42 4.19355 5.51465 0
M  V30 12825 N 1243.21 3.2621 4.57759 0
M  V30 12826 H 1235.37 1.9026 0.94418 0
M  V30 12827 H 1237.63 0.819543 0.476502 0
M  V30 12828 H 1237.33 2.69978 2.25399 0
M  V30 12829 H 1237.21 1.45201 3.48133 0
M  V30 12830 H 1239.6 0.667438 2.87453 0
M  V30 12831 H 1239.68 1.94878 1.65699 0
M  V30 12832 H 1239.32 3.68617 3.49405 0
M  V30 12833 H 1239.25 2.3762 4.69941 0
M  V30 12834 H 1241.74 2.05562 3.171 0
M  V30 12835 H 1242.05 4.71461 6.12327 0
M  V30 12836 H 1240.4 4.23447 5.51106 0
M  V30 12837 H 1243.59 2.61656 3.88142 0
M  V30 12838 H 1243.76 3.82889 5.22781 0
M  V30 12839 N 1237.17 -1.38817 0.746158 0
M  V30 12840 C 1238.42 -2.00577 0.299458 0
M  V30 12841 C 1238.75 -1.59087 -1.11378 0
M  V30 12842 O 1238.02 -0.824932 -1.7614 0
M  V30 12843 C 1238.31 -3.57713 0.413932 0
M  V30 12844 C 1238.16 -4.09189 1.86774 0
M  V30 12845 C 1239.48 -4.39659 -0.197082 0
M  V30 12846 H 1236.6 -0.728702 0.110285 0
M  V30 12847 H 1239.24 -1.64866 0.944408 0
M  V30 12848 H 1237.39 -3.88265 -0.135155 0
M  V30 12849 H 1239.06 -3.89311 2.47456 0
M  V30 12850 H 1237.3 -3.62333 2.38532 0
M  V30 12851 H 1237.98 -5.18305 1.89904 0
M  V30 12852 H 1240.45 -4.15216 0.271121 0
M  V30 12853 H 1239.33 -5.48832 -0.0867011 0
M  V30 12854 H 1239.59 -4.23028 -1.2845 0
M  V30 12855 N 1238.65 -0.49465 -1.49636 0
M  V30 12856 C 1239.88 0.0490417 -2.06542 0
M  V30 12857 C 1240.29 1.31945 -1.35599 0
M  V30 12858 O 1239.63 1.78691 -0.426047 0
M  V30 12859 C 1239.69 0.379426 -3.57492 0
M  V30 12860 C 1239.35 -0.792345 -4.50079 0
M  V30 12861 C 1240.35 -1.68106 -4.91972 0
M  V30 12862 C 1238.04 -0.98935 -4.9246 0
M  V30 12863 C 1240.03 -2.75099 -5.74978 0
M  V30 12864 C 1237.72 -2.06247 -5.75244 0
M  V30 12865 C 1238.72 -2.94163 -6.16407 0
M  V30 12866 O 1238.4 -3.99623 -6.97536 0
M  V30 12867 H 1238.14 -0.0143708 -0.675847 0
M  V30 12868 H 1240.69 -0.689358 -1.93486 0
M  V30 12869 H 1238.92 1.17133 -3.68533 0
M  V30 12870 H 1240.61 0.860979 -3.96664 0
M  V30 12871 H 1241.37 -1.54065 -4.59879 0
M  V30 12872 H 1237.25 -0.314435 -4.59926 0
M  V30 12873 H 1240.8 -3.4375 -6.07027 0
M  V30 12874 H 1236.69 -2.20285 -6.06749 0
M  V30 12875 H 1237.46 -3.96899 -7.15831 0
M  V30 12876 N 1240.13 1.55939 -0.228214 0
M  V30 12877 C 1241.06 2.2357 0.6737 0
M  V30 12878 C 1242.04 1.20964 1.1959 0
M  V30 12879 O 1243.22 1.49568 1.23867 0
M  V30 12880 C 1240.35 2.92076 1.87906 0
M  V30 12881 C 1239.31 4.01211 1.49043 0
M  V30 12882 C 1238.63 4.57047 2.77511 0
M  V30 12883 C 1239.93 5.17914 0.67544 0
M  V30 12884 H 1241.63 2.99199 0.109806 0
M  V30 12885 H 1239.17 1.43908 0.0513732 0
M  V30 12886 H 1241.12 3.38083 2.51551 0
M  V30 12887 H 1239.85 2.13906 2.46803 0
M  V30 12888 H 1238.51 3.55945 0.877411 0
M  V30 12889 H 1238.16 3.75599 3.34566 0
M  V30 12890 H 1237.86 5.30707 2.52239 0
M  V30 12891 H 1239.38 5.05776 3.42087 0
M  V30 12892 H 1240.79 5.60261 1.21575 0
M  V30 12893 H 1239.19 5.97847 0.519536 0
M  V30 12894 H 1240.26 4.83866 -0.316495 0
M  V30 12895 N 1241.6 -0.0451101 1.57535 0
M  V30 12896 C 1242.55 -1.05066 2.05499 0
M  V30 12897 C 1243.52 -1.36884 0.940843 0
M  V30 12898 O 1244.71 -1.47497 1.21034 0
M  V30 12899 C 1241.85 -2.35139 2.52594 0
M  V30 12900 C 1240.96 -2.0962 3.77735 0
M  V30 12901 C 1240.09 -3.33447 4.13505 0
M  V30 12902 C 1239.13 -3.03411 5.31609 0
M  V30 12903 N 1238.27 -4.19644 5.62888 0
M  V30 12904 H 1243.11 -0.63469 2.91163 0
M  V30 12905 H 1240.65 -0.30179 1.43971 0
M  V30 12906 H 1242.61 -3.11118 2.7796 0
M  V30 12907 H 1241.24 -2.74489 1.69869 0
M  V30 12908 H 1240.29 -1.24211 3.59549 0
M  V30 12909 H 1241.6 -1.83452 4.63839 0
M  V30 12910 H 1240.75 -4.17805 4.39914 0
M  V30 12911 H 1239.49 -3.62715 3.2602 0
M  V30 12912 H 1238.5 -2.17453 5.04969 0
M  V30 12913 H 1239.72 -2.75438 6.20734 0
M  V30 12914 H 1237.67 -4.48893 4.78363 0
M  V30 12915 H 1237.59 -3.96843 6.43468 0
M  V30 12916 H 1238.85 -5.04921 5.93865 0
M  V30 12917 N 1243.08 -1.54377 -0.317073 0
M  V30 12918 C 1244.49 -1.64062 -0.891105 0
M  V30 12919 C 1244.84 -0.538863 -1.88655 0
M  V30 12920 O 1243.97 0.32718 -2.13912 0
M  V30 12921 C 1244.56 -2.97395 -1.62302 0
M  V30 12922 C 1243.12 -3.09253 -2.14568 0
M  V30 12923 C 1242.27 -2.59664 -0.973146 0
M  V30 12924 H 1245.22 -1.58418 -0.0944829 0
M  V30 12925 H 1245.24 -2.87918 -2.48764 0
M  V30 12926 H 1244.75 -3.77562 -0.898268 0
M  V30 12927 H 1242.86 -2.33774 -2.90139 0
M  V30 12928 H 1242.97 -4.15159 -2.39123 0
M  V30 12929 H 1241.33 -2.15719 -1.35416 0
M  V30 12930 H 1242.12 -3.42294 -0.262611 0
M  V30 12931 N 1244.56 0.579466 -1.4656 0
M  V30 12932 C 1245.51 1.68829 -1.5737 0
M  V30 12933 C 1246.48 1.60759 -0.417825 0
M  V30 12934 O 1247.66 1.79923 -0.635001 0
M  V30 12935 C 1244.8 3.07166 -1.573 0
M  V30 12936 C 1243.92 3.25837 -2.83645 0
M  V30 12937 C 1243.05 4.54441 -2.75057 0
M  V30 12938 C 1242.09 4.66467 -3.96327 0
M  V30 12939 N 1241.23 5.86401 -3.86107 0
M  V30 12940 H 1246.07 1.58928 -2.52083 0
M  V30 12941 H 1243.6 0.774526 -1.25058 0
M  V30 12942 H 1245.56 3.8724 -1.55245 0
M  V30 12943 H 1244.19 3.15956 -0.661166 0
M  V30 12944 H 1243.24 2.39345 -2.95666 0
M  V30 12945 H 1244.56 3.30591 -3.73512 0
M  V30 12946 H 1243.71 5.42748 -2.71126 0
M  V30 12947 H 1242.45 4.52131 -1.82836 0
M  V30 12948 H 1241.45 3.76577 -4.00587 0
M  V30 12949 H 1242.68 4.70554 -4.89649 0
M  V30 12950 H 1240.62 5.85082 -2.96673 0
M  V30 12951 H 1240.54 5.92437 -4.69632 0
M  V30 12952 H 1241.81 6.7713 -3.86155 0
M  V30 12953 N 1246.04 1.3432 0.824371 0
M  V30 12954 C 1246.99 1.22332 1.92403 0
M  V30 12955 C 1247.97 0.122709 1.60431 0
M  V30 12956 O 1249.16 0.352231 1.7346 0
M  V30 12957 C 1246.29 0.979497 3.2903 0
M  V30 12958 C 1245.38 2.12322 3.67124 0
M  V30 12959 N 1245.77 3.3743 3.76795 0
M  V30 12960 C 1244.07 2.03314 3.96963 0
M  V30 12961 C 1244.77 4.12532 4.10113 0
M  V30 12962 N 1243.75 3.41109 4.23256 0
M  V30 12963 H 1247.55 2.17143 1.98056 0
M  V30 12964 H 1245.06 1.26537 1.01795 0
M  V30 12965 H 1247.06 0.874525 4.07624 0
M  V30 12966 H 1245.72 0.0400611 3.24675 0
M  V30 12967 H 1246.73 3.72001 3.60327 0
M  V30 12968 H 1243.41 1.17118 4.00736 0
M  V30 12969 H 1244.8 5.20562 4.24811 0
M  V30 12970 N 1247.52 -1.0444 1.18026 0
M  V30 12971 C 1248.77 -1.7697 0.9677 0
M  V30 12972 C 1249.08 -1.88995 -0.503994 0
M  V30 12973 O 1250.28 -2.58342 -0.834968 0
M  V30 12974 C 1248.74 -3.1816 1.68232 0
M  V30 12975 C 1248.35 -3.14241 3.19307 0
M  V30 12976 C 1250.09 -3.95095 1.55244 0
M  V30 12977 C 1248 -4.50266 3.83425 0
M  V30 12978 H 1246.93 -0.663355 0.358436 0
M  V30 12979 H 1249.58 -1.17003 1.4136 0
M  V30 12980 H 1247.96 -3.78501 1.16418 0
M  V30 12981 H 1249.14 -2.63373 3.78115 0
M  V30 12982 H 1247.45 -2.50805 3.32394 0
M  V30 12983 H 1250.05 -4.95681 2.00511 0
M  V30 12984 H 1250.39 -4.13236 0.504125 0
M  V30 12985 H 1250.92 -3.4132 2.04317 0
M  V30 12986 H 1247.66 -4.37329 4.88286 0
M  V30 12987 H 1247.18 -5.01251 3.29404 0
M  V30 12988 H 1248.86 -5.1919 3.86071 0
M  V30 12989 N 1248.99 -0.981699 -1.2329 0
M  V30 12990 C 1250.41 -0.690539 -1.43888 0
M  V30 12991 C 1250.61 0.742816 -1.87309 0
M  V30 12992 O 1249.67 1.5151 -2.01993 0
M  V30 12993 C 1250.98 -1.68657 -2.48948 0
M  V30 12994 C 1252.53 -1.70076 -2.62761 0
M  V30 12995 C 1253 -2.68513 -3.71032 0
M  V30 12996 N 1254.49 -2.67039 -3.78476 0
M  V30 12997 C 1255.23 -3.39874 -4.61815 0
M  V30 12998 N 1254.72 -4.22273 -5.49233 0
M  V30 12999 N 1256.52 -3.28633 -4.56023 0
M  V30 13000 H 1248.67 -1.90758 -0.934077 0
M  V30 13001 H 1250.93 -0.822058 -0.472149 0
M  V30 13002 H 1250.64 -2.7117 -2.23964 0
M  V30 13003 H 1250.51 -1.47045 -3.47358 0
M  V30 13004 H 1252.9 -0.682673 -2.87095 0
M  V30 13005 H 1252.98 -1.95754 -1.64663 0
M  V30 13006 H 1252.62 -3.70464 -3.47446 0
M  V30 13007 H 1252.55 -2.40109 -4.68674 0
M  V30 13008 H 1255.04 -2.07241 -3.16006 0
M  V30 13009 H 1255.36 -4.74702 -6.09818 0
M  V30 13010 H 1253.7 -4.26364 -5.48852 0
M  V30 13011 H 1256.89 -2.6371 -3.86749 0
M  V30 13012 H 1257.07 -3.85656 -5.20743 0
M  V30 13013 N 1250.47 1.3842 -0.753509 0
M  V30 13014 C 1251.72 2.00415 -0.310091 0
M  V30 13015 C 1252.05 1.59675 1.10532 0
M  V30 13016 O 1251.33 0.834261 1.757 0
M  V30 13017 C 1251.61 3.57488 -0.432897 0
M  V30 13018 C 1251.46 4.08193 -1.88941 0
M  V30 13019 C 1252.78 4.39757 0.173763 0
M  V30 13020 H 1249.9 0.728107 -0.114147 0
M  V30 13021 H 1252.54 1.64363 -0.953138 0
M  V30 13022 H 1250.69 3.88331 0.114563 0
M  V30 13023 H 1252.36 3.87993 -2.49517 0
M  V30 13024 H 1250.61 3.61063 -2.4045 0
M  V30 13025 H 1251.28 5.17291 -1.9265 0
M  V30 13026 H 1253.75 4.15066 -0.293137 0
M  V30 13027 H 1252.63 5.4887 0.057594 0
M  V30 13028 H 1252.89 4.23704 1.26205 0
M  V30 13029 N 1251.95 0.502579 1.49372 0
M  V30 13030 C 1253.2 -0.0334303 2.03373 0
M  V30 13031 C 1253.55 -1.34548 1.3753 0
M  V30 13032 O 1252.84 -1.84894 0.502484 0
M  V30 13033 C 1253.04 -0.240835 3.56588 0
M  V30 13034 C 1252.87 1.04956 4.37281 0
M  V30 13035 C 1251.64 1.6018 4.7924 0
M  V30 13036 C 1253.84 1.95323 4.75766 0
M  V30 13037 N 1251.82 2.83793 5.44366 0
M  V30 13038 C 1253.19 3.03516 5.40628 0
M  V30 13039 C 1255.24 1.95982 4.57707 0
M  V30 13040 C 1253.95 4.12396 5.89341 0
M  V30 13041 C 1255.97 3.03839 5.07382 0
M  V30 13042 C 1255.33 4.10749 5.72245 0
M  V30 13043 H 1251.43 0.0285863 0.781477 0
M  V30 13044 H 1254.02 0.677787 1.82522 0
M  V30 13045 H 1252.19 -0.921111 3.7732 0
M  V30 13046 H 1253.92 -0.773993 3.9723 0
M  V30 13047 H 1250.68 1.14674 4.59507 0
M  V30 13048 H 1251.1 3.46654 5.81515 0
M  V30 13049 H 1255.74 1.14632 4.06963 0
M  V30 13050 H 1253.46 4.94542 6.39104 0
M  V30 13051 H 1257.05 3.0537 4.95218 0
M  V30 13052 H 1255.93 4.92833 6.09988 0
M  V30 13053 N 1253.43 -1.55816 0.23648 0
M  V30 13054 C 1254.67 -2.0059 -0.39281 0
M  V30 13055 C 1255.03 -1.12092 -1.55883 0
M  V30 13056 O 1256.23 -1.46277 -2.25514 0
M  V30 13057 C 1254.5 -3.48281 -0.80219 0
M  V30 13058 S 1256.06 -4.15069 -1.42348 0
M  V30 13059 H 1252.88 -0.700093 -0.124057 0
M  V30 13060 H 1255.48 -1.92355 0.349272 0
M  V30 13061 H 1254.19 -4.10362 0.0558941 0
M  V30 13062 H 1253.72 -3.60421 -1.57671 0
M  V30 13063 H 1255.73 -4.15493 -2.71257 0
M  V30 13064 N 1254.91 0.036755 -1.57557 0
M  V30 13065 C 1256.32 0.584324 -1.7732 0
M  V30 13066 C 1256.67 1.76025 -0.86658 0
M  V30 13067 O 1255.79 2.16318 -0.059443 0
M  V30 13068 C 1256.39 1.06679 -3.21566 0
M  V30 13069 C 1254.95 1.55994 -3.42553 0
M  V30 13070 C 1254.09 0.494604 -2.72853 0
M  V30 13071 H 1257.05 -0.189473 -1.57565 0
M  V30 13072 H 1257.07 1.93446 -3.27657 0
M  V30 13073 H 1256.58 0.210727 -3.87527 0
M  V30 13074 H 1254.68 2.43811 -2.81757 0
M  V30 13075 H 1254.79 1.61274 -4.5114 0
M  V30 13076 H 1253.16 0.947865 -2.36406 0
M  V30 13077 H 1253.94 -0.351868 -3.41492 0
M  V30 13078 N 1256.39 1.54543 0.308881 0
M  V30 13079 C 1257.8 1.45581 0.654088 0
M  V30 13080 C 1258 0.640597 1.91046 0
M  V30 13081 O 1257.06 0.14518 2.52082 0
M  V30 13082 C 1258.37 2.89461 0.814422 0
M  V30 13083 C 1259.92 2.99455 0.910817 0
M  V30 13084 C 1260.39 4.44515 1.10321 0
M  V30 13085 N 1261.88 4.4819 1.1696 0
M  V30 13086 C 1262.62 5.57604 1.33661 0
M  V30 13087 N 1262.12 6.76957 1.47311 0
M  V30 13088 N 1263.91 5.45278 1.36487 0
M  V30 13089 H 1256.06 2.06019 -0.516699 0
M  V30 13090 H 1258.32 0.932729 -0.169471 0
M  V30 13091 H 1258.03 3.5168 -0.0377455 0
M  V30 13092 H 1257.9 3.36425 1.70582 0
M  V30 13093 H 1260.29 2.37355 1.75348 0
M  V30 13094 H 1260.37 2.558 -0.00443172 0
M  V30 13095 H 1260.01 5.07206 0.265346 0
M  V30 13096 H 1259.94 4.85793 2.03256 0
M  V30 13097 H 1262.44 3.62199 1.07796 0
M  V30 13098 H 1262.75 7.561 1.59788 0
M  V30 13099 H 1261.09 6.79837 1.44382 0
M  V30 13100 H 1264.28 4.50983 1.25429 0
M  V30 13101 H 1264.46 6.30599 1.4916 0
M  V30 13102 N 1257.86 -0.571685 1.46866 0
M  V30 13103 C 1259.27 -1.15383 1.46778 0
M  V30 13104 C 1259.63 -1.95023 0.214576 0
M  V30 13105 O 1258.75 -2.05386 -0.681574 0
M  V30 13106 C 1259.35 -2.09915 2.65935 0
M  V30 13107 C 1257.9 -2.6343 2.68852 0
M  V30 13108 C 1257.05 -1.39517 2.39646 0
M  V30 13109 H 1260 -0.359036 1.54585 0
M  V30 13110 H 1260.02 -2.9356 2.42081 0
M  V30 13111 H 1259.54 -1.51923 3.57129 0
M  V30 13112 H 1257.64 -3.2526 1.8176 0
M  V30 13113 H 1257.75 -3.05412 3.69134 0
M  V30 13114 H 1256.11 -1.69702 1.8993 0
M  V30 13115 H 1256.9 -0.833399 3.33031 0
M  V30 13116 N 1259.34 -1.34755 -0.817236 0
M  V30 13117 C 1260.75 -1.24594 -1.39044 0
M  V30 13118 C 1261.1 0.126184 -1.95794 0
M  V30 13119 O 1260.23 1.02675 -1.90491 0
M  V30 13120 C 1260.82 -2.25592 -2.52772 0
M  V30 13121 C 1259.38 -2.19204 -3.05984 0
M  V30 13122 C 1258.53 -2.11884 -1.78886 0
M  V30 13123 H 1261.48 -1.46039 -0.621155 0
M  V30 13124 H 1261.5 -1.87622 -3.31026 0
M  V30 13125 H 1261.01 -3.25447 -2.11438 0
M  V30 13126 H 1259.11 -1.22725 -3.51809 0
M  V30 13127 H 1259.23 -3.10707 -3.64689 0
M  V30 13128 H 1257.59 -1.57694 -2.00012 0
M  V30 13129 H 1258.37 -3.13582 -1.39719 0
M  V30 13130 N 1260.82 1.03812 -1.18578 0
M  V30 13131 C 1262.24 1.29271 -0.936011 0
M  V30 13132 C 1262.44 1.97551 0.396965 0
M  V30 13133 O 1261.49 2.25769 1.13069 0
M  V30 13134 C 1262.8 2.1489 -2.1034 0
M  V30 13135 C 1264.35 2.28228 -2.14198 0
M  V30 13136 C 1264.83 3.17214 -3.30362 0
M  V30 13137 N 1266.32 3.24802 -3.30239 0
M  V30 13138 C 1267.05 3.9382 -4.16765 0
M  V30 13139 N 1266.55 4.65147 -5.1343 0
M  V30 13140 N 1268.34 3.90125 -4.04671 0
M  V30 13141 H 1260.49 0.579011 -2.04356 0
M  V30 13142 H 1262.76 0.318021 -0.893066 0
M  V30 13143 H 1262.46 1.72029 -3.06755 0
M  V30 13144 H 1262.34 3.15576 -2.06619 0
M  V30 13145 H 1264.72 2.70324 -1.18359 0
M  V30 13146 H 1264.8 1.27124 -2.21976 0
M  V30 13147 H 1264.45 2.75829 -4.26475 0
M  V30 13148 H 1264.38 4.18356 -3.19821 0
M  V30 13149 H 1266.87 2.73994 -2.60261 0
M  V30 13150 H 1267.18 5.15414 -5.7582 0
M  V30 13151 H 1265.53 4.64043 -5.17387 0
M  V30 13152 H 1268.72 3.33536 -3.28438 0
M  V30 13153 H 1268.89 4.43641 -4.7232 0
M  V30 13154 N 1262.3 0.988223 1.22768 0
M  V30 13155 C 1263.26 0.539813 2.22752 0
M  V30 13156 C 1264.26 -0.374796 1.56371 0
M  V30 13157 O 1265.45 -0.167402 1.73394 0
M  V30 13158 C 1262.58 -0.215461 3.40218 0
M  V30 13159 H 1263.78 1.42397 2.63938 0
M  V30 13160 H 1261.33 0.774933 1.35737 0
M  V30 13161 H 1262.06 -1.11581 3.045 0
M  V30 13162 H 1261.85 0.441173 3.8961 0
M  V30 13163 H 1263.34 -0.517517 4.14381 0
M  V30 13164 N 1263.78 -1.38018 0.760839 0
M  V30 13165 C 1265.02 -2.00248 0.320716 0
M  V30 13166 C 1265.35 -1.60259 -1.09684 0
M  V30 13167 O 1264.63 -0.843567 -1.75255 0
M  V30 13168 C 1264.91 -3.57254 0.451849 0
M  V30 13169 C 1264.77 -4.07185 1.91103 0
M  V30 13170 C 1266.08 -4.39843 -0.150439 0
M  V30 13171 H 1263.2 -0.727491 0.118007 0
M  V30 13172 H 1265.85 -1.63855 0.961842 0
M  V30 13173 H 1264 -3.88386 -0.0939672 0
M  V30 13174 H 1265.67 -3.86665 2.51571 0
M  V30 13175 H 1263.91 -3.59782 2.42362 0
M  V30 13176 H 1264.58 -5.16262 1.9539 0
M  V30 13177 H 1267.06 -4.14905 0.315145 0
M  V30 13178 H 1265.93 -5.48893 -0.0284853 0
M  V30 13179 H 1266.19 -4.24367 -1.23956 0
M  V30 13180 N 1265.25 -0.510493 -1.49103 0
M  V30 13181 C 1266.22 0.251915 -2.27811 0
M  V30 13182 C 1267.22 0.885432 -1.34226 0
M  V30 13183 O 1268.41 0.748494 -1.573 0
M  V30 13184 C 1265.54 1.3624 -3.12492 0
M  V30 13185 H 1266.73 -0.438872 -2.96671 0
M  V30 13186 H 1264.28 -0.265767 -1.54024 0
M  V30 13187 H 1265.02 2.08705 -2.48219 0
M  V30 13188 H 1264.8 0.913485 -3.81311 0
M  V30 13189 H 1266.29 1.89919 -3.71915 0
M  V30 13190 N 1266.73 1.55688 -0.24474 0
M  V30 13191 C 1267.96 2.02995 0.38425 0
M  V30 13192 C 1268.37 1.12339 1.52239 0
M  V30 13193 O 1267.71 0.129803 1.83241 0
M  V30 13194 C 1267.77 3.46564 0.955701 0
M  V30 13195 C 1267.44 4.56973 -0.0499176 0
M  V30 13196 C 1268.44 5.1276 -0.858682 0
M  V30 13197 C 1266.12 5.01994 -0.175383 0
M  V30 13198 C 1268.11 6.12059 -1.77939 0
M  V30 13199 C 1265.8 6.01126 -1.0996 0
M  V30 13200 C 1266.8 6.56037 -1.90013 0
M  V30 13201 O 1266.49 7.53235 -2.80877 0
M  V30 13202 H 1266.22 0.669189 0.0957212 0
M  V30 13203 H 1268.77 2.02121 -0.36555 0
M  V30 13204 H 1267 3.44581 1.75502 0
M  V30 13205 H 1268.69 3.77383 1.49454 0
M  V30 13206 H 1269.46 4.78811 -0.772325 0
M  V30 13207 H 1265.34 4.58918 0.437644 0
M  V30 13208 H 1268.88 6.54845 -2.40465 0
M  V30 13209 H 1264.78 6.34494 -1.18689 0
M  V30 13210 H 1265.55 7.70844 -2.75214 0
M  V30 13211 N 1268.21 -0.0283989 1.57574 0
M  V30 13212 C 1269.44 -0.729772 1.93282 0
M  V30 13213 C 1269.85 -1.69384 0.842959 0
M  V30 13214 O 1269.19 -1.82722 -0.189286 0
M  V30 13215 C 1269.25 -1.54107 3.24794 0
M  V30 13216 C 1268.92 -0.741709 4.50941 0
M  V30 13217 C 1269.91 -0.0416985 5.19883 0
M  V30 13218 C 1267.6 -0.696053 4.97454 0
M  V30 13219 C 1269.59 0.693261 6.33619 0
M  V30 13220 C 1267.28 0.042651 6.11085 0
M  V30 13221 C 1268.28 0.736067 6.79022 0
M  V30 13222 O 1267.97 1.46278 7.9048 0
M  V30 13223 H 1267.7 -0.210092 0.642524 0
M  V30 13224 H 1270.25 0.0102277 2.05397 0
M  V30 13225 H 1268.48 -2.3249 3.09007 0
M  V30 13226 H 1270.17 -2.12512 3.45823 0
M  V30 13227 H 1270.94 -0.0679975 4.84952 0
M  V30 13228 H 1266.82 -1.22528 4.44419 0
M  V30 13229 H 1270.36 1.23504 6.8658 0
M  V30 13230 H 1266.26 0.0708708 6.45461 0
M  V30 13231 H 1267.02 1.37652 8.06842 0
M  V30 13232 N 1269.69 -1.54705 -0.300681 0
M  V30 13233 C 1270.94 -1.73658 -1.0338 0
M  V30 13234 C 1271.26 -0.525447 -1.87787 0
M  V30 13235 O 1270.53 0.460269 -1.90416 0
M  V30 13236 H 1269.11 -0.640338 -0.384677 0
M  V30 13237 H 1271.77 -1.92059 -0.331588 0
M  V30 13238 H 1270.86 -2.62595 -1.68672 0
M  V30 13239 N 1271.17 0.563888 -1.47167 0
M  V30 13240 C 1272.58 1.14603 -1.47388 0
M  V30 13241 C 1272.93 1.94907 -0.224916 0
M  V30 13242 O 1272.05 2.05745 0.670672 0
M  V30 13243 C 1272.65 2.08501 -2.67044 0
M  V30 13244 C 1271.21 2.62 -2.70246 0
M  V30 13245 C 1270.35 1.38244 -2.40383 0
M  V30 13246 H 1273.31 0.350833 -1.54774 0
M  V30 13247 H 1273.33 2.92272 -2.43634 0
M  V30 13248 H 1272.84 1.50027 -3.57929 0
M  V30 13249 H 1270.94 3.24292 -1.83482 0
M  V30 13250 H 1271.05 3.0345 -3.70749 0
M  V30 13251 H 1269.42 1.68692 -1.90827 0
M  V30 13252 H 1270.2 0.815726 -3.33468 0
M  V30 13253 N 1272.64 1.35187 0.810078 0
M  V30 13254 C 1273.89 1.28011 1.56389 0
M  V30 13255 C 1274.21 -0.14622 1.94451 0
M  V30 13256 O 1273.48 -1.08185 1.63318 0
M  V30 13257 H 1272.06 0.470837 0.579932 0
M  V30 13258 H 1274.73 1.69249 0.966476 0
M  V30 13259 H 1273.82 1.89362 2.4809 0
M  V30 13260 N 1274.12 -1.03182 1.19127 0
M  V30 13261 C 1275.37 -1.76794 0.993563 0
M  V30 13262 C 1275.7 -1.88306 -0.474809 0
M  V30 13263 O 1274.98 -1.39769 -1.35258 0
M  V30 13264 C 1275.26 -3.19573 1.65968 0
M  V30 13265 C 1275.11 -3.1595 3.2015 0
M  V30 13266 C 1276.43 -4.17897 1.38023 0
M  V30 13267 H 1273.55 -0.641768 0.362357 0
M  V30 13268 H 1276.19 -1.20472 1.46924 0
M  V30 13269 H 1274.34 -3.67663 1.25524 0
M  V30 13270 H 1276.01 -2.7578 3.69788 0
M  V30 13271 H 1274.26 -2.53743 3.51848 0
M  V30 13272 H 1274.93 -4.16811 3.61901 0
M  V30 13273 H 1277.4 -3.78394 1.73082 0
M  V30 13274 H 1276.28 -5.15997 1.87186 0
M  V30 13275 H 1276.54 -4.41048 0.304812 0
M  V30 13276 N 1275.6 -0.99472 -1.22242 0
M  V30 13277 C 1276.88 -0.587481 -1.86569 0
M  V30 13278 C 1277.26 0.935174 -1.89256 0
M  V30 13279 O 1276.61 1.81787 -1.3844 0
M  V30 13280 C 1276.82 -1.21001 -3.27353 0
M  V30 13281 C 1278.16 -1.31167 -4.03832 0
M  V30 13282 O 1279.19 -1.16454 -3.36626 0
M  V30 13283 O 1278.05 -1.54731 -5.24138 0
M  V30 13284 H 1275.14 -0.199838 -0.802492 0
M  V30 13285 H 1277.69 -1.09071 -1.30006 0
M  V30 13286 H 1276.46 -2.25143 -3.20041 0
M  V30 13287 H 1276.08 -0.692479 -3.91523 0
M  V30 13288 N 1277.08 1.37613 -0.768148 0
M  V30 13289 C 1278.31 2.03756 -0.341615 0
M  V30 13290 C 1278.72 1.58063 1.03984 0
M  V30 13291 O 1278.06 0.755609 1.6744 0
M  V30 13292 C 1278.12 3.58229 -0.302032 0
M  V30 13293 C 1277.79 4.27039 -1.62747 0
M  V30 13294 C 1278.78 4.51408 -2.57928 0
M  V30 13295 C 1276.47 4.64941 -1.90092 0
M  V30 13296 C 1278.46 5.12731 -3.78663 0
M  V30 13297 C 1276.15 5.25986 -3.11098 0
M  V30 13298 C 1277.15 5.49818 -4.05203 0
M  V30 13299 O 1276.83 6.09588 -5.24078 0
M  V30 13300 H 1276.57 0.660992 -0.141655 0
M  V30 13301 H 1279.12 1.77001 -1.04211 0
M  V30 13302 H 1277.35 3.84016 0.454811 0
M  V30 13303 H 1279.04 4.05784 0.0969452 0
M  V30 13304 H 1279.81 4.22542 -2.38083 0
M  V30 13305 H 1275.68 4.45729 -1.17674 0
M  V30 13306 H 1279.23 5.31249 -4.52129 0
M  V30 13307 H 1275.13 5.54276 -3.3083 0
M  V30 13308 H 1275.89 6.28068 -5.24855 0
M  V30 13309 N 1278.56 0.518393 1.4883 0
M  V30 13310 C 1279.5 -0.250684 2.29435 0
M  V30 13311 C 1280.47 -0.944481 1.36634 0
M  V30 13312 O 1281.66 -0.947766 1.65596 0
M  V30 13313 C 1278.8 -1.29871 3.1973 0
M  V30 13314 C 1277.91 -0.61493 4.27601 0
M  V30 13315 C 1277.05 -1.64489 5.05091 0
M  V30 13316 C 1276.09 -0.943932 6.04778 0
M  V30 13317 N 1275.22 -1.91889 6.75369 0
M  V30 13318 H 1280.06 0.44288 2.94691 0
M  V30 13319 H 1277.6 0.230246 1.45287 0
M  V30 13320 H 1279.56 -1.91851 3.70471 0
M  V30 13321 H 1278.19 -1.96081 2.56422 0
M  V30 13322 H 1277.24 0.118552 3.80215 0
M  V30 13323 H 1278.55 -0.063994 4.98759 0
M  V30 13324 H 1277.71 -2.33928 5.59788 0
M  V30 13325 H 1276.44 -2.2297 4.33746 0
M  V30 13326 H 1275.45 -0.235407 5.49296 0
M  V30 13327 H 1276.67 -0.365383 6.78116 0
M  V30 13328 H 1274.62 -2.493 6.06783 0
M  V30 13329 H 1274.54 -1.41909 7.42562 0
M  V30 13330 H 1275.81 -2.60563 7.34661 0
M  V30 13331 N 1280.03 -1.55556 0.252993 0
M  V30 13332 C 1281.31 -1.91022 -0.420696 0
M  V30 13333 C 1281.69 -1.17452 -1.75409 0
M  V30 13334 O 1281.04 -0.294 -2.26601 0
M  V30 13335 C 1281.25 -3.441 -0.582787 0
M  V30 13336 C 1282.6 -4.15468 -0.875873 0
M  V30 13337 O 1283.62 -3.49872 -0.668425 0
M  V30 13338 O 1282.48 -5.31508 -1.27128 0
M  V30 13339 H 1279.57 -0.7953 -0.226776 0
M  V30 13340 H 1282.12 -1.67072 0.297511 0
M  V30 13341 H 1280.89 -3.89673 0.356474 0
M  V30 13342 H 1280.52 -3.73933 -1.3513 0
M  V30 13343 N 1281.51 0.0200419 -1.57587 0
M  V30 13344 C 1282.76 0.707627 -1.89307 0
M  V30 13345 C 1283.08 1.7541 -0.851831 0
M  V30 13346 O 1282.35 1.95571 0.113404 0
M  V30 13347 H 1280.93 0.264349 -0.698662 0
M  V30 13348 H 1283.59 -0.0161428 -1.94893 0
M  V30 13349 H 1282.69 1.19152 -2.8846 0
M  V30 13350 N 1282.99 1.54862 0.292472 0
M  V30 13351 C 1284.22 1.7855 1.04534 0
M  V30 13352 C 1284.63 0.549161 1.80637 0
M  V30 13353 O 1283.99 -0.481268 1.7604 0
M  V30 13354 C 1284.04 2.99849 2.01923 0
M  V30 13355 O 1283.76 4.18706 1.28907 0
M  V30 13356 C 1285.26 3.35991 2.8918 0
M  V30 13357 H 1282.48 0.595279 0.309652 0
M  V30 13358 H 1285.03 2.01834 0.329159 0
M  V30 13359 H 1283.18 2.78749 2.69032 0
M  V30 13360 H 1283.6 4.87151 1.94383 0
M  V30 13361 H 1285.07 4.24085 3.53349 0
M  V30 13362 H 1285.55 2.54524 3.57931 0
M  V30 13363 H 1286.15 3.59281 2.27591 0
M  V30 13364 N 1284.47 -0.556076 1.47464 0
M  V30 13365 C 1285.4 -1.67275 1.62915 0
M  V30 13366 C 1286.38 -1.63229 0.478562 0
M  V30 13367 O 1287.56 -1.80833 0.708032 0
M  V30 13368 C 1284.69 -3.05911 1.64426 0
M  V30 13369 C 1283.65 -3.24804 2.78722 0
M  V30 13370 C 1282.97 -4.64238 2.65307 0
M  V30 13371 C 1284.27 -3.10071 4.20302 0
M  V30 13372 H 1285.97 -1.54601 2.56396 0
M  V30 13373 H 1283.51 -0.742337 1.23391 0
M  V30 13374 H 1285.47 -3.83878 1.73826 0
M  V30 13375 H 1284.19 -3.19547 0.675053 0
M  V30 13376 H 1282.85 -2.49246 2.68835 0
M  V30 13377 H 1282.5 -4.74675 1.66412 0
M  V30 13378 H 1282.2 -4.77828 3.41986 0
M  V30 13379 H 1283.72 -5.44339 2.76637 0
M  V30 13380 H 1285.14 -3.77855 4.3116 0
M  V30 13381 H 1283.53 -3.3517 4.97776 0
M  V30 13382 H 1284.6 -2.06803 4.38589 0
M  V30 13383 N 1285.95 -1.35615 -0.802897 0
M  V30 13384 C 1287.18 -1.32217 -1.59142 0
M  V30 13385 C 1287.59 0.0995496 -1.88537 0
M  V30 13386 O 1286.95 1.05258 -1.49087 0
M  V30 13387 C 1287 -2.13048 -2.92049 0
M  V30 13388 O 1286.72 -3.49677 -2.63927 0
M  V30 13389 C 1288.22 -2.17278 -3.864 0
M  V30 13390 H 1285.44 -0.454054 -0.49404 0
M  V30 13391 H 1287.98 -1.78521 -0.997516 0
M  V30 13392 H 1286.14 -1.70334 -3.47944 0
M  V30 13393 H 1286.55 -3.917 -3.48814 0
M  V30 13394 H 1288.03 -2.7822 -4.76758 0
M  V30 13395 H 1288.5 -1.17253 -4.23259 0
M  V30 13396 H 1289.11 -2.6017 -3.3644 0
M  V30 13397 N 1287.43 1.02549 -1.19673 0
M  V30 13398 C 1288.84 1.57454 -1.00325 0
M  V30 13399 C 1289.19 1.91136 0.442889 0
M  V30 13400 O 1288.31 1.7126 1.32284 0
M  V30 13401 C 1288.91 2.86091 -1.81486 0
M  V30 13402 C 1287.47 3.37557 -1.6653 0
M  V30 13403 C 1286.61 2.1096 -1.79975 0
M  V30 13404 H 1289.56 0.850364 -1.33994 0
M  V30 13405 H 1289.59 3.5713 -1.31296 0
M  V30 13406 H 1289.1 2.61546 -2.86733 0
M  V30 13407 H 1287.2 3.67083 -0.638834 0
M  V30 13408 H 1287.31 4.1036 -2.47269 0
M  V30 13409 H 1285.68 2.22993 -1.23071 0
M  V30 13410 H 1286.46 1.88852 -2.86688 0
M  V30 13411 N 1288.9 1.00119 1.21713 0
M  V30 13412 C 1289.83 0.578504 2.2622 0
M  V30 13413 C 1290.81 -0.398777 1.6536 0
M  V30 13414 O 1292 -0.287596 1.92059 0
M  V30 13415 C 1289.13 -0.0994508 3.47158 0
M  V30 13416 C 1288.08 0.79722 4.2051 0
M  V30 13417 C 1287.41 -0.0141125 5.34698 0
M  V30 13418 C 1288.71 2.09802 4.7831 0
M  V30 13419 H 1290.4 1.45208 2.6183 0
M  V30 13420 H 1287.95 0.699656 1.2586 0
M  V30 13421 H 1289.9 -0.406605 4.19434 0
M  V30 13422 H 1288.63 -1.00763 3.10667 0
M  V30 13423 H 1287.29 1.08814 3.50079 0
M  V30 13424 H 1286.93 -0.923468 4.9445 0
M  V30 13425 H 1286.63 0.582883 5.84702 0
M  V30 13426 H 1288.16 -0.31517 6.09786 0
M  V30 13427 H 1289.57 1.85427 5.42485 0
M  V30 13428 H 1287.97 2.64455 5.38687 0
M  V30 13429 H 1289.04 2.77132 3.97902 0
M  V30 13430 N 1290.38 -1.37203 0.775435 0
M  V30 13431 C 1291.61 -2.04396 0.351737 0
M  V30 13432 C 1292.03 -1.58099 -1.01913 0
M  V30 13433 O 1291.39 -0.742932 -1.65379 0
M  V30 13434 C 1291.44 -3.58283 0.408105 0
M  V30 13435 O 1290.54 -4.08156 -0.590104 0
M  V30 13436 H 1289.88 -0.646451 0.151647 0
M  V30 13437 H 1292.41 -1.75443 1.05265 0
M  V30 13438 H 1292.42 -4.07127 0.266711 0
M  V30 13439 H 1291.1 -3.91335 1.40819 0
M  V30 13440 H 1289.67 -3.70622 -0.411524 0
M  V30 13441 N 1291.86 -0.526279 -1.48553 0
M  V30 13442 C 1293.09 0.0052277 -2.06899 0
M  V30 13443 C 1293.5 1.2849 -1.38332 0
M  V30 13444 O 1292.86 1.76354 -0.469648 0
M  V30 13445 C 1292.91 0.236709 -3.60724 0
M  V30 13446 O 1292.63 -0.992256 -4.26715 0
M  V30 13447 C 1294.13 0.809014 -4.35855 0
M  V30 13448 H 1291.35 -0.0318426 -0.670244 0
M  V30 13449 H 1293.9 -0.730865 -1.90994 0
M  V30 13450 H 1292.05 0.922842 -3.76248 0
M  V30 13451 H 1292.47 -0.770697 -5.18807 0
M  V30 13452 H 1293.94 0.920428 -5.44272 0
M  V30 13453 H 1294.42 1.81302 -4.00033 0
M  V30 13454 H 1295.02 0.159564 -4.25001 0
M  V30 13455 N 1293.34 1.5542 -0.261239 0
M  V30 13456 C 1294.28 2.21972 0.632216 0
M  V30 13457 C 1295.25 1.18843 1.16041 0
M  V30 13458 O 1296.44 1.47339 1.21226 0
M  V30 13459 C 1293.58 2.93397 1.81693 0
M  V30 13460 C 1292.69 4.11214 1.3239 0
M  V30 13461 C 1291.83 4.70318 2.46931 0
M  V30 13462 C 1290.87 5.80355 1.94561 0
M  V30 13463 N 1290 6.33581 3.02523 0
M  V30 13464 H 1294.84 2.97944 0.058018 0
M  V30 13465 H 1292.38 1.4709 0.0168725 0
M  V30 13466 H 1294.34 3.33015 2.5131 0
M  V30 13467 H 1292.97 2.19874 2.36337 0
M  V30 13468 H 1292.02 3.76811 0.521292 0
M  V30 13469 H 1293.33 4.90609 0.900214 0
M  V30 13470 H 1292.49 5.12584 3.24565 0
M  V30 13471 H 1291.23 3.90169 2.92608 0
M  V30 13472 H 1290.23 5.37552 1.15402 0
M  V30 13473 H 1291.46 6.62364 1.49836 0
M  V30 13474 H 1289.4 5.56332 3.47608 0
M  V30 13475 H 1289.32 7.08209 2.64529 0
M  V30 13476 H 1290.59 6.80506 3.80174 0
M  V30 13477 N 1294.82 -0.0116844 1.57596 0
M  V30 13478 C 1296.09 -0.735344 1.81251 0
M  V30 13479 C 1296.47 -1.92634 0.863446 0
M  V30 13480 O 1295.82 -2.28321 -0.0905028 0
M  V30 13481 C 1296.03 -1.15206 3.29437 0
M  V30 13482 C 1297.38 -1.56078 3.94873 0
M  V30 13483 O 1298.4 -1.24618 3.3369 0
M  V30 13484 O 1297.26 -2.14534 5.0263 0
M  V30 13485 H 1294.36 -0.357044 0.745955 0
M  V30 13486 H 1296.9 0.0128733 1.69695 0
M  V30 13487 H 1295.67 -0.302619 3.90128 0
M  V30 13488 H 1295.3 -1.95975 3.45947 0
M  V30 13489 N 1296.29 -1.55015 -0.284256 0
M  V30 13490 C 1297.22 -1.90128 -1.3555 0
M  V30 13491 C 1298.2 -0.761914 -1.52082 0
M  V30 13492 O 1299.39 -1.01909 -1.65312 0
M  V30 13493 C 1296.52 -2.16332 -2.71695 0
M  V30 13494 C 1295.47 -3.32166 -2.69907 0
M  V30 13495 C 1294.8 -3.43824 -4.09498 0
M  V30 13496 C 1296.1 -4.6885 -2.30168 0
M  V30 13497 H 1297.79 -2.79852 -1.06411 0
M  V30 13498 H 1295.34 -1.34649 -0.510451 0
M  V30 13499 H 1297.29 -2.39482 -3.46737 0
M  V30 13500 H 1296.02 -1.23395 -3.02392 0
M  V30 13501 H 1294.68 -3.08965 -1.97322 0
M  V30 13502 H 1294.32 -2.48375 -4.374 0
M  V30 13503 H 1294.02 -4.21698 -4.092 0
M  V30 13504 H 1295.55 -3.69254 -4.86296 0
M  V30 13505 H 1296.96 -4.91619 -2.9493 0
M  V30 13506 H 1295.36 -5.49558 -2.41052 0
M  V30 13507 H 1296.43 -4.68433 -1.25294 0
M  V30 13508 N 1297.77 0.548248 -1.47757 0
M  V30 13509 C 1299 1.3302 -1.58472 0
M  V30 13510 C 1299.41 1.87292 -0.238186 0
M  V30 13511 O 1298.77 1.65465 0.76991 0
M  V30 13512 C 1298.82 2.49386 -2.61704 0
M  V30 13513 O 1298.54 1.97355 -3.9113 0
M  V30 13514 C 1300.04 3.41471 -2.82688 0
M  V30 13515 H 1297.26 0.405172 -0.534861 0
M  V30 13516 H 1299.81 0.663251 -1.93446 0
M  V30 13517 H 1297.96 3.12001 -2.29639 0
M  V30 13518 H 1298.38 2.7339 -4.47614 0
M  V30 13519 H 1299.85 4.19516 -3.58762 0
M  V30 13520 H 1300.33 3.95573 -1.90837 0
M  V30 13521 H 1300.93 2.84664 -3.15985 0
M  V30 13522 N 1299.25 1.36039 0.795694 0
M  V30 13523 C 1300.48 1.33059 1.58439 0
M  V30 13524 C 1300.89 -0.0895496 1.88588 0
M  V30 13525 O 1300.25 -1.04466 1.49643 0
M  V30 13526 C 1300.3 2.14594 2.90915 0
M  V30 13527 O 1300.02 3.51072 2.62069 0
M  V30 13528 C 1301.52 2.19324 3.85242 0
M  V30 13529 H 1298.74 0.456668 0.491625 0
M  V30 13530 H 1301.29 1.79048 0.988035 0
M  V30 13531 H 1299.44 1.72177 3.47036 0
M  V30 13532 H 1299.86 3.93545 3.46732 0
M  V30 13533 H 1301.33 2.80744 4.75276 0
M  V30 13534 H 1301.81 1.19496 4.22631 0
M  V30 13535 H 1302.41 2.6195 3.35056 0
M  V30 13536 N 1300.73 -1.01913 1.20215 0
M  V30 13537 C 1301.96 -1.78817 1.0348 0
M  V30 13538 C 1302.37 -1.84499 -0.419152 0
M  V30 13539 O 1301.71 -1.29506 -1.30284 0
M  V30 13540 C 1301.77 -3.24858 1.53973 0
M  V30 13541 C 1301.44 -3.42788 3.02234 0
M  V30 13542 C 1302.43 -3.32213 3.99914 0
M  V30 13543 C 1300.12 -3.68687 3.41138 0
M  V30 13544 C 1302.11 -3.47276 5.34489 0
M  V30 13545 C 1299.8 -3.83394 4.7587 0
M  V30 13546 C 1300.8 -3.72693 5.72354 0
M  V30 13547 O 1300.48 -3.86953 7.04643 0
M  V30 13548 H 1300.22 -0.569268 0.364568 0
M  V30 13549 H 1302.77 -1.29184 1.59689 0
M  V30 13550 H 1301 -3.7556 0.921478 0
M  V30 13551 H 1302.69 -3.83388 1.33297 0
M  V30 13552 H 1303.46 -3.12145 3.71202 0
M  V30 13553 H 1299.33 -3.76104 2.66583 0
M  V30 13554 H 1302.88 -3.3884 6.09782 0
M  V30 13555 H 1298.78 -4.02962 5.04273 0
M  V30 13556 H 1299.54 -4.03986 7.11855 0
M  V30 13557 N 1302.21 -1.00763 -1.2118 0
M  V30 13558 C 1303.45 -0.690459 -1.8994 0
M  V30 13559 C 1303.78 0.781464 -1.78656 0
M  V30 13560 O 1303.05 1.56135 -1.18316 0
M  V30 13561 H 1301.63 -0.252397 -0.703068 0
M  V30 13562 H 1304.29 -1.2773 -1.47211 0
M  V30 13563 H 1303.38 -0.96594 -2.96776 0
M  V30 13564 N 1303.68 1.3679 -0.7827 0
M  V30 13565 C 1304.93 1.99417 -0.352011 0
M  V30 13566 C 1305.26 1.62127 1.07448 0
M  V30 13567 O 1304.51 0.864449 1.75573 0
M  V30 13568 C 1304.81 3.54489 -0.455232 0
M  V30 13569 C 1304.48 4.11579 -1.84156 0
M  V30 13570 C 1303.14 4.26884 -2.22089 0
M  V30 13571 C 1305.49 4.4277 -2.74962 0
M  V30 13572 C 1302.82 4.70688 -3.50243 0
M  V30 13573 C 1305.17 4.88003 -4.02537 0
M  V30 13574 C 1303.84 5.01513 -4.40501 0
M  V30 13575 H 1303.11 0.729718 -0.12881 0
M  V30 13576 H 1305.75 1.63386 -0.998856 0
M  V30 13577 H 1304.06 3.90833 0.275129 0
M  V30 13578 H 1305.76 4.00867 -0.103127 0
M  V30 13579 H 1302.35 4.00102 -1.53677 0
M  V30 13580 H 1306.53 4.30521 -2.46912 0
M  V30 13581 H 1301.79 4.79335 -3.79537 0
M  V30 13582 H 1305.96 5.11102 -4.73019 0
M  V30 13583 H 1303.59 5.35214 -5.39861 0
M  V30 13584 N 1305.16 0.53415 1.48272 0
M  V30 13585 C 1306.41 0.00156948 2.021 0
M  V30 13586 C 1306.73 -1.34371 1.41313 0
M  V30 13587 O 1306 -1.87117 0.579996 0
M  V30 13588 H 1304.58 -0.00240789 0.746996 0
M  V30 13589 H 1307.24 0.698928 1.81937 0
M  V30 13590 H 1306.34 -0.103671 3.11928 0
M  V30 13591 N 1306.64 -1.55279 0.269478 0
M  V30 13592 C 1307.59 -2.18984 -0.634838 0
M  V30 13593 C 1308.57 -1.15269 -1.12258 0
M  V30 13594 O 1309.77 -1.41103 -1.0686 0
M  V30 13595 C 1306.9 -2.91014 -1.82114 0
M  V30 13596 C 1305.98 -4.02011 -1.35084 0
M  V30 13597 N 1306.37 -5.02273 -0.596299 0
M  V30 13598 C 1304.67 -4.14979 -1.63427 0
M  V30 13599 C 1305.37 -5.80647 -0.349781 0
M  V30 13600 N 1304.35 -5.35749 -0.92057 0
M  V30 13601 H 1308.15 -2.93857 -0.0504516 0
M  V30 13602 H 1305.66 -1.62237 0.0727843 0
M  V30 13603 H 1307.66 -3.35098 -2.48022 0
M  V30 13604 H 1306.32 -2.1765 -2.40953 0
M  V30 13605 H 1307.33 -5.17324 -0.244188 0
M  V30 13606 H 1304.01 -3.52802 -2.23242 0
M  V30 13607 H 1305.4 -6.71419 0.254139 0
M  V30 13608 N 1308.12 0.00332656 -1.576 0
M  V30 13609 C 1309.05 1.02391 -2.05058 0
M  V30 13610 C 1310.06 1.30903 -0.967901 0
M  V30 13611 O 1311.25 1.27937 -1.24476 0
M  V30 13612 C 1308.35 2.35947 -2.43274 0
M  V30 13613 C 1307.53 2.26423 -3.74234 0
M  V30 13614 C 1306.58 3.4264 -3.99355 0
M  V30 13615 O 1305.61 3.20977 -4.70067 0
M  V30 13616 N 1306.81 4.65379 -3.46991 0
M  V30 13617 H 1309.58 0.619216 -2.93233 0
M  V30 13618 H 1307.14 0.190777 -1.60772 0
M  V30 13619 H 1309.13 3.12462 -2.57196 0
M  V30 13620 H 1307.7 2.6817 -1.60635 0
M  V30 13621 H 1306.92 1.34841 -3.70421 0
M  V30 13622 H 1308.21 2.17229 -4.60097 0
M  V30 13623 H 1307.61 4.85878 -2.89723 0
M  V30 13624 H 1306.16 5.39171 -3.66249 0
M  V30 13625 N 1309.6 1.55164 0.276031 0
M  V30 13626 C 1310.54 1.88623 1.36104 0
M  V30 13627 C 1311.54 0.762265 1.51281 0
M  V30 13628 O 1312.74 0.946573 1.53101 0
M  V30 13629 H 1309.12 0.59863 0.455133 0
M  V30 13630 H 1311.09 2.79266 1.05134 0
M  V30 13631 C 1309.84 2.17207 2.71508 0
M  V30 13632 H 1309.16 3.03179 2.6062 0
M  V30 13633 H 1310.6 2.44541 3.46375 0
M  V30 13634 C 1309.06 0.978671 3.22372 0
M  V30 13635 O 1309.59 0.211766 4.01141 0
M  V30 13636 N 1307.8 0.777199 2.80014 0
M  V30 13637 H 1307.34 1.40252 2.16072 0
M  V30 13638 H 1307.3 -0.0196754 3.14394 0
M  V30 13639 N 1311.07 -0.540404 1.48045 0
M  V30 13640 C 1312.02 -1.64598 1.61791 0
M  V30 13641 C 1312.99 -1.59595 0.460301 0
M  V30 13642 O 1314.18 -1.78176 0.682482 0
M  V30 13643 C 1311.32 -3.02887 1.65389 0
M  V30 13644 C 1310.43 -3.18202 2.92184 0
M  V30 13645 C 1309.56 -4.46989 2.87009 0
M  V30 13646 C 1308.6 -4.55795 4.08555 0
M  V30 13647 N 1307.74 -5.75958 4.01518 0
M  V30 13648 H 1312.58 -1.52188 2.56208 0
M  V30 13649 H 1310.12 -0.741097 1.27068 0
M  V30 13650 H 1312.08 -3.82988 1.65457 0
M  V30 13651 H 1310.71 -3.14092 0.744703 0
M  V30 13652 H 1309.76 -2.31422 3.01907 0
M  V30 13653 H 1311.07 -3.20571 3.82146 0
M  V30 13654 H 1310.22 -5.35369 2.85421 0
M  V30 13655 H 1308.96 -4.47125 1.94759 0
M  V30 13656 H 1307.97 -3.65824 4.1043 0
M  V30 13657 H 1309.19 -4.57406 5.01953 0
M  V30 13658 H 1307.14 -5.77011 3.12081 0
M  V30 13659 H 1307.06 -5.79777 4.85175 0
M  V30 13660 H 1308.32 -6.66653 4.03972 0
M  V30 13661 N 1312.55 -1.36459 -0.788468 0
M  V30 13662 C 1313.52 -1.3071 -1.88275 0
M  V30 13663 C 1314.52 -0.214596 -1.59362 0
M  V30 13664 O 1315.71 -0.469437 -1.67756 0
M  V30 13665 C 1312.84 -1.02648 -3.25079 0
M  V30 13666 H 1314.03 -2.28029 -1.94788 0
M  V30 13667 H 1311.58 -1.21245 -0.986375 0
M  V30 13668 H 1312.32 -0.0578992 -3.24248 0
M  V30 13669 H 1312.1 -1.81708 -3.47454 0
M  V30 13670 H 1313.59 -1.01233 -4.05144 0
M  V30 13671 N 1314.03 1.01274 -1.20754 0
M  V30 13672 C 1315.28 1.75191 -1.02156 0
M  V30 13673 C 1315.61 1.89038 0.444791 0
M  V30 13674 O 1314.88 1.41903 1.33018 0
M  V30 13675 C 1315.17 3.16892 -1.71031 0
M  V30 13676 C 1315.02 3.10816 -3.25136 0
M  V30 13677 C 1316.34 4.15648 -1.44654 0
M  V30 13678 H 1313.46 0.635922 -0.372521 0
M  V30 13679 H 1316.1 1.18119 -1.48822 0
M  V30 13680 H 1314.25 3.6562 -1.31357 0
M  V30 13681 H 1315.92 2.69863 -3.74128 0
M  V30 13682 H 1314.17 2.48113 -3.5584 0
M  V30 13683 H 1314.84 4.11001 -3.68487 0
M  V30 13684 H 1317.31 3.75592 -1.7908 0
M  V30 13685 H 1316.19 5.12954 -1.95371 0
M  V30 13686 H 1316.45 4.40507 -0.37494 0
M  V30 13687 N 1315.51 1.01404 1.20644 0
M  V30 13688 C 1316.74 0.719995 1.93648 0
M  V30 13689 C 1317.15 -0.722872 1.74846 0
M  V30 13690 O 1316.49 -1.50172 1.05802 0
M  V30 13691 C 1316.55 0.972637 3.46092 0
M  V30 13692 C 1316.22 2.40412 3.88653 0
M  V30 13693 C 1317.21 3.38481 3.94622 0
M  V30 13694 C 1314.9 2.74418 4.20714 0
M  V30 13695 C 1316.89 4.68619 4.32059 0
M  V30 13696 C 1314.58 4.04769 4.57826 0
M  V30 13697 C 1315.58 5.01681 4.63471 0
M  V30 13698 O 1315.27 6.297 4.99733 0
M  V30 13699 H 1315 0.263849 0.622382 0
M  V30 13700 H 1317.55 1.35741 1.54154 0
M  V30 13701 H 1315.78 0.278057 3.85699 0
M  V30 13702 H 1317.47 0.670572 4.00323 0
M  V30 13703 H 1318.24 3.13545 3.7002 0
M  V30 13704 H 1314.12 1.99675 4.15513 0
M  V30 13705 H 1317.66 5.4426 4.3638 0
M  V30 13706 H 1313.56 4.29486 4.81884 0
M  V30 13707 H 1314.32 6.3395 5.17735 0
M  V30 13708 N 1316.99 -1.36373 0.789944 0
M  V30 13709 C 1318.22 -2.03482 0.37453 0
M  V30 13710 C 1318.63 -1.59562 -1.00923 0
M  V30 13711 O 1317.99 -0.785289 -1.64741 0
M  V30 13712 C 1318.04 -3.58942 0.429255 0
M  V30 13713 O 1317.76 -4.01261 1.75845 0
M  V30 13714 C 1319.26 -4.433 0.00453729 0
M  V30 13715 H 1316.48 -0.653019 0.154295 0
M  V30 13716 H 1319.02 -1.74339 1.06894 0
M  V30 13717 H 1317.18 -3.86793 -0.21674 0
M  V30 13718 H 1317.59 -4.95854 1.70964 0
M  V30 13719 H 1319.07 -5.5192 0.0939653 0
M  V30 13720 H 1319.54 -4.26509 -1.04816 0
M  V30 13721 H 1320.15 -4.20712 0.623041 0
M  V30 13722 N 1318.47 -0.542005 -1.47987 0
M  V30 13723 C 1319.43 0.203537 -2.28294 0
M  V30 13724 C 1320.43 0.856762 -1.36074 0
M  V30 13725 O 1321.62 0.71496 -1.58852 0
M  V30 13726 C 1318.75 1.29581 -3.15312 0
M  V30 13727 H 1319.94 -0.501701 -2.95674 0
M  V30 13728 H 1317.5 -0.298378 -1.53426 0
M  V30 13729 H 1318.23 2.03393 -2.5259 0
M  V30 13730 H 1318.02 0.832398 -3.83163 0
M  V30 13731 H 1319.51 1.81988 -3.75859 0
M  V30 13732 N 1319.94 1.55134 -0.277709 0
M  V30 13733 C 1321.19 1.99259 0.337662 0
M  V30 13734 C 1321.51 1.16755 1.56183 0
M  V30 13735 O 1320.78 0.257707 1.94198 0
M  V30 13736 H 1319.36 0.735995 0.127751 0
M  V30 13737 H 1322.02 1.91087 -0.383646 0
M  V30 13738 H 1321.12 3.05763 0.625747 0
M  V30 13739 N 1321.42 0.00503138 1.57599 0
M  V30 13740 C 1322.65 -0.688609 1.94786 0
M  V30 13741 C 1323.06 -1.67558 0.878698 0
M  V30 13742 O 1322.4 -1.83083 -0.150486 0
M  V30 13743 C 1322.46 -1.47183 3.2799 0
M  V30 13744 C 1322.13 -0.64589 4.52413 0
M  V30 13745 C 1323.13 0.0685859 5.19855 0
M  V30 13746 C 1320.81 -0.590379 4.98818 0
M  V30 13747 C 1322.8 0.827505 6.32006 0
M  V30 13748 C 1320.49 0.172262 6.10857 0
M  V30 13749 C 1321.49 0.879932 6.77308 0
M  V30 13750 O 1321.18 1.63012 7.87199 0
M  V30 13751 H 1320.91 -0.196416 0.646836 0
M  V30 13752 H 1323.46 0.0537933 2.0533 0
M  V30 13753 H 1321.69 -2.25883 3.13869 0
M  V30 13754 H 1323.38 -2.05129 3.50253 0
M  V30 13755 H 1324.15 0.0348834 4.84987 0
M  V30 13756 H 1320.03 -1.13074 4.46918 0
M  V30 13757 H 1323.57 1.3804 6.83806 0
M  V30 13758 H 1319.47 0.207767 6.45166 0
M  V30 13759 H 1320.24 1.54736 8.03741 0
M  V30 13760 N 1322.9 -1.55308 -0.267798 0
M  V30 13761 C 1323.85 -1.88544 -1.33115 0
M  V30 13762 C 1324.82 -0.737465 -1.48831 0
M  V30 13763 O 1326 -0.989215 -1.63154 0
M  V30 13764 C 1323.14 -2.1674 -2.68547 0
M  V30 13765 C 1322.25 -3.44234 -2.61011 0
M  V30 13766 C 1321.39 -3.62104 -3.88657 0
M  V30 13767 C 1320.43 -4.83272 -3.75652 0
M  V30 13768 N 1319.57 -4.97772 -4.95144 0
M  V30 13769 H 1324.41 -2.79237 -1.04071 0
M  V30 13770 H 1321.94 -1.38245 -0.502677 0
M  V30 13771 H 1323.9 -2.31088 -3.47353 0
M  V30 13772 H 1322.53 -1.29276 -2.95783 0
M  V30 13773 H 1321.58 -3.3833 -1.73887 0
M  V30 13774 H 1322.89 -4.33177 -2.47303 0
M  V30 13775 H 1322.05 -3.76298 -4.75904 0
M  V30 13776 H 1320.79 -2.71356 -4.05238 0
M  V30 13777 H 1319.79 -4.69076 -2.86788 0
M  V30 13778 H 1321.02 -5.75461 -3.60585 0
M  V30 13779 H 1318.96 -4.09956 -5.12125 0
M  V30 13780 H 1318.88 -5.80769 -4.83987 0
M  V30 13781 H 1320.15 -5.16357 -5.83949 0
M  V30 13782 N 1324.38 0.532545 -1.4833 0
M  V30 13783 C 1325.63 1.28498 -1.55471 0
M  V30 13784 C 1325.94 1.94214 -0.232412 0
M  V30 13785 O 1327.15 2.70889 -0.182044 0
M  V30 13786 C 1325.6 2.33144 -2.74175 0
M  V30 13787 C 1325.21 1.73508 -4.13036 0
M  V30 13788 C 1326.95 3.09413 -2.90627 0
M  V30 13789 C 1324.86 2.76079 -5.23005 0
M  V30 13790 H 1323.79 0.483253 -0.578777 0
M  V30 13791 H 1326.44 0.562744 -1.74658 0
M  V30 13792 H 1324.82 3.08391 -2.48417 0
M  V30 13793 H 1326 1.04466 -4.48802 0
M  V30 13794 H 1324.31 1.0974 -4.01679 0
M  V30 13795 H 1326.91 3.86056 -3.69953 0
M  V30 13796 H 1327.25 3.65118 -1.99987 0
M  V30 13797 H 1327.79 2.4128 -3.16274 0
M  V30 13798 H 1324.52 2.25197 -6.15602 0
M  V30 13799 H 1324.04 3.43456 -4.9173 0
M  V30 13800 H 1325.72 3.39113 -5.51009 0
M  V30 13801 N 1325.86 1.36875 0.78122 0
M  V30 13802 C 1327.1 1.32949 1.55254 0
M  V30 13803 C 1327.46 -0.0879862 1.91798 0
M  V30 13804 O 1328.66 -0.251878 2.67617 0
M  V30 13805 C 1326.93 2.23382 2.78989 0
M  V30 13806 S 1328.49 2.37218 3.69152 0
M  V30 13807 H 1325.31 0.472105 0.531637 0
M  V30 13808 H 1327.91 1.72529 0.91945 0
M  V30 13809 H 1326.61 3.25307 2.50207 0
M  V30 13810 H 1326.15 1.84852 3.47266 0
M  V30 13811 H 1328.16 1.57575 4.70515 0
M  V30 13812 N 1327.33 -1.00632 1.21289 0
M  V30 13813 C 1328.28 -2.11502 0.96798 0
M  V30 13814 C 1329.28 -1.6919 -0.0843024 0
M  V30 13815 O 1330.48 -1.79875 0.06697 0
M  V30 13816 H 1326.86 -0.691398 0.295759 0
M  V30 13817 H 1328.83 -2.29337 1.90911 0
M  V30 13818 C 1327.58 -3.43357 0.547818 0
M  V30 13819 H 1326.9 -3.76348 1.34915 0
M  V30 13820 H 1328.34 -4.21957 0.415759 0
M  V30 13821 C 1326.8 -3.28648 -0.741086 0
M  V30 13822 O 1327.33 -3.59267 -1.79695 0
M  V30 13823 N 1325.53 -2.81866 -0.707084 0
M  V30 13824 H 1325.08 -2.57149 0.152447 0
M  V30 13825 H 1325.04 -2.72406 -1.56979 0
M  V30 13826 N 1328.81 -1.02043 -1.20104 0
M  V30 13827 C 1330.04 -0.730255 -1.93264 0
M  V30 13828 C 1330.45 0.71359 -1.75227 0
M  V30 13829 O 1329.79 1.49609 -1.06597 0
M  V30 13830 C 1329.85 -0.990978 -3.45572 0
M  V30 13831 C 1329.52 -2.4247 -3.87373 0
M  V30 13832 C 1330.52 -3.40569 -3.92822 0
M  V30 13833 C 1328.2 -2.76645 -4.19253 0
M  V30 13834 C 1330.19 -4.70904 -4.29568 0
M  V30 13835 C 1327.88 -4.07192 -4.55673 0
M  V30 13836 C 1328.88 -5.04132 -4.60804 0
M  V30 13837 O 1328.57 -6.32341 -4.96386 0
M  V30 13838 H 1328.3 -0.267146 -0.620974 0
M  V30 13839 H 1330.85 -1.36557 -1.53432 0
M  V30 13840 H 1329.08 -0.298508 -3.85546 0
M  V30 13841 H 1330.77 -0.691793 -3.99961 0
M  V30 13842 H 1331.54 -3.15503 -3.68352 0
M  V30 13843 H 1327.42 -2.01876 -4.14448 0
M  V30 13844 H 1330.96 -5.46566 -4.33487 0
M  V30 13845 H 1326.86 -4.32035 -4.796 0
M  V30 13846 H 1327.63 -6.36687 -5.14365 0
M  V30 13847 N 1330.29 1.35952 -0.797165 0
M  V30 13848 C 1331.24 2.27336 -0.173856 0
M  V30 13849 C 1332.22 1.47328 0.646778 0
M  V30 13850 O 1333.42 1.69626 0.505581 0
M  V30 13851 C 1330.55 3.36411 0.684297 0
M  V30 13852 C 1329.63 4.2385 -0.145551 0
M  V30 13853 N 1330.02 4.91263 -1.20391 0
M  V30 13854 C 1328.32 4.45938 0.074359 0
M  V30 13855 C 1329.02 5.56006 -1.70974 0
M  V30 13856 N 1328 5.33989 -1.0177 0
M  V30 13857 H 1331.8 2.76945 -0.983794 0
M  V30 13858 H 1329.31 1.49369 -0.637388 0
M  V30 13859 H 1331.31 4.00817 1.14681 0
M  V30 13860 H 1329.97 2.88355 1.49269 0
M  V30 13861 H 1330.98 4.93004 -1.58644 0
M  V30 13862 H 1327.66 4.08701 0.852644 0
M  V30 13863 H 1329.05 6.19818 -2.59375 0
M  V30 13864 N 1331.77 0.549846 1.47697 0
M  V30 13865 C 1332.7 -0.190364 2.32723 0
M  V30 13866 C 1333.68 -0.915933 1.43334 0
M  V30 13867 O 1334.86 -0.897838 1.72199 0
M  V30 13868 C 1331.99 -1.22545 3.24961 0
M  V30 13869 C 1330.95 -0.616805 4.23532 0
M  V30 13870 C 1330.27 -1.75599 5.05044 0
M  V30 13871 C 1331.57 0.424595 5.20571 0
M  V30 13872 H 1333.27 0.519461 2.94859 0
M  V30 13873 H 1330.81 0.251259 1.41791 0
M  V30 13874 H 1332.77 -1.75139 3.83281 0
M  V30 13875 H 1331.49 -1.96512 2.60865 0
M  V30 13876 H 1330.15 -0.112224 3.66428 0
M  V30 13877 H 1329.8 -2.48453 4.37356 0
M  V30 13878 H 1329.5 -1.35456 5.71774 0
M  V30 13879 H 1331.02 -2.28533 5.6622 0
M  V30 13880 H 1332.44 -0.0150025 5.73298 0
M  V30 13881 H 1330.83 0.7445 5.95464 0
M  V30 13882 H 1331.9 1.32318 4.66497 0
M  V30 13883 N 1333.25 -1.54984 0.285932 0
M  V30 13884 C 1334.21 -2.2164 -0.583824 0
M  V30 13885 C 1335.21 -1.19764 -1.073 0
M  V30 13886 O 1336.4 -1.44598 -0.971439 0
M  V30 13887 C 1333.53 -2.8909 -1.80665 0
M  V30 13888 H 1334.72 -2.999 -0.00168109 0
M  V30 13889 H 1332.28 -1.56257 0.0366325 0
M  V30 13890 H 1333.01 -2.14869 -2.42903 0
M  V30 13891 H 1332.8 -3.63756 -1.4637 0
M  V30 13892 H 1334.29 -3.39982 -2.42491 0
M  V30 13893 N 1334.72 -0.0133892 -1.57594 0
M  V30 13894 C 1335.95 0.679255 -1.95432 0
M  V30 13895 C 1336.37 1.66558 -0.889028 0
M  V30 13896 O 1335.72 1.82031 0.130755 0
M  V30 13897 C 1335.78 1.39943 -3.33314 0
M  V30 13898 O 1335.5 0.452643 -4.35755 0
M  V30 13899 C 1337 2.18535 -3.85691 0
M  V30 13900 H 1334.22 0.188337 -0.644026 0
M  V30 13901 H 1336.76 -0.0684861 -2.04385 0
M  V30 13902 H 1334.92 2.0987 -3.25628 0
M  V30 13903 H 1335.33 0.962243 -5.15598 0
M  V30 13904 H 1336.8 2.64403 -4.84557 0
M  V30 13905 H 1337.28 3.01779 -3.19102 0
M  V30 13906 H 1337.89 1.53598 -3.96595 0
M  V30 13907 N 1336.2 1.55448 0.259558 0
M  V30 13908 C 1337.13 1.85678 1.34373 0
M  V30 13909 C 1338.15 0.742155 1.449 0
M  V30 13910 O 1339.34 1.02015 1.46476 0
M  V30 13911 C 1336.44 2.01668 2.72366 0
M  V30 13912 C 1335.61 3.32434 2.84265 0
M  V30 13913 C 1334.67 3.38322 4.03019 0
M  V30 13914 O 1333.69 4.11616 3.93143 0
M  V30 13915 N 1334.9 2.66697 5.1561 0
M  V30 13916 H 1337.66 2.79261 1.08781 0
M  V30 13917 H 1335.22 1.5553 0.449672 0
M  V30 13918 H 1337.21 2.02963 3.50126 0
M  V30 13919 H 1335.78 1.14889 2.90722 0
M  V30 13920 H 1335 3.43564 1.93281 0
M  V30 13921 H 1336.29 4.18649 2.89155 0
M  V30 13922 H 1335.69 2.06857 5.26523 0
M  V30 13923 H 1334.25 2.73699 5.91551 0
M  V30 13924 N 1337.68 -0.524672 1.4861 0
M  V30 13925 C 1338.96 -1.28592 1.47389 0
M  V30 13926 C 1339.34 -2.10257 0.188482 0
M  V30 13927 O 1338.69 -2.12905 -0.829689 0
M  V30 13928 C 1338.9 -2.16284 2.73902 0
M  V30 13929 C 1340.24 -2.7625 3.22445 0
M  V30 13930 O 1341.27 -2.26567 2.74856 0
M  V30 13931 O 1340.13 -3.66635 4.05267 0
M  V30 13932 H 1337.22 -0.580666 0.58886 0
M  V30 13933 H 1339.77 -0.540888 1.60849 0
M  V30 13934 H 1338.54 -1.55757 3.58964 0
M  V30 13935 H 1338.16 -2.98024 2.63188 0
M  V30 13936 N 1339.16 -1.37287 -0.77395 0
M  V30 13937 C 1340.44 -1.2291 -1.52159 0
M  V30 13938 C 1340.82 0.178249 -2.10346 0
M  V30 13939 O 1340.16 1.18564 -1.95333 0
M  V30 13940 C 1340.37 -2.32337 -2.60424 0
M  V30 13941 C 1341.72 -2.69769 -3.27887 0
M  V30 13942 O 1342.75 -2.31497 -2.70717 0
M  V30 13943 O 1341.6 -3.35699 -4.31241 0
M  V30 13944 H 1338.7 -0.47948 -0.673816 0
M  V30 13945 H 1341.24 -1.49061 -0.811105 0
M  V30 13946 H 1340.02 -3.26591 -2.15532 0
M  V30 13947 H 1339.64 -2.07638 -3.39076 0
M  V30 13948 N 1340.64 0.999871 -1.21821 0
M  V30 13949 C 1341.57 2.10708 -1.00621 0
M  V30 13950 C 1342.55 1.69954 0.0705417 0
M  V30 13951 O 1343.73 1.9399 -0.0903042 0
M  V30 13952 C 1340.86 3.42496 -0.575646 0
M  V30 13953 C 1339.82 3.97068 -1.59754 0
M  V30 13954 C 1339.14 5.24822 -1.02304 0
M  V30 13955 C 1340.44 4.28545 -2.98574 0
M  V30 13956 H 1342.14 2.28701 -1.93226 0
M  V30 13957 H 1339.68 1.09903 -0.930443 0
M  V30 13958 H 1341.64 4.19357 -0.414481 0
M  V30 13959 H 1340.36 3.2431 0.386059 0
M  V30 13960 H 1339.02 3.22332 -1.74636 0
M  V30 13961 H 1338.67 5.02972 -0.0529016 0
M  V30 13962 H 1338.37 5.62299 -1.70567 0
M  V30 13963 H 1339.89 6.04322 -0.873312 0
M  V30 13964 H 1341.3 4.96229 -2.87106 0
M  V30 13965 H 1339.7 4.77178 -3.63897 0
M  V30 13966 H 1340.77 3.36607 -3.49032 0
M  V30 13967 N 1342.11 1.02678 1.19562 0
M  V30 13968 C 1343.05 0.563882 2.22155 0
M  V30 13969 C 1344.06 -0.359132 1.58789 0
M  V30 13970 O 1345.25 -0.155857 1.77818 0
M  V30 13971 C 1342.35 -0.197894 3.38322 0
M  V30 13972 C 1341.52 0.729542 4.31273 0
M  V30 13973 C 1340.58 0.013543 5.26198 0
M  V30 13974 O 1339.61 0.639417 5.65597 0
M  V30 13975 N 1340.81 -1.25791 5.66707 0
M  V30 13976 H 1343.57 1.44623 2.62496 0
M  V30 13977 H 1341.13 0.90555 1.34207 0
M  V30 13978 H 1343.13 -0.686381 3.98837 0
M  V30 13979 H 1341.7 -0.981632 2.96787 0
M  V30 13980 H 1340.92 1.39816 3.68572 0
M  V30 13981 H 1342.2 1.35994 4.90289 0
M  V30 13982 H 1341.6 -1.78716 5.36728 0
M  V30 13983 H 1340.16 -1.69093 6.29485 0
M  V30 13984 N 1343.59 -1.35528 0.804364 0
M  V30 13985 C 1344.54 -2.31728 0.20125 0
M  V30 13986 C 1345.53 -1.56527 -0.647751 0
M  V30 13987 O 1346.74 -1.71672 -0.541163 0
M  V30 13988 H 1343.12 -0.750572 0.0463165 0
M  V30 13989 H 1345.09 -2.80142 1.02777 0
M  V30 13990 C 1343.84 -3.41807 -0.637429 0
M  V30 13991 H 1343.16 -3.99799 0.00651699 0
M  V30 13992 H 1344.6 -4.11403 -1.02585 0
M  V30 13993 C 1343.06 -2.84655 -1.80202 0
M  V30 13994 O 1343.59 -2.78026 -2.89939 0
M  V30 13995 N 1341.79 -2.41735 -1.61285 0
M  V30 13996 H 1341.34 -2.47327 -0.720231 0
M  V30 13997 H 1341.3 -2.03844 -2.39364 0
M  V30 13998 N 1345.07 -0.557671 -1.47404 0
M  V30 13999 C 1346.03 0.179311 -2.28498 0
M  V30 14000 C 1347.03 0.842281 -1.36975 0
M  V30 14001 O 1348.22 0.698072 -1.59601 0
M  V30 14002 C 1345.36 1.26229 -3.16668 0
M  V30 14003 H 1346.55 -0.533033 -2.95125 0
M  V30 14004 H 1344.1 -0.314634 -1.531 0
M  V30 14005 H 1344.84 2.00702 -2.54733 0
M  V30 14006 H 1344.62 0.791712 -3.84024 0
M  V30 14007 H 1346.11 1.77991 -3.77768 0
M  V30 14008 N 1346.55 1.54831 -0.294147 0
M  V30 14009 C 1347.8 2.00298 0.317605 0
M  V30 14010 C 1348.13 1.18228 1.54064 0
M  V30 14011 O 1347.4 0.257034 1.92794 0
M  V30 14012 C 1347.69 3.53602 0.680991 0
M  V30 14013 C 1347.54 4.46416 -0.550711 0
M  V30 14014 C 1348.86 4.13379 1.51016 0
M  V30 14015 H 1345.98 0.728135 0.113965 0
M  V30 14016 H 1348.62 1.85636 -0.404883 0
M  V30 14017 H 1346.77 3.66227 1.29654 0
M  V30 14018 H 1348.44 4.45707 -1.18922 0
M  V30 14019 H 1346.68 4.17294 -1.18524 0
M  V30 14020 H 1347.36 5.51423 -0.252412 0
M  V30 14021 H 1349.83 4.04148 0.99012 0
M  V30 14022 H 1348.71 5.20818 1.73321 0
M  V30 14023 H 1348.97 3.64817 2.49722 0
M  V30 14024 N 1348.03 0.0217466 1.57585 0
M  V30 14025 C 1348.98 -0.980624 2.10918 0
M  V30 14026 C 1349.97 -1.34178 1.03406 0
M  V30 14027 O 1351.18 -1.32487 1.21849 0
M  V30 14028 H 1347.55 -0.333984 0.673764 0
M  V30 14029 H 1349.52 -0.505431 2.94088 0
M  V30 14030 C 1348.27 -2.25639 2.64542 0
M  V30 14031 H 1347.59 -1.98722 3.46914 0
M  V30 14032 H 1349.03 -2.94003 3.05513 0
M  V30 14033 C 1347.49 -2.98111 1.56945 0
M  V30 14034 O 1348.02 -3.89937 0.964975 0
M  V30 14035 N 1346.23 -2.60316 1.29166 0
M  V30 14036 H 1345.78 -1.85722 1.78508 0
M  V30 14037 H 1345.73 -3.09116 0.573987 0
M  V30 14038 N 1349.51 -1.55583 -0.251311 0
M  V30 14039 C 1350.75 -1.77471 -0.981418 0
M  V30 14040 C 1351.08 -0.586228 -1.85141 0
M  V30 14041 O 1350.36 0.415623 -1.90007 0
M  V30 14042 C 1350.64 -3.09204 -1.84567 0
M  V30 14043 C 1350.5 -4.38448 -1.00417 0
M  V30 14044 C 1351.81 -3.37133 -2.82895 0
M  V30 14045 H 1348.93 -0.645664 -0.355369 0
M  V30 14046 H 1351.58 -1.88318 -0.252228 0
M  V30 14047 H 1349.73 -3.00087 -2.46738 0
M  V30 14048 H 1351.4 -4.5955 -0.40149 0
M  V30 14049 H 1349.64 -4.32703 -0.308365 0
M  V30 14050 H 1350.31 -5.26995 -1.64258 0
M  V30 14051 H 1352.79 -3.46183 -2.3086 0
M  V30 14052 H 1351.66 -4.30531 -3.40491 0
M  V30 14053 H 1351.92 -2.57829 -3.59133 0
M  V30 14054 N 1350.98 0.516783 -1.48886 0
M  V30 14055 C 1351.92 1.63715 -1.58974 0
M  V30 14056 C 1352.89 1.56547 -0.439513 0
M  V30 14057 O 1354.08 1.76831 -0.652924 0
M  V30 14058 C 1351.21 3.02172 -1.53002 0
M  V30 14059 C 1350.25 3.27655 -2.73029 0
M  V30 14060 S 1351.08 3.12489 -4.34869 0
M  V30 14061 C 1352.24 4.53369 -4.31517 0
M  V30 14062 H 1352.47 1.5491 -2.53752 0
M  V30 14063 H 1350.01 0.700754 -1.37582 0
M  V30 14064 H 1351.96 3.82017 -1.50243 0
M  V30 14065 H 1350.63 3.08405 -0.59539 0
M  V30 14066 H 1349.82 4.28693 -2.65026 0
M  V30 14067 H 1349.42 2.55504 -2.73119 0
M  V30 14068 H 1351.71 5.45151 -4.02264 0
M  V30 14069 H 1352.66 4.66425 -5.32779 0
M  V30 14070 H 1353.06 4.3331 -3.61804 0
M  V30 14071 N 1352.46 1.37696 0.766659 0
M  V30 14072 C 1353.71 1.34388 1.5268 0
M  V30 14073 C 1354.06 -0.0697021 1.92274 0
M  V30 14074 O 1353.36 -1.02947 1.61593 0
M  V30 14075 C 1353.55 2.22154 2.79968 0
M  V30 14076 C 1353.38 3.71905 2.52817 0
M  V30 14077 C 1352.15 4.4099 2.4669 0
M  V30 14078 C 1354.35 4.64647 2.2047 0
M  V30 14079 N 1352.33 5.76252 2.11676 0
M  V30 14080 C 1353.7 5.88324 1.95639 0
M  V30 14081 C 1355.75 4.52982 2.06669 0
M  V30 14082 C 1354.46 7.01643 1.58399 0
M  V30 14083 C 1356.48 5.6619 1.7083 0
M  V30 14084 C 1355.85 6.8892 1.46861 0
M  V30 14085 H 1351.94 0.547046 0.558806 0
M  V30 14086 H 1354.53 1.72964 0.893954 0
M  V30 14087 H 1352.7 1.85788 3.41083 0
M  V30 14088 H 1354.43 2.10068 3.4591 0
M  V30 14089 H 1351.19 3.94051 2.62718 0
M  V30 14090 H 1351.61 6.47749 1.96852 0
M  V30 14091 H 1356.25 3.58661 2.2388 0
M  V30 14092 H 1353.97 7.95893 1.39926 0
M  V30 14093 H 1357.56 5.59137 1.60802 0
M  V30 14094 H 1356.44 7.75035 1.1954 0
M  V30 14095 N 1353.94 -0.993397 1.22349 0
M  V30 14096 C 1355.16 -1.77373 1.07488 0
M  V30 14097 C 1355.59 -1.84418 -0.37034 0
M  V30 14098 O 1354.95 -1.29629 -1.26752 0
M  V30 14099 C 1355 -3.18538 1.69014 0
M  V30 14100 O 1354.1 -4.01463 0.943474 0
M  V30 14101 H 1353.44 -0.546209 0.37756 0
M  V30 14102 H 1355.97 -1.24792 1.62136 0
M  V30 14103 H 1355.98 -3.6917 1.73717 0
M  V30 14104 H 1354.66 -3.12725 2.74182 0
M  V30 14105 H 1353.23 -3.59998 0.972415 0
M  V30 14106 N 1355.42 -1.03311 -1.19015 0
M  V30 14107 C 1356.83 -0.750946 -1.4083 0
M  V30 14108 C 1357.03 0.662704 -1.90291 0
M  V30 14109 O 1356.09 1.42806 -2.08237 0
M  V30 14110 C 1357.4 -1.79064 -2.41571 0
M  V30 14111 C 1358.95 -1.81068 -2.55311 0
M  V30 14112 C 1359.43 -2.84008 -3.59309 0
M  V30 14113 N 1360.92 -2.82852 -3.6681 0
M  V30 14114 C 1361.65 -3.59156 -4.46984 0
M  V30 14115 N 1361.15 -4.45188 -5.30829 0
M  V30 14116 N 1362.94 -3.47679 -4.41674 0
M  V30 14117 H 1355.09 -1.94548 -0.852329 0
M  V30 14118 H 1357.35 -0.841344 -0.436858 0
M  V30 14119 H 1357.06 -2.80425 -2.12261 0
M  V30 14120 H 1356.93 -1.61646 -3.40809 0
M  V30 14121 H 1359.32 -0.803825 -2.83941 0
M  V30 14122 H 1359.4 -2.02562 -1.56212 0
M  V30 14123 H 1359.05 -3.84867 -3.3142 0
M  V30 14124 H 1358.98 -2.59771 -4.58069 0
M  V30 14125 H 1361.47 -2.20457 -3.06932 0
M  V30 14126 H 1361.78 -5.00139 -5.89135 0
M  V30 14127 H 1360.13 -4.49259 -5.30275 0
M  V30 14128 H 1363.32 -2.79876 -3.75216 0
M  V30 14129 H 1363.49 -4.07396 -5.03917 0
M  V30 14130 N 1356.9 1.35099 -0.81154 0
M  V30 14131 C 1358.17 1.93009 -0.317289 0
M  V30 14132 C 1358.55 1.74101 1.19382 0
M  V30 14133 O 1357.9 1.11295 1.99564 0
M  V30 14134 C 1358.11 3.41191 -0.734123 0
M  V30 14135 C 1359.46 4.1834 -0.726437 0
M  V30 14136 O 1360.48 3.49727 -0.67598 0
M  V30 14137 O 1359.34 5.4077 -0.789291 0
M  V30 14138 H 1356.44 0.822707 -0.084153 0
M  V30 14139 H 1358.98 1.44145 -0.895569 0
M  V30 14140 H 1357.75 3.48705 -1.7754 0
M  V30 14141 H 1357.38 3.97384 -0.130919 0
M  V30 14142 N 1358.37 0.56548 1.47106 0
M  V30 14143 C 1359.3 -0.16567 2.32912 0
M  V30 14144 C 1360.28 -0.900678 1.44298 0
M  V30 14145 O 1361.47 -0.879523 1.73142 0
M  V30 14146 C 1358.6 -1.19092 3.26243 0
M  V30 14147 C 1357.55 -0.571849 4.24163 0
M  V30 14148 C 1356.88 -1.70233 5.06878 0
M  V30 14149 C 1358.18 0.479785 5.20092 0
M  V30 14150 H 1359.87 0.550705 2.94292 0
M  V30 14151 H 1357.42 0.266284 1.41517 0
M  V30 14152 H 1359.37 -1.71064 3.85117 0
M  V30 14153 H 1358.1 -1.93734 2.62934 0
M  V30 14154 H 1356.76 -0.073353 3.66527 0
M  V30 14155 H 1356.4 -2.438 4.39967 0
M  V30 14156 H 1356.1 -1.29384 5.73178 0
M  V30 14157 H 1357.63 -2.22515 5.68612 0
M  V30 14158 H 1359.04 0.0458042 5.73282 0
M  V30 14159 H 1357.44 0.807615 5.94641 0
M  V30 14160 H 1358.51 1.37259 4.65068 0
M  V30 14161 N 1359.85 -1.54672 0.302354 0
M  V30 14162 C 1360.78 -2.2653 -0.566265 0
M  V30 14163 C 1361.76 -1.26532 -1.13682 0
M  V30 14164 O 1362.95 -1.55307 -1.1659 0
M  V30 14165 C 1360.08 -3.00709 -1.73757 0
M  V30 14166 C 1359.03 -4.07865 -1.29731 0
M  V30 14167 C 1358.36 -4.69767 -2.55388 0
M  V30 14168 C 1359.66 -5.20547 -0.427567 0
M  V30 14169 H 1361.35 -2.99382 0.033071 0
M  V30 14170 H 1358.9 -1.4399 0.0173458 0
M  V30 14171 H 1360.85 -3.497 -2.35134 0
M  V30 14172 H 1359.58 -2.25437 -2.36317 0
M  V30 14173 H 1358.23 -3.59726 -0.706586 0
M  V30 14174 H 1357.88 -3.91134 -3.16265 0
M  V30 14175 H 1357.58 -5.42137 -2.26631 0
M  V30 14176 H 1359.11 -5.21521 -3.17566 0
M  V30 14177 H 1360.52 -5.65424 -0.947053 0
M  V30 14178 H 1358.92 -5.99645 -0.233704 0
M  V30 14179 H 1359.99 -4.81805 0.546993 0
M  V30 14180 N 1361.33 -0.0301034 -1.57571 0
M  V30 14181 C 1362.58 0.649283 -1.92125 0
M  V30 14182 C 1362.91 1.71722 -0.90692 0
M  V30 14183 O 1362.18 1.94373 0.0702019 0
M  V30 14184 C 1362.47 1.26482 -3.37156 0
M  V30 14185 C 1362.32 0.206375 -4.49326 0
M  V30 14186 C 1363.64 2.18256 -3.82168 0
M  V30 14187 H 1360.76 0.234561 -0.698678 0
M  V30 14188 H 1363.4 -0.0875634 -1.89798 0
M  V30 14189 H 1361.55 1.89283 -3.3927 0
M  V30 14190 H 1363.22 -0.424268 -4.59345 0
M  V30 14191 H 1361.47 -0.468035 -4.31268 0
M  V30 14192 H 1362.14 0.676689 -5.47837 0
M  V30 14193 H 1364.61 1.65441 -3.81797 0
M  V30 14194 H 1363.49 2.58277 -4.84339 0
M  V30 14195 H 1363.75 3.07411 -3.17727 0
M  V30 14196 N 1362.81 1.55714 0.243056 0
M  V30 14197 C 1364.04 1.81786 0.98801 0
M  V30 14198 C 1364.45 0.606352 1.78798 0
M  V30 14199 O 1363.81 -0.425018 1.77482 0
M  V30 14200 C 1363.86 3.06121 1.92281 0
M  V30 14201 O 1363.58 4.22595 1.15521 0
M  V30 14202 C 1365.08 3.45021 2.78344 0
M  V30 14203 H 1362.3 0.604829 0.290557 0
M  V30 14204 H 1364.85 2.02779 0.26478 0
M  V30 14205 H 1363 2.87167 2.60027 0
M  V30 14206 H 1363.41 4.93088 1.78786 0
M  V30 14207 H 1364.89 4.35112 3.39678 0
M  V30 14208 H 1365.37 2.65782 3.49652 0
M  V30 14209 H 1365.97 3.66339 2.16045 0
M  V30 14210 N 1364.29 -0.50888 1.49158 0
M  V30 14211 C 1365.2 -1.63782 1.67966 0
M  V30 14212 C 1366.21 -1.64667 0.562207 0
M  V30 14213 O 1367.39 -1.83232 0.835935 0
M  V30 14214 C 1364.45 -3.00179 1.73474 0
M  V30 14215 C 1363.51 -3.09983 2.97 0
M  V30 14216 C 1362.75 -4.39875 3.02235 0
M  V30 14217 O 1362.97 -5.28214 2.15282 0
M  V30 14218 O 1361.9 -4.54486 3.94621 0
M  V30 14219 H 1365.73 -1.50846 2.63589 0
M  V30 14220 H 1363.32 -0.684306 1.32807 0
M  V30 14221 H 1365.2 -3.8126 1.79495 0
M  V30 14222 H 1363.87 -3.13394 0.810287 0
M  V30 14223 H 1362.78 -2.28119 2.965 0
M  V30 14224 H 1364.11 -3.01693 3.88899 0
M  V30 14225 N 1365.76 -1.381 -0.759346 0
M  V30 14226 C 1366.99 -1.37389 -1.55367 0
M  V30 14227 C 1367.41 0.0356097 -1.88066 0
M  V30 14228 O 1366.77 1.0161 -1.5015 0
M  V30 14229 C 1366.82 -2.23098 -2.83302 0
M  V30 14230 O 1365.92 -1.64412 -3.7821 0
M  V30 14231 H 1365.27 -0.468894 -0.470143 0
M  V30 14232 H 1367.8 -1.81787 -0.938858 0
M  V30 14233 H 1367.81 -2.36753 -3.32283 0
M  V30 14234 H 1366.48 -3.25544 -2.58831 0
M  V30 14235 H 1365.06 -1.59867 -3.36893 0
M  V30 14236 N 1367.24 0.986894 -1.22875 0
M  V30 14237 C 1368.66 1.25185 -0.989997 0
M  V30 14238 C 1368.86 1.99057 0.31282 0
M  V30 14239 O 1367.91 2.30361 1.03392 0
M  V30 14240 C 1369.23 2.05775 -2.19265 0
M  V30 14241 C 1370.78 2.18938 -2.23686 0
M  V30 14242 C 1371.25 3.02917 -3.43519 0
M  V30 14243 N 1372.74 3.10503 -3.43718 0
M  V30 14244 C 1373.48 3.75789 -4.33094 0
M  V30 14245 N 1372.97 4.42952 -5.32696 0
M  V30 14246 N 1374.77 3.72611 -4.20854 0
M  V30 14247 H 1366.92 0.491816 -2.06628 0
M  V30 14248 H 1369.18 0.279856 -0.905751 0
M  V30 14249 H 1368.89 1.58864 -3.13776 0
M  V30 14250 H 1368.76 3.06529 -2.19818 0
M  V30 14251 H 1371.15 2.65061 -1.29718 0
M  V30 14252 H 1371.23 1.17595 -2.27168 0
M  V30 14253 H 1370.87 2.57493 -4.3779 0
M  V30 14254 H 1370.8 4.04415 -3.37277 0
M  V30 14255 H 1373.29 2.62709 -2.71647 0
M  V30 14256 H 1373.61 4.90527 -5.97162 0
M  V30 14257 H 1371.95 4.41681 -5.36603 0
M  V30 14258 H 1375.14 3.19305 -3.42289 0
M  V30 14259 H 1375.31 4.2321 -4.90711 0
M  V30 14260 N 1368.72 1.0394 1.18466 0
M  V30 14261 C 1369.68 0.633804 2.20262 0
M  V30 14262 C 1370.68 -0.308136 1.5782 0
M  V30 14263 O 1371.87 -0.0937087 1.73948 0
M  V30 14264 C 1369.01 -0.0709693 3.40826 0
M  V30 14265 H 1370.2 1.53463 2.57661 0
M  V30 14266 H 1367.75 0.831806 1.32328 0
M  V30 14267 H 1368.49 -0.985659 3.08958 0
M  V30 14268 H 1368.27 0.606023 3.87388 0
M  V30 14269 H 1369.76 -0.341298 4.16203 0
M  V30 14270 N 1370.2 -1.34667 0.818693 0
M  V30 14271 C 1371.13 -2.28368 0.195126 0
M  V30 14272 C 1372.14 -1.50836 -0.612562 0
M  V30 14273 O 1373.33 -1.72917 -0.442936 0
M  V30 14274 C 1370.43 -3.30601 -0.745411 0
M  V30 14275 C 1369.61 -4.37396 0.0185308 0
M  V30 14276 C 1368.66 -5.19415 -0.842298 0
M  V30 14277 O 1367.69 -5.68467 -0.288821 0
M  V30 14278 N 1368.89 -5.38709 -2.1627 0
M  V30 14279 H 1371.66 -2.8252 1.00013 0
M  V30 14280 H 1369.22 -1.47146 0.675262 0
M  V30 14281 H 1371.21 -3.82367 -1.3258 0
M  V30 14282 H 1369.78 -2.76875 -1.45118 0
M  V30 14283 H 1369 -3.86402 0.780205 0
M  V30 14284 H 1370.29 -5.05877 0.544575 0
M  V30 14285 H 1369.69 -5.00523 -2.63616 0
M  V30 14286 H 1368.24 -5.9361 -2.69204 0
M  V30 14287 N 1371.68 -0.573274 -1.46804 0
M  V30 14288 C 1372.92 -0.0551522 -2.02025 0
M  V30 14289 C 1373.25 1.30577 -1.44826 0
M  V30 14290 O 1372.52 1.85514 -0.629403 0
M  V30 14291 H 1371.1 -0.0173982 -0.746797 0
M  V30 14292 H 1373.76 -0.746919 -1.8002 0
M  V30 14293 H 1372.85 0.0209326 -3.12093 0
M  V30 14294 N 1373.15 1.5451 -0.310553 0
M  V30 14295 C 1374.38 2.04739 0.29824 0
M  V30 14296 C 1374.8 1.18737 1.46788 0
M  V30 14297 O 1374.15 0.215114 1.81228 0
M  V30 14298 C 1374.21 3.53734 0.745274 0
M  V30 14299 O 1373.93 4.36468 -0.377826 0
M  V30 14300 C 1375.43 4.20001 1.41823 0
M  V30 14301 H 1372.65 0.667997 0.0634159 0
M  V30 14302 H 1375.19 1.9942 -0.452961 0
M  V30 14303 H 1373.35 3.59383 1.44648 0
M  V30 14304 H 1373.76 5.24492 -0.0280567 0
M  V30 14305 H 1375.23 5.25747 1.68209 0
M  V30 14306 H 1375.71 3.70319 2.36137 0
M  V30 14307 H 1376.32 4.18455 0.759951 0
M  V30 14308 N 1374.63 0.0384594 1.57553 0
M  V30 14309 C 1375.91 -0.677308 1.83499 0
M  V30 14310 C 1376.29 -1.89789 0.924294 0
M  V30 14311 O 1375.64 -2.28493 -0.0178185 0
M  V30 14312 C 1375.85 -1.04667 3.32935 0
M  V30 14313 C 1377.2 -1.43436 3.99639 0
M  V30 14314 O 1378.22 -1.13938 3.37486 0
M  V30 14315 O 1377.08 -1.98435 5.09201 0
M  V30 14316 H 1374.17 -0.333131 0.756936 0
M  V30 14317 H 1376.72 0.066854 1.69568 0
M  V30 14318 H 1375.49 -0.178349 3.90893 0
M  V30 14319 H 1375.11 -1.8487 3.52007 0
M  V30 14320 N 1376.11 -1.55841 -0.234795 0
M  V30 14321 C 1377.34 -1.82649 -0.982547 0
M  V30 14322 C 1377.76 -0.617097 -1.77689 0
M  V30 14323 O 1377.12 0.434022 -1.76028 0
M  V30 14324 C 1377.17 -3.07319 -1.88646 0
M  V30 14325 O 1376.27 -2.85084 -2.97995 0
M  V30 14326 H 1375.61 -0.60257 -0.278936 0
M  V30 14327 H 1378.14 -2.03041 -0.252117 0
M  V30 14328 H 1378.15 -3.37073 -2.29882 0
M  V30 14329 H 1376.83 -3.94978 -1.30251 0
M  V30 14330 H 1375.4 -2.66528 -2.60801 0
M  V30 14331 N 1377.59 0.500963 -1.49426 0
M  V30 14332 C 1378.84 1.25171 -1.58162 0
M  V30 14333 C 1379.15 1.93678 -0.273556 0
M  V30 14334 O 1380.36 2.70442 -0.239462 0
M  V30 14335 C 1378.81 2.27276 -2.79059 0
M  V30 14336 C 1378.42 1.64708 -4.16624 0
M  V30 14337 C 1380.17 3.03178 -2.97125 0
M  V30 14338 C 1378.07 2.64923 -5.28743 0
M  V30 14339 H 1377 0.470867 -0.588897 0
M  V30 14340 H 1379.65 0.525569 -1.75812 0
M  V30 14341 H 1378.04 3.03052 -2.54903 0
M  V30 14342 H 1379.21 0.949231 -4.50917 0
M  V30 14343 H 1377.52 1.01195 -4.03916 0
M  V30 14344 H 1380.12 3.78122 -3.78058 0
M  V30 14345 H 1380.46 3.60793 -2.07687 0
M  V30 14346 H 1381 2.34517 -3.2132 0
M  V30 14347 H 1377.74 2.12089 -6.20241 0
M  V30 14348 H 1377.26 3.32948 -4.98904 0
M  V30 14349 H 1378.94 3.27349 -5.58079 0
M  V30 14350 N 1379.07 1.38501 0.752011 0
M  V30 14351 C 1380.03 1.35655 1.84744 0
M  V30 14352 C 1381.03 0.256772 1.58737 0
M  V30 14353 O 1382.22 0.513749 1.66452 0
M  V30 14354 C 1379.35 1.11231 3.22243 0
M  V30 14355 H 1380.55 2.33114 1.88674 0
M  V30 14356 H 1378.1 1.23818 0.953882 0
M  V30 14357 H 1378.83 0.143848 3.23981 0
M  V30 14358 H 1378.62 1.90857 3.42515 0
M  V30 14359 H 1380.11 1.11939 4.02318 0
M  V30 14360 N 1380.55 -0.980364 1.23396 0
M  V30 14361 C 1381.96 -1.24658 0.996622 0
M  V30 14362 C 1382.16 -1.9922 -0.302259 0
M  V30 14363 O 1381.22 -2.30906 -1.02169 0
M  V30 14364 C 1382.53 -2.0461 2.20353 0
M  V30 14365 C 1384.08 -2.17749 2.24843 0
M  V30 14366 C 1384.55 -3.01091 3.4512 0
M  V30 14367 N 1386.04 -3.08676 3.4536 0
M  V30 14368 C 1386.78 -3.73487 4.3508 0
M  V30 14369 N 1386.28 -4.40121 5.35038 0
M  V30 14370 N 1388.07 -3.70373 4.22824 0
M  V30 14371 H 1380.22 -0.480851 2.06885 0
M  V30 14372 H 1382.48 -0.275049 0.907222 0
M  V30 14373 H 1382.19 -1.57197 3.14614 0
M  V30 14374 H 1382.06 -3.05359 2.21441 0
M  V30 14375 H 1384.45 -2.64369 1.31122 0
M  V30 14376 H 1384.53 -1.16388 2.27788 0
M  V30 14377 H 1384.17 -2.55168 4.39149 0
M  V30 14378 H 1384.1 -4.02621 3.39417 0
M  V30 14379 H 1386.6 -2.61265 2.73037 0
M  V30 14380 H 1386.91 -4.87354 5.99755 0
M  V30 14381 H 1385.25 -4.38829 5.38938 0
M  V30 14382 H 1388.44 -3.17486 3.43977 0
M  V30 14383 H 1388.62 -4.20601 4.92949 0
M  V30 14384 N 1382.02 -1.04567 -1.17913 0
M  V30 14385 C 1383.26 -0.760977 -1.89706 0
M  V30 14386 C 1383.63 0.698804 -1.78832 0
M  V30 14387 O 1384.83 1.09733 -2.45382 0
M  V30 14388 C 1383.1 -1.22042 -3.35917 0
M  V30 14389 S 1384.66 -1.06214 -4.25751 0
M  V30 14390 H 1381.48 -0.276538 -0.655017 0
M  V30 14391 H 1384.08 -1.339 -1.42446 0
M  V30 14392 H 1382.78 -2.27813 -3.41364 0
M  V30 14393 H 1382.31 -0.636401 -3.88218 0
M  V30 14394 H 1384.33 0.0174486 -4.96197 0
M  V30 14395 N 1383.5 1.34231 -0.825823 0
M  V30 14396 C 1384.45 2.31378 -0.23809 0
M  V30 14397 C 1385.44 1.57537 0.622767 0
M  V30 14398 O 1386.65 1.72512 0.513783 0
M  V30 14399 H 1383.02 0.74974 -0.0582516 0
M  V30 14400 H 1385 2.78471 -1.07221 0
M  V30 14401 C 1383.74 3.42778 0.582969 0
M  V30 14402 H 1383.07 3.99739 -0.0701208 0
M  V30 14403 H 1384.51 4.12983 0.960266 0
M  V30 14404 C 1382.97 2.87486 1.75651 0
M  V30 14405 O 1383.5 2.82603 2.85479 0
M  V30 14406 N 1381.7 2.4427 1.57418 0
M  V30 14407 H 1381.25 2.48441 0.680792 0
M  V30 14408 H 1381.21 2.07626 2.36091 0
M  V30 14409 N 1384.98 0.581051 1.46498 0
M  V30 14410 C 1386.22 0.0686577 2.04285 0
M  V30 14411 C 1386.58 -1.2666 1.44296 0
M  V30 14412 O 1387.78 -1.86813 1.93273 0
M  V30 14413 C 1386.06 0.0021308 3.574 0
M  V30 14414 S 1387.61 -0.452928 4.36456 0
M  V30 14415 H 1384.43 0.0366686 0.710054 0
M  V30 14416 H 1387.03 0.773174 1.79561 0
M  V30 14417 H 1385.74 0.977908 3.98579 0
M  V30 14418 H 1385.27 -0.725207 3.86658 0
M  V30 14419 H 1387.28 -1.708 4.65877 0
M  V30 14420 N 1386.46 -1.54343 0.318742 0
M  V30 14421 C 1387.41 -2.25634 -0.56497 0
M  V30 14422 C 1388.4 -1.26869 -1.12252 0
M  V30 14423 O 1389.61 -1.44662 -1.07112 0
M  V30 14424 H 1385.98 -0.724686 -0.200834 0
M  V30 14425 H 1387.95 -2.98342 0.0586393 0
M  V30 14426 C 1386.7 -3.0237 -1.71662 0
M  V30 14427 H 1386.02 -3.78183 -1.29684 0
M  V30 14428 H 1387.46 -3.55507 -2.31065 0
M  V30 14429 C 1385.92 -2.10383 -2.63136 0
M  V30 14430 O 1386.45 -1.68351 -3.6472 0
M  V30 14431 N 1384.66 -1.75971 -2.31263 0
M  V30 14432 H 1384.21 -2.10349 -1.48698 0
M  V30 14433 H 1384.16 -1.14702 -2.9273 0
M  V30 14434 N 1387.94 -0.0468143 -1.5753 0
M  V30 14435 C 1388.9 0.914225 -2.10177 0
M  V30 14436 C 1389.9 1.24271 -1.02045 0
M  V30 14437 O 1391.09 1.18012 -1.28136 0
M  V30 14438 C 1388.22 2.22544 -2.58238 0
M  V30 14439 H 1389.41 0.457922 -2.96383 0
M  V30 14440 H 1386.97 0.20152 -1.54995 0
M  V30 14441 H 1387.7 2.72765 -1.75413 0
M  V30 14442 H 1387.49 2.00007 -3.37253 0
M  V30 14443 H 1388.98 2.91392 -2.99133 0
M  V30 14444 N 1389.41 1.55964 0.226527 0
M  V30 14445 C 1390.66 1.78392 0.94977 0
M  V30 14446 C 1390.98 0.614444 1.85066 0
M  V30 14447 O 1390.25 -0.368894 1.92395 0
M  V30 14448 H 1388.83 0.657962 0.353688 0
M  V30 14449 H 1391.5 1.93422 0.239577 0
M  V30 14450 H 1390.59 2.70343 1.55952 0
M  V30 14451 N 1390.89 -0.493031 1.4969 0
M  V30 14452 C 1392.14 -1.24849 1.59814 0
M  V30 14453 C 1392.47 -1.92059 0.287555 0
M  V30 14454 O 1391.75 -1.81099 -0.709471 0
M  V30 14455 C 1392.03 -2.30929 2.76304 0
M  V30 14456 C 1391.88 -1.68167 4.17181 0
M  V30 14457 C 1393.2 -3.32427 2.8841 0
M  V30 14458 H 1390.32 -0.452553 0.581691 0
M  V30 14459 H 1392.96 -0.545455 1.82002 0
M  V30 14460 H 1391.11 -2.9089 2.57517 0
M  V30 14461 H 1392.78 -1.11971 4.47504 0
M  V30 14462 H 1391.03 -0.985496 4.22458 0
M  V30 14463 H 1391.7 -2.45148 4.94577 0
M  V30 14464 H 1394.17 -2.82464 3.05537 0
M  V30 14465 H 1393.05 -4.04004 3.71581 0
M  V30 14466 H 1393.31 -3.95234 1.98097 0
M  V30 14467 N 1392.37 -1.38898 -0.744656 0
M  V30 14468 C 1393.6 -1.38647 -1.53169 0
M  V30 14469 C 1394.01 0.0233199 -1.89186 0
M  V30 14470 O 1393.35 1.00261 -1.53927 0
M  V30 14471 C 1393.41 -2.18615 -2.85391 0
M  V30 14472 C 1393.08 -3.67342 -2.71862 0
M  V30 14473 C 1394.07 -4.60638 -2.41057 0
M  V30 14474 C 1391.76 -4.10809 -2.89035 0
M  V30 14475 C 1393.75 -5.95383 -2.27592 0
M  V30 14476 C 1391.44 -5.45632 -2.7519 0
M  V30 14477 C 1392.44 -6.37733 -2.44512 0
M  V30 14478 O 1392.13 -7.70074 -2.30741 0
M  V30 14479 H 1391.86 -0.475741 -0.480257 0
M  V30 14480 H 1394.41 -1.8321 -0.928621 0
M  V30 14481 H 1392.64 -1.68784 -3.47921 0
M  V30 14482 H 1394.33 -2.1066 -3.46954 0
M  V30 14483 H 1395.1 -4.28359 -2.2745 0
M  V30 14484 H 1390.98 -3.39462 -3.11908 0
M  V30 14485 H 1394.52 -6.67237 -2.03569 0
M  V30 14486 H 1390.42 -5.77504 -2.88373 0
M  V30 14487 H 1391.19 -7.80694 -2.45885 0
M  V30 14488 N 1393.85 0.973806 -1.23914 0
M  V30 14489 C 1395.08 1.74853 -1.10046 0
M  V30 14490 C 1395.49 1.85927 0.350388 0
M  V30 14491 O 1394.83 1.34252 1.25388 0
M  V30 14492 C 1394.89 3.18919 -1.65924 0
M  V30 14493 C 1394.56 3.31335 -3.14748 0
M  V30 14494 C 1395.55 3.17141 -4.11968 0
M  V30 14495 C 1393.24 3.55772 -3.54587 0
M  V30 14496 C 1395.23 3.27199 -5.47009 0
M  V30 14497 C 1392.92 3.65468 -4.89771 0
M  V30 14498 C 1393.92 3.51193 -5.85792 0
M  V30 14499 O 1393.6 3.60534 -7.18519 0
M  V30 14500 H 1393.34 0.555345 -0.385445 0
M  V30 14501 H 1395.89 1.23168 -1.64374 0
M  V30 14502 H 1394.12 3.71882 -1.06023 0
M  V30 14503 H 1395.81 3.78177 -1.47434 0
M  V30 14504 H 1396.58 2.98153 -3.82531 0
M  V30 14505 H 1392.45 3.65951 -2.80358 0
M  V30 14506 H 1396 3.15974 -6.21937 0
M  V30 14507 H 1391.9 3.83969 -5.18882 0
M  V30 14508 H 1392.66 3.77288 -7.26358 0
M  V30 14509 N 1395.33 1.05191 1.17357 0
M  V30 14510 C 1396.57 0.771027 1.893 0
M  V30 14511 C 1396.93 -0.68931 1.792 0
M  V30 14512 O 1398.13 -1.0843 2.4596 0
M  V30 14513 C 1396.4 1.23822 3.35265 0
M  V30 14514 S 1397.96 1.0847 4.25182 0
M  V30 14515 H 1394.78 0.280008 0.653542 0
M  V30 14516 H 1397.38 1.34654 1.41734 0
M  V30 14517 H 1396.09 2.2962 3.40151 0
M  V30 14518 H 1395.62 0.656981 3.87875 0
M  V30 14519 H 1397.63 0.00886614 4.96199 0
M  V30 14520 N 1396.8 -1.33791 0.83293 0
M  V30 14521 C 1397.71 -2.33108 0.264169 0
M  V30 14522 C 1398.73 -1.6308 -0.606694 0
M  V30 14523 O 1399.91 -1.94777 -0.512225 0
M  V30 14524 C 1396.97 -3.42208 -0.556315 0
M  V30 14525 C 1396.03 -4.27966 0.338123 0
M  V30 14526 C 1395.27 -5.31856 -0.443297 0
M  V30 14527 O 1395.49 -5.45234 -1.6756 0
M  V30 14528 O 1394.42 -6.01632 0.179599 0
M  V30 14529 H 1398.25 -2.83602 1.08645 0
M  V30 14530 H 1395.83 -1.37027 0.595307 0
M  V30 14531 H 1397.72 -4.088 -1.02277 0
M  V30 14532 H 1396.39 -2.9394 -1.35575 0
M  V30 14533 H 1395.3 -3.64262 0.852293 0
M  V30 14534 H 1396.63 -4.79701 1.10217 0
M  V30 14535 N 1398.28 -0.588812 -1.46187 0
M  V30 14536 C 1399.51 -0.0806571 -2.07243 0
M  V30 14537 C 1399.93 1.21766 -1.43369 0
M  V30 14538 O 1399.29 1.73694 -0.51964 0
M  V30 14539 C 1399.34 0.065267 -3.60541 0
M  V30 14540 O 1398.44 1.12026 -3.96893 0
M  V30 14541 H 1397.78 -0.0655622 -0.660755 0
M  V30 14542 H 1400.31 -0.813489 -1.87733 0
M  V30 14543 H 1400.32 0.269494 -4.07109 0
M  V30 14544 H 1399 -0.88284 -4.06422 0
M  V30 14545 H 1397.58 0.894 -3.62025 0
M  V30 14546 N 1399.76 1.54172 -0.326923 0
M  V30 14547 C 1401.18 1.59579 0.0256055 0
M  V30 14548 C 1401.38 1.34337 1.50186 0
M  V30 14549 O 1400.43 1.12945 2.25831 0
M  V30 14550 C 1401.75 2.98086 -0.395641 0
M  V30 14551 C 1403.29 3.11075 -0.346579 0
M  V30 14552 C 1403.77 4.51932 -0.743039 0
M  V30 14553 N 1405.26 4.57932 -0.696575 0
M  V30 14554 C 1405.99 5.65041 -0.975493 0
M  V30 14555 N 1405.49 6.80075 -1.32172 0
M  V30 14556 N 1407.28 5.54835 -0.900831 0
M  V30 14557 H 1399.43 1.68836 -1.28872 0
M  V30 14558 H 1401.7 0.789858 -0.52424 0
M  V30 14559 H 1401.4 3.21568 -1.42431 0
M  V30 14560 H 1401.28 3.76451 0.237645 0
M  V30 14561 H 1403.66 2.87326 0.672889 0
M  V30 14562 H 1403.75 2.34807 -1.01484 0
M  V30 14563 H 1403.39 4.76415 -1.76044 0
M  V30 14564 H 1403.32 5.26574 -0.0524263 0
M  V30 14565 H 1405.81 3.75318 -0.440969 0
M  V30 14566 H 1406.12 7.57708 -1.51983 0
M  V30 14567 H 1404.47 6.81563 -1.36001 0
M  V30 14568 H 1407.66 4.63844 -0.629812 0
M  V30 14569 H 1407.83 6.3822 -1.12156 0
M  V30 14570 N 1401.24 0.0551678 1.57503 0
M  V30 14571 C 1402.65 -0.3014 1.56728 0
M  V30 14572 C 1402.85 -1.71169 1.06317 0
M  V30 14573 O 1401.91 -2.4197 0.721566 0
M  V30 14574 C 1403.22 -0.12622 3.00435 0
M  V30 14575 C 1404.77 -0.197022 3.12379 0
M  V30 14576 C 1405.25 -0.0503235 4.57972 0
M  V30 14577 N 1406.74 -0.106471 4.63078 0
M  V30 14578 C 1407.47 -0.0171325 5.73397 0
M  V30 14579 N 1406.97 0.124781 6.92688 0
M  V30 14580 N 1408.76 -0.0730028 5.62053 0
M  V30 14581 H 1400.91 0.977072 1.88592 0
M  V30 14582 H 1403.18 0.37963 0.868668 0
M  V30 14583 H 1402.88 0.846286 3.41366 0
M  V30 14584 H 1402.76 -0.885574 3.66657 0
M  V30 14585 H 1405.14 -1.16 2.71345 0
M  V30 14586 H 1405.22 0.593155 2.48828 0
M  V30 14587 H 1404.87 0.909352 4.99693 0
M  V30 14588 H 1404.8 -0.859695 5.19535 0
M  V30 14589 H 1407.29 -0.215241 3.77287 0
M  V30 14590 H 1407.6 0.185548 7.72577 0
M  V30 14591 H 1405.95 0.15992 6.94816 0
M  V30 14592 H 1409.14 -0.182456 4.67744 0
M  V30 14593 H 1409.31 7.85052e-05 6.48 0
M  V30 14594 N 1402.72 -1.56081 -0.218252 0
M  V30 14595 C 1403.66 -1.92684 -1.27049 0
M  V30 14596 C 1404.63 -0.784441 -1.46409 0
M  V30 14597 O 1405.82 -1.04062 -1.59924 0
M  V30 14598 C 1402.96 -2.25174 -2.61516 0
M  V30 14599 C 1402.07 -3.52364 -2.49927 0
M  V30 14600 C 1401.21 -3.74286 -3.7694 0
M  V30 14601 C 1400.25 -4.94979 -3.60087 0
M  V30 14602 N 1399.38 -5.13273 -4.79057 0
M  V30 14603 H 1404.22 -2.82406 -0.951347 0
M  V30 14604 H 1401.76 -1.39774 -0.458441 0
M  V30 14605 H 1403.72 -2.42022 -3.39825 0
M  V30 14606 H 1402.35 -1.38621 -2.9152 0
M  V30 14607 H 1401.4 -3.43691 -1.63036 0
M  V30 14608 H 1402.71 -4.40826 -2.33397 0
M  V30 14609 H 1401.87 -3.91248 -4.63692 0
M  V30 14610 H 1400.6 -2.84111 -3.96399 0
M  V30 14611 H 1399.61 -4.77963 -2.71719 0
M  V30 14612 H 1400.83 -5.86641 -3.42095 0
M  V30 14613 H 1398.78 -4.26041 -4.98824 0
M  V30 14614 H 1398.7 -5.95873 -4.65265 0
M  V30 14615 H 1399.97 -5.34673 -5.67226 0
M  V30 14616 N 1404.2 0.485086 -1.49949 0
M  V30 14617 C 1405.43 1.25996 -1.63733 0
M  V30 14618 C 1405.83 1.8657 -0.31435 0
M  V30 14619 O 1405.18 1.69336 0.71211 0
M  V30 14620 C 1405.24 2.41842 -2.65994 0
M  V30 14621 C 1404.9 2.02014 -4.09926 0
M  V30 14622 C 1405.9 1.55068 -4.96236 0
M  V30 14623 C 1403.58 2.11162 -4.55759 0
M  V30 14624 C 1405.58 1.17796 -6.26421 0
M  V30 14625 C 1403.27 1.73501 -5.85953 0
M  V30 14626 C 1404.26 1.26894 -6.71109 0
M  V30 14627 O 1403.95 0.89749 -7.98874 0
M  V30 14628 H 1403.68 0.387743 -0.553743 0
M  V30 14629 H 1406.24 0.5871 -1.96831 0
M  V30 14630 H 1404.47 3.12254 -2.2811 0
M  V30 14631 H 1406.16 3.03837 -2.69143 0
M  V30 14632 H 1406.92 1.47434 -4.62048 0
M  V30 14633 H 1402.8 2.46389 -3.89633 0
M  V30 14634 H 1406.35 0.813467 -6.92841 0
M  V30 14635 H 1402.24 1.8079 -6.19665 0
M  V30 14636 H 1403.01 1.02757 -8.12024 0
M  V30 14637 N 1405.67 1.39291 0.737279 0
M  V30 14638 C 1406.9 1.39457 1.52431 0
M  V30 14639 C 1407.31 -0.0132866 1.89195 0
M  V30 14640 O 1406.65 -0.99443 1.54456 0
M  V30 14641 C 1406.72 2.20125 2.84227 0
M  V30 14642 C 1406.38 3.68778 2.6991 0
M  V30 14643 C 1407.38 4.6191 2.38611 0
M  V30 14644 C 1405.06 4.12336 2.86853 0
M  V30 14645 C 1407.06 5.96581 2.24432 0
M  V30 14646 C 1404.74 5.47083 2.72292 0
M  V30 14647 C 1405.74 6.3902 2.41127 0
M  V30 14648 O 1405.43 7.71287 2.26654 0
M  V30 14649 H 1405.16 0.478281 0.477727 0
M  V30 14650 H 1407.72 1.837 0.918891 0
M  V30 14651 H 1405.95 1.70627 3.47021 0
M  V30 14652 H 1407.63 2.12497 3.45832 0
M  V30 14653 H 1408.4 4.29559 2.25175 0
M  V30 14654 H 1404.28 3.41111 3.10103 0
M  V30 14655 H 1407.82 6.68307 2.00028 0
M  V30 14656 H 1403.72 5.79026 2.85306 0
M  V30 14657 H 1404.49 7.81987 2.41742 0
M  V30 14658 N 1407.15 -0.967221 1.24429 0
M  V30 14659 C 1408.56 -1.52488 1.07723 0
M  V30 14660 C 1408.91 -1.93031 -0.351191 0
M  V30 14661 O 1408.04 -1.77376 -1.23963 0
M  V30 14662 C 1408.63 -2.77107 1.94929 0
M  V30 14663 C 1407.19 -3.29227 1.82446 0
M  V30 14664 C 1406.34 -2.02133 1.89835 0
M  V30 14665 H 1409.29 -0.785465 1.37899 0
M  V30 14666 H 1409.31 -3.50459 1.48186 0
M  V30 14667 H 1408.82 -2.47567 2.98885 0
M  V30 14668 H 1406.92 -3.63617 0.813246 0
M  V30 14669 H 1407.04 -3.98095 2.66566 0
M  V30 14670 H 1405.4 -2.16867 1.3357 0
M  V30 14671 H 1406.18 -1.74958 2.95372 0
M  V30 14672 N 1408.63 -1.05812 -1.16797 0
M  V30 14673 C 1409.88 -0.773066 -1.87487 0
M  V30 14674 C 1410.21 0.698471 -1.81204 0
M  V30 14675 O 1409.48 1.51129 -1.22434 0
M  V30 14676 C 1409.77 -1.2621 -3.37258 0
M  V30 14677 C 1409.62 -2.79704 -3.52258 0
M  V30 14678 C 1410.94 -0.866104 -4.31494 0
M  V30 14679 H 1408.06 -0.282304 -0.680789 0
M  V30 14680 H 1410.7 -1.3132 -1.37314 0
M  V30 14681 H 1408.85 -0.802608 -3.80119 0
M  V30 14682 H 1410.52 -3.33824 -3.1837 0
M  V30 14683 H 1408.76 -3.18673 -2.94329 0
M  V30 14684 H 1409.44 -3.08985 -4.57419 0
M  V30 14685 H 1411.91 -1.26178 -3.96508 0
M  V30 14686 H 1410.79 -1.23581 -5.34807 0
M  V30 14687 H 1411.05 0.229391 -4.41504 0
M  V30 14688 N 1410.11 1.33347 -0.840014 0
M  V30 14689 C 1411.33 2.02485 -0.448856 0
M  V30 14690 C 1411.76 1.62781 0.942543 0
M  V30 14691 O 1411.12 0.82099 1.61646 0
M  V30 14692 C 1411.16 3.55928 -0.578582 0
M  V30 14693 O 1410.27 4.10507 0.394695 0
M  V30 14694 H 1409.61 0.63848 -0.182317 0
M  V30 14695 H 1412.14 1.70221 -1.13516 0
M  V30 14696 H 1412.15 4.05391 -0.460653 0
M  V30 14697 H 1410.82 3.8417 -1.5933 0
M  V30 14698 H 1409.4 3.72164 0.234227 0
M  V30 14699 N 1411.59 0.596556 1.45873 0
M  V30 14700 C 1412.83 0.0874583 2.02311 0
M  V30 14701 C 1413.16 -1.27781 1.46636 0
M  V30 14702 O 1412.42 -1.85393 0.62674 0
M  V30 14703 C 1412.71 -0.0135714 3.57397 0
M  V30 14704 C 1412.38 1.28591 4.32175 0
M  V30 14705 C 1411.04 1.6419 4.52322 0
M  V30 14706 C 1413.39 2.14523 4.75005 0
M  V30 14707 C 1410.72 2.85493 5.12553 0
M  V30 14708 C 1413.07 3.35065 5.36577 0
M  V30 14709 C 1411.74 3.70929 5.54949 0
M  V30 14710 H 1411.01 0.0320033 0.740309 0
M  V30 14711 H 1413.66 0.775967 1.75074 0
M  V30 14712 H 1411.96 -0.785287 3.8385 0
M  V30 14713 H 1413.66 -0.423456 3.98758 0
M  V30 14714 H 1410.25 0.99881 4.16799 0
M  V30 14715 H 1414.43 1.88321 4.59183 0
M  V30 14716 H 1409.69 3.134 5.24967 0
M  V30 14717 H 1413.86 4.01909 5.6872 0
M  V30 14718 H 1411.49 4.65011 6.01389 0
M  V30 14719 N 1413.06 -1.53996 0.335095 0
M  V30 14720 C 1414.31 -2.01069 -0.264388 0
M  V30 14721 C 1414.64 -1.22271 -1.50876 0
M  V30 14722 O 1413.92 -0.30806 -1.92045 0
M  V30 14723 C 1414.2 -3.55283 -0.587 0
M  V30 14724 C 1414.05 -4.44799 0.668877 0
M  V30 14725 C 1415.37 -4.17238 -1.40003 0
M  V30 14726 H 1412.49 -0.730901 -0.0946202 0
M  V30 14727 H 1415.13 -1.84497 0.453958 0
M  V30 14728 H 1413.28 -3.69536 -1.19899 0
M  V30 14729 H 1414.96 -4.42398 1.30698 0
M  V30 14730 H 1413.2 -4.14005 1.29547 0
M  V30 14731 H 1413.87 -5.5056 0.398523 0
M  V30 14732 H 1416.35 -4.06631 -0.88262 0
M  V30 14733 H 1415.22 -5.2523 -1.59451 0
M  V30 14734 H 1415.48 -3.71309 -2.39962 0
M  V30 14735 N 1414.54 -0.0635198 -1.57472 0
M  V30 14736 C 1415.79 0.606285 -1.92792 0
M  V30 14737 C 1416.11 1.70648 -0.943615 0
M  V30 14738 O 1415.38 1.95898 0.00957612 0
M  V30 14739 H 1413.96 0.226943 -0.711692 0
M  V30 14740 H 1416.62 -0.119429 -1.94534 0
M  V30 14741 H 1415.72 1.03694 -2.9437 0
M  V30 14742 N 1416.02 1.56195 0.209972 0
M  V30 14743 C 1417.43 1.69811 0.775969 0
M  V30 14744 C 1417.78 0.667543 1.84495 0
M  V30 14745 O 1416.91 -0.179043 2.15658 0
M  V30 14746 C 1417.5 3.07869 1.41429 0
M  V30 14747 C 1416.06 3.233 1.92755 0
M  V30 14748 C 1415.21 2.6575 0.791958 0
M  V30 14749 H 1418.16 1.58693 -0.0148727 0
M  V30 14750 H 1418.18 3.04371 2.28339 0
M  V30 14751 H 1417.69 3.82853 0.63604 0
M  V30 14752 H 1415.79 2.53206 2.73345 0
M  V30 14753 H 1415.91 4.30645 2.09956 0
M  V30 14754 H 1414.27 2.24535 1.20234 0
M  V30 14755 H 1415.05 3.4329 0.0261877 0
M  V30 14756 N 1417.5 -0.477127 1.50204 0
M  V30 14757 C 1418.73 -1.25307 1.64638 0
M  V30 14758 C 1419.14 -1.85942 0.327274 0
M  V30 14759 O 1418.5 -1.6895 -0.690088 0
M  V30 14760 C 1418.55 -2.36616 2.73304 0
M  V30 14761 O 1418.27 -1.78469 4.00101 0
M  V30 14762 C 1419.77 -3.27595 2.98658 0
M  V30 14763 H 1416.99 -0.379192 0.553583 0
M  V30 14764 H 1419.53 -0.5702 1.9639 0
M  V30 14765 H 1417.69 -3.00689 2.44264 0
M  V30 14766 H 1418.1 -2.51722 4.60148 0
M  V30 14767 H 1419.58 -4.01921 3.7837 0
M  V30 14768 H 1420.05 -3.86017 2.09493 0
M  V30 14769 H 1420.66 -2.69264 3.29206 0
M  V30 14770 N 1418.98 -1.3968 -0.729882 0
M  V30 14771 C 1420.22 -1.37182 -1.48954 0
M  V30 14772 C 1420.55 0.0305728 -1.94476 0
M  V30 14773 O 1419.81 1.0124 -1.67478 0
M  V30 14774 C 1420.11 -2.29499 -2.7398 0
M  V30 14775 C 1419.77 -3.77034 -2.47298 0
M  V30 14776 C 1418.43 -4.17232 -2.39731 0
M  V30 14777 C 1420.79 -4.70325 -2.24597 0
M  V30 14778 C 1418.11 -5.48777 -2.07511 0
M  V30 14779 C 1420.47 -6.02153 -1.93893 0
M  V30 14780 C 1419.13 -6.41409 -1.84798 0
M  V30 14781 H 1418.4 -0.501985 -0.545061 0
M  V30 14782 H 1421.05 -1.72226 -0.837294 0
M  V30 14783 H 1419.35 -1.87592 -3.43972 0
M  V30 14784 H 1421.05 -2.24857 -3.32024 0
M  V30 14785 H 1417.64 -3.45177 -2.54069 0
M  V30 14786 H 1421.82 -4.40097 -2.29408 0
M  V30 14787 H 1417.08 -5.78109 -1.98996 0
M  V30 14788 H 1421.25 -6.73966 -1.75337 0
M  V30 14789 H 1418.88 -7.43258 -1.59598 0
M  V30 14790 N 1420.45 0.960609 -1.2494 0
M  V30 14791 C 1421.39 2.05948 -1.00588 0
M  V30 14792 C 1422.4 1.62777 0.0271261 0
M  V30 14793 O 1423.59 1.77252 -0.210739 0
M  V30 14794 C 1420.69 3.35228 -0.497521 0
M  V30 14795 C 1419.86 4.0727 -1.59531 0
M  V30 14796 C 1418.92 5.14822 -1.08836 0
M  V30 14797 O 1417.95 5.40602 -1.78153 0
M  V30 14798 N 1419.15 5.80453 0.0735067 0
M  V30 14799 H 1421.91 2.27411 -1.95204 0
M  V30 14800 H 1419.47 1.12874 -1.16065 0
M  V30 14801 H 1421.47 4.04447 -0.142979 0
M  V30 14802 H 1420.04 3.10583 0.354546 0
M  V30 14803 H 1419.26 3.32231 -2.12171 0
M  V30 14804 H 1420.54 4.52161 -2.33299 0
M  V30 14805 H 1419.94 5.6192 0.652848 0
M  V30 14806 H 1418.5 6.50754 0.369132 0
M  V30 14807 N 1421.93 1.0643 1.16234 0
M  V30 14808 C 1423.16 0.80148 1.9042 0
M  V30 14809 C 1423.57 -0.648064 1.77755 0
M  V30 14810 O 1422.91 -1.4555 1.12076 0
M  V30 14811 C 1422.98 1.11855 3.41656 0
M  V30 14812 C 1422.64 2.5668 3.78107 0
M  V30 14813 C 1423.64 3.54914 3.79911 0
M  V30 14814 C 1421.32 2.92015 4.08696 0
M  V30 14815 C 1423.32 4.86522 4.11795 0
M  V30 14816 C 1421 4.23823 4.40247 0
M  V30 14817 C 1422 5.20887 4.41776 0
M  V30 14818 O 1421.69 6.50329 4.72575 0
M  V30 14819 H 1421.42 0.290009 0.610632 0
M  V30 14820 H 1423.97 1.42157 1.48258 0
M  V30 14821 H 1422.2 0.441395 3.84173 0
M  V30 14822 H 1423.89 0.839759 3.97118 0
M  V30 14823 H 1424.66 3.28957 3.56388 0
M  V30 14824 H 1420.54 2.17119 4.0667 0
M  V30 14825 H 1424.08 5.62278 4.12903 0
M  V30 14826 H 1419.98 4.49538 4.63235 0
M  V30 14827 H 1420.75 6.55339 4.90381 0
M  V30 14828 N 1423.41 -1.329 0.847073 0
M  V30 14829 C 1424.34 -2.27027 0.231111 0
M  V30 14830 C 1425.32 -1.50045 -0.626524 0
M  V30 14831 O 1426.51 -1.79193 -0.58499 0
M  V30 14832 C 1423.63 -3.31911 -0.67472 0
M  V30 14833 C 1422.68 -4.26362 0.108531 0
M  V30 14834 S 1423.51 -5.14874 1.4719 0
M  V30 14835 C 1424.67 -6.23285 0.571586 0
M  V30 14836 H 1424.9 -2.78922 1.02906 0
M  V30 14837 H 1422.43 -1.40315 0.64428 0
M  V30 14838 H 1424.39 -3.92821 -1.19172 0
M  V30 14839 H 1423.05 -2.78815 -1.44641 0
M  V30 14840 H 1422.25 -5.00639 -0.581079 0
M  V30 14841 H 1421.85 -3.69831 0.556863 0
M  V30 14842 H 1424.14 -6.77119 -0.227261 0
M  V30 14843 H 1425.08 -6.96347 1.28477 0
M  V30 14844 H 1425.49 -5.64303 0.149291 0
M  V30 14845 N 1424.89 -0.604284 -1.45555 0
M  V30 14846 C 1425.8 0.118409 -2.34301 0
M  V30 14847 C 1426.81 0.863807 -1.51044 0
M  V30 14848 O 1427.99 0.822138 -1.83856 0
M  V30 14849 C 1425.06 1.10538 -3.28606 0
M  V30 14850 C 1424.12 0.362301 -4.27768 0
M  V30 14851 C 1423.35 1.30226 -5.17568 0
M  V30 14852 O 1423.57 2.53991 -5.10729 0
M  V30 14853 O 1422.51 0.801116 -5.96545 0
M  V30 14854 H 1426.33 -0.610816 -2.97494 0
M  V30 14855 H 1423.92 -0.364562 -1.44884 0
M  V30 14856 H 1425.8 1.67392 -3.86727 0
M  V30 14857 H 1424.47 1.81569 -2.67982 0
M  V30 14858 H 1423.38 -0.248616 -3.73273 0
M  V30 14859 H 1424.71 -0.307454 -4.91239 0
M  V30 14860 N 1426.37 1.53816 -0.343257 0
M  V30 14861 C 1427.33 2.23654 0.501161 0
M  V30 14862 C 1428.33 1.23664 1.02781 0
M  V30 14863 O 1429.52 1.48104 0.917103 0
M  V30 14864 C 1426.65 2.95596 1.69812 0
M  V30 14865 H 1427.84 2.997 -0.109626 0
M  V30 14866 H 1425.4 1.56013 -0.0946011 0
M  V30 14867 H 1426.13 2.23736 2.34761 0
M  V30 14868 H 1425.92 3.68938 1.32768 0
M  V30 14869 H 1427.41 3.48748 2.29706 0
M  V30 14870 N 1427.84 0.0718701 1.57436 0
M  V30 14871 C 1428.79 -0.913026 2.13931 0
M  V30 14872 C 1429.79 -1.3082 1.07622 0
M  V30 14873 O 1430.99 -1.28544 1.26002 0
M  V30 14874 H 1427.37 -0.31238 0.684049 0
M  V30 14875 H 1429.34 -0.411613 2.95547 0
M  V30 14876 C 1428.09 -2.17109 2.71586 0
M  V30 14877 H 1427.41 -1.87585 3.53061 0
M  V30 14878 H 1428.85 -2.84134 3.14712 0
M  V30 14879 C 1427.31 -2.92967 1.6635 0
M  V30 14880 O 1427.84 -3.8667 1.08854 0
M  V30 14881 N 1426.05 -2.56075 1.37383 0
M  V30 14882 H 1425.59 -1.79949 1.84326 0
M  V30 14883 H 1425.55 -3.07134 0.672039 0
M  V30 14884 N 1429.32 -1.56304 -0.201686 0
M  V30 14885 C 1430.27 -1.94901 -1.26949 0
M  V30 14886 C 1431.26 -0.833574 -1.47472 0
M  V30 14887 O 1432.47 -1.01854 -1.48411 0
M  V30 14888 H 1428.85 -0.619663 -0.426053 0
M  V30 14889 H 1430.82 -2.83964 -0.9169 0
M  V30 14890 C 1429.57 -2.29913 -2.60835 0
M  V30 14891 H 1428.89 -3.15268 -2.45858 0
M  V30 14892 H 1430.33 -2.60789 -3.34313 0
M  V30 14893 C 1428.79 -1.13136 -3.17335 0
M  V30 14894 O 1429.32 -0.402915 -3.99674 0
M  V30 14895 N 1427.52 -0.909912 -2.75987 0
M  V30 14896 H 1427.07 -1.50402 -2.09134 0
M  V30 14897 H 1427.03 -0.130348 -3.1413 0
M  V30 14898 N 1430.8 0.469154 -1.50455 0
M  V30 14899 C 1432.03 1.24252 -1.65061 0
M  V30 14900 C 1432.44 1.86226 -0.334121 0
M  V30 14901 O 1431.78 1.70082 0.694109 0
M  V30 14902 C 1431.84 2.39007 -2.68544 0
M  V30 14903 C 1431.51 1.97655 -4.12046 0
M  V30 14904 C 1432.5 1.49796 -4.97852 0
M  V30 14905 C 1430.19 2.06316 -4.57973 0
M  V30 14906 C 1432.18 1.11145 -6.27635 0
M  V30 14907 C 1429.87 1.67276 -5.8776 0
M  V30 14908 C 1430.87 1.19769 -6.72417 0
M  V30 14909 O 1430.56 0.812708 -7.99781 0
M  V30 14910 H 1430.29 0.381848 -0.557824 0
M  V30 14911 H 1432.84 0.566191 -1.97442 0
M  V30 14912 H 1431.07 3.09817 -2.31409 0
M  V30 14913 H 1432.76 3.00965 -2.7235 0
M  V30 14914 H 1433.53 1.42525 -4.63586 0
M  V30 14915 H 1429.41 2.42242 -3.92224 0
M  V30 14916 H 1432.95 0.739936 -6.93665 0
M  V30 14917 H 1428.85 1.74208 -6.21548 0
M  V30 14918 H 1429.62 0.941386 -8.13068 0
M  V30 14919 N 1432.28 1.40065 0.722464 0
M  V30 14920 C 1433.51 1.41066 1.50944 0
M  V30 14921 C 1433.92 0.00678083 1.89199 0
M  V30 14922 O 1433.26 -0.977992 1.55502 0
M  V30 14923 C 1433.32 2.23127 2.81877 0
M  V30 14924 C 1432.99 3.7162 2.65984 0
M  V30 14925 C 1433.98 4.64415 2.33698 0
M  V30 14926 C 1431.67 4.15355 2.82463 0
M  V30 14927 C 1433.66 5.98928 2.18091 0
M  V30 14928 C 1431.35 5.49941 2.66474 0
M  V30 14929 C 1432.35 6.41542 2.34335 0
M  V30 14930 O 1432.03 7.73647 2.18461 0
M  V30 14931 H 1431.77 0.483321 0.472628 0
M  V30 14932 H 1434.32 1.84664 0.899356 0
M  V30 14933 H 1432.55 1.74298 3.45192 0
M  V30 14934 H 1434.24 2.16153 3.43559 0
M  V30 14935 H 1435.01 4.31924 2.20606 0
M  V30 14936 H 1430.88 3.44381 3.06468 0
M  V30 14937 H 1434.43 6.70391 1.92928 0
M  V30 14938 H 1430.33 5.82019 2.79149 0
M  V30 14939 H 1431.09 7.84507 2.33434 0
M  V30 14940 N 1433.76 -0.95397 1.25448 0
M  V30 14941 C 1435.17 -1.51337 1.09335 0
M  V30 14942 C 1435.52 -1.93393 -0.330698 0
M  V30 14943 O 1434.64 -1.78681 -1.22074 0
M  V30 14944 C 1435.24 -2.75024 1.97857 0
M  V30 14945 C 1433.8 -3.27274 1.85927 0
M  V30 14946 C 1432.95 -2.00108 1.91969 0
M  V30 14947 H 1435.9 -0.770795 1.38724 0
M  V30 14948 H 1435.92 -3.48867 1.51894 0
M  V30 14949 H 1435.43 -2.44383 3.01494 0
M  V30 14950 H 1433.53 -3.62734 0.851767 0
M  V30 14951 H 1433.64 -3.95245 2.70773 0
M  V30 14952 H 1432.01 -2.15438 1.35862 0
M  V30 14953 H 1432.79 -1.71816 2.97211 0
M  V30 14954 N 1435.24 -1.07045 -1.15668 0
M  V30 14955 C 1436.2 -0.69198 -2.18505 0
M  V30 14956 C 1437.2 0.266185 -1.58582 0
M  V30 14957 O 1438.39 0.0475566 -1.74135 0
M  V30 14958 C 1435.52 -0.0194196 -3.40894 0
M  V30 14959 H 1436.71 -1.60241 -2.53501 0
M  V30 14960 H 1434.27 -0.866598 -1.30076 0
M  V30 14961 H 1435 0.903398 -3.11463 0
M  V30 14962 H 1434.79 -0.708519 -3.85645 0
M  V30 14963 H 1436.28 0.230829 -4.16962 0
M  V30 14964 N 1436.71 1.32449 -0.85411 0
M  V30 14965 C 1438.13 1.50046 -0.543895 0
M  V30 14966 C 1438.33 1.78985 0.925561 0
M  V30 14967 O 1437.39 1.85909 1.70862 0
M  V30 14968 C 1438.7 2.64499 -1.43041 0
M  V30 14969 C 1440.25 2.78384 -1.43078 0
M  V30 14970 C 1440.72 3.95915 -2.3025 0
M  V30 14971 N 1442.21 4.03176 -2.28043 0
M  V30 14972 C 1442.95 4.9335 -2.92221 0
M  V30 14973 N 1442.44 5.88536 -3.6551 0
M  V30 14974 N 1444.24 4.86468 -2.81612 0
M  V30 14975 H 1436.39 1.11931 -1.80514 0
M  V30 14976 H 1438.65 0.551626 -0.770982 0
M  V30 14977 H 1438.36 2.49842 -2.47532 0
M  V30 14978 H 1438.23 3.60269 -1.11742 0
M  V30 14979 H 1440.62 2.92464 -0.393529 0
M  V30 14980 H 1440.7 1.83329 -1.78393 0
M  V30 14981 H 1440.34 3.82594 -3.34043 0
M  V30 14982 H 1440.27 4.90245 -1.92268 0
M  V30 14983 H 1442.76 3.35064 -1.74759 0
M  V30 14984 H 1443.08 6.54038 -4.11648 0
M  V30 14985 H 1441.42 5.88564 -3.69618 0
M  V30 14986 H 1444.61 4.11076 -2.23907 0
M  V30 14987 H 1444.79 5.56542 -3.3191 0
M  V30 14988 N 1438.19 0.611994 1.45232 0
M  V30 14989 C 1439.42 0.115242 2.06278 0
M  V30 14990 C 1439.83 -1.20752 1.45656 0
M  V30 14991 O 1439.17 -1.7474 0.566697 0
M  V30 14992 C 1439.23 -0.0941449 3.59377 0
M  V30 14993 C 1438.9 1.1475 4.42359 0
M  V30 14994 C 1439.9 2.06669 4.77058 0
M  V30 14995 C 1437.58 1.37756 4.83041 0
M  V30 14996 C 1439.57 3.19919 5.51299 0
M  V30 14997 C 1437.26 2.51306 5.57035 0
M  V30 14998 C 1438.26 3.42216 5.91082 0
M  V30 14999 O 1437.95 4.5379 6.63574 0
M  V30 15000 H 1437.68 0.0680317 0.672568 0
M  V30 15001 H 1440.23 0.840932 1.87397 0
M  V30 15002 H 1438.46 -0.874775 3.76676 0
M  V30 15003 H 1440.15 -0.543047 4.02251 0
M  V30 15004 H 1440.92 1.90122 4.46182 0
M  V30 15005 H 1436.8 0.678922 4.55973 0
M  V30 15006 H 1440.34 3.90901 5.77791 0
M  V30 15007 H 1436.24 2.67804 5.87325 0
M  V30 15008 H 1437.01 4.52527 6.82027 0
M  V30 15009 N 1439.67 -1.53632 0.351409 0
M  V30 15010 C 1440.6 -2.2284 -0.536204 0
M  V30 15011 C 1441.61 -1.23765 -1.05764 0
M  V30 15012 O 1442.8 -1.50073 -0.966449 0
M  V30 15013 C 1439.9 -2.9013 -1.75151 0
M  V30 15014 C 1439.08 -4.15588 -1.36401 0
M  V30 15015 C 1438.14 -4.66217 -2.43984 0
M  V30 15016 O 1437.16 -5.3024 -2.06964 0
M  V30 15017 N 1438.36 -4.42817 -3.75358 0
M  V30 15018 H 1441.13 -2.99647 0.0565368 0
M  V30 15019 H 1438.69 -1.60942 0.175905 0
M  V30 15020 H 1440.68 -3.20913 -2.4657 0
M  V30 15021 H 1439.25 -2.16862 -2.25144 0
M  V30 15022 H 1438.47 -3.91264 -0.480258 0
M  V30 15023 H 1439.76 -4.97179 -1.08121 0
M  V30 15024 H 1439.16 -3.9163 -4.08218 0
M  V30 15025 H 1437.71 -4.78186 -4.42924 0
M  V30 15026 N 1441.15 -0.0802183 -1.57396 0
M  V30 15027 C 1442.37 0.599179 -1.98556 0
M  V30 15028 C 1442.8 1.61844 -0.958555 0
M  V30 15029 O 1442.16 1.81146 0.0748226 0
M  V30 15030 C 1442.2 1.23675 -3.38728 0
M  V30 15031 O 1441.31 2.35262 -3.38712 0
M  V30 15032 H 1440.65 0.153366 -0.646045 0
M  V30 15033 H 1443.18 -0.157227 -2.03995 0
M  V30 15034 H 1443.19 1.5816 -3.76098 0
M  V30 15035 H 1441.86 0.489946 -4.13004 0
M  V30 15036 H 1440.44 2.02507 -3.13122 0
M  V30 15037 N 1442.63 1.56409 0.193394 0
M  V30 15038 C 1443.58 1.91085 1.24381 0
M  V30 15039 C 1444.56 0.77672 1.40911 0
M  V30 15040 O 1445.75 1.0396 1.43253 0
M  V30 15041 C 1442.88 2.25533 2.58824 0
M  V30 15042 C 1441.97 3.45407 2.46079 0
M  V30 15043 N 1442.36 4.63268 2.03017 0
M  V30 15044 C 1440.66 3.49578 2.76967 0
M  V30 15045 C 1441.36 5.45425 2.02205 0
M  V30 15046 N 1440.33 4.85876 2.43773 0
M  V30 15047 H 1444.13 2.79709 0.902224 0
M  V30 15048 H 1441.65 1.57351 0.401818 0
M  V30 15049 H 1443.65 2.48561 3.34699 0
M  V30 15050 H 1442.31 1.38236 2.93804 0
M  V30 15051 H 1443.32 4.87902 1.737 0
M  V30 15052 H 1439.99 2.72702 3.16133 0
M  V30 15053 H 1441.38 6.49829 1.70798 0
M  V30 15054 N 1444.1 -0.461169 1.50702 0
M  V30 15055 C 1445.04 -1.57702 1.64941 0
M  V30 15056 C 1446.01 -1.54808 0.497312 0
M  V30 15057 O 1447.2 -1.74286 0.718104 0
M  V30 15058 C 1444.33 -2.96285 1.64112 0
M  V30 15059 C 1443.37 -3.17296 2.85001 0
M  V30 15060 S 1444.2 -2.96134 4.46167 0
M  V30 15061 C 1445.36 -4.37042 4.48046 0
M  V30 15062 H 1445.59 -1.45386 2.59327 0
M  V30 15063 H 1443.13 -0.649209 1.40088 0
M  V30 15064 H 1445.08 -3.76178 1.64318 0
M  V30 15065 H 1443.75 -3.05983 0.709442 0
M  V30 15066 H 1442.94 -4.18561 2.80754 0
M  V30 15067 H 1442.54 -2.45191 2.82413 0
M  V30 15068 H 1444.83 -5.29846 4.2222 0
M  V30 15069 H 1445.78 -4.4633 5.49723 0
M  V30 15070 H 1446.18 -4.19584 3.77637 0
M  V30 15071 N 1445.58 -1.40446 -0.715026 0
M  V30 15072 C 1446.51 -1.43511 -1.84193 0
M  V30 15073 C 1447.49 -0.295969 -1.67505 0
M  V30 15074 O 1448.68 -0.504667 -1.87528 0
M  V30 15075 C 1445.81 -1.29751 -3.22152 0
M  V30 15076 C 1444.76 -2.41274 -3.53512 0
M  V30 15077 C 1444.09 -2.12591 -4.90621 0
M  V30 15078 C 1445.39 -3.83614 -3.54454 0
M  V30 15079 H 1447.08 -2.37819 -1.81885 0
M  V30 15080 H 1444.63 -1.14469 -0.873655 0
M  V30 15081 H 1446.58 -1.30511 -4.0068 0
M  V30 15082 H 1445.3 -0.319189 -3.25037 0
M  V30 15083 H 1443.96 -2.39764 -2.77324 0
M  V30 15084 H 1443.61 -1.13148 -4.90109 0
M  V30 15085 H 1443.31 -2.87308 -5.1257 0
M  V30 15086 H 1444.84 -2.15034 -5.71483 0
M  V30 15087 H 1446.25 -3.86945 -4.23021 0
M  V30 15088 H 1444.65 -4.57855 -3.87929 0
M  V30 15089 H 1445.72 -4.13159 -2.53827 0
M  V30 15090 N 1447.06 0.947303 -1.25952 0
M  V30 15091 C 1448.31 1.68721 -1.10527 0
M  V30 15092 C 1448.62 1.92403 0.352215 0
M  V30 15093 O 1449.83 2.6416 0.627036 0
M  V30 15094 C 1448.28 3.03785 -1.92983 0
M  V30 15095 C 1447.89 2.87873 -3.43268 0
M  V30 15096 C 1449.64 3.81509 -1.86149 0
M  V30 15097 C 1447.54 4.18373 -4.17993 0
M  V30 15098 H 1446.47 0.632774 -0.410016 0
M  V30 15099 H 1449.12 1.054 -1.5021 0
M  V30 15100 H 1447.51 3.68052 -1.46128 0
M  V30 15101 H 1448.68 2.32493 -3.97848 0
M  V30 15102 H 1446.99 2.23598 -3.51273 0
M  V30 15103 H 1449.59 4.78179 -2.39267 0
M  V30 15104 H 1449.93 4.07923 -0.83091 0
M  V30 15105 H 1450.47 3.24005 -2.30794 0
M  V30 15106 H 1447.21 3.97145 -5.21494 0
M  V30 15107 H 1446.73 4.7349 -3.68194 0
M  V30 15108 H 1448.41 4.86869 -4.26108 0
M  V30 15109 N 1448.54 1.07657 1.15099 0
M  V30 15110 C 1449.79 0.800025 1.85591 0
M  V30 15111 C 1450.11 -0.675973 1.82909 0
M  V30 15112 O 1449.38 -1.48971 1.27218 0
M  V30 15113 H 1447.96 0.292958 0.687157 0
M  V30 15114 H 1450.62 1.36096 1.39513 0
M  V30 15115 H 1449.72 1.13733 2.90639 0
M  V30 15116 N 1450.02 -1.31994 0.861122 0
M  V30 15117 C 1450.97 -2.26248 0.282123 0
M  V30 15118 C 1451.95 -1.50246 -0.57575 0
M  V30 15119 O 1453.14 -1.71845 -0.424075 0
M  V30 15120 C 1450.27 -3.39293 -0.523011 0
M  V30 15121 C 1449.36 -4.22673 0.34761 0
M  V30 15122 N 1449.75 -4.8496 1.43692 0
M  V30 15123 C 1448.05 -4.45785 0.138488 0
M  V30 15124 C 1448.75 -5.47215 1.97307 0
M  V30 15125 N 1447.72 -5.28525 1.27132 0
M  V30 15126 H 1451.53 -2.71936 1.11481 0
M  V30 15127 H 1449.04 -1.46158 0.707928 0
M  V30 15128 H 1451.04 -4.05832 -0.954269 0
M  V30 15129 H 1449.7 -2.95149 -1.35341 0
M  V30 15130 H 1450.71 -4.84873 1.81985 0
M  V30 15131 H 1447.38 -4.12303 -0.656677 0
M  V30 15132 H 1448.77 -6.06737 2.88652 0
M  V30 15133 N 1451.49 -0.619688 -1.44906 0
M  V30 15134 C 1452.74 -0.119397 -2.01747 0
M  V30 15135 C 1453.06 1.25904 -1.48907 0
M  V30 15136 O 1452.33 1.83417 -0.688104 0
M  V30 15137 H 1450.91 -0.0411482 -0.745866 0
M  V30 15138 H 1453.58 -0.803813 -1.77552 0
M  V30 15139 H 1452.67 -0.078368 -3.12002 0
M  V30 15140 N 1452.97 1.53444 -0.359552 0
M  V30 15141 C 1454.22 2.01166 0.232022 0
M  V30 15142 C 1454.55 1.24699 1.49266 0
M  V30 15143 O 1453.8 0.327164 1.92946 0
M  V30 15144 C 1454.1 3.5273 0.575863 0
M  V30 15145 C 1453.77 4.47027 -0.589746 0
M  V30 15146 C 1452.43 4.72525 -0.909587 0
M  V30 15147 C 1454.78 5.02846 -1.37095 0
M  V30 15148 C 1452.11 5.51096 -2.01271 0
M  V30 15149 C 1454.46 5.82622 -2.46444 0
M  V30 15150 C 1453.13 6.06409 -2.7897 0
M  V30 15151 H 1452.4 0.73612 0.084903 0
M  V30 15152 H 1455.04 1.85105 -0.490771 0
M  V30 15153 H 1453.35 3.66708 1.37959 0
M  V30 15154 H 1455.04 3.87125 1.04573 0
M  V30 15155 H 1451.63 4.27324 -0.330418 0
M  V30 15156 H 1455.82 4.83098 -1.1371 0
M  V30 15157 H 1451.07 5.67747 -2.26877 0
M  V30 15158 H 1455.25 6.24884 -3.07398 0
M  V30 15159 H 1452.88 6.67077 -3.64572 0
M  V30 15160 N 1454.45 0.0885642 1.57351 0
M  V30 15161 C 1455.41 -0.858178 2.12528 0
M  V30 15162 C 1456.41 -1.21522 1.05304 0
M  V30 15163 O 1457.6 -1.14573 1.3122 0
M  V30 15164 C 1454.74 -2.15619 2.64048 0
M  V30 15165 H 1455.93 -0.37918 2.97493 0
M  V30 15166 H 1453.48 -0.160354 1.55475 0
M  V30 15167 H 1454.22 -2.68018 1.82584 0
M  V30 15168 H 1454 -1.90995 3.42437 0
M  V30 15169 H 1455.49 -2.83359 3.06753 0
M  V30 15170 N 1455.93 -1.56509 -0.185096 0
M  V30 15171 C 1457.15 -1.85683 -0.923941 0
M  V30 15172 C 1457.58 -0.673315 -1.75636 0
M  V30 15173 O 1456.94 0.3778 -1.7732 0
M  V30 15174 C 1456.98 -3.13165 -1.78774 0
M  V30 15175 O 1456.09 -2.9442 -2.88775 0
M  V30 15176 H 1455.43 -0.611139 -0.259624 0
M  V30 15177 H 1457.96 -2.0374 -0.187393 0
M  V30 15178 H 1457.97 -3.44216 -2.19042 0
M  V30 15179 H 1456.64 -3.98922 -1.17619 0
M  V30 15180 H 1455.22 -2.7469 -2.5219 0
M  V30 15181 N 1457.41 0.45317 -1.50944 0
M  V30 15182 C 1458.82 1.03354 -1.55482 0
M  V30 15183 C 1459.17 1.92701 -0.368873 0
M  V30 15184 O 1458.29 2.10153 0.516208 0
M  V30 15185 C 1458.89 1.88118 -2.81775 0
M  V30 15186 C 1457.45 2.41232 -2.88936 0
M  V30 15187 C 1456.59 1.20032 -2.49975 0
M  V30 15188 H 1459.55 0.235059 -1.5695 0
M  V30 15189 H 1459.57 2.73394 -2.64643 0
M  V30 15190 H 1459.08 1.23064 -3.68072 0
M  V30 15191 H 1457.18 3.09788 -2.07032 0
M  V30 15192 H 1457.29 2.75113 -3.92237 0
M  V30 15193 H 1455.66 1.54072 -2.02815 0
M  V30 15194 H 1456.44 0.56612 -3.386 0
M  V30 15195 N 1458.88 1.40823 0.707568 0
M  V30 15196 C 1460.13 1.39259 1.46463 0
M  V30 15197 C 1460.45 -0.00157854 1.95 0
M  V30 15198 O 1459.72 -0.957723 1.70893 0
M  V30 15199 H 1458.3 0.512558 0.543409 0
M  V30 15200 H 1460.97 1.75952 0.838269 0
M  V30 15201 H 1460.06 2.07243 2.3336 0
M  V30 15202 N 1460.36 -0.94061 1.26453 0
M  V30 15203 C 1461.64 -1.66421 1.02779 0
M  V30 15204 C 1462.02 -2.06429 -0.441614 0
M  V30 15205 O 1461.37 -1.78854 -1.42209 0
M  V30 15206 C 1461.58 -2.87599 1.97707 0
M  V30 15207 C 1462.93 -3.59237 2.26349 0
M  V30 15208 O 1463.95 -2.97704 1.95577 0
M  V30 15209 O 1462.81 -4.70068 2.78744 0
M  V30 15210 H 1459.9 -0.728813 0.390846 0
M  V30 15211 H 1462.45 -0.99229 1.37665 0
M  V30 15212 H 1461.22 -2.54929 2.96862 0
M  V30 15213 H 1460.84 -3.62516 1.63303 0
M  V30 15214 N 1461.84 -1.08266 -1.14527 0
M  V30 15215 C 1463.08 -0.820945 -1.87189 0
M  V30 15216 C 1463.44 0.641556 -1.80964 0
M  V30 15217 O 1464.65 1.01871 -2.48749 0
M  V30 15218 C 1462.92 -1.32668 -3.31865 0
M  V30 15219 S 1464.48 -1.19705 -4.22157 0
M  V30 15220 H 1461.29 -0.297237 -0.645888 0
M  V30 15221 H 1463.9 -1.38364 -1.38114 0
M  V30 15222 H 1462.6 -2.38558 -3.33943 0
M  V30 15223 H 1462.13 -0.759588 -3.85997 0
M  V30 15224 H 1464.15 -0.140421 -4.96001 0
M  V30 15225 N 1463.32 1.31536 -0.86811 0
M  V30 15226 C 1464.57 1.96386 -0.477176 0
M  V30 15227 C 1464.89 1.68968 0.973381 0
M  V30 15228 O 1464.16 1.00409 1.68211 0
M  V30 15229 H 1462.74 0.726579 -0.173468 0
M  V30 15230 H 1465.4 1.60377 -1.10749 0
M  V30 15231 H 1464.5 3.05606 -0.633376 0
M  V30 15232 N 1464.8 0.627364 1.44575 0
M  V30 15233 C 1466.05 0.130094 2.01681 0
M  V30 15234 C 1466.37 -1.25112 1.49572 0
M  V30 15235 O 1465.64 -1.8305 0.697822 0
M  V30 15236 H 1464.22 0.0451032 0.745637 0
M  V30 15237 H 1466.88 0.813218 1.77124 0
M  V30 15238 H 1465.97 0.0949131 3.11956 0
M  V30 15239 N 1466.28 -1.53251 0.367684 0
M  V30 15240 C 1467.52 -2.00469 -0.222481 0
M  V30 15241 C 1467.84 -1.259 -1.49695 0
M  V30 15242 O 1469.04 -1.63717 -2.16585 0
M  V30 15243 C 1467.5 -3.57113 -0.447018 0
M  V30 15244 C 1467.11 -4.40562 0.812946 0
M  V30 15245 C 1468.85 -4.12681 -0.994725 0
M  V30 15246 C 1466.76 -5.88763 0.557877 0
M  V30 15247 H 1465.69 -0.748974 -0.0869144 0
M  V30 15248 H 1468.34 -1.76927 0.48675 0
M  V30 15249 H 1466.72 -3.76818 -1.21756 0
M  V30 15250 H 1467.9 -4.3263 1.58644 0
M  V30 15251 H 1466.21 -3.96108 1.28403 0
M  V30 15252 H 1468.81 -5.2104 -1.20091 0
M  V30 15253 H 1469.15 -3.67408 -1.95748 0
M  V30 15254 H 1469.68 -3.96783 -0.284295 0
M  V30 15255 H 1466.42 -6.38317 1.49102 0
M  V30 15256 H 1465.94 -5.99539 -0.177082 0
M  V30 15257 H 1467.62 -6.46738 0.18419 0
M  V30 15258 N 1467.75 -0.0969077 -1.57302 0
M  V30 15259 C 1468.68 0.858443 -2.17147 0
M  V30 15260 C 1469.66 1.29294 -1.10531 0
M  V30 15261 O 1470.85 1.3595 -1.38676 0
M  V30 15262 C 1467.98 2.11691 -2.75326 0
M  V30 15263 C 1466.93 1.82097 -3.8733 0
M  V30 15264 C 1466.26 3.14787 -4.32219 0
M  V30 15265 C 1467.56 1.10651 -5.10444 0
M  V30 15266 H 1469.25 0.35982 -2.9723 0
M  V30 15267 H 1466.8 0.17163 -1.42974 0
M  V30 15268 H 1468.75 2.78963 -3.15844 0
M  V30 15269 H 1467.48 2.63839 -1.925 0
M  V30 15270 H 1466.14 1.17222 -3.47354 0
M  V30 15271 H 1465.78 3.64826 -3.46281 0
M  V30 15272 H 1465.48 2.95769 -5.07735 0
M  V30 15273 H 1467.01 3.83215 -4.75372 0
M  V30 15274 H 1468.42 1.68036 -5.48121 0
M  V30 15275 H 1466.82 1.01805 -5.91401 0
M  V30 15276 H 1467.89 0.0895634 -4.84817 0
M  V30 15277 N 1469.23 1.56605 0.176793 0
M  V30 15278 C 1470.65 1.50601 0.528354 0
M  V30 15279 C 1470.85 0.800205 1.8493 0
M  V30 15280 O 1469.9 0.358299 2.49945 0
M  V30 15281 C 1471.22 2.95322 0.566172 0
M  V30 15282 C 1472.76 3.06097 0.653751 0
M  V30 15283 C 1473.24 4.52265 0.722511 0
M  V30 15284 N 1474.73 4.5649 0.785548 0
M  V30 15285 C 1475.47 5.66926 0.859232 0
M  V30 15286 N 1474.96 6.87006 0.894088 0
M  V30 15287 N 1476.75 5.54883 0.897832 0
M  V30 15288 H 1468.91 2.00899 -0.689442 0
M  V30 15289 H 1471.17 0.915011 -0.24791 0
M  V30 15290 H 1470.87 3.50095 -0.33566 0
M  V30 15291 H 1470.75 3.49671 1.41456 0
M  V30 15292 H 1473.14 2.51361 1.54601 0
M  V30 15293 H 1473.22 2.54842 -0.221207 0
M  V30 15294 H 1472.86 5.0763 -0.165469 0
M  V30 15295 H 1472.79 5.01271 1.61353 0
M  V30 15296 H 1475.28 3.70032 0.767117 0
M  V30 15297 H 1475.59 7.66922 0.951333 0
M  V30 15298 H 1473.94 6.89628 0.862457 0
M  V30 15299 H 1477.13 4.5999 0.867564 0
M  V30 15300 H 1477.3 6.40972 0.951795 0
M  V30 15301 N 1470.71 -0.445159 1.51182 0
M  V30 15302 C 1471.95 -1.2048 1.65118 0
M  V30 15303 C 1472.31 -1.88673 0.35589 0
M  V30 15304 O 1473.51 -2.66228 0.370932 0
M  V30 15305 C 1471.79 -2.20075 2.81606 0
M  V30 15306 S 1473.34 -3.04631 3.15825 0
M  V30 15307 H 1470.16 -0.408682 0.581807 0
M  V30 15308 H 1472.76 -0.497601 1.89061 0
M  V30 15309 H 1471.47 -1.68603 3.74167 0
M  V30 15310 H 1471 -2.95387 2.59827 0
M  V30 15311 H 1473.01 -4.21606 2.61654 0
M  V30 15312 N 1472.19 -1.41197 -0.700089 0
M  V30 15313 C 1473.14 -1.39158 -1.80607 0
M  V30 15314 C 1474.12 -0.266653 -1.58675 0
M  V30 15315 O 1475.31 -0.506973 -1.69584 0
M  V30 15316 C 1472.44 -1.27176 -3.18875 0
M  V30 15317 C 1471.53 -2.44513 -3.46517 0
M  V30 15318 N 1471.92 -3.69984 -3.44885 0
M  V30 15319 C 1470.22 -2.38228 -3.77046 0
M  V30 15320 C 1470.92 -4.4778 -3.71306 0
M  V30 15321 N 1469.89 -3.77831 -3.90826 0
M  V30 15322 H 1473.7 -2.34093 -1.77701 0
M  V30 15323 H 1471.21 -1.35188 -0.899887 0
M  V30 15324 H 1473.21 -1.23797 -3.98095 0
M  V30 15325 H 1471.87 -0.332215 -3.22996 0
M  V30 15326 H 1472.88 -4.02932 -3.25371 0
M  V30 15327 H 1469.56 -1.52722 -3.88564 0
M  V30 15328 H 1470.95 -5.56695 -3.76218 0
M  V30 15329 N 1473.67 0.933891 -1.2695 0
M  V30 15330 C 1474.62 2.01966 -1.05801 0
M  V30 15331 C 1475.6 1.60896 0.0119868 0
M  V30 15332 O 1476.79 1.75799 -0.205827 0
M  V30 15333 C 1473.92 3.36073 -0.700695 0
M  V30 15334 C 1473.01 3.83606 -1.80852 0
M  V30 15335 N 1473.4 4.03713 -3.04712 0
M  V30 15336 C 1471.7 4.12586 -1.69378 0
M  V30 15337 C 1472.4 4.43199 -3.76762 0
M  V30 15338 N 1471.37 4.50319 -3.0449 0
M  V30 15339 H 1475.17 2.15534 -1.99806 0
M  V30 15340 H 1472.69 1.12027 -1.17574 0
M  V30 15341 H 1474.69 4.13513 -0.530316 0
M  V30 15342 H 1473.35 3.23872 0.231801 0
M  V30 15343 H 1474.36 3.90196 -3.4054 0
M  V30 15344 H 1471.03 4.09132 -0.831695 0
M  V30 15345 H 1472.42 4.66887 -4.83184 0
M  V30 15346 N 1475.14 1.08871 1.13951 0
M  V30 15347 C 1476.39 0.819665 1.84732 0
M  V30 15348 C 1476.71 -0.656535 1.83615 0
M  V30 15349 O 1475.98 -1.47614 1.28791 0
M  V30 15350 H 1474.56 0.30023 0.684011 0
M  V30 15351 H 1477.22 1.37568 1.38062 0
M  V30 15352 H 1476.32 1.16809 2.89417 0
M  V30 15353 N 1476.62 -1.31073 0.875073 0
M  V30 15354 C 1477.87 -1.96809 0.489273 0
M  V30 15355 C 1478.2 -1.68979 -0.957073 0
M  V30 15356 O 1477.48 -0.989061 -1.67475 0
M  V30 15357 C 1477.76 -3.52139 0.752998 0
M  V30 15358 C 1477.61 -3.89524 2.24925 0
M  V30 15359 C 1478.93 -4.39535 0.222871 0
M  V30 15360 H 1476.05 -0.714873 0.179238 0
M  V30 15361 H 1478.69 -1.55114 1.09725 0
M  V30 15362 H 1476.84 -3.87785 0.23553 0
M  V30 15363 H 1478.51 -3.63953 2.83436 0
M  V30 15364 H 1476.76 -3.37948 2.71981 0
M  V30 15365 H 1477.43 -4.97845 2.38441 0
M  V30 15366 H 1479.9 -4.10741 0.665645 0
M  V30 15367 H 1478.78 -5.47159 0.436806 0
M  V30 15368 H 1479.04 -4.33346 -0.875445 0
M  V30 15369 N 1478.1 -0.635022 -1.4424 0
M  V30 15370 C 1479.35 -0.138497 -2.01224 0
M  V30 15371 C 1479.66 1.2485 -1.50571 0
M  V30 15372 O 1480.87 1.83926 -1.99709 0
M  V30 15373 C 1479.32 -0.196836 -3.59361 0
M  V30 15374 C 1478.93 -1.58539 -4.1901 0
M  V30 15375 C 1480.68 0.243025 -4.23804 0
M  V30 15376 C 1478.58 -1.59864 -5.69384 0
M  V30 15377 H 1477.51 -0.0480117 -0.75247 0
M  V30 15378 H 1480.16 -0.794391 -1.65414 0
M  V30 15379 H 1478.55 0.526231 -3.92488 0
M  V30 15380 H 1479.72 -2.33236 -3.97414 0
M  V30 15381 H 1478.04 -1.96967 -3.66869 0
M  V30 15382 H 1480.63 0.252717 -5.34102 0
M  V30 15383 H 1480.98 1.27107 -3.96421 0
M  V30 15384 H 1481.51 -0.427678 -3.95494 0
M  V30 15385 H 1478.25 -2.60518 -6.01507 0
M  V30 15386 H 1477.77 -0.894664 -5.9309 0
M  V30 15387 H 1479.45 -1.3343 -6.33092 0
M  V30 15388 N 1479.58 1.53054 -0.375806 0
M  V30 15389 C 1480.83 2.01003 0.210257 0
M  V30 15390 C 1481.15 1.26451 1.48442 0
M  V30 15391 O 1480.42 0.380687 1.92166 0
M  V30 15392 H 1479 0.74263 0.0806861 0
M  V30 15393 H 1481.66 1.8826 -0.504393 0
M  V30 15394 H 1480.76 3.09123 0.430027 0
M  V30 15395 N 1481.06 0.105248 1.57248 0
M  V30 15396 C 1482.31 -0.555797 1.93891 0
M  V30 15397 C 1482.62 -1.68703 0.989883 0
M  V30 15398 O 1483.82 -2.40991 1.25043 0
M  V30 15399 C 1482.28 -1.04006 3.44544 0
M  V30 15400 C 1481.89 0.0619641 4.47957 0
M  V30 15401 C 1483.63 -1.67327 3.90131 0
M  V30 15402 C 1481.54 -0.438229 5.89774 0
M  V30 15403 H 1480.47 -0.211391 0.723761 0
M  V30 15404 H 1483.12 0.182887 1.82586 0
M  V30 15405 H 1481.5 -1.83275 3.51036 0
M  V30 15406 H 1482.68 0.837803 4.5312 0
M  V30 15407 H 1480.99 0.600973 4.1204 0
M  V30 15408 H 1483.59 -2.0584 4.93492 0
M  V30 15409 H 1483.93 -2.54638 3.29341 0
M  V30 15410 H 1484.46 -0.946231 3.86382 0
M  V30 15411 H 1481.2 0.398506 6.54288 0
M  V30 15412 H 1480.72 -1.18085 5.88061 0
M  V30 15413 H 1482.4 -0.903922 6.40655 0
M  V30 15414 N 1482.53 -1.56697 -0.168486 0
M  V30 15415 C 1483.78 -1.81346 -0.882973 0
M  V30 15416 C 1484.1 -0.682975 -1.83289 0
M  V30 15417 O 1485.3 -0.814479 -2.58995 0
M  V30 15418 C 1483.76 -3.21345 -1.62066 0
M  V30 15419 C 1483.37 -4.4227 -0.714241 0
M  V30 15420 C 1485.11 -3.55285 -2.32321 0
M  V30 15421 C 1483.02 -5.7329 -1.45233 0
M  V30 15422 H 1481.95 -0.676254 -0.333461 0
M  V30 15423 H 1484.6 -1.82996 -0.135871 0
M  V30 15424 H 1482.98 -3.1402 -2.41262 0
M  V30 15425 H 1484.15 -4.60782 0.0409556 0
M  V30 15426 H 1482.47 -4.16224 -0.121205 0
M  V30 15427 H 1485.07 -4.50421 -2.88141 0
M  V30 15428 H 1485.41 -2.80301 -3.07793 0
M  V30 15429 H 1485.94 -3.64176 -1.60066 0
M  V30 15430 H 1482.68 -6.51311 -0.739869 0
M  V30 15431 H 1482.2 -5.58751 -2.18077 0
M  V30 15432 H 1483.88 -6.15343 -1.99905 0
M  V30 15433 N 1484.01 0.437135 -1.51416 0
M  V30 15434 C 1485.24 1.20898 -1.67903 0
M  V30 15435 C 1485.66 1.85009 -0.376458 0
M  V30 15436 O 1485.01 1.7072 0.645051 0
M  V30 15437 C 1485.06 2.29286 -2.79482 0
M  V30 15438 O 1484.78 1.67798 -4.04692 0
M  V30 15439 C 1486.29 3.19561 -3.07238 0
M  V30 15440 H 1483.51 0.364381 -0.563442 0
M  V30 15441 H 1486.05 0.517931 -1.97833 0
M  V30 15442 H 1484.2 2.94107 -2.5215 0
M  V30 15443 H 1484.62 2.39433 -4.6666 0
M  V30 15444 H 1486.09 3.91748 -3.88893 0
M  V30 15445 H 1486.57 3.80327 -2.19654 0
M  V30 15446 H 1487.18 2.60441 -3.3623 0
M  V30 15447 N 1485.49 1.41566 0.692592 0
M  V30 15448 C 1486.45 1.43369 1.78824 0
M  V30 15449 C 1487.45 0.323867 1.57505 0
M  V30 15450 O 1488.64 0.583885 1.64123 0
M  V30 15451 C 1485.78 1.24798 3.17235 0
M  V30 15452 H 1486.97 2.40906 1.78617 0
M  V30 15453 H 1484.52 1.27752 0.900508 0
M  V30 15454 H 1485.26 0.281129 3.23079 0
M  V30 15455 H 1485.04 2.05212 3.34111 0
M  V30 15456 H 1486.53 1.28902 3.97208 0
M  V30 15457 N 1486.97 -0.927146 1.27443 0
M  V30 15458 C 1488.22 -1.67159 1.13589 0
M  V30 15459 C 1488.54 -1.92379 -0.31865 0
M  V30 15460 O 1487.81 -1.53045 -1.22287 0
M  V30 15461 H 1486.39 -0.619524 0.417371 0
M  V30 15462 H 1489.05 -1.11323 1.59979 0
M  V30 15463 H 1488.15 -2.63954 1.66537 0
M  V30 15464 N 1488.45 -1.09474 -1.13372 0
M  V30 15465 C 1489.69 -0.82945 -1.84295 0
M  V30 15466 C 1490.02 0.646788 -1.83961 0
M  V30 15467 O 1489.29 1.46929 -1.29572 0
M  V30 15468 H 1487.87 -0.303853 -0.682409 0
M  V30 15469 H 1490.53 -1.38298 -1.3733 0
M  V30 15470 H 1489.62 -1.18342 -2.88793 0
M  V30 15471 N 1489.92 1.30607 -0.882012 0
M  V30 15472 C 1490.83 2.31967 -0.350503 0
M  V30 15473 C 1491.85 1.6522 0.54575 0
M  V30 15474 O 1493.03 1.96544 0.439581 0
M  V30 15475 C 1490.09 3.44037 0.428924 0
M  V30 15476 C 1489.15 4.26417 -0.496727 0
M  V30 15477 C 1488.39 5.33135 0.245597 0
M  V30 15478 O 1488.61 5.51077 1.47209 0
M  V30 15479 O 1487.54 6.00551 -0.402767 0
M  V30 15480 H 1491.37 2.79374 -1.19095 0
M  V30 15481 H 1488.95 1.34723 -0.645754 0
M  V30 15482 H 1490.84 4.12314 0.870346 0
M  V30 15483 H 1489.51 2.9877 1.24573 0
M  V30 15484 H 1488.42 3.60848 -0.986899 0
M  V30 15485 H 1489.75 4.7528 -1.27945 0
M  V30 15486 N 1491.4 0.642663 1.43901 0
M  V30 15487 C 1492.65 0.151478 2.01532 0
M  V30 15488 C 1492.97 -1.23519 1.50891 0
M  V30 15489 O 1492.24 -1.82299 0.717197 0
M  V30 15490 H 1490.82 0.0530091 0.745117 0
M  V30 15491 H 1493.48 0.831958 1.76251 0
M  V30 15492 H 1492.58 0.127995 3.11837 0
M  V30 15493 N 1492.88 -1.52852 0.383918 0
M  V30 15494 C 1493.81 -2.29213 -0.44539 0
M  V30 15495 C 1494.79 -1.3238 -1.06815 0
M  V30 15496 O 1495.98 -1.61269 -1.08194 0
M  V30 15497 C 1493.11 -3.09497 -1.57573 0
M  V30 15498 C 1492.06 -4.14168 -1.07928 0
M  V30 15499 C 1491.39 -4.82644 -2.30128 0
M  V30 15500 C 1492.69 -5.22082 -0.151035 0
M  V30 15501 H 1494.38 -2.98786 0.19172 0
M  V30 15502 H 1491.93 -1.43695 0.0936471 0
M  V30 15503 H 1493.88 -3.61672 -2.16267 0
M  V30 15504 H 1492.6 -2.37647 -2.24034 0
M  V30 15505 H 1491.26 -3.62966 -0.514909 0
M  V30 15506 H 1490.91 -4.07348 -2.95087 0
M  V30 15507 H 1490.61 -5.53388 -1.97574 0
M  V30 15508 H 1492.14 -5.37621 -2.89475 0
M  V30 15509 H 1493.55 -5.69649 -0.646003 0
M  V30 15510 H 1491.95 -6.00041 0.0844833 0
M  V30 15511 H 1493.02 -4.78228 0.801618 0
M  V30 15512 N 1494.36 -0.113586 -1.5719 0
M  V30 15513 C 1495.61 0.546529 -1.95297 0
M  V30 15514 C 1495.94 1.66674 -0.996671 0
M  V30 15515 O 1495.21 1.94472 -0.0329298 0
M  V30 15516 C 1495.5 1.08433 -3.43387 0
M  V30 15517 C 1495.35 -0.0320929 -4.49789 0
M  V30 15518 C 1496.67 1.97691 -3.932 0
M  V30 15519 H 1493.79 0.197195 -0.710129 0
M  V30 15520 H 1496.43 -0.188048 -1.89067 0
M  V30 15521 H 1494.58 1.71033 -3.48827 0
M  V30 15522 H 1496.25 -0.66716 -4.5645 0
M  V30 15523 H 1494.49 -0.695983 -4.2818 0
M  V30 15524 H 1495.17 0.385341 -5.50653 0
M  V30 15525 H 1497.64 1.4497 -3.90029 0
M  V30 15526 H 1496.52 2.3224 -4.97349 0
M  V30 15527 H 1496.78 2.90137 -3.33576 0
M  V30 15528 N 1495.84 1.56784 0.160173 0
M  V30 15529 C 1496.8 1.96373 1.18195 0
M  V30 15530 C 1497.8 0.848674 1.3658 0
M  V30 15531 O 1498.99 1.11553 1.33796 0
M  V30 15532 C 1496.12 2.26824 2.54487 0
M  V30 15533 H 1497.32 2.87819 0.842641 0
M  V30 15534 H 1494.87 1.51014 0.403038 0
M  V30 15535 H 1495.6 1.38129 2.93413 0
M  V30 15536 H 1495.39 3.08112 2.42507 0
M  V30 15537 H 1496.88 2.58337 3.28104 0
M  V30 15538 N 1497.32 -0.429099 1.51646 0
M  V30 15539 C 1498.56 -1.17784 1.64722 0
M  V30 15540 C 1498.89 -1.90998 0.367415 0
M  V30 15541 O 1498.15 -1.8463 -0.648862 0
M  V30 15542 C 1498.44 -2.2131 2.80636 0
M  V30 15543 C 1498.11 -1.65048 4.19607 0
M  V30 15544 C 1496.77 -1.49428 4.57411 0
M  V30 15545 C 1499.12 -1.23765 5.06292 0
M  V30 15546 C 1496.45 -0.910109 5.79598 0
M  V30 15547 C 1498.8 -0.667743 6.29066 0
M  V30 15548 C 1497.47 -0.498507 6.65636 0
M  V30 15549 H 1496.74 -0.431001 0.60276 0
M  V30 15550 H 1499.39 -0.46775 1.857 0
M  V30 15551 H 1497.69 -2.98388 2.53913 0
M  V30 15552 H 1499.39 -2.79079 2.87951 0
M  V30 15553 H 1495.98 -1.78185 3.89805 0
M  V30 15554 H 1500.16 -1.3465 4.77685 0
M  V30 15555 H 1495.42 -0.766825 6.06572 0
M  V30 15556 H 1499.59 -0.339377 6.95573 0
M  V30 15557 H 1497.22 -0.0437292 7.60187 0
M  V30 15558 N 1498.79 -1.41931 -0.685074 0
M  V30 15559 C 1500.02 -1.45432 -1.47866 0
M  V30 15560 C 1500.44 -0.0641302 -1.87991 0
M  V30 15561 O 1499.8 0.935081 -1.55325 0
M  V30 15562 C 1499.85 -2.37801 -2.71077 0
M  V30 15563 O 1498.95 -1.84229 -3.68963 0
M  V30 15564 H 1498.29 -0.493156 -0.444627 0
M  V30 15565 H 1500.82 -1.86508 -0.841177 0
M  V30 15566 H 1500.83 -2.54033 -3.19266 0
M  V30 15567 H 1499.51 -3.38807 -2.41211 0
M  V30 15568 H 1498.09 -1.775 -3.27945 0
M  V30 15569 N 1500.27 0.920374 -1.27933 0
M  V30 15570 C 1501.55 1.64765 -1.05413 0
M  V30 15571 C 1501.93 2.07106 0.408717 0
M  V30 15572 O 1501.28 1.81094 1.39346 0
M  V30 15573 C 1501.49 2.84417 -2.02257 0
M  V30 15574 C 1502.83 3.5559 -2.32036 0
M  V30 15575 O 1503.86 2.94555 -2.00289 0
M  V30 15576 O 1502.72 4.65574 -2.86187 0
M  V30 15577 H 1499.81 0.722503 -0.402391 0
M  V30 15578 H 1502.36 0.970263 -1.39226 0
M  V30 15579 H 1501.13 2.50174 -3.0088 0
M  V30 15580 H 1500.75 3.59872 -1.6905 0
M  V30 15581 N 1501.75 1.10074 1.1279 0
M  V30 15582 C 1503 0.835715 1.83572 0
M  V30 15583 C 1503.31 -0.640831 1.84805 0
M  V30 15584 O 1504.52 -1.02162 2.51545 0
M  V30 15585 C 1502.97 1.44519 3.29609 0
M  V30 15586 C 1502.58 2.95476 3.36746 0
M  V30 15587 C 1504.33 1.2594 4.05388 0
M  V30 15588 C 1502.23 3.49477 4.77095 0
M  V30 15589 H 1501.16 0.308974 0.687787 0
M  V30 15590 H 1503.81 1.32427 1.27025 0
M  V30 15591 H 1502.2 0.884323 3.86 0
M  V30 15592 H 1503.37 3.57846 2.90315 0
M  V30 15593 H 1501.68 3.13166 2.74437 0
M  V30 15594 H 1504.28 1.63732 5.09015 0
M  V30 15595 H 1504.62 0.200633 4.15816 0
M  V30 15596 H 1505.16 1.78814 3.55346 0
M  V30 15597 H 1501.9 4.55003 4.7186 0
M  V30 15598 H 1501.42 2.91873 5.23995 0
M  V30 15599 H 1503.1 3.47077 5.46028 0
M  V30 15600 N 1503.23 -1.30138 0.888926 0
M  V30 15601 C 1504.64 -1.48552 0.583486 0
M  V30 15602 C 1504.84 -1.81376 -0.877781 0
M  V30 15603 O 1503.9 -1.90374 -1.65873 0
M  V30 15604 C 1505.21 -2.60613 1.50004 0
M  V30 15605 C 1506.76 -2.74493 1.50409 0
M  V30 15606 C 1507.24 -3.89672 2.40666 0
M  V30 15607 N 1508.73 -3.96988 2.38652 0
M  V30 15608 C 1509.46 -4.85429 3.05199 0
M  V30 15609 N 1508.96 -5.78638 3.80985 0
M  V30 15610 N 1510.75 -4.78831 2.9441 0
M  V30 15611 H 1502.9 -1.07105 1.83418 0
M  V30 15612 H 1505.16 -0.530991 0.785336 0
M  V30 15613 H 1504.87 -2.43191 2.54069 0
M  V30 15614 H 1504.74 -3.5718 1.21254 0
M  V30 15615 H 1507.13 -2.91318 0.470933 0
M  V30 15616 H 1507.21 -1.78535 1.83191 0
M  V30 15617 H 1506.86 -3.73603 3.44069 0
M  V30 15618 H 1506.79 -4.84975 2.05198 0
M  V30 15619 H 1509.28 -3.30313 1.83581 0
M  V30 15620 H 1509.59 -6.42894 4.28844 0
M  V30 15621 H 1507.94 -5.78558 3.85092 0
M  V30 15622 H 1511.13 -4.04995 2.34727 0
M  V30 15623 H 1511.3 -5.47547 3.46549 0
M  V30 15624 N 1504.71 -0.650285 -1.43559 0
M  V30 15625 C 1505.98 -0.0925343 -1.95381 0
M  V30 15626 C 1506.36 1.38668 -1.59168 0
M  V30 15627 O 1505.71 2.11069 -0.875324 0
M  V30 15628 C 1505.92 -0.335657 -3.47382 0
M  V30 15629 C 1507.27 -0.239032 -4.23927 0
M  V30 15630 O 1508.29 -0.268056 -3.5519 0
M  V30 15631 O 1507.15 -0.160241 -5.46265 0
M  V30 15632 H 1504.25 0.0113084 -0.826923 0
M  V30 15633 H 1506.79 -0.723319 -1.53513 0
M  V30 15634 H 1505.56 -1.36132 -3.66857 0
M  V30 15635 H 1505.19 0.328339 -3.96242 0
M  V30 15636 N 1506.18 1.52647 -0.392018 0
M  V30 15637 C 1507.11 2.29446 0.433228 0
M  V30 15638 C 1508.09 1.32945 1.06111 0
M  V30 15639 O 1509.28 1.61841 1.07337 0
M  V30 15640 C 1506.41 3.10328 1.55929 0
M  V30 15641 C 1505.36 4.14735 1.05731 0
M  V30 15642 C 1504.69 4.83858 2.27565 0
M  V30 15643 C 1505.99 5.22154 0.123346 0
M  V30 15644 H 1507.68 2.9868 -0.207563 0
M  V30 15645 H 1505.23 1.43643 -0.101266 0
M  V30 15646 H 1507.18 3.62814 2.14346 0
M  V30 15647 H 1505.91 2.38832 2.22771 0
M  V30 15648 H 1504.57 3.63234 0.495653 0
M  V30 15649 H 1504.21 4.08907 2.92923 0
M  V30 15650 H 1503.91 5.54428 1.94637 0
M  V30 15651 H 1505.44 5.39149 2.86619 0
M  V30 15652 H 1506.85 5.69983 0.615784 0
M  V30 15653 H 1505.25 5.99987 -0.116304 0
M  V30 15654 H 1506.32 4.77796 -0.826969 0
M  V30 15655 N 1507.66 0.121921 1.57128 0
M  V30 15656 C 1508.89 -0.542225 1.99358 0
M  V30 15657 C 1509.3 -1.60578 1.00057 0
M  V30 15658 O 1508.64 -1.83694 -0.0142649 0
M  V30 15659 C 1508.71 -1.22448 3.38004 0
M  V30 15660 C 1508.37 -0.308522 4.55957 0
M  V30 15661 C 1509.37 0.454012 5.17914 0
M  V30 15662 C 1507.05 -0.218741 5.01823 0
M  V30 15663 C 1509.05 1.29403 6.24126 0
M  V30 15664 C 1506.73 0.624906 6.07896 0
M  V30 15665 C 1507.73 1.37992 6.68915 0
M  V30 15666 O 1507.42 2.20955 7.72938 0
M  V30 15667 H 1507.15 -0.147894 0.659624 0
M  V30 15668 H 1509.7 0.205954 2.04365 0
M  V30 15669 H 1507.93 -2.01979 3.2976 0
M  V30 15670 H 1509.62 -1.78583 3.64504 0
M  V30 15671 H 1510.39 0.394539 4.83393 0
M  V30 15672 H 1506.27 -0.796109 4.54074 0
M  V30 15673 H 1509.81 1.88382 6.71683 0
M  V30 15674 H 1505.71 0.685762 6.41847 0
M  V30 15675 H 1506.48 2.13929 7.90049 0
M  V30 15676 N 1509.14 -1.56867 -0.151857 0
M  V30 15677 C 1510.1 -1.96997 -1.17152 0
M  V30 15678 C 1511.1 -0.855905 -1.36128 0
M  V30 15679 O 1512.29 -1.12261 -1.33203 0
M  V30 15680 C 1509.43 -2.28171 -2.5328 0
M  V30 15681 H 1510.62 -2.88261 -0.827365 0
M  V30 15682 H 1508.17 -1.51226 -0.395024 0
M  V30 15683 H 1508.91 -1.39683 -2.92676 0
M  V30 15684 H 1508.69 -3.09394 -2.40869 0
M  V30 15685 H 1510.18 -2.60073 -3.26729 0
M  V30 15686 N 1510.62 0.421051 -1.51871 0
M  V30 15687 C 1511.85 1.18938 -1.6893 0
M  V30 15688 C 1512.26 1.85069 -0.393198 0
M  V30 15689 O 1511.6 1.72204 0.639648 0
M  V30 15690 C 1511.66 2.30343 -2.76012 0
M  V30 15691 C 1511.33 1.84446 -4.18125 0
M  V30 15692 C 1512.32 1.33882 -5.02366 0
M  V30 15693 C 1510.01 1.91642 -4.64305 0
M  V30 15694 C 1512 0.911212 -6.30853 0
M  V30 15695 C 1509.69 1.48492 -5.92784 0
M  V30 15696 C 1510.69 0.98316 -6.75887 0
M  V30 15697 O 1510.37 0.557853 -8.01962 0
M  V30 15698 H 1510.11 0.363908 -0.56969 0
M  V30 15699 H 1512.66 0.503089 -1.99144 0
M  V30 15700 H 1510.89 3.02298 -2.41148 0
M  V30 15701 H 1512.58 2.92148 -2.81787 0
M  V30 15702 H 1513.35 1.27704 -4.67885 0
M  V30 15703 H 1509.22 2.29641 -3.99732 0
M  V30 15704 H 1512.77 0.518877 -6.95668 0
M  V30 15705 H 1508.67 1.54345 -6.26776 0
M  V30 15706 H 1509.43 0.682238 -8.15652 0
M  V30 15707 N 1512.1 1.42293 0.677538 0
M  V30 15708 C 1513.01 1.47953 1.82063 0
M  V30 15709 C 1514.02 0.36851 1.70053 0
M  V30 15710 O 1515.2 0.618996 1.91652 0
M  V30 15711 C 1512.26 1.3769 3.18186 0
M  V30 15712 C 1511.32 2.59261 3.42173 0
M  V30 15713 C 1510.56 2.49478 4.71801 0
M  V30 15714 O 1510.78 1.52915 5.49521 0
M  V30 15715 O 1509.71 3.39562 4.96972 0
M  V30 15716 H 1513.54 2.4443 1.80244 0
M  V30 15717 H 1511.13 1.24027 0.832932 0
M  V30 15718 H 1513.01 1.34319 3.9942 0
M  V30 15719 H 1511.68 0.443377 3.20649 0
M  V30 15720 H 1510.59 2.68207 2.60798 0
M  V30 15721 H 1511.92 3.51503 3.44538 0
M  V30 15722 N 1513.57 -0.913576 1.28419 0
M  V30 15723 C 1514.48 -2.04922 1.14211 0
M  V30 15724 C 1515.5 -1.73865 0.0686424 0
M  V30 15725 O 1516.68 -1.99473 0.277968 0
M  V30 15726 C 1513.74 -3.37214 0.805445 0
M  V30 15727 C 1512.8 -3.81879 1.96129 0
M  V30 15728 C 1512.04 -5.07858 1.6406 0
M  V30 15729 O 1512.26 -5.67693 0.555032 0
M  V30 15730 O 1511.19 -5.4824 2.48428 0
M  V30 15731 H 1515.02 -2.19827 2.09547 0
M  V30 15732 H 1512.6 -1.03501 1.0774 0
M  V30 15733 H 1514.49 -4.16639 0.631648 0
M  V30 15734 H 1513.16 -3.23484 -0.118254 0
M  V30 15735 H 1512.07 -3.03281 2.19024 0
M  V30 15736 H 1513.4 -4.00173 2.8657 0
M  V30 15737 N 1515.05 -1.1067 -1.12204 0
M  V30 15738 C 1515.96 -0.770221 -2.21596 0
M  V30 15739 C 1516.98 0.233297 -1.72429 0
M  V30 15740 O 1518.15 0.0714493 -2.01273 0
M  V30 15741 C 1515.22 -0.209682 -3.46065 0
M  V30 15742 C 1514.28 -1.27079 -4.1006 0
M  V30 15743 C 1513.51 -0.736899 -5.28588 0
M  V30 15744 O 1513.74 0.435838 -5.68732 0
M  V30 15745 O 1512.67 -1.49797 -5.82962 0
M  V30 15746 H 1516.5 -1.6834 -2.52776 0
M  V30 15747 H 1514.08 -0.882012 -1.20586 0
M  V30 15748 H 1515.96 0.0989516 -4.21284 0
M  V30 15749 H 1514.64 0.676316 -3.16556 0
M  V30 15750 H 1513.55 -1.63231 -3.3661 0
M  V30 15751 H 1514.88 -2.12989 -4.4373 0
M  V30 15752 N 1516.53 1.29665 -0.895815 0
M  V30 15753 C 1517.49 2.26103 -0.3755 0
M  V30 15754 C 1518.49 1.53212 0.488126 0
M  V30 15755 O 1519.68 1.71706 0.293733 0
M  V30 15756 C 1516.82 3.37732 0.46364 0
M  V30 15757 H 1518.01 2.73643 -1.22718 0
M  V30 15758 H 1515.56 1.4104 -0.673613 0
M  V30 15759 H 1516.3 2.95526 1.33546 0
M  V30 15760 H 1516.08 3.91793 -0.155123 0
M  V30 15761 H 1517.57 4.09488 0.819112 0
M  V30 15762 N 1518.01 0.657889 1.43212 0
M  V30 15763 C 1518.94 -0.0807001 2.28057 0
M  V30 15764 C 1519.92 -0.825321 1.40097 0
M  V30 15765 O 1521.1 -0.823932 1.69539 0
M  V30 15766 C 1518.23 -1.12112 3.19607 0
M  V30 15767 C 1517.28 -0.474017 4.23858 0
M  V30 15768 S 1518.11 0.75589 5.30138 0
M  V30 15769 C 1519.27 -0.28388 6.25256 0
M  V30 15770 H 1519.5 0.639012 2.90351 0
M  V30 15771 H 1517.03 0.446876 1.47792 0
M  V30 15772 H 1518.99 -1.71637 3.72895 0
M  V30 15773 H 1517.65 -1.81318 2.56481 0
M  V30 15774 H 1516.84 -1.25849 4.88035 0
M  V30 15775 H 1516.45 0.0472307 3.7397 0
M  V30 15776 H 1518.74 -1.14869 6.67691 0
M  V30 15777 H 1519.68 0.322986 7.07363 0
M  V30 15778 H 1520.09 -0.621781 5.61065 0
M  V30 15779 N 1519.49 -1.52437 0.400108 0
M  V30 15780 C 1520.4 -2.30496 -0.436875 0
M  V30 15781 C 1521.41 -1.37851 -1.06175 0
M  V30 15782 O 1522.59 -1.70924 -1.06522 0
M  V30 15783 C 1519.65 -3.10459 -1.54325 0
M  V30 15784 C 1518.71 -4.18829 -0.942367 0
M  V30 15785 C 1517.95 -4.94969 -1.99602 0
M  V30 15786 O 1518.17 -4.71314 -3.21278 0
M  V30 15787 O 1517.1 -5.80043 -1.60728 0
M  V30 15788 H 1520.93 -3.03045 0.199343 0
M  V30 15789 H 1518.52 -1.48502 0.163541 0
M  V30 15790 H 1520.4 -3.60282 -2.18575 0
M  V30 15791 H 1519.07 -2.40713 -2.16423 0
M  V30 15792 H 1517.98 -3.73176 -0.262831 0
M  V30 15793 H 1519.31 -4.90841 -0.365441 0
M  V30 15794 N 1520.96 -0.130252 -1.57061 0
M  V30 15795 C 1521.9 0.846442 -2.12998 0
M  V30 15796 C 1522.91 1.22229 -1.07536 0
M  V30 15797 O 1524.1 1.16928 -1.34871 0
M  V30 15798 C 1521.2 2.14481 -2.62395 0
M  V30 15799 C 1520.37 1.93892 -3.92077 0
M  V30 15800 C 1519.43 3.07562 -4.26957 0
M  V30 15801 O 1518.46 2.79983 -4.95578 0
M  V30 15802 N 1519.66 4.34297 -3.85184 0
M  V30 15803 H 1522.42 0.368471 -2.97426 0
M  V30 15804 H 1519.98 0.0538355 -1.6181 0
M  V30 15805 H 1521.98 2.8954 -2.82752 0
M  V30 15806 H 1520.55 2.53592 -1.82784 0
M  V30 15807 H 1519.77 1.02962 -3.80516 0
M  V30 15808 H 1521.05 1.77454 -4.76852 0
M  V30 15809 H 1520.45 4.59575 -3.29859 0
M  V30 15810 H 1519.01 5.06191 -4.10626 0
M  V30 15811 N 1522.44 1.56945 0.143535 0
M  V30 15812 C 1523.69 1.83176 0.853873 0
M  V30 15813 C 1524.01 0.71168 1.81549 0
M  V30 15814 O 1523.28 -0.266391 1.9408 0
M  V30 15815 H 1521.86 0.675785 0.318313 0
M  V30 15816 H 1524.52 1.9442 0.136712 0
M  V30 15817 H 1523.62 2.7823 1.41402 0
M  V30 15818 N 1523.92 -0.412991 1.52093 0
M  V30 15819 C 1525.17 -1.15737 1.65191 0
M  V30 15820 C 1525.48 -1.91753 0.38601 0
M  V30 15821 O 1526.69 -2.68586 0.396731 0
M  V30 15822 C 1525.15 -2.10619 2.91835 0
M  V30 15823 C 1524.75 -1.40137 4.25518 0
M  V30 15824 C 1526.5 -2.85339 3.14296 0
M  V30 15825 C 1524.4 -2.33645 5.4329 0
M  V30 15826 H 1523.33 -0.435732 0.615348 0
M  V30 15827 H 1525.99 -0.422172 1.78578 0
M  V30 15828 H 1524.37 -2.87675 2.72138 0
M  V30 15829 H 1525.54 -0.684719 4.55684 0
M  V30 15830 H 1523.86 -0.774734 4.09129 0
M  V30 15831 H 1526.45 -3.55437 3.99461 0
M  V30 15832 H 1526.8 -3.48071 2.28369 0
M  V30 15833 H 1527.33 -2.15384 3.34447 0
M  V30 15834 H 1524.07 -1.75566 6.31551 0
M  V30 15835 H 1523.59 -3.03294 5.17467 0
M  V30 15836 H 1525.27 -2.94255 5.76215 0
M  V30 15837 N 1525.4 -1.4265 -0.669982 0
M  V30 15838 C 1526.63 -1.46784 -1.45816 0
M  V30 15839 C 1527.04 -0.080606 -1.88628 0
M  V30 15840 O 1526.4 0.905687 -1.58441 0
M  V30 15841 C 1526.45 -2.39915 -2.70413 0
M  V30 15842 O 1526.17 -3.73241 -2.29396 0
M  V30 15843 C 1527.67 -2.53118 -3.63931 0
M  V30 15844 H 1524.89 -0.499076 -0.448513 0
M  V30 15845 H 1527.44 -1.87216 -0.822819 0
M  V30 15846 H 1525.59 -2.02722 -3.30125 0
M  V30 15847 H 1526.01 -4.23164 -3.09891 0
M  V30 15848 H 1527.48 -3.22395 -4.48069 0
M  V30 15849 H 1527.96 -1.57062 -4.10156 0
M  V30 15850 H 1528.56 -2.91052 -3.10111 0
M  V30 15851 N 1526.88 0.906753 -1.28902 0
M  V30 15852 C 1527.83 2.03141 -1.13299 0
M  V30 15853 C 1528.82 1.69325 -0.0504114 0
M  V30 15854 O 1530.03 1.78774 -0.209696 0
M  V30 15855 H 1526.4 0.665709 -0.349766 0
M  V30 15856 H 1528.37 2.13441 -2.08531 0
M  V30 15857 C 1527.12 3.37918 -0.818935 0
M  V30 15858 H 1526.44 3.64437 -1.64395 0
M  V30 15859 H 1527.88 4.17318 -0.749753 0
M  V30 15860 C 1526.34 3.33498 0.477582 0
M  V30 15861 O 1526.87 3.7241 1.50578 0
M  V30 15862 N 1525.08 2.86594 0.480862 0
M  V30 15863 H 1524.63 2.55124 -0.356308 0
M  V30 15864 H 1524.58 2.84019 1.34835 0
M  V30 15865 N 1528.36 1.11264 1.11616 0
M  V30 15866 C 1529.59 0.881522 1.8685 0
M  V30 15867 C 1529.99 -0.572088 1.80344 0
M  V30 15868 O 1529.34 -1.40665 1.18148 0
M  V30 15869 C 1529.4 1.26245 3.36604 0
M  V30 15870 C 1529.06 2.72485 3.6688 0
M  V30 15871 C 1530.06 3.70708 3.64516 0
M  V30 15872 C 1527.74 3.09086 3.95943 0
M  V30 15873 C 1529.74 5.0355 3.90789 0
M  V30 15874 C 1527.43 4.42114 4.21875 0
M  V30 15875 C 1528.42 5.39155 4.19286 0
M  V30 15876 O 1528.11 6.69787 4.44568 0
M  V30 15877 H 1527.84 0.315647 0.597782 0
M  V30 15878 H 1530.4 1.48317 1.42095 0
M  V30 15879 H 1528.63 0.603938 3.81955 0
M  V30 15880 H 1530.32 1.00744 3.93199 0
M  V30 15881 H 1531.08 3.43776 3.42115 0
M  V30 15882 H 1526.96 2.34171 3.97095 0
M  V30 15883 H 1530.51 5.79285 3.88684 0
M  V30 15884 H 1526.4 4.6878 4.43751 0
M  V30 15885 H 1527.17 6.75548 4.62144 0
M  V30 15886 N 1529.83 -1.29188 0.902679 0
M  V30 15887 C 1531.08 -1.94718 0.526082 0
M  V30 15888 C 1531.4 -1.71924 -0.932816 0
M  V30 15889 O 1532.6 -2.31585 -1.41707 0
M  V30 15890 C 1531.06 -3.48723 0.889974 0
M  V30 15891 C 1530.67 -3.80312 2.36784 0
M  V30 15892 C 1532.41 -4.20472 0.58343 0
M  V30 15893 C 1530.32 -5.27574 2.67244 0
M  V30 15894 H 1529.25 -0.728875 0.193019 0
M  V30 15895 H 1531.9 -1.46869 1.10008 0
M  V30 15896 H 1530.28 -3.95242 0.244872 0
M  V30 15897 H 1531.45 -3.44641 3.05875 0
M  V30 15898 H 1529.77 -3.21709 2.64371 0
M  V30 15899 H 1532.37 -5.28864 0.787813 0
M  V30 15900 H 1532.71 -4.13544 -0.478204 0
M  V30 15901 H 1533.24 -3.79693 1.1865 0
M  V30 15902 H 1529.98 -5.39569 3.72217 0
M  V30 15903 H 1529.5 -5.64482 2.0278 0
M  V30 15904 H 1531.18 -5.95199 2.53666 0
M  V30 15905 N 1531.31 -0.665475 -1.42861 0
M  V30 15906 C 1532.22 0.018927 -2.34592 0
M  V30 15907 C 1533.24 0.798967 -1.54572 0
M  V30 15908 O 1534.41 0.743419 -1.87177 0
M  V30 15909 C 1531.48 0.965013 -3.32999 0
M  V30 15910 C 1530.54 0.180544 -4.2892 0
M  V30 15911 C 1529.77 1.08157 -5.22626 0
M  V30 15912 O 1530 2.32101 -5.21043 0
M  V30 15913 O 1528.93 0.54738 -5.99406 0
M  V30 15914 H 1532.76 -0.736444 -2.94636 0
M  V30 15915 H 1530.34 -0.425684 -1.43207 0
M  V30 15916 H 1532.22 1.50839 -3.93479 0
M  V30 15917 H 1530.9 1.7004 -2.75442 0
M  V30 15918 H 1529.8 -0.40671 -3.71883 0
M  V30 15919 H 1531.14 -0.515529 -4.89493 0
M  V30 15920 N 1532.79 1.52222 -0.408187 0
M  V30 15921 C 1534.01 2.06703 0.169901 0
M  V30 15922 C 1534.44 1.27635 1.3817 0
M  V30 15923 O 1533.8 0.306343 1.78693 0
M  V30 15924 C 1533.85 3.57121 0.499663 0
M  V30 15925 O 1532.95 3.80483 1.5908 0
M  V30 15926 H 1532.29 0.663839 0.0146145 0
M  V30 15927 H 1534.82 1.96174 -0.581113 0
M  V30 15928 H 1534.83 4.00886 0.758567 0
M  V30 15929 H 1533.51 4.14103 -0.386182 0
M  V30 15930 H 1532.08 3.48599 1.32413 0
M  V30 15931 N 1534.27 0.138579 1.5699 0
M  V30 15932 C 1535.2 -0.800568 2.19347 0
M  V30 15933 C 1536.18 -1.26318 1.13921 0
M  V30 15934 O 1537.36 -1.32226 1.42232 0
M  V30 15935 C 1534.49 -2.04317 2.80842 0
M  V30 15936 C 1533.45 -1.71764 3.92022 0
M  V30 15937 C 1532.77 -3.03217 4.40413 0
M  V30 15938 C 1534.07 -0.970789 5.13199 0
M  V30 15939 H 1535.77 -0.280888 2.98079 0
M  V30 15940 H 1533.31 -0.133663 1.43378 0
M  V30 15941 H 1535.27 -2.70491 3.2313 0
M  V30 15942 H 1533.99 -2.58643 1.99428 0
M  V30 15943 H 1532.65 -1.07972 3.50339 0
M  V30 15944 H 1532.3 -3.55517 3.55832 0
M  V30 15945 H 1532 -2.82203 5.15398 0
M  V30 15946 H 1533.52 -3.70477 4.85365 0
M  V30 15947 H 1534.94 -1.53445 5.52384 0
M  V30 15948 H 1533.33 -0.860895 5.93893 0
M  V30 15949 H 1534.4 0.0390088 4.84884 0
M  V30 15950 N 1535.75 -1.57019 -0.13521 0
M  V30 15951 C 1536.99 -1.83626 -0.844147 0
M  V30 15952 C 1537.31 -0.721298 -1.81169 0
M  V30 15953 O 1536.58 0.256095 -1.94219 0
M  V30 15954 H 1535.16 -0.677464 -0.314725 0
M  V30 15955 H 1537.83 -1.9449 -0.126399 0
M  V30 15956 H 1536.92 -2.78976 -1.39925 0
M  V30 15957 N 1537.22 0.404919 -1.52309 0
M  V30 15958 C 1538.19 1.47627 -1.75325 0
M  V30 15959 C 1539.19 1.48234 -0.623153 0
M  V30 15960 O 1540.38 1.49685 -0.891069 0
M  V30 15961 C 1537.51 2.87013 -1.83947 0
M  V30 15962 H 1538.7 1.2851 -2.70971 0
M  V30 15963 H 1536.26 0.635677 -1.42789 0
M  V30 15964 H 1536.99 3.11495 -0.902309 0
M  V30 15965 H 1536.78 2.87974 -2.66108 0
M  V30 15966 H 1538.27 3.64671 -2.03481 0
M  V30 15967 N 1538.7 1.43003 0.662408 0
M  V30 15968 C 1539.67 1.4713 1.75743 0
M  V30 15969 C 1540.67 0.357203 1.56782 0
M  V30 15970 O 1541.86 0.618566 1.62848 0
M  V30 15971 C 1538.99 1.31499 3.14517 0
M  V30 15972 H 1540.18 2.44641 1.73467 0
M  V30 15973 H 1537.73 1.29633 0.873208 0
M  V30 15974 H 1538.47 0.349596 3.2241 0
M  V30 15975 H 1538.25 2.12253 3.29683 0
M  V30 15976 H 1539.74 1.37298 3.94384 0
M  V30 15977 N 1540.18 -0.899904 1.29381 0
M  V30 15978 C 1541.43 -1.65038 1.17341 0
M  V30 15979 C 1541.76 -1.92544 -0.275135 0
M  V30 15980 O 1541.01 -1.53402 -1.21517 0
M  V30 15981 C 1541.31 -3.0069 1.93185 0
M  V30 15982 C 1540.98 -2.92792 3.42905 0
M  V30 15983 C 1539.64 -2.90345 3.83736 0
M  V30 15984 C 1541.99 -2.82015 4.38312 0
M  V30 15985 C 1539.32 -2.7494 5.1829 0
M  V30 15986 C 1541.67 -2.68149 5.72956 0
M  V30 15987 C 1540.33 -2.64068 6.13045 0
M  V30 15988 H 1539.6 -0.603915 0.42938 0
M  V30 15989 H 1542.25 -1.04743 1.60316 0
M  V30 15990 H 1540.56 -3.6485 1.428 0
M  V30 15991 H 1542.25 -3.57688 1.81274 0
M  V30 15992 H 1538.84 -2.95498 3.10449 0
M  V30 15993 H 1543.03 -2.82982 4.07719 0
M  V30 15994 H 1538.28 -2.70186 5.48461 0
M  V30 15995 H 1542.46 -2.58781 6.46533 0
M  V30 15996 H 1540.08 -2.51889 7.17256 0
M  V30 15997 N 1541.66 -1.11854 -1.11024 0
M  V30 15998 C 1542.91 -0.868355 -1.82494 0
M  V30 15999 C 1543.23 0.607622 -1.85292 0
M  V30 16000 O 1542.5 1.44147 -1.32659 0
M  V30 16001 H 1541.08 -0.31826 -0.67581 0
M  V30 16002 H 1543.74 -1.4118 -1.34366 0
M  V30 16003 H 1542.84 -1.24441 -2.86218 0
M  V30 16004 N 1543.14 1.28707 -0.909517 0
M  V30 16005 C 1544.36 1.99821 -0.555557 0
M  V30 16006 C 1544.79 1.67549 0.854931 0
M  V30 16007 O 1544.14 0.905521 1.57067 0
M  V30 16008 C 1544.19 3.52361 -0.766438 0
M  V30 16009 O 1543.3 4.12022 0.17654 0
M  V30 16010 H 1542.64 0.627918 -0.215905 0
M  V30 16011 H 1545.17 1.63965 -1.2238 0
M  V30 16012 H 1545.18 4.02379 -0.674894 0
M  V30 16013 H 1543.85 3.75184 -1.7947 0
M  V30 16014 H 1542.43 3.72882 0.0366216 0
M  V30 16015 N 1544.61 0.673042 1.42506 0
M  V30 16016 C 1545.86 0.194192 2.01165 0
M  V30 16017 C 1546.18 -1.2029 1.53477 0
M  V30 16018 O 1545.45 -1.80737 0.755704 0
M  V30 16019 H 1544.03 0.0688022 0.743825 0
M  V30 16020 H 1546.7 0.869157 1.74447 0
M  V30 16021 H 1545.79 0.194111 3.11496 0
M  V30 16022 N 1546.09 -1.52004 0.416254 0
M  V30 16023 C 1547.34 -2.01889 -0.157201 0
M  V30 16024 C 1547.67 -1.30153 -1.44535 0
M  V30 16025 O 1546.92 -0.39855 -1.91599 0
M  V30 16026 C 1547.22 -3.54624 -0.444553 0
M  V30 16027 C 1546.89 -4.4453 0.755251 0
M  V30 16028 C 1545.55 -4.68824 1.08433 0
M  V30 16029 C 1547.9 -4.97412 1.55663 0
M  V30 16030 C 1545.23 -5.43246 2.21586 0
M  V30 16031 C 1547.58 -5.73074 2.67898 0
M  V30 16032 C 1546.25 -5.95637 3.01285 0
M  V30 16033 H 1545.52 -0.738764 -0.0575239 0
M  V30 16034 H 1548.16 -1.83156 0.559133 0
M  V30 16035 H 1546.47 -3.71575 -1.24254 0
M  V30 16036 H 1548.16 -3.90739 -0.901333 0
M  V30 16037 H 1544.75 -4.25804 0.488789 0
M  V30 16038 H 1548.94 -4.78545 1.31562 0
M  V30 16039 H 1544.19 -5.58936 2.47792 0
M  V30 16040 H 1548.37 -6.13044 3.30378 0
M  V30 16041 H 1546 -6.53086 3.89079 0
M  V30 16042 N 1547.57 -0.146903 -1.56914 0
M  V30 16043 C 1548.8 0.511181 -2.00486 0
M  V30 16044 C 1549.21 1.58425 -1.02699 0
M  V30 16045 O 1548.57 1.82484 -0.0239878 0
M  V30 16046 C 1548.62 1.11191 -3.43975 0
M  V30 16047 O 1548.34 0.0817094 -4.38024 0
M  V30 16048 C 1549.84 1.85061 -4.02824 0
M  V30 16049 H 1547.06 0.133078 -0.657671 0
M  V30 16050 H 1549.61 -0.241457 -2.0307 0
M  V30 16051 H 1547.76 1.81517 -3.42243 0
M  V30 16052 H 1548.18 0.52181 -5.21898 0
M  V30 16053 H 1549.65 2.22385 -5.05222 0
M  V30 16054 H 1550.13 2.73649 -3.4353 0
M  V30 16055 H 1550.73 1.19434 -4.08186 0
M  V30 16056 N 1549.05 1.57088 0.126881 0
M  V30 16057 C 1549.98 1.96399 1.18153 0
M  V30 16058 C 1550.99 0.862288 1.38089 0
M  V30 16059 O 1552.18 1.14062 1.37303 0
M  V30 16060 C 1549.28 2.24026 2.54295 0
M  V30 16061 C 1548.46 3.5533 2.55068 0
M  V30 16062 C 1547.51 3.71261 3.72896 0
M  V30 16063 O 1546.54 4.43454 3.56844 0
M  V30 16064 N 1547.74 3.09435 4.91152 0
M  V30 16065 H 1550.51 2.87476 0.847217 0
M  V30 16066 H 1548.07 1.58781 0.316242 0
M  V30 16067 H 1550.06 2.31906 3.31665 0
M  V30 16068 H 1548.63 1.39114 2.79939 0
M  V30 16069 H 1547.85 3.58708 1.63468 0
M  V30 16070 H 1549.14 4.41649 2.52634 0
M  V30 16071 H 1548.54 2.50736 5.07097 0
M  V30 16072 H 1547.09 3.22848 5.66226 0
M  V30 16073 N 1550.53 -0.396836 1.52522 0
M  V30 16074 C 1551.46 -1.50361 1.72986 0
M  V30 16075 C 1552.47 -1.50928 0.610289 0
M  V30 16076 O 1553.66 -1.54972 0.88578 0
M  V30 16077 C 1550.76 -2.89229 1.76635 0
M  V30 16078 C 1549.93 -3.12715 3.05824 0
M  V30 16079 C 1548.99 -4.31523 3.01122 0
M  V30 16080 O 1548.02 -4.28207 3.75004 0
M  V30 16081 N 1549.22 -5.37294 2.19763 0
M  V30 16082 H 1551.99 -1.33196 2.68475 0
M  V30 16083 H 1549.55 -0.586269 1.50912 0
M  V30 16084 H 1551.54 -3.66796 1.71006 0
M  V30 16085 H 1550.11 -2.99791 0.885667 0
M  V30 16086 H 1549.33 -2.23083 3.25004 0
M  V30 16087 H 1550.62 -3.25257 3.91261 0
M  V30 16088 H 1550.01 -5.4284 1.5919 0
M  V30 16089 H 1548.57 -6.13557 2.19981 0
M  V30 16090 N 1552.01 -1.43353 -0.654814 0
M  V30 16091 C 1553.25 -1.44172 -1.41058 0
M  V30 16092 C 1553.57 -0.0690586 -1.95478 0
M  V30 16093 O 1554.77 0.0453021 -2.71462 0
M  V30 16094 C 1553.23 -2.53701 -2.55272 0
M  V30 16095 C 1552.84 -3.97066 -2.07466 0
M  V30 16096 C 1554.58 -2.63713 -3.3265 0
M  V30 16097 C 1552.49 -4.98065 -3.18881 0
M  V30 16098 H 1551.42 -0.536303 -0.529995 0
M  V30 16099 H 1554.07 -1.69336 -0.706941 0
M  V30 16100 H 1552.45 -2.21736 -3.28099 0
M  V30 16101 H 1553.63 -4.38485 -1.4166 0
M  V30 16102 H 1551.94 -3.91086 -1.42972 0
M  V30 16103 H 1554.54 -3.36346 -4.15663 0
M  V30 16104 H 1554.88 -1.68729 -3.80574 0
M  V30 16105 H 1555.41 -2.94971 -2.66902 0
M  V30 16106 H 1552.15 -5.94596 -2.75927 0
M  V30 16107 H 1551.67 -4.61261 -3.83404 0
M  V30 16108 H 1553.35 -5.20696 -3.84037 0
M  V30 16109 N 1553.48 0.89303 -1.29857 0
M  V30 16110 C 1554.71 1.6827 -1.21243 0
M  V30 16111 C 1555.13 1.86778 0.222621 0
M  V30 16112 O 1554.49 1.39291 1.1605 0
M  V30 16113 C 1554.54 3.041 -1.93792 0
M  V30 16114 O 1553.64 3.92696 -1.25951 0
M  V30 16115 H 1552.98 0.514479 -0.419771 0
M  V30 16116 H 1555.51 1.11513 -1.7154 0
M  V30 16117 H 1555.52 3.54198 -2.02504 0
M  V30 16118 H 1554.2 2.89948 -2.98166 0
M  V30 16119 H 1552.78 3.51132 -1.25541 0
M  V30 16120 N 1554.96 1.12442 1.10429 0
M  V30 16121 C 1556.24 0.791191 1.78884 0
M  V30 16122 C 1556.62 -0.719044 1.98477 0
M  V30 16123 O 1555.97 -1.65275 1.57786 0
M  V30 16124 C 1556.18 1.56632 3.11877 0
M  V30 16125 C 1557.52 1.75236 3.86752 0
M  V30 16126 O 1558.55 1.53145 3.21598 0
M  V30 16127 O 1557.41 2.12025 5.03694 0
M  V30 16128 H 1554.5 0.287788 0.775311 0
M  V30 16129 H 1557.05 1.22844 1.17078 0
M  V30 16130 H 1555.82 2.59317 2.93037 0
M  V30 16131 H 1555.44 1.12332 3.81402 0
M  V30 16132 N 1556.44 -1.28223 0.91633 0
M  V30 16133 C 1557.39 -2.27215 0.40521 0
M  V30 16134 C 1558.36 -1.57693 -0.521734 0
M  V30 16135 O 1559.54 -1.85577 -0.443369 0
M  V30 16136 C 1556.68 -3.43358 -0.346303 0
M  V30 16137 C 1555.79 -4.27622 0.613443 0
M  V30 16138 C 1554.93 -5.30969 -0.156775 0
M  V30 16139 C 1553.97 -6.06897 0.796418 0
M  V30 16140 N 1553.11 -7.02075 0.0595539 0
M  V30 16141 H 1557.95 -2.70312 1.2544 0
M  V30 16142 H 1555.48 -1.32933 0.629859 0
M  V30 16143 H 1557.44 -4.09492 -0.798231 0
M  V30 16144 H 1556.07 -3.01244 -1.15982 0
M  V30 16145 H 1555.12 -3.61508 1.1839 0
M  V30 16146 H 1556.43 -4.80397 1.34239 0
M  V30 16147 H 1555.59 -6.02999 -0.669146 0
M  V30 16148 H 1554.33 -4.78968 -0.918755 0
M  V30 16149 H 1553.33 -5.33716 1.32014 0
M  V30 16150 H 1554.56 -6.60987 1.558 0
M  V30 16151 H 1552.5 -6.5242 -0.684388 0
M  V30 16152 H 1552.42 -7.52484 0.728275 0
M  V30 16153 H 1553.69 -7.78299 -0.432538 0
M  V30 16154 N 1557.92 -0.68059 -1.42147 0
M  V30 16155 C 1559.17 -0.202445 -2.00681 0
M  V30 16156 C 1559.48 1.19997 -1.54467 0
M  V30 16157 O 1560.69 1.77479 -2.05459 0
M  V30 16158 C 1559.14 -0.311064 -3.58553 0
M  V30 16159 C 1558.75 -1.7179 -4.13754 0
M  V30 16160 C 1560.49 0.108072 -4.24362 0
M  V30 16161 C 1558.4 -1.77897 -5.64009 0
M  V30 16162 H 1557.33 -0.0719266 -0.750561 0
M  V30 16163 H 1559.98 -0.846614 -1.62803 0
M  V30 16164 H 1558.36 0.401098 -3.93963 0
M  V30 16165 H 1559.54 -2.45761 -3.89793 0
M  V30 16166 H 1557.85 -2.08539 -3.60417 0
M  V30 16167 H 1560.45 0.0826684 -5.34636 0
M  V30 16168 H 1560.79 1.14431 -4.00264 0
M  V30 16169 H 1561.33 -0.553285 -3.93933 0
M  V30 16170 H 1558.06 -2.79523 -5.92914 0
M  V30 16171 H 1557.58 -1.0829 -5.89944 0
M  V30 16172 H 1559.26 -1.53504 -6.28527 0
M  V30 16173 N 1559.4 1.51781 -0.424309 0
M  V30 16174 C 1560.62 2.06387 0.145548 0
M  V30 16175 C 1561.04 1.29299 1.37576 0
M  V30 16176 O 1560.4 0.348952 1.79133 0
M  V30 16177 C 1560.45 3.58288 0.48083 0
M  V30 16178 O 1560.17 4.32463 -0.700546 0
M  V30 16179 C 1561.67 4.29364 1.10278 0
M  V30 16180 H 1558.89 0.67086 0.0136908 0
M  V30 16181 H 1561.43 1.95511 -0.599639 0
M  V30 16182 H 1559.59 3.69122 1.17591 0
M  V30 16183 H 1560 5.22839 -0.417035 0
M  V30 16184 H 1561.48 5.36776 1.28747 0
M  V30 16185 H 1561.95 3.86815 2.08017 0
M  V30 16186 H 1562.56 4.2294 0.447458 0
M  V30 16187 N 1560.87 0.155222 1.56834 0
M  V30 16188 C 1561.78 -0.794179 2.20749 0
M  V30 16189 C 1562.8 -1.26546 1.19424 0
M  V30 16190 O 1563.98 -1.32094 1.5203 0
M  V30 16191 C 1561.04 -2.01261 2.82303 0
M  V30 16192 C 1560.1 -1.58976 3.98779 0
M  V30 16193 C 1559.33 -2.75011 4.57389 0
M  V30 16194 O 1559.56 -3.91449 4.14879 0
M  V30 16195 O 1558.49 -2.50011 5.4752 0
M  V30 16196 H 1562.32 -0.280064 3.02406 0
M  V30 16197 H 1559.9 -0.0722048 1.49225 0
M  V30 16198 H 1561.78 -2.72551 3.21394 0
M  V30 16199 H 1560.46 -2.51609 2.03653 0
M  V30 16200 H 1559.37 -0.846848 3.64389 0
M  V30 16201 H 1560.7 -1.13336 4.78974 0
M  V30 16202 N 1562.35 -1.57153 -0.118549 0
M  V30 16203 C 1563.28 -2.03409 -1.1466 0
M  V30 16204 C 1564.26 -0.918636 -1.43161 0
M  V30 16205 O 1565.45 -1.18838 -1.53594 0
M  V30 16206 C 1562.58 -2.43879 -2.47265 0
M  V30 16207 C 1561.53 -3.58873 -2.33225 0
M  V30 16208 C 1560.86 -3.85244 -3.70798 0
M  V30 16209 C 1562.16 -4.90582 -1.79239 0
M  V30 16210 H 1563.85 -2.89545 -0.761862 0
M  V30 16211 H 1561.4 -1.39296 -0.365034 0
M  V30 16212 H 1563.35 -2.74844 -3.19435 0
M  V30 16213 H 1562.07 -1.54715 -2.8763 0
M  V30 16214 H 1560.73 -3.28119 -1.63504 0
M  V30 16215 H 1560.38 -2.93285 -4.08648 0
M  V30 16216 H 1560.08 -4.62649 -3.62257 0
M  V30 16217 H 1561.61 -4.18661 -4.44472 0
M  V30 16218 H 1563.02 -5.20079 -2.41227 0
M  V30 16219 H 1561.42 -5.71989 -1.81518 0
M  V30 16220 H 1562.49 -4.79065 -0.74999 0
M  V30 16221 N 1563.83 0.388742 -1.5273 0
M  V30 16222 C 1565.06 1.15495 -1.71664 0
M  V30 16223 C 1565.47 1.83717 -0.435127 0
M  V30 16224 O 1564.83 1.72686 0.590411 0
M  V30 16225 C 1564.88 2.20279 -2.86635 0
M  V30 16226 O 1564.6 1.54838 -4.09825 0
M  V30 16227 C 1566.1 3.09625 -3.1725 0
M  V30 16228 H 1563.32 0.346271 -0.57475 0
M  V30 16229 H 1565.87 0.454729 -1.9938 0
M  V30 16230 H 1564.02 2.85936 -2.61379 0
M  V30 16231 H 1564.44 2.24466 -4.74042 0
M  V30 16232 H 1565.91 3.79177 -4.01159 0
M  V30 16233 H 1566.39 3.73147 -2.31643 0
M  V30 16234 H 1566.99 2.49612 -3.44345 0
M  V30 16235 N 1565.31 1.43698 0.647203 0
M  V30 16236 C 1566.26 1.49599 1.78109 0
M  V30 16237 C 1567.25 0.369047 1.65331 0
M  V30 16238 O 1568.46 0.543303 1.71605 0
M  V30 16239 H 1564.83 0.46911 0.587741 0
M  V30 16240 H 1566.8 2.45064 1.70253 0
M  V30 16241 C 1565.55 1.44192 3.16392 0
M  V30 16242 H 1564.87 2.30216 3.26865 0
M  V30 16243 H 1566.31 1.52382 3.95671 0
M  V30 16244 C 1564.77 0.16036 3.36518 0
M  V30 16245 O 1565.3 -0.77593 3.94135 0
M  V30 16246 N 1563.51 0.0686236 2.90519 0
M  V30 16247 H 1563.06 0.831363 2.43816 0
M  V30 16248 H 1563.01 -0.78814 3.04361 0
M  V30 16249 N 1566.79 -0.886131 1.30328 0
M  V30 16250 C 1567.72 -1.99419 1.10938 0
M  V30 16251 C 1568.7 -1.62591 0.0173539 0
M  V30 16252 O 1569.88 -1.87726 0.170684 0
M  V30 16253 C 1567.01 -3.31561 0.691713 0
M  V30 16254 C 1566.05 -3.87376 1.78444 0
M  V30 16255 S 1566.89 -4.14812 3.38661 0
M  V30 16256 C 1568.04 -5.49976 2.98793 0
M  V30 16257 H 1568.28 -2.15561 2.04746 0
M  V30 16258 H 1565.81 -1.03438 1.14629 0
M  V30 16259 H 1567.77 -4.07943 0.457465 0
M  V30 16260 H 1566.43 -3.13279 -0.226981 0
M  V30 16261 H 1565.62 -4.82858 1.44445 0
M  V30 16262 H 1565.22 -3.1773 1.97291 0
M  V30 16263 H 1567.52 -6.30995 2.46682 0
M  V30 16264 H 1568.46 -5.88911 3.93178 0
M  V30 16265 H 1568.87 -5.1248 2.36694 0
M  V30 16266 N 1568.26 -1.13026 -1.09832 0
M  V30 16267 C 1569.51 -0.890736 -1.82191 0
M  V30 16268 C 1569.84 0.581818 -1.8528 0
M  V30 16269 O 1569.12 1.43037 -1.31798 0
M  V30 16270 C 1569.4 -1.47403 -3.28549 0
M  V30 16271 C 1569.25 -3.0154 -3.33757 0
M  V30 16272 C 1570.57 -1.13876 -4.25112 0
M  V30 16273 H 1567.69 -0.325028 -0.661457 0
M  V30 16274 H 1570.33 -1.39787 -1.28684 0
M  V30 16275 H 1568.48 -1.04272 -3.74245 0
M  V30 16276 H 1570.16 -3.53395 -2.96495 0
M  V30 16277 H 1568.4 -3.36746 -2.73467 0
M  V30 16278 H 1569.07 -3.37449 -4.36843 0
M  V30 16279 H 1571.55 -1.51139 -3.87681 0
M  V30 16280 H 1570.42 -1.57343 -5.25865 0
M  V30 16281 H 1570.68 -0.051854 -4.4207 0
M  V30 16282 N 1569.74 1.27735 -0.923117 0
M  V30 16283 C 1570.97 1.98682 -0.577317 0
M  V30 16284 C 1571.39 1.68904 0.843608 0
M  V30 16285 O 1570.74 0.947021 1.56006 0
M  V30 16286 C 1570.79 3.52804 -0.788144 0
M  V30 16287 O 1570.51 3.81537 -2.15316 0
M  V30 16288 C 1572.02 4.41006 -0.450437 0
M  V30 16289 H 1569.24 0.634186 -0.2192 0
M  V30 16290 H 1571.78 1.62702 -1.23888 0
M  V30 16291 H 1569.93 3.87012 -0.173441 0
M  V30 16292 H 1570.35 4.76142 -2.19976 0
M  V30 16293 H 1571.82 5.48175 -0.648674 0
M  V30 16294 H 1572.3 4.3489 0.613806 0
M  V30 16295 H 1572.91 4.1231 -1.04308 0
M  V30 16296 N 1571.22 0.688118 1.41784 0
M  V30 16297 C 1572.45 0.223231 2.06195 0
M  V30 16298 C 1572.87 -1.11601 1.51416 0
M  V30 16299 O 1572.23 -1.69701 0.638059 0
M  V30 16300 C 1572.28 0.183257 3.60134 0
M  V30 16301 O 1571.38 -0.844186 4.03667 0
M  V30 16302 H 1570.72 0.110925 0.654669 0
M  V30 16303 H 1573.25 0.940882 1.81683 0
M  V30 16304 H 1573.26 0.0115951 4.07998 0
M  V30 16305 H 1571.94 1.16072 3.99375 0
M  V30 16306 H 1570.51 -0.642484 3.67323 0
M  V30 16307 N 1572.7 -1.51554 0.432352 0
M  V30 16308 C 1573.93 -2.06462 -0.1346 0
M  V30 16309 C 1574.34 -1.30027 -1.36889 0
M  V30 16310 O 1573.7 -0.358447 -1.78945 0
M  V30 16311 C 1573.75 -3.58538 -0.461822 0
M  V30 16312 O 1573.47 -4.32085 0.723471 0
M  V30 16313 C 1574.97 -4.29943 -1.07999 0
M  V30 16314 H 1572.19 -0.670923 -0.0101329 0
M  V30 16315 H 1574.74 -1.9519 0.609999 0
M  V30 16316 H 1572.89 -3.6974 -1.15632 0
M  V30 16317 H 1573.3 -5.22611 0.444757 0
M  V30 16318 H 1574.78 -5.37451 -1.25898 0
M  V30 16319 H 1575.26 -3.87912 -2.05963 0
M  V30 16320 H 1575.86 -4.23171 -0.425022 0
M  V30 16321 N 1574.18 -0.163538 -1.56749 0
M  V30 16322 C 1575.43 0.483453 -1.9582 0
M  V30 16323 C 1575.74 1.64913 -1.05181 0
M  V30 16324 O 1576.94 2.36184 -1.33901 0
M  V30 16325 C 1575.4 0.911471 -3.48167 0
M  V30 16326 C 1575.01 -0.228178 -4.47419 0
M  V30 16327 C 1576.75 1.52732 -3.96072 0
M  V30 16328 C 1574.66 0.219036 -5.90994 0
M  V30 16329 H 1573.59 0.184383 -0.731108 0
M  V30 16330 H 1576.24 -0.250527 -1.81782 0
M  V30 16331 H 1574.62 1.7012 -3.57596 0
M  V30 16332 H 1575.8 -1.0054 -4.49698 0
M  V30 16333 H 1574.11 -0.753485 -4.09526 0
M  V30 16334 H 1576.71 1.87383 -5.00791 0
M  V30 16335 H 1577.05 2.42239 -3.38565 0
M  V30 16336 H 1577.58 0.802176 -3.89628 0
M  V30 16337 H 1574.32 -0.641066 -6.52358 0
M  V30 16338 H 1573.84 0.96178 -5.92039 0
M  V30 16339 H 1575.52 0.665524 -6.43568 0
M  V30 16340 N 1575.65 1.57214 0.110213 0
M  V30 16341 C 1576.88 1.89505 0.830391 0
M  V30 16342 C 1577.3 0.755702 1.73016 0
M  V30 16343 O 1576.65 -0.273072 1.80445 0
M  V30 16344 C 1576.71 3.21316 1.65646 0
M  V30 16345 O 1576.43 4.30865 0.7929 0
M  V30 16346 C 1577.93 3.67369 2.48102 0
M  V30 16347 H 1575.15 0.627277 0.238252 0
M  V30 16348 H 1577.69 2.04293 0.0919716 0
M  V30 16349 H 1575.85 3.08171 2.34754 0
M  V30 16350 H 1576.26 5.06466 1.36353 0
M  V30 16351 H 1577.73 4.62335 3.0158 0
M  V30 16352 H 1578.21 2.94459 3.25869 0
M  V30 16353 H 1578.82 3.83331 1.8422 0
M  V30 16354 N 1577.13 -0.380637 1.52934 0
M  V30 16355 C 1578.04 -1.48957 1.81243 0
M  V30 16356 C 1579.06 -1.5931 0.69974 0
M  V30 16357 O 1580.23 -1.75488 0.988218 0
M  V30 16358 C 1577.3 -2.84397 1.9829 0
M  V30 16359 C 1576.36 -2.83697 3.22202 0
M  V30 16360 C 1575.59 -4.12677 3.38427 0
M  V30 16361 O 1575.82 -5.08068 2.59274 0
M  V30 16362 O 1574.75 -4.19407 4.31719 0
M  V30 16363 H 1578.58 -1.27964 2.75425 0
M  V30 16364 H 1576.16 -0.56929 1.38128 0
M  V30 16365 H 1578.04 -3.64676 2.11161 0
M  V30 16366 H 1576.72 -3.054 1.07298 0
M  V30 16367 H 1575.63 -2.0217 3.14767 0
M  V30 16368 H 1576.96 -2.67648 4.13068 0
M  V30 16369 N 1578.61 -1.44039 -0.639573 0
M  V30 16370 C 1579.56 -1.50254 -1.75192 0
M  V30 16371 C 1580.53 -0.350994 -1.62349 0
M  V30 16372 O 1581.71 -0.56006 -1.82395 0
M  V30 16373 C 1578.85 -1.44464 -3.13407 0
M  V30 16374 C 1577.97 -2.69929 -3.37287 0
M  V30 16375 C 1577.1 -2.56031 -4.65426 0
M  V30 16376 C 1576.14 -3.76699 -4.82456 0
M  V30 16377 N 1575.28 -3.61529 -6.01865 0
M  V30 16378 H 1580.12 -2.45296 -1.69216 0
M  V30 16379 H 1577.65 -1.21748 -0.825576 0
M  V30 16380 H 1579.61 -1.39099 -3.93328 0
M  V30 16381 H 1578.24 -0.529951 -3.1842 0
M  V30 16382 H 1577.29 -2.85516 -2.51366 0
M  V30 16383 H 1578.61 -3.59523 -3.45753 0
M  V30 16384 H 1577.76 -2.48451 -5.53495 0
M  V30 16385 H 1576.5 -1.63983 -4.59305 0
M  V30 16386 H 1575.5 -3.84672 -3.92819 0
M  V30 16387 H 1576.73 -4.69772 -4.90398 0
M  V30 16388 H 1574.67 -2.72226 -5.96849 0
M  V30 16389 H 1574.59 -4.44733 -6.1135 0
M  V30 16390 H 1575.86 -3.57826 -6.92518 0
M  V30 16391 N 1580.09 0.879207 -1.30796 0
M  V30 16392 C 1581.02 2.00158 -1.20246 0
M  V30 16393 C 1582 1.69852 -0.091769 0
M  V30 16394 O 1583.18 1.92246 -0.274792 0
M  V30 16395 C 1580.31 3.3545 -0.899472 0
M  V30 16396 C 1579.27 3.80033 -1.96873 0
M  V30 16397 C 1578.59 5.12681 -1.51861 0
M  V30 16398 C 1579.89 3.98136 -3.38061 0
M  V30 16399 H 1581.59 2.09242 -2.14145 0
M  V30 16400 H 1579.13 1.00535 -1.03096 0
M  V30 16401 H 1581.09 4.13497 -0.812299 0
M  V30 16402 H 1579.81 3.26513 0.075189 0
M  V30 16403 H 1578.47 3.04219 -2.04564 0
M  V30 16404 H 1578.12 5.00178 -0.532063 0
M  V30 16405 H 1577.82 5.43482 -2.23386 0
M  V30 16406 H 1579.34 5.93247 -1.44534 0
M  V30 16407 H 1580.76 4.66604 -3.33096 0
M  V30 16408 H 1579.15 4.40321 -4.07722 0
M  V30 16409 H 1580.22 3.01807 -3.79526 0
M  V30 16410 N 1581.57 1.13606 1.09231 0
M  V30 16411 C 1582.5 0.837908 2.17948 0
M  V30 16412 C 1583.48 -0.203575 1.68877 0
M  V30 16413 O 1584.66 -0.0620702 1.94101 0
M  V30 16414 C 1581.79 0.305342 3.45955 0
M  V30 16415 C 1580.75 1.2813 4.08371 0
M  V30 16416 C 1580.07 0.608412 5.31227 0
M  V30 16417 C 1581.37 2.64055 4.50636 0
M  V30 16418 H 1583.07 1.747 2.43147 0
M  V30 16419 H 1580.61 0.84141 1.1686 0
M  V30 16420 H 1582.57 0.0844116 4.21315 0
M  V30 16421 H 1581.29 -0.639144 3.20285 0
M  V30 16422 H 1579.95 1.48826 3.35032 0
M  V30 16423 H 1579.6 -0.341613 5.01839 0
M  V30 16424 H 1579.3 1.25956 5.73942 0
M  V30 16425 H 1580.82 0.396809 6.09309 0
M  V30 16426 H 1582.24 2.47316 5.17212 0
M  V30 16427 H 1580.63 3.25364 5.0424 0
M  V30 16428 H 1581.7 3.21566 3.62937 0
M  V30 16429 N 1583.05 -1.27244 0.929878 0
M  V30 16430 C 1583.99 -2.26773 0.429287 0
M  V30 16431 C 1584.96 -1.58238 -0.50498 0
M  V30 16432 O 1586.15 -1.86037 -0.423661 0
M  V30 16433 C 1583.29 -3.43706 -0.309865 0
M  V30 16434 C 1582.4 -4.26948 0.658764 0
M  V30 16435 C 1581.54 -5.31105 -0.10045 0
M  V30 16436 C 1580.57 -6.06018 0.860743 0
M  V30 16437 N 1579.71 -7.01972 0.134015 0
M  V30 16438 H 1584.55 -2.68967 1.283 0
M  V30 16439 H 1582.09 -1.32257 0.643923 0
M  V30 16440 H 1584.05 -4.10316 -0.754754 0
M  V30 16441 H 1582.68 -3.02457 -1.1278 0
M  V30 16442 H 1581.73 -3.60232 1.22218 0
M  V30 16443 H 1583.04 -4.78946 1.39326 0
M  V30 16444 H 1582.19 -6.03674 -0.605153 0
M  V30 16445 H 1580.93 -4.79915 -0.867902 0
M  V30 16446 H 1579.94 -5.32285 1.37668 0
M  V30 16447 H 1581.16 -6.59297 1.62801 0
M  V30 16448 H 1579.11 -6.53109 -0.615152 0
M  V30 16449 H 1579.03 -7.51669 0.808045 0
M  V30 16450 H 1580.29 -7.78714 -0.349964 0
M  V30 16451 N 1584.52 -0.695628 -1.41417 0
M  V30 16452 C 1585.47 -0.0189456 -2.32592 0
M  V30 16453 C 1586.47 0.76848 -1.50966 0
M  V30 16454 O 1587.67 0.674096 -1.66901 0
M  V30 16455 H 1584.05 0.0126742 -0.751893 0
M  V30 16456 H 1586.02 -0.804968 -2.87337 0
M  V30 16457 C 1584.77 0.903458 -3.35757 0
M  V30 16458 H 1584.09 0.306963 -3.9862 0
M  V30 16459 H 1585.53 1.34525 -4.02093 0
M  V30 16460 C 1583.99 2.01966 -2.69651 0
M  V30 16461 O 1584.52 3.10845 -2.54438 0
M  V30 16462 N 1582.72 1.79741 -2.28345 0
M  V30 16463 H 1582.27 0.911929 -2.40918 0
M  V30 16464 H 1582.23 2.54609 -1.84449 0
M  V30 16465 N 1586 1.51322 -0.440383 0
M  V30 16466 C 1586.93 2.30708 0.360013 0
M  V30 16467 C 1587.91 1.36254 1.01828 0
M  V30 16468 O 1589.1 1.65174 1.02134 0
M  V30 16469 C 1586.23 3.15132 1.45977 0
M  V30 16470 C 1585.18 4.17889 0.924825 0
M  V30 16471 C 1584.51 4.90853 2.12056 0
M  V30 16472 C 1585.81 5.22282 -0.0428362 0
M  V30 16473 H 1587.5 2.97868 -0.30248 0
M  V30 16474 H 1585.05 1.43249 -0.146914 0
M  V30 16475 H 1587 3.69449 2.02695 0
M  V30 16476 H 1585.72 2.45798 2.1506 0
M  V30 16477 H 1584.38 3.64627 0.379842 0
M  V30 16478 H 1584.03 4.1802 2.79765 0
M  V30 16479 H 1583.73 5.60339 1.769 0
M  V30 16480 H 1585.26 5.47995 2.69322 0
M  V30 16481 H 1586.67 5.71654 0.434137 0
M  V30 16482 H 1585.07 5.99314 -0.307126 0
M  V30 16483 H 1586.14 4.74923 -0.978557 0
M  V30 16484 N 1587.48 0.171848 1.5666 0
M  V30 16485 C 1588.73 -0.473061 1.96074 0
M  V30 16486 C 1589.04 -1.64353 1.06054 0
M  V30 16487 O 1590.25 -2.35471 1.35151 0
M  V30 16488 C 1588.7 -0.892995 3.48645 0
M  V30 16489 C 1588.31 0.251902 4.47291 0
M  V30 16490 C 1590.06 -1.50629 3.96877 0
M  V30 16491 C 1587.96 -0.187691 5.91102 0
M  V30 16492 H 1586.89 -0.180503 0.732075 0
M  V30 16493 H 1589.54 0.260164 1.81646 0
M  V30 16494 H 1587.93 -1.68221 3.58494 0
M  V30 16495 H 1589.1 1.02923 4.49159 0
M  V30 16496 H 1587.41 0.775193 4.09121 0
M  V30 16497 H 1590.01 -1.84724 5.01778 0
M  V30 16498 H 1590.35 -2.4044 3.39844 0
M  V30 16499 H 1590.89 -0.781502 3.90048 0
M  V30 16500 H 1587.63 0.675653 6.52009 0
M  V30 16501 H 1587.15 -0.93037 5.9254 0
M  V30 16502 H 1588.83 -0.631385 6.43912 0
M  V30 16503 N 1588.96 -1.5727 -0.101874 0
M  V30 16504 C 1589.9 -2.01577 -1.12406 0
M  V30 16505 C 1590.87 -0.890883 -1.40187 0
M  V30 16506 O 1592.06 -1.15638 -1.51764 0
M  V30 16507 C 1589.2 -2.43952 -2.44093 0
M  V30 16508 C 1588.31 -3.69932 -2.23101 0
M  V30 16509 C 1587.45 -4.01215 -3.48138 0
M  V30 16510 C 1586.49 -5.20325 -3.22379 0
M  V30 16511 N 1585.62 -5.47394 -4.39664 0
M  V30 16512 H 1590.46 -2.88685 -0.739244 0
M  V30 16513 H 1588 -1.42789 -0.353497 0
M  V30 16514 H 1589.96 -2.66563 -3.20936 0
M  V30 16515 H 1588.59 -1.59863 -2.80435 0
M  V30 16516 H 1587.64 -3.54838 -1.37092 0
M  V30 16517 H 1588.95 -4.56924 -2.00054 0
M  V30 16518 H 1588.11 -4.24566 -4.33392 0
M  V30 16519 H 1586.85 -3.12732 -3.74233 0
M  V30 16520 H 1585.85 -4.96802 -2.35517 0
M  V30 16521 H 1587.08 -6.10401 -2.97637 0
M  V30 16522 H 1585.02 -4.61869 -4.65847 0
M  V30 16523 H 1584.94 -6.28743 -4.19783 0
M  V30 16524 H 1586.21 -5.75276 -5.26002 0
M  V30 16525 N 1590.44 0.372521 -1.53134 0
M  V30 16526 C 1591.68 1.11316 -1.68201 0
M  V30 16527 C 1592 1.90662 -0.436714 0
M  V30 16528 O 1593.2 2.67439 -0.467802 0
M  V30 16529 C 1591.66 2.02808 -2.97317 0
M  V30 16530 C 1591.27 1.28806 -4.29084 0
M  V30 16531 C 1593.01 2.76906 -3.2175 0
M  V30 16532 C 1590.92 2.19159 -5.49294 0
M  V30 16533 H 1589.85 0.419264 -0.626685 0
M  V30 16534 H 1592.5 0.374677 -1.79634 0
M  V30 16535 H 1590.88 2.80359 -2.79669 0
M  V30 16536 H 1592.06 0.563661 -4.5734 0
M  V30 16537 H 1590.37 0.665989 -4.1104 0
M  V30 16538 H 1592.97 3.44721 -4.08744 0
M  V30 16539 H 1593.31 3.41894 -2.37517 0
M  V30 16540 H 1593.84 2.06441 -3.4004 0
M  V30 16541 H 1590.58 1.5876 -6.35984 0
M  V30 16542 H 1590.1 2.89468 -5.25327 0
M  V30 16543 H 1591.78 2.78874 -5.83814 0
M  V30 16544 N 1591.91 1.44376 0.631925 0
M  V30 16545 C 1593.16 1.46398 1.38747 0
M  V30 16546 C 1593.48 0.100149 1.95343 0
M  V30 16547 O 1594.68 -0.00210908 2.715 0
M  V30 16548 C 1593.14 2.57731 2.51203 0
M  V30 16549 C 1592.75 4.00317 2.01123 0
M  V30 16550 C 1594.49 2.68972 3.28412 0
M  V30 16551 C 1592.4 5.03075 3.10917 0
M  V30 16552 H 1591.33 0.544667 0.521396 0
M  V30 16553 H 1593.98 1.70439 0.679912 0
M  V30 16554 H 1592.36 2.26928 3.2453 0
M  V30 16555 H 1593.53 4.40683 1.34666 0
M  V30 16556 H 1591.85 3.93311 1.36732 0
M  V30 16557 H 1594.45 3.42916 4.10259 0
M  V30 16558 H 1594.79 1.74762 3.77841 0
M  V30 16559 H 1595.32 2.9918 2.62176 0
M  V30 16560 H 1592.06 5.98911 2.66433 0
M  V30 16561 H 1591.58 4.67302 3.76017 0
M  V30 16562 H 1593.26 5.2674 3.75705 0
M  V30 16563 N 1593.39 -0.872258 1.31261 0
M  V30 16564 C 1594.62 -1.6632 1.23905 0
M  V30 16565 C 1595.04 -1.87109 -0.192878 0
M  V30 16566 O 1594.4 -1.4112 -1.1382 0
M  V30 16567 C 1594.45 -3.00979 1.98606 0
M  V30 16568 O 1593.55 -3.90642 1.32183 0
M  V30 16569 H 1592.89 -0.507736 0.427902 0
M  V30 16570 H 1595.42 -1.0877 1.73292 0
M  V30 16571 H 1595.43 -3.50931 2.08113 0
M  V30 16572 H 1594.11 -2.85168 3.02741 0
M  V30 16573 H 1592.68 -3.4909 1.31112 0
M  V30 16574 N 1594.87 -1.14184 -1.08627 0
M  V30 16575 C 1596.09 -0.932504 -1.85254 0
M  V30 16576 C 1596.52 0.513792 -1.80947 0
M  V30 16577 O 1595.88 1.36525 -1.19292 0
M  V30 16578 C 1595.93 -1.43519 -3.30809 0
M  V30 16579 O 1595.03 -0.625806 -4.07624 0
M  V30 16580 H 1594.37 -0.333573 -0.57413 0
M  V30 16581 H 1596.9 -1.51853 -1.3712 0
M  V30 16582 H 1596.91 -1.44238 -3.81654 0
M  V30 16583 H 1595.59 -2.48819 -3.3326 0
M  V30 16584 H 1594.16 -0.687168 -3.66514 0
M  V30 16585 N 1596.35 1.26749 -0.936613 0
M  V30 16586 C 1597.28 2.2892 -0.460213 0
M  V30 16587 C 1598.26 1.63065 0.484135 0
M  V30 16588 O 1599.44 1.90305 0.386973 0
M  V30 16589 C 1596.57 3.46172 0.279648 0
M  V30 16590 C 1595.53 4.24083 -0.57771 0
M  V30 16591 C 1594.85 5.33903 0.291843 0
M  V30 16592 C 1596.15 4.88562 -1.84673 0
M  V30 16593 H 1597.85 2.69019 -1.31412 0
M  V30 16594 H 1595.39 1.29325 -0.633333 0
M  V30 16595 H 1597.35 4.16755 0.623931 0
M  V30 16596 H 1596.07 3.05014 1.16765 0
M  V30 16597 H 1594.73 3.55258 -0.904824 0
M  V30 16598 H 1594.38 4.88986 1.17906 0
M  V30 16599 H 1594.08 5.8694 -0.278372 0
M  V30 16600 H 1595.6 6.07326 0.631498 0
M  V30 16601 H 1597.02 5.51384 -1.56997 0
M  V30 16602 H 1595.41 5.51697 -2.36115 0
M  V30 16603 H 1596.48 4.11761 -2.56088 0
M  V30 16604 N 1597.83 0.703118 1.41046 0
M  V30 16605 C 1599.07 0.237638 2.01403 0
M  V30 16606 C 1599.41 -1.16217 1.55587 0
M  V30 16607 O 1598.68 -1.78593 0.770377 0
M  V30 16608 C 1598.96 0.303738 3.58817 0
M  V30 16609 C 1598.82 1.74103 4.14739 0
M  V30 16610 C 1600.14 -0.332186 4.38845 0
M  V30 16611 H 1597.25 0.0878243 0.731749 0
M  V30 16612 H 1599.9 0.893264 1.67693 0
M  V30 16613 H 1598.05 -0.254485 3.87666 0
M  V30 16614 H 1599.72 2.35368 3.96736 0
M  V30 16615 H 1597.96 2.27277 3.69496 0
M  V30 16616 H 1598.63 1.73876 5.239 0
M  V30 16617 H 1601.11 0.143312 4.15853 0
M  V30 16618 H 1599.98 -0.255429 5.48305 0
M  V30 16619 H 1600.25 -1.41397 4.18878 0
M  V30 16620 N 1599.3 -1.51086 0.448402 0
M  V30 16621 C 1600.55 -2.01367 -0.115904 0
M  V30 16622 C 1600.87 -1.33658 -1.42811 0
M  V30 16623 O 1602.07 -1.74968 -2.07602 0
M  V30 16624 C 1600.53 -3.58981 -0.257092 0
M  V30 16625 C 1600.14 -4.35634 1.04534 0
M  V30 16626 C 1601.88 -4.17373 -0.774573 0
M  V30 16627 C 1599.79 -5.84978 0.869184 0
M  V30 16628 H 1598.72 -0.752528 -0.0470907 0
M  V30 16629 H 1601.37 -1.74098 0.57985 0
M  V30 16630 H 1599.75 -3.82742 -1.01611 0
M  V30 16631 H 1600.92 -4.23612 1.81354 0
M  V30 16632 H 1599.24 -3.88745 1.49219 0
M  V30 16633 H 1601.84 -5.26673 -0.923032 0
M  V30 16634 H 1602.18 -3.77267 -1.75997 0
M  V30 16635 H 1602.71 -3.97732 -0.0735697 0
M  V30 16636 H 1599.45 -6.29516 1.82729 0
M  V30 16637 H 1598.97 -5.99634 0.140969 0
M  V30 16638 H 1600.65 -6.44852 0.526752 0
M  V30 16639 N 1600.78 -0.180154 -1.56567 0
M  V30 16640 C 1602.03 0.462656 -1.96322 0
M  V30 16641 C 1602.34 1.63788 -1.06925 0
M  V30 16642 O 1603.55 2.34751 -1.36398 0
M  V30 16643 C 1602.01 0.874492 -3.49114 0
M  V30 16644 C 1601.61 -0.27562 -4.47151 0
M  V30 16645 C 1603.36 1.48522 -3.9767 0
M  V30 16646 C 1601.27 0.156341 -5.91193 0
M  V30 16647 H 1600.2 0.176619 -0.733022 0
M  V30 16648 H 1602.85 -0.269793 -1.81506 0
M  V30 16649 H 1601.23 1.66318 -3.59381 0
M  V30 16650 H 1602.4 -1.05304 -4.48606 0
M  V30 16651 H 1600.72 -0.796878 -4.08704 0
M  V30 16652 H 1603.31 1.8206 -5.02751 0
M  V30 16653 H 1603.66 2.38634 -3.41115 0
M  V30 16654 H 1604.19 0.760806 -3.90457 0
M  V30 16655 H 1600.93 -0.710221 -6.51641 0
M  V30 16656 H 1600.45 0.898933 -5.93025 0
M  V30 16657 H 1602.13 0.597228 -6.44238 0
M  V30 16658 N 1602.26 1.57322 0.0935319 0
M  V30 16659 C 1603.49 1.90375 0.810245 0
M  V30 16660 C 1603.9 0.774011 1.72205 0
M  V30 16661 O 1603.26 -0.253918 1.80725 0
M  V30 16662 C 1603.31 3.23054 1.62228 0
M  V30 16663 O 1603.03 4.31682 0.747157 0
M  V30 16664 C 1604.53 3.6998 2.44192 0
M  V30 16665 H 1601.75 0.629769 0.231586 0
M  V30 16666 H 1604.3 2.04379 0.0702984 0
M  V30 16667 H 1602.45 3.10643 2.31472 0
M  V30 16668 H 1602.87 5.07884 1.30974 0
M  V30 16669 H 1604.34 4.65507 2.96659 0
M  V30 16670 H 1604.82 2.97899 3.22727 0
M  V30 16671 H 1605.42 3.85264 1.80144 0
M  V30 16672 N 1603.74 -0.364395 1.53329 0
M  V30 16673 C 1605.15 -0.706147 1.43128 0
M  V30 16674 C 1605.35 -1.93231 0.571307 0
M  V30 16675 O 1604.41 -2.52442 0.0542079 0
M  V30 16676 C 1605.72 -0.918245 2.86337 0
M  V30 16677 C 1607.27 -1.01818 2.95976 0
M  V30 16678 C 1607.75 -1.26274 4.40249 0
M  V30 16679 N 1609.24 -1.33042 4.43683 0
M  V30 16680 C 1609.97 -1.53677 5.52423 0
M  V30 16681 N 1609.47 -1.7162 6.71207 0
M  V30 16682 N 1611.26 -1.56056 5.40003 0
M  V30 16683 H 1603.41 0.442091 2.07748 0
M  V30 16684 H 1605.68 0.135735 0.938232 0
M  V30 16685 H 1605.38 -0.0890628 3.51587 0
M  V30 16686 H 1605.26 -1.826 3.30056 0
M  V30 16687 H 1607.64 -1.83791 2.30879 0
M  V30 16688 H 1607.72 -0.0877892 2.55649 0
M  V30 16689 H 1607.37 -0.448026 5.0592 0
M  V30 16690 H 1607.3 -2.20637 4.78149 0
M  V30 16691 H 1609.79 -1.20784 3.58078 0
M  V30 16692 H 1610.1 -1.86942 7.49848 0
M  V30 16693 H 1608.45 -1.68797 6.7419 0
M  V30 16694 H 1611.64 -1.41605 4.46168 0
M  V30 16695 H 1611.81 -1.71796 6.24812 0
M  V30 16696 N 1605.22 -1.44709 -0.62426 0
M  V30 16697 C 1606.16 -1.52413 -1.75707 0
M  V30 16698 C 1607.16 -0.395303 -1.64723 0
M  V30 16699 O 1608.36 -0.570535 -1.70719 0
M  V30 16700 H 1604.74 -0.478401 -0.580204 0
M  V30 16701 H 1606.71 -2.47742 -1.66333 0
M  V30 16702 C 1605.46 -1.49208 -3.14058 0
M  V30 16703 H 1604.78 -2.35387 -3.23161 0
M  V30 16704 H 1606.22 -1.58658 -3.93197 0
M  V30 16705 C 1604.68 -0.213877 -3.3622 0
M  V30 16706 O 1605.21 0.713128 -3.95319 0
M  V30 16707 N 1603.42 -0.114834 -2.90373 0
M  V30 16708 H 1602.96 -0.870047 -2.42462 0
M  V30 16709 H 1602.92 0.739619 -3.05576 0
M  V30 16710 N 1606.69 0.865285 -1.31722 0
M  V30 16711 C 1607.92 1.64897 -1.24469 0
M  V30 16712 C 1608.33 1.88228 0.191553 0
M  V30 16713 O 1607.68 1.44396 1.13559 0
M  V30 16714 C 1607.74 3.0371 -1.92355 0
M  V30 16715 C 1607.4 3.03468 -3.41696 0
M  V30 16716 C 1608.4 2.81086 -4.37364 0
M  V30 16717 C 1606.08 3.2444 -3.83463 0
M  V30 16718 C 1608.08 2.79663 -5.72772 0
M  V30 16719 C 1605.76 3.22645 -5.18983 0
M  V30 16720 C 1606.76 3.00284 -6.13448 0
M  V30 16721 O 1606.45 2.98342 -7.4649 0
M  V30 16722 H 1606.18 0.520681 -0.431124 0
M  V30 16723 H 1608.74 1.08795 -1.74221 0
M  V30 16724 H 1606.97 3.61558 -1.37159 0
M  V30 16725 H 1608.66 3.64321 -1.78955 0
M  V30 16726 H 1609.42 2.6466 -4.06423 0
M  V30 16727 H 1605.3 3.40874 -3.10364 0
M  V30 16728 H 1608.84 2.62128 -6.46479 0
M  V30 16729 H 1604.74 3.38612 -5.49556 0
M  V30 16730 H 1605.51 3.14371 -7.5572 0
M  V30 16731 N 1608.17 1.14759 1.0802 0
M  V30 16732 C 1609.08 0.851934 2.18585 0
M  V30 16733 C 1610.1 -0.16914 1.73176 0
M  V30 16734 O 1611.27 0.00330114 2.014 0
M  V30 16735 C 1608.34 0.337977 3.45049 0
M  V30 16736 C 1607.4 1.4221 4.05061 0
M  V30 16737 C 1606.63 0.932574 5.25489 0
M  V30 16738 O 1606.86 -0.224457 5.69958 0
M  V30 16739 O 1605.79 1.7133 5.77001 0
M  V30 16740 H 1609.62 1.77605 2.46354 0
M  V30 16741 H 1607.2 0.926159 1.17229 0
M  V30 16742 H 1609.08 0.0574734 4.21361 0
M  V30 16743 H 1607.76 -0.558363 3.18848 0
M  V30 16744 H 1606.67 1.75612 3.3032 0
M  V30 16745 H 1608 2.29311 4.3552 0
M  V30 16746 N 1609.65 -1.26251 0.943322 0
M  V30 16747 C 1610.93 -1.88839 0.509831 0
M  V30 16748 C 1611.31 -1.85227 -1.01263 0
M  V30 16749 O 1610.66 -1.30805 -1.87356 0
M  V30 16750 C 1610.87 -3.32076 1.07361 0
M  V30 16751 C 1612.21 -4.0891 1.14357 0
M  V30 16752 O 1613.24 -3.41153 1.02435 0
M  V30 16753 O 1612.1 -5.30088 1.32926 0
M  V30 16754 H 1609.19 -0.810069 0.166484 0
M  V30 16755 H 1611.74 -1.34405 1.03602 0
M  V30 16756 H 1610.51 -3.29077 2.11716 0
M  V30 16757 H 1610.13 -3.94052 0.529991 0
M  V30 16758 N 1611.13 -0.710588 -1.40671 0
M  V30 16759 C 1612.36 -0.257442 -2.05292 0
M  V30 16760 C 1612.77 1.09891 -1.53523 0
M  V30 16761 O 1612.13 1.68966 -0.689703 0
M  V30 16762 C 1612.18 -0.223091 -3.60811 0
M  V30 16763 O 1611.9 -1.52588 -4.10668 0
M  V30 16764 C 1613.4 0.249217 -4.42599 0
M  V30 16765 H 1610.62 -0.116663 -0.66078 0
M  V30 16766 H 1613.17 -0.967391 -1.80172 0
M  V30 16767 H 1611.32 0.437787 -3.84918 0
M  V30 16768 H 1611.74 -1.42301 -5.04827 0
M  V30 16769 H 1613.21 0.22211 -5.51553 0
M  V30 16770 H 1613.69 1.29057 -4.19811 0
M  V30 16771 H 1614.29 -0.381202 -4.23588 0
M  V30 16772 N 1612.61 1.50847 -0.456408 0
M  V30 16773 C 1613.84 2.0665 0.101737 0
M  V30 16774 C 1614.25 1.32188 1.34803 0
M  V30 16775 O 1613.61 0.38687 1.78352 0
M  V30 16776 C 1613.66 3.59227 0.404724 0
M  V30 16777 O 1613.38 4.30879 -0.79212 0
M  V30 16778 C 1614.88 4.31607 1.01145 0
M  V30 16779 H 1612.1 0.671 -0.000542219 0
M  V30 16780 H 1614.64 1.94195 -0.640974 0
M  V30 16781 H 1612.8 3.71533 1.09735 0
M  V30 16782 H 1613.21 5.21837 -0.527843 0
M  V30 16783 H 1614.69 5.39386 1.17332 0
M  V30 16784 H 1615.16 3.9114 1.99765 0
M  V30 16785 H 1615.77 4.23794 0.357645 0
M  V30 16786 N 1614.09 0.188454 1.56469 0
M  V30 16787 C 1615.31 -0.457846 2.01771 0
M  V30 16788 C 1615.73 -1.55646 1.06863 0
M  V30 16789 O 1615.09 -1.82356 0.0723619 0
M  V30 16790 C 1615.14 -1.02032 3.46802 0
M  V30 16791 O 1614.86 0.0344536 4.38086 0
M  V30 16792 C 1616.36 -1.74316 4.07589 0
M  V30 16793 H 1613.58 -0.115594 0.660968 0
M  V30 16794 H 1616.12 0.295213 2.02358 0
M  V30 16795 H 1614.28 -1.7238 3.46935 0
M  V30 16796 H 1614.69 -0.383254 5.23098 0
M  V30 16797 H 1616.17 -2.08912 5.1094 0
M  V30 16798 H 1616.64 -2.64445 3.50665 0
M  V30 16799 H 1617.25 -1.0857 4.11209 0
M  V30 16800 N 1615.56 -1.5737 -0.0851874 0
M  V30 16801 C 1616.81 -1.86864 -0.78802 0
M  V30 16802 C 1617.14 -0.778936 -1.77894 0
M  V30 16803 O 1616.42 0.212132 -1.9334 0
M  V30 16804 C 1616.7 -3.27006 -1.50795 0
M  V30 16805 C 1616.55 -4.46615 -0.534354 0
M  V30 16806 C 1617.87 -3.65187 -2.45614 0
M  V30 16807 H 1614.99 -0.679657 -0.285017 0
M  V30 16808 H 1617.63 -1.8993 -0.0514443 0
M  V30 16809 H 1615.78 -3.24522 -2.13583 0
M  V30 16810 H 1617.46 -4.61217 0.0872761 0
M  V30 16811 H 1615.7 -4.33536 0.151455 0
M  V30 16812 H 1616.37 -5.41423 -1.07544 0
M  V30 16813 H 1618.85 -3.68678 -1.92913 0
M  V30 16814 H 1617.72 -4.64158 -2.92999 0
M  V30 16815 H 1617.98 -2.944 -3.2982 0
M  V30 16816 N 1617.04 0.356258 -1.53521 0
M  V30 16817 C 1617.97 1.44271 -1.83598 0
M  V30 16818 C 1618.95 1.5547 -0.690141 0
M  V30 16819 O 1620.14 1.69886 -0.940868 0
M  V30 16820 C 1617.27 2.8149 -2.03422 0
M  V30 16821 C 1616.22 2.85108 -3.19213 0
M  V30 16822 C 1615.55 4.25091 -3.24348 0
M  V30 16823 C 1616.85 2.51788 -4.57602 0
M  V30 16824 H 1618.54 1.1935 -2.74583 0
M  V30 16825 H 1616.09 0.572707 -1.32121 0
M  V30 16826 H 1618.04 3.57531 -2.23046 0
M  V30 16827 H 1616.76 3.07819 -1.09155 0
M  V30 16828 H 1615.42 2.1152 -2.99424 0
M  V30 16829 H 1615.07 4.4851 -2.277 0
M  V30 16830 H 1614.77 4.28426 -4.0215 0
M  V30 16831 H 1616.3 5.02992 -3.46167 0
M  V30 16832 H 1617.71 3.17542 -4.77326 0
M  V30 16833 H 1616.11 2.66426 -5.37715 0
M  V30 16834 H 1617.18 1.4701 -4.62078 0
M  V30 16835 N 1618.52 1.45038 0.616577 0
M  V30 16836 C 1619.48 1.52647 1.70973 0
M  V30 16837 C 1620.48 0.406902 1.55567 0
M  V30 16838 O 1621.67 0.670062 1.60797 0
M  V30 16839 C 1618.8 1.41438 3.10174 0
M  V30 16840 H 1620 2.50036 1.65596 0
M  V30 16841 H 1617.55 1.32346 0.831524 0
M  V30 16842 H 1618.29 0.451991 3.21135 0
M  V30 16843 H 1618.07 2.22634 3.22764 0
M  V30 16844 H 1619.56 1.49776 3.89817 0
M  V30 16845 N 1620 -0.858287 1.32179 0
M  V30 16846 C 1621.23 -1.64473 1.25523 0
M  V30 16847 C 1621.64 -1.87964 -0.177425 0
M  V30 16848 O 1621 -1.44607 -1.11333 0
M  V30 16849 C 1621.05 -3.00609 2.0079 0
M  V30 16850 O 1620.77 -2.7816 3.38465 0
M  V30 16851 C 1622.27 -3.95054 2.01115 0
M  V30 16852 H 1619.49 -0.512393 0.433237 0
M  V30 16853 H 1622.03 -1.07048 1.74244 0
M  V30 16854 H 1620.19 -3.5469 1.55801 0
M  V30 16855 H 1620.6 -3.64712 3.76942 0
M  V30 16856 H 1622.08 -4.87854 2.58268 0
M  V30 16857 H 1622.55 -4.27746 0.996513 0
M  V30 16858 H 1623.16 -3.4691 2.46035 0
M  V30 16859 N 1621.48 -1.1533 -1.07409 0
M  V30 16860 C 1622.41 -0.872476 -2.16587 0
M  V30 16861 C 1623.39 0.176683 -1.6918 0
M  V30 16862 O 1624.57 0.0311826 -1.94175 0
M  V30 16863 C 1621.7 -0.360342 -3.45426 0
M  V30 16864 C 1620.66 -1.34611 -4.06281 0
M  V30 16865 C 1619.98 -0.692848 -5.30192 0
M  V30 16866 C 1621.28 -2.71191 -4.46378 0
M  V30 16867 H 1622.98 -1.78546 -2.40336 0
M  V30 16868 H 1620.52 -0.859895 -1.15507 0
M  V30 16869 H 1622.47 -0.151429 -4.21128 0
M  V30 16870 H 1621.2 0.588109 -3.21261 0
M  V30 16871 H 1619.86 -1.54137 -3.32622 0
M  V30 16872 H 1619.51 0.261732 -5.02319 0
M  V30 16873 H 1619.21 -1.35071 -5.71865 0
M  V30 16874 H 1620.73 -0.493695 -6.08601 0
M  V30 16875 H 1622.14 -2.55513 -5.13212 0
M  V30 16876 H 1620.54 -3.33345 -4.99 0
M  V30 16877 H 1621.61 -3.273 -3.57775 0
M  V30 16878 N 1622.95 1.25748 -0.950004 0
M  V30 16879 C 1623.92 2.24307 -0.47106 0
M  V30 16880 C 1624.92 1.55145 0.422704 0
M  V30 16881 O 1626.11 1.72797 0.220642 0
M  V30 16882 C 1623.24 3.39395 0.319979 0
M  V30 16883 H 1624.43 2.68192 -1.34214 0
M  V30 16884 H 1621.98 1.38056 -0.732827 0
M  V30 16885 H 1622.72 3.00925 1.20892 0
M  V30 16886 H 1622.5 3.90783 -0.321157 0
M  V30 16887 H 1623.99 4.12594 0.644697 0
M  V30 16888 N 1624.43 0.718038 1.40292 0
M  V30 16889 C 1625.36 0.0818367 2.33357 0
M  V30 16890 C 1626.34 -0.742854 1.53022 0
M  V30 16891 O 1627.53 -0.691281 1.8148 0
M  V30 16892 C 1624.66 -0.838843 3.37017 0
M  V30 16893 C 1623.61 -0.119589 4.27833 0
M  V30 16894 C 1622.94 -1.15615 5.22051 0
M  V30 16895 C 1624.24 1.02769 5.1209 0
M  V30 16896 H 1625.93 0.859167 2.86808 0
M  V30 16897 H 1623.48 0.414606 1.37902 0
M  V30 16898 H 1625.43 -1.29332 4.01063 0
M  V30 16899 H 1624.15 -1.6481 2.81967 0
M  V30 16900 H 1622.81 0.315088 3.65243 0
M  V30 16901 H 1622.46 -1.95852 4.63304 0
M  V30 16902 H 1622.16 -0.679767 5.83655 0
M  V30 16903 H 1623.69 -1.61068 5.88973 0
M  V30 16904 H 1625.1 0.652461 5.69575 0
M  V30 16905 H 1623.5 1.4326 5.82749 0
M  V30 16906 H 1624.57 1.85723 4.47923 0
M  V30 16907 N 1625.91 -1.50602 0.464402 0
M  V30 16908 C 1626.84 -2.31252 -0.323263 0
M  V30 16909 C 1627.82 -1.37856 -0.996476 0
M  V30 16910 O 1629.01 -1.66777 -0.994933 0
M  V30 16911 C 1626.14 -3.17414 -1.40945 0
M  V30 16912 C 1625.09 -4.19307 -0.858226 0
M  V30 16913 C 1624.42 -4.94164 -2.0422 0
M  V30 16914 C 1625.72 -5.22148 0.125921 0
M  V30 16915 H 1627.41 -2.97349 0.34983 0
M  V30 16916 H 1624.96 -1.42997 0.169685 0
M  V30 16917 H 1626.91 -3.72627 -1.96791 0
M  V30 16918 H 1625.63 -2.49189 -2.11122 0
M  V30 16919 H 1624.29 -3.65185 -0.321785 0
M  V30 16920 H 1623.94 -4.22417 -2.7308 0
M  V30 16921 H 1623.64 -5.63083 -1.67963 0
M  V30 16922 H 1625.16 -5.5221 -2.60569 0
M  V30 16923 H 1626.58 -5.72272 -0.343136 0
M  V30 16924 H 1624.98 -5.98749 0.402433 0
M  V30 16925 H 1626.05 -4.73307 1.05399 0
M  V30 16926 N 1627.39 -0.19675 -1.56367 0
M  V30 16927 C 1628.64 0.440711 -1.97236 0
M  V30 16928 C 1628.96 1.62037 -1.08485 0
M  V30 16929 O 1628.23 1.95274 -0.156483 0
M  V30 16930 H 1626.81 0.16581 -0.728365 0
M  V30 16931 H 1629.47 -0.283867 -1.92822 0
M  V30 16932 H 1628.57 0.783731 -3.02099 0
M  V30 16933 N 1628.87 1.57413 0.0768405 0
M  V30 16934 C 1630.11 1.88835 0.78235 0
M  V30 16935 C 1630.47 0.789942 1.74997 0
M  V30 16936 O 1631.67 0.987092 2.5002 0
M  V30 16937 C 1629.94 3.25491 1.47616 0
M  V30 16938 S 1631.5 3.78649 2.21743 0
M  V30 16939 H 1628.32 0.661649 0.260272 0
M  V30 16940 H 1630.92 1.95462 0.0386596 0
M  V30 16941 H 1629.63 4.03338 0.758047 0
M  V30 16942 H 1629.16 3.22049 2.25938 0
M  V30 16943 H 1631.17 3.53531 3.48182 0
M  V30 16944 N 1630.34 -0.348112 1.53707 0
M  V30 16945 C 1631.62 -1.1056 1.61356 0
M  V30 16946 C 1632 -2.06633 0.431955 0
M  V30 16947 O 1631.35 -2.21115 -0.576211 0
M  V30 16948 C 1631.56 -1.82929 2.97217 0
M  V30 16949 C 1632.91 -2.36837 3.52411 0
M  V30 16950 O 1633.93 -1.93032 2.99361 0
M  V30 16951 O 1632.79 -3.16966 4.45191 0
M  V30 16952 H 1629.88 -0.50817 0.652451 0
M  V30 16953 H 1632.43 -0.349971 1.66052 0
M  V30 16954 H 1631.2 -1.12912 3.74655 0
M  V30 16955 H 1630.83 -2.65361 2.9609 0
M  V30 16956 N 1631.82 -1.45363 -0.608876 0
M  V30 16957 C 1632.79 -1.53551 -1.70161 0
M  V30 16958 C 1633.79 -0.415146 -1.55349 0
M  V30 16959 O 1634.98 -0.67858 -1.6044 0
M  V30 16960 C 1632.11 -1.43081 -3.0942 0
M  V30 16961 H 1633.3 -2.5091 -1.64268 0
M  V30 16962 H 1630.85 -1.32785 -0.824493 0
M  V30 16963 H 1631.59 -0.469016 -3.20891 0
M  V30 16964 H 1631.37 -2.24343 -3.21579 0
M  V30 16965 H 1632.86 -1.51841 -3.89017 0
M  V30 16966 N 1633.3 0.851265 -1.32632 0
M  V30 16967 C 1634.53 1.64328 -1.26535 0
M  V30 16968 C 1634.95 1.87392 0.163086 0
M  V30 16969 O 1634.31 1.42913 1.1156 0
M  V30 16970 C 1634.36 2.97781 -2.03369 0
M  V30 16971 O 1633.46 3.8849 -1.38381 0
M  V30 16972 H 1632.8 0.500864 -0.435926 0
M  V30 16973 H 1635.33 1.06 -1.75001 0
M  V30 16974 H 1635.34 3.47576 -2.1367 0
M  V30 16975 H 1634.02 2.80316 -3.07239 0
M  V30 16976 H 1632.59 3.4696 -1.36649 0
M  V30 16977 N 1634.78 1.15898 1.06796 0
M  V30 16978 C 1636.19 0.945837 1.60968 0
M  V30 16979 C 1636.54 -0.511507 1.89415 0
M  V30 16980 O 1635.67 -1.38372 1.66379 0
M  V30 16981 C 1636.26 1.71054 2.92448 0
M  V30 16982 C 1634.82 1.54252 3.43341 0
M  V30 16983 C 1633.97 1.72253 2.17311 0
M  V30 16984 H 1636.92 1.30842 0.898118 0
M  V30 16985 H 1636.94 1.18336 3.61631 0
M  V30 16986 H 1636.45 2.77117 2.71712 0
M  V30 16987 H 1634.55 0.506082 3.69147 0
M  V30 16988 H 1634.66 2.32314 4.19007 0
M  V30 16989 H 1633.03 1.14952 2.27284 0
M  V30 16990 H 1633.81 2.79693 1.99064 0
M  V30 16991 N 1636.26 -1.25243 0.956659 0
M  V30 16992 C 1637.5 -1.93624 0.623011 0
M  V30 16993 C 1637.86 -1.73521 -0.831149 0
M  V30 16994 O 1637.15 -1.07092 -1.58877 0
M  V30 16995 C 1637.34 -3.4536 0.919849 0
M  V30 16996 C 1637.17 -3.8022 2.40131 0
M  V30 16997 C 1635.94 -4.02169 3.05922 0
M  V30 16998 C 1638.14 -3.87567 3.38077 0
M  V30 16999 N 1636.12 -4.24037 4.43921 0
M  V30 17000 C 1637.49 -4.14149 4.6139 0
M  V30 17001 C 1639.55 -3.70257 3.32888 0
M  V30 17002 C 1638.25 -4.2522 5.80155 0
M  V30 17003 C 1640.28 -3.82569 4.50994 0
M  V30 17004 C 1639.64 -4.09565 5.73094 0
M  V30 17005 H 1635.74 -0.730679 0.278624 0
M  V30 17006 H 1638.32 -1.50988 1.22925 0
M  V30 17007 H 1636.49 -3.86887 0.342519 0
M  V30 17008 H 1638.23 -4.01001 0.545898 0
M  V30 17009 H 1634.98 -3.98135 2.56487 0
M  V30 17010 H 1635.41 -4.38974 5.15394 0
M  V30 17011 H 1640.05 -3.48401 2.39533 0
M  V30 17012 H 1637.77 -4.45892 6.73948 0
M  V30 17013 H 1641.35 -3.70559 4.48528 0
M  V30 17014 H 1640.23 -4.18875 6.62958 0
M  V30 17015 N 1637.73 -0.725468 -1.3991 0
M  V30 17016 C 1638.67 -0.0397832 -2.29165 0
M  V30 17017 C 1639.68 0.713458 -1.46334 0
M  V30 17018 O 1640.87 0.559199 -1.69515 0
M  V30 17019 C 1637.97 0.967929 -3.24784 0
M  V30 17020 C 1637.14 0.278181 -4.36515 0
M  V30 17021 C 1636.2 1.19266 -5.12506 0
M  V30 17022 O 1635.23 0.673726 -5.65199 0
M  V30 17023 N 1636.43 2.5231 -5.228 0
M  V30 17024 H 1639.19 -0.806204 -2.88653 0
M  V30 17025 H 1636.75 -0.573904 -1.51387 0
M  V30 17026 H 1638.75 1.58209 -3.72494 0
M  V30 17027 H 1637.32 1.63563 -2.66394 0
M  V30 17028 H 1636.54 -0.516326 -3.90804 0
M  V30 17029 H 1637.82 -0.200203 -5.08406 0
M  V30 17030 H 1637.22 2.96957 -4.8149 0
M  V30 17031 H 1635.78 3.08846 -5.73984 0
M  V30 17032 N 1639.21 1.50354 -0.472382 0
M  V30 17033 C 1640.46 2.03264 0.0743981 0
M  V30 17034 C 1640.81 1.34792 1.37291 0
M  V30 17035 O 1640.11 0.46513 1.85869 0
M  V30 17036 C 1640.3 3.5603 0.31263 0
M  V30 17037 C 1640.13 4.39306 -0.961245 0
M  V30 17038 C 1638.9 4.8237 -1.50492 0
M  V30 17039 C 1641.1 4.79605 -1.85698 0
M  V30 17040 N 1639.08 5.49974 -2.72768 0
M  V30 17041 C 1640.45 5.46633 -2.92562 0
M  V30 17042 C 1642.51 4.61562 -1.86721 0
M  V30 17043 C 1641.21 5.9753 -4.00438 0
M  V30 17044 C 1643.23 5.134 -2.93554 0
M  V30 17045 C 1642.6 5.80404 -3.99137 0
M  V30 17046 H 1638.7 0.781895 -0.0128356 0
M  V30 17047 H 1641.28 1.8385 -0.640876 0
M  V30 17048 H 1639.45 3.75387 0.996945 0
M  V30 17049 H 1641.18 3.9559 0.853868 0
M  V30 17050 H 1637.94 4.61724 -1.05393 0
M  V30 17051 H 1638.36 5.88381 -3.34868 0
M  V30 17052 H 1643 4.0919 -1.0641 0
M  V30 17053 H 1640.72 6.48938 -4.81565 0
M  V30 17054 H 1644.31 5.0127 -2.95331 0
M  V30 17055 H 1643.19 6.19793 -4.80443 0
M  V30 17056 N 1640.69 0.205039 1.56261 0
M  V30 17057 C 1641.62 -0.706815 2.22545 0
M  V30 17058 C 1642.6 -1.21372 1.19176 0
M  V30 17059 O 1643.79 -1.26074 1.47712 0
M  V30 17060 C 1640.92 -1.92221 2.89255 0
M  V30 17061 C 1639.87 -1.54982 3.98954 0
M  V30 17062 C 1639.2 -2.84265 4.52877 0
M  V30 17063 C 1640.5 -0.75225 5.16854 0
M  V30 17064 H 1642.19 -0.15421 2.99003 0
M  V30 17065 H 1639.74 -0.0727309 1.43816 0
M  V30 17066 H 1641.69 -2.56542 3.34311 0
M  V30 17067 H 1640.41 -2.49952 2.10218 0
M  V30 17068 H 1639.07 -0.930155 3.54604 0
M  V30 17069 H 1638.72 -3.40105 3.70591 0
M  V30 17070 H 1638.42 -2.60089 5.26904 0
M  V30 17071 H 1639.95 -3.49557 5.00642 0
M  V30 17072 H 1641.36 -1.29878 5.58395 0
M  V30 17073 H 1639.76 -0.60823 5.9701 0
M  V30 17074 H 1640.83 0.24463 4.84283 0
M  V30 17075 N 1642.17 -1.57451 -0.0684915 0
M  V30 17076 C 1643.59 -1.53883 -0.423354 0
M  V30 17077 C 1643.79 -0.925698 -1.78978 0
M  V30 17078 O 1642.84 -0.529629 -2.46883 0
M  V30 17079 C 1644.15 -2.98521 -0.361386 0
M  V30 17080 C 1645.7 -3.09873 -0.441334 0
M  V30 17081 C 1646.18 -4.56168 -0.409239 0
M  V30 17082 N 1647.67 -4.60817 -0.469216 0
M  V30 17083 C 1648.4 -5.71498 -0.466648 0
M  V30 17084 N 1647.9 -6.91534 -0.4187 0
M  V30 17085 N 1649.69 -5.5975 -0.513452 0
M  V30 17086 H 1641.84 -1.95672 0.8262 0
M  V30 17087 H 1644.11 -0.895759 0.310354 0
M  V30 17088 H 1643.81 -3.46951 0.576035 0
M  V30 17089 H 1643.69 -3.58585 -1.17032 0
M  V30 17090 H 1646.07 -2.61414 -1.36918 0
M  V30 17091 H 1646.15 -2.52712 0.396237 0
M  V30 17092 H 1645.8 -5.05285 0.514772 0
M  V30 17093 H 1645.73 -5.11195 -1.26439 0
M  V30 17094 H 1648.22 -3.74438 -0.510387 0
M  V30 17095 H 1648.53 -7.71654 -0.420757 0
M  V30 17096 H 1646.88 -6.93931 -0.385338 0
M  V30 17097 H 1650.07 -4.64874 -0.548626 0
M  V30 17098 H 1650.24 -6.46006 -0.507982 0
M  V30 17099 N 1643.65 0.339955 -1.5389 0
M  V30 17100 C 1644.59 1.41765 -1.8213 0
M  V30 17101 C 1645.56 1.52109 -0.667235 0
M  V30 17102 O 1646.75 1.67591 -0.91203 0
M  V30 17103 C 1643.89 2.78366 -2.03977 0
M  V30 17104 C 1643 2.76785 -3.31684 0
M  V30 17105 C 1642.14 4.05125 -3.4358 0
M  V30 17106 C 1641.18 3.97787 -4.65223 0
M  V30 17107 N 1640.31 5.17825 -4.74133 0
M  V30 17108 H 1645.15 1.16984 -2.74078 0
M  V30 17109 H 1642.69 0.566618 -1.35749 0
M  V30 17110 H 1644.65 3.57755 -2.14633 0
M  V30 17111 H 1643.28 3.01491 -1.15338 0
M  V30 17112 H 1642.33 1.89481 -3.2985 0
M  V30 17113 H 1643.64 2.67241 -4.2117 0
M  V30 17114 H 1642.8 4.9294 -3.53688 0
M  V30 17115 H 1641.54 4.17455 -2.52157 0
M  V30 17116 H 1640.54 3.08357 -4.55188 0
M  V30 17117 H 1641.77 3.87037 -5.58014 0
M  V30 17118 H 1639.71 5.30691 -3.8562 0
M  V30 17119 H 1639.63 5.10552 -5.5756 0
M  V30 17120 H 1640.9 6.074 -4.88554 0
M  V30 17121 N 1645.13 1.45684 0.601159 0
M  V30 17122 C 1646.07 1.54846 1.71147 0
M  V30 17123 C 1647.04 0.393914 1.61361 0
M  V30 17124 O 1648.23 0.608222 1.80846 0
M  V30 17125 C 1645.37 1.52723 3.09467 0
M  V30 17126 C 1644.48 2.78776 3.30012 0
M  V30 17127 C 1643.62 2.68281 4.58474 0
M  V30 17128 C 1642.65 3.89358 4.72299 0
M  V30 17129 N 1641.79 3.77359 5.92068 0
M  V30 17130 H 1646.63 2.49696 1.62653 0
M  V30 17131 H 1644.17 1.23894 0.793006 0
M  V30 17132 H 1646.13 1.49479 3.89502 0
M  V30 17133 H 1644.76 0.614189 3.16903 0
M  V30 17134 H 1643.81 2.9208 2.43708 0
M  V30 17135 H 1645.12 3.68563 3.36099 0
M  V30 17136 H 1644.27 2.63039 5.46713 0
M  V30 17137 H 1643.01 1.76103 4.54795 0
M  V30 17138 H 1642.02 3.94952 3.82482 0
M  V30 17139 H 1643.24 4.82609 4.77771 0
M  V30 17140 H 1641.19 2.87955 5.89422 0
M  V30 17141 H 1641.11 4.60786 5.99343 0
M  V30 17142 H 1642.37 3.76061 6.82787 0
M  V30 17143 N 1646.6 -0.84422 1.33082 0
M  V30 17144 C 1647.57 -1.93519 1.22813 0
M  V30 17145 C 1648.57 -1.60113 0.148516 0
M  V30 17146 O 1649.76 -1.69553 0.399668 0
M  V30 17147 C 1646.89 -3.29045 0.891179 0
M  V30 17148 H 1648.08 -2.04051 2.1978 0
M  V30 17149 H 1645.63 -1.03567 1.17063 0
M  V30 17150 H 1646.37 -3.2421 -0.0762276 0
M  V30 17151 H 1646.15 -3.54671 1.67186 0
M  V30 17152 H 1647.64 -4.08984 0.843932 0
M  V30 17153 N 1648.08 -1.16463 -1.0618 0
M  V30 17154 C 1649.32 -0.957536 -1.80584 0
M  V30 17155 C 1649.69 0.505554 -1.85225 0
M  V30 17156 O 1650.89 0.831384 -2.5562 0
M  V30 17157 C 1649.16 -1.56919 -3.21109 0
M  V30 17158 S 1650.72 -1.5069 -4.12114 0
M  V30 17159 H 1647.53 -0.344329 -0.62206 0
M  V30 17160 H 1650.14 -1.48228 -1.2747 0
M  V30 17161 H 1648.84 -2.62672 -3.15328 0
M  V30 17162 H 1648.37 -1.04382 -3.79299 0
M  V30 17163 H 1650.39 -0.507956 -4.93593 0
M  V30 17164 N 1649.56 1.24734 -0.963288 0
M  V30 17165 C 1650.84 1.88004 -0.539809 0
M  V30 17166 C 1651.22 1.86814 0.983035 0
M  V30 17167 O 1650.56 1.33769 1.85251 0
M  V30 17168 C 1650.77 3.30326 -1.1263 0
M  V30 17169 C 1652.12 4.07039 -1.20848 0
M  V30 17170 O 1653.15 3.3948 -1.07849 0
M  V30 17171 O 1652.01 5.27906 -1.41342 0
M  V30 17172 H 1649.1 0.807318 -0.17935 0
M  V30 17173 H 1651.65 1.3274 -1.05727 0
M  V30 17174 H 1650.42 3.25668 -2.16925 0
M  V30 17175 H 1650.04 3.93159 -0.592614 0
M  V30 17176 N 1651.04 0.732878 1.39523 0
M  V30 17177 C 1652.28 0.280305 2.00854 0
M  V30 17178 C 1652.62 -1.12891 1.58017 0
M  V30 17179 O 1651.89 -1.76919 0.808086 0
M  V30 17180 C 1652.17 0.37978 3.58092 0
M  V30 17181 C 1652.03 1.82861 4.10953 0
M  V30 17182 C 1653.35 -0.239026 4.3945 0
M  V30 17183 H 1650.47 0.103326 0.729721 0
M  V30 17184 H 1653.11 0.928634 1.6576 0
M  V30 17185 H 1651.26 -0.172198 3.88118 0
M  V30 17186 H 1652.93 2.4373 3.91655 0
M  V30 17187 H 1651.17 2.35064 3.64592 0
M  V30 17188 H 1651.84 1.84949 5.20094 0
M  V30 17189 H 1654.32 0.231488 4.15456 0
M  V30 17190 H 1653.2 -0.139068 5.48724 0
M  V30 17191 H 1653.46 -1.32481 4.21783 0
M  V30 17192 N 1652.52 -1.50101 0.480349 0
M  V30 17193 C 1653.45 -2.31581 -0.298718 0
M  V30 17194 C 1654.43 -1.38905 -0.981798 0
M  V30 17195 O 1655.61 -1.67823 -0.977188 0
M  V30 17196 C 1652.74 -3.18891 -1.37571 0
M  V30 17197 C 1651.7 -4.20194 -0.813704 0
M  V30 17198 C 1651.02 -4.96302 -1.98968 0
M  V30 17199 C 1652.32 -5.21985 0.181295 0
M  V30 17200 H 1654.02 -2.96961 0.381349 0
M  V30 17201 H 1651.56 -1.42809 0.184842 0
M  V30 17202 H 1653.51 -3.74694 -1.92828 0
M  V30 17203 H 1652.24 -2.51414 -2.08467 0
M  V30 17204 H 1650.9 -3.65506 -0.283034 0
M  V30 17205 H 1650.55 -4.2529 -2.68584 0
M  V30 17206 H 1650.25 -5.64833 -1.61981 0
M  V30 17207 H 1651.77 -5.54943 -2.54698 0
M  V30 17208 H 1653.18 -5.72604 -0.28242 0
M  V30 17209 H 1651.58 -5.98289 0.465916 0
M  V30 17210 H 1652.65 -4.72162 1.10413 0
M  V30 17211 N 1653.99 -0.213323 -1.5615 0
M  V30 17212 C 1654.9 0.711703 -2.23544 0
M  V30 17213 C 1655.92 1.22027 -1.24038 0
M  V30 17214 O 1657.1 1.26361 -1.56828 0
M  V30 17215 C 1654.16 1.90645 -2.89578 0
M  V30 17216 C 1653.22 1.44066 -4.04405 0
M  V30 17217 C 1652.45 2.57846 -4.6728 0
M  V30 17218 O 1652.68 3.75781 -4.29121 0
M  V30 17219 O 1651.61 2.29518 -5.56422 0
M  V30 17220 H 1655.44 0.167635 -3.03237 0
M  V30 17221 H 1653.02 0.016771 -1.49391 0
M  V30 17222 H 1654.9 2.60435 -3.31288 0
M  V30 17223 H 1653.58 2.43877 -2.12851 0
M  V30 17224 H 1652.49 0.711024 -3.67281 0
M  V30 17225 H 1653.82 0.954809 -4.8285 0
M  V30 17226 N 1655.47 1.57485 0.0601405 0
M  V30 17227 C 1656.72 1.86998 0.75595 0
M  V30 17228 C 1657.03 0.807616 1.78149 0
M  V30 17229 O 1658.24 0.99096 2.52769 0
M  V30 17230 C 1656.7 3.31746 1.39545 0
M  V30 17231 C 1656.3 4.46139 0.407874 0
M  V30 17232 C 1658.05 3.70445 2.07294 0
M  V30 17233 C 1655.96 5.81933 1.05395 0
M  V30 17234 H 1654.89 0.697619 0.286083 0
M  V30 17235 H 1657.54 1.83498 0.00948593 0
M  V30 17236 H 1655.92 3.29894 2.19057 0
M  V30 17237 H 1657.09 4.59405 -0.358281 0
M  V30 17238 H 1655.41 4.1607 -0.16581 0
M  V30 17239 H 1658 4.692 2.56428 0
M  V30 17240 H 1658.35 3.00839 2.87753 0
M  V30 17241 H 1658.88 3.74337 1.34598 0
M  V30 17242 H 1655.62 6.54861 0.289437 0
M  V30 17243 H 1655.14 5.72446 1.79068 0
M  V30 17244 H 1656.82 6.27652 1.5704 0
M  V30 17245 N 1656.95 -0.331789 1.54068 0
M  V30 17246 C 1658.36 -0.906719 1.63204 0
M  V30 17247 C 1658.71 -1.89161 0.520837 0
M  V30 17248 O 1657.84 -2.1359 -0.347577 0
M  V30 17249 C 1658.43 -1.65132 2.95832 0
M  V30 17250 C 1656.99 -2.17509 3.07192 0
M  V30 17251 C 1656.14 -0.99788 2.58723 0
M  V30 17252 H 1659.09 -0.109595 1.58321 0
M  V30 17253 H 1659.11 -2.515 2.85531 0
M  V30 17254 H 1658.62 -0.934255 3.76687 0
M  V30 17255 H 1656.72 -2.92356 2.30995 0
M  V30 17256 H 1656.84 -2.43074 4.12858 0
M  V30 17257 H 1655.2 -1.37469 2.14417 0
M  V30 17258 H 1655.98 -0.295261 3.42028 0
M  V30 17259 N 1658.43 -1.46001 -0.593424 0
M  V30 17260 C 1659.66 -1.54083 -1.3763 0
M  V30 17261 C 1660.07 -0.177096 -1.88369 0
M  V30 17262 O 1659.41 0.834016 -1.63676 0
M  V30 17263 C 1659.47 -2.47599 -2.60643 0
M  V30 17264 C 1659.14 -3.94058 -2.31445 0
M  V30 17265 C 1660.13 -4.83569 -1.90936 0
M  V30 17266 C 1657.82 -4.39099 -2.4392 0
M  V30 17267 C 1659.81 -6.16131 -1.63282 0
M  V30 17268 C 1657.5 -5.71699 -2.15879 0
M  V30 17269 C 1658.5 -6.60034 -1.75624 0
M  V30 17270 O 1658.18 -7.90174 -1.4792 0
M  V30 17271 H 1657.92 -0.52391 -0.427193 0
M  V30 17272 H 1660.47 -1.92011 -0.729444 0
M  V30 17273 H 1658.7 -2.04669 -3.28097 0
M  V30 17274 H 1660.39 -2.46207 -3.22703 0
M  V30 17275 H 1661.16 -4.50031 -1.80822 0
M  V30 17276 H 1657.03 -3.70575 -2.74218 0
M  V30 17277 H 1660.58 -6.85039 -1.31787 0
M  V30 17278 H 1656.48 -6.04788 -2.25614 0
M  V30 17279 H 1657.24 -8.02338 -1.61854 0
M  V30 17280 N 1659.91 0.83715 -1.33527 0
M  V30 17281 C 1661.15 1.59487 -1.25267 0
M  V30 17282 C 1661.49 1.93357 0.180741 0
M  V30 17283 O 1660.76 1.5884 1.12251 0
M  V30 17284 C 1661.04 2.90376 -2.12964 0
M  V30 17285 C 1660.9 2.63177 -3.64771 0
M  V30 17286 C 1662.22 3.9182 -2.00412 0
M  V30 17287 H 1659.33 0.578684 -0.456392 0
M  V30 17288 H 1661.98 0.965428 -1.63644 0
M  V30 17289 H 1660.13 3.44095 -1.80364 0
M  V30 17290 H 1661.8 2.15878 -4.0767 0
M  V30 17291 H 1660.04 1.96849 -3.86566 0
M  V30 17292 H 1660.71 3.56452 -4.21481 0
M  V30 17293 H 1663.19 3.47413 -2.29005 0
M  V30 17294 H 1662.06 4.81232 -2.64021 0
M  V30 17295 H 1662.33 4.31173 -0.976852 0
M  V30 17296 N 1661.38 1.17024 1.05561 0
M  V30 17297 C 1662.63 0.950769 1.77886 0
M  V30 17298 C 1662.95 -0.522005 1.88506 0
M  V30 17299 O 1664.15 -0.859582 2.57533 0
M  V30 17300 C 1662.61 1.65189 3.19751 0
M  V30 17301 C 1662.22 3.16294 3.17273 0
M  V30 17302 C 1663.96 1.51466 3.96558 0
M  V30 17303 C 1661.87 3.79111 4.53904 0
M  V30 17304 H 1660.8 0.352089 0.666745 0
M  V30 17305 H 1663.45 1.40237 1.18346 0
M  V30 17306 H 1661.83 1.12801 3.79594 0
M  V30 17307 H 1663 3.75585 2.66969 0
M  V30 17308 H 1661.32 3.29986 2.53966 0
M  V30 17309 H 1663.92 1.95772 4.97571 0
M  V30 17310 H 1664.26 0.46467 4.13699 0
M  V30 17311 H 1664.79 2.0105 3.43254 0
M  V30 17312 H 1661.53 4.84091 4.41969 0
M  V30 17313 H 1661.05 3.24606 5.04372 0
M  V30 17314 H 1662.73 3.81099 5.2285 0
M  V30 17315 N 1662.86 -1.24221 0.969889 0
M  V30 17316 C 1663.81 -2.25292 0.501215 0
M  V30 17317 C 1664.78 -1.59764 -0.454382 0
M  V30 17318 O 1665.96 -1.87291 -0.364261 0
M  V30 17319 C 1663.1 -3.44518 -0.200361 0
M  V30 17320 C 1662.22 -4.24636 0.79426 0
M  V30 17321 C 1661.35 -5.31156 0.068568 0
M  V30 17322 C 1660.39 -6.02973 1.05311 0
M  V30 17323 N 1659.53 -7.0119 0.357274 0
M  V30 17324 H 1664.37 -2.64749 1.36792 0
M  V30 17325 H 1661.91 -1.30142 0.685673 0
M  V30 17326 H 1663.86 -4.1251 -0.623833 0
M  V30 17327 H 1662.49 -3.05892 -1.03101 0
M  V30 17328 H 1661.55 -3.56161 1.33616 0
M  V30 17329 H 1662.86 -4.74271 1.54493 0
M  V30 17330 H 1662.01 -6.05294 -0.412792 0
M  V30 17331 H 1660.75 -4.82434 -0.714781 0
M  V30 17332 H 1659.76 -5.27636 1.54532 0
M  V30 17333 H 1660.98 -6.53784 1.83694 0
M  V30 17334 H 1658.93 -6.54736 -0.407059 0
M  V30 17335 H 1658.84 -7.48718 1.04677 0
M  V30 17336 H 1660.11 -7.79433 -0.102045 0
M  V30 17337 N 1664.34 -0.740267 -1.39132 0
M  V30 17338 C 1665.27 -0.064087 -2.2911 0
M  V30 17339 C 1666.29 0.697897 -1.47082 0
M  V30 17340 O 1667.47 0.541189 -1.70098 0
M  V30 17341 C 1664.57 0.933426 -3.25792 0
M  V30 17342 C 1663.75 0.231867 -4.36785 0
M  V30 17343 C 1662.81 1.13823 -5.13742 0
M  V30 17344 O 1661.83 0.613741 -5.65881 0
M  V30 17345 N 1663.03 2.46751 -5.25447 0
M  V30 17346 H 1665.8 -0.836774 -2.87781 0
M  V30 17347 H 1663.36 -0.589928 -1.5077 0
M  V30 17348 H 1665.35 1.5425 -3.74151 0
M  V30 17349 H 1663.92 1.60728 -2.68114 0
M  V30 17350 H 1663.14 -0.557747 -3.90234 0
M  V30 17351 H 1664.43 -0.254115 -5.08165 0
M  V30 17352 H 1663.83 2.91834 -4.84613 0
M  V30 17353 H 1662.39 3.02741 -5.77227 0
M  V30 17354 N 1665.82 1.49844 -0.488302 0
M  V30 17355 C 1667.07 2.02009 0.0605782 0
M  V30 17356 C 1667.39 1.37114 1.38653 0
M  V30 17357 O 1666.66 0.522182 1.88812 0
M  V30 17358 H 1665.24 0.746569 0.0253773 0
M  V30 17359 H 1667.9 1.84 -0.64265 0
M  V30 17360 H 1667 3.11461 0.199542 0
M  V30 17361 N 1667.3 0.221601 1.56034 0
M  V30 17362 C 1668.57 -0.459097 1.90136 0
M  V30 17363 C 1668.95 -1.7774 1.13894 0
M  V30 17364 O 1668.3 -2.27147 0.248285 0
M  V30 17365 C 1668.51 -0.651996 3.42856 0
M  V30 17366 C 1669.86 -0.959402 4.13619 0
M  V30 17367 O 1670.88 -0.73878 3.48454 0
M  V30 17368 O 1669.74 -1.37811 5.28839 0
M  V30 17369 H 1666.84 -0.242753 0.790569 0
M  V30 17370 H 1669.38 0.263789 1.67637 0
M  V30 17371 H 1668.15 0.277892 3.90312 0
M  V30 17372 H 1667.78 -1.42637 3.71134 0
M  V30 17373 N 1668.77 -1.57515 -0.0517878 0
M  V30 17374 C 1670 -1.92845 -0.763249 0
M  V30 17375 C 1670.42 -0.819745 -1.69298 0
M  V30 17376 O 1669.78 0.226161 -1.79884 0
M  V30 17377 C 1669.83 -3.27189 -1.5159 0
M  V30 17378 O 1668.93 -3.17834 -2.62783 0
M  V30 17379 H 1668.28 -0.630944 -0.206896 0
M  V30 17380 H 1670.81 -2.04595 -0.0140481 0
M  V30 17381 H 1670.82 -3.61542 -1.89081 0
M  V30 17382 H 1669.49 -4.07455 -0.833871 0
M  V30 17383 H 1668.07 -2.95075 -2.28002 0
M  V30 17384 N 1670.25 0.323614 -1.54242 0
M  V30 17385 C 1671.5 1.05935 -1.73636 0
M  V30 17386 C 1671.85 1.85684 -0.503888 0
M  V30 17387 O 1671.15 1.84861 0.503692 0
M  V30 17388 C 1671.34 2.01452 -2.95215 0
M  V30 17389 C 1671.17 1.31094 -4.30168 0
M  V30 17390 C 1669.94 1.04747 -4.94324 0
M  V30 17391 C 1672.14 0.726886 -5.09137 0
M  V30 17392 N 1670.12 0.311788 -6.13108 0
M  V30 17393 C 1671.49 0.122813 -6.19878 0
M  V30 17394 C 1673.55 0.629696 -4.93902 0
M  V30 17395 C 1672.25 -0.569019 -7.17046 0
M  V30 17396 C 1674.28 -0.0484359 -5.9138 0
M  V30 17397 C 1673.64 -0.641453 -7.01473 0
M  V30 17398 H 1669.74 0.371344 -0.688206 0
M  V30 17399 H 1672.32 0.340541 -1.91699 0
M  V30 17400 H 1670.49 2.70605 -2.78617 0
M  V30 17401 H 1672.22 2.6801 -3.03237 0
M  V30 17402 H 1668.98 1.33979 -4.54254 0
M  V30 17403 H 1669.4 -0.0419069 -6.76987 0
M  V30 17404 H 1674.04 1.0739 -4.08934 0
M  V30 17405 H 1671.76 -1.02505 -8.01572 0
M  V30 17406 H 1675.35 -0.123275 -5.81669 0
M  V30 17407 H 1674.23 -1.15786 -7.75605 0
M  V30 17408 N 1671.73 1.46313 0.585673 0
M  V30 17409 C 1672.66 1.59511 1.70524 0
M  V30 17410 C 1673.64 0.445578 1.6416 0
M  V30 17411 O 1674.83 0.671455 1.82223 0
M  V30 17412 C 1671.96 1.58229 3.09162 0
M  V30 17413 C 1670.91 2.72122 3.30354 0
M  V30 17414 C 1670.24 2.559 4.69489 0
M  V30 17415 C 1671.54 4.13969 3.18476 0
M  V30 17416 H 1673.23 2.53229 1.59735 0
M  V30 17417 H 1670.78 1.2187 0.767046 0
M  V30 17418 H 1672.73 1.66056 3.87303 0
M  V30 17419 H 1671.45 0.610535 3.20843 0
M  V30 17420 H 1670.11 2.63759 2.54611 0
M  V30 17421 H 1669.76 1.56814 4.77931 0
M  V30 17422 H 1669.46 3.32289 4.84621 0
M  V30 17423 H 1670.99 2.65613 5.49802 0
M  V30 17424 H 1672.4 4.23459 3.86465 0
M  V30 17425 H 1670.8 4.90922 3.45131 0
M  V30 17426 H 1671.87 4.34334 2.15598 0
M  V30 17427 N 1673.21 -0.830057 1.33969 0
M  V30 17428 C 1674.16 -1.94049 1.24955 0
M  V30 17429 C 1675.13 -1.65619 0.126279 0
M  V30 17430 O 1676.31 -1.88329 0.306049 0
M  V30 17431 C 1673.45 -3.30182 1.00367 0
M  V30 17432 C 1672.56 -3.70952 2.21402 0
M  V30 17433 C 1671.7 -4.95998 1.90157 0
M  V30 17434 C 1670.74 -5.29327 3.07374 0
M  V30 17435 N 1669.88 -6.45551 2.76059 0
M  V30 17436 H 1674.72 -2.01091 2.19923 0
M  V30 17437 H 1672.25 -0.983918 1.0935 0
M  V30 17438 H 1674.21 -4.08625 0.841516 0
M  V30 17439 H 1672.84 -3.22673 0.090692 0
M  V30 17440 H 1671.89 -2.8796 2.48563 0
M  V30 17441 H 1673.2 -3.91558 3.09004 0
M  V30 17442 H 1672.36 -5.8221 1.70636 0
M  V30 17443 H 1671.1 -4.77379 0.998045 0
M  V30 17444 H 1670.1 -4.41616 3.27499 0
M  V30 17445 H 1671.33 -5.4989 3.98495 0
M  V30 17446 H 1669.27 -6.28401 1.88275 0
M  V30 17447 H 1669.19 -6.66295 3.57193 0
M  V30 17448 H 1670.46 -7.34851 2.60026 0
M  V30 17449 N 1674.69 -1.17582 -1.04939 0
M  V30 17450 C 1675.63 -0.894855 -2.12746 0
M  V30 17451 C 1676.6 0.162261 -1.65306 0
M  V30 17452 O 1677.79 0.0245068 -1.90784 0
M  V30 17453 C 1674.93 -0.417085 -3.4257 0
M  V30 17454 C 1674.04 -1.53861 -4.03672 0
M  V30 17455 C 1673.18 -1.01446 -5.21423 0
M  V30 17456 C 1672.22 -2.11127 -5.74536 0
M  V30 17457 N 1671.35 -1.60169 -6.83586 0
M  V30 17458 H 1676.19 -1.81802 -2.36118 0
M  V30 17459 H 1673.73 -0.906716 -1.15832 0
M  V30 17460 H 1675.69 -0.121619 -4.17023 0
M  V30 17461 H 1674.32 0.469119 -3.19373 0
M  V30 17462 H 1673.37 -1.94975 -3.26633 0
M  V30 17463 H 1674.68 -2.36575 -4.39128 0
M  V30 17464 H 1673.84 -0.672992 -6.02956 0
M  V30 17465 H 1672.58 -0.156795 -4.87448 0
M  V30 17466 H 1671.58 -2.46128 -4.91631 0
M  V30 17467 H 1672.81 -2.97313 -6.10559 0
M  V30 17468 H 1670.75 -0.766783 -6.51503 0
M  V30 17469 H 1670.67 -2.36488 -7.18059 0
M  V30 17470 H 1671.94 -1.28923 -7.68765 0
M  V30 17471 N 1676.17 1.23705 -0.976463 0
M  V30 17472 C 1677.41 1.92015 -0.643168 0
M  V30 17473 C 1677.74 1.76239 0.822796 0
M  V30 17474 O 1677 1.11469 1.60851 0
M  V30 17475 C 1677.29 3.43853 -0.974676 0
M  V30 17476 C 1676.96 3.79805 -2.43021 0
M  V30 17477 C 1675.62 3.89329 -2.82801 0
M  V30 17478 C 1677.97 3.97218 -3.37442 0
M  V30 17479 C 1675.3 4.13691 -4.16025 0
M  V30 17480 C 1677.65 4.23079 -4.70305 0
M  V30 17481 C 1676.32 4.30824 -5.0985 0
M  V30 17482 H 1675.59 0.702631 -0.235352 0
M  V30 17483 H 1678.24 1.46811 -1.22959 0
M  V30 17484 H 1676.54 3.90602 -0.306121 0
M  V30 17485 H 1678.24 3.9493 -0.695061 0
M  V30 17486 H 1674.83 3.72963 -2.11179 0
M  V30 17487 H 1679.01 3.89254 -3.07889 0
M  V30 17488 H 1674.27 4.17909 -4.46276 0
M  V30 17489 H 1678.44 4.35496 -5.4343 0
M  V30 17490 H 1676.07 4.49454 -6.13103 0
M  V30 17491 N 1677.64 0.747635 1.38738 0
M  V30 17492 C 1678.87 0.311781 2.04537 0
M  V30 17493 C 1679.29 -1.05782 1.56383 0
M  V30 17494 O 1678.64 -1.67077 0.734259 0
M  V30 17495 C 1678.69 0.318675 3.60093 0
M  V30 17496 O 1678.42 1.63423 4.06478 0
M  V30 17497 C 1679.92 -0.131782 4.43104 0
M  V30 17498 H 1677.14 0.134141 0.657455 0
M  V30 17499 H 1679.68 1.01482 1.77543 0
M  V30 17500 H 1677.84 -0.335578 3.85944 0
M  V30 17501 H 1678.25 1.55636 5.00877 0
M  V30 17502 H 1679.72 -0.0757978 5.51948 0
M  V30 17503 H 1680.2 -1.17881 4.23085 0
M  V30 17504 H 1680.81 0.493375 4.22429 0
M  V30 17505 N 1679.12 -1.49583 0.496242 0
M  V30 17506 C 1680.03 -2.32808 -0.289404 0
M  V30 17507 C 1681.05 -1.44324 -0.971933 0
M  V30 17508 O 1682.22 -1.77352 -0.954366 0
M  V30 17509 C 1679.29 -3.19645 -1.34269 0
M  V30 17510 C 1678.35 -4.23975 -0.6741 0
M  V30 17511 C 1677.58 -5.06661 -1.6772 0
M  V30 17512 O 1677.81 -4.90792 -2.90654 0
M  V30 17513 O 1676.74 -5.89091 -1.23514 0
M  V30 17514 H 1680.57 -3.01164 0.391664 0
M  V30 17515 H 1678.15 -1.47162 0.257652 0
M  V30 17516 H 1680.03 -3.73453 -1.9522 0
M  V30 17517 H 1678.71 -2.53989 -2.00677 0
M  V30 17518 H 1677.61 -3.74092 -0.0249732 0
M  V30 17519 H 1678.95 -4.92172 -0.0525442 0
M  V30 17520 N 1680.6 -0.229873 -1.55915 0
M  V30 17521 C 1681.56 0.663347 -2.19391 0
M  V30 17522 C 1682.56 1.11548 -1.15818 0
M  V30 17523 O 1683.75 1.02294 -1.41002 0
M  V30 17524 C 1680.88 1.9097 -2.82389 0
M  V30 17525 H 1682.08 0.109797 -2.99699 0
M  V30 17526 H 1679.63 0.0197234 -1.56288 0
M  V30 17527 H 1680.37 2.50491 -2.05973 0
M  V30 17528 H 1680.15 1.59388 -3.58243 0
M  V30 17529 H 1681.64 2.5459 -3.31019 0
M  V30 17530 N 1682.08 1.5754 0.0434337 0
M  V30 17531 C 1683.32 1.90452 0.742119 0
M  V30 17532 C 1683.68 0.826884 1.73282 0
M  V30 17533 O 1684.88 1.0399 2.4787 0
M  V30 17534 C 1683.15 3.28549 1.40679 0
M  V30 17535 S 1684.71 3.83268 2.13662 0
M  V30 17536 H 1681.53 0.667021 0.246178 0
M  V30 17537 H 1684.13 1.955 -0.00280947 0
M  V30 17538 H 1682.84 4.04856 0.672322 0
M  V30 17539 H 1682.37 3.26769 2.19056 0
M  V30 17540 H 1684.38 3.60836 3.40605 0
M  V30 17541 N 1683.56 -0.31543 1.54411 0
M  V30 17542 C 1684.5 -1.4086 1.85098 0
M  V30 17543 C 1685.5 -1.53172 0.723518 0
M  V30 17544 O 1686.7 -1.55461 0.907303 0
M  V30 17545 H 1683.08 -0.47022 0.586853 0
M  V30 17546 H 1685.05 -1.12207 2.765 0
M  V30 17547 C 1683.8 -2.76948 2.10227 0
M  V30 17548 H 1683.12 -2.68251 2.96448 0
M  V30 17549 H 1684.56 -3.52486 2.35647 0
M  V30 17550 C 1683.02 -3.24758 0.896312 0
M  V30 17551 O 1683.55 -4.0155 0.109609 0
M  V30 17552 N 1681.76 -2.81901 0.705685 0
M  V30 17553 H 1681.3 -2.19571 1.34708 0
M  V30 17554 H 1681.26 -3.14242 -0.0996804 0
M  V30 17555 N 1685.03 -1.46622 -0.577906 0
M  V30 17556 C 1686 -1.57126 -1.66865 0
M  V30 17557 C 1687 -0.448004 -1.54433 0
M  V30 17558 O 1688.19 -0.712459 -1.58964 0
M  V30 17559 C 1685.32 -1.49612 -3.06315 0
M  V30 17560 H 1686.51 -2.54338 -1.58909 0
M  V30 17561 H 1684.07 -1.34504 -0.796142 0
M  V30 17562 H 1684.8 -0.536976 -3.19823 0
M  V30 17563 H 1684.59 -2.31113 -3.16748 0
M  V30 17564 H 1686.08 -1.60058 -3.85709 0
M  V30 17565 N 1686.51 0.822941 -1.34408 0
M  V30 17566 C 1687.48 1.91541 -1.25876 0
M  V30 17567 C 1688.48 1.59856 -0.17397 0
M  V30 17568 O 1689.67 1.68896 -0.426592 0
M  V30 17569 C 1686.8 3.27586 -0.943415 0
M  V30 17570 H 1687.99 2.00529 -2.22998 0
M  V30 17571 H 1685.54 1.01691 -1.18695 0
M  V30 17572 H 1686.28 3.24291 0.0246389 0
M  V30 17573 H 1686.06 3.51966 -1.72807 0
M  V30 17574 H 1687.55 4.07589 -0.908891 0
M  V30 17575 N 1687.99 1.18137 1.04314 0
M  V30 17576 C 1688.94 0.906125 2.12269 0
M  V30 17577 C 1689.91 -0.153492 1.65389 0
M  V30 17578 O 1691.09 -0.0143887 1.90795 0
M  V30 17579 C 1688.23 0.435247 3.42344 0
M  V30 17580 C 1687.35 1.56 4.0285 0
M  V30 17581 C 1686.48 1.0421 5.20878 0
M  V30 17582 C 1685.52 2.14171 5.73409 0
M  V30 17583 N 1684.66 1.63792 6.82727 0
M  V30 17584 H 1689.5 1.83052 2.35151 0
M  V30 17585 H 1687.03 0.912846 1.1535 0
M  V30 17586 H 1688.99 0.143733 4.16952 0
M  V30 17587 H 1687.62 -0.452175 3.19617 0
M  V30 17588 H 1686.67 1.96705 3.25594 0
M  V30 17589 H 1687.99 2.389 4.37868 0
M  V30 17590 H 1687.14 0.704959 6.0259 0
M  V30 17591 H 1685.88 0.182643 4.87358 0
M  V30 17592 H 1684.88 2.48732 4.90319 0
M  V30 17593 H 1686.11 3.00547 6.08973 0
M  V30 17594 H 1684.05 0.801323 6.51087 0
M  V30 17595 H 1683.97 2.40293 7.16795 0
M  V30 17596 H 1685.24 1.32998 7.6807 0
M  V30 17597 N 1689.47 -1.23186 0.98301 0
M  V30 17598 C 1690.72 -1.91292 0.652051 0
M  V30 17599 C 1691.04 -1.77046 -0.8173 0
M  V30 17600 O 1690.31 -1.15146 -1.58487 0
M  V30 17601 H 1688.89 -0.708011 0.23818 0
M  V30 17602 H 1691.55 -1.49754 1.24739 0
M  V30 17603 H 1690.65 -2.98662 0.905951 0
M  V30 17604 N 1690.95 -0.754982 -1.38339 0
M  V30 17605 C 1691.88 -0.143678 -2.33058 0
M  V30 17606 C 1692.86 0.702022 -1.54938 0
M  V30 17607 O 1694.04 0.642922 -1.83249 0
M  V30 17608 C 1691.17 0.749194 -3.39123 0
M  V30 17609 C 1690.13 0.00611459 -4.28 0
M  V30 17610 C 1689.45 1.01733 -5.24933 0
M  V30 17611 C 1690.75 -1.1631 -5.09185 0
M  V30 17612 H 1692.45 -0.934907 -2.84429 0
M  V30 17613 H 1689.99 -0.451023 -1.36754 0
M  V30 17614 H 1691.95 1.18653 -4.04351 0
M  V30 17615 H 1690.67 1.57276 -2.86237 0
M  V30 17616 H 1689.33 -0.411816 -3.6428 0
M  V30 17617 H 1688.98 1.83499 -4.68334 0
M  V30 17618 H 1688.68 0.524783 -5.85252 0
M  V30 17619 H 1690.2 1.45395 -5.93037 0
M  V30 17620 H 1691.61 -0.803244 -5.67645 0
M  V30 17621 H 1690.01 -1.5866 -5.78746 0
M  V30 17622 H 1691.08 -1.97533 -4.42842 0
M  V30 17623 N 1692.42 1.49318 -0.504168 0
M  V30 17624 C 1693.33 2.32958 0.277053 0
M  V30 17625 C 1694.35 1.44838 0.964266 0
M  V30 17626 O 1695.53 1.77856 0.944947 0
M  V30 17627 C 1692.59 3.20352 1.32572 0
M  V30 17628 C 1691.65 4.24326 0.651606 0
M  V30 17629 C 1690.89 5.07544 1.65031 0
M  V30 17630 O 1691.11 4.92326 2.88047 0
M  V30 17631 O 1690.04 5.89737 1.20388 0
M  V30 17632 H 1693.87 3.00952 -0.40763 0
M  V30 17633 H 1691.45 1.47023 -0.265453 0
M  V30 17634 H 1693.34 3.74483 1.93237 0
M  V30 17635 H 1692.01 2.5505 1.99327 0
M  V30 17636 H 1690.92 3.741 0.00513384 0
M  V30 17637 H 1692.25 4.92193 0.0264424 0
M  V30 17638 N 1693.9 0.238138 1.5579 0
M  V30 17639 C 1695.15 -0.382773 1.99766 0
M  V30 17640 C 1695.5 -1.562 1.12335 0
M  V30 17641 O 1694.8 -1.90781 0.17694 0
M  V30 17642 C 1694.99 -0.850646 3.47129 0
M  V30 17643 C 1694.82 0.281705 4.48817 0
M  V30 17644 C 1693.59 0.753532 4.9965 0
M  V30 17645 C 1695.79 1.10571 5.02273 0
M  V30 17646 N 1693.77 1.85921 5.8507 0
M  V30 17647 C 1695.14 2.05993 5.84779 0
M  V30 17648 C 1697.2 1.14326 4.84597 0
M  V30 17649 C 1695.9 3.0487 6.51496 0
M  V30 17650 C 1697.92 2.1203 5.52085 0
M  V30 17651 C 1697.29 3.06189 6.34372 0
M  V30 17652 H 1693.39 -0.106269 0.774746 0
M  V30 17653 H 1695.97 0.353711 1.9146 0
M  V30 17654 H 1694.14 -1.55644 3.5585 0
M  V30 17655 H 1695.87 -1.44577 3.77994 0
M  V30 17656 H 1692.63 0.339205 4.72384 0
M  V30 17657 H 1693.05 2.41455 6.32478 0
M  V30 17658 H 1697.69 0.42918 4.20616 0
M  V30 17659 H 1695.41 3.77232 7.14648 0
M  V30 17660 H 1699 2.15631 5.40365 0
M  V30 17661 H 1697.88 3.80557 6.85672 0
M  V30 17662 N 1695.38 -1.57561 -0.0350783 0
M  V30 17663 C 1696.63 -1.89276 -0.728172 0
M  V30 17664 C 1696.96 -0.835137 -1.75326 0
M  V30 17665 O 1696.23 0.150516 -1.93917 0
M  V30 17666 C 1696.52 -3.31638 -1.40316 0
M  V30 17667 C 1696.37 -4.48089 -0.391996 0
M  V30 17668 C 1697.69 -3.72816 -2.33872 0
M  V30 17669 H 1694.81 -0.688381 -0.26325 0
M  V30 17670 H 1697.45 -1.89998 0.00900661 0
M  V30 17671 H 1695.6 -3.31153 -2.0315 0
M  V30 17672 H 1697.27 -4.60706 0.233965 0
M  V30 17673 H 1695.52 -4.32834 0.289305 0
M  V30 17674 H 1696.19 -5.4457 -0.902641 0
M  V30 17675 H 1698.66 -3.74629 -1.81086 0
M  V30 17676 H 1697.54 -4.73245 -2.78084 0
M  V30 17677 H 1697.8 -3.04744 -3.20287 0
M  V30 17678 N 1696.86 0.307236 -1.54576 0
M  V30 17679 C 1698.08 1.06668 -1.77867 0
M  V30 17680 C 1698.51 1.80375 -0.533536 0
M  V30 17681 O 1697.87 1.73812 0.515663 0
M  V30 17682 C 1697.91 2.02777 -2.98184 0
M  V30 17683 O 1697.02 3.10969 -2.70872 0
M  V30 17684 H 1696.36 0.306741 -0.588902 0
M  V30 17685 H 1698.89 0.346557 -2.01644 0
M  V30 17686 H 1698.9 2.45355 -3.25983 0
M  V30 17687 H 1697.57 1.48534 -3.88472 0
M  V30 17688 H 1696.15 2.7295 -2.54072 0
M  V30 17689 N 1698.34 1.46926 0.570122 0
M  V30 17690 C 1699.28 1.5883 1.69929 0
M  V30 17691 C 1700.28 0.456167 1.63143 0
M  V30 17692 O 1701.48 0.633503 1.68484 0
M  V30 17693 H 1697.86 0.499606 0.562048 0
M  V30 17694 H 1699.83 2.53744 1.57023 0
M  V30 17695 C 1698.58 1.60761 3.08304 0
M  V30 17696 H 1697.9 2.47219 3.14202 0
M  V30 17697 H 1699.34 1.73142 3.87037 0
M  V30 17698 C 1697.8 0.338515 3.35195 0
M  V30 17699 O 1698.33 -0.565917 3.97694 0
M  V30 17700 N 1696.54 0.222525 2.89747 0
M  V30 17701 H 1696.08 0.959435 2.39066 0
M  V30 17702 H 1696.04 -0.625697 3.08111 0
M  V30 17703 N 1699.82 -0.815801 1.34842 0
M  V30 17704 C 1700.76 -1.92713 1.27006 0
M  V30 17705 C 1701.73 -1.65476 0.143838 0
M  V30 17706 O 1702.92 -1.87994 0.326007 0
M  V30 17707 C 1700.06 -3.29099 1.03863 0
M  V30 17708 C 1699.17 -3.68583 2.25324 0
M  V30 17709 C 1698.31 -4.93953 1.95407 0
M  V30 17710 C 1697.34 -5.26037 3.12971 0
M  V30 17711 N 1696.48 -6.42586 2.82891 0
M  V30 17712 H 1701.32 -1.98747 2.22044 0
M  V30 17713 H 1698.86 -0.972265 1.10388 0
M  V30 17714 H 1700.82 -4.07709 0.884809 0
M  V30 17715 H 1699.45 -3.22558 0.124911 0
M  V30 17716 H 1698.5 -2.85307 2.51603 0
M  V30 17717 H 1699.81 -3.88259 3.1314 0
M  V30 17718 H 1698.96 -5.80367 1.76801 0
M  V30 17719 H 1697.7 -4.76293 1.04862 0
M  V30 17720 H 1696.71 -4.38117 3.32165 0
M  V30 17721 H 1697.93 -5.45632 4.04305 0
M  V30 17722 H 1695.88 -6.26369 1.9493 0
M  V30 17723 H 1695.8 -6.62469 3.64239 0
M  V30 17724 H 1697.06 -7.32052 2.67805 0
M  V30 17725 N 1701.29 -1.18689 -1.03686 0
M  V30 17726 C 1702.54 -0.978948 -1.7635 0
M  V30 17727 C 1702.86 0.49195 -1.89312 0
M  V30 17728 O 1704.06 0.818501 -2.58868 0
M  V30 17729 C 1702.52 -1.70255 -3.17083 0
M  V30 17730 C 1702.13 -3.21301 -3.12201 0
M  V30 17731 C 1703.87 -1.57756 -3.94098 0
M  V30 17732 C 1701.78 -3.86284 -4.47815 0
M  V30 17733 H 1700.71 -0.362652 -0.661059 0
M  V30 17734 H 1703.36 -1.42102 -1.161 0
M  V30 17735 H 1701.74 -1.18826 -3.77752 0
M  V30 17736 H 1702.91 -3.79785 -2.6096 0
M  V30 17737 H 1701.23 -3.33984 -2.48684 0
M  V30 17738 H 1703.83 -2.03664 -4.94394 0
M  V30 17739 H 1704.17 -0.530427 -4.12907 0
M  V30 17740 H 1704.7 -2.06486 -3.40012 0
M  V30 17741 H 1701.44 -4.91061 -4.34211 0
M  V30 17742 H 1700.96 -3.32589 -4.99144 0
M  V30 17743 H 1702.64 -3.89369 -5.16721 0
M  V30 17744 N 1702.77 1.22662 -0.989529 0
M  V30 17745 C 1704 1.95883 -0.681511 0
M  V30 17746 C 1704.42 1.72646 0.746646 0
M  V30 17747 O 1703.78 1.00358 1.5099 0
M  V30 17748 C 1703.83 3.46773 -0.988975 0
M  V30 17749 O 1702.93 4.12311 -0.0858485 0
M  V30 17750 H 1702.27 0.612916 -0.255401 0
M  V30 17751 H 1704.8 1.5585 -1.32559 0
M  V30 17752 H 1704.81 3.97273 -0.929426 0
M  V30 17753 H 1703.49 3.63011 -2.02967 0
M  V30 17754 H 1702.06 3.7236 -0.200592 0
M  V30 17755 N 1704.25 0.762308 1.37937 0
M  V30 17756 C 1705.2 0.140412 2.30372 0
M  V30 17757 C 1706.17 -0.700152 1.50622 0
M  V30 17758 O 1707.35 -0.654474 1.79224 0
M  V30 17759 C 1704.49 -0.740056 3.37071 0
M  V30 17760 C 1703.6 0.116084 4.31844 0
M  V30 17761 C 1702.74 -0.768203 5.25616 0
M  V30 17762 C 1701.78 0.0910442 6.12032 0
M  V30 17763 N 1700.92 -0.75069 6.98075 0
M  V30 17764 H 1705.76 0.934224 2.82977 0
M  V30 17765 H 1703.29 0.472316 1.39311 0
M  V30 17766 H 1705.25 -1.26525 3.97551 0
M  V30 17767 H 1703.88 -1.49956 2.85855 0
M  V30 17768 H 1702.93 0.758999 3.72751 0
M  V30 17769 H 1704.24 0.779285 4.92675 0
M  V30 17770 H 1703.4 -1.36024 5.91255 0
M  V30 17771 H 1702.14 -1.46511 4.65173 0
M  V30 17772 H 1701.14 0.695687 5.45381 0
M  V30 17773 H 1702.37 0.785145 6.74546 0
M  V30 17774 H 1700.31 -1.43239 6.40171 0
M  V30 17775 H 1700.23 -0.144579 7.55862 0
M  V30 17776 H 1701.5 -1.32742 7.68114 0
M  V30 17777 N 1705.73 -1.49049 0.51208 0
M  V30 17778 C 1706.97 -2.0248 -0.0284889 0
M  V30 17779 C 1707.3 -1.39082 -1.35965 0
M  V30 17780 O 1706.56 -0.519593 -1.88676 0
M  V30 17781 C 1706.86 -3.56734 -0.218125 0
M  V30 17782 C 1706.52 -4.38827 1.03643 0
M  V30 17783 C 1705.18 -4.60979 1.38029 0
M  V30 17784 C 1707.54 -4.86505 1.86982 0
M  V30 17785 C 1704.86 -5.28055 2.55686 0
M  V30 17786 C 1707.22 -5.54876 3.03801 0
M  V30 17787 C 1705.88 -5.75271 3.38555 0
M  V30 17788 H 1705.15 -0.740927 -0.0104248 0
M  V30 17789 H 1707.8 -1.79229 0.674481 0
M  V30 17790 H 1706.1 -3.78725 -1.00372 0
M  V30 17791 H 1707.8 -3.9568 -0.651013 0
M  V30 17792 H 1704.39 -4.21833 0.758594 0
M  V30 17793 H 1708.57 -4.69209 1.61729 0
M  V30 17794 H 1703.83 -5.42046 2.82837 0
M  V30 17795 H 1708 -5.90793 3.68696 0
M  V30 17796 H 1705.63 -6.2702 4.29825 0
M  V30 17797 N 1707.21 -0.246397 -1.55662 0
M  V30 17798 C 1708.45 0.378973 -1.98108 0
M  V30 17799 C 1708.77 1.59106 -1.13775 0
M  V30 17800 O 1709.97 2.28754 -1.46232 0
M  V30 17801 C 1708.43 0.725634 -3.52509 0
M  V30 17802 C 1708.04 -0.465024 -4.4558 0
M  V30 17803 C 1709.78 1.31522 -4.03611 0
M  V30 17804 C 1707.69 -0.0945447 -5.91324 0
M  V30 17805 H 1706.62 0.14537 -0.739854 0
M  V30 17806 H 1709.27 -0.346533 -1.80198 0
M  V30 17807 H 1707.65 1.50925 -3.66111 0
M  V30 17808 H 1708.83 -1.24236 -4.43736 0
M  V30 17809 H 1707.14 -0.969507 -4.04956 0
M  V30 17810 H 1709.74 1.60573 -5.1002 0
M  V30 17811 H 1710.08 2.23952 -3.50929 0
M  V30 17812 H 1710.61 0.594515 -3.93332 0
M  V30 17813 H 1707.35 -0.985965 -6.48042 0
M  V30 17814 H 1706.87 0.646601 -5.96305 0
M  V30 17815 H 1708.55 0.323447 -6.46191 0
M  V30 17816 N 1708.68 1.57577 0.026722 0
M  V30 17817 C 1709.96 1.80541 0.752606 0
M  V30 17818 C 1710.34 0.845025 1.93449 0
M  V30 17819 O 1709.69 -0.112286 2.28224 0
M  V30 17820 C 1709.9 3.28322 1.18345 0
M  V30 17821 C 1711.25 3.93366 1.59839 0
M  V30 17822 O 1712.27 3.32486 1.27796 0
M  V30 17823 O 1711.13 5.0056 2.19321 0
M  V30 17824 H 1708.22 0.742514 0.364146 0
M  V30 17825 H 1710.77 1.697 0.00332 0
M  V30 17826 H 1709.54 3.89822 0.339832 0
M  V30 17827 H 1709.16 3.44061 1.99267 0
M  V30 17828 N 1710.16 -0.299034 1.54737 0
M  V30 17829 C 1711.41 -1.03159 1.75299 0
M  V30 17830 C 1711.76 -1.84859 0.533365 0
M  V30 17831 O 1711.06 -1.85639 -0.474219 0
M  V30 17832 C 1711.25 -1.9673 2.98382 0
M  V30 17833 C 1711.08 -1.24234 4.32199 0
M  V30 17834 C 1709.85 -0.96869 4.95928 0
M  V30 17835 C 1712.05 -0.645795 5.10229 0
M  V30 17836 N 1710.03 -0.214208 6.13526 0
M  V30 17837 C 1711.4 -0.0241804 6.19995 0
M  V30 17838 C 1713.45 -0.55104 4.94841 0
M  V30 17839 C 1712.16 0.683023 7.1605 0
M  V30 17840 C 1714.18 0.142513 5.91228 0
M  V30 17841 C 1713.55 0.752971 7.00364 0
M  V30 17842 H 1709.64 -0.360348 0.694027 0
M  V30 17843 H 1712.23 -0.31 1.92216 0
M  V30 17844 H 1710.4 -2.66138 2.82887 0
M  V30 17845 H 1712.13 -2.63152 3.07462 0
M  V30 17846 H 1708.89 -1.26735 4.56328 0
M  V30 17847 H 1709.31 0.149604 6.76835 0
M  V30 17848 H 1713.95 -1.0087 4.10591 0
M  V30 17849 H 1711.67 1.15245 7.9984 0
M  V30 17850 H 1715.26 0.215798 5.814 0
M  V30 17851 H 1714.14 1.2811 7.73665 0
M  V30 17852 N 1711.64 -1.47227 -0.562322 0
M  V30 17853 C 1712.57 -1.62204 -1.67965 0
M  V30 17854 C 1713.55 -0.471638 -1.63431 0
M  V30 17855 O 1714.74 -0.70036 -1.81131 0
M  V30 17856 C 1711.87 -1.63127 -3.06605 0
M  V30 17857 C 1710.82 -2.77343 -3.25983 0
M  V30 17858 C 1710.15 -2.63336 -4.65358 0
M  V30 17859 C 1711.45 -4.18983 -3.1185 0
M  V30 17860 H 1713.14 -2.55739 -1.55686 0
M  V30 17861 H 1710.69 -1.23075 -0.747561 0
M  V30 17862 H 1712.64 -1.72197 -3.84612 0
M  V30 17863 H 1711.36 -0.661501 -3.19831 0
M  V30 17864 H 1710.02 -2.67776 -2.50383 0
M  V30 17865 H 1709.67 -1.64398 -4.75376 0
M  V30 17866 H 1709.37 -3.39957 -4.79273 0
M  V30 17867 H 1710.89 -2.74327 -5.45506 0
M  V30 17868 H 1712.31 -4.29554 -3.79679 0
M  V30 17869 H 1710.7 -4.96351 -3.37277 0
M  V30 17870 H 1711.77 -4.37709 -2.08661 0
M  V30 17871 N 1713.12 0.808639 -1.35273 0
M  V30 17872 C 1714.06 1.92036 -1.28026 0
M  V30 17873 C 1715.03 1.65397 -0.152611 0
M  V30 17874 O 1716.22 1.87819 -0.335972 0
M  V30 17875 C 1713.36 3.28544 -1.05607 0
M  V30 17876 C 1712.47 3.67382 -2.27276 0
M  V30 17877 C 1711.61 4.9291 -1.98024 0
M  V30 17878 C 1710.65 5.2437 -3.15757 0
M  V30 17879 N 1709.78 6.41077 -2.86294 0
M  V30 17880 H 1714.62 1.97567 -2.23095 0
M  V30 17881 H 1712.16 0.966397 -1.10902 0
M  V30 17882 H 1714.12 4.07234 -0.906418 0
M  V30 17883 H 1712.75 3.22487 -0.142015 0
M  V30 17884 H 1711.8 2.83969 -2.53112 0
M  V30 17885 H 1713.11 3.86593 -3.15194 0
M  V30 17886 H 1712.27 5.79421 -1.79877 0
M  V30 17887 H 1711.01 4.7573 -1.07387 0
M  V30 17888 H 1710.01 4.36349 -3.34483 0
M  V30 17889 H 1711.24 5.4348 -4.07193 0
M  V30 17890 H 1709.18 6.25327 -1.98249 0
M  V30 17891 H 1709.1 6.60528 -3.67748 0
M  V30 17892 H 1710.37 7.30622 -2.71684 0
M  V30 17893 N 1714.6 1.19237 1.03055 0
M  V30 17894 C 1715.51 0.943876 2.14775 0
M  V30 17895 C 1716.52 -0.0955384 1.73738 0
M  V30 17896 O 1717.7 0.0887187 2.01204 0
M  V30 17897 C 1714.76 0.48402 3.43305 0
M  V30 17898 C 1713.82 1.59262 3.98665 0
M  V30 17899 C 1713.06 1.15461 5.21061 0
M  V30 17900 O 1713.28 0.0174841 5.70397 0
M  V30 17901 O 1712.21 1.95648 5.69215 0
M  V30 17902 H 1716.04 1.87894 2.38599 0
M  V30 17903 H 1713.63 0.975046 1.13195 0
M  V30 17904 H 1715.51 0.236135 4.20738 0
M  V30 17905 H 1714.18 -0.422626 3.20929 0
M  V30 17906 H 1713.09 1.89464 3.22574 0
M  V30 17907 H 1714.42 2.47576 4.25402 0
M  V30 17908 N 1716.07 -1.22136 0.99602 0
M  V30 17909 C 1717.02 -2.24178 0.54889 0
M  V30 17910 C 1717.99 -1.60692 -0.420391 0
M  V30 17911 O 1719.18 -1.88021 -0.324452 0
M  V30 17912 C 1716.32 -3.44865 -0.127239 0
M  V30 17913 C 1715.43 -4.22855 0.884153 0
M  V30 17914 C 1714.56 -5.30891 0.181219 0
M  V30 17915 C 1713.6 -6.00603 1.18077 0
M  V30 17916 N 1712.74 -7.00275 0.505927 0
M  V30 17917 H 1717.58 -2.61788 1.42377 0
M  V30 17918 H 1715.12 -1.28658 0.713124 0
M  V30 17919 H 1717.08 -4.1374 -0.536194 0
M  V30 17920 H 1715.71 -3.0801 -0.965892 0
M  V30 17921 H 1714.76 -3.53247 1.41141 0
M  V30 17922 H 1716.07 -4.70888 1.64518 0
M  V30 17923 H 1715.22 -6.06033 -0.284307 0
M  V30 17924 H 1713.96 -4.83841 -0.612289 0
M  V30 17925 H 1712.97 -5.2424 1.65689 0
M  V30 17926 H 1714.19 -6.4974 1.9752 0
M  V30 17927 H 1712.14 -6.55452 -0.268088 0
M  V30 17928 H 1712.06 -7.46329 1.20535 0
M  V30 17929 H 1713.32 -7.79474 0.0633069 0
M  V30 17930 N 1717.55 -0.769612 -1.37531 0
M  V30 17931 C 1718.8 -0.329661 -1.98988 0
M  V30 17932 C 1719.11 1.0993 -1.61786 0
M  V30 17933 O 1720.32 1.64053 -2.1633 0
M  V30 17934 C 1718.78 -0.538461 -3.55849 0
M  V30 17935 C 1718.38 -1.97755 -4.01991 0
M  V30 17936 C 1720.13 -0.162026 -4.24191 0
M  V30 17937 C 1718.04 -2.13406 -5.51554 0
M  V30 17938 H 1716.97 -0.119514 -0.744468 0
M  V30 17939 H 1719.62 -0.948436 -1.57089 0
M  V30 17940 H 1718 0.14974 -3.95717 0
M  V30 17941 H 1719.17 -2.70053 -3.73374 0
M  V30 17942 H 1717.49 -2.31038 -3.46425 0
M  V30 17943 H 1720.08 -0.257508 -5.3408 0
M  V30 17944 H 1720.43 0.887442 -4.06731 0
M  V30 17945 H 1720.96 -0.802692 -3.89617 0
M  V30 17946 H 1717.7 -3.16664 -5.73937 0
M  V30 17947 H 1717.22 -1.45589 -5.81862 0
M  V30 17948 H 1718.9 -1.93165 -6.17492 0
M  V30 17949 N 1719.03 1.48775 -0.519977 0
M  V30 17950 C 1720.28 2.0169 0.0196973 0
M  V30 17951 C 1720.59 1.40319 1.36272 0
M  V30 17952 O 1721.8 1.84673 1.99018 0
M  V30 17953 C 1720.25 3.59798 0.085525 0
M  V30 17954 C 1719.86 4.3015 -1.25199 0
M  V30 17955 C 1721.61 4.20594 0.574557 0
M  V30 17956 C 1719.51 5.80165 -1.14729 0
M  V30 17957 H 1718.44 0.753918 0.011133 0
M  V30 17958 H 1721.09 1.71133 -0.662254 0
M  V30 17959 H 1719.48 3.87154 0.832339 0
M  V30 17960 H 1720.65 4.14477 -2.01359 0
M  V30 17961 H 1718.97 3.81183 -1.67596 0
M  V30 17962 H 1721.56 5.30477 0.670698 0
M  V30 17963 H 1721.91 3.85235 1.57797 0
M  V30 17964 H 1722.44 3.9763 -0.116277 0
M  V30 17965 H 1719.18 6.20081 -2.12555 0
M  V30 17966 H 1718.7 5.98279 -0.426902 0
M  V30 17967 H 1720.38 6.41605 -0.83382 0
M  V30 17968 N 1720.51 0.254649 1.55529 0
M  V30 17969 C 1721.92 -0.247042 1.85058 0
M  V30 17970 C 1722.27 -1.57009 1.17655 0
M  V30 17971 O 1721.4 -2.11506 0.457638 0
M  V30 17972 C 1721.99 -0.455017 3.35731 0
M  V30 17973 C 1720.55 -0.900961 3.65458 0
M  V30 17974 C 1719.7 0.0174436 2.77295 0
M  V30 17975 H 1722.65 0.477005 1.51362 0
M  V30 17976 H 1722.67 -1.29654 3.57729 0
M  V30 17977 H 1722.18 0.508076 3.8476 0
M  V30 17978 H 1720.28 -1.87625 3.21913 0
M  V30 17979 H 1720.39 -0.752458 4.73154 0
M  V30 17980 H 1718.76 -0.495296 2.49838 0
M  V30 17981 H 1719.54 0.976049 3.29132 0
M  V30 17982 N 1721.99 -1.57589 -0.0183649 0
M  V30 17983 C 1722.92 -2.04071 -1.04343 0
M  V30 17984 C 1723.93 -0.955366 -1.3182 0
M  V30 17985 O 1725.12 -1.23249 -1.29119 0
M  V30 17986 C 1722.22 -2.41011 -2.38258 0
M  V30 17987 C 1721.39 -3.72057 -2.29984 0
M  V30 17988 C 1720.45 -3.96067 -3.46435 0
M  V30 17989 O 1719.48 -4.66982 -3.25447 0
M  V30 17990 N 1720.68 -3.42535 -4.68669 0
M  V30 17991 H 1723.45 -2.92629 -0.647168 0
M  V30 17992 H 1721.01 -1.60583 -0.20611 0
M  V30 17993 H 1723 -2.54203 -3.14902 0
M  V30 17994 H 1721.57 -1.58068 -2.69691 0
M  V30 17995 H 1720.79 -3.69117 -1.38369 0
M  V30 17996 H 1722.08 -4.58003 -2.2161 0
M  V30 17997 H 1721.47 -2.85073 -4.8862 0
M  V30 17998 H 1720.03 -3.61087 -5.42641 0
M  V30 17999 N 1723.46 0.290824 -1.54893 0
M  V30 18000 C 1724.43 1.34215 -1.85793 0
M  V30 18001 C 1725.43 1.43204 -0.731393 0
M  V30 18002 O 1726.62 1.42663 -0.999647 0
M  V30 18003 C 1723.75 2.72577 -2.0473 0
M  V30 18004 H 1724.94 1.08056 -2.79757 0
M  V30 18005 H 1722.5 0.528008 -1.47111 0
M  V30 18006 H 1723.23 3.03943 -1.13088 0
M  V30 18007 H 1723.02 2.67442 -2.86736 0
M  V30 18008 H 1724.51 3.48573 -2.29971 0
M  V30 18009 N 1724.94 1.47523 0.554506 0
M  V30 18010 C 1726.36 1.33101 0.880699 0
M  V30 18011 C 1726.56 0.323524 1.98886 0
M  V30 18012 O 1725.61 -0.263996 2.51116 0
M  V30 18013 C 1726.93 2.725 1.27138 0
M  V30 18014 C 1728.48 2.80805 1.38266 0
M  V30 18015 C 1728.95 4.20851 1.80688 0
M  V30 18016 N 1730.44 4.23406 1.87834 0
M  V30 18017 C 1731.18 5.28684 2.21993 0
M  V30 18018 N 1730.67 6.44264 2.54746 0
M  V30 18019 N 1732.47 5.16063 2.2279 0
M  V30 18020 H 1724.62 2.11661 -0.177062 0
M  V30 18021 H 1726.88 0.947856 -0.0165508 0
M  V30 18022 H 1726.59 3.47669 0.53093 0
M  V30 18023 H 1726.46 3.04445 2.22695 0
M  V30 18024 H 1728.85 2.05907 2.11391 0
M  V30 18025 H 1728.93 2.52511 0.408901 0
M  V30 18026 H 1728.57 4.96256 1.08131 0
M  V30 18027 H 1728.5 4.46572 2.79071 0
M  V30 18028 H 1730.99 3.40025 1.64897 0
M  V30 18029 H 1731.31 7.20351 2.79846 0
M  V30 18030 H 1729.65 6.4758 2.52321 0
M  V30 18031 H 1732.84 4.24793 1.96642 0
M  V30 18032 H 1733.01 5.98216 2.49081 0
M  V30 18033 N 1726.42 -0.801453 1.357 0
M  V30 18034 C 1727.7 -1.54605 1.19819 0
M  V30 18035 C 1728.08 -2.09944 -0.220593 0
M  V30 18036 O 1727.43 -1.92904 -1.22475 0
M  V30 18037 C 1727.64 -2.65052 2.27043 0
M  V30 18038 C 1728.98 -3.33255 2.63109 0
M  V30 18039 O 1730.01 -2.75326 2.25995 0
M  V30 18040 O 1728.87 -4.37917 3.26942 0
M  V30 18041 H 1725.96 -0.68334 0.465807 0
M  V30 18042 H 1728.51 -0.840972 1.47397 0
M  V30 18043 H 1727.28 -2.22068 3.22182 0
M  V30 18044 H 1726.9 -3.4319 2.00764 0
M  V30 18045 N 1727.9 -1.19782 -1.02421 0
M  V30 18046 C 1728.85 -0.93978 -2.108 0
M  V30 18047 C 1729.82 0.12716 -1.65613 0
M  V30 18048 O 1731 -0.0159669 -1.90793 0
M  V30 18049 C 1728.14 -0.489656 -3.41609 0
M  V30 18050 C 1727.25 -1.62389 -4.00317 0
M  V30 18051 C 1726.39 -1.12483 -5.19154 0
M  V30 18052 C 1725.43 -2.23266 -5.69929 0
M  V30 18053 N 1724.56 -1.74633 -6.80035 0
M  V30 18054 H 1729.4 -1.8677 -2.32209 0
M  V30 18055 H 1726.94 -0.931082 -1.13883 0
M  V30 18056 H 1728.9 -0.210049 -4.16671 0
M  V30 18057 H 1727.53 0.40127 -3.20296 0
M  V30 18058 H 1726.58 -2.0186 -3.22423 0
M  V30 18059 H 1727.89 -2.45836 -4.34011 0
M  V30 18060 H 1727.05 -0.800737 -6.01393 0
M  V30 18061 H 1725.79 -0.260155 -4.87006 0
M  V30 18062 H 1724.79 -2.56501 -4.863 0
M  V30 18063 H 1726.02 -3.10197 -6.04115 0
M  V30 18064 H 1723.96 -0.904804 -6.4973 0
M  V30 18065 H 1723.88 -2.51666 -7.12882 0
M  V30 18066 H 1725.15 -1.45201 -7.65857 0
M  V30 18067 N 1729.38 1.21606 -1.00248 0
M  V30 18068 C 1730.31 2.26159 -0.580911 0
M  V30 18069 C 1731.29 1.65402 0.397017 0
M  V30 18070 O 1732.47 1.92089 0.285552 0
M  V30 18071 C 1729.6 3.47168 0.0957564 0
M  V30 18072 C 1728.56 4.20425 -0.801695 0
M  V30 18073 C 1727.88 5.34699 0.00842241 0
M  V30 18074 C 1729.18 4.78086 -2.10311 0
M  V30 18075 H 1730.88 2.61675 -1.45487 0
M  V30 18076 H 1728.42 1.25786 -0.700995 0
M  V30 18077 H 1730.38 4.19477 0.402141 0
M  V30 18078 H 1729.1 3.10775 1.00433 0
M  V30 18079 H 1727.76 3.49963 -1.09187 0
M  V30 18080 H 1727.41 4.94548 0.918206 0
M  V30 18081 H 1727.11 5.84639 -0.589105 0
M  V30 18082 H 1728.63 6.09819 0.30868 0
M  V30 18083 H 1730.05 5.42287 -1.86004 0
M  V30 18084 H 1728.44 5.38405 -2.65028 0
M  V30 18085 H 1729.51 3.97607 -2.77555 0
M  V30 18086 N 1730.86 0.776895 1.37121 0
M  V30 18087 C 1731.77 0.167552 2.34001 0
M  V30 18088 C 1732.78 -0.673609 1.60432 0
M  V30 18089 O 1733.96 -0.592327 1.92493 0
M  V30 18090 C 1731.02 -0.697343 3.39615 0
M  V30 18091 C 1730.08 0.160869 4.28998 0
M  V30 18092 C 1729.32 -0.662841 5.29568 0
M  V30 18093 O 1729.54 -1.89962 5.37839 0
M  V30 18094 O 1728.47 -0.0693304 6.0186 0
M  V30 18095 H 1732.3 0.968247 2.87852 0
M  V30 18096 H 1729.88 0.538137 1.39372 0
M  V30 18097 H 1731.77 -1.19094 4.04221 0
M  V30 18098 H 1730.44 -1.47614 2.88083 0
M  V30 18099 H 1729.35 0.700941 3.67475 0
M  V30 18100 H 1730.68 0.902875 4.83848 0
M  V30 18101 N 1732.33 -1.48497 0.527859 0
M  V30 18102 C 1733.58 -2.02499 -0.00701157 0
M  V30 18103 C 1733.91 -1.40516 -1.34483 0
M  V30 18104 O 1733.16 -0.539575 -1.88115 0
M  V30 18105 C 1733.46 -3.56945 -0.180276 0
M  V30 18106 C 1733.13 -4.37703 1.08291 0
M  V30 18107 C 1731.79 -4.59489 1.42911 0
M  V30 18108 C 1734.14 -4.84495 1.92131 0
M  V30 18109 C 1731.47 -5.25313 2.61272 0
M  V30 18110 C 1733.82 -5.51623 3.09669 0
M  V30 18111 C 1732.49 -5.71648 3.44637 0
M  V30 18112 H 1731.76 -0.740996 -0.00256572 0
M  V30 18113 H 1734.4 -1.78503 0.693453 0
M  V30 18114 H 1732.71 -3.79768 -0.963491 0
M  V30 18115 H 1734.41 -3.96348 -0.609009 0
M  V30 18116 H 1731 -4.21005 0.803293 0
M  V30 18117 H 1735.18 -4.67468 1.66696 0
M  V30 18118 H 1730.44 -5.39015 2.8857 0
M  V30 18119 H 1734.61 -5.86849 3.74942 0
M  V30 18120 H 1732.24 -6.22426 4.36451 0
M  V30 18121 N 1733.81 -0.262893 -1.55392 0
M  V30 18122 C 1735.06 0.357895 -1.99617 0
M  V30 18123 C 1735.39 1.56415 -1.151 0
M  V30 18124 O 1734.67 1.93273 -0.218139 0
M  V30 18125 C 1734.95 0.752095 -3.52158 0
M  V30 18126 C 1734.8 -0.460658 -4.47435 0
M  V30 18127 C 1736.12 1.59314 -4.10253 0
M  V30 18128 H 1733.24 0.128612 -0.725691 0
M  V30 18129 H 1735.88 -0.367399 -1.86414 0
M  V30 18130 H 1734.03 1.37006 -3.6354 0
M  V30 18131 H 1735.7 -1.09918 -4.48013 0
M  V30 18132 H 1733.95 -1.10093 -4.19597 0
M  V30 18133 H 1734.62 -0.141262 -5.51819 0
M  V30 18134 H 1737.09 1.07135 -4.02071 0
M  V30 18135 H 1735.97 1.83779 -5.1722 0
M  V30 18136 H 1736.23 2.57022 -3.59711 0
M  V30 18137 N 1735.29 1.57597 0.0100073 0
M  V30 18138 C 1736.52 1.94402 0.708192 0
M  V30 18139 C 1736.93 0.864205 1.6786 0
M  V30 18140 O 1736.29 -0.157763 1.81817 0
M  V30 18141 C 1736.34 3.312 1.44876 0
M  V30 18142 O 1736.06 4.35035 0.517281 0
M  V30 18143 C 1737.56 3.82404 2.24237 0
M  V30 18144 H 1734.78 0.64116 0.197877 0
M  V30 18145 H 1737.33 2.04464 -0.0381373 0
M  V30 18146 H 1735.48 3.22476 2.1468 0
M  V30 18147 H 1735.9 5.14113 1.03868 0
M  V30 18148 H 1737.37 4.80578 2.71567 0
M  V30 18149 H 1737.85 3.14587 3.06483 0
M  V30 18150 H 1738.45 3.94271 1.59469 0
M  V30 18151 N 1736.77 -0.282606 1.55045 0
M  V30 18152 C 1737.71 -1.34908 1.87266 0
M  V30 18153 C 1738.68 -1.49528 0.72323 0
M  V30 18154 O 1739.87 -1.6409 0.973602 0
M  V30 18155 C 1737.01 -2.70603 2.14168 0
M  V30 18156 C 1736.12 -2.64284 3.41728 0
M  V30 18157 C 1735.26 -3.92094 3.58379 0
M  V30 18158 C 1734.3 -3.80246 4.79666 0
M  V30 18159 N 1733.43 -4.99871 4.93025 0
M  V30 18160 H 1738.27 -1.06731 2.78231 0
M  V30 18161 H 1735.81 -0.515845 1.37759 0
M  V30 18162 H 1737.77 -3.49542 2.27763 0
M  V30 18163 H 1736.4 -2.97003 1.26448 0
M  V30 18164 H 1735.45 -1.77108 3.36656 0
M  V30 18165 H 1736.76 -2.51425 4.30798 0
M  V30 18166 H 1735.92 -4.79473 3.7174 0
M  V30 18167 H 1734.66 -4.07808 2.67476 0
M  V30 18168 H 1733.66 -2.91251 4.66319 0
M  V30 18169 H 1734.89 -3.6606 5.71994 0
M  V30 18170 H 1732.83 -5.16014 4.0505 0
M  V30 18171 H 1732.75 -4.89507 5.76124 0
M  V30 18172 H 1734.02 -5.88849 5.10761 0
M  V30 18173 N 1738.25 -1.47815 -0.546675 0
M  V30 18174 C 1739.18 -1.63976 -1.66235 0
M  V30 18175 C 1740.16 -0.488945 -1.62921 0
M  V30 18176 O 1741.34 -0.719532 -1.80378 0
M  V30 18177 C 1738.47 -1.6637 -3.04858 0
M  V30 18178 C 1737.43 -2.80785 -3.23023 0
M  V30 18179 C 1736.75 -2.68257 -4.62539 0
M  V30 18180 C 1738.05 -4.22267 -3.07388 0
M  V30 18181 H 1739.75 -2.57375 -1.52965 0
M  V30 18182 H 1737.29 -1.23861 -0.734465 0
M  V30 18183 H 1739.24 -1.76266 -3.82764 0
M  V30 18184 H 1737.97 -0.695386 -3.19111 0
M  V30 18185 H 1736.63 -2.70417 -2.47529 0
M  V30 18186 H 1736.28 -1.69431 -4.73606 0
M  V30 18187 H 1735.98 -3.45022 -4.75641 0
M  V30 18188 H 1737.5 -2.80097 -5.42566 0
M  V30 18189 H 1738.91 -4.33557 -3.75102 0
M  V30 18190 H 1737.31 -4.999 -3.31994 0
M  V30 18191 H 1738.38 -4.39897 -2.04006 0
M  V30 18192 N 1739.72 0.794246 -1.36123 0
M  V30 18193 C 1741.14 1.0916 -1.16431 0
M  V30 18194 C 1741.34 2.01495 0.0148797 0
M  V30 18195 O 1740.4 2.43123 0.681729 0
M  V30 18196 C 1741.71 1.71071 -2.47295 0
M  V30 18197 C 1743.26 1.83435 -2.53615 0
M  V30 18198 C 1743.73 2.48761 -3.84554 0
M  V30 18199 N 1745.22 2.56235 -3.85873 0
M  V30 18200 C 1745.96 3.07579 -4.83924 0
M  V30 18201 N 1745.45 3.59267 -5.92367 0
M  V30 18202 N 1747.25 3.06246 -4.71349 0
M  V30 18203 H 1739.4 0.180705 -2.1163 0
M  V30 18204 H 1741.66 0.142774 -0.937187 0
M  V30 18205 H 1741.37 1.10693 -3.33826 0
M  V30 18206 H 1741.24 2.70634 -2.62749 0
M  V30 18207 H 1743.63 2.42953 -1.67505 0
M  V30 18208 H 1743.71 0.82692 -2.42065 0
M  V30 18209 H 1743.35 1.8989 -4.71067 0
M  V30 18210 H 1743.28 3.50066 -3.93397 0
M  V30 18211 H 1745.77 2.19629 -3.07525 0
M  V30 18212 H 1746.09 3.96781 -6.63163 0
M  V30 18213 H 1744.43 3.57432 -5.96043 0
M  V30 18214 H 1747.62 2.65151 -3.85762 0
M  V30 18215 H 1747.8 3.45953 -5.47924 0
M  V30 18216 N 1741.2 1.20323 1.01785 0
M  V30 18217 C 1742.13 0.908716 2.10416 0
M  V30 18218 C 1743.15 -0.103029 1.62474 0
M  V30 18219 O 1744.34 0.127825 1.78042 0
M  V30 18220 C 1741.44 0.340601 3.37184 0
M  V30 18221 C 1740.61 1.40358 4.14268 0
M  V30 18222 C 1739.67 0.847016 5.19338 0
M  V30 18223 O 1738.69 1.5274 5.48324 0
M  V30 18224 N 1739.9 -0.344198 5.79479 0
M  V30 18225 H 1742.66 1.84383 2.36269 0
M  V30 18226 H 1740.22 1.10673 1.18165 0
M  V30 18227 H 1742.21 -0.0458443 4.04674 0
M  V30 18228 H 1740.78 -0.499042 3.08591 0
M  V30 18229 H 1740 1.96442 3.41766 0
M  V30 18230 H 1741.29 2.11952 4.62551 0
M  V30 18231 H 1740.69 -0.914263 5.58263 0
M  V30 18232 H 1739.25 -0.672296 6.48324 0
M  V30 18233 N 1742.68 -1.21073 1.00892 0
M  V30 18234 C 1743.61 -2.25847 0.592897 0
M  V30 18235 C 1744.59 -1.6561 -0.38824 0
M  V30 18236 O 1745.78 -1.92238 -0.275361 0
M  V30 18237 C 1742.91 -3.47214 -0.0773439 0
M  V30 18238 C 1741.86 -4.19994 0.82398 0
M  V30 18239 C 1741.19 -5.34696 0.0199341 0
M  V30 18240 C 1742.49 -4.76964 2.12844 0
M  V30 18241 H 1744.18 -2.609 1.46873 0
M  V30 18242 H 1741.73 -1.25412 0.707656 0
M  V30 18243 H 1743.68 -4.19684 -0.379889 0
M  V30 18244 H 1742.4 -3.11303 -0.987833 0
M  V30 18245 H 1741.06 -3.49379 1.11041 0
M  V30 18246 H 1740.71 -4.95028 -0.891966 0
M  V30 18247 H 1740.41 -5.84319 0.620102 0
M  V30 18248 H 1741.93 -6.09974 -0.276336 0
M  V30 18249 H 1743.35 -5.41293 1.88878 0
M  V30 18250 H 1741.74 -5.36992 2.67879 0
M  V30 18251 H 1742.81 -3.96129 2.79659 0
M  V30 18252 N 1744.16 -0.784156 -1.36707 0
M  V30 18253 C 1745.07 -0.179959 -2.33909 0
M  V30 18254 C 1746.08 0.665092 -1.60787 0
M  V30 18255 O 1747.26 0.582111 -1.92804 0
M  V30 18256 C 1744.33 0.679323 -3.3998 0
M  V30 18257 C 1743.39 -0.183618 -4.28907 0
M  V30 18258 C 1742.62 0.634747 -5.29912 0
M  V30 18259 O 1742.84 1.87107 -5.38839 0
M  V30 18260 O 1741.78 0.0374113 -6.01888 0
M  V30 18261 H 1745.6 -0.983499 -2.87334 0
M  V30 18262 H 1743.19 -0.545521 -1.39084 0
M  V30 18263 H 1745.07 1.16948 -4.04847 0
M  V30 18264 H 1743.74 1.46084 -2.88862 0
M  V30 18265 H 1742.65 -0.720419 -3.67098 0
M  V30 18266 H 1743.98 -0.928522 -4.83363 0
M  V30 18267 N 1745.64 1.48215 -0.535727 0
M  V30 18268 C 1746.57 2.26582 0.271278 0
M  V30 18269 C 1747.55 1.32699 0.939673 0
M  V30 18270 O 1748.73 1.62049 0.96293 0
M  V30 18271 C 1745.86 3.09103 1.38467 0
M  V30 18272 C 1744.9 4.18404 0.827081 0
M  V30 18273 S 1745.74 5.34604 -0.309565 0
M  V30 18274 C 1746.89 6.20687 0.806162 0
M  V30 18275 H 1747.13 2.94681 -0.393775 0
M  V30 18276 H 1744.66 1.51013 -0.321622 0
M  V30 18277 H 1746.62 3.57223 2.02242 0
M  V30 18278 H 1745.28 2.40407 2.02147 0
M  V30 18279 H 1744.47 4.7579 1.66251 0
M  V30 18280 H 1744.07 3.73053 0.265911 0
M  V30 18281 H 1746.37 6.55735 1.70345 0
M  V30 18282 H 1747.31 7.07585 0.27014 0
M  V30 18283 H 1747.72 5.53893 1.08916 0
M  V30 18284 N 1747.11 0.27113 1.5525 0
M  V30 18285 C 1748.04 -0.61179 2.25343 0
M  V30 18286 C 1749.03 -1.16208 1.24216 0
M  V30 18287 O 1750.21 -1.19696 1.52927 0
M  V30 18288 C 1747.34 -1.7978 2.97147 0
M  V30 18289 C 1746.29 -1.37922 4.05169 0
M  V30 18290 C 1745.62 -2.64801 4.64526 0
M  V30 18291 C 1746.92 -0.532357 5.1958 0
M  V30 18292 H 1748.61 -0.0272538 2.99388 0
M  V30 18293 H 1746.16 -0.0116681 1.43995 0
M  V30 18294 H 1748.11 -2.42132 3.44891 0
M  V30 18295 H 1746.84 -2.40811 2.20631 0
M  V30 18296 H 1745.5 -0.778918 3.5823 0
M  V30 18297 H 1745.14 -3.24081 3.84682 0
M  V30 18298 H 1744.84 -2.37507 5.37461 0
M  V30 18299 H 1746.37 -3.28009 5.15017 0
M  V30 18300 H 1747.78 -1.06078 5.63401 0
M  V30 18301 H 1746.18 -0.35447 5.99052 0
M  V30 18302 H 1747.25 0.44981 4.82809 0
M  V30 18303 N 1748.59 -1.576 -0.00164943 0
M  V30 18304 C 1749.5 -2.11748 -1.00995 0
M  V30 18305 C 1750.52 -1.06235 -1.37805 0
M  V30 18306 O 1751.69 -1.38127 -1.4657 0
M  V30 18307 C 1748.76 -2.60869 -2.2836 0
M  V30 18308 C 1747.82 -3.80976 -1.97879 0
M  V30 18309 C 1747.05 -4.27745 -3.19171 0
M  V30 18310 O 1747.28 -3.73856 -4.30799 0
M  V30 18311 O 1746.21 -5.19917 -3.03265 0
M  V30 18312 H 1750.04 -2.98117 -0.579667 0
M  V30 18313 H 1747.62 -1.47766 -0.220375 0
M  V30 18314 H 1749.5 -2.9267 -3.03187 0
M  V30 18315 H 1748.18 -1.77598 -2.7063 0
M  V30 18316 H 1747.09 -3.54151 -1.20533 0
M  V30 18317 H 1748.42 -4.65315 -1.60447 0
M  V30 18318 N 1750.07 0.274379 -1.55193 0
M  V30 18319 C 1751.02 1.35903 -1.88767 0
M  V30 18320 C 1752.01 1.512 -0.763874 0
M  V30 18321 O 1753.22 1.53 -0.948201 0
M  V30 18322 H 1749.59 0.454495 -0.599114 0
M  V30 18323 H 1751.56 1.04837 -2.79378 0
M  V30 18324 C 1750.31 2.71277 -2.17496 0
M  V30 18325 H 1749.64 2.60297 -3.03456 0
M  V30 18326 H 1751.08 3.46115 -2.44909 0
M  V30 18327 C 1749.54 3.22268 -0.982101 0
M  V30 18328 O 1750.07 4.01119 -0.216035 0
M  V30 18329 N 1748.27 2.79931 -0.780179 0
M  V30 18330 H 1747.82 2.15923 -1.40482 0
M  V30 18331 H 1747.78 3.14396 0.0163297 0
M  V30 18332 N 1751.55 1.48103 0.538828 0
M  V30 18333 C 1752.48 1.58044 1.65996 0
M  V30 18334 C 1753.49 0.465316 1.56009 0
M  V30 18335 O 1754.68 0.735769 1.62631 0
M  V30 18336 C 1751.78 1.48587 3.0459 0
M  V30 18337 C 1750.96 2.74987 3.40148 0
M  V30 18338 C 1750.01 2.59109 4.57984 0
M  V30 18339 O 1749.04 3.32974 4.61646 0
M  V30 18340 N 1750.24 1.68143 5.55615 0
M  V30 18341 H 1753.01 2.54726 1.57908 0
M  V30 18342 H 1750.57 1.44715 0.725901 0
M  V30 18343 H 1752.56 1.35673 3.81281 0
M  V30 18344 H 1751.13 0.599157 3.06804 0
M  V30 18345 H 1750.35 3.02531 2.52723 0
M  V30 18346 H 1751.64 3.58862 3.60687 0
M  V30 18347 H 1751.04 1.07317 5.55427 0
M  V30 18348 H 1749.59 1.61171 6.31559 0
M  V30 18349 N 1753.03 -0.787016 1.36542 0
M  V30 18350 C 1754.28 -1.54019 1.30234 0
M  V30 18351 C 1754.59 -1.95259 -0.115496 0
M  V30 18352 O 1755.79 -2.69827 -0.300966 0
M  V30 18353 C 1754.25 -2.78048 2.28512 0
M  V30 18354 C 1753.86 -2.43968 3.75744 0
M  V30 18355 C 1755.6 -3.56025 2.31185 0
M  V30 18356 C 1753.51 -3.64406 4.65792 0
M  V30 18357 H 1752.44 -0.578185 0.483961 0
M  V30 18358 H 1755.09 -0.8634 1.61919 0
M  V30 18359 H 1753.47 -3.47538 1.89824 0
M  V30 18360 H 1754.65 -1.82359 4.23181 0
M  V30 18361 H 1752.96 -1.79197 3.75869 0
M  V30 18362 H 1755.56 -4.45514 2.9567 0
M  V30 18363 H 1755.9 -3.94783 1.32107 0
M  V30 18364 H 1756.43 -2.93516 2.68502 0
M  V30 18365 H 1753.17 -3.30742 5.65942 0
M  V30 18366 H 1752.69 -4.25173 4.2307 0
M  V30 18367 H 1754.37 -4.31406 4.82181 0
M  V30 18368 N 1754.5 -1.20861 -1.01145 0
M  V30 18369 C 1755.73 -1.04843 -1.78949 0
M  V30 18370 C 1756.15 0.397676 -1.83848 0
M  V30 18371 O 1755.51 1.28663 -1.27733 0
M  V30 18372 C 1755.56 -1.64267 -3.21012 0
M  V30 18373 O 1754.66 -0.883773 -4.02819 0
M  V30 18374 H 1754.01 -0.36941 -0.551754 0
M  V30 18375 H 1756.54 -1.60266 -1.27185 0
M  V30 18376 H 1756.55 -1.68218 -3.71708 0
M  V30 18377 H 1755.22 -2.69509 -3.16761 0
M  V30 18378 H 1753.8 -0.918866 -3.61402 0
M  V30 18379 N 1755.98 1.20536 -1.01532 0
M  V30 18380 C 1757.21 1.93853 -0.723104 0
M  V30 18381 C 1757.63 1.74697 0.715994 0
M  V30 18382 O 1756.98 1.06013 1.48551 0
M  V30 18383 C 1757.03 3.45986 -1.04767 0
M  V30 18384 O 1756.75 3.64514 -2.43025 0
M  V30 18385 C 1758.26 4.36449 -0.776323 0
M  V30 18386 H 1755.48 0.616179 -0.265639 0
M  V30 18387 H 1758.02 1.53064 -1.35616 0
M  V30 18388 H 1756.17 3.84659 -0.460039 0
M  V30 18389 H 1756.59 4.58513 -2.54689 0
M  V30 18390 H 1758.06 5.41853 -1.05351 0
M  V30 18391 H 1758.54 4.38245 0.289524 0
M  V30 18392 H 1759.15 4.03437 -1.34605 0
M  V30 18393 N 1757.46 0.791395 1.36289 0
M  V30 18394 C 1758.71 0.361277 1.98438 0
M  V30 18395 C 1759.02 -1.07343 1.63514 0
M  V30 18396 O 1760.23 -1.60591 2.18913 0
M  V30 18397 C 1758.68 0.595005 3.54947 0
M  V30 18398 C 1758.29 2.04125 3.98794 0
M  V30 18399 C 1760.04 0.22949 4.23879 0
M  V30 18400 C 1757.94 2.22154 5.48089 0
M  V30 18401 H 1756.87 0.131343 0.742472 0
M  V30 18402 H 1759.52 0.973308 1.5556 0
M  V30 18403 H 1757.91 -0.0867658 3.95905 0
M  V30 18404 H 1759.08 2.75959 3.6903 0
M  V30 18405 H 1757.4 2.3652 3.42706 0
M  V30 18406 H 1759.99 0.342442 5.33602 0
M  V30 18407 H 1760.34 -0.822622 4.08091 0
M  V30 18408 H 1760.87 0.864575 3.88291 0
M  V30 18409 H 1757.61 3.25755 5.68827 0
M  V30 18410 H 1757.13 1.54827 5.79473 0
M  V30 18411 H 1758.81 2.02964 6.14341 0
M  V30 18412 N 1758.94 -1.47929 0.54358 0
M  V30 18413 C 1759.89 -2.26818 -0.23183 0
M  V30 18414 C 1760.87 -1.33532 -0.897665 0
M  V30 18415 O 1762.07 -1.57979 -0.798223 0
M  V30 18416 C 1759.19 -3.18956 -1.26972 0
M  V30 18417 C 1758.28 -4.19719 -0.607991 0
M  V30 18418 N 1758.67 -5.04824 0.314122 0
M  V30 18419 C 1756.97 -4.3756 -0.863569 0
M  V30 18420 C 1757.67 -5.77507 0.697198 0
M  V30 18421 N 1756.65 -5.43572 0.055142 0
M  V30 18422 H 1760.45 -2.89997 0.477356 0
M  V30 18423 H 1757.96 -1.58301 0.362553 0
M  V30 18424 H 1759.96 -3.74144 -1.83907 0
M  V30 18425 H 1758.62 -2.57333 -1.98014 0
M  V30 18426 H 1759.63 -5.13316 0.687517 0
M  V30 18427 H 1756.31 -3.87117 -1.56353 0
M  V30 18428 H 1757.7 -6.55977 1.45411 0
M  V30 18429 N 1760.42 -0.27936 -1.55104 0
M  V30 18430 C 1761.35 0.639572 -2.20096 0
M  V30 18431 C 1762.36 1.11423 -1.18696 0
M  V30 18432 O 1763.55 1.0354 -1.45402 0
M  V30 18433 C 1760.65 1.88494 -2.81644 0
M  V30 18434 C 1759.82 1.55639 -4.08773 0
M  V30 18435 C 1758.88 2.65466 -4.54328 0
M  V30 18436 O 1757.91 2.31473 -5.20008 0
M  V30 18437 N 1759.11 3.95606 -4.24825 0
M  V30 18438 H 1761.88 0.0833048 -2.99584 0
M  V30 18439 H 1759.44 -0.100637 -1.61587 0
M  V30 18440 H 1761.43 2.61272 -3.09062 0
M  V30 18441 H 1760 2.35015 -2.06123 0
M  V30 18442 H 1759.22 0.662253 -3.88597 0
M  V30 18443 H 1760.51 1.31196 -4.91594 0
M  V30 18444 H 1759.91 4.26043 -3.72161 0
M  V30 18445 H 1758.46 4.64748 -4.57004 0
M  V30 18446 N 1761.9 1.57599 -0.0067085 0
M  V30 18447 C 1763.12 1.95545 0.69115 0
M  V30 18448 C 1763.55 0.882014 1.66139 0
M  V30 18449 O 1762.9 -0.159242 1.80599 0
M  V30 18450 C 1762.95 3.3259 1.39342 0
M  V30 18451 O 1762.06 3.27368 2.50806 0
M  V30 18452 H 1761.4 0.638188 0.183336 0
M  V30 18453 H 1763.93 2.04506 -0.0618957 0
M  V30 18454 H 1763.94 3.6831 1.75532 0
M  V30 18455 H 1762.61 4.10269 0.682072 0
M  V30 18456 H 1761.19 3.03334 2.16894 0
M  V30 18457 N 1763.37 -0.266145 1.55336 0
M  V30 18458 C 1764.61 -1.0044 1.7802 0
M  V30 18459 C 1764.98 -1.83247 0.573099 0
M  V30 18460 O 1766.18 -2.601 0.67832 0
M  V30 18461 C 1764.45 -1.85798 3.05309 0
M  V30 18462 S 1766.01 -2.65796 3.49139 0
M  V30 18463 H 1762.83 -0.338177 0.625426 0
M  V30 18464 H 1765.43 -0.274137 1.93568 0
M  V30 18465 H 1764.13 -1.23901 3.9125 0
M  V30 18466 H 1763.66 -2.63133 2.92446 0
M  V30 18467 H 1765.68 -3.88281 3.08953 0
M  V30 18468 N 1764.85 -1.48386 -0.530967 0
M  V30 18469 C 1766.26 -1.49904 -1.11291 0
M  V30 18470 C 1766.61 -0.268276 -1.94357 0
M  V30 18471 O 1765.74 0.624676 -2.07188 0
M  V30 18472 C 1766.33 -2.71622 -2.02501 0
M  V30 18473 C 1764.89 -2.76015 -2.55916 0
M  V30 18474 C 1764.04 -2.43403 -1.32855 0
M  V30 18475 H 1766.99 -1.55517 -0.316269 0
M  V30 18476 H 1767.01 -2.50084 -2.86772 0
M  V30 18477 H 1766.52 -3.61182 -1.42017 0
M  V30 18478 H 1764.62 -1.9066 -3.20124 0
M  V30 18479 H 1764.74 -3.77416 -2.95116 0
M  V30 18480 H 1763.1 -1.94537 -1.644 0
M  V30 18481 H 1763.88 -3.35202 -0.741242 0
M  V30 18482 N 1766.33 0.779763 -1.36958 0
M  V30 18483 C 1767.55 1.57389 -1.35068 0
M  V30 18484 C 1767.98 1.87993 0.0635244 0
M  V30 18485 O 1767.34 1.48625 1.03828 0
M  V30 18486 C 1767.39 2.86582 -2.18868 0
M  V30 18487 O 1766.49 3.80609 -1.58779 0
M  V30 18488 H 1765.83 0.477052 -0.461863 0
M  V30 18489 H 1768.36 0.965741 -1.80373 0
M  V30 18490 H 1768.37 3.35761 -2.31794 0
M  V30 18491 H 1767.05 2.63635 -3.21666 0
M  V30 18492 H 1765.62 3.39229 -1.54848 0
M  V30 18493 N 1767.81 1.21396 1.00503 0
M  V30 18494 C 1768.74 0.930982 2.09441 0
M  V30 18495 C 1769.75 -0.0857912 1.62574 0
M  V30 18496 O 1770.94 0.146701 1.77896 0
M  V30 18497 C 1768.04 0.376344 3.36804 0
M  V30 18498 C 1767.21 1.44744 4.12756 0
M  V30 18499 C 1766.27 0.902051 5.18411 0
M  V30 18500 O 1765.3 1.58548 5.46673 0
M  V30 18501 N 1766.5 -0.282718 5.79811 0
M  V30 18502 H 1769.27 1.86879 2.343 0
M  V30 18503 H 1766.83 1.1192 1.16985 0
M  V30 18504 H 1768.82 -0.00292068 4.047 0
M  V30 18505 H 1767.39 -0.466283 3.09103 0
M  V30 18506 H 1766.61 2.00056 3.39664 0
M  V30 18507 H 1767.9 2.16846 4.60277 0
M  V30 18508 H 1767.3 -0.855 5.59201 0
M  V30 18509 H 1765.85 -0.603494 6.49 0
M  V30 18510 N 1769.29 -1.19996 1.0217 0
M  V30 18511 C 1770.2 -2.26634 0.606136 0
M  V30 18512 C 1771.21 -1.70262 -0.358746 0
M  V30 18513 O 1772.39 -2.00212 -0.218422 0
M  V30 18514 C 1769.45 -3.46672 -0.0439096 0
M  V30 18515 C 1768.51 -4.18254 0.967563 0
M  V30 18516 C 1767.75 -5.32561 0.348443 0
M  V30 18517 O 1767.97 -5.64024 -0.850508 0
M  V30 18518 O 1766.9 -5.92354 1.06772 0
M  V30 18519 H 1770.73 -2.64407 1.49407 0
M  V30 18520 H 1768.31 -1.26712 0.791483 0
M  V30 18521 H 1770.2 -4.19433 -0.406714 0
M  V30 18522 H 1768.87 -3.10764 -0.90596 0
M  V30 18523 H 1767.78 -3.47644 1.38183 0
M  V30 18524 H 1769.11 -4.58116 1.79975 0
M  V30 18525 N 1770.76 -0.798611 -1.35867 0
M  V30 18526 C 1771.71 -0.176275 -2.27318 0
M  V30 18527 C 1772.7 0.64521 -1.47397 0
M  V30 18528 O 1773.89 0.503776 -1.69679 0
M  V30 18529 C 1771.02 0.680716 -3.36483 0
M  V30 18530 C 1770.1 -0.150062 -4.23834 0
M  V30 18531 N 1770.5 -1.20913 -4.91135 0
M  V30 18532 C 1768.79 0.0696135 -4.45946 0
M  V30 18533 C 1769.49 -1.71566 -5.55824 0
M  V30 18534 N 1768.47 -1.02339 -5.3388 0
M  V30 18535 H 1772.27 -0.986741 -2.7684 0
M  V30 18536 H 1769.79 -0.638977 -1.49301 0
M  V30 18537 H 1771.78 1.14254 -4.00938 0
M  V30 18538 H 1770.44 1.48962 -2.88514 0
M  V30 18539 H 1771.45 -1.59169 -4.92834 0
M  V30 18540 H 1768.13 0.848295 -4.08791 0
M  V30 18541 H 1769.52 -2.60035 -6.19541 0
M  V30 18542 N 1772.24 1.47639 -0.551417 0
M  V30 18543 C 1773.17 2.27972 0.236919 0
M  V30 18544 C 1774.19 1.3666 0.884752 0
M  V30 18545 O 1775.38 1.61532 0.75958 0
M  V30 18546 C 1772.48 3.10738 1.3526 0
M  V30 18547 C 1771.65 4.29972 0.802659 0
M  V30 18548 C 1770.71 4.94379 1.80212 0
M  V30 18549 O 1769.73 5.52946 1.35053 0
M  V30 18550 N 1770.94 4.8855 3.13526 0
M  V30 18551 H 1773.7 2.9627 -0.452154 0
M  V30 18552 H 1771.26 1.57204 -0.387116 0
M  V30 18553 H 1773.25 3.50692 2.01983 0
M  V30 18554 H 1771.82 2.44721 1.945 0
M  V30 18555 H 1771.04 3.94178 -0.0411825 0
M  V30 18556 H 1772.33 5.07109 0.41448 0
M  V30 18557 H 1771.73 4.42157 3.52865 0
M  V30 18558 H 1770.29 5.32541 3.75823 0
M  V30 18559 N 1773.72 0.287581 1.54954 0
M  V30 18560 C 1774.63 -0.604236 2.26685 0
M  V30 18561 C 1775.65 -1.1597 1.29719 0
M  V30 18562 O 1776.82 -1.18735 1.62678 0
M  V30 18563 C 1773.89 -1.76612 2.98344 0
M  V30 18564 C 1772.95 -1.24608 4.10818 0
M  V30 18565 C 1772.18 -2.35258 4.7905 0
M  V30 18566 O 1772.4 -3.54879 4.46561 0
M  V30 18567 O 1771.34 -2.02709 5.66739 0
M  V30 18568 H 1775.16 -0.0227663 3.03691 0
M  V30 18569 H 1772.75 0.0545243 1.493 0
M  V30 18570 H 1774.63 -2.44332 3.43336 0
M  V30 18571 H 1773.31 -2.33444 2.24244 0
M  V30 18572 H 1772.21 -0.53498 3.70255 0
M  V30 18573 H 1773.55 -0.723348 4.86856 0
M  V30 18574 N 1775.2 -1.57593 0.0150662 0
M  V30 18575 C 1776.45 -1.90392 -0.66587 0
M  V30 18576 C 1776.76 -0.891694 -1.74092 0
M  V30 18577 O 1777.97 -1.11043 -2.47753 0
M  V30 18578 C 1776.42 -3.38026 -1.23558 0
M  V30 18579 C 1776.03 -4.47577 -0.19455 0
M  V30 18580 C 1777.77 -3.79913 -1.89384 0
M  V30 18581 C 1775.68 -5.86299 -0.7751 0
M  V30 18582 H 1774.61 -0.710474 -0.252473 0
M  V30 18583 H 1777.26 -1.83334 0.0780739 0
M  V30 18584 H 1775.64 -3.3997 -2.03068 0
M  V30 18585 H 1776.82 -4.57172 0.577061 0
M  V30 18586 H 1775.13 -4.14805 0.364134 0
M  V30 18587 H 1777.73 -4.809 -2.3375 0
M  V30 18588 H 1778.07 -3.14225 -2.73072 0
M  V30 18589 H 1778.61 -3.80333 -1.16585 0
M  V30 18590 H 1775.35 -6.55496 0.0233354 0
M  V30 18591 H 1774.87 -5.80338 -1.51552 0
M  V30 18592 H 1776.54 -6.3443 -1.26915 0
M  V30 18593 N 1776.68 0.257904 -1.55475 0
M  V30 18594 C 1777.61 1.32303 -1.92401 0
M  V30 18595 C 1778.59 1.50767 -0.787617 0
M  V30 18596 O 1779.77 1.63559 -1.047 0
M  V30 18597 C 1776.9 2.67984 -2.20912 0
M  V30 18598 C 1775.86 2.64231 -3.36699 0
M  V30 18599 C 1775.18 4.03604 -3.50725 0
M  V30 18600 C 1776.48 2.22177 -4.72689 0
M  V30 18601 H 1778.18 1.01646 -2.81618 0
M  V30 18602 H 1775.72 0.487523 -1.35496 0
M  V30 18603 H 1777.68 3.42622 -2.45332 0
M  V30 18604 H 1776.4 3.00254 -1.2851 0
M  V30 18605 H 1775.06 1.92049 -3.1227 0
M  V30 18606 H 1774.71 4.33122 -2.55763 0
M  V30 18607 H 1774.41 4.01983 -4.28583 0
M  V30 18608 H 1775.93 4.79959 -3.77455 0
M  V30 18609 H 1777.34 2.86543 -4.96554 0
M  V30 18610 H 1775.74 2.3169 -5.5357 0
M  V30 18611 H 1776.81 1.17326 -4.70492 0
M  V30 18612 N 1778.15 1.48666 0.52309 0
M  V30 18613 C 1779.4 1.57034 1.27854 0
M  V30 18614 C 1779.73 0.247256 1.92922 0
M  V30 18615 O 1778.98 -0.763049 1.80211 0
M  V30 18616 C 1779.28 2.66247 2.38426 0
M  V30 18617 C 1778.95 4.08464 1.90965 0
M  V30 18618 C 1777.61 4.47171 1.77739 0
M  V30 18619 C 1779.96 4.97562 1.55184 0
M  V30 18620 C 1777.29 5.72772 1.27077 0
M  V30 18621 C 1779.64 6.23659 1.05982 0
M  V30 18622 C 1778.31 6.61216 0.913782 0
M  V30 18623 H 1777.58 0.574628 0.46785 0
M  V30 18624 H 1780.22 1.82411 0.582961 0
M  V30 18625 H 1778.53 2.34756 3.13682 0
M  V30 18626 H 1780.23 2.69936 2.9654 0
M  V30 18627 H 1776.82 3.779 2.02212 0
M  V30 18628 H 1781 4.6833 1.64259 0
M  V30 18629 H 1776.26 6.0059 1.14464 0
M  V30 18630 H 1780.43 6.92089 0.773684 0
M  V30 18631 H 1778.06 7.58426 0.519021 0
M  V30 18632 N 1779.63 -0.772489 1.37369 0
M  V30 18633 C 1780.58 -1.90713 1.33158 0
M  V30 18634 C 1781.57 -1.67959 0.220482 0
M  V30 18635 O 1782.78 -1.75758 0.388465 0
M  V30 18636 H 1779.16 -0.627149 0.414956 0
M  V30 18637 H 1781.13 -1.91382 2.28944 0
M  V30 18638 C 1779.88 -3.27966 1.1547 0
M  V30 18639 H 1779.2 -3.46052 2.00221 0
M  V30 18640 H 1780.64 -4.0766 1.16574 0
M  V30 18641 C 1779.1 -3.3661 -0.139688 0
M  V30 18642 O 1779.63 -3.85668 -1.12353 0
M  V30 18643 N 1777.83 -2.89977 -0.190134 0
M  V30 18644 H 1777.38 -2.50246 0.611134 0
M  V30 18645 H 1777.34 -2.96142 -1.05582 0
M  V30 18646 N 1781.11 -1.21927 -0.998575 0
M  V30 18647 C 1782.06 -0.981427 -2.10881 0
M  V30 18648 C 1783.05 0.0735277 -1.6924 0
M  V30 18649 O 1784.26 -0.078422 -1.79829 0
M  V30 18650 H 1780.63 -0.300155 -0.6895 0
M  V30 18651 H 1782.6 -1.92367 -2.28117 0
M  V30 18652 C 1781.35 -0.56967 -3.43002 0
M  V30 18653 H 1780.68 -1.37309 -3.75481 0
M  V30 18654 H 1782.12 -0.442618 -4.21683 0
M  V30 18655 C 1780.58 0.720145 -3.29113 0
M  V30 18656 O 1781.11 1.77404 -3.60403 0
M  V30 18657 N 1779.31 0.689122 -2.82311 0
M  V30 18658 H 1778.86 -0.168817 -2.57046 0
M  V30 18659 H 1778.82 1.55241 -2.734 0
M  V30 18660 N 1782.59 1.19452 -1.02805 0
M  V30 18661 C 1783.83 1.89394 -0.725101 0
M  V30 18662 C 1784.17 1.79368 0.744361 0
M  V30 18663 O 1783.44 1.18548 1.54196 0
M  V30 18664 C 1783.73 3.40361 -1.17586 0
M  V30 18665 C 1783.58 3.59263 -2.70648 0
M  V30 18666 C 1784.9 4.33558 -0.756011 0
M  V30 18667 H 1782.02 0.687753 -0.264887 0
M  V30 18668 H 1784.66 1.40611 -1.27783 0
M  V30 18669 H 1782.81 3.82038 -0.70561 0
M  V30 18670 H 1784.48 3.26762 -3.25614 0
M  V30 18671 H 1782.72 3.02344 -3.1108 0
M  V30 18672 H 1783.39 4.65135 -2.97244 0
M  V30 18673 H 1785.87 3.9959 -1.16046 0
M  V30 18674 H 1784.75 5.37779 -1.09931 0
M  V30 18675 H 1785.01 4.40778 0.341677 0
M  V30 18676 N 1784.07 0.805805 1.35442 0
M  V30 18677 C 1785.48 0.489448 1.5191 0
M  V30 18678 C 1785.68 -0.989485 1.75532 0
M  V30 18679 O 1784.74 -1.77453 1.79629 0
M  V30 18680 C 1786.05 1.33413 2.69484 0
M  V30 18681 C 1787.6 1.32949 2.83361 0
M  V30 18682 C 1788.07 2.15827 4.03959 0
M  V30 18683 N 1789.57 2.13359 4.11135 0
M  V30 18684 C 1790.3 2.74245 5.03564 0
M  V30 18685 N 1789.8 3.44055 6.0133 0
M  V30 18686 N 1791.59 2.63891 4.96304 0
M  V30 18687 H 1783.74 1.76361 1.18366 0
M  V30 18688 H 1786 0.750594 0.579062 0
M  V30 18689 H 1785.71 2.38364 2.58603 0
M  V30 18690 H 1785.58 0.986809 3.64063 0
M  V30 18691 H 1787.97 0.287837 2.93693 0
M  V30 18692 H 1788.05 1.71668 1.89641 0
M  V30 18693 H 1787.7 3.20033 3.94388 0
M  V30 18694 H 1787.63 1.74469 4.96858 0
M  V30 18695 H 1790.12 1.62566 3.41146 0
M  V30 18696 H 1790.43 3.87802 6.68453 0
M  V30 18697 H 1788.77 3.48159 6.01507 0
M  V30 18698 H 1791.97 2.08941 4.18881 0
M  V30 18699 H 1792.14 3.11631 5.68146 0
M  V30 18700 N 1785.54 -1.47344 0.559239 0
M  V30 18701 C 1786.79 -2.03352 0.0442371 0
M  V30 18702 C 1787.15 -1.42567 -1.29199 0
M  V30 18703 O 1786.44 -0.572705 -1.8284 0
M  V30 18704 C 1786.63 -3.57247 -0.104523 0
M  V30 18705 C 1786.46 -4.32955 1.21574 0
M  V30 18706 C 1785.23 -4.72775 1.78359 0
M  V30 18707 C 1787.43 -4.67962 2.13345 0
M  V30 18708 N 1785.41 -5.33135 3.04369 0
M  V30 18709 C 1786.78 -5.28646 3.23934 0
M  V30 18710 C 1788.84 -4.49891 2.13314 0
M  V30 18711 C 1787.54 -5.73167 4.34595 0
M  V30 18712 C 1789.57 -4.95412 3.22988 0
M  V30 18713 C 1788.93 -5.56146 4.32297 0
M  V30 18714 H 1785.03 -0.779816 0.0584005 0
M  V30 18715 H 1787.61 -1.79801 0.746976 0
M  V30 18716 H 1785.78 -3.80561 -0.776387 0
M  V30 18717 H 1787.51 -3.99895 -0.621775 0
M  V30 18718 H 1784.27 -4.54794 1.32133 0
M  V30 18719 H 1784.69 -5.67857 3.68602 0
M  V30 18720 H 1789.34 -4.0229 1.30086 0
M  V30 18721 H 1787.05 -6.19757 5.18581 0
M  V30 18722 H 1790.64 -4.83198 3.24054 0
M  V30 18723 H 1789.52 -5.90728 5.15762 0
M  V30 18724 N 1787.02 -0.295795 -1.54799 0
M  V30 18725 C 1787.95 0.575863 -2.26288 0
M  V30 18726 C 1788.93 1.14217 -1.26049 0
M  V30 18727 O 1790.12 1.17248 -1.54812 0
M  V30 18728 C 1787.25 1.7503 -2.9997 0
M  V30 18729 C 1786.2 1.31459 -4.07311 0
M  V30 18730 C 1785.53 2.57377 -4.6868 0
M  V30 18731 C 1786.83 0.449629 -5.20361 0
M  V30 18732 H 1788.52 -0.0203797 -2.99393 0
M  V30 18733 H 1786.07 -0.0112418 -1.43996 0
M  V30 18734 H 1788.02 2.36615 -3.487 0
M  V30 18735 H 1786.75 2.3727 -2.24434 0
M  V30 18736 H 1785.4 0.721829 -3.59423 0
M  V30 18737 H 1785.05 3.1792 -3.89789 0
M  V30 18738 H 1784.75 2.28927 -5.41171 0
M  V30 18739 H 1786.28 3.19774 -5.2017 0
M  V30 18740 H 1787.69 0.971014 -5.65017 0
M  V30 18741 H 1786.09 0.259121 -5.9954 0
M  V30 18742 H 1787.16 -0.526564 -4.82032 0
M  V30 18743 N 1788.5 1.57583 -0.0234236 0
M  V30 18744 C 1789.73 1.96267 0.670371 0
M  V30 18745 C 1790.15 0.899586 1.65194 0
M  V30 18746 O 1789.51 -0.140079 1.80758 0
M  V30 18747 C 1789.56 3.34049 1.35806 0
M  V30 18748 O 1788.66 3.3001 2.4732 0
M  V30 18749 H 1788 0.640097 0.176557 0
M  V30 18750 H 1790.53 2.04429 -0.0835829 0
M  V30 18751 H 1790.54 3.70151 1.71616 0
M  V30 18752 H 1789.22 4.10969 0.63852 0
M  V30 18753 H 1787.79 3.05618 2.13664 0
M  V30 18754 N 1789.98 -0.249655 1.5561 0
M  V30 18755 C 1791.23 -0.975982 1.76515 0
M  V30 18756 C 1791.54 -1.86589 0.586843 0
M  V30 18757 O 1792.75 -2.62876 0.678844 0
M  V30 18758 C 1791.2 -1.7854 3.12492 0
M  V30 18759 C 1790.81 -0.943014 4.37963 0
M  V30 18760 C 1792.56 -2.50462 3.42737 0
M  V30 18761 C 1790.46 -1.74816 5.64972 0
M  V30 18762 H 1789.39 -0.368139 0.65802 0
M  V30 18763 H 1792.04 -0.230745 1.82043 0
M  V30 18764 H 1790.43 -2.57248 3.01064 0
M  V30 18765 H 1791.6 -0.198453 4.60372 0
M  V30 18766 H 1789.91 -0.337249 4.15032 0
M  V30 18767 H 1792.51 -3.1115 4.34845 0
M  V30 18768 H 1792.85 -3.21938 2.63935 0
M  V30 18769 H 1793.39 -1.78767 3.55369 0
M  V30 18770 H 1790.13 -1.07719 6.46589 0
M  V30 18771 H 1789.65 -2.46807 5.46668 0
M  V30 18772 H 1791.33 -2.31599 6.04128 0
M  V30 18773 N 1791.46 -1.48941 -0.515198 0
M  V30 18774 C 1792.39 -1.60665 -1.63461 0
M  V30 18775 C 1793.4 -0.490076 -1.55248 0
M  V30 18776 O 1794.59 -0.761549 -1.61439 0
M  V30 18777 C 1791.69 -1.53414 -3.02187 0
M  V30 18778 C 1790.86 -2.80364 -3.3573 0
M  V30 18779 C 1789.92 -2.66362 -4.53804 0
M  V30 18780 O 1788.95 -3.40276 -4.5629 0
M  V30 18781 N 1790.15 -1.76961 -5.5287 0
M  V30 18782 H 1792.92 -2.57206 -1.53836 0
M  V30 18783 H 1790.48 -1.45851 -0.702786 0
M  V30 18784 H 1792.47 -1.41721 -3.79074 0
M  V30 18785 H 1791.04 -0.647891 -3.05812 0
M  V30 18786 H 1790.26 -3.06513 -2.47878 0
M  V30 18787 H 1791.55 -3.64555 -3.54932 0
M  V30 18788 H 1790.95 -1.16139 -5.5365 0
M  V30 18789 H 1789.5 -1.71198 -6.28915 0
M  V30 18790 N 1792.94 0.765193 -1.37777 0
M  V30 18791 C 1794.16 1.55948 -1.3673 0
M  V30 18792 C 1794.59 1.8805 0.0435817 0
M  V30 18793 O 1793.94 1.49718 1.02246 0
M  V30 18794 C 1793.99 2.84245 -2.21895 0
M  V30 18795 O 1793.1 3.78903 -1.62807 0
M  V30 18796 H 1792.44 0.472127 -0.466897 0
M  V30 18797 H 1794.97 0.946556 -1.81388 0
M  V30 18798 H 1794.98 3.33284 -2.35342 0
M  V30 18799 H 1793.65 2.60209 -3.24444 0
M  V30 18800 H 1792.23 3.37568 -1.58437 0
M  V30 18801 N 1794.41 1.22455 0.992094 0
M  V30 18802 C 1795.36 0.99534 2.08235 0
M  V30 18803 C 1796.33 -0.0832064 1.65891 0
M  V30 18804 O 1797.52 0.0665468 1.90684 0
M  V30 18805 C 1794.66 0.580055 3.4019 0
M  V30 18806 C 1793.77 1.72946 3.95871 0
M  V30 18807 C 1792.9 1.26208 5.15989 0
M  V30 18808 C 1791.94 2.38298 5.63809 0
M  V30 18809 N 1791.08 1.92602 6.75166 0
M  V30 18810 H 1795.92 1.92861 2.27175 0
M  V30 18811 H 1793.46 0.960948 1.11374 0
M  V30 18812 H 1795.41 0.320448 4.15968 0
M  V30 18813 H 1794.04 -0.316208 3.21248 0
M  V30 18814 H 1793.1 2.10337 3.16958 0
M  V30 18815 H 1794.41 2.57257 4.27341 0
M  V30 18816 H 1793.56 0.959904 5.99058 0
M  V30 18817 H 1792.3 0.389184 4.86145 0
M  V30 18818 H 1791.31 2.69304 4.79328 0
M  V30 18819 H 1792.53 3.26105 5.95678 0
M  V30 18820 H 1790.48 1.07675 6.47103 0
M  V30 18821 H 1790.39 2.70478 7.05959 0
M  V30 18822 H 1791.66 1.65455 7.61738 0
M  V30 18823 N 1795.89 -1.18905 1.03437 0
M  V30 18824 C 1797.31 -1.4075 0.752444 0
M  V30 18825 C 1797.51 -1.90361 -0.660679 0
M  V30 18826 O 1796.56 -2.08389 -1.42584 0
M  V30 18827 C 1797.88 -2.4138 1.79321 0
M  V30 18828 C 1799.42 -2.55118 1.81339 0
M  V30 18829 C 1799.9 -3.59007 2.8439 0
M  V30 18830 N 1801.39 -3.66508 2.83242 0
M  V30 18831 C 1802.13 -4.46602 3.59631 0
M  V30 18832 N 1801.62 -5.30355 4.45753 0
M  V30 18833 N 1803.41 -4.41304 3.48148 0
M  V30 18834 H 1795.57 -0.850259 1.94639 0
M  V30 18835 H 1797.83 -0.435962 0.841808 0
M  V30 18836 H 1797.53 -2.11963 2.80651 0
M  V30 18837 H 1797.41 -3.40636 1.62008 0
M  V30 18838 H 1799.8 -2.83856 0.806847 0
M  V30 18839 H 1799.88 -1.55996 2.02728 0
M  V30 18840 H 1799.52 -3.31011 3.8522 0
M  V30 18841 H 1799.45 -4.57792 2.60258 0
M  V30 18842 H 1801.94 -3.06697 2.20784 0
M  V30 18843 H 1802.25 -5.88603 5.00766 0
M  V30 18844 H 1800.6 -5.29797 4.49823 0
M  V30 18845 H 1803.79 -3.74918 2.80275 0
M  V30 18846 H 1803.96 -5.03483 4.07932 0
M  V30 18847 N 1797.37 -0.812977 -1.35013 0
M  V30 18848 C 1798.62 -0.396345 -1.98583 0
M  V30 18849 C 1798.94 1.0381 -1.6448 0
M  V30 18850 O 1798.2 1.73604 -0.903344 0
M  V30 18851 C 1798.5 -0.534083 -3.53387 0
M  V30 18852 C 1798.16 -1.93278 -4.07375 0
M  V30 18853 C 1796.83 -2.31543 -4.21831 0
M  V30 18854 C 1799.18 -2.84756 -4.36535 0
M  V30 18855 C 1796.51 -3.60641 -4.62769 0
M  V30 18856 C 1798.86 -4.13308 -4.78915 0
M  V30 18857 C 1797.52 -4.51563 -4.91576 0
M  V30 18858 H 1796.79 -0.145033 -0.726668 0
M  V30 18859 H 1799.44 -1.035 -1.61121 0
M  V30 18860 H 1797.74 0.188002 -3.91349 0
M  V30 18861 H 1799.44 -0.192396 -4.00538 0
M  V30 18862 H 1796.03 -1.62551 -3.96579 0
M  V30 18863 H 1800.22 -2.56441 -4.24914 0
M  V30 18864 H 1795.47 -3.9012 -4.70761 0
M  V30 18865 H 1799.65 -4.84287 -5.00439 0
M  V30 18866 H 1797.27 -5.51649 -5.23056 0
M  V30 18867 N 1798.85 1.47045 -0.567045 0
M  V30 18868 C 1799.81 2.28607 0.164758 0
M  V30 18869 C 1800.81 1.37509 0.833542 0
M  V30 18870 O 1802 1.60043 0.687895 0
M  V30 18871 C 1799.13 3.17466 1.24211 0
M  V30 18872 H 1800.33 2.9478 -0.551814 0
M  V30 18873 H 1797.88 1.52897 -0.324376 0
M  V30 18874 H 1798.61 2.56006 1.99076 0
M  V30 18875 H 1798.4 3.8452 0.767243 0
M  V30 18876 H 1799.89 3.78894 1.75582 0
M  V30 18877 N 1800.33 0.304 1.5464 0
M  V30 18878 C 1801.74 -0.188042 1.85751 0
M  V30 18879 C 1802.09 -1.53186 1.22591 0
M  V30 18880 O 1801.21 -2.09943 0.524696 0
M  V30 18881 C 1801.81 -0.347976 3.37008 0
M  V30 18882 C 1800.37 -0.784238 3.68139 0
M  V30 18883 C 1799.51 0.105654 2.77099 0
M  V30 18884 H 1802.46 0.524918 1.49767 0
M  V30 18885 H 1802.49 -1.18207 3.61673 0
M  V30 18886 H 1802 0.630227 3.82949 0
M  V30 18887 H 1800.1 -1.77288 3.27719 0
M  V30 18888 H 1800.21 -0.601546 4.75309 0
M  V30 18889 H 1798.58 -0.415561 2.51287 0
M  V30 18890 H 1799.36 1.08027 3.25861 0
M  V30 18891 N 1801.8 -1.57568 0.0317802 0
M  V30 18892 C 1802.73 -2.13412 -0.947499 0
M  V30 18893 C 1803.71 -1.05091 -1.33753 0
M  V30 18894 O 1804.9 -1.32936 -1.41568 0
M  V30 18895 C 1802.03 -2.66337 -2.22895 0
M  V30 18896 C 1800.98 -3.79469 -1.97958 0
M  V30 18897 C 1800.31 -4.18833 -3.3239 0
M  V30 18898 C 1801.61 -5.05432 -1.31664 0
M  V30 18899 H 1803.3 -2.95488 -0.482417 0
M  V30 18900 H 1800.85 -1.42142 -0.230603 0
M  V30 18901 H 1802.8 -3.04039 -2.91784 0
M  V30 18902 H 1801.53 -1.81426 -2.71574 0
M  V30 18903 H 1800.19 -3.42209 -1.31485 0
M  V30 18904 H 1799.83 -3.30899 -3.78833 0
M  V30 18905 H 1799.53 -4.95071 -3.16511 0
M  V30 18906 H 1801.06 -4.5912 -4.02544 0
M  V30 18907 H 1802.47 -5.40704 -1.90558 0
M  V30 18908 H 1800.87 -5.86686 -1.26173 0
M  V30 18909 H 1801.94 -4.84032 -0.28996 0
M  V30 18910 N 1803.28 0.241399 -1.5574 0
M  V30 18911 C 1804.51 0.984645 -1.81627 0
M  V30 18912 C 1804.92 1.79234 -0.605959 0
M  V30 18913 O 1804.26 1.78479 0.434841 0
M  V30 18914 C 1804.33 1.96647 -3.00949 0
M  V30 18915 C 1803.99 1.34519 -4.36754 0
M  V30 18916 C 1804.99 0.744925 -5.14536 0
M  V30 18917 C 1802.67 1.3629 -4.83457 0
M  V30 18918 C 1804.67 0.170657 -6.37171 0
M  V30 18919 C 1802.35 0.784784 -6.0604 0
M  V30 18920 C 1803.35 0.189694 -6.82737 0
M  V30 18921 O 1803.04 -0.379483 -8.03004 0
M  V30 18922 H 1802.77 0.295118 -0.608179 0
M  V30 18923 H 1805.32 0.267851 -2.03646 0
M  V30 18924 H 1803.55 2.72172 -2.74699 0
M  V30 18925 H 1805.24 2.5736 -3.1388 0
M  V30 18926 H 1806.01 0.723706 -4.7957 0
M  V30 18927 H 1801.89 1.81548 -4.23747 0
M  V30 18928 H 1805.43 -0.294459 -6.96978 0
M  V30 18929 H 1801.33 0.803348 -6.40482 0
M  V30 18930 H 1802.1 -0.271879 -8.18048 0
M  V30 18931 N 1804.76 1.49212 0.507292 0
M  V30 18932 C 1805.72 1.64908 1.59179 0
M  V30 18933 C 1806.72 0.521176 1.5212 0
M  V30 18934 O 1807.91 0.787492 1.55384 0
M  V30 18935 C 1805.05 1.64057 2.98828 0
M  V30 18936 H 1806.24 2.6163 1.46593 0
M  V30 18937 H 1803.79 1.38149 0.731062 0
M  V30 18938 H 1804.53 0.688956 3.16897 0
M  V30 18939 H 1804.31 2.45963 3.0536 0
M  V30 18940 H 1805.8 1.78279 3.77633 0
M  V30 18941 N 1806.24 -0.757876 1.38181 0
M  V30 18942 C 1807.48 -1.51912 1.34352 0
M  V30 18943 C 1807.82 -1.94082 -0.0677003 0
M  V30 18944 O 1807.09 -1.65114 -1.02799 0
M  V30 18945 C 1807.38 -2.77466 2.29531 0
M  V30 18946 C 1807.23 -2.41462 3.79495 0
M  V30 18947 C 1808.55 -3.79469 2.22915 0
M  V30 18948 H 1805.67 -0.551091 0.489355 0
M  V30 18949 H 1808.31 -0.868376 1.68995 0
M  V30 18950 H 1806.46 -3.32994 2.00119 0
M  V30 18951 H 1808.13 -1.91742 4.19562 0
M  V30 18952 H 1806.37 -1.73976 3.97385 0
M  V30 18953 H 1807.04 -3.31272 4.41546 0
M  V30 18954 H 1809.52 -3.33471 2.48871 0
M  V30 18955 H 1808.4 -4.6502 2.91629 0
M  V30 18956 H 1808.66 -4.24744 1.22658 0
M  V30 18957 N 1807.72 -1.22979 -0.985586 0
M  V30 18958 C 1808.63 -1.02294 -2.11124 0
M  V30 18959 C 1809.64 0.030991 -1.73972 0
M  V30 18960 O 1810.82 -0.163333 -2.00737 0
M  V30 18961 C 1807.88 -0.611102 -3.41272 0
M  V30 18962 C 1806.94 -1.73949 -3.9248 0
M  V30 18963 C 1806.18 -1.34721 -5.16417 0
M  V30 18964 O 1806.4 -0.229171 -5.69939 0
M  V30 18965 O 1805.33 -2.16639 -5.61561 0
M  V30 18966 H 1809.16 -1.9662 -2.31461 0
M  V30 18967 H 1806.75 -1.01639 -1.09499 0
M  V30 18968 H 1808.63 -0.392127 -4.19572 0
M  V30 18969 H 1807.3 0.303224 -3.22277 0
M  V30 18970 H 1806.21 -2.01305 -3.1532 0
M  V30 18971 H 1807.54 -2.63194 -4.1592 0
M  V30 18972 N 1809.19 1.18355 -1.04066 0
M  V30 18973 C 1810.16 2.20195 -0.636148 0
M  V30 18974 C 1811.16 1.57853 0.306457 0
M  V30 18975 O 1812.35 1.73958 0.0918576 0
M  V30 18976 C 1809.48 3.40833 0.0673423 0
M  V30 18977 H 1810.67 2.57497 -1.53738 0
M  V30 18978 H 1808.23 1.32239 -0.833214 0
M  V30 18979 H 1808.96 3.09063 0.982371 0
M  V30 18980 H 1808.75 3.87324 -0.610145 0
M  V30 18981 H 1810.24 4.16239 0.336869 0
M  V30 18982 N 1810.67 0.820125 1.3458 0
M  V30 18983 C 1811.62 0.237994 2.2957 0
M  V30 18984 C 1812.59 -0.635637 1.53456 0
M  V30 18985 O 1813.77 -0.57787 1.81839 0
M  V30 18986 C 1810.91 -0.596426 3.39907 0
M  V30 18987 C 1810.03 0.29914 4.30963 0
M  V30 18988 C 1809.16 -0.54458 5.28401 0
M  V30 18989 C 1808.2 0.350546 6.11095 0
M  V30 18990 N 1807.34 -0.453936 7.00631 0
M  V30 18991 H 1812.18 1.0534 2.7876 0
M  V30 18992 H 1809.72 0.530977 1.37183 0
M  V30 18993 H 1811.67 -1.0955 4.0256 0
M  V30 18994 H 1810.3 -1.37697 2.91958 0
M  V30 18995 H 1809.36 0.916412 3.69196 0
M  V30 18996 H 1810.67 0.987544 4.88926 0
M  V30 18997 H 1809.82 -1.10825 5.96492 0
M  V30 18998 H 1808.56 -1.2665 4.70968 0
M  V30 18999 H 1807.57 0.926375 5.41939 0
M  V30 19000 H 1808.79 1.07054 6.70609 0
M  V30 19001 H 1806.74 -1.15958 6.4567 0
M  V30 19002 H 1806.65 0.176138 7.55795 0
M  V30 19003 H 1807.92 -1.00044 7.73053 0
M  V30 19004 N 1812.15 -1.46743 0.574835 0
M  V30 19005 C 1813.57 -1.57847 0.23591 0
M  V30 19006 C 1813.77 -1.57105 -1.26175 0
M  V30 19007 O 1812.82 -1.48382 -2.04301 0
M  V30 19008 C 1814.14 -2.87591 0.878158 0
M  V30 19009 C 1815.68 -3.01209 0.851018 0
M  V30 19010 C 1816.16 -4.33678 1.47266 0
M  V30 19011 N 1817.65 -4.40358 1.43664 0
M  V30 19012 C 1818.38 -5.41458 1.8871 0
M  V30 19013 N 1817.88 -6.49274 2.41692 0
M  V30 19014 N 1819.67 -5.3261 1.79674 0
M  V30 19015 H 1811.82 -1.45469 1.54766 0
M  V30 19016 H 1814.09 -0.69341 0.646441 0
M  V30 19017 H 1813.79 -2.93922 1.93139 0
M  V30 19018 H 1813.67 -3.75264 0.381665 0
M  V30 19019 H 1816.05 -2.94464 -0.193573 0
M  V30 19020 H 1816.14 -2.15032 1.38545 0
M  V30 19021 H 1815.78 -4.41179 2.51641 0
M  V30 19022 H 1815.71 -5.18616 0.913519 0
M  V30 19023 H 1818.2 -3.63041 1.04928 0
M  V30 19024 H 1818.51 -7.22617 2.73942 0
M  V30 19025 H 1816.86 -6.50115 2.45713 0
M  V30 19026 H 1820.05 -4.47282 1.38045 0
M  V30 19027 H 1820.22 -6.11259 2.15096 0
M  V30 19028 N 1813.63 -0.312197 -1.54477 0
M  V30 19029 C 1814.88 0.294607 -1.99537 0
M  V30 19030 C 1815.19 1.54137 -1.20421 0
M  V30 19031 O 1816.4 2.22346 -1.55803 0
M  V30 19032 C 1814.85 0.57547 -3.55269 0
M  V30 19033 C 1814.46 -0.653591 -4.43207 0
M  V30 19034 C 1816.2 1.14285 -4.08827 0
M  V30 19035 C 1814.11 -0.345261 -5.90391 0
M  V30 19036 H 1813.04 0.113859 -0.745354 0
M  V30 19037 H 1815.69 -0.42265 -1.78566 0
M  V30 19038 H 1814.07 1.35262 -3.72183 0
M  V30 19039 H 1815.25 -1.42945 -4.38068 0
M  V30 19040 H 1813.56 -1.14039 -4.0048 0
M  V30 19041 H 1816.16 1.38797 -5.16371 0
M  V30 19042 H 1816.5 2.08866 -3.60112 0
M  V30 19043 H 1817.04 0.427154 -3.955 0
M  V30 19044 H 1813.78 -1.25994 -6.43277 0
M  V30 19045 H 1813.3 0.393106 -5.9851 0
M  V30 19046 H 1814.97 0.0490847 -6.46981 0
M  V30 19047 N 1815.11 1.57549 -0.040136 0
M  V30 19048 C 1816.04 2.07803 0.966975 0
M  V30 19049 C 1817.05 1.00363 1.28184 0
M  V30 19050 O 1818.24 1.27957 1.24456 0
M  V30 19051 C 1815.34 2.49688 2.29149 0
M  V30 19052 C 1814.51 3.80336 2.16017 0
M  V30 19053 C 1813.57 4.08652 3.31497 0
M  V30 19054 O 1812.6 4.78739 3.07892 0
M  V30 19055 N 1813.8 3.59693 4.55633 0
M  V30 19056 H 1816.57 2.94829 0.538115 0
M  V30 19057 H 1814.13 1.61237 0.146368 0
M  V30 19058 H 1816.12 2.65715 3.0525 0
M  V30 19059 H 1814.69 1.67969 2.63638 0
M  V30 19060 H 1813.91 3.73998 1.24575 0
M  V30 19061 H 1815.2 4.65912 2.04458 0
M  V30 19062 H 1814.59 3.03012 4.77703 0
M  V30 19063 H 1813.15 3.80978 5.28866 0
M  V30 19064 N 1816.58 -0.233136 1.55866 0
M  V30 19065 C 1817.53 -1.28882 1.91463 0
M  V30 19066 C 1818.5 -1.47151 0.770435 0
M  V30 19067 O 1819.69 -1.6091 1.02531 0
M  V30 19068 C 1816.83 -2.63653 2.22668 0
M  V30 19069 C 1815.94 -2.53278 3.49963 0
M  V30 19070 C 1815.07 -3.80494 3.70672 0
M  V30 19071 C 1814.11 -3.64794 4.9152 0
M  V30 19072 N 1813.25 -4.83933 5.08678 0
M  V30 19073 H 1818.09 -0.978251 2.81486 0
M  V30 19074 H 1815.63 -0.471757 1.3933 0
M  V30 19075 H 1817.59 -3.42119 2.38769 0
M  V30 19076 H 1816.22 -2.9283 1.35833 0
M  V30 19077 H 1815.27 -1.66308 3.4212 0
M  V30 19078 H 1816.58 -2.37592 4.38579 0
M  V30 19079 H 1815.73 -4.67404 3.86806 0
M  V30 19080 H 1814.47 -3.99092 2.80315 0
M  V30 19081 H 1813.48 -2.76268 4.75348 0
M  V30 19082 H 1814.7 -3.47677 5.8335 0
M  V30 19083 H 1812.65 -5.02866 4.21262 0
M  V30 19084 H 1812.57 -4.7093 5.91406 0
M  V30 19085 H 1813.83 -5.72302 5.29236 0
M  V30 19086 N 1818.06 -1.49479 -0.499372 0
M  V30 19087 C 1818.99 -1.69182 -1.60934 0
M  V30 19088 C 1819.97 -0.54053 -1.61283 0
M  V30 19089 O 1821.16 -0.776554 -1.77998 0
M  V30 19090 C 1818.29 -1.75985 -2.99411 0
M  V30 19091 C 1817.24 -2.9092 -3.13926 0
M  V30 19092 C 1816.57 -2.82837 -4.5377 0
M  V30 19093 C 1817.87 -4.31833 -2.93799 0
M  V30 19094 H 1819.56 -2.62112 -1.44699 0
M  V30 19095 H 1817.11 -1.26135 -0.694688 0
M  V30 19096 H 1819.06 -1.88354 -3.76962 0
M  V30 19097 H 1817.79 -0.796557 -3.16737 0
M  V30 19098 H 1816.45 -2.78155 -2.388 0
M  V30 19099 H 1816.09 -1.84412 -4.67976 0
M  V30 19100 H 1815.79 -3.59979 -4.64423 0
M  V30 19101 H 1817.32 -2.97217 -5.3338 0
M  V30 19102 H 1818.73 -4.45271 -3.61119 0
M  V30 19103 H 1817.13 -5.10209 -3.15922 0
M  V30 19104 H 1818.2 -4.46165 -1.89908 0
M  V30 19105 N 1819.54 0.750537 -1.38581 0
M  V30 19106 C 1820.45 1.89503 -1.38296 0
M  V30 19107 C 1821.47 1.71738 -0.279678 0
M  V30 19108 O 1822.64 1.94608 -0.518607 0
M  V30 19109 C 1819.71 3.24909 -1.20976 0
M  V30 19110 C 1818.77 3.55178 -2.41136 0
M  V30 19111 C 1818 4.84124 -2.24633 0
M  V30 19112 O 1818.23 5.56722 -1.24164 0
M  V30 19113 O 1817.16 5.1394 -3.13288 0
M  V30 19114 H 1820.99 1.92698 -2.34737 0
M  V30 19115 H 1818.57 0.896233 -1.19533 0
M  V30 19116 H 1820.45 4.05858 -1.13389 0
M  V30 19117 H 1819.13 3.22519 -0.276217 0
M  V30 19118 H 1818.03 2.74378 -2.54298 0
M  V30 19119 H 1819.37 3.62332 -3.33131 0
M  V30 19120 N 1821.02 1.235 0.979051 0
M  V30 19121 C 1821.97 0.984512 2.05649 0
M  V30 19122 C 1822.95 -0.0699833 1.60748 0
M  V30 19123 O 1824.15 0.142316 1.76427 0
M  V30 19124 C 1821.27 0.579082 3.38381 0
M  V30 19125 C 1820.36 1.66905 3.89876 0
M  V30 19126 N 1820.75 2.8996 4.14436 0
M  V30 19127 C 1819.05 1.54394 4.18424 0
M  V30 19128 C 1819.75 3.60539 4.56493 0
M  V30 19129 N 1818.73 2.88058 4.61003 0
M  V30 19130 H 1822.53 1.91906 2.22597 0
M  V30 19131 H 1820.04 1.13459 1.16193 0
M  V30 19132 H 1822.04 0.380896 4.15156 0
M  V30 19133 H 1820.7 -0.348408 3.22825 0
M  V30 19134 H 1821.71 3.26252 4.02219 0
M  V30 19135 H 1818.39 0.683659 4.11864 0
M  V30 19136 H 1819.78 4.66038 4.84002 0
M  V30 19137 N 1822.5 -1.17802 1.04693 0
M  V30 19138 C 1823.73 -1.91867 0.774246 0
M  V30 19139 C 1824.14 -1.76534 -0.669425 0
M  V30 19140 O 1823.5 -1.09915 -1.45688 0
M  V30 19141 C 1823.55 -3.43086 1.13904 0
M  V30 19142 O 1823.27 -3.57943 2.52604 0
M  V30 19143 C 1824.77 -4.34238 0.891767 0
M  V30 19144 H 1821.99 -0.60892 0.281882 0
M  V30 19145 H 1824.53 -1.49414 1.39627 0
M  V30 19146 H 1822.69 -3.83304 0.561863 0
M  V30 19147 H 1823.1 -4.51599 2.66756 0
M  V30 19148 H 1824.58 -5.3887 1.1968 0
M  V30 19149 H 1825.05 -4.38858 -0.17323 0
M  V30 19150 H 1825.66 -3.99727 1.45254 0
M  V30 19151 N 1823.98 -0.827251 -1.34143 0
M  V30 19152 C 1825.22 -0.413762 -1.9741 0
M  V30 19153 C 1825.54 1.0297 -1.66303 0
M  V30 19154 O 1826.74 1.5473 -2.23094 0
M  V30 19155 C 1825.2 -0.688904 -3.53245 0
M  V30 19156 C 1824.81 -2.14627 -3.93242 0
M  V30 19157 C 1826.55 -0.341794 -4.23122 0
M  V30 19158 C 1824.46 -2.36607 -5.42006 0
M  V30 19159 H 1823.39 -0.150982 -0.738729 0
M  V30 19160 H 1826.04 -1.01421 -1.52925 0
M  V30 19161 H 1824.42 -0.0182319 -3.95996 0
M  V30 19162 H 1825.6 -2.85646 -3.61584 0
M  V30 19163 H 1823.91 -2.45523 -3.36314 0
M  V30 19164 H 1826.51 -0.483797 -5.32507 0
M  V30 19165 H 1826.85 0.714135 -4.10129 0
M  V30 19166 H 1827.38 -0.96722 -3.85862 0
M  V30 19167 H 1824.12 -3.40722 -5.5999 0
M  V30 19168 H 1823.64 -1.70137 -5.75164 0
M  V30 19169 H 1825.32 -2.19181 -6.08744 0
M  V30 19170 N 1825.45 1.46436 -0.582609 0
M  V30 19171 C 1826.4 2.32025 0.163475 0
M  V30 19172 C 1827.4 1.44476 0.884478 0
M  V30 19173 O 1828.6 1.61102 0.802878 0
M  V30 19174 H 1824.98 0.748585 0.0715868 0
M  V30 19175 H 1826.95 2.92764 -0.577205 0
M  V30 19176 C 1825.7 3.2764 1.16392 0
M  V30 19177 H 1825.02 3.94986 0.618553 0
M  V30 19178 H 1826.46 3.90308 1.65636 0
M  V30 19179 C 1824.92 2.52986 2.22486 0
M  V30 19180 O 1825.45 2.29283 3.29837 0
M  V30 19181 N 1823.65 2.1355 1.97091 0
M  V30 19182 H 1823.2 2.33027 1.09801 0
M  V30 19183 H 1823.16 1.63919 2.68287 0
M  V30 19184 N 1826.93 0.320385 1.54309 0
M  V30 19185 C 1827.88 -0.562569 2.25694 0
M  V30 19186 C 1828.87 -1.12117 1.26988 0
M  V30 19187 O 1830.08 -1.06958 1.44776 0
M  V30 19188 H 1826.45 -0.200063 0.724899 0
M  V30 19189 H 1828.43 0.0618142 2.98336 0
M  V30 19190 C 1827.17 -1.7134 3.02552 0
M  V30 19191 H 1826.5 -1.29281 3.7832 0
M  V30 19192 H 1827.94 -2.30687 3.55752 0
M  V30 19193 C 1826.4 -2.62912 2.10663 0
M  V30 19194 O 1826.93 -3.64541 1.68739 0
M  V30 19195 N 1825.13 -2.31076 1.76217 0
M  V30 19196 H 1824.68 -1.48474 2.10507 0
M  V30 19197 H 1824.64 -2.92608 1.15014 0
M  V30 19198 N 1828.41 -1.57525 0.0484906 0
M  V30 19199 C 1829.64 -1.96611 -0.634631 0
M  V30 19200 C 1830.05 -0.924571 -1.65071 0
M  V30 19201 O 1829.39 0.0999398 -1.83428 0
M  V30 19202 C 1829.45 -3.31924 -1.38082 0
M  V30 19203 C 1829.12 -4.54022 -0.520883 0
M  V30 19204 C 1830.11 -5.19468 0.21192 0
M  V30 19205 C 1827.8 -5.00257 -0.452595 0
M  V30 19206 C 1829.79 -6.29483 1.00148 0
M  V30 19207 C 1827.48 -6.1015 0.340652 0
M  V30 19208 C 1828.48 -6.74624 1.06638 0
M  V30 19209 O 1828.17 -7.82404 1.84659 0
M  V30 19210 H 1827.9 -0.652007 -0.178503 0
M  V30 19211 H 1830.45 -2.05103 0.110397 0
M  V30 19212 H 1828.68 -3.19979 -2.17142 0
M  V30 19213 H 1830.37 -3.55777 -1.95392 0
M  V30 19214 H 1831.14 -4.84707 0.168615 0
M  V30 19215 H 1827.02 -4.49866 -1.00706 0
M  V30 19216 H 1830.56 -6.79739 1.56844 0
M  V30 19217 H 1826.46 -6.44347 0.385605 0
M  V30 19218 H 1827.22 -7.99168 1.76842 0
M  V30 19219 N 1829.89 0.224867 -1.55988 0
M  V30 19220 C 1831.14 0.947776 -1.78045 0
M  V30 19221 C 1831.45 1.85632 -0.616454 0
M  V30 19222 O 1832.66 2.61763 -0.720579 0
M  V30 19223 C 1831.11 1.73546 -3.15293 0
M  V30 19224 C 1830.72 0.873219 -4.39407 0
M  V30 19225 C 1832.46 2.44978 -3.46679 0
M  V30 19226 C 1830.37 1.65806 -5.67682 0
M  V30 19227 H 1829.3 0.357623 -0.663793 0
M  V30 19228 H 1831.95 0.201754 -1.82388 0
M  V30 19229 H 1830.33 2.52426 -3.05118 0
M  V30 19230 H 1831.51 0.125187 -4.6063 0
M  V30 19231 H 1829.82 0.271179 -4.15516 0
M  V30 19232 H 1832.42 3.04192 -4.3974 0
M  V30 19233 H 1832.76 3.17699 -2.69023 0
M  V30 19234 H 1833.3 1.7309 -3.58168 0
M  V30 19235 H 1830.03 0.974191 -6.4822 0
M  V30 19236 H 1829.55 2.38079 -5.50526 0
M  V30 19237 H 1831.23 2.21959 -6.07736 0
M  V30 19238 N 1831.37 1.49742 0.491438 0
M  V30 19239 C 1832.3 1.63245 1.60884 0
M  V30 19240 C 1833.31 0.514713 1.54449 0
M  V30 19241 O 1834.5 0.787136 1.60207 0
M  V30 19242 C 1831.6 1.58202 2.99709 0
M  V30 19243 C 1830.77 2.8567 3.31227 0
M  V30 19244 C 1829.83 2.73548 4.49509 0
M  V30 19245 O 1828.86 3.47492 4.50819 0
M  V30 19246 N 1830.06 1.85734 5.49985 0
M  V30 19247 H 1832.82 2.5962 1.49724 0
M  V30 19248 H 1830.39 1.46951 0.679494 0
M  V30 19249 H 1832.38 1.47734 3.76771 0
M  V30 19250 H 1830.95 0.696461 3.04743 0
M  V30 19251 H 1830.17 3.10418 2.4297 0
M  V30 19252 H 1831.46 3.70156 3.49088 0
M  V30 19253 H 1830.85 1.24933 5.51732 0
M  V30 19254 H 1829.41 1.81182 6.26112 0
M  V30 19255 N 1832.84 -0.743177 1.38977 0
M  V30 19256 C 1834.09 -1.50256 1.35755 0
M  V30 19257 C 1834.42 -1.94438 -0.0491287 0
M  V30 19258 O 1833.67 -1.66505 -1.02834 0
M  V30 19259 C 1833.97 -2.76157 2.26874 0
M  V30 19260 C 1833.64 -2.50885 3.74657 0
M  V30 19261 C 1832.3 -2.43702 4.14925 0
M  V30 19262 C 1834.65 -2.29075 4.6816 0
M  V30 19263 C 1831.98 -2.12738 5.46772 0
M  V30 19264 C 1834.33 -1.9963 6.00275 0
M  V30 19265 C 1833 -1.9091 6.39617 0
M  V30 19266 H 1832.27 -0.549827 0.496761 0
M  V30 19267 H 1834.91 -0.85369 1.71419 0
M  V30 19268 H 1833.22 -3.45746 1.84301 0
M  V30 19269 H 1834.92 -3.34155 2.21679 0
M  V30 19270 H 1831.51 -2.57351 3.42737 0
M  V30 19271 H 1835.69 -2.33597 4.37888 0
M  V30 19272 H 1830.95 -2.04504 5.76184 0
M  V30 19273 H 1835.12 -1.8176 6.72262 0
M  V30 19274 H 1832.75 -1.66683 7.41701 0
M  V30 19275 N 1834.32 -1.24018 -0.972487 0
M  V30 19276 C 1835.27 -1.02834 -2.06625 0
M  V30 19277 C 1836.24 0.056804 -1.66003 0
M  V30 19278 O 1837.42 -0.0968745 -1.90554 0
M  V30 19279 C 1834.56 -0.634103 -3.39224 0
M  V30 19280 C 1833.68 -1.79222 -3.93069 0
M  V30 19281 C 1832.81 -1.34401 -5.13916 0
M  V30 19282 C 1831.85 -2.47238 -5.59946 0
M  V30 19283 N 1830.99 -2.03319 -6.72016 0
M  V30 19284 H 1835.83 -1.96451 -2.24078 0
M  V30 19285 H 1833.37 -0.978545 -1.09831 0
M  V30 19286 H 1835.32 -0.386584 -4.15405 0
M  V30 19287 H 1833.95 0.26506 -3.2171 0
M  V30 19288 H 1833.01 -2.15353 -3.13572 0
M  V30 19289 H 1834.32 -2.64023 -4.23194 0
M  V30 19290 H 1833.47 -1.05509 -5.97455 0
M  V30 19291 H 1832.21 -0.466476 -4.85464 0
M  V30 19292 H 1831.22 -2.76895 -4.74983 0
M  V30 19293 H 1832.44 -3.35541 -5.90415 0
M  V30 19294 H 1830.39 -1.17956 -6.45308 0
M  V30 19295 H 1830.3 -2.81675 -7.01566 0
M  V30 19296 H 1831.57 -1.77553 -7.59009 0
M  V30 19297 N 1835.8 1.17245 -1.05316 0
M  V30 19298 C 1837.03 1.91995 -0.784387 0
M  V30 19299 C 1837.45 1.76362 0.65408 0
M  V30 19300 O 1836.81 1.0822 1.45458 0
M  V30 19301 C 1836.86 3.41043 -1.1714 0
M  V30 19302 O 1835.96 4.11276 -0.304285 0
M  V30 19303 H 1835.3 0.598516 -0.287532 0
M  V30 19304 H 1837.83 1.48604 -1.40634 0
M  V30 19305 H 1837.84 3.91788 -1.13871 0
M  V30 19306 H 1836.52 3.51742 -2.21924 0
M  V30 19307 H 1835.09 3.70773 -0.39769 0
M  V30 19308 N 1837.28 0.834353 1.33702 0
M  V30 19309 C 1838.23 0.26233 2.29304 0
M  V30 19310 C 1839.2 -0.619326 1.54122 0
M  V30 19311 O 1840.38 -0.558551 1.82441 0
M  V30 19312 C 1837.52 -0.560341 3.4052 0
M  V30 19313 C 1836.63 0.344832 4.30622 0
M  V30 19314 C 1835.77 -0.488505 5.28949 0
M  V30 19315 C 1834.81 0.415341 6.10689 0
M  V30 19316 N 1833.94 -0.3796 7.01073 0
M  V30 19317 H 1838.78 1.08291 2.77628 0
M  V30 19318 H 1836.32 0.545497 1.36612 0
M  V30 19319 H 1838.28 -1.05274 4.03699 0
M  V30 19320 H 1836.91 -1.34593 2.93402 0
M  V30 19321 H 1835.96 0.955519 3.68204 0
M  V30 19322 H 1837.27 1.03935 4.87851 0
M  V30 19323 H 1836.43 -1.04492 5.97634 0
M  V30 19324 H 1835.17 -1.21648 4.72285 0
M  V30 19325 H 1834.17 0.983803 5.40926 0
M  V30 19326 H 1835.4 1.1416 6.69436 0
M  V30 19327 H 1833.34 -1.09103 6.46864 0
M  V30 19328 H 1833.26 0.25629 7.55565 0
M  V30 19329 H 1834.53 -0.918394 7.74071 0
M  V30 19330 N 1838.76 -1.46125 0.590367 0
M  V30 19331 C 1839.71 -2.27441 -0.159552 0
M  V30 19332 C 1840.69 -1.3632 -0.854728 0
M  V30 19333 O 1841.88 -1.60439 -0.74756 0
M  V30 19334 C 1839.01 -3.22834 -1.16761 0
M  V30 19335 C 1838.1 -4.21441 -0.474153 0
M  V30 19336 N 1838.49 -5.03569 0.474569 0
M  V30 19337 C 1836.79 -4.40086 -0.723925 0
M  V30 19338 C 1837.49 -5.74996 0.880574 0
M  V30 19339 N 1836.46 -5.43121 0.228047 0
M  V30 19340 H 1840.27 -2.88332 0.569375 0
M  V30 19341 H 1837.78 -1.57068 0.412732 0
M  V30 19342 H 1839.78 -3.79806 -1.7191 0
M  V30 19343 H 1838.44 -2.63503 -1.89727 0
M  V30 19344 H 1839.45 -5.10869 0.850477 0
M  V30 19345 H 1836.12 -3.91896 -1.43958 0
M  V30 19346 H 1837.51 -6.51018 1.66207 0
M  V30 19347 N 1840.23 -0.328564 -1.54137 0
M  V30 19348 C 1841.65 0.0239073 -1.59582 0
M  V30 19349 C 1841.85 1.50043 -1.34497 0
M  V30 19350 O 1840.91 2.25711 -1.13185 0
M  V30 19351 C 1842.22 -0.398812 -2.98044 0
M  V30 19352 C 1843.77 -0.34989 -3.11038 0
M  V30 19353 C 1844.24 -0.747848 -4.51853 0
M  V30 19354 N 1845.73 -0.701447 -4.57858 0
M  V30 19355 C 1846.47 -0.981505 -5.64937 0
M  V30 19356 N 1845.96 -1.32895 -6.79934 0
M  V30 19357 N 1847.76 -0.906735 -5.54738 0
M  V30 19358 H 1839.91 -1.29052 -1.68699 0
M  V30 19359 H 1842.17 -0.52508 -0.7893 0
M  V30 19360 H 1841.88 -1.42773 -3.21417 0
M  V30 19361 H 1841.75 0.233639 -3.76476 0
M  V30 19362 H 1844.14 0.669831 -2.87397 0
M  V30 19363 H 1844.22 -1.01734 -2.34699 0
M  V30 19364 H 1843.86 -1.76551 -4.76227 0
M  V30 19365 H 1843.79 -0.0580299 -5.26568 0
M  V30 19366 H 1846.28 -0.444963 -3.75271 0
M  V30 19367 H 1846.6 -1.52789 -7.57546 0
M  V30 19368 H 1844.94 -1.36726 -6.81418 0
M  V30 19369 H 1848.13 -0.634748 -4.63776 0
M  V30 19370 H 1848.31 -1.12835 -6.38101 0
M  V30 19371 N 1841.71 1.57497 -0.0568439 0
M  V30 19372 C 1842.96 1.9209 0.615157 0
M  V30 19373 C 1843.27 0.937538 1.71667 0
M  V30 19374 O 1844.48 1.17573 2.44722 0
M  V30 19375 C 1842.94 3.41183 1.14552 0
M  V30 19376 C 1842.54 4.47936 0.0758146 0
M  V30 19377 C 1844.29 3.84801 1.79244 0
M  V30 19378 C 1842.2 5.88148 0.619381 0
M  V30 19379 H 1841.13 0.716918 0.233547 0
M  V30 19380 H 1843.78 1.83062 -0.126654 0
M  V30 19381 H 1842.16 3.45234 1.93983 0
M  V30 19382 H 1843.33 4.55482 -0.69807 0
M  V30 19383 H 1841.65 4.13694 -0.473984 0
M  V30 19384 H 1844.24 4.86929 2.20918 0
M  V30 19385 H 1844.59 3.21355 2.64645 0
M  V30 19386 H 1845.12 3.8329 1.0646 0
M  V30 19387 H 1841.86 6.55204 -0.19712 0
M  V30 19388 H 1841.38 5.84152 1.36112 0
M  V30 19389 H 1843.06 6.37572 1.1005 0
M  V30 19390 N 1843.19 -0.216591 1.56105 0
M  V30 19391 C 1844.1 -1.28933 1.95994 0
M  V30 19392 C 1845.12 -1.51007 0.864464 0
M  V30 19393 O 1846.29 -1.6404 1.16845 0
M  V30 19394 C 1843.36 -2.61807 2.27284 0
M  V30 19395 C 1842.42 -2.47992 3.50426 0
M  V30 19396 C 1841.65 -3.7453 3.80214 0
M  V30 19397 O 1841.87 -4.77765 3.11604 0
M  V30 19398 O 1840.81 -3.71345 4.73694 0
M  V30 19399 H 1844.63 -0.980864 2.87424 0
M  V30 19400 H 1842.22 -0.419859 1.43379 0
M  V30 19401 H 1844.1 -3.40272 2.48582 0
M  V30 19402 H 1842.78 -2.92324 1.39026 0
M  V30 19403 H 1841.68 -1.67711 3.34401 0
M  V30 19404 H 1843.02 -2.22413 4.39082 0
M  V30 19405 N 1844.67 -1.5 -0.48349 0
M  V30 19406 C 1846.08 -1.53369 -1.06466 0
M  V30 19407 C 1846.43 -0.329973 -1.93405 0
M  V30 19408 O 1845.56 0.558444 -2.0907 0
M  V30 19409 C 1846.15 -2.77927 -1.93757 0
M  V30 19410 C 1844.71 -2.84017 -2.47005 0
M  V30 19411 C 1843.86 -2.47506 -1.25044 0
M  V30 19412 H 1846.81 -1.56444 -0.266633 0
M  V30 19413 H 1846.83 -2.59081 -2.78671 0
M  V30 19414 H 1846.34 -3.65518 -1.30454 0
M  V30 19415 H 1844.44 -2.00748 -3.13896 0
M  V30 19416 H 1844.55 -3.86614 -2.8296 0
M  V30 19417 H 1842.92 -1.99669 -1.58127 0
M  V30 19418 H 1843.7 -3.37391 -0.634225 0
M  V30 19419 N 1846.15 0.735796 -1.39369 0
M  V30 19420 C 1847.39 1.49756 -1.36752 0
M  V30 19421 C 1847.73 1.94165 0.036815 0
M  V30 19422 O 1847 1.66728 1.00159 0
M  V30 19423 C 1847.28 2.73779 -2.33916 0
M  V30 19424 C 1847.14 2.35394 -3.83288 0
M  V30 19425 C 1848.46 3.75875 -2.28924 0
M  V30 19426 H 1845.57 0.543236 -0.49806 0
M  V30 19427 H 1848.22 0.841381 -1.70355 0
M  V30 19428 H 1846.37 3.29768 -2.05391 0
M  V30 19429 H 1848.04 1.85043 -4.2256 0
M  V30 19430 H 1846.28 1.67632 -4.00102 0
M  V30 19431 H 1846.95 3.24206 -4.4676 0
M  V30 19432 H 1849.43 3.29469 -2.54144 0
M  V30 19433 H 1848.3 4.60321 -2.98991 0
M  V30 19434 H 1848.57 4.22739 -1.29399 0
M  V30 19435 N 1847.63 1.24532 0.965897 0
M  V30 19436 C 1848.87 1.09801 1.72404 0
M  V30 19437 C 1849.23 -0.356766 1.88656 0
M  V30 19438 O 1850.43 -0.625626 2.61418 0
M  V30 19439 C 1848.7 1.8194 3.07624 0
M  V30 19440 S 1850.26 1.82962 3.98836 0
M  V30 19441 H 1847.08 0.392672 0.592731 0
M  V30 19442 H 1849.68 1.57889 1.15288 0
M  V30 19443 H 1848.38 2.86899 2.93457 0
M  V30 19444 H 1847.92 1.34193 3.69805 0
M  V30 19445 H 1849.93 0.898584 4.87996 0
M  V30 19446 N 1849.1 -1.16685 1.05936 0
M  V30 19447 C 1850.03 -2.23129 0.688153 0
M  V30 19448 C 1851.01 -1.67108 -0.31765 0
M  V30 19449 O 1852.2 -1.93233 -0.193578 0
M  V30 19450 C 1849.33 -3.47229 0.069991 0
M  V30 19451 C 1848.28 -4.16121 1.00137 0
M  V30 19452 C 1847.61 -5.34131 0.246699 0
M  V30 19453 C 1848.91 -4.67508 2.32882 0
M  V30 19454 H 1850.6 -2.54436 1.57806 0
M  V30 19455 H 1848.15 -1.22298 0.76021 0
M  V30 19456 H 1850.1 -4.20918 -0.201545 0
M  V30 19457 H 1848.83 -3.15212 -0.854909 0
M  V30 19458 H 1847.49 -3.44355 1.25759 0
M  V30 19459 H 1847.13 -4.98366 -0.681204 0
M  V30 19460 H 1846.83 -5.81163 0.867373 0
M  V30 19461 H 1848.36 -6.10598 -0.0173762 0
M  V30 19462 H 1849.77 -5.32795 2.11666 0
M  V30 19463 H 1848.17 -5.25147 2.90414 0
M  V30 19464 H 1849.24 -3.83912 2.96209 0
M  V30 19465 N 1850.58 -0.841432 -1.33258 0
M  V30 19466 C 1851.51 -0.291603 -2.31672 0
M  V30 19467 C 1852.49 0.602066 -1.59089 0
M  V30 19468 O 1853.68 0.525081 -1.86967 0
M  V30 19469 C 1850.81 0.532008 -3.43201 0
M  V30 19470 C 1849.76 -0.26609 -4.27172 0
M  V30 19471 C 1849.09 0.681432 -5.3034 0
M  V30 19472 C 1850.39 -1.48457 -5.00757 0
M  V30 19473 H 1852.08 -1.1139 -2.77908 0
M  V30 19474 H 1849.63 -0.53708 -1.33609 0
M  V30 19475 H 1851.58 0.926977 -4.11078 0
M  V30 19476 H 1850.3 1.38754 -2.9566 0
M  V30 19477 H 1848.96 -0.64265 -3.60923 0
M  V30 19478 H 1848.61 1.53344 -4.79056 0
M  V30 19479 H 1848.31 0.151522 -5.87405 0
M  V30 19480 H 1849.84 1.07386 -6.01083 0
M  V30 19481 H 1851.25 -1.16262 -5.61388 0
M  V30 19482 H 1849.65 -1.95145 -5.67484 0
M  V30 19483 H 1850.72 -2.25296 -4.29383 0
M  V30 19484 N 1852.06 1.4581 -0.598108 0
M  V30 19485 C 1853.31 2.02601 -0.089744 0
M  V30 19486 C 1853.64 1.46673 1.27282 0
M  V30 19487 O 1852.91 0.637735 1.83748 0
M  V30 19488 C 1853.2 3.60077 -0.0405712 0
M  V30 19489 C 1853.05 4.26358 -1.43313 0
M  V30 19490 C 1854.37 4.35241 0.652164 0
M  V30 19491 H 1851.49 0.736211 -0.0340865 0
M  V30 19492 H 1854.13 1.73775 -0.768263 0
M  V30 19493 H 1852.28 3.84767 0.537251 0
M  V30 19494 H 1853.95 4.12884 -2.0573 0
M  V30 19495 H 1852.19 3.85125 -1.99653 0
M  V30 19496 H 1852.87 5.35211 -1.35105 0
M  V30 19497 H 1855.34 4.15788 0.161128 0
M  V30 19498 H 1854.22 5.4497 0.655646 0
M  V30 19499 H 1854.48 4.07419 1.71646 0
M  V30 19500 N 1853.54 0.336733 1.53961 0
M  V30 19501 C 1854.49 -0.539031 2.21537 0
M  V30 19502 C 1855.47 -1.07141 1.2004 0
M  V30 19503 O 1856.66 -1.00624 1.45615 0
M  V30 19504 C 1853.79 -1.69289 2.98657 0
M  V30 19505 C 1852.88 -1.17478 4.07504 0
M  V30 19506 N 1853.27 -0.377364 5.0439 0
M  V30 19507 C 1851.57 -1.4523 4.21692 0
M  V30 19508 C 1852.27 -0.0970043 5.81619 0
M  V30 19509 N 1851.24 -0.686775 5.39244 0
M  V30 19510 H 1855.05 0.077355 2.93798 0
M  V30 19511 H 1852.56 0.14325 1.61767 0
M  V30 19512 H 1854.56 -2.33219 3.45564 0
M  V30 19513 H 1853.22 -2.31263 2.2792 0
M  V30 19514 H 1854.23 -0.019042 5.17896 0
M  V30 19515 H 1850.91 -2.07693 3.62174 0
M  V30 19516 H 1852.3 0.545809 6.69679 0
M  V30 19517 N 1855.02 -1.57465 0.0651956 0
M  V30 19518 C 1856.26 -1.92856 -0.604233 0
M  V30 19519 C 1856.58 -0.945431 -1.70548 0
M  V30 19520 O 1855.85 0.00749144 -1.95899 0
M  V30 19521 H 1854.43 -0.711933 -0.226185 0
M  V30 19522 H 1857.1 -1.94521 0.121499 0
M  V30 19523 H 1856.19 -2.94481 -1.03381 0
M  V30 19524 N 1856.49 0.20831 -1.56217 0
M  V30 19525 C 1857.72 0.951404 -1.84291 0
M  V30 19526 C 1858.14 1.76616 -0.647168 0
M  V30 19527 O 1857.5 1.7674 0.404081 0
M  V30 19528 C 1857.55 1.83403 -3.10477 0
M  V30 19529 O 1856.65 2.93113 -2.90101 0
M  V30 19530 H 1855.99 0.268668 -0.607218 0
M  V30 19531 H 1858.52 0.217618 -2.03439 0
M  V30 19532 H 1858.53 2.24127 -3.40927 0
M  V30 19533 H 1857.21 1.23528 -3.97132 0
M  V30 19534 H 1855.79 2.5624 -2.70916 0
M  V30 19535 N 1857.97 1.50255 0.475528 0
M  V30 19536 C 1859.38 1.53931 1.05651 0
M  V30 19537 C 1859.73 0.340226 1.93228 0
M  V30 19538 O 1858.86 -0.547349 2.09363 0
M  V30 19539 C 1859.45 2.78951 1.92281 0
M  V30 19540 C 1858.01 2.85323 2.45495 0
M  V30 19541 C 1857.16 2.48166 1.2373 0
M  V30 19542 H 1860.11 1.56583 0.258332 0
M  V30 19543 H 1860.13 2.60555 2.77293 0
M  V30 19544 H 1859.64 3.66205 1.28514 0
M  V30 19545 H 1857.74 2.0241 3.12827 0
M  V30 19546 H 1857.86 3.88109 2.80906 0
M  V30 19547 H 1856.22 2.00505 1.57066 0
M  V30 19548 H 1857 3.37722 0.616324 0
M  V30 19549 N 1859.45 -0.728395 1.39758 0
M  V30 19550 C 1860.7 -1.48514 1.37069 0
M  V30 19551 C 1861.02 -1.94976 -0.0305263 0
M  V30 19552 O 1860.29 -1.69453 -0.982987 0
M  V30 19553 H 1858.87 -0.550958 0.504434 0
M  V30 19554 H 1861.53 -0.864297 1.74688 0
M  V30 19555 H 1860.63 -2.36411 2.03755 0
M  V30 19556 N 1860.93 -1.25042 -0.959279 0
M  V30 19557 C 1862.16 -1.12242 -1.73809 0
M  V30 19558 C 1862.57 0.324251 -1.85995 0
M  V30 19559 O 1861.93 1.22328 -1.35433 0
M  V30 19560 C 1861.98 -1.76603 -3.15426 0
M  V30 19561 O 1861.7 -3.15614 -3.03841 0
M  V30 19562 C 1863.2 -1.69522 -4.09606 0
M  V30 19563 H 1860.42 -0.39173 -0.544783 0
M  V30 19564 H 1862.96 -1.65314 -1.2038 0
M  V30 19565 H 1861.12 -1.27512 -3.65813 0
M  V30 19566 H 1861.53 -3.47186 -3.93144 0
M  V30 19567 H 1863.01 -2.19223 -5.06602 0
M  V30 19568 H 1863.48 -0.658074 -4.34242 0
M  V30 19569 H 1864.09 -2.18079 -3.65133 0
M  V30 19570 N 1862.41 1.16121 -1.06553 0
M  V30 19571 C 1863.65 1.86346 -0.782279 0
M  V30 19572 C 1863.98 1.82255 0.693395 0
M  V30 19573 O 1863.25 1.2579 1.50179 0
M  V30 19574 H 1861.83 0.689921 -0.286388 0
M  V30 19575 H 1864.49 1.40805 -1.34758 0
M  V30 19576 H 1863.58 2.91712 -1.10954 0
M  V30 19577 N 1863.88 0.848487 1.3281 0
M  V30 19578 C 1864.83 0.286636 2.29013 0
M  V30 19579 C 1865.8 -0.602944 1.5477 0
M  V30 19580 O 1866.99 -0.539169 1.83024 0
M  V30 19581 C 1864.13 -0.524193 3.41096 0
M  V30 19582 C 1863.24 0.390486 4.30232 0
M  V30 19583 C 1862.37 -0.432376 5.29437 0
M  V30 19584 C 1861.41 0.48009 6.10214 0
M  V30 19585 N 1860.55 -0.30522 7.01436 0
M  V30 19586 H 1865.39 1.1123 2.76463 0
M  V30 19587 H 1862.93 0.559956 1.36025 0
M  V30 19588 H 1864.89 -1.00987 4.04793 0
M  V30 19589 H 1863.52 -1.31474 2.94813 0
M  V30 19590 H 1862.57 0.994518 3.6717 0
M  V30 19591 H 1863.88 1.09103 4.86722 0
M  V30 19592 H 1863.03 -0.981471 5.98709 0
M  V30 19593 H 1861.77 -1.16631 4.73549 0
M  V30 19594 H 1860.78 1.04112 5.39853 0
M  V30 19595 H 1862 1.21254 6.68187 0
M  V30 19596 H 1859.95 -1.02236 6.47984 0
M  V30 19597 H 1859.87 0.336414 7.55251 0
M  V30 19598 H 1861.13 -0.836242 7.75001 0
M  V30 19599 N 1865.36 -1.4549 0.605832 0
M  V30 19600 C 1866.59 -2.07135 0.104838 0
M  V30 19601 C 1867.01 -1.4478 -1.20085 0
M  V30 19602 O 1866.37 -0.539875 -1.73075 0
M  V30 19603 C 1866.42 -3.60593 -0.0231858 0
M  V30 19604 O 1865.52 -3.98173 -1.07386 0
M  V30 19605 H 1864.86 -0.659945 0.0732691 0
M  V30 19606 H 1867.39 -1.8677 0.835343 0
M  V30 19607 H 1867.4 -4.07396 -0.221964 0
M  V30 19608 H 1866.08 -4.05364 0.930211 0
M  V30 19609 H 1864.66 -3.63044 -0.851689 0
M  V30 19610 N 1866.84 -0.344893 -1.5378 0
M  V30 19611 C 1868.09 0.25158 -2.01233 0
M  V30 19612 C 1868.42 1.50094 -1.23229 0
M  V30 19613 O 1867.69 1.91845 -0.320282 0
M  V30 19614 C 1867.98 0.564366 -3.5565 0
M  V30 19615 C 1867.83 -0.697186 -4.44364 0
M  V30 19616 C 1869.15 1.37343 -4.18121 0
M  V30 19617 H 1866.27 0.0899643 -0.731488 0
M  V30 19618 H 1868.91 -0.465697 -1.84204 0
M  V30 19619 H 1867.06 1.17543 -3.70292 0
M  V30 19620 H 1868.73 -1.33512 -4.41557 0
M  V30 19621 H 1866.98 -1.3218 -4.13172 0
M  V30 19622 H 1867.65 -0.433571 -5.50295 0
M  V30 19623 H 1870.12 0.85671 -4.07185 0
M  V30 19624 H 1869 1.56103 -5.26235 0
M  V30 19625 H 1869.26 2.37593 -3.7283 0
M  V30 19626 N 1868.32 1.57428 -0.0735454 0
M  V30 19627 C 1869.28 2.11699 0.878419 0
M  V30 19628 C 1870.28 1.0414 1.22521 0
M  V30 19629 O 1871.47 1.30121 1.1582 0
M  V30 19630 C 1868.6 2.61979 2.18129 0
M  V30 19631 H 1869.8 2.97118 0.40755 0
M  V30 19632 H 1867.35 1.55315 0.175183 0
M  V30 19633 H 1868.08 1.80018 2.69748 0
M  V30 19634 H 1867.87 3.40599 1.94254 0
M  V30 19635 H 1869.36 3.04035 2.86273 0
M  V30 19636 N 1869.8 -0.200022 1.56326 0
M  V30 19637 C 1871.02 -0.937503 1.84441 0
M  V30 19638 C 1871.44 -1.77058 0.655428 0
M  V30 19639 O 1870.8 -1.78587 -0.375913 0
M  V30 19640 C 1870.85 -1.83766 3.11307 0
M  V30 19641 O 1870.57 -1.03823 4.2562 0
M  V30 19642 C 1872.07 -2.68724 3.52565 0
M  V30 19643 H 1869.29 -0.273767 0.612611 0
M  V30 19644 H 1871.83 -0.208759 2.03432 0
M  V30 19645 H 1869.99 -2.52009 2.94228 0
M  V30 19646 H 1870.4 -1.6512 4.97831 0
M  V30 19647 H 1871.88 -3.2755 4.44314 0
M  V30 19648 H 1872.35 -3.4219 2.75323 0
M  V30 19649 H 1872.96 -2.0586 3.72158 0
M  V30 19650 N 1871.27 -1.50505 -0.467553 0
M  V30 19651 C 1872.22 -1.70158 -1.58584 0
M  V30 19652 C 1873.22 -0.567469 -1.59613 0
M  V30 19653 O 1874.42 -0.748063 -1.63719 0
M  V30 19654 H 1870.8 -0.537137 -0.526296 0
M  V30 19655 H 1872.77 -2.63959 -1.39171 0
M  V30 19656 C 1871.52 -1.81617 -2.96497 0
M  V30 19657 H 1870.84 -2.68276 -2.96425 0
M  V30 19658 H 1872.28 -1.99393 -3.74191 0
M  V30 19659 C 1870.74 -0.56862 -3.32067 0
M  V30 19660 O 1871.27 0.29061 -4.00647 0
M  V30 19661 N 1869.48 -0.421597 -2.87526 0
M  V30 19662 H 1869.02 -1.12184 -2.31889 0
M  V30 19663 H 1868.98 0.411959 -3.11689 0
M  V30 19664 N 1872.75 0.720973 -1.40142 0
M  V30 19665 C 1873.68 1.84799 -1.42729 0
M  V30 19666 C 1874.66 1.67629 -0.288866 0
M  V30 19667 O 1875.85 1.8774 -0.496713 0
M  V30 19668 C 1872.98 3.22699 -1.28385 0
M  V30 19669 C 1871.93 3.54532 -2.39773 0
M  V30 19670 C 1871.26 4.91518 -2.10509 0
M  V30 19671 C 1872.56 3.56077 -3.82108 0
M  V30 19672 H 1874.25 1.82892 -2.37046 0
M  V30 19673 H 1871.8 0.8785 -1.14098 0
M  V30 19674 H 1873.75 4.0123 -1.28812 0
M  V30 19675 H 1872.48 3.25169 -0.305408 0
M  V30 19676 H 1871.13 2.78338 -2.38586 0
M  V30 19677 H 1870.78 4.90584 -1.11069 0
M  V30 19678 H 1870.48 5.13783 -2.85132 0
M  V30 19679 H 1872.01 5.72389 -2.1261 0
M  V30 19680 H 1873.42 4.24657 -3.85148 0
M  V30 19681 H 1871.82 3.89866 -4.56207 0
M  V30 19682 H 1872.89 2.55576 -4.12079 0
M  V30 19683 N 1874.23 1.25549 0.952634 0
M  V30 19684 C 1875.48 1.09811 1.69188 0
M  V30 19685 C 1875.79 -0.360368 1.92252 0
M  V30 19686 O 1877 -0.638228 2.63892 0
M  V30 19687 C 1875.45 1.91693 3.04601 0
M  V30 19688 C 1875.06 3.42045 2.89326 0
M  V30 19689 C 1876.81 1.8453 3.82294 0
M  V30 19690 C 1874.71 4.16216 4.20141 0
M  V30 19691 H 1873.64 0.40733 0.634507 0
M  V30 19692 H 1876.29 1.49762 1.06035 0
M  V30 19693 H 1874.68 1.44566 3.68669 0
M  V30 19694 H 1875.85 3.96859 2.34178 0
M  V30 19695 H 1874.17 3.50322 2.25085 0
M  V30 19696 H 1876.76 2.37237 4.79189 0
M  V30 19697 H 1877.11 0.81361 4.08272 0
M  V30 19698 H 1877.64 2.29418 3.2498 0
M  V30 19699 H 1874.38 5.19806 3.99352 0
M  V30 19700 H 1873.9 3.66184 4.75047 0
M  V30 19701 H 1875.58 4.2404 4.88671 0
M  V30 19702 N 1875.71 -1.15554 1.07168 0
M  V30 19703 C 1876.67 -2.18431 0.694305 0
M  V30 19704 C 1877.67 -1.5861 -0.264497 0
M  V30 19705 O 1878.86 -1.7414 -0.0457035 0
M  V30 19706 C 1875.99 -3.40892 0.0230473 0
M  V30 19707 H 1877.19 -2.53331 1.60511 0
M  V30 19708 H 1874.74 -1.29984 0.867982 0
M  V30 19709 H 1875.47 -3.11559 -0.900083 0
M  V30 19710 H 1875.26 -3.8557 0.712622 0
M  V30 19711 H 1876.75 -4.16986 -0.226392 0
M  V30 19712 N 1877.19 -0.855519 -1.32358 0
M  V30 19713 C 1878.6 -0.545491 -1.49989 0
M  V30 19714 C 1878.8 0.923656 -1.79083 0
M  V30 19715 O 1877.86 1.70664 -1.86091 0
M  V30 19716 C 1879.17 -1.43323 -2.64347 0
M  V30 19717 C 1880.72 -1.43374 -2.78232 0
M  V30 19718 C 1881.2 -2.30671 -3.9567 0
M  V30 19719 N 1882.69 -2.28471 -4.02933 0
M  V30 19720 C 1883.42 -2.92746 -4.93039 0
M  V30 19721 N 1882.92 -3.66136 -5.88147 0
M  V30 19722 N 1884.71 -2.82129 -4.86168 0
M  V30 19723 H 1876.86 -1.80633 -1.11738 0
M  V30 19724 H 1879.12 -0.771568 -0.550805 0
M  V30 19725 H 1878.83 -2.47797 -2.49578 0
M  V30 19726 H 1878.7 -1.12125 -3.6015 0
M  V30 19727 H 1881.09 -0.396641 -2.92422 0
M  V30 19728 H 1881.17 -1.78588 -1.83139 0
M  V30 19729 H 1880.82 -3.3445 -3.82238 0
M  V30 19730 H 1880.75 -1.92789 -4.90041 0
M  V30 19731 H 1883.24 -1.75115 -3.34878 0
M  V30 19732 H 1883.55 -4.12344 -6.536 0
M  V30 19733 H 1881.9 -3.70244 -5.88171 0
M  V30 19734 H 1885.09 -2.24344 -4.10837 0
M  V30 19735 H 1885.26 -3.32502 -5.56189 0
M  V30 19736 N 1878.67 1.45167 -0.61354 0
M  V30 19737 C 1879.63 2.29016 0.0919454 0
M  V30 19738 C 1880.63 1.40091 0.789373 0
M  V30 19739 O 1881.82 1.6215 0.636631 0
M  V30 19740 C 1878.95 3.21257 1.14048 0
M  V30 19741 H 1880.14 2.92875 -0.645317 0
M  V30 19742 H 1877.7 1.51788 -0.372855 0
M  V30 19743 H 1878.43 2.6221 1.90831 0
M  V30 19744 H 1878.22 3.86766 0.644523 0
M  V30 19745 H 1879.71 3.84288 1.63439 0
M  V30 19746 N 1880.14 0.353044 1.53595 0
M  V30 19747 C 1881.39 -0.2416 2.00248 0
M  V30 19748 C 1881.71 -1.5089 1.24465 0
M  V30 19749 O 1882.91 -2.18137 1.61643 0
M  V30 19750 C 1881.37 -0.481075 3.5667 0
M  V30 19751 C 1880.98 0.77087 4.41318 0
M  V30 19752 C 1882.72 -1.03406 4.11713 0
M  V30 19753 C 1880.63 0.501671 5.89268 0
M  V30 19754 H 1879.56 -0.0940573 0.74811 0
M  V30 19755 H 1882.21 0.469845 1.77383 0
M  V30 19756 H 1880.59 -1.25346 3.75639 0
M  V30 19757 H 1881.76 1.54509 4.34124 0
M  V30 19758 H 1880.08 1.24617 3.97315 0
M  V30 19759 H 1882.68 -1.25058 5.1987 0
M  V30 19760 H 1883.02 -1.99245 3.65523 0
M  V30 19761 H 1883.55 -0.322144 3.96493 0
M  V30 19762 H 1880.29 1.43005 6.39711 0
M  V30 19763 H 1879.81 -0.234284 5.99342 0
M  V30 19764 H 1881.49 0.122468 6.46884 0
M  V30 19765 N 1881.62 -1.57387 0.0818932 0
M  V30 19766 C 1882.58 -2.12162 -0.86718 0
M  V30 19767 C 1883.58 -1.04788 -1.21967 0
M  V30 19768 O 1884.77 -1.30733 -1.15128 0
M  V30 19769 C 1881.91 -2.63132 -2.16736 0
M  V30 19770 H 1883.1 -2.9733 -0.391788 0
M  V30 19771 H 1880.65 -1.55406 -0.166944 0
M  V30 19772 H 1881.39 -1.81446 -2.6879 0
M  V30 19773 H 1881.17 -3.41625 -1.92445 0
M  V30 19774 H 1882.66 -3.05549 -2.84657 0
M  V30 19775 N 1883.1 0.191729 -1.56429 0
M  V30 19776 C 1884.01 1.25798 -1.9802 0
M  V30 19777 C 1885.03 1.49612 -0.888379 0
M  V30 19778 O 1886.2 1.62161 -1.1944 0
M  V30 19779 C 1883.27 2.58158 -2.3142 0
M  V30 19780 C 1882.33 2.42386 -3.54327 0
M  V30 19781 C 1881.56 3.68434 -3.86124 0
M  V30 19782 O 1881.78 4.72747 -3.19165 0
M  V30 19783 O 1880.72 3.63762 -4.79542 0
M  V30 19784 H 1884.54 0.935013 -2.88948 0
M  V30 19785 H 1882.13 0.396996 -1.44029 0
M  V30 19786 H 1884.01 3.36274 -2.53964 0
M  V30 19787 H 1882.69 2.90075 -1.43659 0
M  V30 19788 H 1881.59 1.62369 -3.37027 0
M  V30 19789 H 1882.93 2.154 -4.42565 0
M  V30 19790 N 1884.58 1.50751 0.459565 0
M  V30 19791 C 1885.99 1.38432 0.794269 0
M  V30 19792 C 1886.19 0.449353 1.96426 0
M  V30 19793 O 1885.25 -0.103761 2.52287 0
M  V30 19794 C 1886.56 2.80034 1.09551 0
M  V30 19795 C 1888.11 2.8903 1.20127 0
M  V30 19796 C 1888.59 4.3149 1.53558 0
M  V30 19797 N 1890.08 4.34494 1.60527 0
M  V30 19798 C 1890.81 5.41732 1.87921 0
M  V30 19799 N 1890.31 6.59161 2.13258 0
M  V30 19800 N 1892.1 5.29187 1.89519 0
M  V30 19801 H 1884.25 2.10106 -0.311312 0
M  V30 19802 H 1886.51 0.944884 -0.0767974 0
M  V30 19803 H 1886.22 3.50342 0.308751 0
M  V30 19804 H 1886.09 3.17992 2.02882 0
M  V30 19805 H 1888.48 2.18934 1.97869 0
M  V30 19806 H 1888.56 2.546 0.247486 0
M  V30 19807 H 1888.21 5.02128 0.763522 0
M  V30 19808 H 1888.14 4.63416 2.50106 0
M  V30 19809 H 1890.63 3.49824 1.42939 0
M  V30 19810 H 1890.94 7.3669 2.33468 0
M  V30 19811 H 1889.29 6.62315 2.10626 0
M  V30 19812 H 1892.48 4.36439 1.69229 0
M  V30 19813 H 1892.65 6.12846 2.10532 0
M  V30 19814 N 1886.06 -0.713531 1.40522 0
M  V30 19815 C 1886.97 -1.8577 1.43272 0
M  V30 19816 C 1887.98 -1.70936 0.325113 0
M  V30 19817 O 1889.16 -1.93165 0.570022 0
M  V30 19818 C 1886.22 -3.21587 1.29548 0
M  V30 19819 C 1885.28 -3.4866 2.50469 0
M  V30 19820 C 1884.52 -4.77998 2.3739 0
M  V30 19821 O 1884.74 -5.53234 1.38881 0
M  V30 19822 O 1883.67 -5.05453 3.26804 0
M  V30 19823 H 1887.5 -1.86406 2.39763 0
M  V30 19824 H 1885.08 -0.864226 1.21867 0
M  V30 19825 H 1886.97 -4.02709 1.2411 0
M  V30 19826 H 1885.64 -3.21674 0.36163 0
M  V30 19827 H 1884.55 -2.67539 2.61483 0
M  V30 19828 H 1885.88 -3.53372 3.42621 0
M  V30 19829 N 1887.53 -1.26053 -0.945962 0
M  V30 19830 C 1888.48 -1.06999 -2.06529 0
M  V30 19831 C 1889.48 0.00168092 -1.694 0
M  V30 19832 O 1890.68 -0.154623 -1.79335 0
M  V30 19833 H 1887.06 -0.329129 -0.676149 0
M  V30 19834 H 1889.03 -2.01869 -2.19753 0
M  V30 19835 C 1887.78 -0.714636 -3.40277 0
M  V30 19836 H 1887.1 -1.53111 -3.6932 0
M  V30 19837 H 1888.54 -0.62107 -4.19427 0
M  V30 19838 C 1887 0.579908 -3.31871 0
M  V30 19839 O 1887.53 1.61959 -3.67603 0
M  V30 19840 N 1885.73 0.568764 -2.8498 0
M  V30 19841 H 1885.28 -0.277687 -2.56099 0
M  V30 19842 H 1885.24 1.43505 -2.79738 0
M  V30 19843 N 1889.01 1.14984 -1.07779 0
M  V30 19844 C 1890.24 1.89747 -0.824844 0
M  V30 19845 C 1890.65 1.78246 0.622385 0
M  V30 19846 O 1890.01 1.13739 1.42723 0
M  V30 19847 C 1890.06 3.39946 -1.2296 0
M  V30 19848 O 1889.78 3.5112 -2.62005 0
M  V30 19849 C 1891.28 4.31721 -1.00658 0
M  V30 19850 H 1888.5 0.601232 -0.297928 0
M  V30 19851 H 1891.05 1.4566 -1.43539 0
M  V30 19852 H 1889.2 3.81679 -0.663292 0
M  V30 19853 H 1889.62 4.44367 -2.78636 0
M  V30 19854 H 1891.09 5.35507 -1.33925 0
M  V30 19855 H 1891.57 4.39163 0.0568131 0
M  V30 19856 H 1892.17 3.95735 -1.55801 0
M  V30 19857 N 1890.49 0.862526 1.31902 0
M  V30 19858 C 1891.71 0.483159 2.01694 0
M  V30 19859 C 1892.14 -0.914778 1.64358 0
M  V30 19860 O 1891.5 -1.60229 0.848308 0
M  V30 19861 C 1891.55 0.638911 3.54895 0
M  V30 19862 O 1890.65 -0.324962 4.11118 0
M  V30 19863 H 1889.99 0.193128 0.635293 0
M  V30 19864 H 1892.52 1.16389 1.6827 0
M  V30 19865 H 1892.53 0.529394 4.04551 0
M  V30 19866 H 1891.21 1.65828 3.81411 0
M  V30 19867 H 1889.78 -0.171025 3.72508 0
M  V30 19868 N 1891.97 -1.4484 0.62123 0
M  V30 19869 C 1893.2 -2.065 0.128561 0
M  V30 19870 C 1893.61 -1.46351 -1.19277 0
M  V30 19871 O 1892.97 -0.582692 -1.72948 0
M  V30 19872 C 1893.02 -3.615 -0.00297622 0
M  V30 19873 O 1892.74 -4.19407 1.26609 0
M  V30 19874 C 1894.24 -4.40174 -0.525505 0
M  V30 19875 H 1891.46 -0.666783 0.0751128 0
M  V30 19876 H 1894.01 -1.85868 0.852829 0
M  V30 19877 H 1892.16 -3.81427 -0.677635 0
M  V30 19878 H 1892.57 -5.12738 1.10454 0
M  V30 19879 H 1894.05 -5.49085 -0.566585 0
M  V30 19880 H 1894.53 -4.10918 -1.55057 0
M  V30 19881 H 1895.13 -4.25143 0.115568 0
M  V30 19882 N 1893.45 -0.361184 -1.53405 0
M  V30 19883 C 1894.68 0.23043 -2.05311 0
M  V30 19884 C 1895.08 1.43355 -1.23475 0
M  V30 19885 O 1894.43 1.81745 -0.267304 0
M  V30 19886 C 1894.49 0.692241 -3.52772 0
M  V30 19887 C 1894.15 -0.393597 -4.55302 0
M  V30 19888 C 1895.15 -1.24204 -5.04846 0
M  V30 19889 C 1892.84 -0.55258 -4.99251 0
M  V30 19890 C 1894.83 -2.23485 -5.96936 0
M  V30 19891 C 1892.52 -1.54876 -5.91149 0
M  V30 19892 C 1893.51 -2.38834 -6.39881 0
M  V30 19893 O 1893.2 -3.36753 -7.29967 0
M  V30 19894 H 1892.93 0.0451009 -0.674494 0
M  V30 19895 H 1895.49 -0.516588 -1.98798 0
M  V30 19896 H 1893.72 1.49079 -3.56809 0
M  V30 19897 H 1895.41 1.20637 -3.87559 0
M  V30 19898 H 1896.17 -1.13039 -4.71643 0
M  V30 19899 H 1892.05 0.0911198 -4.6091 0
M  V30 19900 H 1895.6 -2.89053 -6.34897 0
M  V30 19901 H 1891.49 -1.66091 -6.23766 0
M  V30 19902 H 1892.26 -3.32431 -7.47952 0
M  V30 19903 N 1894.92 1.57341 -0.0902386 0
M  V30 19904 C 1896.15 1.98934 0.586524 0
M  V30 19905 C 1896.57 0.968841 1.6123 0
M  V30 19906 O 1895.93 -0.0632868 1.8119 0
M  V30 19907 C 1895.98 3.39509 1.21516 0
M  V30 19908 O 1895.08 3.40203 2.331 0
M  V30 19909 H 1894.43 0.647009 0.14925 0
M  V30 19910 H 1896.96 2.03891 -0.170213 0
M  V30 19911 H 1896.97 3.77097 1.55762 0
M  V30 19912 H 1895.64 4.13308 0.463639 0
M  V30 19913 H 1894.22 3.14405 2.0051 0
M  V30 19914 N 1896.4 -0.183431 1.56529 0
M  V30 19915 C 1897.33 -1.22973 1.98494 0
M  V30 19916 C 1898.31 -1.46837 0.858653 0
M  V30 19917 O 1899.5 -1.58377 1.12385 0
M  V30 19918 C 1896.63 -2.57138 2.33446 0
M  V30 19919 C 1895.58 -2.47865 3.48922 0
M  V30 19920 C 1894.91 -3.8641 3.69582 0
M  V30 19921 C 1896.21 -1.99371 4.82751 0
M  V30 19922 H 1897.9 -0.880938 2.86147 0
M  V30 19923 H 1895.45 -0.422321 1.37668 0
M  V30 19924 H 1897.4 -3.30527 2.614 0
M  V30 19925 H 1896.13 -2.93781 1.42689 0
M  V30 19926 H 1894.78 -1.76932 3.21077 0
M  V30 19927 H 1894.43 -4.20426 2.76136 0
M  V30 19928 H 1894.13 -3.81077 4.47274 0
M  V30 19929 H 1895.66 -4.61403 3.99924 0
M  V30 19930 H 1897.07 -2.62526 5.0966 0
M  V30 19931 H 1895.47 -2.05014 5.63994 0
M  V30 19932 H 1896.54 -0.947442 4.75554 0
M  V30 19933 N 1897.88 -1.50992 -0.451564 0
M  V30 19934 C 1899.29 -1.55592 -1.03189 0
M  V30 19935 C 1899.64 -0.370923 -1.92662 0
M  V30 19936 O 1898.77 0.513972 -2.10208 0
M  V30 19937 C 1899.36 -2.81975 -1.87818 0
M  V30 19938 C 1897.92 -2.89192 -2.40925 0
M  V30 19939 C 1897.07 -2.50103 -1.19766 0
M  V30 19940 H 1900.02 -1.56974 -0.233388 0
M  V30 19941 H 1900.04 -2.64934 -2.73112 0
M  V30 19942 H 1899.55 -3.68203 -1.22672 0
M  V30 19943 H 1897.65 -2.07362 -3.09567 0
M  V30 19944 H 1897.77 -3.92529 -2.74696 0
M  V30 19945 H 1896.13 -2.02978 -1.53857 0
M  V30 19946 H 1896.91 -3.3866 -0.562517 0
M  V30 19947 N 1899.36 0.706069 -1.40899 0
M  V30 19948 C 1900.77 1.2856 -1.35386 0
M  V30 19949 C 1901.12 1.96174 -0.0318902 0
M  V30 19950 O 1900.25 1.9814 0.870018 0
M  V30 19951 C 1900.84 2.33785 -2.45214 0
M  V30 19952 C 1899.4 2.87339 -2.43132 0
M  V30 19953 C 1898.55 1.61243 -2.25601 0
M  V30 19954 H 1901.5 0.501539 -1.50567 0
M  V30 19955 H 1901.52 3.14843 -2.13669 0
M  V30 19956 H 1901.03 1.84545 -3.41416 0
M  V30 19957 H 1899.13 3.40784 -1.50656 0
M  V30 19958 H 1899.24 3.38485 -3.39065 0
M  V30 19959 H 1897.61 1.86664 -1.73288 0
M  V30 19960 H 1898.39 1.14014 -3.23814 0
M  V30 19961 N 1900.84 1.26553 0.939264 0
M  V30 19962 C 1902.11 1.02956 1.66312 0
M  V30 19963 C 1902.49 -0.439417 2.06476 0
M  V30 19964 O 1901.84 -1.42019 1.79005 0
M  V30 19965 C 1902.05 1.98013 2.87388 0
M  V30 19966 C 1903.4 2.26732 3.58996 0
M  V30 19967 O 1904.42 1.95894 2.97496 0
M  V30 19968 O 1903.28 2.79244 4.69771 0
M  V30 19969 H 1900.38 0.391621 0.728397 0
M  V30 19970 H 1902.92 1.37771 0.990824 0
M  V30 19971 H 1901.69 2.97133 2.54613 0
M  V30 19972 H 1901.32 1.63689 3.62342 0
M  V30 19973 N 1902.31 -1.14411 1.08387 0
M  V30 19974 C 1903.73 -1.67013 0.83448 0
M  V30 19975 C 1904.08 -1.85509 -0.638802 0
M  V30 19976 O 1903.2 -1.56611 -1.49338 0
M  V30 19977 C 1903.8 -3.03377 1.50825 0
M  V30 19978 C 1902.36 -3.53013 1.3061 0
M  V30 19979 C 1901.5 -2.28494 1.57117 0
M  V30 19980 H 1904.45 -0.984794 1.24449 0
M  V30 19981 H 1904.47 -3.68824 0.935352 0
M  V30 19982 H 1903.99 -2.89883 2.5805 0
M  V30 19983 H 1902.09 -3.7173 0.254538 0
M  V30 19984 H 1902.2 -4.33799 2.0336 0
M  V30 19985 H 1900.56 -2.34558 0.99271 0
M  V30 19986 H 1901.35 -2.17576 2.65547 0
M  V30 19987 N 1903.79 -0.869509 -1.31443 0
M  V30 19988 C 1905.02 -0.493849 -2.01435 0
M  V30 19989 C 1905.44 0.906049 -1.6484 0
M  V30 19990 O 1904.8 1.59777 -0.856794 0
M  V30 19991 C 1904.85 -0.657723 -3.54551 0
M  V30 19992 O 1903.95 0.303155 -4.11284 0
M  V30 19993 H 1903.29 -0.196494 -0.63426 0
M  V30 19994 H 1905.82 -1.1728 -1.6765 0
M  V30 19995 H 1905.83 -0.550841 -4.04264 0
M  V30 19996 H 1904.51 -1.67848 -3.80526 0
M  V30 19997 H 1903.09 0.151268 -3.72593 0
M  V30 19998 N 1905.27 1.44508 -0.628902 0
M  V30 19999 C 1906.22 2.27784 0.0991943 0
M  V30 20000 C 1907.2 1.38538 0.818285 0
M  V30 20001 O 1908.4 1.62364 0.704759 0
M  V30 20002 C 1905.53 3.25816 1.0816 0
M  V30 20003 C 1904.61 4.2255 0.362249 0
M  V30 20004 N 1905 5.02133 -0.607915 0
M  V30 20005 C 1903.3 4.4185 0.60699 0
M  V30 20006 C 1904 5.7246 -1.03271 0
M  V30 20007 N 1902.98 5.42326 -0.371966 0
M  V30 20008 H 1906.78 2.86721 -0.645621 0
M  V30 20009 H 1904.29 1.55918 -0.45423 0
M  V30 20010 H 1906.29 3.8423 1.6178 0
M  V30 20011 H 1904.95 2.6844 1.82674 0
M  V30 20012 H 1905.96 5.08435 -0.985626 0
M  V30 20013 H 1902.64 3.95575 1.33517 0
M  V30 20014 H 1904.03 6.46383 -1.83409 0
M  V30 20015 N 1906.75 0.369315 1.53212 0
M  V30 20016 C 1908 -0.219209 2.0131 0
M  V30 20017 C 1908.32 -1.48469 1.25647 0
M  V30 20018 O 1907.58 -1.92734 0.339443 0
M  V30 20019 C 1907.88 -0.553392 3.5309 0
M  V30 20020 C 1907.54 0.618198 4.46642 0
M  V30 20021 C 1906.21 0.939656 4.71936 0
M  V30 20022 C 1908.56 1.40294 5.01963 0
M  V30 20023 C 1905.89 2.04776 5.49803 0
M  V30 20024 C 1908.24 2.50149 5.81041 0
M  V30 20025 C 1906.9 2.82826 6.0462 0
M  V30 20026 H 1906.17 -0.0802141 0.736646 0
M  V30 20027 H 1908.82 0.502547 1.84788 0
M  V30 20028 H 1907.12 -1.35621 3.67579 0
M  V30 20029 H 1908.82 -1.02106 3.87783 0
M  V30 20030 H 1905.41 0.35762 4.27105 0
M  V30 20031 H 1909.6 1.16784 4.82364 0
M  V30 20032 H 1904.85 2.30487 5.66291 0
M  V30 20033 H 1909.03 3.1137 6.22914 0
M  V30 20034 H 1906.65 3.68812 6.64742 0
M  V30 20035 N 1908.23 -1.57291 0.0985816 0
M  V30 20036 C 1909.5 -1.85951 -0.606759 0
M  V30 20037 C 1909.88 -0.996077 -1.86122 0
M  V30 20038 O 1909.23 -0.0694281 -2.28394 0
M  V30 20039 C 1909.44 -3.36688 -0.918803 0
M  V30 20040 C 1910.79 -4.04824 -1.28074 0
M  V30 20041 O 1911.81 -3.41589 -1.00971 0
M  V30 20042 O 1910.67 -5.16406 -1.7885 0
M  V30 20043 H 1907.77 -0.769103 -0.30399 0
M  V30 20044 H 1910.31 -1.69189 0.131543 0
M  V30 20045 H 1909.09 -3.91289 -0.0289848 0
M  V30 20046 H 1908.71 -3.58808 -1.71296 0
M  V30 20047 N 1909.71 0.175127 -1.56624 0
M  V30 20048 C 1910.95 0.890605 -1.81418 0
M  V30 20049 C 1911.27 1.82946 -0.674958 0
M  V30 20050 O 1910.54 1.93504 0.305439 0
M  V30 20051 H 1909.12 0.331864 -0.669235 0
M  V30 20052 H 1911.79 0.175855 -1.94105 0
M  V30 20053 H 1910.88 1.46979 -2.75325 0
M  V30 20054 N 1911.18 1.5123 0.44355 0
M  V30 20055 C 1912.41 1.67146 1.21432 0
M  V30 20056 C 1912.82 0.365681 1.85632 0
M  V30 20057 O 1912.16 -0.665141 1.71235 0
M  V30 20058 C 1912.23 2.72562 2.34415 0
M  V30 20059 C 1911.89 4.15341 1.90632 0
M  V30 20060 C 1912.89 5.00323 1.41325 0
M  V30 20061 C 1910.57 4.61409 1.98513 0
M  V30 20062 C 1912.57 6.29431 1.00476 0
M  V30 20063 C 1910.25 5.90515 1.57276 0
M  V30 20064 C 1911.25 6.74353 1.08339 0
M  V30 20065 O 1910.94 8.01046 0.676843 0
M  V30 20066 H 1910.67 0.564225 0.372325 0
M  V30 20067 H 1913.23 1.98375 0.532597 0
M  V30 20068 H 1911.46 2.36634 3.05845 0
M  V30 20069 H 1913.14 2.77419 2.96299 0
M  V30 20070 H 1913.91 4.65938 1.34636 0
M  V30 20071 H 1909.79 3.96279 2.3555 0
M  V30 20072 H 1913.33 6.94821 0.622093 0
M  V30 20073 H 1909.23 6.24415 1.63633 0
M  V30 20074 H 1910 8.14549 0.803247 0
M  V30 20075 N 1912.66 -0.698586 1.41271 0
M  V30 20076 C 1913.61 -1.81256 1.42881 0
M  V30 20077 C 1914.58 -1.63662 0.283562 0
M  V30 20078 O 1915.76 -1.84555 0.48416 0
M  V30 20079 C 1912.9 -3.19113 1.31381 0
M  V30 20080 C 1912.02 -3.4816 2.55751 0
M  V30 20081 C 1911.15 -4.75615 2.36566 0
M  V30 20082 C 1910.19 -4.9762 3.56427 0
M  V30 20083 N 1909.33 -6.16299 3.36332 0
M  V30 20084 H 1914.17 -1.79214 2.38089 0
M  V30 20085 H 1911.7 -0.875213 1.1823 0
M  V30 20086 H 1913.66 -3.98744 1.22716 0
M  V30 20087 H 1912.29 -3.20339 0.397831 0
M  V30 20088 H 1911.34 -2.62957 2.74878 0
M  V30 20089 H 1912.66 -3.60323 3.44918 0
M  V30 20090 H 1911.81 -5.63295 2.25352 0
M  V30 20091 H 1910.55 -4.65693 1.44851 0
M  V30 20092 H 1909.55 -4.0839 3.681 0
M  V30 20093 H 1910.78 -5.09404 4.49093 0
M  V30 20094 H 1908.73 -6.07595 2.47314 0
M  V30 20095 H 1908.64 -6.29216 4.19074 0
M  V30 20096 H 1909.91 -7.06722 3.28884 0
M  V30 20097 N 1914.14 -1.27049 -0.93254 0
M  V30 20098 C 1915.07 -1.05151 -2.03656 0
M  V30 20099 C 1916.08 -0.00913996 -1.62797 0
M  V30 20100 O 1917.27 -0.25017 -1.76738 0
M  V30 20101 C 1914.37 -0.572071 -3.34037 0
M  V30 20102 C 1913.55 -1.68563 -4.03615 0
M  V30 20103 C 1912.61 -1.20276 -5.12269 0
M  V30 20104 O 1911.63 -1.9015 -5.36499 0
M  V30 20105 N 1912.83 -0.0558099 -5.80473 0
M  V30 20106 H 1915.6 -2.00221 -2.23006 0
M  V30 20107 H 1913.16 -1.18551 -1.1026 0
M  V30 20108 H 1915.15 -0.233036 -4.04029 0
M  V30 20109 H 1913.72 0.285274 -3.11296 0
M  V30 20110 H 1912.94 -2.19519 -3.27422 0
M  V30 20111 H 1914.23 -2.43313 -4.46852 0
M  V30 20112 H 1913.63 0.527516 -5.63235 0
M  V30 20113 H 1912.18 0.224082 -6.51415 0
M  V30 20114 N 1915.62 1.13835 -1.08993 0
M  V30 20115 C 1916.55 2.18781 -0.683177 0
M  V30 20116 C 1917.56 1.60499 0.272748 0
M  V30 20117 O 1918.75 1.78401 0.059482 0
M  V30 20118 C 1915.85 3.38897 0.0146723 0
M  V30 20119 C 1915.02 4.26697 -0.961666 0
M  V30 20120 C 1914.08 5.25355 -0.298041 0
M  V30 20121 O 1913.11 5.61312 -0.944303 0
M  V30 20122 N 1914.31 5.7268 0.949645 0
M  V30 20123 H 1917.08 2.54293 -1.58605 0
M  V30 20124 H 1914.64 1.29114 -0.976792 0
M  V30 20125 H 1916.63 4.01965 0.469724 0
M  V30 20126 H 1915.2 3.01661 0.819722 0
M  V30 20127 H 1914.42 3.60473 -1.5954 0
M  V30 20128 H 1915.71 4.82218 -1.62305 0
M  V30 20129 H 1915.11 5.45606 1.49433 0
M  V30 20130 H 1913.66 6.37707 1.34809 0
M  V30 20131 N 1917.1 0.876467 1.3098 0
M  V30 20132 C 1918.34 0.489671 1.96078 0
M  V30 20133 C 1918.66 -0.962603 1.69585 0
M  V30 20134 O 1917.93 -1.67568 1.01478 0
M  V30 20135 H 1916.51 0.178091 0.72546 0
M  V30 20136 H 1919.18 1.11768 1.59668 0
M  V30 20137 H 1918.27 0.652822 3.05196 0
M  V30 20138 N 1918.57 -1.44173 0.636557 0
M  V30 20139 C 1919.82 -2.02292 0.143429 0
M  V30 20140 C 1920.15 -1.49996 -1.23348 0
M  V30 20141 O 1919.43 -0.686228 -1.81992 0
M  V30 20142 C 1919.71 -3.59843 0.136025 0
M  V30 20143 C 1919.56 -4.22409 1.54566 0
M  V30 20144 C 1920.88 -4.36817 -0.536538 0
M  V30 20145 H 1918 -0.735049 0.0535939 0
M  V30 20146 H 1920.64 -1.71677 0.814066 0
M  V30 20147 H 1918.79 -3.86056 -0.435048 0
M  V30 20148 H 1920.47 -4.07284 2.16604 0
M  V30 20149 H 1918.71 -3.79696 2.09793 0
M  V30 20150 H 1919.38 -5.31441 1.49247 0
M  V30 20151 H 1921.86 -4.16069 -0.0508327 0
M  V30 20152 H 1920.73 -5.46517 -0.510926 0
M  V30 20153 H 1920.99 -4.11827 -1.60783 0
M  V30 20154 N 1920.05 -0.377435 -1.53014 0
M  V30 20155 C 1921.3 0.208838 -2.01722 0
M  V30 20156 C 1921.63 1.47446 -1.26385 0
M  V30 20157 O 1920.91 1.91122 -0.360903 0
M  V30 20158 C 1921.19 0.4888 -3.56767 0
M  V30 20159 C 1921.04 -0.791285 -4.42785 0
M  V30 20160 C 1922.36 1.28443 -4.2094 0
M  V30 20161 H 1919.48 0.0744281 -0.733232 0
M  V30 20162 H 1922.12 -0.504664 -1.83175 0
M  V30 20163 H 1920.27 1.09662 -3.72702 0
M  V30 20164 H 1921.94 -1.42848 -4.38625 0
M  V30 20165 H 1920.19 -1.40914 -4.10275 0
M  V30 20166 H 1920.86 -0.550199 -5.49251 0
M  V30 20167 H 1923.33 0.770147 -4.08911 0
M  V30 20168 H 1922.21 1.44906 -5.29427 0
M  V30 20169 H 1922.47 2.29631 -3.77786 0
M  V30 20170 N 1921.53 1.57237 -0.106922 0
M  V30 20171 C 1922.78 1.9395 0.553733 0
M  V30 20172 C 1923.09 0.991678 1.68597 0
M  V30 20173 O 1924.3 1.25299 2.40858 0
M  V30 20174 C 1922.75 3.44655 1.0364 0
M  V30 20175 C 1922.36 4.4795 -0.0667311 0
M  V30 20176 C 1924.11 3.90309 1.66911 0
M  V30 20177 C 1922.01 5.8982 0.431953 0
M  V30 20178 H 1920.94 0.723986 0.21062 0
M  V30 20179 H 1923.59 1.82567 -0.18483 0
M  V30 20180 H 1921.98 3.51231 1.82901 0
M  V30 20181 H 1923.15 4.5303 -0.842624 0
M  V30 20182 H 1921.47 4.11976 -0.605358 0
M  V30 20183 H 1924.06 4.9371 2.05315 0
M  V30 20184 H 1924.41 3.29612 2.54287 0
M  V30 20185 H 1924.94 3.86483 0.942119 0
M  V30 20186 H 1921.68 6.54245 -0.405469 0
M  V30 20187 H 1921.2 5.88187 1.17459 0
M  V30 20188 H 1922.88 6.4075 0.897104 0
M  V30 20189 N 1923.01 -0.166818 1.56715 0
M  V30 20190 C 1923.94 -1.23537 1.91869 0
M  V30 20191 C 1924.92 -1.42558 0.78204 0
M  V30 20192 O 1926.1 -1.57492 1.03578 0
M  V30 20193 C 1923.23 -2.5976 2.17353 0
M  V30 20194 C 1922.28 -2.57449 3.40033 0
M  V30 20195 S 1923.11 -2.06088 4.94255 0
M  V30 20196 C 1924.27 -3.4408 5.22838 0
M  V30 20197 H 1924.5 -0.935341 2.82203 0
M  V30 20198 H 1922.03 -0.371582 1.49862 0
M  V30 20199 H 1923.99 -3.38162 2.32716 0
M  V30 20200 H 1922.65 -2.86961 1.27719 0
M  V30 20201 H 1921.84 -3.5768 3.55079 0
M  V30 20202 H 1921.45 -1.87145 3.2381 0
M  V30 20203 H 1923.74 -4.40099 5.15092 0
M  V30 20204 H 1924.68 -3.33905 6.2443 0
M  V30 20205 H 1925.09 -3.403 4.50396 0
M  V30 20206 N 1924.49 -1.51463 -0.435524 0
M  V30 20207 C 1925.76 -1.54763 -1.19615 0
M  V30 20208 C 1926.14 -0.312969 -2.08767 0
M  V30 20209 O 1925.49 0.701834 -2.17455 0
M  V30 20210 C 1925.7 -2.86259 -1.99642 0
M  V30 20211 C 1927.05 -3.38276 -2.56621 0
M  V30 20212 O 1928.07 -2.87821 -2.09851 0
M  V30 20213 O 1926.93 -4.26318 -3.41929 0
M  V30 20214 H 1924.03 -0.622293 -0.544684 0
M  V30 20215 H 1926.57 -1.63777 -0.444446 0
M  V30 20216 H 1925.34 -3.67578 -1.34173 0
M  V30 20217 H 1924.97 -2.80416 -2.81874 0
M  V30 20218 N 1925.96 0.691085 -1.4164 0
M  V30 20219 C 1927.24 1.44595 -1.31726 0
M  V30 20220 C 1927.62 2.11033 0.0530624 0
M  V30 20221 O 1926.97 2.02027 1.06759 0
M  V30 20222 C 1927.18 2.46172 -2.47387 0
M  V30 20223 C 1928.53 3.11293 -2.88759 0
M  V30 20224 O 1929.55 2.56497 -2.47159 0
M  V30 20225 O 1928.41 4.10551 -3.60707 0
M  V30 20226 H 1925.5 0.644163 -0.518635 0
M  V30 20227 H 1928.05 0.721184 -1.53613 0
M  V30 20228 H 1926.82 1.95764 -3.3881 0
M  V30 20229 H 1926.45 3.26151 -2.27401 0
M  V30 20230 N 1927.44 1.27542 0.925789 0
M  V30 20231 C 1928.37 1.12952 2.04363 0
M  V30 20232 C 1929.35 0.0304761 1.70073 0
M  V30 20233 O 1930.54 0.205307 1.93112 0
M  V30 20234 C 1927.67 0.777954 3.38475 0
M  V30 20235 C 1926.62 1.83044 3.86883 0
M  V30 20236 C 1925.95 1.3328 5.17823 0
M  V30 20237 C 1927.25 3.23488 4.10065 0
M  V30 20238 H 1928.94 2.06462 2.16827 0
M  V30 20239 H 1926.49 0.994046 1.04186 0
M  V30 20240 H 1928.44 0.662702 4.16156 0
M  V30 20241 H 1927.17 -0.192851 3.2603 0
M  V30 20242 H 1925.82 1.93463 3.11396 0
M  V30 20243 H 1925.47 0.351399 5.01771 0
M  V30 20244 H 1925.17 2.03648 5.51182 0
M  V30 20245 H 1926.7 1.23053 5.98072 0
M  V30 20246 H 1928.11 3.16058 4.7831 0
M  V30 20247 H 1926.51 3.91583 4.54734 0
M  V30 20248 H 1927.58 3.68399 3.15293 0
M  V30 20249 N 1928.92 -1.13255 1.09595 0
M  V30 20250 C 1929.87 -2.20794 0.731624 0
M  V30 20251 C 1930.86 -1.67263 -0.268256 0
M  V30 20252 O 1932.07 -1.79533 -0.129535 0
M  V30 20253 H 1928.44 -0.719521 0.218618 0
M  V30 20254 H 1930.41 -2.48784 1.6477 0
M  V30 20255 C 1929.16 -3.47283 0.170214 0
M  V30 20256 H 1928.49 -3.88814 0.930805 0
M  V30 20257 H 1929.93 -4.23974 -0.0467499 0
M  V30 20258 C 1928.39 -3.18609 -1.09497 0
M  V30 20259 O 1928.92 -3.37534 -2.17793 0
M  V30 20260 N 1927.12 -2.72477 -1.01017 0
M  V30 20261 H 1926.67 -2.57278 -0.128814 0
M  V30 20262 H 1926.63 -2.53668 -1.85741 0
M  V30 20263 N 1930.4 -0.883401 -1.30514 0
M  V30 20264 C 1931.33 -0.306278 -2.27144 0
M  V30 20265 C 1932.34 0.538264 -1.53644 0
M  V30 20266 O 1933.53 0.35807 -1.74872 0
M  V30 20267 C 1930.63 0.583276 -3.33843 0
M  V30 20268 C 1929.81 -0.231845 -4.36785 0
M  V30 20269 C 1928.86 0.587955 -5.22905 0
M  V30 20270 O 1927.89 0.0112122 -5.69199 0
M  V30 20271 N 1929.09 1.89737 -5.48617 0
M  V30 20272 H 1931.86 -1.13674 -2.77306 0
M  V30 20273 H 1929.42 -0.746227 -1.43677 0
M  V30 20274 H 1931.41 1.13773 -3.88379 0
M  V30 20275 H 1929.98 1.31441 -2.83623 0
M  V30 20276 H 1929.2 -0.967741 -3.82137 0
M  V30 20277 H 1930.49 -0.790664 -5.02619 0
M  V30 20278 H 1929.89 2.38889 -5.12785 0
M  V30 20279 H 1928.44 2.39931 -6.06033 0
M  V30 20280 N 1931.88 1.43833 -0.644194 0
M  V30 20281 C 1932.82 2.32509 0.0649184 0
M  V30 20282 C 1933.82 1.48097 0.822405 0
M  V30 20283 O 1935.02 1.64362 0.733827 0
M  V30 20284 H 1931.4 0.750948 0.0397724 0
M  V30 20285 H 1933.37 2.90053 -0.700857 0
M  V30 20286 C 1932.12 3.32282 1.02391 0
M  V30 20287 H 1931.44 3.97254 0.45047 0
M  V30 20288 H 1932.88 3.96982 1.48933 0
M  V30 20289 C 1931.34 2.62194 2.11556 0
M  V30 20290 O 1931.87 2.43066 3.19815 0
M  V30 20291 N 1930.08 2.21717 1.87856 0
M  V30 20292 H 1929.62 2.37474 0.998189 0
M  V30 20293 H 1929.58 1.7515 2.61093 0
M  V30 20294 N 1933.35 0.385544 1.52811 0
M  V30 20295 C 1934.77 -0.0893152 1.86486 0
M  V30 20296 C 1935.12 -1.46473 1.30538 0
M  V30 20297 O 1934.24 -2.06866 0.635244 0
M  V30 20298 C 1934.84 -0.168846 3.38379 0
M  V30 20299 C 1933.4 -0.587992 3.71779 0
M  V30 20300 C 1932.54 0.252389 2.76149 0
M  V30 20301 H 1935.49 0.603569 1.46774 0
M  V30 20302 H 1935.51 -0.988694 3.6743 0
M  V30 20303 H 1935.03 0.832334 3.7907 0
M  V30 20304 H 1933.13 -1.59668 3.36656 0
M  V30 20305 H 1933.24 -0.34875 4.77829 0
M  V30 20306 H 1931.6 -0.281775 2.53137 0
M  V30 20307 H 1932.39 1.25148 3.19676 0
M  V30 20308 N 1934.83 -1.57178 0.115259 0
M  V30 20309 C 1936.11 -1.86584 -0.587002 0
M  V30 20310 C 1936.49 -1.01576 -1.85055 0
M  V30 20311 O 1935.84 -0.0936485 -2.28308 0
M  V30 20312 C 1936.05 -3.37644 -0.883041 0
M  V30 20313 C 1937.4 -4.06159 -1.23773 0
M  V30 20314 O 1938.42 -3.42641 -0.973422 0
M  V30 20315 O 1937.28 -5.18274 -1.73363 0
M  V30 20316 H 1934.37 -0.772284 -0.295816 0
M  V30 20317 H 1936.92 -1.6904 0.14948 0
M  V30 20318 H 1935.69 -3.91298 0.0125183 0
M  V30 20319 H 1935.31 -3.60605 -1.67481 0
M  V30 20320 N 1936.31 0.158505 -1.56801 0
M  V30 20321 C 1937.56 0.871313 -1.82353 0
M  V30 20322 C 1937.88 1.8222 -0.694324 0
M  V30 20323 O 1937.15 1.93817 0.284899 0
M  V30 20324 H 1935.73 0.324747 -0.672717 0
M  V30 20325 H 1938.39 0.155257 -1.94281 0
M  V30 20326 H 1937.49 1.44051 -2.76868 0
M  V30 20327 N 1937.79 1.51692 0.427485 0
M  V30 20328 C 1938.75 1.73114 1.50214 0
M  V30 20329 C 1939.75 0.601079 1.49143 0
M  V30 20330 O 1940.94 0.86875 1.50991 0
M  V30 20331 C 1938.07 1.79666 2.89712 0
M  V30 20332 H 1939.27 2.69033 1.32518 0
M  V30 20333 H 1936.82 1.4183 0.656804 0
M  V30 20334 H 1937.56 0.855968 3.128 0
M  V30 20335 H 1937.34 2.61803 2.91893 0
M  V30 20336 H 1938.83 1.98045 3.67652 0
M  V30 20337 N 1939.27 -0.683564 1.42004 0
M  V30 20338 C 1940.54 -1.43894 1.32491 0
M  V30 20339 C 1940.92 -2.11058 -0.0418701 0
M  V30 20340 O 1940.27 -2.0259 -1.05686 0
M  V30 20341 C 1940.48 -2.44856 2.48689 0
M  V30 20342 C 1941.83 -3.09758 2.90405 0
M  V30 20343 O 1942.85 -2.55182 2.48516 0
M  V30 20344 O 1941.71 -4.08633 3.6288 0
M  V30 20345 H 1938.81 -0.641404 0.522044 0
M  V30 20346 H 1941.35 -0.713027 1.53994 0
M  V30 20347 H 1940.13 -1.93964 3.39843 0
M  V30 20348 H 1939.75 -3.24941 2.29127 0
M  V30 20349 N 1940.75 -1.28031 -0.919012 0
M  V30 20350 C 1941.68 -1.05827 -2.02178 0
M  V30 20351 C 1942.66 0.0240301 -1.62582 0
M  V30 20352 O 1943.84 -0.122854 -1.88099 0
M  V30 20353 C 1940.97 -0.607109 -3.33214 0
M  V30 20354 C 1940.01 -1.68527 -3.91792 0
M  V30 20355 S 1940.85 -3.27994 -4.23297 0
M  V30 20356 C 1942 -2.847 -5.57402 0
M  V30 20357 H 1942.24 -1.99194 -2.20702 0
M  V30 20358 H 1939.77 -1.1196 -1.06322 0
M  V30 20359 H 1941.73 -0.353498 -4.08975 0
M  V30 20360 H 1940.39 0.306635 -3.126 0
M  V30 20361 H 1939.58 -1.3211 -4.86377 0
M  V30 20362 H 1939.18 -1.89141 -3.22648 0
M  V30 20363 H 1941.47 -2.30544 -6.37068 0
M  V30 20364 H 1942.42 -3.78063 -5.98727 0
M  V30 20365 H 1942.83 -2.23575 -5.18338 0
M  V30 20366 N 1942.22 1.12672 -1.10194 0
M  V30 20367 C 1943.17 2.18326 -0.748496 0
M  V30 20368 C 1944.14 1.63824 0.274007 0
M  V30 20369 O 1945.33 1.90179 0.153852 0
M  V30 20370 C 1942.47 3.4461 -0.183772 0
M  V30 20371 C 1941.58 4.13178 -1.26127 0
M  V30 20372 C 1940.71 5.27103 -0.658462 0
M  V30 20373 C 1939.75 5.87533 -1.71672 0
M  V30 20374 N 1938.89 6.92876 -1.13435 0
M  V30 20375 H 1943.73 2.47906 -1.65369 0
M  V30 20376 H 1941.27 1.21715 -0.826064 0
M  V30 20377 H 1943.22 4.16887 0.161511 0
M  V30 20378 H 1941.85 3.15456 0.684657 0
M  V30 20379 H 1940.91 3.39105 -1.72372 0
M  V30 20380 H 1942.22 4.54163 -2.06246 0
M  V30 20381 H 1941.37 6.06132 -0.26248 0
M  V30 20382 H 1940.11 4.87389 0.174183 0
M  V30 20383 H 1939.12 5.07193 -2.12215 0
M  V30 20384 H 1940.34 6.29318 -2.55217 0
M  V30 20385 H 1938.29 6.55204 -0.323127 0
M  V30 20386 H 1938.2 7.32446 -1.8724 0
M  V30 20387 H 1939.47 7.75739 -0.764838 0
M  V30 20388 N 1943.7 0.89031 1.30043 0
M  V30 20389 C 1944.63 0.377386 2.3043 0
M  V30 20390 C 1945.61 -0.542607 1.61213 0
M  V30 20391 O 1946.8 -0.455328 1.88787 0
M  V30 20392 C 1943.93 -0.404264 3.44939 0
M  V30 20393 C 1942.88 0.424448 4.2589 0
M  V30 20394 C 1942.21 -0.48413 5.32504 0
M  V30 20395 C 1943.51 1.6694 4.94902 0
M  V30 20396 H 1945.2 1.21628 2.73582 0
M  V30 20397 H 1942.75 0.586299 1.31524 0
M  V30 20398 H 1944.7 -0.773769 4.14235 0
M  V30 20399 H 1943.42 -1.27685 3.00606 0
M  V30 20400 H 1942.08 0.776162 3.58289 0
M  V30 20401 H 1941.73 -1.35458 4.84417 0
M  V30 20402 H 1941.43 0.0665939 5.87562 0
M  V30 20403 H 1942.96 -0.850034 6.04654 0
M  V30 20404 H 1944.37 1.37017 5.56686 0
M  V30 20405 H 1942.77 2.16073 5.59851 0
M  V30 20406 H 1943.84 2.41077 4.20725 0
M  V30 20407 N 1945.18 -1.43489 0.651812 0
M  V30 20408 C 1946.43 -2.0183 0.164632 0
M  V30 20409 C 1946.75 -1.51408 -1.2209 0
M  V30 20410 O 1946.01 -0.697062 -1.82865 0
M  V30 20411 C 1946.31 -3.57189 0.122885 0
M  V30 20412 C 1945.97 -4.2695 1.44997 0
M  V30 20413 C 1944.64 -4.45724 1.81339 0
M  V30 20414 C 1946.99 -4.66468 2.32501 0
M  V30 20415 C 1944.32 -5.0128 3.04853 0
M  V30 20416 C 1946.67 -5.23393 3.55306 0
M  V30 20417 C 1945.33 -5.40383 3.91845 0
M  V30 20418 H 1944.6 -0.738547 0.0602433 0
M  V30 20419 H 1947.25 -1.71984 0.842241 0
M  V30 20420 H 1945.55 -3.86568 -0.638169 0
M  V30 20421 H 1947.25 -4.00084 -0.270911 0
M  V30 20422 H 1943.84 -4.12682 1.15721 0
M  V30 20423 H 1948.03 -4.51658 2.05715 0
M  V30 20424 H 1943.28 -5.1262 3.33213 0
M  V30 20425 H 1947.46 -5.52961 4.23329 0
M  V30 20426 H 1945.08 -5.83197 4.87632 0
M  V30 20427 N 1946.66 -0.393643 -1.52605 0
M  V30 20428 C 1947.9 0.186875 -2.03544 0
M  V30 20429 C 1948.26 1.43681 -1.27357 0
M  V30 20430 O 1949.46 2.09477 -1.68443 0
M  V30 20431 C 1947.73 0.444006 -3.54631 0
M  V30 20432 S 1949.29 0.994186 -4.27389 0
M  V30 20433 H 1946.11 0.0522497 -0.709078 0
M  V30 20434 H 1948.71 -0.542992 -1.87808 0
M  V30 20435 H 1947.42 -0.472739 -4.07668 0
M  V30 20436 H 1946.95 1.20218 -3.74581 0
M  V30 20437 H 1948.96 2.27617 -4.40914 0
M  V30 20438 N 1948.14 1.57115 -0.123593 0
M  V30 20439 C 1949.07 2.12637 0.855463 0
M  V30 20440 C 1950.08 1.07017 1.22683 0
M  V30 20441 O 1951.27 1.34374 1.17498 0
M  V30 20442 C 1948.37 2.61484 2.15591 0
M  V30 20443 C 1947.54 3.91252 1.95553 0
M  V30 20444 C 1946.6 4.25649 3.09369 0
M  V30 20445 O 1945.63 4.94387 2.82082 0
M  V30 20446 N 1946.83 3.83339 4.35926 0
M  V30 20447 H 1949.59 2.97267 0.381076 0
M  V30 20448 H 1947.16 1.61786 0.0606943 0
M  V30 20449 H 1949.15 2.81522 2.90736 0
M  V30 20450 H 1947.72 1.81708 2.54364 0
M  V30 20451 H 1946.94 3.80076 1.04575 0
M  V30 20452 H 1948.23 4.76095 1.79474 0
M  V30 20453 H 1947.62 3.27908 4.6097 0
M  V30 20454 H 1946.18 4.08477 5.07927 0
M  V30 20455 N 1949.61 -0.150187 1.56883 0
M  V30 20456 C 1950.55 -1.21495 1.93169 0
M  V30 20457 C 1951.52 -1.41721 0.797116 0
M  V30 20458 O 1952.71 -1.56385 1.05243 0
M  V30 20459 C 1949.84 -2.5744 2.20096 0
M  V30 20460 C 1948.88 -2.53828 3.42744 0
M  V30 20461 S 1949.71 -2.00835 4.96413 0
M  V30 20462 C 1950.87 -3.38515 5.26458 0
M  V30 20463 H 1951.1 -0.905357 2.83179 0
M  V30 20464 H 1948.64 -0.355666 1.50248 0
M  V30 20465 H 1950.59 -3.35675 2.3629 0
M  V30 20466 H 1949.26 -2.85591 1.30755 0
M  V30 20467 H 1948.45 -3.53894 3.58852 0
M  V30 20468 H 1948.05 -1.837 3.25776 0
M  V30 20469 H 1950.34 -4.34611 5.19731 0
M  V30 20470 H 1951.29 -3.27263 6.27937 0
M  V30 20471 H 1951.69 -3.35503 4.5398 0
M  V30 20472 N 1951.09 -1.51916 -0.419434 0
M  V30 20473 C 1952.34 -1.65714 -1.16905 0
M  V30 20474 C 1952.67 -0.380888 -1.90428 0
M  V30 20475 O 1951.95 0.620297 -1.84344 0
M  V30 20476 C 1952.23 -2.87239 -2.17177 0
M  V30 20477 C 1952.08 -4.24887 -1.47619 0
M  V30 20478 C 1953.4 -3.04281 -3.17964 0
M  V30 20479 H 1950.52 -0.603072 -0.423643 0
M  V30 20480 H 1953.16 -1.84446 -0.456035 0
M  V30 20481 H 1951.31 -2.71398 -2.77984 0
M  V30 20482 H 1952.98 -4.52433 -0.900112 0
M  V30 20483 H 1951.23 -4.26761 -0.778273 0
M  V30 20484 H 1951.9 -5.05945 -2.20733 0
M  V30 20485 H 1954.37 -3.18951 -2.67226 0
M  V30 20486 H 1953.25 -3.90843 -3.85399 0
M  V30 20487 H 1953.51 -2.17138 -3.85102 0
M  V30 20488 N 1952.57 0.676023 -1.42365 0
M  V30 20489 C 1953.8 1.46937 -1.46371 0
M  V30 20490 C 1954.22 1.87946 -0.076099 0
M  V30 20491 O 1953.58 1.55917 0.925172 0
M  V30 20492 C 1953.63 2.69558 -2.39523 0
M  V30 20493 O 1952.73 3.67782 -1.86575 0
M  V30 20494 H 1952.07 0.441478 -0.495977 0
M  V30 20495 H 1954.6 0.829284 -1.8704 0
M  V30 20496 H 1954.61 3.17642 -2.56061 0
M  V30 20497 H 1953.29 2.39049 -3.40336 0
M  V30 20498 H 1951.86 3.26808 -1.79585 0
M  V30 20499 N 1954.05 1.28517 0.912209 0
M  V30 20500 C 1955.28 1.18615 1.69523 0
M  V30 20501 C 1955.69 -0.254997 1.8707 0
M  V30 20502 O 1955.05 -1.17217 1.3988 0
M  V30 20503 C 1955.1 1.88188 3.08655 0
M  V30 20504 O 1954.82 3.26673 2.91918 0
M  V30 20505 C 1956.32 1.84607 4.03032 0
M  V30 20506 H 1953.54 0.411679 0.529869 0
M  V30 20507 H 1956.09 1.69668 1.14162 0
M  V30 20508 H 1954.24 1.41001 3.60829 0
M  V30 20509 H 1954.65 3.61538 3.79987 0
M  V30 20510 H 1956.13 2.37874 4.98116 0
M  V30 20511 H 1956.61 0.818787 4.315 0
M  V30 20512 H 1957.21 2.3148 3.56787 0
M  V30 20513 N 1955.53 -1.12086 1.1079 0
M  V30 20514 C 1956.77 -1.83949 0.853848 0
M  V30 20515 C 1957.11 -1.8407 -0.619029 0
M  V30 20516 O 1956.38 -1.28889 -1.45664 0
M  V30 20517 C 1956.66 -3.31452 1.40754 0
M  V30 20518 C 1956.52 -3.39765 2.94754 0
M  V30 20519 C 1957.84 -4.2732 1.05288 0
M  V30 20520 H 1954.95 -0.667872 0.311635 0
M  V30 20521 H 1957.6 -1.31475 1.37166 0
M  V30 20522 H 1955.75 -3.7627 0.967112 0
M  V30 20523 H 1957.42 -3.03555 3.4735 0
M  V30 20524 H 1955.66 -2.80196 3.31168 0
M  V30 20525 H 1956.33 -4.43553 3.2858 0
M  V30 20526 H 1958.81 -3.90647 1.43297 0
M  V30 20527 H 1957.68 -5.28929 1.46716 0
M  V30 20528 H 1957.95 -4.42084 -0.0372227 0
M  V30 20529 N 1957 -0.897194 -1.29569 0
M  V30 20530 C 1957.91 -0.377551 -2.31542 0
M  V30 20531 C 1958.93 0.526431 -1.65845 0
M  V30 20532 O 1960.11 0.416614 -1.97044 0
M  V30 20533 C 1957.17 0.388744 -3.44514 0
M  V30 20534 C 1956.23 -0.546458 -4.25808 0
M  V30 20535 C 1955.47 0.183361 -5.33385 0
M  V30 20536 O 1955.69 1.40767 -5.52757 0
M  V30 20537 O 1954.62 -0.472827 -6.0004 0
M  V30 20538 H 1958.45 -1.22348 -2.77965 0
M  V30 20539 H 1956.03 -0.661433 -1.33961 0
M  V30 20540 H 1957.92 0.822167 -4.13302 0
M  V30 20541 H 1956.59 1.21077 -3.00203 0
M  V30 20542 H 1955.5 -1.02894 -3.59671 0
M  V30 20543 H 1956.83 -1.33483 -4.73754 0
M  V30 20544 N 1958.48 1.43142 -0.659413 0
M  V30 20545 C 1959.73 2.0174 -0.175334 0
M  V30 20546 C 1960.06 1.52053 1.21285 0
M  V30 20547 O 1959.31 0.70675 1.82493 0
M  V30 20548 C 1959.61 3.57118 -0.141826 0
M  V30 20549 C 1959.28 4.26175 -1.47259 0
M  V30 20550 C 1957.94 4.44756 -1.837 0
M  V30 20551 C 1960.29 4.65229 -2.34972 0
M  V30 20552 C 1957.62 4.99656 -3.07507 0
M  V30 20553 C 1959.97 5.21502 -3.58076 0
M  V30 20554 C 1958.64 5.38297 -3.94705 0
M  V30 20555 H 1957.91 0.738217 -0.0641591 0
M  V30 20556 H 1960.55 1.71535 -0.85135 0
M  V30 20557 H 1958.86 3.86901 0.617659 0
M  V30 20558 H 1960.55 4.00222 0.249689 0
M  V30 20559 H 1957.14 4.12063 -1.17908 0
M  V30 20560 H 1961.33 4.50561 -2.08107 0
M  V30 20561 H 1956.58 5.10845 -3.35927 0
M  V30 20562 H 1960.76 5.50708 -4.26255 0
M  V30 20563 H 1958.39 5.80603 -4.90718 0
M  V30 20564 N 1959.96 0.40173 1.52394 0
M  V30 20565 C 1961.21 -0.177771 2.00915 0
M  V30 20566 C 1961.52 -1.46854 1.29203 0
M  V30 20567 O 1962.73 -2.12884 1.68501 0
M  V30 20568 C 1961.18 -0.367359 3.5802 0
M  V30 20569 C 1960.79 0.910882 4.38642 0
M  V30 20570 C 1962.54 -0.902552 4.14794 0
M  V30 20571 C 1960.44 0.688888 5.87374 0
M  V30 20572 H 1959.37 -0.0702091 0.750724 0
M  V30 20573 H 1962.02 0.52604 1.75798 0
M  V30 20574 H 1960.41 -1.13332 3.79436 0
M  V30 20575 H 1961.58 1.68242 4.28989 0
M  V30 20576 H 1959.9 1.37194 3.9315 0
M  V30 20577 H 1962.49 -1.08455 5.23585 0
M  V30 20578 H 1962.84 -1.87515 3.71677 0
M  V30 20579 H 1963.37 -0.19584 3.97318 0
M  V30 20580 H 1960.11 1.63284 6.34837 0
M  V30 20581 H 1959.63 -0.0434889 5.99784 0
M  V30 20582 H 1961.31 0.328207 6.46167 0
M  V30 20583 N 1961.44 -1.57047 0.131923 0
M  V30 20584 C 1962.85 -1.82552 -0.391375 0
M  V30 20585 C 1963.2 -1.04983 -1.6575 0
M  V30 20586 O 1962.33 -0.2904 -2.14443 0
M  V30 20587 C 1962.92 -3.3113 -0.716843 0
M  V30 20588 C 1961.48 -3.57269 -1.18472 0
M  V30 20589 C 1960.63 -2.76578 -0.200021 0
M  V30 20590 H 1963.58 -1.54636 0.356863 0
M  V30 20591 H 1963.6 -3.46463 -1.57302 0
M  V30 20592 H 1963.11 -3.87559 0.204844 0
M  V30 20593 H 1961.21 -3.06211 -2.12287 0
M  V30 20594 H 1961.32 -4.65798 -1.12111 0
M  V30 20595 H 1959.69 -2.45185 -0.689655 0
M  V30 20596 H 1960.47 -3.35772 0.71499 0
M  V30 20597 N 1962.92 0.141865 -1.5696 0
M  V30 20598 C 1964.33 0.701408 -1.73024 0
M  V30 20599 C 1964.68 1.81418 -0.747124 0
M  V30 20600 O 1963.8 2.16233 0.0851134 0
M  V30 20601 C 1964.4 1.2791 -3.13727 0
M  V30 20602 C 1962.96 1.78516 -3.31374 0
M  V30 20603 C 1962.1 0.67567 -2.68942 0
M  V30 20604 H 1965.06 -0.083853 -1.58478 0
M  V30 20605 H 1965.08 2.1489 -3.14011 0
M  V30 20606 H 1964.59 0.468988 -3.85256 0
M  V30 20607 H 1962.69 2.62078 -2.6485 0
M  V30 20608 H 1962.8 1.91034 -4.39366 0
M  V30 20609 H 1961.17 1.10358 -2.2955 0
M  V30 20610 H 1961.95 -0.123088 -3.43079 0
M  V30 20611 N 1964.39 1.52136 0.411372 0
M  V30 20612 C 1965.33 1.70036 1.52194 0
M  V30 20613 C 1966.31 0.547941 1.53089 0
M  V30 20614 O 1967.49 0.775017 1.71831 0
M  V30 20615 C 1964.62 1.73764 2.9073 0
M  V30 20616 C 1963.66 2.95279 3.07754 0
M  V30 20617 S 1964.5 4.55662 2.81305 0
M  V30 20618 C 1965.65 4.62173 4.22075 0
M  V30 20619 H 1965.88 2.63966 1.36781 0
M  V30 20620 H 1963.42 1.42147 0.6028 0
M  V30 20621 H 1965.38 1.76597 3.70572 0
M  V30 20622 H 1964.04 0.809659 3.03485 0
M  V30 20623 H 1963.23 2.94363 4.09104 0
M  V30 20624 H 1962.83 2.90322 2.35773 0
M  V30 20625 H 1965.12 4.39412 5.15678 0
M  V30 20626 H 1966.07 5.641 4.28015 0
M  V30 20627 H 1966.47 3.91228 4.06941 0
M  V30 20628 N 1965.87 -0.668464 1.42721 0
M  V30 20629 C 1966.84 -1.76365 1.46384 0
M  V30 20630 C 1967.84 -1.56932 0.350554 0
M  V30 20631 O 1969.03 -1.63109 0.611658 0
M  V30 20632 C 1966.16 -3.15071 1.30164 0
M  V30 20633 H 1967.35 -1.74503 2.43903 0
M  V30 20634 H 1964.9 -0.878695 1.29262 0
M  V30 20635 H 1965.64 -3.22555 0.335926 0
M  V30 20636 H 1965.42 -3.3058 2.10853 0
M  V30 20637 H 1966.91 -3.94963 1.35625 0
M  V30 20638 N 1967.35 -1.28999 -0.905381 0
M  V30 20639 C 1968.58 -1.19632 -1.69419 0
M  V30 20640 C 1969 0.240433 -1.86557 0
M  V30 20641 O 1968.36 1.17374 -1.38177 0
M  V30 20642 C 1968.41 -1.90881 -3.05936 0
M  V30 20643 O 1967.51 -1.22198 -3.9388 0
M  V30 20644 H 1966.85 -0.414842 -0.518461 0
M  V30 20645 H 1969.38 -1.70468 -1.13145 0
M  V30 20646 H 1969.39 -1.99115 -3.56114 0
M  V30 20647 H 1968.07 -2.95385 -2.9278 0
M  V30 20648 H 1966.64 -1.22185 -3.52314 0
M  V30 20649 N 1968.83 1.11497 -1.11383 0
M  V30 20650 C 1969.76 2.19592 -0.793827 0
M  V30 20651 C 1970.74 1.68433 0.237559 0
M  V30 20652 O 1971.93 1.93936 0.101164 0
M  V30 20653 C 1969.06 3.465 -0.235579 0
M  V30 20654 C 1968.01 4.10869 -1.19877 0
M  V30 20655 C 1967.34 5.32345 -0.501259 0
M  V30 20656 C 1968.64 4.55864 -2.54922 0
M  V30 20657 H 1970.33 2.46617 -1.69766 0
M  V30 20658 H 1967.88 1.18532 -0.817695 0
M  V30 20659 H 1969.83 4.214 0.000490272 0
M  V30 20660 H 1968.55 3.18932 0.703544 0
M  V30 20661 H 1967.21 3.37962 -1.42046 0
M  V30 20662 H 1966.86 5.01048 0.442652 0
M  V30 20663 H 1966.56 5.76363 -1.14367 0
M  V30 20664 H 1968.08 6.09985 -0.273968 0
M  V30 20665 H 1969.5 5.22089 -2.36845 0
M  V30 20666 H 1967.89 5.10693 -3.15139 0
M  V30 20667 H 1968.96 3.69342 -3.14189 0
M  V30 20668 N 1970.31 0.904053 1.29092 0
M  V30 20669 C 1971.22 0.389825 2.31339 0
M  V30 20670 C 1972.23 -0.517628 1.66122 0
M  V30 20671 O 1973.41 -0.406158 1.97262 0
M  V30 20672 C 1970.47 -0.370468 3.44715 0
M  V30 20673 C 1969.54 0.569032 4.25512 0
M  V30 20674 C 1968.77 -0.155071 5.33475 0
M  V30 20675 O 1968.99 -1.37834 5.53496 0
M  V30 20676 O 1967.93 0.504642 5.99781 0
M  V30 20677 H 1971.75 1.2382 2.77313 0
M  V30 20678 H 1969.34 0.668528 1.33608 0
M  V30 20679 H 1971.22 -0.800237 4.13732 0
M  V30 20680 H 1969.89 -1.19484 3.00841 0
M  V30 20681 H 1968.8 1.048 3.59121 0
M  V30 20682 H 1970.13 1.35994 4.7304 0
M  V30 20683 N 1971.79 -1.4279 0.666995 0
M  V30 20684 C 1972.7 -2.34594 -0.0164305 0
M  V30 20685 C 1973.71 -1.54657 -0.797322 0
M  V30 20686 O 1974.89 -1.87256 -0.741426 0
M  V30 20687 C 1971.95 -3.33102 -0.961469 0
M  V30 20688 C 1971.01 -4.28939 -0.17598 0
M  V30 20689 C 1970.25 -5.22741 -1.076 0
M  V30 20690 O 1970.47 -5.21289 -2.31546 0
M  V30 20691 O 1969.4 -5.99464 -0.541001 0
M  V30 20692 H 1973.23 -2.94557 0.739579 0
M  V30 20693 H 1970.81 -1.43162 0.427207 0
M  V30 20694 H 1972.7 -3.93639 -1.5042 0
M  V30 20695 H 1971.37 -2.75623 -1.69746 0
M  V30 20696 H 1970.28 -3.71839 0.410667 0
M  V30 20697 H 1971.61 -4.89438 0.520737 0
M  V30 20698 N 1973.26 -0.409806 -1.52179 0
M  V30 20699 C 1974.21 0.415351 -2.27032 0
M  V30 20700 C 1975.18 1.04048 -1.29473 0
M  V30 20701 O 1976.37 1.06462 -1.58336 0
M  V30 20702 C 1973.51 1.52571 -3.09542 0
M  V30 20703 C 1972.62 0.921439 -4.22059 0
M  V30 20704 C 1971.75 2.00455 -4.91926 0
M  V30 20705 C 1970.79 1.37725 -5.96404 0
M  V30 20706 N 1969.93 2.40054 -6.59787 0
M  V30 20707 H 1974.77 -0.22939 -2.97116 0
M  V30 20708 H 1972.31 -0.124962 -1.46568 0
M  V30 20709 H 1974.26 2.18046 -3.55685 0
M  V30 20710 H 1972.89 2.14047 -2.41627 0
M  V30 20711 H 1971.95 0.15572 -3.80081 0
M  V30 20712 H 1973.26 0.423208 -4.97001 0
M  V30 20713 H 1972.41 2.73655 -5.41477 0
M  V30 20714 H 1971.15 2.53644 -4.16552 0
M  V30 20715 H 1970.16 0.63059 -5.46172 0
M  V30 20716 H 1971.38 0.853049 -6.73721 0
M  V30 20717 H 1969.33 2.92374 -5.87242 0
M  V30 20718 H 1969.24 1.95045 -7.30406 0
M  V30 20719 H 1970.51 3.12822 -7.13977 0
M  V30 20720 N 1974.74 1.56975 -0.14025 0
M  V30 20721 C 1975.99 1.95519 0.51153 0
M  V30 20722 C 1976.31 1.02572 1.65843 0
M  V30 20723 O 1975.58 0.0859828 1.95711 0
M  V30 20724 H 1974.16 0.721914 0.191961 0
M  V30 20725 H 1976.82 1.9372 -0.214169 0
M  V30 20726 H 1975.92 2.99078 0.892131 0
M  V30 20727 N 1976.22 -0.133539 1.57033 0
M  V30 20728 C 1977.47 -0.842358 1.83268 0
M  V30 20729 C 1977.78 -1.81722 0.723634 0
M  V30 20730 O 1978.99 -2.57117 0.871969 0
M  V30 20731 C 1977.44 -1.54868 3.24875 0
M  V30 20732 C 1977.05 -0.615546 4.43751 0
M  V30 20733 C 1978.8 -2.24349 3.60372 0
M  V30 20734 C 1976.7 -1.32426 5.76383 0
M  V30 20735 H 1975.63 -0.318314 0.683515 0
M  V30 20736 H 1978.28 -0.0950741 1.83254 0
M  V30 20737 H 1976.67 -2.34207 3.19316 0
M  V30 20738 H 1977.84 0.143586 4.60576 0
M  V30 20739 H 1976.15 -0.0284595 4.1639 0
M  V30 20740 H 1978.75 -2.78037 4.56727 0
M  V30 20741 H 1979.09 -3.01473 2.87088 0
M  V30 20742 H 1979.63 -1.51914 3.67651 0
M  V30 20743 H 1976.37 -0.594603 6.52798 0
M  V30 20744 H 1975.89 -2.05577 5.6347 0
M  V30 20745 H 1977.57 -1.86148 6.19643 0
M  V30 20746 N 1977.7 -1.52352 -0.403298 0
M  V30 20747 C 1978.63 -1.79074 -1.49849 0
M  V30 20748 C 1979.61 -0.642006 -1.57519 0
M  V30 20749 O 1980.79 -0.888182 -1.72699 0
M  V30 20750 C 1977.92 -1.9467 -2.87612 0
M  V30 20751 C 1976.88 -3.10295 -2.9479 0
M  V30 20752 C 1976.2 -3.11122 -4.34864 0
M  V30 20753 C 1977.5 -4.49643 -2.65741 0
M  V30 20754 H 1979.2 -2.70783 -1.27737 0
M  V30 20755 H 1976.74 -1.30298 -0.613064 0
M  V30 20756 H 1978.7 -2.11947 -3.64221 0
M  V30 20757 H 1977.42 -0.996377 -3.1103 0
M  V30 20758 H 1976.08 -2.92778 -2.20627 0
M  V30 20759 H 1975.73 -2.13801 -4.553 0
M  V30 20760 H 1975.43 -3.88786 -4.4059 0
M  V30 20761 H 1976.95 -3.30536 -5.13399 0
M  V30 20762 H 1978.37 -4.67335 -3.3207 0
M  V30 20763 H 1976.76 -5.29268 -2.82835 0
M  V30 20764 H 1977.83 -4.57339 -1.61149 0
M  V30 20765 N 1979.18 0.660885 -1.43074 0
M  V30 20766 C 1980.42 1.42086 -1.44284 0
M  V30 20767 C 1980.75 1.94394 -0.0643177 0
M  V30 20768 O 1980.01 1.72217 0.929509 0
M  V30 20769 C 1980.3 2.6246 -2.42589 0
M  V30 20770 C 1979.97 2.28615 -3.88647 0
M  V30 20771 C 1978.63 2.19096 -4.28428 0
M  V30 20772 C 1980.98 2.0139 -4.8072 0
M  V30 20773 C 1978.31 1.80498 -5.58245 0
M  V30 20774 C 1980.66 1.64293 -6.10893 0
M  V30 20775 C 1979.33 1.53294 -6.49659 0
M  V30 20776 H 1978.6 0.519929 -0.527973 0
M  V30 20777 H 1981.25 0.752296 -1.76104 0
M  V30 20778 H 1979.55 3.34413 -2.04145 0
M  V30 20779 H 1981.25 3.20662 -2.40784 0
M  V30 20780 H 1977.84 2.36931 -3.57158 0
M  V30 20781 H 1982.02 2.0767 -4.50763 0
M  V30 20782 H 1977.28 1.70563 -5.87127 0
M  V30 20783 H 1981.45 1.42256 -6.81716 0
M  V30 20784 H 1979.08 1.23156 -7.50158 0
M  V30 20785 N 1980.65 1.29477 0.898527 0
M  V30 20786 C 1981.88 1.20406 1.68255 0
M  V30 20787 C 1982.3 -0.235141 1.8733 0
M  V30 20788 O 1981.65 -1.15727 1.41115 0
M  V30 20789 C 1981.71 1.91451 3.06641 0
M  V30 20790 O 1981.43 3.29751 2.88437 0
M  V30 20791 C 1982.93 1.88871 4.01052 0
M  V30 20792 H 1980.15 0.417276 0.525473 0
M  V30 20793 H 1982.69 1.7087 1.12356 0
M  V30 20794 H 1980.85 1.4482 3.59313 0
M  V30 20795 H 1981.26 3.65548 3.76131 0
M  V30 20796 H 1982.73 2.43144 4.95566 0
M  V30 20797 H 1983.21 0.864507 4.30608 0
M  V30 20798 H 1983.82 2.35251 3.54312 0
M  V30 20799 N 1982.13 -1.10905 1.11972 0
M  V30 20800 C 1983.36 -1.87095 0.894991 0
M  V30 20801 C 1983.78 -1.79875 -0.550144 0
M  V30 20802 O 1983.14 -1.16517 -1.38901 0
M  V30 20803 C 1983.19 -3.33634 1.36825 0
M  V30 20804 O 1982.29 -4.08802 0.543553 0
M  V30 20805 H 1981.63 -0.580734 0.321938 0
M  V30 20806 H 1984.16 -1.40152 1.49059 0
M  V30 20807 H 1984.17 -3.84482 1.36519 0
M  V30 20808 H 1982.85 -3.38205 2.42054 0
M  V30 20809 H 1981.43 -3.67824 0.613185 0
M  V30 20810 N 1983.61 -0.910886 -1.2861 0
M  V30 20811 C 1984.56 -0.387197 -2.29355 0
M  V30 20812 C 1985.55 0.519603 -1.61234 0
M  V30 20813 O 1986.76 0.401165 -1.75473 0
M  V30 20814 H 1983.13 -0.106607 -0.744405 0
M  V30 20815 H 1985.1 -1.25002 -2.70956 0
M  V30 20816 C 1983.85 0.360115 -3.4583 0
M  V30 20817 H 1983.18 -0.328438 -3.98449 0
M  V30 20818 H 1984.62 0.69123 -4.18328 0
M  V30 20819 C 1983.08 1.56695 -2.98242 0
M  V30 20820 O 1983.61 2.66609 -3.00471 0
M  V30 20821 N 1981.81 1.41295 -2.53937 0
M  V30 20822 H 1981.36 0.51873 -2.52323 0
M  V30 20823 H 1981.32 2.22172 -2.22457 0
M  V30 20824 N 1985.09 1.42434 -0.674558 0
M  V30 20825 C 1986.32 2.05582 -0.204816 0
M  V30 20826 C 1986.73 1.50768 1.14305 0
M  V30 20827 O 1986.07 0.642132 1.72111 0
M  V30 20828 C 1986.13 3.59446 -0.0621889 0
M  V30 20829 C 1985.8 4.36952 -1.33873 0
M  V30 20830 C 1986.79 4.67621 -2.27215 0
M  V30 20831 C 1984.48 4.76595 -1.58626 0
M  V30 20832 C 1986.47 5.36868 -3.43586 0
M  V30 20833 C 1984.16 5.45583 -2.75287 0
M  V30 20834 C 1985.16 5.75644 -3.6759 0
M  V30 20835 O 1984.84 6.43217 -4.8221 0
M  V30 20836 H 1984.58 0.668974 -0.0972083 0
M  V30 20837 H 1987.13 1.83563 -0.92161 0
M  V30 20838 H 1985.36 3.80123 0.710183 0
M  V30 20839 H 1987.05 4.04232 0.367648 0
M  V30 20840 H 1987.82 4.37494 -2.09341 0
M  V30 20841 H 1983.69 4.5259 -0.876522 0
M  V30 20842 H 1987.24 5.6025 -4.15651 0
M  V30 20843 H 1983.14 5.75127 -2.93086 0
M  V30 20844 H 1983.9 6.61708 -4.81752 0
M  V30 20845 N 1986.57 0.417871 1.51959 0
M  V30 20846 C 1987.81 -0.155282 2.02205 0
M  V30 20847 C 1988.15 -1.44044 1.3025 0
M  V30 20848 O 1987.42 -1.90098 0.411449 0
M  V30 20849 C 1987.7 -0.394038 3.57938 0
M  V30 20850 C 1987.56 0.908404 4.40532 0
M  V30 20851 C 1988.88 -1.17238 4.24197 0
M  V30 20852 H 1985.99 -0.0549616 0.734948 0
M  V30 20853 H 1988.64 0.553053 1.81773 0
M  V30 20854 H 1986.79 -0.997422 3.75478 0
M  V30 20855 H 1988.46 1.54427 4.34684 0
M  V30 20856 H 1986.7 1.51743 4.06395 0
M  V30 20857 H 1987.37 0.69563 5.47599 0
M  V30 20858 H 1989.85 -0.661461 4.10809 0
M  V30 20859 H 1988.72 -1.30818 5.33083 0
M  V30 20860 H 1988.99 -2.19534 3.83741 0
M  V30 20861 N 1988.04 -1.56898 0.148573 0
M  V30 20862 C 1988.97 -2.19852 -0.786585 0
M  V30 20863 C 1989.96 -1.14723 -1.2559 0
M  V30 20864 O 1991.14 -1.43071 -1.31317 0
M  V30 20865 C 1988.27 -2.82137 -2.02524 0
M  V30 20866 C 1987.22 -3.93108 -1.69264 0
M  V30 20867 C 1986.55 -4.42335 -3.00407 0
M  V30 20868 C 1987.85 -5.13807 -0.938092 0
M  V30 20869 H 1989.54 -2.98252 -0.261903 0
M  V30 20870 H 1987.09 -1.43461 -0.124531 0
M  V30 20871 H 1989.04 -3.24845 -2.68428 0
M  V30 20872 H 1987.77 -2.01071 -2.57368 0
M  V30 20873 H 1986.43 -3.5102 -1.05739 0
M  V30 20874 H 1986.07 -3.58089 -3.53244 0
M  V30 20875 H 1985.77 -5.17185 -2.78915 0
M  V30 20876 H 1987.3 -4.87714 -3.67378 0
M  V30 20877 H 1988.71 -5.53349 -1.49924 0
M  V30 20878 H 1987.11 -5.94429 -0.823062 0
M  V30 20879 H 1988.18 -4.8485 0.0698825 0
M  V30 20880 N 1989.52 0.125209 -1.57102 0
M  V30 20881 C 1990.49 1.13792 -1.98957 0
M  V30 20882 C 1991.49 1.34656 -0.878887 0
M  V30 20883 O 1992.68 1.31278 -1.14506 0
M  V30 20884 C 1989.81 2.49371 -2.32437 0
M  V30 20885 H 1991 0.778319 -2.89624 0
M  V30 20886 H 1988.55 0.369299 -1.51875 0
M  V30 20887 H 1989.29 2.90263 -1.4463 0
M  V30 20888 H 1989.07 2.35583 -3.13437 0
M  V30 20889 H 1990.56 3.22268 -2.65581 0
M  V30 20890 N 1991 1.52564 0.395213 0
M  V30 20891 C 1992.23 1.7147 1.16674 0
M  V30 20892 C 1992.65 0.429414 1.83133 0
M  V30 20893 O 1992.01 -0.614309 1.70575 0
M  V30 20894 C 1992.06 2.86088 2.19513 0
M  V30 20895 O 1991.16 2.52628 3.25964 0
M  V30 20896 H 1990.5 0.570379 0.339947 0
M  V30 20897 H 1993.03 1.99329 0.461411 0
M  V30 20898 H 1993.04 3.11404 2.63612 0
M  V30 20899 H 1991.72 3.79333 1.70527 0
M  V30 20900 H 1990.29 2.38032 2.87046 0
M  V30 20901 N 1992.48 -0.653289 1.43422 0
M  V30 20902 C 1993.71 -1.44093 1.48475 0
M  V30 20903 C 1994.12 -1.88521 0.102614 0
M  V30 20904 O 1993.48 -1.59487 -0.887134 0
M  V30 20905 C 1993.53 -2.67595 2.43054 0
M  V30 20906 O 1993.25 -2.25025 3.75893 0
M  V30 20907 C 1994.75 -3.60953 2.57348 0
M  V30 20908 H 1991.97 -0.442658 0.504276 0
M  V30 20909 H 1994.52 -0.800914 1.88164 0
M  V30 20910 H 1992.67 -3.27736 2.06561 0
M  V30 20911 H 1993.08 -3.04932 4.26752 0
M  V30 20912 H 1994.56 -4.44276 3.27602 0
M  V30 20913 H 1995.04 -4.08295 1.61838 0
M  V30 20914 H 1995.64 -3.06693 2.94652 0
M  V30 20915 N 1993.96 -1.29952 -0.891648 0
M  V30 20916 C 1994.9 -1.15662 -2.01805 0
M  V30 20917 C 1995.9 -0.0701689 -1.69255 0
M  V30 20918 O 1997.1 -0.230546 -1.78517 0
M  V30 20919 H 1993.48 -0.357511 -0.661581 0
M  V30 20920 H 1995.45 -2.11008 -2.10993 0
M  V30 20921 C 1994.2 -0.858316 -3.36939 0
M  V30 20922 H 1993.52 -1.68637 -3.62494 0
M  V30 20923 H 1994.96 -0.798404 -4.16415 0
M  V30 20924 C 1993.42 0.438629 -3.34032 0
M  V30 20925 O 1993.95 1.46221 -3.74142 0
M  V30 20926 N 1992.16 0.447383 -2.87136 0
M  V30 20927 H 1991.7 -0.386058 -2.54691 0
M  V30 20928 H 1991.66 1.31512 -2.85573 0
M  V30 20929 N 1995.44 1.1031 -1.12559 0
M  V30 20930 C 1996.66 1.86618 -0.9049 0
M  V30 20931 C 1997.09 1.80164 0.540597 0
M  V30 20932 O 1996.44 1.17252 1.38281 0
M  V30 20933 C 1996.49 3.32903 -1.38592 0
M  V30 20934 O 1995.6 4.08508 -0.565225 0
M  V30 20935 H 1994.94 0.579019 -0.325013 0
M  V30 20936 H 1997.47 1.39359 -1.498 0
M  V30 20937 H 1997.48 3.83753 -1.38556 0
M  V30 20938 H 1996.15 3.36917 -2.43844 0
M  V30 20939 H 1994.73 3.67494 -0.632682 0
M  V30 20940 N 1996.91 0.917694 1.28125 0
M  V30 20941 C 1998.14 0.56827 1.99463 0
M  V30 20942 C 1998.56 -0.844246 1.6809 0
M  V30 20943 O 1997.92 -1.56487 0.915504 0
M  V30 20944 C 1997.97 0.788859 3.51866 0
M  V30 20945 O 1997.07 -0.150301 4.12126 0
M  V30 20946 H 1996.41 0.219899 0.626531 0
M  V30 20947 H 1998.94 1.23421 1.63182 0
M  V30 20948 H 1998.95 0.700502 4.01942 0
M  V30 20949 H 1997.63 1.81855 3.74034 0
M  V30 20950 H 1996.21 -0.012878 3.72898 0
M  V30 20951 N 1998.39 -1.42074 0.682102 0
M  V30 20952 C 1999.81 -1.55662 0.352347 0
M  V30 20953 C 2000.01 -1.66032 -1.14174 0
M  V30 20954 O 1999.06 -1.63128 -1.92732 0
M  V30 20955 C 2000.38 -2.80285 1.08907 0
M  V30 20956 C 2001.92 -2.94066 1.0721 0
M  V30 20957 C 2002.4 -4.2156 1.7903 0
M  V30 20958 N 2003.89 -4.28488 1.75933 0
M  V30 20959 C 2004.63 -5.25968 2.28354 0
M  V30 20960 N 2004.12 -6.29557 2.89188 0
M  V30 20961 N 2005.91 -5.17815 2.18686 0
M  V30 20962 H 1998.07 -1.33588 1.65131 0
M  V30 20963 H 2000.33 -0.643549 0.696096 0
M  V30 20964 H 2000.03 -2.78786 2.14409 0
M  V30 20965 H 1999.91 -3.71399 0.658975 0
M  V30 20966 H 2002.3 -2.95089 0.0253867 0
M  V30 20967 H 2002.38 -2.04163 1.54114 0
M  V30 20968 H 2002.02 -4.21298 2.83673 0
M  V30 20969 H 2001.95 -5.10411 1.2957 0
M  V30 20970 H 2004.44 -3.54257 1.31568 0
M  V30 20971 H 2004.75 -7.00306 3.26789 0
M  V30 20972 H 2003.1 -6.30098 2.9326 0
M  V30 20973 H 2006.29 -4.3581 1.70843 0
M  V30 20974 H 2006.46 -5.9362 2.59845 0
M  V30 20975 N 1999.87 -0.425924 -1.51735 0
M  V30 20976 C 2001.12 0.145784 -2.01172 0
M  V30 20977 C 2001.43 1.4478 -1.31523 0
M  V30 20978 O 2002.64 2.10177 -1.71866 0
M  V30 20979 C 2001.09 0.310355 -3.58559 0
M  V30 20980 C 2000.7 -0.98055 -4.37138 0
M  V30 20981 C 2002.45 0.836447 -4.16178 0
M  V30 20982 C 2000.35 -0.782247 -5.86204 0
M  V30 20983 H 1999.28 0.0582569 -0.751746 0
M  V30 20984 H 2001.93 -0.553941 -1.74939 0
M  V30 20985 H 2000.32 1.07281 -3.81191 0
M  V30 20986 H 2001.49 -1.75046 -4.26258 0
M  V30 20987 H 1999.8 -1.43431 -3.90917 0
M  V30 20988 H 2002.4 1.00112 -5.25244 0
M  V30 20989 H 2002.74 1.81579 -3.74613 0
M  V30 20990 H 2003.28 0.132605 -3.97579 0
M  V30 20991 H 2000.02 -1.73363 -6.32159 0
M  V30 20992 H 1999.54 -0.0519371 -5.99778 0
M  V30 20993 H 2001.22 -0.430966 -6.45563 0
M  V30 20994 N 2001.35 1.56817 -0.156891 0
M  V30 20995 C 2002.57 2.01242 0.501622 0
M  V30 20996 C 2003 1.03635 1.56976 0
M  V30 20997 O 2002.36 0.0136188 1.81295 0
M  V30 20998 C 2002.4 3.44357 1.07007 0
M  V30 20999 O 2001.51 3.49783 2.18461 0
M  V30 21000 H 2000.85 0.652757 0.121673 0
M  V30 21001 H 2003.38 2.02985 -0.256537 0
M  V30 21002 H 2003.39 3.83364 1.39628 0
M  V30 21003 H 2002.06 4.14902 0.287924 0
M  V30 21004 H 2000.64 3.22626 1.86994 0
M  V30 21005 N 2002.83 -0.116876 1.57166 0
M  V30 21006 C 2004.24 -0.673792 1.74118 0
M  V30 21007 C 2004.59 -1.80206 0.775892 0
M  V30 21008 O 2003.71 -2.16341 -0.0507019 0
M  V30 21009 C 2004.31 -1.22903 3.15722 0
M  V30 21010 C 2002.87 -1.73222 3.34172 0
M  V30 21011 C 2002.01 -0.632798 2.69983 0
M  V30 21012 H 2004.96 0.109055 1.58325 0
M  V30 21013 H 2004.99 -2.09867 3.1739 0
M  V30 21014 H 2004.5 -0.407637 3.85953 0
M  V30 21015 H 2002.6 -2.57832 2.68986 0
M  V30 21016 H 2002.71 -1.8402 4.4235 0
M  V30 21017 H 2001.08 -1.06693 2.31276 0
M  V30 21018 H 2001.86 0.177653 3.4284 0
M  V30 21019 N 2004.3 -1.52772 -0.387116 0
M  V30 21020 C 2005.71 -1.59829 -0.964966 0
M  V30 21021 C 2006.07 -0.452304 -1.90915 0
M  V30 21022 O 2005.19 0.424353 -2.12199 0
M  V30 21023 C 2005.79 -2.89687 -1.7569 0
M  V30 21024 C 2004.34 -2.99151 -2.28442 0
M  V30 21025 C 2003.49 -2.54957 -1.0905 0
M  V30 21026 H 2006.44 -1.57823 -0.1666 0
M  V30 21027 H 2006.46 -2.76279 -2.6163 0
M  V30 21028 H 2005.98 -3.73074 -1.06945 0
M  V30 21029 H 2004.08 -2.20305 -3.00494 0
M  V30 21030 H 2004.19 -4.03827 -2.578 0
M  V30 21031 H 2002.55 -2.09321 -1.45109 0
M  V30 21032 H 2003.34 -3.40741 -0.418373 0
M  V30 21033 N 2005.78 0.645673 -1.43767 0
M  V30 21034 C 2007.01 1.43303 -1.49237 0
M  V30 21035 C 2007.42 1.88464 -0.11261 0
M  V30 21036 O 2006.78 1.59955 0.878664 0
M  V30 21037 C 2006.83 2.66302 -2.4447 0
M  V30 21038 O 2006.55 2.23028 -3.77081 0
M  V30 21039 C 2008.05 3.59583 -2.59259 0
M  V30 21040 H 2005.27 0.439978 -0.506617 0
M  V30 21041 H 2007.82 0.790924 -1.88586 0
M  V30 21042 H 2005.97 3.26636 -2.08296 0
M  V30 21043 H 2006.39 3.02664 -4.28363 0
M  V30 21044 H 2007.86 4.42532 -3.29953 0
M  V30 21045 H 2008.34 4.07431 -1.64001 0
M  V30 21046 H 2008.94 3.05126 -2.96274 0
M  V30 21047 N 2007.26 1.30423 0.884744 0
M  V30 21048 C 2008.51 1.19435 1.63899 0
M  V30 21049 C 2008.84 -0.25033 1.9258 0
M  V30 21050 O 2008.11 -1.17904 1.5469 0
M  V30 21051 C 2008.4 2.02357 2.97865 0
M  V30 21052 C 2008.25 3.55046 2.76156 0
M  V30 21053 C 2009.57 1.86156 3.98791 0
M  V30 21054 H 2006.69 0.435234 0.594761 0
M  V30 21055 H 2009.33 1.60058 1.0238 0
M  V30 21056 H 2007.48 1.67842 3.50373 0
M  V30 21057 H 2009.15 3.99622 2.30434 0
M  V30 21058 H 2007.39 3.79218 2.10657 0
M  V30 21059 H 2008.07 4.08356 3.71415 0
M  V30 21060 H 2010.54 2.16332 3.55443 0
M  V30 21061 H 2009.42 2.46501 4.90437 0
M  V30 21062 H 2009.68 0.820775 4.34414 0
M  V30 21063 N 2008.74 -1.09711 1.13142 0
M  V30 21064 C 2009.7 -2.14443 0.809114 0
M  V30 21065 C 2010.7 -1.59789 -0.18005 0
M  V30 21066 O 2011.89 -1.74137 0.0466686 0
M  V30 21067 C 2009.02 -3.40291 0.203714 0
M  V30 21068 H 2010.22 -2.44466 1.73713 0
M  V30 21069 H 2007.77 -1.252 0.935663 0
M  V30 21070 H 2008.5 -3.15892 -0.733667 0
M  V30 21071 H 2008.29 -3.8125 0.916003 0
M  V30 21072 H 2009.78 -4.176 -0.00503851 0
M  V30 21073 N 2010.22 -0.924476 -1.27637 0
M  V30 21074 C 2011.17 -0.392138 -2.24602 0
M  V30 21075 C 2012.15 0.501783 -1.52876 0
M  V30 21076 O 2013.34 0.339754 -1.73709 0
M  V30 21077 C 2010.47 0.356902 -3.4144 0
M  V30 21078 C 2009.56 -0.553352 -4.20475 0
M  V30 21079 N 2009.95 -1.67175 -4.77374 0
M  V30 21080 C 2008.25 -0.355752 -4.44579 0
M  V30 21081 C 2008.95 -2.23762 -5.36941 0
M  V30 21082 N 2007.92 -1.52759 -5.21695 0
M  V30 21083 H 2011.73 -1.24612 -2.66175 0
M  V30 21084 H 2009.24 -0.778373 -1.42531 0
M  V30 21085 H 2011.24 0.755192 -4.10003 0
M  V30 21086 H 2009.9 1.20785 -3.01399 0
M  V30 21087 H 2010.91 -2.05418 -4.7542 0
M  V30 21088 H 2007.58 0.454798 -4.15015 0
M  V30 21089 H 2008.97 -3.17902 -5.91936 0
M  V30 21090 N 2011.69 1.41711 -0.689627 0
M  V30 21091 C 2012.92 2.06171 -0.225425 0
M  V30 21092 C 2013.34 1.51535 1.11439 0
M  V30 21093 O 2012.7 0.639865 1.69633 0
M  V30 21094 C 2012.75 3.60114 -0.187089 0
M  V30 21095 O 2011.85 4.03757 0.83989 0
M  V30 21096 H 2011.2 0.654551 -0.111621 0
M  V30 21097 H 2013.73 1.81582 -0.942814 0
M  V30 21098 H 2013.74 4.07997 -0.0159369 0
M  V30 21099 H 2012.41 3.99251 -1.16497 0
M  V30 21100 H 2010.99 3.67392 0.638575 0
M  V30 21101 N 2013.17 0.433965 1.51507 0
M  V30 21102 C 2014.45 -0.193401 1.94642 0
M  V30 21103 C 2014.83 -1.60398 1.37243 0
M  V30 21104 O 2014.18 -2.21579 0.558139 0
M  V30 21105 C 2014.39 -0.174558 3.48563 0
M  V30 21106 C 2015.74 -0.381783 4.2288 0
M  V30 21107 O 2016.76 -0.252823 3.55302 0
M  V30 21108 O 2015.62 -0.638151 5.42761 0
M  V30 21109 H 2012.71 -0.131787 0.816432 0
M  V30 21110 H 2015.26 0.491701 1.6242 0
M  V30 21111 H 2014.03 0.811732 3.82788 0
M  V30 21112 H 2013.65 -0.902712 3.87217 0
M  V30 21113 N 2014.65 -1.56732 0.165206 0
M  V30 21114 C 2015.61 -2.1646 -0.753498 0
M  V30 21115 C 2016.61 -1.11106 -1.16241 0
M  V30 21116 O 2017.8 -1.36652 -1.08037 0
M  V30 21117 C 2014.94 -2.7425 -2.02483 0
M  V30 21118 H 2016.13 -2.98989 -0.233629 0
M  V30 21119 H 2013.68 -1.56072 -0.0843317 0
M  V30 21120 H 2014.42 -1.95439 -2.58794 0
M  V30 21121 H 2014.2 -3.51345 -1.74065 0
M  V30 21122 H 2015.69 -3.20209 -2.6806 0
M  V30 21123 N 2016.13 0.10854 -1.57226 0
M  V30 21124 C 2017.06 1.13362 -2.04135 0
M  V30 21125 C 2018.04 1.42573 -0.927733 0
M  V30 21126 O 2019.22 1.52835 -1.19813 0
M  V30 21127 C 2016.35 2.45708 -2.45449 0
M  V30 21128 C 2015.31 2.30935 -3.60351 0
M  V30 21129 C 2014.63 3.68337 -3.87597 0
M  V30 21130 C 2015.93 1.76112 -4.91713 0
M  V30 21131 H 2017.63 0.74341 -2.90024 0
M  V30 21132 H 2015.17 0.356157 -1.39526 0
M  V30 21133 H 2017.13 3.17679 -2.76872 0
M  V30 21134 H 2015.85 2.86639 -1.56544 0
M  V30 21135 H 2014.51 1.61411 -3.29153 0
M  V30 21136 H 2014.16 4.06772 -2.95881 0
M  V30 21137 H 2013.86 3.59303 -4.64946 0
M  V30 21138 H 2015.38 4.41797 -4.21483 0
M  V30 21139 H 2016.8 2.3791 -5.21605 0
M  V30 21140 H 2015.19 1.77872 -5.73133 0
M  V30 21141 H 2016.26 0.71947 -4.79533 0
M  V30 21142 N 2017.61 1.52975 0.379009 0
M  V30 21143 C 2018.57 1.77806 1.4463 0
M  V30 21144 C 2019.57 0.648223 1.47155 0
M  V30 21145 O 2020.76 0.916347 1.48151 0
M  V30 21146 C 2017.89 1.88792 2.83849 0
M  V30 21147 H 2019.08 2.73113 1.23892 0
M  V30 21148 H 2016.64 1.43848 0.61135 0
M  V30 21149 H 2017.37 0.955049 3.09918 0
M  V30 21150 H 2017.16 2.70957 2.83416 0
M  V30 21151 H 2018.65 2.09642 3.61165 0
M  V30 21152 N 2019.08 -0.63804 1.44107 0
M  V30 21153 C 2020.5 -0.955442 1.27842 0
M  V30 21154 C 2020.7 -2.00412 0.209151 0
M  V30 21155 O 2019.76 -2.49193 -0.407303 0
M  V30 21156 C 2021.07 -1.42528 2.64776 0
M  V30 21157 C 2022.62 -1.54112 2.72431 0
M  V30 21158 C 2023.09 -2.04482 4.09819 0
M  V30 21159 N 2024.58 -2.11762 4.1196 0
M  V30 21160 C 2025.32 -2.51891 5.1511 0
M  V30 21161 N 2024.81 -2.91207 6.28626 0
M  V30 21162 N 2026.61 -2.51964 5.02464 0
M  V30 21163 H 2018.76 0.0556164 2.12327 0
M  V30 21164 H 2021.02 -0.037732 0.947249 0
M  V30 21165 H 2020.73 -0.729067 3.4406 0
M  V30 21166 H 2020.6 -2.39756 2.91199 0
M  V30 21167 H 2022.99 -2.22831 1.93469 0
M  V30 21168 H 2023.07 -0.552769 2.49756 0
M  V30 21169 H 2022.71 -1.3636 4.89253 0
M  V30 21170 H 2022.64 -3.04176 4.29866 0
M  V30 21171 H 2025.13 -1.8409 3.30029 0
M  V30 21172 H 2025.45 -3.2062 7.03152 0
M  V30 21173 H 2023.79 -2.88975 6.32075 0
M  V30 21174 H 2026.98 -2.20635 4.12841 0
M  V30 21175 H 2027.16 -2.82915 5.82978 0
M  V30 21176 N 2020.56 -1.3089 -0.877815 0
M  V30 21177 C 2021.98 -1.09377 -1.16228 0
M  V30 21178 C 2022.18 0.140854 -2.01007 0
M  V30 21179 O 2021.23 0.83243 -2.38384 0
M  V30 21180 C 2022.55 -2.36114 -1.86201 0
M  V30 21181 C 2024.1 -2.41648 -1.98936 0
M  V30 21182 C 2024.57 -3.68245 -2.72322 0
M  V30 21183 N 2026.06 -3.69094 -2.79863 0
M  V30 21184 C 2026.8 -4.63743 -3.37239 0
M  V30 21185 N 2026.29 -5.68741 -3.95607 0
M  V30 21186 N 2028.09 -4.51275 -3.35122 0
M  V30 21187 H 2020.24 -2.10086 -0.312693 0
M  V30 21188 H 2022.5 -0.926425 -0.201101 0
M  V30 21189 H 2022.21 -3.26251 -1.31352 0
M  V30 21190 H 2022.08 -2.45311 -2.86535 0
M  V30 21191 H 2024.47 -1.51985 -2.52952 0
M  V30 21192 H 2024.55 -2.36421 -0.976675 0
M  V30 21193 H 2024.19 -4.58271 -2.18976 0
M  V30 21194 H 2024.12 -3.70736 -3.73982 0
M  V30 21195 H 2026.61 -2.93189 -2.3843 0
M  V30 21196 H 2026.93 -6.37052 -4.37475 0
M  V30 21197 H 2025.27 -5.72525 -3.94006 0
M  V30 21198 H 2028.46 -3.68426 -2.88755 0
M  V30 21199 H 2028.63 -5.25217 -3.7954 0
M  V30 21200 N 2022.04 1.0911 -1.13723 0
M  V30 21201 C 2023.29 1.81352 -0.900984 0
M  V30 21202 C 2023.62 1.85876 0.572749 0
M  V30 21203 O 2022.87 1.3252 1.44003 0
M  V30 21204 C 2023.17 3.27193 -1.43805 0
M  V30 21205 C 2022.84 3.42797 -2.92918 0
M  V30 21206 C 2021.5 3.46763 -3.33629 0
M  V30 21207 C 2023.85 3.47067 -3.88837 0
M  V30 21208 C 2021.18 3.52582 -4.68938 0
M  V30 21209 C 2023.53 3.5442 -5.23993 0
M  V30 21210 C 2022.19 3.56657 -5.64227 0
M  V30 21211 H 2021.46 0.663614 -0.329694 0
M  V30 21212 H 2024.11 1.28517 -1.41971 0
M  V30 21213 H 2022.42 3.82687 -0.840093 0
M  V30 21214 H 2024.11 3.81628 -1.23129 0
M  V30 21215 H 2020.7 3.40397 -2.60438 0
M  V30 21216 H 2024.89 3.4324 -3.58469 0
M  V30 21217 H 2020.14 3.52602 -4.99481 0
M  V30 21218 H 2024.32 3.56669 -5.9813 0
M  V30 21219 H 2021.94 3.60918 -6.69061 0
M  V30 21220 N 2023.52 0.931232 1.27145 0
M  V30 21221 C 2024.48 0.43771 2.24982 0
M  V30 21222 C 2025.48 -0.445689 1.545 0
M  V30 21223 O 2026.67 -0.24627 1.7245 0
M  V30 21224 C 2023.8 -0.370327 3.38883 0
M  V30 21225 H 2025 1.30217 2.70154 0
M  V30 21226 H 2022.55 0.712252 1.39128 0
M  V30 21227 H 2023.28 -1.25346 2.99097 0
M  V30 21228 H 2023.07 0.263109 3.91216 0
M  V30 21229 H 2024.56 -0.705876 4.11591 0
M  V30 21230 N 2025 -1.41343 0.697132 0
M  V30 21231 C 2026.24 -2.01204 0.22876 0
M  V30 21232 C 2026.57 -1.55215 -1.17211 0
M  V30 21233 O 2025.83 -0.754886 -1.80555 0
M  V30 21234 C 2026.13 -3.56617 0.236459 0
M  V30 21235 C 2025.79 -4.22121 1.58507 0
M  V30 21236 C 2024.45 -4.39729 1.95427 0
M  V30 21237 C 2026.81 -4.58835 2.47224 0
M  V30 21238 C 2024.13 -4.91328 3.20646 0
M  V30 21239 C 2026.49 -5.11825 3.71777 0
M  V30 21240 C 2025.15 -5.27643 4.08838 0
M  V30 21241 H 2024.42 -0.736257 0.0837091 0
M  V30 21242 H 2027.07 -1.69218 0.89653 0
M  V30 21243 H 2025.37 -3.88402 -0.514862 0
M  V30 21244 H 2027.07 -4.00743 -0.14349 0
M  V30 21245 H 2023.66 -4.08792 1.28791 0
M  V30 21246 H 2027.84 -4.44885 2.1998 0
M  V30 21247 H 2023.1 -5.01759 3.49353 0
M  V30 21248 H 2027.27 -5.39213 4.40706 0
M  V30 21249 H 2024.9 -5.67388 5.05939 0
M  V30 21250 N 2026.48 -0.441993 -1.51275 0
M  V30 21251 C 2027.75 0.183076 -1.94741 0
M  V30 21252 C 2028.13 1.59668 -1.38092 0
M  V30 21253 O 2027.48 2.21279 -0.569882 0
M  V30 21254 C 2027.69 0.156071 -3.48651 0
M  V30 21255 C 2029.04 0.359351 -4.23077 0
M  V30 21256 O 2030.06 0.233977 -3.55431 0
M  V30 21257 O 2028.92 0.609358 -5.43092 0
M  V30 21258 H 2026.02 0.127455 -0.817119 0
M  V30 21259 H 2028.56 -0.500307 -1.62157 0
M  V30 21260 H 2027.33 -0.832021 -3.82352 0
M  V30 21261 H 2026.96 0.882165 -3.8769 0
M  V30 21262 N 2027.95 1.56642 -0.173515 0
M  V30 21263 C 2028.89 2.13917 0.794652 0
M  V30 21264 C 2029.86 1.06986 1.22445 0
M  V30 21265 O 2031.05 1.34974 1.31583 0
M  V30 21266 C 2028.18 2.68052 2.07041 0
M  V30 21267 C 2027.22 3.87375 1.78446 0
M  V30 21268 S 2028.05 5.26975 0.951737 0
M  V30 21269 C 2029.21 5.84516 2.23811 0
M  V30 21270 H 2029.44 2.95704 0.307683 0
M  V30 21271 H 2026.98 1.54345 0.0411859 0
M  V30 21272 H 2028.93 2.99888 2.80316 0
M  V30 21273 H 2027.6 1.86347 2.52851 0
M  V30 21274 H 2026.79 4.23588 2.7311 0
M  V30 21275 H 2026.39 3.56437 1.13265 0
M  V30 21276 H 2028.68 5.97564 3.19254 0
M  V30 21277 H 2029.63 6.81555 1.92063 0
M  V30 21278 H 2030.03 5.12952 2.35671 0
M  V30 21279 N 2029.43 -0.1002 1.57281 0
M  V30 21280 C 2030.71 -0.836006 1.76834 0
M  V30 21281 C 2031.09 -1.9718 0.753864 0
M  V30 21282 O 2030.44 -2.27452 -0.218626 0
M  V30 21283 C 2030.65 -1.33532 3.22444 0
M  V30 21284 C 2031.99 -1.78015 3.85481 0
M  V30 21285 O 2033.02 -1.43167 3.26162 0
M  V30 21286 O 2031.88 -2.42432 4.89784 0
M  V30 21287 H 2028.97 -0.398386 0.724719 0
M  V30 21288 H 2031.52 -0.0824784 1.69499 0
M  V30 21289 H 2030.29 -0.521307 3.87812 0
M  V30 21290 H 2029.91 -2.151 3.34391 0
M  V30 21291 N 2030.91 -1.53174 -0.370891 0
M  V30 21292 C 2032.16 -1.68319 -1.11137 0
M  V30 21293 C 2032.47 -0.438743 -1.90616 0
M  V30 21294 O 2033.68 -0.470648 -2.6739 0
M  V30 21295 C 2032.13 -2.97532 -2.02491 0
M  V30 21296 C 2031.74 -4.29221 -1.28349 0
M  V30 21297 C 2033.49 -3.22045 -2.76563 0
M  V30 21298 C 2031.39 -5.49526 -2.18574 0
M  V30 21299 H 2030.32 -0.62713 -0.418597 0
M  V30 21300 H 2032.97 -1.79674 -0.372765 0
M  V30 21301 H 2031.36 -2.79967 -2.80061 0
M  V30 21302 H 2032.53 -4.57399 -0.558794 0
M  V30 21303 H 2030.84 -4.1111 -0.661614 0
M  V30 21304 H 2033.44 -4.09111 -3.44285 0
M  V30 21305 H 2033.78 -2.37881 -3.41641 0
M  V30 21306 H 2034.32 -3.40259 -2.06079 0
M  V30 21307 H 2031.06 -6.36152 -1.58083 0
M  V30 21308 H 2030.58 -5.25635 -2.88909 0
M  V30 21309 H 2032.26 -5.8411 -2.78252 0
M  V30 21310 N 2032.39 0.630389 -1.44443 0
M  V30 21311 C 2033.32 1.75554 -1.47354 0
M  V30 21312 C 2034.33 1.58613 -0.366846 0
M  V30 21313 O 2035.52 1.66913 -0.632629 0
M  V30 21314 C 2032.62 3.13286 -1.29249 0
M  V30 21315 C 2031.79 3.56679 -2.53178 0
M  V30 21316 C 2030.85 4.73291 -2.29962 0
M  V30 21317 O 2029.88 4.81565 -3.03453 0
M  V30 21318 N 2031.08 5.65043 -1.33068 0
M  V30 21319 H 2033.85 1.73528 -2.44352 0
M  V30 21320 H 2031.41 0.814976 -1.39892 0
M  V30 21321 H 2033.4 3.89019 -1.11564 0
M  V30 21322 H 2031.97 3.09951 -0.406127 0
M  V30 21323 H 2031.19 2.71147 -2.86135 0
M  V30 21324 H 2032.48 3.82422 -3.35605 0
M  V30 21325 H 2031.88 5.61051 -0.723733 0
M  V30 21326 H 2030.43 6.40402 -1.21361 0
M  V30 21327 N 2033.87 1.31354 0.870861 0
M  V30 21328 C 2035.11 1.21167 1.62623 0
M  V30 21329 C 2035.44 -0.22989 1.92835 0
M  V30 21330 O 2034.72 -1.16257 1.55931 0
M  V30 21331 C 2035 2.05505 2.95702 0
M  V30 21332 C 2034.86 3.57955 2.72375 0
M  V30 21333 C 2036.17 1.90375 3.96794 0
M  V30 21334 H 2033.29 0.441517 0.590111 0
M  V30 21335 H 2035.94 1.61134 1.00676 0
M  V30 21336 H 2034.09 1.71549 3.48573 0
M  V30 21337 H 2035.76 4.02044 2.26183 0
M  V30 21338 H 2034 3.81431 2.06623 0
M  V30 21339 H 2034.67 4.12273 3.67063 0
M  V30 21340 H 2037.15 2.20089 3.53129 0
M  V30 21341 H 2036.02 2.51689 4.87795 0
M  V30 21342 H 2036.28 0.866804 4.33519 0
M  V30 21343 N 2035.34 -1.08505 1.143 0
M  V30 21344 C 2036.28 -2.14723 0.772624 0
M  V30 21345 C 2037.25 -1.60735 -0.245558 0
M  V30 21346 O 2038.44 -1.88017 -0.134851 0
M  V30 21347 C 2035.57 -3.38381 0.14695 0
M  V30 21348 C 2034.61 -4.11116 1.13514 0
M  V30 21349 S 2035.44 -4.64077 2.67194 0
M  V30 21350 C 2036.6 -5.91024 2.06013 0
M  V30 21351 H 2036.83 -2.45808 1.6723 0
M  V30 21352 H 2034.37 -1.20599 0.964118 0
M  V30 21353 H 2036.32 -4.09975 -0.207624 0
M  V30 21354 H 2034.99 -3.05496 -0.730138 0
M  V30 21355 H 2034.18 -4.99851 0.645359 0
M  V30 21356 H 2033.78 -3.45431 1.43366 0
M  V30 21357 H 2036.07 -6.62559 1.41497 0
M  V30 21358 H 2037.02 -6.44697 2.92867 0
M  V30 21359 H 2037.42 -5.43988 1.50788 0
M  V30 21360 N 2036.82 -0.937962 -1.26649 0
M  V30 21361 C 2037.77 -0.435759 -2.28482 0
M  V30 21362 C 2038.76 0.485286 -1.623 0
M  V30 21363 O 2039.97 0.363854 -1.76284 0
M  V30 21364 H 2036.34 -0.122373 -0.741976 0
M  V30 21365 H 2038.32 -1.30722 -2.68243 0
M  V30 21366 C 2037.06 0.286679 -3.46516 0
M  V30 21367 H 2036.39 -0.412881 -3.97662 0
M  V30 21368 H 2037.83 0.602341 -4.197 0
M  V30 21369 C 2036.29 1.50334 -3.01499 0
M  V30 21370 O 2036.82 2.60176 -3.06058 0
M  V30 21371 N 2035.02 1.35877 -2.56877 0
M  V30 21372 H 2034.57 0.465092 -2.53367 0
M  V30 21373 H 2034.53 2.17403 -2.27119 0
M  V30 21374 N 2038.3 1.40971 -0.704618 0
M  V30 21375 C 2039.21 2.34555 -0.0457738 0
M  V30 21376 C 2040.23 1.56717 0.756037 0
M  V30 21377 O 2041.4 1.89156 0.691518 0
M  V30 21378 C 2038.47 3.35534 0.872815 0
M  V30 21379 C 2037.53 4.29255 0.062192 0
M  V30 21380 C 2036.76 5.2541 0.937031 0
M  V30 21381 O 2036.98 5.27245 2.17644 0
M  V30 21382 O 2035.92 6.00687 0.381874 0
M  V30 21383 H 2039.74 2.92493 -0.817415 0
M  V30 21384 H 2037.33 1.41979 -0.465014 0
M  V30 21385 H 2039.21 3.97489 1.3993 0
M  V30 21386 H 2037.89 2.80026 1.62379 0
M  V30 21387 H 2036.79 3.7062 -0.509109 0
M  V30 21388 H 2038.13 4.87885 -0.65032 0
M  V30 21389 N 2039.78 0.45001 1.51039 0
M  V30 21390 C 2041.01 -0.110336 2.06305 0
M  V30 21391 C 2041.42 -1.35912 1.31623 0
M  V30 21392 O 2040.76 -1.79877 0.372811 0
M  V30 21393 C 2040.82 -0.485388 3.56208 0
M  V30 21394 C 2040.49 0.658381 4.52233 0
M  V30 21395 C 2041.48 1.53427 4.96746 0
M  V30 21396 C 2039.17 0.842718 4.9518 0
M  V30 21397 C 2041.16 2.57908 5.82891 0
M  V30 21398 C 2038.85 1.89078 5.81113 0
M  V30 21399 C 2039.85 2.75734 6.24868 0
M  V30 21400 O 2039.53 3.7874 7.09092 0
M  V30 21401 H 2039.27 -0.0056993 0.675976 0
M  V30 21402 H 2041.82 0.631614 1.95448 0
M  V30 21403 H 2040.05 -1.28022 3.64893 0
M  V30 21404 H 2041.74 -0.978357 3.93933 0
M  V30 21405 H 2042.51 1.40345 4.6425 0
M  V30 21406 H 2038.38 0.177759 4.60657 0
M  V30 21407 H 2041.93 3.25578 6.16964 0
M  V30 21408 H 2037.83 2.02176 6.13021 0
M  V30 21409 H 2038.59 3.75473 7.27298 0
M  V30 21410 N 2041.26 -1.56548 0.18182 0
M  V30 21411 C 2042.48 -2.02015 -0.469543 0
M  V30 21412 C 2042.91 -1.06119 -1.55307 0
M  V30 21413 O 2042.26 -0.0424595 -1.8125 0
M  V30 21414 C 2042.31 -3.46016 -1.01515 0
M  V30 21415 O 2041.42 -3.53215 -2.12869 0
M  V30 21416 H 2040.76 -0.65461 -0.111273 0
M  V30 21417 H 2043.29 -2.02552 0.288798 0
M  V30 21418 H 2043.3 -3.85537 -1.33511 0
M  V30 21419 H 2041.97 -4.15308 -0.22188 0
M  V30 21420 H 2040.55 -3.2556 -1.81838 0
M  V30 21421 N 2042.73 0.0918577 -1.57332 0
M  V30 21422 C 2044.15 0.446151 -1.53237 0
M  V30 21423 C 2044.35 1.80332 -0.899027 0
M  V30 21424 O 2043.41 2.47642 -0.492921 0
M  V30 21425 C 2044.72 0.405662 -2.97951 0
M  V30 21426 C 2046.27 0.487286 -3.09184 0
M  V30 21427 C 2046.74 0.476912 -4.5551 0
M  V30 21428 N 2048.23 0.537573 -4.6007 0
M  V30 21429 C 2048.97 0.551436 -5.70742 0
M  V30 21430 N 2048.46 0.521312 -6.90836 0
M  V30 21431 N 2050.26 0.59649 -5.58926 0
M  V30 21432 H 2042.41 -0.797061 -1.96877 0
M  V30 21433 H 2044.67 -0.297022 -0.900268 0
M  V30 21434 H 2044.38 -0.524467 -3.47768 0
M  V30 21435 H 2044.25 1.22343 -3.56808 0
M  V30 21436 H 2046.64 1.40783 -2.59353 0
M  V30 21437 H 2046.72 -0.358678 -2.53273 0
M  V30 21438 H 2046.36 -0.439705 -5.05993 0
M  V30 21439 H 2046.29 1.34013 -5.09262 0
M  V30 21440 H 2048.78 0.565916 -3.73639 0
M  V30 21441 H 2049.1 0.535263 -7.70944 0
M  V30 21442 H 2047.44 0.48831 -6.93282 0
M  V30 21443 H 2050.63 0.617576 -4.64008 0
M  V30 21444 H 2050.81 0.603826 -6.45181 0
M  V30 21445 N 2044.21 1.53368 0.362763 0
M  V30 21446 C 2045.49 1.60294 1.12095 0
M  V30 21447 C 2045.87 0.412218 2.07036 0
M  V30 21448 O 2045.22 -0.597284 2.20556 0
M  V30 21449 C 2045.43 2.95458 1.85757 0
M  V30 21450 C 2046.78 3.50135 2.40189 0
M  V30 21451 O 2047.8 2.97506 1.9588 0
M  V30 21452 O 2046.66 4.42146 3.212 0
M  V30 21453 H 2043.75 0.647572 0.514373 0
M  V30 21454 H 2046.3 1.65711 0.3658 0
M  V30 21455 H 2045.07 3.73561 1.16482 0
M  V30 21456 H 2044.69 2.93545 2.68174 0
M  V30 21457 N 2045.69 -0.62272 1.44776 0
M  V30 21458 C 2046.94 -1.37937 1.47708 0
M  V30 21459 C 2047.26 -1.94665 0.114186 0
M  V30 21460 O 2046.53 -1.76277 -0.854583 0
M  V30 21461 H 2045.11 -0.512023 0.543914 0
M  V30 21462 H 2047.77 -0.732336 1.80618 0
M  V30 21463 H 2046.87 -2.20646 2.2073 0
M  V30 21464 N 2047.17 -1.31814 -0.863883 0
M  V30 21465 C 2048.12 -1.19976 -1.97166 0
M  V30 21466 C 2049.09 -0.0840886 -1.65887 0
M  V30 21467 O 2050.27 -0.258021 -1.89047 0
M  V30 21468 C 2047.41 -0.919316 -3.3263 0
M  V30 21469 C 2046.52 -2.1189 -3.76466 0
M  V30 21470 C 2045.66 -1.77472 -5.00677 0
M  V30 21471 C 2044.7 -2.93804 -5.36978 0
M  V30 21472 N 2043.83 -2.59541 -6.52367 0
M  V30 21473 H 2048.67 -2.14735 -2.06623 0
M  V30 21474 H 2046.21 -1.06811 -1.01143 0
M  V30 21475 H 2048.17 -0.737251 -4.10634 0
M  V30 21476 H 2046.8 -0.0085443 -3.22799 0
M  V30 21477 H 2045.85 -2.41154 -2.94192 0
M  V30 21478 H 2047.16 -2.98939 -3.99295 0
M  V30 21479 H 2046.32 -1.55764 -5.86364 0
M  V30 21480 H 2045.06 -0.876231 -4.79764 0
M  V30 21481 H 2044.06 -3.16154 -4.49807 0
M  V30 21482 H 2045.29 -3.84371 -5.59853 0
M  V30 21483 H 2043.23 -1.72222 -6.32989 0
M  V30 21484 H 2043.15 -3.4012 -6.7517 0
M  V30 21485 H 2044.42 -2.4124 -7.41231 0
M  V30 21486 N 2048.65 1.07897 -1.14873 0
M  V30 21487 C 2049.58 2.16955 -0.863287 0
M  V30 21488 C 2050.56 1.69103 0.183853 0
M  V30 21489 O 2051.74 1.9416 0.0394136 0
M  V30 21490 C 2048.87 3.45575 -0.345696 0
M  V30 21491 C 2047.83 4.06847 -1.32888 0
M  V30 21492 C 2047.15 5.30481 -0.670367 0
M  V30 21493 C 2048.45 4.47523 -2.69296 0
M  V30 21494 H 2050.15 2.41091 -1.77526 0
M  V30 21495 H 2047.69 1.1587 -0.854991 0
M  V30 21496 H 2049.65 4.21188 -0.133575 0
M  V30 21497 H 2048.37 3.21009 0.601722 0
M  V30 21498 H 2047.03 3.33272 -1.52726 0
M  V30 21499 H 2046.68 5.02203 0.283023 0
M  V30 21500 H 2046.38 5.72433 -1.32645 0
M  V30 21501 H 2047.9 6.08805 -0.467891 0
M  V30 21502 H 2049.31 5.1429 -2.53335 0
M  V30 21503 H 2047.71 5.00409 -3.31226 0
M  V30 21504 H 2048.78 3.59159 -3.2578 0
M  V30 21505 N 2050.12 0.944665 1.2615 0
M  V30 21506 C 2051.07 0.44787 2.28247 0
M  V30 21507 C 2052.07 -0.476672 1.62555 0
M  V30 21508 O 2053.27 -0.3545 1.76475 0
M  V30 21509 H 2049.65 0.126306 0.741317 0
M  V30 21510 H 2051.62 1.32142 2.67546 0
M  V30 21511 C 2050.37 -0.268298 3.46663 0
M  V30 21512 H 2049.69 0.433964 3.97438 0
M  V30 21513 H 2051.13 -0.580074 4.20013 0
M  V30 21514 C 2049.59 -1.48732 3.02292 0
M  V30 21515 O 2050.12 -2.58549 3.07434 0
M  V30 21516 N 2048.33 -1.34513 2.57594 0
M  V30 21517 H 2047.87 -0.451649 2.5361 0
M  V30 21518 H 2047.83 -2.16196 2.28269 0
M  V30 21519 N 2051.6 -1.40596 0.712085 0
M  V30 21520 C 2052.54 -2.28199 0.00642592 0
M  V30 21521 C 2053.51 -1.43146 -0.771234 0
M  V30 21522 O 2054.7 -1.72561 -0.758605 0
M  V30 21523 C 2051.82 -3.23654 -0.998287 0
M  V30 21524 C 2050.87 -4.25358 -0.311852 0
M  V30 21525 S 2051.7 -5.26866 0.957734 0
M  V30 21526 C 2052.86 -6.25884 -0.0449648 0
M  V30 21527 H 2053.09 -2.877 0.749396 0
M  V30 21528 H 2050.63 -1.45978 0.502974 0
M  V30 21529 H 2052.58 -3.79176 -1.57275 0
M  V30 21530 H 2051.24 -2.63217 -1.71394 0
M  V30 21531 H 2050.44 -4.92484 -1.07125 0
M  V30 21532 H 2050.04 -3.73517 0.18997 0
M  V30 21533 H 2052.33 -6.7159 -0.892942 0
M  V30 21534 H 2053.27 -7.05614 0.592806 0
M  V30 21535 H 2053.68 -5.6303 -0.407125 0
M  V30 21536 N 2053.08 -0.458013 -1.50798 0
M  V30 21537 C 2054.04 0.331466 -2.26791 0
M  V30 21538 C 2055.04 0.931853 -1.31046 0
M  V30 21539 O 2056.23 0.803071 -1.54585 0
M  V30 21540 C 2053.37 1.4709 -3.07534 0
M  V30 21541 H 2054.56 -0.334805 -2.98025 0
M  V30 21542 H 2052.11 -0.211715 -1.54859 0
M  V30 21543 H 2052.85 2.17261 -2.40765 0
M  V30 21544 H 2052.63 1.04634 -3.77881 0
M  V30 21545 H 2054.12 2.02815 -3.65042 0
M  V30 21546 N 2054.56 1.56449 -0.190119 0
M  V30 21547 C 2055.49 2.14748 0.771918 0
M  V30 21548 C 2056.47 1.08278 1.21304 0
M  V30 21549 O 2057.65 1.36362 1.30144 0
M  V30 21550 C 2054.78 2.70233 2.04186 0
M  V30 21551 C 2053.83 3.89246 1.74327 0
M  V30 21552 S 2054.66 5.27954 0.895791 0
M  V30 21553 C 2055.82 5.86857 2.17599 0
M  V30 21554 H 2056.05 2.96013 0.276302 0
M  V30 21555 H 2053.58 1.5438 0.0248132 0
M  V30 21556 H 2055.54 3.02845 2.7712 0
M  V30 21557 H 2054.2 1.89018 2.5086 0
M  V30 21558 H 2053.39 4.26461 2.68602 0
M  V30 21559 H 2053 3.57618 1.09478 0
M  V30 21560 H 2055.29 6.00917 3.12898 0
M  V30 21561 H 2056.23 6.83554 1.84823 0
M  V30 21562 H 2056.64 5.15422 2.30218 0
M  V30 21563 N 2056.04 -0.0835127 1.57379 0
M  V30 21564 C 2057 -1.08477 2.01905 0
M  V30 21565 C 2058 -1.32278 0.91428 0
M  V30 21566 O 2059.19 -1.28196 1.17947 0
M  V30 21567 C 2056.32 -2.43121 2.38967 0
M  V30 21568 H 2057.52 -0.701256 2.91586 0
M  V30 21569 H 2055.07 -0.328903 1.528 0
M  V30 21570 H 2055.8 -2.86326 1.52275 0
M  V30 21571 H 2055.59 -2.2719 3.19573 0
M  V30 21572 H 2057.08 -3.15113 2.74032 0
M  V30 21573 N 2057.52 -1.53558 -0.354624 0
M  V30 21574 C 2058.74 -1.74194 -1.11643 0
M  V30 21575 C 2059.16 -0.475943 -1.82703 0
M  V30 21576 O 2058.52 0.551798 -1.73958 0
M  V30 21577 C 2058.57 -2.91471 -2.13839 0
M  V30 21578 O 2058.29 -4.13173 -1.45671 0
M  V30 21579 C 2059.79 -3.24068 -3.02481 0
M  V30 21580 H 2057.01 -0.58232 -0.333383 0
M  V30 21581 H 2059.55 -2.00344 -0.410204 0
M  V30 21582 H 2057.71 -2.67684 -2.80043 0
M  V30 21583 H 2058.12 -4.78924 -2.13851 0
M  V30 21584 H 2059.6 -4.09506 -3.70147 0
M  V30 21585 H 2060.07 -2.39897 -3.67894 0
M  V30 21586 H 2060.68 -3.4982 -2.4188 0
M  V30 21587 N 2058.99 0.615033 -1.45104 0
M  V30 21588 C 2059.9 1.75459 -1.55728 0
M  V30 21589 C 2060.92 1.6829 -0.442095 0
M  V30 21590 O 2062.1 1.88779 -0.701735 0
M  V30 21591 C 2059.16 3.11899 -1.51394 0
M  V30 21592 C 2058.22 3.30578 -2.73892 0
M  V30 21593 C 2057.45 4.60509 -2.69754 0
M  V30 21594 O 2057.68 5.42353 -1.76662 0
M  V30 21595 O 2056.61 4.81739 -3.60848 0
M  V30 21596 H 2060.44 1.69447 -2.52035 0
M  V30 21597 H 2058.02 0.778221 -1.27531 0
M  V30 21598 H 2059.9 3.93203 -1.51557 0
M  V30 21599 H 2058.58 3.18418 -0.582365 0
M  V30 21600 H 2057.49 2.48891 -2.79292 0
M  V30 21601 H 2058.82 3.2893 -3.6615 0
M  V30 21602 N 2060.47 1.3227 0.85688 0
M  V30 21603 C 2061.4 1.15353 1.96898 0
M  V30 21604 C 2062.38 0.0535673 1.62512 0
M  V30 21605 O 2063.57 0.212459 1.87299 0
M  V30 21606 C 2060.69 0.765398 3.29938 0
M  V30 21607 C 2059.74 1.87028 3.83305 0
M  V30 21608 S 2060.57 3.47817 4.07165 0
M  V30 21609 C 2061.73 3.1097 5.43184 0
M  V30 21610 H 2061.96 2.09497 2.10946 0
M  V30 21611 H 2059.49 1.16905 1.00859 0
M  V30 21612 H 2061.45 0.548223 4.06823 0
M  V30 21613 H 2060.11 -0.157141 3.13707 0
M  V30 21614 H 2059.31 1.55165 4.7952 0
M  V30 21615 H 2058.91 2.04319 3.13257 0
M  V30 21616 H 2061.2 2.60676 6.25343 0
M  V30 21617 H 2062.14 4.06199 5.80007 0
M  V30 21618 H 2062.55 2.48051 5.07081 0
M  V30 21619 N 2061.95 -1.07287 1.15444 0
M  V30 21620 C 2063.19 -1.8149 0.940261 0
M  V30 21621 C 2063.55 -1.84734 -0.523206 0
M  V30 21622 O 2064.75 -2.54815 -0.855738 0
M  V30 21623 C 2063.03 -3.22592 1.53848 0
M  V30 21624 S 2064.58 -4.13533 1.4675 0
M  V30 21625 H 2061.4 -0.625317 0.338377 0
M  V30 21626 H 2064 -1.28879 1.47005 0
M  V30 21627 H 2062.71 -3.1782 2.59651 0
M  V30 21628 H 2062.24 -3.80278 1.00758 0
M  V30 21629 H 2064.25 -4.94055 0.460833 0
M  V30 21630 N 2063.43 -0.951342 -1.25647 0
M  V30 21631 C 2064.37 -0.467715 -2.26011 0
M  V30 21632 C 2065.34 0.478049 -1.59072 0
M  V30 21633 O 2066.53 0.392024 -1.86729 0
M  V30 21634 C 2063.67 0.251483 -3.44182 0
M  V30 21635 C 2062.78 -0.731135 -4.25768 0
M  V30 21636 C 2061.92 0.0102901 -5.31199 0
M  V30 21637 C 2060.96 -0.963479 -6.0447 0
M  V30 21638 N 2060.09 -0.253142 -7.01643 0
M  V30 21639 H 2064.93 -1.32847 -2.6675 0
M  V30 21640 H 2062.47 -0.666278 -1.31146 0
M  V30 21641 H 2064.43 0.685002 -4.11538 0
M  V30 21642 H 2063.06 1.07631 -3.04328 0
M  V30 21643 H 2062.11 -1.28314 -3.58106 0
M  V30 21644 H 2063.42 -1.47435 -4.76513 0
M  V30 21645 H 2062.58 0.502603 -6.04615 0
M  V30 21646 H 2061.32 0.78632 -4.81319 0
M  V30 21647 H 2060.32 -1.46682 -5.29872 0
M  V30 21648 H 2061.55 -1.73968 -6.56439 0
M  V30 21649 H 2059.49 0.50421 -6.54059 0
M  V30 21650 H 2059.41 -0.935511 -7.50189 0
M  V30 21651 H 2060.68 0.217742 -7.79196 0
M  V30 21652 N 2064.91 1.40216 -0.719531 0
M  V30 21653 C 2065.85 2.32527 -0.0584211 0
M  V30 21654 C 2066.85 1.52249 0.742746 0
M  V30 21655 O 2068.05 1.68021 0.64567 0
M  V30 21656 H 2064.43 0.752 -8.96276e-05 0
M  V30 21657 H 2066.4 2.8593 -0.853622 0
M  V30 21658 C 2065.15 3.37242 0.846339 0
M  V30 21659 H 2064.47 3.99083 0.23926 0
M  V30 21660 H 2065.91 4.04319 1.2768 0
M  V30 21661 C 2064.37 2.7304 1.9736 0
M  V30 21662 O 2064.9 2.59677 3.06481 0
M  V30 21663 N 2063.11 2.31363 1.7584 0
M  V30 21664 H 2062.65 2.42431 0.870906 0
M  V30 21665 H 2062.61 1.88744 2.51442 0
M  V30 21666 N 2066.38 0.466004 1.50553 0
M  V30 21667 C 2067.62 -0.0895486 2.04204 0
M  V30 21668 C 2067.99 -1.37441 1.34067 0
M  V30 21669 O 2069.19 -2.01202 1.78245 0
M  V30 21670 C 2067.46 -0.274301 3.56346 0
M  V30 21671 S 2069.02 -0.789141 4.31646 0
M  V30 21672 H 2065.84 -0.0183592 0.710763 0
M  V30 21673 H 2068.44 0.631979 1.85003 0
M  V30 21674 H 2067.14 0.666704 4.04948 0
M  V30 21675 H 2066.67 -1.02209 3.79891 0
M  V30 21676 H 2068.69 -2.06321 4.51272 0
M  V30 21677 N 2067.86 -1.56346 0.198413 0
M  V30 21678 C 2068.81 -2.15862 -0.734002 0
M  V30 21679 C 2069.8 -1.10032 -1.17396 0
M  V30 21680 O 2070.99 -1.36085 -1.13181 0
M  V30 21681 C 2068.12 -2.8241 -1.95191 0
M  V30 21682 C 2067.2 -3.95436 -1.53269 0
M  V30 21683 N 2067.59 -4.99032 -0.824642 0
M  V30 21684 C 2065.89 -4.07098 -1.82174 0
M  V30 21685 C 2066.59 -5.78449 -0.614107 0
M  V30 21686 N 2065.57 -5.30995 -1.16384 0
M  V30 21687 H 2069.37 -2.93321 -0.184355 0
M  V30 21688 H 2066.88 -1.624 -0.00124749 0
M  V30 21689 H 2068.88 -3.23443 -2.6304 0
M  V30 21690 H 2067.54 -2.0644 -2.50624 0
M  V30 21691 H 2068.55 -5.15673 -0.479757 0
M  V30 21692 H 2065.23 -3.42258 -2.39093 0
M  V30 21693 H 2066.62 -6.7188 -0.0521937 0
M  V30 21694 N 2069.34 0.0751653 -1.57421 0
M  V30 21695 C 2070.27 1.11632 -2.00177 0
M  V30 21696 C 2071.29 1.35179 -0.907222 0
M  V30 21697 O 2072.47 1.33479 -1.18515 0
M  V30 21698 C 2069.57 2.46792 -2.32265 0
M  V30 21699 C 2068.75 2.43248 -3.63524 0
M  V30 21700 C 2067.81 3.60488 -3.8332 0
M  V30 21701 O 2066.83 3.42071 -4.54946 0
M  V30 21702 N 2068.03 4.80713 -3.25416 0
M  V30 21703 H 2070.8 0.752243 -2.90106 0
M  V30 21704 H 2068.36 0.263867 -1.59735 0
M  V30 21705 H 2070.35 3.23861 -2.42685 0
M  V30 21706 H 2068.92 2.75214 -1.48243 0
M  V30 21707 H 2068.14 1.51587 -3.63889 0
M  V30 21708 H 2069.43 2.37977 -4.49716 0
M  V30 21709 H 2068.83 4.9858 -2.67273 0
M  V30 21710 H 2067.39 5.55306 -3.4129 0
M  V30 21711 N 2070.82 1.53744 0.346476 0
M  V30 21712 C 2072.23 1.62331 0.922251 0
M  V30 21713 C 2072.58 0.502763 1.89649 0
M  V30 21714 O 2071.71 -0.367943 2.13249 0
M  V30 21715 C 2072.3 2.94243 1.67948 0
M  V30 21716 C 2070.86 3.05102 2.20431 0
M  V30 21717 C 2070.01 2.57759 1.02252 0
M  V30 21718 H 2072.96 1.58209 0.124698 0
M  V30 21719 H 2072.98 2.83118 2.54213 0
M  V30 21720 H 2072.49 3.75779 0.970157 0
M  V30 21721 H 2070.59 2.28194 2.94547 0
M  V30 21722 H 2070.7 4.1052 2.47003 0
M  V30 21723 H 2069.07 2.13095 1.39508 0
M  V30 21724 H 2069.85 3.41731 0.327885 0
M  V30 21725 N 2072.3 -0.607329 1.45428 0
M  V30 21726 C 2073.26 -1.69997 1.53732 0
M  V30 21727 C 2074.26 -1.55304 0.416799 0
M  V30 21728 O 2075.45 -1.60367 0.680287 0
M  V30 21729 C 2072.58 -3.09267 1.43411 0
M  V30 21730 H 2073.77 -1.64001 2.51085 0
M  V30 21731 H 2071.33 -0.82308 1.32872 0
M  V30 21732 H 2072.06 -3.2084 0.47243 0
M  V30 21733 H 2071.85 -3.2134 2.24685 0
M  V30 21734 H 2073.34 -3.88855 1.52255 0
M  V30 21735 N 2073.77 -1.32722 -0.849853 0
M  V30 21736 C 2074.72 -1.22024 -1.98023 0
M  V30 21737 C 2075.72 -0.12398 -1.68946 0
M  V30 21738 O 2076.92 -0.287223 -1.77694 0
M  V30 21739 H 2073.3 -0.378378 -0.649873 0
M  V30 21740 H 2075.27 -2.17614 -2.04173 0
M  V30 21741 C 2074.02 -0.965076 -3.34038 0
M  V30 21742 H 2073.34 -1.80084 -3.56945 0
M  V30 21743 H 2074.78 -0.93048 -4.13664 0
M  V30 21744 C 2073.24 0.332137 -3.35259 0
M  V30 21745 O 2073.77 1.34244 -3.78604 0
M  V30 21746 N 2071.98 0.355806 -2.88414 0
M  V30 21747 H 2071.52 -0.46689 -2.53334 0
M  V30 21748 H 2071.48 1.2236 -2.89613 0
M  V30 21749 N 2075.25 1.06673 -1.16011 0
M  V30 21750 C 2076.5 1.794 -0.939249 0
M  V30 21751 C 2076.83 1.87049 0.533193 0
M  V30 21752 O 2076.08 1.35544 1.4116 0
M  V30 21753 C 2076.38 3.24069 -1.50712 0
M  V30 21754 C 2076.05 3.36507 -3.00123 0
M  V30 21755 C 2074.71 3.39609 -3.4091 0
M  V30 21756 C 2077.06 3.38741 -3.96111 0
M  V30 21757 C 2074.39 3.42556 -4.76311 0
M  V30 21758 C 2076.74 3.43226 -5.31393 0
M  V30 21759 C 2075.41 3.44608 -5.71665 0
M  V30 21760 H 2074.68 0.656471 -0.343696 0
M  V30 21761 H 2077.32 1.25476 -1.44665 0
M  V30 21762 H 2075.63 3.80819 -0.921077 0
M  V30 21763 H 2077.32 3.78931 -1.31196 0
M  V30 21764 H 2073.91 3.34796 -2.676 0
M  V30 21765 H 2078.1 3.35559 -3.65669 0
M  V30 21766 H 2073.35 3.41928 -5.06848 0
M  V30 21767 H 2077.53 3.43902 -6.05561 0
M  V30 21768 H 2075.16 3.46645 -6.76566 0
M  V30 21769 N 2076.73 0.957992 1.25141 0
M  V30 21770 C 2077.68 0.479695 2.2576 0
M  V30 21771 C 2078.65 -0.469606 1.59323 0
M  V30 21772 O 2079.83 -0.382116 1.86935 0
M  V30 21773 C 2076.97 -0.233227 3.44311 0
M  V30 21774 C 2076.09 0.753705 4.25374 0
M  V30 21775 C 2075.22 0.0178808 5.31197 0
M  V30 21776 C 2074.26 0.995522 6.0395 0
M  V30 21777 N 2073.4 0.290349 7.01499 0
M  V30 21778 H 2078.24 1.3426 2.66042 0
M  V30 21779 H 2075.77 0.673224 1.3079 0
M  V30 21780 H 2077.73 -0.663168 4.11896 0
M  V30 21781 H 2076.36 -1.06015 3.04894 0
M  V30 21782 H 2075.41 1.30212 3.5742 0
M  V30 21783 H 2076.73 1.4996 4.75724 0
M  V30 21784 H 2075.88 -0.470532 6.04873 0
M  V30 21785 H 2074.62 -0.760784 4.8173 0
M  V30 21786 H 2073.62 1.4949 5.29087 0
M  V30 21787 H 2074.85 1.77447 6.55507 0
M  V30 21788 H 2072.79 -0.469516 6.54318 0
M  V30 21789 H 2072.71 0.975282 7.49683 0
M  V30 21790 H 2073.98 -0.176416 7.793 0
M  V30 21791 N 2078.21 -1.39832 0.726957 0
M  V30 21792 C 2079.62 -1.54462 0.401692 0
M  V30 21793 C 2079.82 -1.6958 -1.08834 0
M  V30 21794 O 2078.88 -1.69177 -1.87444 0
M  V30 21795 C 2080.19 -2.76679 1.17769 0
M  V30 21796 C 2081.74 -2.90507 1.16511 0
M  V30 21797 C 2082.22 -4.1565 1.9235 0
M  V30 21798 N 2083.71 -4.22674 1.89476 0
M  V30 21799 C 2084.44 -5.18437 2.44971 0
M  V30 21800 N 2083.94 -6.20038 3.0907 0
M  V30 21801 N 2085.73 -5.10596 2.3505 0
M  V30 21802 H 2077.88 -1.28266 1.69297 0
M  V30 21803 H 2080.15 -0.621077 0.716217 0
M  V30 21804 H 2079.85 -2.71823 2.2317 0
M  V30 21805 H 2079.73 -3.69115 0.776799 0
M  V30 21806 H 2082.11 -2.94859 0.119254 0
M  V30 21807 H 2082.19 -1.99157 1.60531 0
M  V30 21808 H 2081.84 -4.1206 2.96933 0
M  V30 21809 H 2081.77 -5.0603 1.45743 0
M  V30 21810 H 2084.26 -3.49892 1.42772 0
M  V30 21811 H 2084.57 -6.89555 3.48903 0
M  V30 21812 H 2082.92 -6.20449 3.13158 0
M  V30 21813 H 2086.11 -4.30154 1.84622 0
M  V30 21814 H 2086.28 -5.85053 2.78599 0
M  V30 21815 N 2079.69 -0.473982 -1.50304 0
M  V30 21816 C 2080.93 0.0787179 -2.04248 0
M  V30 21817 C 2081.29 1.36728 -1.34794 0
M  V30 21818 O 2082.49 2.00254 -1.7931 0
M  V30 21819 C 2080.76 0.255399 -3.56486 0
M  V30 21820 S 2082.32 0.766239 -4.32058 0
M  V30 21821 H 2079.14 0.0145896 -0.71085 0
M  V30 21822 H 2081.74 -0.641781 -1.84666 0
M  V30 21823 H 2080.45 -0.68817 -4.04589 0
M  V30 21824 H 2079.98 1.00193 -3.80427 0
M  V30 21825 H 2081.99 2.03925 -4.52359 0
M  V30 21826 N 2081.16 1.56239 -0.206702 0
M  V30 21827 C 2082.4 1.99804 0.431018 0
M  V30 21828 C 2082.77 1.09097 1.57993 0
M  V30 21829 O 2083.97 1.41946 2.28264 0
M  V30 21830 C 2082.24 3.46687 0.868508 0
M  V30 21831 S 2083.8 4.12277 1.50243 0
M  V30 21832 H 2080.62 0.697599 0.137395 0
M  V30 21833 H 2083.22 1.92986 -0.3125 0
M  V30 21834 H 2081.92 4.10394 0.0224278 0
M  V30 21835 H 2081.45 3.57347 1.64521 0
M  V30 21836 H 2083.47 4.1024 2.79136 0
M  V30 21837 N 2082.64 -0.0668159 1.57458 0
M  V30 21838 C 2084.05 -0.618057 1.76173 0
M  V30 21839 C 2084.4 -1.77647 0.83283 0
M  V30 21840 O 2083.53 -2.16392 0.0181509 0
M  V30 21841 C 2084.12 -1.12796 3.19472 0
M  V30 21842 C 2082.68 -1.62503 3.39514 0
M  V30 21843 C 2081.83 -0.546584 2.7186 0
M  V30 21844 H 2084.78 0.15937 1.57898 0
M  V30 21845 H 2084.8 -1.99663 3.23906 0
M  V30 21846 H 2084.31 -0.284643 3.87055 0
M  V30 21847 H 2082.42 -2.49144 2.77053 0
M  V30 21848 H 2082.53 -1.69854 4.4798 0
M  V30 21849 H 2080.89 -0.992807 2.34554 0
M  V30 21850 H 2081.68 0.286635 3.42101 0
M  V30 21851 N 2084.12 -1.53926 -0.338317 0
M  V30 21852 C 2085.05 -1.85269 -1.42119 0
M  V30 21853 C 2086.03 -0.708238 -1.54654 0
M  V30 21854 O 2087.22 -0.960631 -1.68777 0
M  V30 21855 C 2084.35 -2.06693 -2.79097 0
M  V30 21856 C 2083.3 -3.22519 -2.81364 0
M  V30 21857 C 2082.63 -3.29286 -4.21277 0
M  V30 21858 C 2083.93 -4.6051 -2.46431 0
M  V30 21859 H 2085.62 -2.75957 -1.16137 0
M  V30 21860 H 2083.17 -1.32781 -0.557249 0
M  V30 21861 H 2085.12 -2.27204 -3.54903 0
M  V30 21862 H 2083.84 -1.1274 -3.06524 0
M  V30 21863 H 2082.5 -3.01872 -2.08011 0
M  V30 21864 H 2082.15 -2.32919 -4.45823 0
M  V30 21865 H 2081.85 -4.07123 -4.23704 0
M  V30 21866 H 2083.38 -3.52014 -4.98918 0
M  V30 21867 H 2084.79 -4.80999 -3.1195 0
M  V30 21868 H 2083.19 -5.40788 -2.60132 0
M  V30 21869 H 2084.26 -4.63762 -1.41607 0
M  V30 21870 N 2085.6 0.599608 -1.45748 0
M  V30 21871 C 2086.85 1.3604 -1.50403 0
M  V30 21872 C 2087.18 1.93632 -0.148419 0
M  V30 21873 O 2086.45 1.75516 0.838118 0
M  V30 21874 C 2086.74 2.50237 -2.58946 0
M  V30 21875 C 2086.59 1.9779 -4.03979 0
M  V30 21876 C 2087.91 3.52344 -2.63708 0
M  V30 21877 H 2085.03 0.49329 -0.547571 0
M  V30 21878 H 2087.67 0.675178 -1.77599 0
M  V30 21879 H 2085.82 3.0869 -2.35888 0
M  V30 21880 H 2087.49 1.43925 -4.38273 0
M  V30 21881 H 2085.73 1.28734 -4.14258 0
M  V30 21882 H 2086.41 2.80147 -4.75628 0
M  V30 21883 H 2088.88 3.03746 -2.8439 0
M  V30 21884 H 2087.76 4.29728 -3.41504 0
M  V30 21885 H 2088.02 4.08481 -1.69103 0
M  V30 21886 N 2087.08 1.33171 0.842803 0
M  V30 21887 C 2088.32 1.25734 1.61153 0
M  V30 21888 C 2088.68 -0.175326 1.91198 0
M  V30 21889 O 2089.88 -0.37361 2.66191 0
M  V30 21890 C 2088.15 2.10432 2.88882 0
M  V30 21891 S 2089.71 2.20144 3.79582 0
M  V30 21892 H 2086.53 0.44738 0.552605 0
M  V30 21893 H 2089.13 1.68159 0.997142 0
M  V30 21894 H 2087.84 3.13563 2.64776 0
M  V30 21895 H 2087.37 1.68829 3.55331 0
M  V30 21896 H 2089.38 1.35962 4.77209 0
M  V30 21897 N 2088.56 -1.06056 1.16576 0
M  V30 21898 C 2089.8 -1.78546 0.946876 0
M  V30 21899 C 2090.12 -1.87758 -0.526489 0
M  V30 21900 O 2089.39 -1.38801 -1.38243 0
M  V30 21901 H 2087.97 -0.661335 0.347341 0
M  V30 21902 H 2090.64 -1.28101 1.46888 0
M  V30 21903 H 2089.73 -2.80537 1.36767 0
M  V30 21904 N 2090.03 -0.964615 -1.24631 0
M  V30 21905 C 2090.98 -0.49166 -2.25502 0
M  V30 21906 C 2091.95 0.46115 -1.5957 0
M  V30 21907 O 2093.14 0.372197 -1.87135 0
M  V30 21908 C 2090.28 0.214964 -3.4443 0
M  V30 21909 C 2089.39 -0.776253 -4.24969 0
M  V30 21910 C 2088.52 -0.0460512 -5.3118 0
M  V30 21911 C 2087.56 -1.02754 -6.03414 0
M  V30 21912 N 2086.7 -0.327547 -7.01336 0
M  V30 21913 H 2091.54 -1.35669 -2.65326 0
M  V30 21914 H 2089.08 -0.68015 -1.30431 0
M  V30 21915 H 2091.03 0.641314 -4.12241 0
M  V30 21916 H 2089.66 1.04397 -3.05452 0
M  V30 21917 H 2088.72 -1.32105 -3.56724 0
M  V30 21918 H 2090.03 -1.52481 -4.74922 0
M  V30 21919 H 2089.18 0.438447 -6.05114 0
M  V30 21920 H 2087.92 0.735226 -4.82126 0
M  V30 21921 H 2086.93 -1.52294 -5.28286 0
M  V30 21922 H 2088.15 -1.80921 -6.54557 0
M  V30 21923 H 2086.1 0.43481 -6.54557 0
M  V30 21924 H 2086.01 -1.01503 -7.49155 0
M  V30 21925 H 2087.28 0.135085 -7.79383 0
M  V30 21926 N 2091.51 1.39445 -0.734362 0
M  V30 21927 C 2092.47 2.28971 -0.102477 0
M  V30 21928 C 2093.47 1.46277 0.667805 0
M  V30 21929 O 2094.66 1.66962 0.496917 0
M  V30 21930 C 2091.8 3.29767 0.864107 0
M  V30 21931 H 2092.99 2.86352 -0.891208 0
M  V30 21932 H 2090.54 1.48082 -0.500154 0
M  V30 21933 H 2091.28 2.7744 1.67922 0
M  V30 21934 H 2091.06 3.90837 0.314418 0
M  V30 21935 H 2092.55 3.96757 1.30282 0
M  V30 21936 N 2092.99 0.481946 1.5005 0
M  V30 21937 C 2094.24 -0.0710199 2.01575 0
M  V30 21938 C 2094.55 -1.39798 1.36806 0
M  V30 21939 O 2095.76 -2.03653 1.79549 0
M  V30 21940 C 2094.21 -0.177064 3.59464 0
M  V30 21941 C 2093.82 1.14212 4.33197 0
M  V30 21942 C 2095.57 -0.681409 4.18995 0
M  V30 21943 C 2093.47 0.999274 5.82897 0
M  V30 21944 H 2092.4 -0.0303162 0.75339 0
M  V30 21945 H 2095.05 0.618487 1.72763 0
M  V30 21946 H 2093.44 -0.930598 3.8491 0
M  V30 21947 H 2094.61 1.90745 4.19467 0
M  V30 21948 H 2092.92 1.57841 3.85325 0
M  V30 21949 H 2095.52 -0.805484 5.28598 0
M  V30 21950 H 2095.86 -1.6755 3.81094 0
M  V30 21951 H 2096.4 0.015045 3.97797 0
M  V30 21952 H 2093.14 1.96706 6.2529 0
M  V30 21953 H 2092.66 0.274505 5.99172 0
M  V30 21954 H 2094.34 0.670265 6.43519 0
M  V30 21955 N 2094.47 -1.56127 0.214985 0
M  V30 21956 C 2095.4 -2.17263 -0.730035 0
M  V30 21957 C 2096.41 -1.13988 -1.16235 0
M  V30 21958 O 2097.6 -1.40996 -1.09464 0
M  V30 21959 C 2094.7 -2.73608 -1.99979 0
M  V30 21960 C 2093.87 -4.01988 -1.72409 0
M  V30 21961 C 2092.93 -4.42962 -2.84026 0
M  V30 21962 O 2091.96 -5.09992 -2.52778 0
M  V30 21963 N 2093.16 -4.08103 -4.12834 0
M  V30 21964 H 2095.93 -2.98984 -0.207112 0
M  V30 21965 H 2093.49 -1.61865 0.0337349 0
M  V30 21966 H 2095.48 -2.97994 -2.73828 0
M  V30 21967 H 2094.05 -1.96229 -2.43337 0
M  V30 21968 H 2093.27 -3.85527 -0.822372 0
M  V30 21969 H 2094.56 -4.85749 -1.51411 0
M  V30 21970 H 2093.96 -3.54226 -4.41067 0
M  V30 21971 H 2092.51 -4.37396 -4.83248 0
M  V30 21972 N 2095.95 0.0584645 -1.57492 0
M  V30 21973 C 2096.88 1.0681 -2.07639 0
M  V30 21974 C 2097.86 1.3955 -0.972622 0
M  V30 21975 O 2099.04 1.48946 -1.24615 0
M  V30 21976 C 2096.17 2.37774 -2.53142 0
M  V30 21977 C 2095.13 2.19354 -3.67516 0
M  V30 21978 C 2094.45 3.5582 -3.9912 0
M  V30 21979 C 2095.75 1.60379 -4.97067 0
M  V30 21980 H 2097.45 0.650765 -2.92242 0
M  V30 21981 H 2094.99 0.311587 -1.40589 0
M  V30 21982 H 2096.94 3.08709 -2.86839 0
M  V30 21983 H 2095.67 2.81513 -1.65583 0
M  V30 21984 H 2094.33 1.50858 -3.34122 0
M  V30 21985 H 2093.98 3.97153 -3.08672 0
M  V30 21986 H 2093.68 3.4433 -4.76142 0
M  V30 21987 H 2095.2 4.28164 -4.35325 0
M  V30 21988 H 2096.61 2.21195 -5.2891 0
M  V30 21989 H 2095.01 1.59548 -5.78502 0
M  V30 21990 H 2096.08 0.566547 -4.81579 0
M  V30 21991 N 2097.42 1.54103 0.330149 0
M  V30 21992 C 2098.36 1.77865 1.42966 0
M  V30 21993 C 2099.33 0.62832 1.4997 0
M  V30 21994 O 2100.52 0.865011 1.67481 0
M  V30 21995 C 2097.65 1.88931 2.8111 0
M  V30 21996 C 2096.69 3.11177 2.91669 0
M  V30 21997 S 2097.52 4.69933 2.56755 0
M  V30 21998 C 2098.68 4.83896 3.96982 0
M  V30 21999 H 2098.91 2.70846 1.22596 0
M  V30 22000 H 2096.45 1.45142 0.526603 0
M  V30 22001 H 2098.4 1.95992 3.6069 0
M  V30 22002 H 2097.07 0.969392 2.98767 0
M  V30 22003 H 2096.26 3.15635 3.92925 0
M  V30 22004 H 2095.86 3.02412 2.20053 0
M  V30 22005 H 2098.15 4.66129 4.91661 0
M  V30 22006 H 2099.1 5.85995 3.97511 0
M  V30 22007 H 2099.5 4.12249 3.85631 0
M  V30 22008 N 2098.9 -0.59187 1.46064 0
M  V30 22009 C 2100.18 -1.35177 1.41374 0
M  V30 22010 C 2100.56 -2.10898 0.09244 0
M  V30 22011 O 2099.91 -2.08901 -0.925879 0
M  V30 22012 C 2100.12 -2.28545 2.63758 0
M  V30 22013 C 2101.47 -2.90662 3.09517 0
M  V30 22014 O 2102.49 -2.38861 2.64242 0
M  V30 22015 O 2101.35 -3.84728 3.88133 0
M  V30 22016 H 2098.44 -0.606905 0.561778 0
M  V30 22017 H 2100.99 -0.61365 1.58216 0
M  V30 22018 H 2099.76 -1.71959 3.51491 0
M  V30 22019 H 2099.38 -3.09711 2.49328 0
M  V30 22020 N 2100.38 -1.33616 -0.835729 0
M  V30 22021 C 2101.33 -1.24131 -1.94577 0
M  V30 22022 C 2102.3 -0.119257 -1.65671 0
M  V30 22023 O 2103.48 -0.298063 -1.88457 0
M  V30 22024 C 2100.62 -0.989665 -3.30605 0
M  V30 22025 C 2099.74 -2.19828 -3.71887 0
M  V30 22026 C 2098.87 -1.88052 -4.96799 0
M  V30 22027 C 2097.91 -3.05128 -5.30625 0
M  V30 22028 N 2097.05 -2.7332 -6.46715 0
M  V30 22029 H 2101.89 -2.19069 -2.02022 0
M  V30 22030 H 2099.42 -1.08932 -0.988545 0
M  V30 22031 H 2101.38 -0.824187 -4.08978 0
M  V30 22032 H 2100.01 -0.0770128 -3.22708 0
M  V30 22033 H 2099.06 -2.4734 -2.89011 0
M  V30 22034 H 2100.38 -3.07341 -3.92865 0
M  V30 22035 H 2099.53 -1.68166 -5.82928 0
M  V30 22036 H 2098.27 -0.977799 -4.77797 0
M  V30 22037 H 2097.27 -3.25624 -4.43 0
M  V30 22038 H 2098.5 -3.9616 -5.51574 0
M  V30 22039 H 2096.44 -1.8561 -6.29194 0
M  V30 22040 H 2096.36 -3.54365 -6.67804 0
M  V30 22041 H 2097.63 -2.56909 -7.35947 0
M  V30 22042 N 2101.86 1.05436 -1.17136 0
M  V30 22043 C 2103.08 1.82612 -0.983237 0
M  V30 22044 C 2103.51 1.82295 0.463697 0
M  V30 22045 O 2102.87 1.23011 1.33184 0
M  V30 22046 C 2102.91 3.26726 -1.52587 0
M  V30 22047 O 2102.02 4.05743 -0.737979 0
M  V30 22048 H 2101.36 0.564713 -0.349279 0
M  V30 22049 H 2103.89 1.3288 -1.55576 0
M  V30 22050 H 2103.9 3.77531 -1.54708 0
M  V30 22051 H 2102.57 3.26271 -2.57915 0
M  V30 22052 H 2101.15 3.64479 -0.78798 0
M  V30 22053 N 2103.34 0.971211 1.24118 0
M  V30 22054 C 2104.56 0.652357 1.96873 0
M  V30 22055 C 2104.99 -0.772193 1.71519 0
M  V30 22056 O 2104.34 -1.52463 0.981051 0
M  V30 22057 C 2104.39 0.937388 3.48203 0
M  V30 22058 O 2103.5 0.0246311 4.12393 0
M  V30 22059 H 2102.84 0.246274 0.61664 0
M  V30 22060 H 2105.37 1.30231 1.578 0
M  V30 22061 H 2105.38 0.870349 3.98609 0
M  V30 22062 H 2104.05 1.97556 3.65984 0
M  V30 22063 H 2102.63 0.145292 3.72617 0
M  V30 22064 N 2104.81 -1.39054 0.741747 0
M  V30 22065 C 2106.23 -1.54028 0.418052 0
M  V30 22066 C 2106.43 -1.70725 -1.07029 0
M  V30 22067 O 2105.49 -1.71155 -1.8564 0
M  V30 22068 C 2106.8 -2.75414 1.20697 0
M  V30 22069 C 2108.35 -2.89254 1.19586 0
M  V30 22070 C 2108.82 -4.13587 1.96748 0
M  V30 22071 N 2110.31 -4.2064 1.93948 0
M  V30 22072 C 2111.05 -5.15809 2.50456 0
M  V30 22073 N 2110.54 -6.16725 3.15629 0
M  V30 22074 N 2112.34 -5.08074 2.40452 0
M  V30 22075 H 2104.49 -1.26464 1.70648 0
M  V30 22076 H 2106.75 -0.613446 0.722764 0
M  V30 22077 H 2106.46 -2.69441 2.26041 0
M  V30 22078 H 2106.33 -3.6827 0.815905 0
M  V30 22079 H 2108.72 -2.94716 0.150521 0
M  V30 22080 H 2108.8 -1.97443 1.62635 0
M  V30 22081 H 2108.44 -4.08887 3.01287 0
M  V30 22082 H 2108.37 -5.04456 1.51102 0
M  V30 22083 H 2110.86 -3.48358 1.46475 0
M  V30 22084 H 2111.18 -6.85816 3.56197 0
M  V30 22085 H 2109.52 -6.17093 3.19721 0
M  V30 22086 H 2112.71 -4.28172 1.89174 0
M  V30 22087 H 2112.89 -5.82065 2.84788 0
M  V30 22088 N 2106.29 -0.489897 -1.49792 0
M  V30 22089 C 2107.54 0.0586308 -2.02715 0
M  V30 22090 C 2107.87 1.37665 -1.36974 0
M  V30 22091 O 2107.15 1.87919 -0.501679 0
M  V30 22092 C 2107.43 0.222812 -3.5941 0
M  V30 22093 C 2107.28 -1.11755 -4.35696 0
M  V30 22094 C 2108.6 0.96865 -4.29308 0
M  V30 22095 H 2105.72 0.0198337 -0.736733 0
M  V30 22096 H 2108.36 -0.639149 -1.78927 0
M  V30 22097 H 2106.51 0.81714 -3.79809 0
M  V30 22098 H 2108.18 -1.74991 -4.26821 0
M  V30 22099 H 2106.43 -1.70959 -3.98692 0
M  V30 22100 H 2107.1 -0.956105 -5.43657 0
M  V30 22101 H 2109.57 0.464706 -4.13497 0
M  V30 22102 H 2108.45 1.05235 -5.38718 0
M  V30 22103 H 2108.71 2.00975 -3.93778 0
M  V30 22104 N 2107.77 1.56011 -0.223262 0
M  V30 22105 C 2109.19 1.59052 0.132091 0
M  V30 22106 C 2109.39 1.2401 1.5882 0
M  V30 22107 O 2108.44 0.976155 2.32868 0
M  V30 22108 C 2109.76 3.00062 -0.195742 0
M  V30 22109 C 2111.3 3.12695 -0.138118 0
M  V30 22110 C 2111.78 4.55885 -0.439651 0
M  V30 22111 N 2113.27 4.61561 -0.389284 0
M  V30 22112 C 2114 5.70293 -0.596069 0
M  V30 22113 N 2113.5 6.87382 -0.86472 0
M  V30 22114 N 2115.29 5.59611 -0.528389 0
M  V30 22115 H 2107.44 1.77064 -1.17312 0
M  V30 22116 H 2109.71 0.823097 -0.470336 0
M  V30 22117 H 2109.41 3.3036 -1.20644 0
M  V30 22118 H 2109.29 3.74024 0.48845 0
M  V30 22119 H 2111.67 2.82192 0.863219 0
M  V30 22120 H 2111.76 2.41059 -0.855813 0
M  V30 22121 H 2111.4 4.87105 -1.43843 0
M  V30 22122 H 2111.33 5.25749 0.299255 0
M  V30 22123 H 2113.82 3.77425 -0.189406 0
M  V30 22124 H 2114.13 7.66164 -1.01056 0
M  V30 22125 H 2112.48 6.89123 -0.901933 0
M  V30 22126 H 2115.67 4.67014 -0.318724 0
M  V30 22127 H 2115.84 6.44284 -0.69295 0
M  V30 22128 N 2109.25 -0.0501116 1.5752 0
M  V30 22129 C 2110.48 -0.756338 1.92258 0
M  V30 22130 C 2110.89 -1.70529 0.819536 0
M  V30 22131 O 2110.23 -1.82444 -0.214449 0
M  V30 22132 C 2110.29 -1.58568 3.2264 0
M  V30 22133 C 2109.96 -0.803782 4.49876 0
M  V30 22134 C 2110.95 -0.11334 5.19776 0
M  V30 22135 C 2108.64 -0.764541 4.96447 0
M  V30 22136 C 2110.63 0.605876 6.34514 0
M  V30 22137 C 2108.32 -0.0415669 6.11086 0
M  V30 22138 C 2109.32 0.642421 6.79972 0
M  V30 22139 O 2109 1.3537 7.9242 0
M  V30 22140 H 2108.74 -0.218926 0.639568 0
M  V30 22141 H 2111.29 -0.0180791 2.05392 0
M  V30 22142 H 2109.52 -2.36726 3.05774 0
M  V30 22143 H 2111.21 -2.17257 3.42862 0
M  V30 22144 H 2111.98 -0.134822 4.84813 0
M  V30 22145 H 2107.85 -1.28641 4.42688 0
M  V30 22146 H 2111.4 1.1403 6.88217 0
M  V30 22147 H 2107.3 -0.0180871 6.45497 0
M  V30 22148 H 2108.06 1.2652 8.08662 0
M  V30 22149 N 2110.73 -1.54276 -0.321972 0
M  V30 22150 C 2111.95 -1.76841 -1.0836 0
M  V30 22151 C 2112.38 -0.5163 -1.80876 0
M  V30 22152 O 2111.73 0.532225 -1.73312 0
M  V30 22153 C 2111.78 -2.96236 -2.05613 0
M  V30 22154 O 2110.89 -2.67893 -3.1354 0
M  V30 22155 H 2110.23 -0.585948 -0.312347 0
M  V30 22156 H 2112.76 -2.01304 -0.365783 0
M  V30 22157 H 2112.77 -3.23627 -2.48455 0
M  V30 22158 H 2111.44 -3.87037 -1.52234 0
M  V30 22159 H 2110.02 -2.51456 -2.75362 0
M  V30 22160 N 2112.2 0.584116 -1.46376 0
M  V30 22161 C 2113.45 1.33858 -1.5088 0
M  V30 22162 C 2113.77 1.94909 -0.164319 0
M  V30 22163 O 2114.97 2.7136 -0.0871554 0
M  V30 22164 C 2113.43 2.42594 -2.6585 0
M  V30 22165 C 2113.04 1.87853 -4.06713 0
M  V30 22166 C 2114.78 3.19391 -2.79624 0
M  V30 22167 C 2112.69 2.94209 -5.13026 0
M  V30 22168 H 2111.62 0.503207 -0.561515 0
M  V30 22169 H 2114.27 0.623507 -1.72582 0
M  V30 22170 H 2112.65 3.16894 -2.37475 0
M  V30 22171 H 2113.82 1.20105 -4.44872 0
M  V30 22172 H 2112.14 1.23726 -3.97594 0
M  V30 22173 H 2114.74 3.98763 -3.56219 0
M  V30 22174 H 2115.08 3.71891 -1.8709 0
M  V30 22175 H 2115.61 2.52197 -3.07638 0
M  V30 22176 H 2112.35 2.46598 -6.07347 0
M  V30 22177 H 2111.87 3.6045 -4.79412 0
M  V30 22178 H 2113.55 3.58184 -5.38807 0
M  V30 22179 N 2113.68 1.34058 0.828631 0
M  V30 22180 C 2114.96 1.1668 1.56988 0
M  V30 22181 C 2115.34 -0.262846 2.09457 0
M  V30 22182 O 2114.69 -1.26337 1.90398 0
M  V30 22183 C 2114.9 2.21657 2.69572 0
M  V30 22184 C 2116.25 2.56341 3.38489 0
M  V30 22185 O 2117.27 2.20402 2.79824 0
M  V30 22186 O 2116.13 3.18053 4.44415 0
M  V30 22187 H 2113.22 0.451944 0.692586 0
M  V30 22188 H 2115.77 1.45672 0.870498 0
M  V30 22189 H 2114.54 3.17643 2.28515 0
M  V30 22190 H 2114.16 1.93809 3.47166 0
M  V30 22191 N 2115.16 -1.04814 1.17694 0
M  V30 22192 C 2116.09 -2.12661 0.854872 0
M  V30 22193 C 2117.11 -1.62159 -0.144345 0
M  V30 22194 O 2118.3 -1.78309 0.0824726 0
M  V30 22195 C 2115.4 -3.37942 0.254679 0
M  V30 22196 C 2114.57 -4.17706 1.2977 0
M  V30 22197 C 2113.63 -5.21326 0.714573 0
M  V30 22198 O 2112.65 -5.52033 1.38736 0
M  V30 22199 N 2113.86 -5.78415 -0.491561 0
M  V30 22200 H 2116.62 -2.40885 1.7831 0
M  V30 22201 H 2114.18 -1.20943 1.0763 0
M  V30 22202 H 2116.17 -4.04426 -0.148817 0
M  V30 22203 H 2114.74 -3.07221 -0.577415 0
M  V30 22204 H 2113.96 -3.46655 1.8768 0
M  V30 22205 H 2115.25 -4.67796 2.00112 0
M  V30 22206 H 2114.65 -5.55756 -1.05604 0
M  V30 22207 H 2113.21 -6.46403 -0.837072 0
M  V30 22208 N 2116.64 -0.977779 -1.23601 0
M  V30 22209 C 2117.89 -0.640749 -1.91252 0
M  V30 22210 C 2118.2 0.829108 -1.77159 0
M  V30 22211 O 2119.41 1.27709 -2.39589 0
M  V30 22212 C 2117.86 -1.09542 -3.42824 0
M  V30 22213 C 2117.47 -2.58944 -3.65584 0
M  V30 22214 C 2119.22 -0.832015 -4.16266 0
M  V30 22215 C 2117.12 -2.98092 -5.10779 0
M  V30 22216 H 2116.05 -0.235949 -0.716131 0
M  V30 22217 H 2118.7 -1.18533 -1.40079 0
M  V30 22218 H 2117.09 -0.479076 -3.93091 0
M  V30 22219 H 2118.26 -3.25795 -3.25875 0
M  V30 22220 H 2116.57 -2.83003 -3.05447 0
M  V30 22221 H 2119.17 -1.10039 -5.23255 0
M  V30 22222 H 2119.51 0.231859 -4.15654 0
M  V30 22223 H 2120.05 -1.40982 -3.7198 0
M  V30 22224 H 2116.79 -4.03592 -5.16521 0
M  V30 22225 H 2116.31 -2.35933 -5.51449 0
M  V30 22226 H 2117.99 -2.88553 -5.79091 0
M  V30 22227 N 2118.12 1.38658 -0.749111 0
M  V30 22228 C 2119.35 2.04504 -0.313958 0
M  V30 22229 C 2119.76 1.56495 1.05616 0
M  V30 22230 O 2119.12 0.736036 1.66999 0
M  V30 22231 C 2119.17 3.60059 -0.322507 0
M  V30 22232 O 2118.89 4.06304 -1.63855 0
M  V30 22233 C 2120.39 4.43118 0.127067 0
M  V30 22234 H 2117.61 0.657312 -0.134841 0
M  V30 22235 H 2120.15 1.77435 -1.01671 0
M  V30 22236 H 2118.31 3.85979 0.331471 0
M  V30 22237 H 2118.72 5.00711 -1.56169 0
M  V30 22238 H 2120.2 5.51956 0.0699241 0
M  V30 22239 H 2120.67 4.2321 1.17431 0
M  V30 22240 H 2121.28 4.22376 -0.49787 0
M  V30 22241 N 2119.6 0.497834 1.49531 0
M  V30 22242 C 2120.82 -0.0447105 2.06852 0
M  V30 22243 C 2121.24 -1.31106 1.35855 0
M  V30 22244 O 2120.6 -1.77218 0.435907 0
M  V30 22245 C 2120.65 -0.305505 3.60207 0
M  V30 22246 O 2120.37 0.910643 4.28531 0
M  V30 22247 C 2121.87 -0.892044 4.34232 0
M  V30 22248 H 2119.09 0.0190462 0.67073 0
M  V30 22249 H 2121.63 0.694284 1.92354 0
M  V30 22250 H 2119.79 -0.994475 3.74418 0
M  V30 22251 H 2120.2 0.67155 5.20183 0
M  V30 22252 H 2121.68 -1.02413 5.42416 0
M  V30 22253 H 2122.15 -1.88903 3.965 0
M  V30 22254 H 2122.76 -0.24064 4.24619 0
M  V30 22255 N 2121.07 -1.5589 0.231532 0
M  V30 22256 C 2122.01 -2.16719 -0.71471 0
M  V30 22257 C 2122.98 -1.11457 -1.1839 0
M  V30 22258 O 2124.17 -1.39765 -1.26483 0
M  V30 22259 C 2121.3 -2.75551 -1.9695 0
M  V30 22260 C 2120.34 -3.93731 -1.63946 0
M  V30 22261 S 2121.17 -5.30144 -0.755498 0
M  V30 22262 C 2122.33 -5.9242 -2.01963 0
M  V30 22263 H 2122.56 -2.96642 -0.197722 0
M  V30 22264 H 2120.1 -1.54392 0.0161266 0
M  V30 22265 H 2122.05 -3.10085 -2.68993 0
M  V30 22266 H 2120.72 -1.95603 -2.45761 0
M  V30 22267 H 2119.91 -4.33433 -2.57201 0
M  V30 22268 H 2119.51 -3.60395 -0.999576 0
M  V30 22269 H 2121.8 -6.09001 -2.96856 0
M  V30 22270 H 2122.75 -6.88214 -1.66635 0
M  V30 22271 H 2123.15 -5.21345 -2.16471 0
M  V30 22272 N 2122.55 0.0417572 -1.57545 0
M  V30 22273 C 2123.8 0.734075 -1.87868 0
M  V30 22274 C 2124.11 1.77194 -0.828352 0
M  V30 22275 O 2125.32 2.51595 -1.02039 0
M  V30 22276 C 2123.78 1.35664 -3.33352 0
M  V30 22277 C 2123.38 0.355779 -4.46585 0
M  V30 22278 C 2125.13 2.02957 -3.72839 0
M  V30 22279 C 2123.03 0.985962 -5.83123 0
M  V30 22280 H 2121.96 0.277922 -0.70091 0
M  V30 22281 H 2124.62 -0.0119297 -1.83496 0
M  V30 22282 H 2123 2.15192 -3.32428 0
M  V30 22283 H 2124.17 -0.411871 -4.58956 0
M  V30 22284 H 2122.49 -0.214356 -4.15848 0
M  V30 22285 H 2125.08 2.50935 -4.72161 0
M  V30 22286 H 2125.43 2.84222 -3.04176 0
M  V30 22287 H 2125.96 1.3022 -3.75882 0
M  V30 22288 H 2122.7 0.212992 -6.55154 0
M  V30 22289 H 2122.22 1.72375 -5.74497 0
M  V30 22290 H 2123.9 1.49705 -6.29442 0
M  V30 22291 N 2124.03 1.54445 0.313786 0
M  V30 22292 C 2125.28 1.72328 1.04814 0
M  V30 22293 C 2125.59 0.509186 1.88856 0
M  V30 22294 O 2126.8 0.569563 2.65459 0
M  V30 22295 C 2125.25 3.04843 1.91309 0
M  V30 22296 C 2124.86 4.33689 1.12331 0
M  V30 22297 C 2126.61 3.32087 2.6442 0
M  V30 22298 C 2124.51 5.5726 1.98028 0
M  V30 22299 H 2123.44 0.642234 0.395033 0
M  V30 22300 H 2126.09 1.80934 0.305823 0
M  V30 22301 H 2124.48 2.90169 2.69477 0
M  V30 22302 H 2125.65 4.59158 0.388648 0
M  V30 22303 H 2123.96 4.13283 0.508577 0
M  V30 22304 H 2126.56 4.21607 3.28864 0
M  V30 22305 H 2126.9 2.50397 3.32577 0
M  V30 22306 H 2127.44 3.47673 1.93308 0
M  V30 22307 H 2124.18 6.41581 1.34364 0
M  V30 22308 H 2123.7 5.35995 2.69201 0
M  V30 22309 H 2125.38 5.94035 2.56382 0
M  V30 22310 N 2125.51 -0.576345 1.46683 0
M  V30 22311 C 2126.46 -1.70601 1.58108 0
M  V30 22312 C 2127.45 -1.63334 0.449247 0
M  V30 22313 O 2128.66 -1.68751 0.626355 0
M  V30 22314 H 2125.03 -0.564161 0.497218 0
M  V30 22315 H 2127 -1.58098 2.53076 0
M  V30 22316 C 2125.75 -3.08983 1.59452 0
M  V30 22317 H 2125.07 -3.15247 2.45885 0
M  V30 22318 H 2126.51 -3.87768 1.715 0
M  V30 22319 C 2124.97 -3.35335 0.324303 0
M  V30 22320 O 2125.5 -3.9745 -0.58277 0
M  V30 22321 N 2123.71 -2.89838 0.21024 0
M  V30 22322 H 2123.26 -2.39471 0.949293 0
M  V30 22323 H 2123.21 -3.07843 -0.638752 0
M  V30 22324 N 2126.99 -1.34495 -0.82151 0
M  V30 22325 C 2127.9 -1.28265 -1.96431 0
M  V30 22326 C 2128.91 -0.190092 -1.72959 0
M  V30 22327 O 2130.09 -0.416817 -1.9704 0
M  V30 22328 C 2127.15 -1.03935 -3.30754 0
M  V30 22329 C 2126.21 -2.22361 -3.67225 0
M  V30 22330 C 2125.45 -1.99182 -4.95139 0
M  V30 22331 O 2125.67 -0.950771 -5.6242 0
M  V30 22332 O 2124.6 -2.86169 -5.2952 0
M  V30 22333 H 2128.43 -2.2441 -2.04631 0
M  V30 22334 H 2126.01 -1.14716 -0.957114 0
M  V30 22335 H 2127.9 -0.921538 -4.112 0
M  V30 22336 H 2126.57 -0.108311 -3.23519 0
M  V30 22337 H 2125.48 -2.39702 -2.87217 0
M  V30 22338 H 2126.81 -3.1386 -3.79147 0
M  V30 22339 N 2128.46 1.04188 -1.18248 0
M  V30 22340 C 2129.88 1.29568 -0.931902 0
M  V30 22341 C 2130.08 1.97424 0.403235 0
M  V30 22342 O 2129.14 2.25409 1.13785 0
M  V30 22343 C 2130.45 2.15557 -2.09656 0
M  V30 22344 C 2132 2.28907 -2.13473 0
M  V30 22345 C 2132.47 3.18262 -3.29353 0
M  V30 22346 N 2133.96 3.25849 -3.29206 0
M  V30 22347 C 2134.7 3.95141 -4.15513 0
M  V30 22348 N 2134.19 4.66775 -5.1195 0
M  V30 22349 N 2135.99 3.91408 -4.03431 0
M  V30 22350 H 2128.14 0.585496 -2.04171 0
M  V30 22351 H 2130.4 0.320854 -0.892052 0
M  V30 22352 H 2130.11 1.73002 -3.06208 0
M  V30 22353 H 2129.98 3.16231 -2.05616 0
M  V30 22354 H 2132.37 2.70698 -1.175 0
M  V30 22355 H 2132.45 1.27828 -2.21571 0
M  V30 22356 H 2132.09 2.77182 -4.25597 0
M  V30 22357 H 2132.02 4.1937 -3.18491 0
M  V30 22358 H 2134.51 2.74819 -2.59389 0
M  V30 22359 H 2134.83 5.17239 -5.74181 0
M  V30 22360 H 2133.17 4.65683 -5.15911 0
M  V30 22361 H 2136.36 3.34577 -3.27377 0
M  V30 22362 H 2136.54 4.45139 -4.70909 0
M  V30 22363 N 2129.94 0.98432 1.23081 0
M  V30 22364 C 2130.89 0.520259 2.26707 0
M  V30 22365 C 2131.88 -0.424715 1.63989 0
M  V30 22366 O 2133.09 -0.298177 1.77513 0
M  V30 22367 H 2129.47 0.149826 0.736923 0
M  V30 22368 H 2131.44 1.40587 2.63207 0
M  V30 22369 C 2130.19 -0.157874 3.47341 0
M  V30 22370 H 2129.51 0.560186 3.95856 0
M  V30 22371 H 2130.95 -0.446157 4.21646 0
M  V30 22372 C 2129.41 -1.3904 3.0687 0
M  V30 22373 O 2129.94 -2.48637 3.15503 0
M  V30 22374 N 2128.14 -1.26249 2.61743 0
M  V30 22375 H 2127.69 -0.370736 2.54918 0
M  V30 22376 H 2127.65 -2.08824 2.35032 0
M  V30 22377 N 2131.42 -1.38259 0.756453 0
M  V30 22378 C 2132.84 -1.53575 0.434365 0
M  V30 22379 C 2133.04 -1.71851 -1.05212 0
M  V30 22380 O 2132.09 -1.73115 -1.83814 0
M  V30 22381 C 2133.41 -2.74118 1.23611 0
M  V30 22382 C 2134.95 -2.8797 1.22647 0
M  V30 22383 C 2135.43 -4.11477 2.01124 0
M  V30 22384 N 2136.92 -4.1856 1.98399 0
M  V30 22385 C 2137.65 -5.13124 2.55913 0
M  V30 22386 N 2137.15 -6.13343 3.22153 0
M  V30 22387 N 2138.94 -5.05495 2.45827 0
M  V30 22388 H 2131.09 -1.24647 1.7198 0
M  V30 22389 H 2133.36 -0.605745 0.72923 0
M  V30 22390 H 2133.06 -2.67028 2.28886 0
M  V30 22391 H 2132.94 -3.67384 0.854919 0
M  V30 22392 H 2135.32 -2.9454 0.181771 0
M  V30 22393 H 2135.41 -1.95707 1.6472 0
M  V30 22394 H 2135.05 -4.05669 3.05607 0
M  V30 22395 H 2134.98 -5.02825 1.56444 0
M  V30 22396 H 2137.47 -3.46785 1.50161 0
M  V30 22397 H 2137.78 -6.81999 3.63451 0
M  V30 22398 H 2136.13 -6.13667 3.26248 0
M  V30 22399 H 2139.32 -4.26141 1.93705 0
M  V30 22400 H 2139.49 -5.79012 2.90946 0
M  V30 22401 N 2132.9 -0.505757 -1.49264 0
M  V30 22402 C 2134.31 -0.162021 -1.58775 0
M  V30 22403 C 2134.51 1.33366 -1.51048 0
M  V30 22404 O 2133.57 2.11001 -1.3869 0
M  V30 22405 C 2134.88 -0.743046 -2.91375 0
M  V30 22406 C 2136.43 -0.709582 -3.04851 0
M  V30 22407 C 2136.91 -1.26875 -4.40076 0
M  V30 22408 N 2138.4 -1.22966 -4.4658 0
M  V30 22409 C 2139.13 -1.63246 -5.49671 0
M  V30 22410 N 2138.63 -2.11141 -6.59842 0
M  V30 22411 N 2140.42 -1.54633 -5.40412 0
M  V30 22412 H 2132.57 -1.47812 -1.5253 0
M  V30 22413 H 2134.84 -0.613391 -0.722811 0
M  V30 22414 H 2134.54 -1.79218 -3.02612 0
M  V30 22415 H 2134.42 -0.206195 -3.76636 0
M  V30 22416 H 2136.8 0.330725 -2.93241 0
M  V30 22417 H 2136.88 -1.28363 -2.21261 0
M  V30 22418 H 2136.53 -2.30787 -4.52438 0
M  V30 22419 H 2136.46 -0.670599 -5.22313 0
M  V30 22420 H 2138.95 -0.878781 -3.6754 0
M  V30 22421 H 2139.26 -2.39934 -7.3461 0
M  V30 22422 H 2137.61 -2.15119 -6.6087 0
M  V30 22423 H 2140.8 -1.1703 -4.53235 0
M  V30 22424 H 2140.97 -1.86347 -6.20628 0
M  V30 22425 N 2134.38 1.55765 -0.239796 0
M  V30 22426 C 2135.6 2.03618 0.394243 0
M  V30 22427 C 2136.03 1.1181 1.51261 0
M  V30 22428 O 2135.38 0.1097 1.80968 0
M  V30 22429 C 2135.43 3.49545 0.886029 0
M  V30 22430 O 2134.54 3.60872 1.99613 0
M  V30 22431 H 2133.88 0.658289 0.0869012 0
M  V30 22432 H 2136.41 2.0134 -0.363774 0
M  V30 22433 H 2136.42 3.90226 1.1911 0
M  V30 22434 H 2135.09 4.15845 0.0675883 0
M  V30 22435 H 2133.67 3.32085 1.6963 0
M  V30 22436 N 2135.85 -0.0334016 1.57565 0
M  V30 22437 C 2136.8 -1.05382 2.07358 0
M  V30 22438 C 2137.8 -1.37713 0.986479 0
M  V30 22439 O 2139 -1.36669 1.17139 0
M  V30 22440 H 2135.38 -0.357353 0.661667 0
M  V30 22441 H 2137.35 -0.608016 2.9214 0
M  V30 22442 C 2136.1 -2.34757 2.56485 0
M  V30 22443 H 2135.42 -2.10738 3.39749 0
M  V30 22444 H 2136.86 -3.04512 2.9504 0
M  V30 22445 C 2135.32 -3.03419 1.46419 0
M  V30 22446 O 2135.85 -3.93075 0.827955 0
M  V30 22447 N 2134.06 -2.64676 1.19979 0
M  V30 22448 H 2133.6 -1.91854 1.71901 0
M  V30 22449 H 2133.56 -3.10935 0.465483 0
M  V30 22450 N 2137.33 -1.54609 -0.305591 0
M  V30 22451 C 2138.58 -1.72882 -1.03898 0
M  V30 22452 C 2138.89 -0.519195 -1.88583 0
M  V30 22453 O 2140.1 -0.583633 -2.65153 0
M  V30 22454 C 2138.56 -3.05853 -1.89689 0
M  V30 22455 C 2138.16 -4.34278 -1.10029 0
M  V30 22456 C 2139.91 -3.33485 -2.62656 0
M  V30 22457 C 2137.82 -5.58302 -1.9507 0
M  V30 22458 H 2136.75 -0.64432 -0.391621 0
M  V30 22459 H 2139.4 -1.81093 -0.296223 0
M  V30 22460 H 2137.78 -2.91594 -2.67935 0
M  V30 22461 H 2138.95 -4.59358 -0.364293 0
M  V30 22462 H 2137.27 -4.13546 -0.486653 0
M  V30 22463 H 2139.86 -4.23345 -3.26624 0
M  V30 22464 H 2140.21 -2.52157 -3.31244 0
M  V30 22465 H 2140.74 -3.48694 -1.91462 0
M  V30 22466 H 2137.48 -6.42285 -1.3096 0
M  V30 22467 H 2137 -5.37415 -2.66355 0
M  V30 22468 H 2138.68 -5.95386 -2.53228 0
M  V30 22469 N 2138.81 0.568558 -1.46987 0
M  V30 22470 C 2140.06 1.3236 -1.52726 0
M  V30 22471 C 2140.38 1.94107 -0.186356 0
M  V30 22472 O 2139.65 1.79328 0.78857 0
M  V30 22473 H 2138.23 0.491483 -0.562542 0
M  V30 22474 H 2140.89 0.664797 -1.83212 0
M  V30 22475 H 2139.99 2.12301 -2.28768 0
M  V30 22476 N 2140.29 1.34929 0.814366 0
M  V30 22477 C 2141.24 1.27231 1.94718 0
M  V30 22478 C 2142.23 0.16873 1.68558 0
M  V30 22479 O 2143.44 0.334235 1.7687 0
M  V30 22480 H 2139.81 0.395475 0.639612 0
M  V30 22481 H 2141.78 2.22951 1.98332 0
M  V30 22482 C 2140.53 1.0533 3.31362 0
M  V30 22483 H 2139.85 1.89485 3.52045 0
M  V30 22484 H 2141.29 1.03983 4.11052 0
M  V30 22485 C 2139.75 -0.243132 3.36022 0
M  V30 22486 O 2140.28 -1.24159 3.82031 0
M  V30 22487 N 2138.49 -0.279214 2.89256 0
M  V30 22488 H 2138.04 0.533893 2.52007 0
M  V30 22489 H 2137.99 -1.14638 2.92755 0
M  V30 22490 N 2141.77 -1.0356 1.18799 0
M  V30 22491 C 2143.01 -1.78406 0.997524 0
M  V30 22492 C 2143.37 -1.86305 -0.464169 0
M  V30 22493 O 2144.57 -2.57408 -0.774237 0
M  V30 22494 C 2142.84 -3.17534 1.64033 0
M  V30 22495 S 2144.4 -4.08655 1.59832 0
M  V30 22496 H 2141.22 -0.614236 0.3581 0
M  V30 22497 H 2143.82 -1.24137 1.51031 0
M  V30 22498 H 2142.53 -3.09398 2.69631 0
M  V30 22499 H 2142.06 -3.7688 1.12805 0
M  V30 22500 H 2144.07 -4.92339 0.61778 0
M  V30 22501 N 2143.25 -0.990834 -1.22557 0
M  V30 22502 C 2144.18 -0.484367 -2.23 0
M  V30 22503 C 2145.16 0.454224 -1.56127 0
M  V30 22504 O 2146.34 0.380249 -1.84625 0
M  V30 22505 C 2143.47 0.298068 -3.37386 0
M  V30 22506 C 2142.51 -0.586207 -4.22452 0
M  V30 22507 S 2143.35 -2.04028 -4.95109 0
M  V30 22508 C 2144.5 -1.26728 -6.12936 0
M  V30 22509 H 2144.74 -1.33551 -2.65615 0
M  V30 22510 H 2142.27 -0.79764 -1.32201 0
M  V30 22511 H 2144.23 0.743467 -4.03711 0
M  V30 22512 H 2142.89 1.12446 -2.93283 0
M  V30 22513 H 2142.08 0.0157123 -5.03998 0
M  V30 22514 H 2141.68 -0.968283 -3.61248 0
M  V30 22515 H 2143.97 -0.533875 -6.75393 0
M  V30 22516 H 2144.92 -2.05793 -6.77536 0
M  V30 22517 H 2145.33 -0.781474 -5.59065 0
M  V30 22518 N 2144.72 1.37856 -0.763775 0
M  V30 22519 C 2145.63 2.3415 -0.145216 0
M  V30 22520 C 2146.65 1.59782 0.688888 0
M  V30 22521 O 2147.83 1.91919 0.610668 0
M  V30 22522 C 2144.89 3.38934 0.729718 0
M  V30 22523 C 2143.95 4.29132 -0.119926 0
M  V30 22524 C 2143.18 5.28911 0.713343 0
M  V30 22525 O 2143.41 5.36002 1.95086 0
M  V30 22526 O 2142.34 6.01767 0.126758 0
M  V30 22527 H 2146.17 2.88763 -0.940736 0
M  V30 22528 H 2143.75 1.39879 -0.524814 0
M  V30 22529 H 2145.63 4.03066 1.22946 0
M  V30 22530 H 2144.31 2.86661 1.50356 0
M  V30 22531 H 2143.22 3.68127 -0.665843 0
M  V30 22532 H 2144.55 4.84688 -0.856664 0
M  V30 22533 N 2146.2 0.513665 1.48994 0
M  V30 22534 C 2147.16 -0.247066 2.27864 0
M  V30 22535 C 2148.16 -0.882574 1.34415 0
M  V30 22536 O 2149.35 -0.745145 1.57459 0
M  V30 22537 C 2146.49 -1.35575 3.12782 0
M  V30 22538 H 2147.68 0.445185 2.96577 0
M  V30 22539 H 2145.23 0.269045 1.53967 0
M  V30 22540 H 2145.97 -2.08176 2.48663 0
M  V30 22541 H 2145.75 -0.905368 3.81504 0
M  V30 22542 H 2147.24 -1.89127 3.72318 0
M  V30 22543 N 2147.68 -1.55636 0.248053 0
M  V30 22544 C 2148.61 -2.2441 -0.645175 0
M  V30 22545 C 2149.59 -1.22477 -1.18039 0
M  V30 22546 O 2150.78 -1.51133 -1.21953 0
M  V30 22547 C 2147.91 -2.94446 -1.84171 0
M  V30 22548 C 2146.86 -4.03076 -1.43922 0
M  V30 22549 C 2146.19 -4.60544 -2.71668 0
M  V30 22550 C 2147.49 -5.18732 -0.609431 0
M  V30 22551 H 2149.18 -2.99314 -0.0716951 0
M  V30 22552 H 2146.73 -1.43962 -0.033043 0
M  V30 22553 H 2148.68 -3.41259 -2.47225 0
M  V30 22554 H 2147.4 -2.17031 -2.44059 0
M  V30 22555 H 2146.06 -3.57034 -0.832012 0
M  V30 22556 H 2145.71 -3.79829 -3.29756 0
M  V30 22557 H 2145.41 -5.33876 -2.4546 0
M  V30 22558 H 2146.93 -5.10091 -3.35618 0
M  V30 22559 H 2148.35 -5.61764 -1.1443 0
M  V30 22560 H 2146.74 -5.9846 -0.443361 0
M  V30 22561 H 2147.81 -4.83424 0.378087 0
M  V30 22562 N 2149.16 0.0250451 -1.5758 0
M  V30 22563 C 2150.4 0.715046 -1.89455 0
M  V30 22564 C 2150.73 1.75145 -0.84584 0
M  V30 22565 O 2149.99 1.95104 0.152678 0
M  V30 22566 C 2150.29 1.41772 -3.28079 0
M  V30 22567 C 2149.95 0.51691 -4.47927 0
M  V30 22568 C 2148.61 0.268813 -4.80449 0
M  V30 22569 C 2150.97 -0.104795 -5.21095 0
M  V30 22570 C 2148.29 -0.609698 -5.83523 0
M  V30 22571 C 2150.65 -0.971032 -6.25103 0
M  V30 22572 C 2149.31 -1.22855 -6.56097 0
M  V30 22573 H 2148.58 0.261654 -0.693266 0
M  V30 22574 H 2151.23 -0.0251007 -1.91484 0
M  V30 22575 H 2149.53 2.23128 -3.22057 0
M  V30 22576 H 2151.23 1.95721 -3.49992 0
M  V30 22577 H 2147.82 0.720436 -4.22502 0
M  V30 22578 H 2152 0.0739074 -4.96245 0
M  V30 22579 H 2147.26 -0.817479 -6.0591 0
M  V30 22580 H 2151.43 -1.45926 -6.80939 0
M  V30 22581 H 2149.06 -1.91101 -7.35788 0
M  V30 22582 N 2150.64 1.54769 0.297388 0
M  V30 22583 C 2151.57 1.82346 1.38861 0
M  V30 22584 C 2152.58 0.7066 1.46666 0
M  V30 22585 O 2153.77 0.984128 1.4892 0
M  V30 22586 C 2150.87 1.94966 2.77203 0
M  V30 22587 C 2150.04 3.25403 2.92287 0
M  V30 22588 C 2149.1 3.28394 4.1115 0
M  V30 22589 O 2148.13 4.01906 4.03063 0
M  V30 22590 N 2149.33 2.54044 5.2196 0
M  V30 22591 H 2152.09 2.76526 1.15558 0
M  V30 22592 H 2149.66 1.54387 0.487465 0
M  V30 22593 H 2151.65 1.94365 3.54971 0
M  V30 22594 H 2150.22 1.07765 2.93437 0
M  V30 22595 H 2149.44 3.38748 2.01602 0
M  V30 22596 H 2150.73 4.11473 2.99278 0
M  V30 22597 H 2150.12 1.93956 5.31411 0
M  V30 22598 H 2148.68 2.59192 5.98049 0
M  V30 22599 N 2152.11 -0.560755 1.47286 0
M  V30 22600 C 2153.36 -1.31548 1.53426 0
M  V30 22601 C 2153.68 -1.94006 0.196648 0
M  V30 22602 O 2152.95 -1.79743 -0.779049 0
M  V30 22603 H 2151.53 -0.488493 0.565141 0
M  V30 22604 H 2154.19 -0.655071 1.83562 0
M  V30 22605 H 2153.29 -2.11085 2.2989 0
M  V30 22606 N 2153.59 -1.35359 -0.807199 0
M  V30 22607 C 2155 -1.25624 -1.38114 0
M  V30 22608 C 2155.35 0.11163 -1.95882 0
M  V30 22609 O 2154.48 1.01256 -1.91249 0
M  V30 22610 C 2155.07 -2.27464 -2.51088 0
M  V30 22611 C 2153.63 -2.21472 -3.04347 0
M  V30 22612 C 2152.78 -2.13208 -1.77307 0
M  V30 22613 H 2155.73 -1.46496 -0.610285 0
M  V30 22614 H 2155.75 -1.90077 -3.29623 0
M  V30 22615 H 2155.26 -3.27009 -2.09014 0
M  V30 22616 H 2153.36 -1.25336 -3.50887 0
M  V30 22617 H 2153.48 -3.13409 -3.6237 0
M  V30 22618 H 2151.84 -1.59176 -1.98834 0
M  V30 22619 H 2152.62 -3.14611 -1.37385 0
M  V30 22620 N 2155.07 1.02928 -1.19346 0
M  V30 22621 C 2156 2.13099 -0.954528 0
M  V30 22622 C 2156.98 1.69731 0.111965 0
M  V30 22623 O 2158.17 1.94152 -0.0429718 0
M  V30 22624 C 2155.3 3.43798 -0.491955 0
M  V30 22625 C 2154.25 4.00845 -1.50024 0
M  V30 22626 C 2153.58 5.2716 -0.894759 0
M  V30 22627 C 2154.88 4.35699 -2.88035 0
M  V30 22628 H 2156.57 2.33345 -1.87592 0
M  V30 22629 H 2154.12 1.1214 -0.903366 0
M  V30 22630 H 2156.07 4.20243 -0.312095 0
M  V30 22631 H 2154.79 3.23272 0.46503 0
M  V30 22632 H 2153.45 3.26495 -1.66724 0
M  V30 22633 H 2153.1 5.02952 0.0697668 0
M  V30 22634 H 2152.8 5.66291 -1.56805 0
M  V30 22635 H 2154.32 6.06272 -0.725685 0
M  V30 22636 H 2155.74 5.03083 -2.7492 0
M  V30 22637 H 2154.13 4.8591 -3.52152 0
M  V30 22638 H 2155.2 3.45019 -3.4072 0
M  V30 22639 N 2156.55 0.997319 1.2203 0
M  V30 22640 C 2157.48 0.50954 2.23464 0
M  V30 22641 C 2158.49 -0.397746 1.57866 0
M  V30 22642 O 2159.68 -0.199173 1.77385 0
M  V30 22643 C 2156.78 -0.280337 3.37739 0
M  V30 22644 C 2155.95 0.624157 4.32924 0
M  V30 22645 C 2155.01 -0.114778 5.26075 0
M  V30 22646 O 2154.04 0.501303 5.66988 0
M  V30 22647 N 2155.24 -1.39573 5.63471 0
M  V30 22648 H 2158.01 1.38179 2.65945 0
M  V30 22649 H 2155.57 0.872554 1.36375 0
M  V30 22650 H 2157.56 -0.783436 3.97045 0
M  V30 22651 H 2156.13 -1.05371 2.94305 0
M  V30 22652 H 2155.35 1.30786 3.71872 0
M  V30 22653 H 2156.64 1.23998 4.93459 0
M  V30 22654 H 2156.04 -1.91751 5.3221 0
M  V30 22655 H 2154.59 -1.84393 6.25174 0
M  V30 22656 N 2158.03 -1.37449 0.771075 0
M  V30 22657 C 2159.26 -2.03683 0.345951 0
M  V30 22658 C 2159.66 -1.58284 -1.03648 0
M  V30 22659 O 2159.01 -0.759171 -1.67279 0
M  V30 22660 C 2159.07 -3.58164 0.309656 0
M  V30 22661 C 2158.73 -4.26692 1.63656 0
M  V30 22662 C 2159.73 -4.50858 2.58888 0
M  V30 22663 C 2157.42 -4.64536 1.91081 0
M  V30 22664 C 2159.41 -5.11924 3.79753 0
M  V30 22665 C 2157.1 -5.25323 3.12217 0
M  V30 22666 C 2158.09 -5.48954 4.06372 0
M  V30 22667 O 2157.78 -6.08471 5.25375 0
M  V30 22668 H 2157.51 -0.660689 0.143062 0
M  V30 22669 H 2160.07 -1.76778 1.04587 0
M  V30 22670 H 2158.3 -3.84112 -0.446637 0
M  V30 22671 H 2159.99 -4.05804 -0.0883085 0
M  V30 22672 H 2160.75 -4.22034 2.38982 0
M  V30 22673 H 2156.63 -4.45477 1.18622 0
M  V30 22674 H 2160.18 -5.30285 4.53258 0
M  V30 22675 H 2156.07 -5.53571 3.32009 0
M  V30 22676 H 2156.84 -6.26949 5.26191 0
M  V30 22677 N 2159.5 -0.52156 -1.4872 0
M  V30 22678 C 2160.45 0.2458 -2.29487 0
M  V30 22679 C 2161.42 0.941571 -1.36834 0
M  V30 22680 O 2162.61 0.944239 -1.65797 0
M  V30 22681 C 2159.75 1.2919 -3.20006 0
M  V30 22682 C 2158.86 0.605827 -4.27731 0
M  V30 22683 C 2157.99 1.63413 -5.0544 0
M  V30 22684 C 2157.03 0.931058 -6.04977 0
M  V30 22685 N 2156.17 1.90451 -6.75776 0
M  V30 22686 H 2161.01 -0.449151 -2.94596 0
M  V30 22687 H 2158.55 -0.233338 -1.45238 0
M  V30 22688 H 2160.51 1.91062 -3.70879 0
M  V30 22689 H 2159.14 1.95534 -2.56839 0
M  V30 22690 H 2158.19 -0.126644 -3.80189 0
M  V30 22691 H 2159.5 0.0533786 -4.98771 0
M  V30 22692 H 2158.65 2.32736 -5.60285 0
M  V30 22693 H 2157.39 2.22047 -4.3422 0
M  V30 22694 H 2156.4 0.223716 -5.49345 0
M  V30 22695 H 2157.62 0.350949 -6.78193 0
M  V30 22696 H 2155.57 2.48008 -6.07312 0
M  V30 22697 H 2155.49 1.40328 -7.42862 0
M  V30 22698 H 2156.75 2.58999 -7.35214 0
M  V30 22699 N 2160.98 1.55502 -0.256304 0
M  V30 22700 C 2162.26 1.91111 0.41663 0
M  V30 22701 C 2162.64 1.17825 1.75159 0
M  V30 22702 O 2161.99 0.298822 2.26538 0
M  V30 22703 C 2162.2 3.44223 0.575462 0
M  V30 22704 C 2163.55 4.15653 0.867028 0
M  V30 22705 O 2164.57 3.50014 0.660977 0
M  V30 22706 O 2163.43 5.31777 1.25997 0
M  V30 22707 H 2160.52 0.795781 0.225083 0
M  V30 22708 H 2163.07 1.67008 -0.301066 0
M  V30 22709 H 2161.84 3.89596 -0.364767 0
M  V30 22710 H 2161.46 3.74219 1.34334 0
M  V30 22711 N 2162.46 -0.0166879 1.57591 0
M  V30 22712 C 2163.39 -1.01268 2.10398 0
M  V30 22713 C 2164.37 -1.36922 1.00928 0
M  V30 22714 O 2165.56 -1.45589 1.2852 0
M  V30 22715 C 2162.69 -2.30979 2.59357 0
M  V30 22716 C 2161.64 -2.09533 3.73202 0
M  V30 22717 C 2160.97 -3.45113 4.08413 0
M  V30 22718 C 2162.27 -1.47144 5.01145 0
M  V30 22719 H 2163.96 -0.573053 2.93865 0
M  V30 22720 H 2161.51 -0.274203 1.41365 0
M  V30 22721 H 2163.46 -3.00996 2.94923 0
M  V30 22722 H 2162.18 -2.77024 1.72989 0
M  V30 22723 H 2160.84 -1.41946 3.38004 0
M  V30 22724 H 2160.49 -3.88829 3.19094 0
M  V30 22725 H 2160.19 -3.31585 4.85104 0
M  V30 22726 H 2161.71 -4.16472 4.46524 0
M  V30 22727 H 2163.13 -2.07094 5.34588 0
M  V30 22728 H 2161.53 -1.44154 5.82529 0
M  V30 22729 H 2162.6 -0.438665 4.82912 0
M  V30 22730 N 2163.94 -1.54924 -0.289176 0
M  V30 22731 C 2164.89 -1.86692 -1.35701 0
M  V30 22732 C 2165.86 -0.716885 -1.49833 0
M  V30 22733 O 2167.04 -0.966637 -1.64502 0
M  V30 22734 C 2164.18 -2.13019 -2.71509 0
M  V30 22735 C 2163.29 -3.40605 -2.6573 0
M  V30 22736 C 2162.43 -3.56714 -3.9361 0
M  V30 22737 C 2161.47 -4.78049 -3.82276 0
M  V30 22738 N 2160.6 -4.90901 -5.01957 0
M  V30 22739 H 2165.44 -2.77776 -1.07909 0
M  V30 22740 H 2162.98 -1.37539 -0.52168 0
M  V30 22741 H 2164.94 -2.2628 -3.50504 0
M  V30 22742 H 2163.57 -1.25188 -2.97536 0
M  V30 22743 H 2162.62 -3.35902 -1.78533 0
M  V30 22744 H 2163.93 -4.29728 -2.53249 0
M  V30 22745 H 2163.09 -3.69704 -4.81045 0
M  V30 22746 H 2161.83 -2.65745 -4.08939 0
M  V30 22747 H 2160.83 -4.6508 -2.93225 0
M  V30 22748 H 2162.06 -5.70437 -3.68482 0
M  V30 22749 H 2160 -4.02859 -5.17726 0
M  V30 22750 H 2159.92 -5.74044 -4.91945 0
M  V30 22751 H 2161.19 -5.0826 -5.91009 0
M  V30 22752 N 2165.42 0.552936 -1.47582 0
M  V30 22753 C 2166.67 1.30628 -1.53685 0
M  V30 22754 C 2166.98 1.94516 -0.205625 0
M  V30 22755 O 2168.18 2.71114 -0.144695 0
M  V30 22756 C 2166.64 2.369 -2.70936 0
M  V30 22757 C 2166.25 1.79183 -4.10606 0
M  V30 22758 C 2167.99 3.13388 -2.86336 0
M  V30 22759 C 2165.9 2.8326 -5.19151 0
M  V30 22760 H 2164.83 0.491183 -0.572062 0
M  V30 22761 H 2167.48 0.58676 -1.73866 0
M  V30 22762 H 2165.86 3.11785 -2.44143 0
M  V30 22763 H 2167.04 1.10641 -4.4732 0
M  V30 22764 H 2165.35 1.15265 -4.00129 0
M  V30 22765 H 2167.95 3.91117 -3.64597 0
M  V30 22766 H 2168.29 3.67839 -1.94936 0
M  V30 22767 H 2168.82 2.45615 -3.12919 0
M  V30 22768 H 2165.56 2.3366 -6.12441 0
M  V30 22769 H 2165.08 3.502 -4.8695 0
M  V30 22770 H 2166.76 3.46674 -5.46284 0
M  V30 22771 N 2166.89 1.35785 0.800009 0
M  V30 22772 C 2168.17 1.19984 1.54477 0
M  V30 22773 C 2168.55 -0.218358 2.09968 0
M  V30 22774 O 2167.9 -1.2227 1.93035 0
M  V30 22775 C 2168.11 2.27325 2.6481 0
M  V30 22776 C 2169.46 2.63463 3.32975 0
M  V30 22777 O 2170.48 2.26288 2.75086 0
M  V30 22778 O 2169.34 3.27408 4.37569 0
M  V30 22779 H 2166.43 0.466534 0.682844 0
M  V30 22780 H 2168.98 1.47486 0.839403 0
M  V30 22781 H 2167.75 3.22418 2.21725 0
M  V30 22782 H 2167.38 2.01129 3.42976 0
M  V30 22783 N 2168.37 -1.02294 1.19891 0
M  V30 22784 C 2169.62 -1.75196 0.999463 0
M  V30 22785 C 2169.93 -1.89874 -0.469823 0
M  V30 22786 O 2171.14 -2.59806 -0.788235 0
M  V30 22787 C 2169.6 -3.15074 1.73944 0
M  V30 22788 C 2169.2 -3.0843 3.24923 0
M  V30 22789 C 2170.95 -3.9223 1.62345 0
M  V30 22790 C 2168.86 -4.43277 3.91484 0
M  V30 22791 H 2167.79 -0.656782 0.370342 0
M  V30 22792 H 2170.44 -1.14434 1.43447 0
M  V30 22793 H 2168.82 -3.76339 1.23227 0
M  V30 22794 H 2169.99 -2.5651 3.82804 0
M  V30 22795 H 2168.31 -2.44769 3.36864 0
M  V30 22796 H 2170.9 -4.91983 2.09419 0
M  V30 22797 H 2171.25 -4.1226 0.578579 0
M  V30 22798 H 2171.78 -3.37579 2.1044 0
M  V30 22799 H 2168.52 -4.28451 4.96095 0
M  V30 22800 H 2168.04 -4.95228 3.38392 0
M  V30 22801 H 2169.72 -5.12142 3.95373 0
M  V30 22802 N 2169.85 -1.00378 -1.21499 0
M  V30 22803 C 2170.8 -0.563153 -2.23824 0
M  V30 22804 C 2171.77 0.410151 -1.60956 0
M  V30 22805 O 2172.95 0.312473 -1.88224 0
M  V30 22806 C 2170.09 0.105277 -3.44939 0
M  V30 22807 C 2169.21 -0.91106 -4.22284 0
M  V30 22808 C 2168.34 -0.215019 -5.30765 0
M  V30 22809 C 2167.38 -1.21899 -5.99839 0
M  V30 22810 N 2166.52 -0.550506 -6.99938 0
M  V30 22811 H 2171.36 -1.44041 -2.60876 0
M  V30 22812 H 2168.89 -0.721302 -1.28202 0
M  V30 22813 H 2170.85 0.509838 -4.14073 0
M  V30 22814 H 2169.48 0.946261 -3.08619 0
M  V30 22815 H 2168.53 -1.43387 -3.52341 0
M  V30 22816 H 2169.85 -1.67513 -4.69831 0
M  V30 22817 H 2169 0.245713 -6.06202 0
M  V30 22818 H 2167.74 0.581469 -4.84221 0
M  V30 22819 H 2166.74 -1.69024 -5.23174 0
M  V30 22820 H 2167.97 -2.01654 -6.48469 0
M  V30 22821 H 2165.91 0.226347 -6.55609 0
M  V30 22822 H 2165.83 -1.25285 -7.45547 0
M  V30 22823 H 2167.1 -0.112938 -7.79418 0
M  V30 22824 N 2171.33 1.37038 -0.778354 0
M  V30 22825 C 2172.56 2.03792 -0.357266 0
M  V30 22826 C 2172.97 1.587 1.02272 0
M  V30 22827 O 2172.33 0.771294 1.654 0
M  V30 22828 C 2172.38 3.59293 -0.398808 0
M  V30 22829 O 2172.1 4.02737 -1.72437 0
M  V30 22830 C 2173.6 4.43288 0.0330462 0
M  V30 22831 H 2170.82 0.654304 -0.148753 0
M  V30 22832 H 2173.37 1.75239 -1.05412 0
M  V30 22833 H 2171.52 3.86596 0.249525 0
M  V30 22834 H 2171.93 4.97286 -1.66754 0
M  V30 22835 H 2173.41 5.5198 -0.0471696 0
M  V30 22836 H 2173.89 4.25606 1.08428 0
M  V30 22837 H 2174.49 4.21225 -0.58735 0
M  V30 22838 N 2172.81 0.529439 1.48441 0
M  V30 22839 C 2174.03 -0.00290016 2.074 0
M  V30 22840 C 2174.46 -1.27443 1.38347 0
M  V30 22841 O 2173.82 -1.75646 0.449242 0
M  V30 22842 C 2173.86 -0.210465 3.59985 0
M  V30 22843 O 2172.97 -1.27924 3.92057 0
M  V30 22844 H 2172.31 0.0388892 0.66286 0
M  V30 22845 H 2174.84 0.737197 1.90857 0
M  V30 22846 H 2174.85 -0.433287 4.05693 0
M  V30 22847 H 2173.52 0.718388 4.09649 0
M  V30 22848 H 2172.1 -1.03912 3.58129 0
M  V30 22849 N 2174.29 -1.55364 0.264547 0
M  V30 22850 C 2175.7 -1.85212 -0.235254 0
M  V30 22851 C 2176.05 -1.18652 -1.56256 0
M  V30 22852 O 2175.17 -0.471096 -2.1121 0
M  V30 22853 C 2175.77 -3.36014 -0.43363 0
M  V30 22854 C 2174.33 -3.66024 -0.877673 0
M  V30 22855 C 2173.47 -2.77278 0.0350996 0
M  V30 22856 H 2176.42 -1.51055 0.486633 0
M  V30 22857 H 2176.45 -3.58548 -1.27373 0
M  V30 22858 H 2175.96 -3.84429 0.532565 0
M  V30 22859 H 2174.06 -3.23101 -1.85571 0
M  V30 22860 H 2174.17 -4.73624 -0.722315 0
M  V30 22861 H 2172.54 -2.50148 -0.479378 0
M  V30 22862 H 2173.32 -3.28504 0.996986 0
M  V30 22863 N 2175.76 0.00833021 -1.57598 0
M  V30 22864 C 2177.17 0.552246 -1.78346 0
M  V30 22865 C 2177.53 1.74433 -0.898189 0
M  V30 22866 O 2176.65 2.16176 -0.098451 0
M  V30 22867 C 2177.25 1.00862 -3.23438 0
M  V30 22868 C 2175.8 1.4979 -3.45311 0
M  V30 22869 C 2174.95 0.445309 -2.73701 0
M  V30 22870 H 2177.9 -0.217862 -1.57197 0
M  V30 22871 H 2177.92 1.87504 -3.31093 0
M  V30 22872 H 2177.44 0.140794 -3.87845 0
M  V30 22873 H 2175.54 2.38689 -2.86109 0
M  V30 22874 H 2175.65 1.53111 -4.53976 0
M  V30 22875 H 2174.01 0.90507 -2.38077 0
M  V30 22876 H 2174.8 -0.413406 -3.40802 0
M  V30 22877 N 2177.24 1.55075 0.280956 0
M  V30 22878 C 2178.65 1.66097 0.852571 0
M  V30 22879 C 2179 0.582747 1.87346 0
M  V30 22880 O 2178.13 -0.277166 2.14618 0
M  V30 22881 C 2178.72 3.01102 1.55317 0
M  V30 22882 C 2177.28 3.14177 2.07292 0
M  V30 22883 C 2176.43 2.61864 0.912278 0
M  V30 22884 H 2179.38 1.58596 0.0574834 0
M  V30 22885 H 2179.4 2.93646 2.41976 0
M  V30 22886 H 2178.91 3.79555 0.809903 0
M  V30 22887 H 2177.01 2.40482 2.84604 0
M  V30 22888 H 2177.13 4.20627 2.29369 0
M  V30 22889 H 2175.49 2.1882 1.30345 0
M  V30 22890 H 2176.27 3.42814 0.18265 0
M  V30 22891 N 2178.72 -0.545102 1.47873 0
M  V30 22892 C 2179.63 -1.67829 1.63922 0
M  V30 22893 C 2180.65 -1.65989 0.521885 0
M  V30 22894 O 2181.82 -1.85216 0.791005 0
M  V30 22895 C 2178.89 -3.0432 1.66102 0
M  V30 22896 C 2177.95 -3.17134 2.89352 0
M  V30 22897 C 2177.18 -4.47114 2.91419 0
M  V30 22898 O 2177.4 -5.33307 2.02337 0
M  V30 22899 O 2176.34 -4.63974 3.83421 0
M  V30 22900 H 2180.16 -1.57229 2.59832 0
M  V30 22901 H 2177.75 -0.716489 1.31098 0
M  V30 22902 H 2179.63 -3.85524 1.70145 0
M  V30 22903 H 2178.31 -3.15277 0.733623 0
M  V30 22904 H 2177.21 -2.35282 2.90849 0
M  V30 22905 H 2178.55 -3.11086 3.81426 0
M  V30 22906 N 2180.2 -1.36208 -0.792797 0
M  V30 22907 C 2181.44 -1.31628 -1.56376 0
M  V30 22908 C 2181.8 0.104244 -1.91717 0
M  V30 22909 O 2183 0.274558 -2.67394 0
M  V30 22910 C 2181.27 -2.21009 -2.80873 0
M  V30 22911 S 2182.83 -2.3408 -3.7115 0
M  V30 22912 H 2179.65 -0.467581 -0.53562 0
M  V30 22913 H 2182.25 -1.71744 -0.934044 0
M  V30 22914 H 2180.96 -3.23174 -2.52956 0
M  V30 22915 H 2180.49 -1.81901 -3.4882 0
M  V30 22916 H 2182.5 -1.5358 -4.71834 0
M  V30 22917 N 2181.68 1.01656 -1.20431 0
M  V30 22918 C 2182.92 1.74663 -1.00874 0
M  V30 22919 C 2183.24 1.9012 0.459746 0
M  V30 22920 O 2184.44 2.6022 0.774445 0
M  V30 22921 C 2182.9 3.14147 -1.75612 0
M  V30 22922 C 2182.51 3.06703 -3.26554 0
M  V30 22923 C 2184.25 3.91364 -1.64422 0
M  V30 22924 C 2182.16 4.41194 -3.93829 0
M  V30 22925 H 2181.09 0.654809 -0.37382 0
M  V30 22926 H 2183.74 1.13672 -1.44052 0
M  V30 22927 H 2182.12 3.7568 -1.25221 0
M  V30 22928 H 2183.3 2.54477 -3.84159 0
M  V30 22929 H 2181.61 2.42979 -3.38157 0
M  V30 22930 H 2184.21 4.90866 -2.12026 0
M  V30 22931 H 2184.55 4.11947 -0.600434 0
M  V30 22932 H 2185.08 3.36459 -2.12227 0
M  V30 22933 H 2181.82 4.25814 -4.9836 0
M  V30 22934 H 2181.34 4.93427 -3.41013 0
M  V30 22935 H 2183.02 5.10038 -3.98084 0
M  V30 22936 N 2183.15 1.01021 1.20965 0
M  V30 22937 C 2184.1 0.568229 2.25552 0
M  V30 22938 C 2185.1 -0.389834 1.64853 0
M  V30 22939 O 2186.3 -0.260456 1.78106 0
M  V30 22940 H 2182.68 0.165424 0.73358 0
M  V30 22941 H 2184.65 1.46139 2.60165 0
M  V30 22942 C 2183.4 -0.0841621 3.47598 0
M  V30 22943 H 2182.72 0.644027 3.94579 0
M  V30 22944 H 2184.16 -0.356619 4.22498 0
M  V30 22945 C 2182.62 -1.325 3.09751 0
M  V30 22946 O 2183.15 -2.41889 3.20706 0
M  V30 22947 N 2181.35 -1.20669 2.64362 0
M  V30 22948 H 2180.9 -0.316581 2.55647 0
M  V30 22949 H 2180.86 -2.03792 2.39408 0
M  V30 22950 N 2184.63 -1.36623 0.78561 0
M  V30 22951 C 2185.91 -1.9358 0.280398 0
M  V30 22952 C 2186.29 -1.71791 -1.22683 0
M  V30 22953 O 2185.64 -1.07466 -2.01651 0
M  V30 22954 C 2185.85 -3.4253 0.668878 0
M  V30 22955 C 2187.19 -4.1965 0.646471 0
M  V30 22956 O 2188.22 -3.50953 0.609116 0
M  V30 22957 O 2187.08 -5.42178 0.685949 0
M  V30 22958 H 2184.17 -0.824163 0.0684374 0
M  V30 22959 H 2186.72 -1.45827 0.867897 0
M  V30 22960 H 2185.49 -3.5203 1.70853 0
M  V30 22961 H 2185.11 -3.97562 0.0550603 0
M  V30 22962 N 2186.11 -0.537304 -1.48158 0
M  V30 22963 C 2187.04 0.210088 -2.32553 0
M  V30 22964 C 2188.02 0.928052 -1.42552 0
M  V30 22965 O 2189.21 0.912405 -1.71432 0
M  V30 22966 C 2186.34 1.25296 -3.23911 0
M  V30 22967 C 2185.29 0.65269 -4.22994 0
M  V30 22968 C 2184.62 1.79875 -5.03537 0
M  V30 22969 C 2185.92 -0.380445 -5.20913 0
M  V30 22970 H 2187.61 -0.494444 -2.95289 0
M  V30 22971 H 2185.16 -0.239229 -1.41999 0
M  V30 22972 H 2187.11 1.78383 -3.81782 0
M  V30 22973 H 2185.83 1.98717 -2.59189 0
M  V30 22974 H 2184.49 0.143286 -3.6632 0
M  V30 22975 H 2184.14 2.52152 -4.35234 0
M  V30 22976 H 2183.84 1.40299 -5.70605 0
M  V30 22977 H 2185.36 2.33326 -5.64262 0
M  V30 22978 H 2186.78 0.0636068 -5.73265 0
M  V30 22979 H 2185.17 -0.693989 -5.96074 0
M  V30 22980 H 2186.24 -1.28359 -4.67602 0
M  V30 22981 N 2187.59 1.55221 -0.272782 0
M  V30 22982 C 2188.52 2.25408 0.609392 0
M  V30 22983 C 2189.5 1.2434 1.16076 0
M  V30 22984 O 2190.68 1.53054 1.19533 0
M  V30 22985 C 2187.81 2.97338 1.79464 0
M  V30 22986 C 2186.77 4.05315 1.37491 0
M  V30 22987 C 2186.09 4.64808 2.64307 0
M  V30 22988 C 2187.39 5.19636 0.526828 0
M  V30 22989 H 2189.09 2.9939 0.0240678 0
M  V30 22990 H 2186.63 1.43996 0.0101357 0
M  V30 22991 H 2188.59 3.45149 2.41765 0
M  V30 22992 H 2187.31 2.20887 2.40576 0
M  V30 22993 H 2185.97 3.58312 0.775106 0
M  V30 22994 H 2185.62 3.85027 3.23672 0
M  V30 22995 H 2185.32 5.37713 2.36935 0
M  V30 22996 H 2186.84 5.15366 3.2746 0
M  V30 22997 H 2188.26 5.63513 1.05478 0
M  V30 22998 H 2186.65 5.9909 0.348095 0
M  V30 22999 H 2187.72 4.82761 -0.454948 0
M  V30 23000 N 2189.07 2.77022e-05 1.576 0
M  V30 23001 C 2190 -1.01955 2.05275 0
M  V30 23002 C 2191.01 -1.30696 0.970685 0
M  V30 23003 O 2192.2 -1.27672 1.24748 0
M  V30 23004 C 2189.3 -2.35429 2.43775 0
M  V30 23005 C 2188.47 -2.25626 3.74715 0
M  V30 23006 C 2187.53 -3.41789 4.00083 0
M  V30 23007 O 2186.56 -3.19975 4.70749 0
M  V30 23008 N 2187.76 -4.64639 3.47981 0
M  V30 23009 H 2190.53 -0.612973 2.93364 0
M  V30 23010 H 2188.09 -0.187355 1.60812 0
M  V30 23011 H 2190.08 -3.11913 2.57861 0
M  V30 23012 H 2188.65 -2.67828 1.61205 0
M  V30 23013 H 2187.87 -1.34052 3.70707 0
M  V30 23014 H 2189.16 -2.16249 4.60558 0
M  V30 23015 H 2188.55 -4.8526 2.90756 0
M  V30 23016 H 2187.11 -5.3839 3.67396 0
M  V30 23017 N 2190.54 -1.55222 -0.272728 0
M  V30 23018 C 2191.51 -1.87346 -1.32038 0
M  V30 23019 C 2192.51 -0.748055 -1.4234 0
M  V30 23020 O 2193.7 -1.01623 -1.41487 0
M  V30 23021 C 2190.83 -2.07898 -2.70169 0
M  V30 23022 H 2192.02 -2.80999 -1.04784 0
M  V30 23023 H 2189.58 -1.47718 -0.510804 0
M  V30 23024 H 2190.31 -1.16628 -3.02603 0
M  V30 23025 H 2190.1 -2.89837 -2.64077 0
M  V30 23026 H 2191.59 -2.34024 -3.45865 0
M  V30 23027 N 2192.02 0.537252 -1.4816 0
M  V30 23028 C 2193.27 1.29538 -1.56038 0
M  V30 23029 C 2193.6 1.92828 -0.230411 0
M  V30 23030 O 2192.88 1.78913 0.762921 0
M  V30 23031 C 2193.16 2.39029 -2.69327 0
M  V30 23032 C 2193.01 1.80478 -4.12005 0
M  V30 23033 C 2194.33 3.40842 -2.78414 0
M  V30 23034 H 2191.45 0.469622 -0.568 0
M  V30 23035 H 2194.09 0.599245 -1.80303 0
M  V30 23036 H 2192.24 2.98407 -2.48768 0
M  V30 23037 H 2193.91 1.25207 -4.43983 0
M  V30 23038 H 2192.16 1.11048 -4.19346 0
M  V30 23039 H 2192.83 2.59722 -4.87082 0
M  V30 23040 H 2195.3 2.9141 -2.97017 0
M  V30 23041 H 2194.18 4.14857 -3.59423 0
M  V30 23042 H 2194.44 4.00941 -1.86276 0
M  V30 23043 N 2193.5 1.36626 0.785562 0
M  V30 23044 C 2194.78 1.21615 1.53196 0
M  V30 23045 C 2195.16 -0.196076 2.10187 0
M  V30 23046 O 2194.51 -1.20216 1.94321 0
M  V30 23047 C 2194.72 2.30121 2.62384 0
M  V30 23048 C 2196.06 2.6698 3.30162 0
M  V30 23049 O 2197.09 2.29193 2.7267 0
M  V30 23050 O 2195.95 3.32031 4.34071 0
M  V30 23051 H 2193.04 0.47375 0.677857 0
M  V30 23052 H 2195.59 1.48368 0.823713 0
M  V30 23053 H 2194.36 3.24752 2.18293 0
M  V30 23054 H 2193.98 2.04756 3.40824 0
M  V30 23055 N 2194.98 -1.01016 1.20969 0
M  V30 23056 C 2196.2 -1.78837 1.05034 0
M  V30 23057 C 2196.63 -1.8389 -0.39572 0
M  V30 23058 O 2195.99 -1.2787 -1.28527 0
M  V30 23059 C 2196.03 -3.20837 1.64608 0
M  V30 23060 O 2195.14 -4.02725 0.888059 0
M  V30 23061 H 2194.48 -0.55136 0.369997 0
M  V30 23062 H 2197.01 -1.27015 1.60401 0
M  V30 23063 H 2197.02 -3.71529 1.68613 0
M  V30 23064 H 2195.69 -3.16474 2.69846 0
M  V30 23065 H 2194.27 -3.61304 0.922711 0
M  V30 23066 N 2196.46 -1.01661 -1.20428 0
M  V30 23067 C 2197.39 -0.545027 -2.22625 0
M  V30 23068 C 2198.4 0.372581 -1.58479 0
M  V30 23069 O 2199.59 0.170927 -1.7768 0
M  V30 23070 C 2196.69 0.22657 -3.38142 0
M  V30 23071 C 2195.86 -0.692952 -4.31876 0
M  V30 23072 C 2194.92 0.0310691 -5.26191 0
M  V30 23073 O 2193.95 -0.591442 -5.66119 0
M  V30 23074 N 2195.15 1.30591 -5.6562 0
M  V30 23075 H 2197.92 -1.42392 -2.63713 0
M  V30 23076 H 2195.48 -0.89414 -1.34969 0
M  V30 23077 H 2197.47 0.72017 -3.98241 0
M  V30 23078 H 2196.04 1.00676 -2.95944 0
M  V30 23079 H 2195.26 -1.36686 -3.69744 0
M  V30 23080 H 2196.55 -1.31833 -4.91424 0
M  V30 23081 H 2195.94 1.8326 -5.35194 0
M  V30 23082 H 2194.5 1.74424 -6.28028 0
M  V30 23083 N 2197.93 1.36205 -0.792844 0
M  V30 23084 C 2198.84 2.33789 -0.19485 0
M  V30 23085 C 2199.86 1.61207 0.65484 0
M  V30 23086 O 2201.04 1.93171 0.569822 0
M  V30 23087 C 2198.1 3.40405 0.657661 0
M  V30 23088 C 2197.16 4.28782 -0.210924 0
M  V30 23089 C 2196.4 5.30305 0.600993 0
M  V30 23090 O 2196.62 5.40019 1.83673 0
M  V30 23091 O 2195.55 6.019 -0.000914076 0
M  V30 23092 H 2199.38 2.86702 -1.00178 0
M  V30 23093 H 2196.96 1.38734 -0.554366 0
M  V30 23094 H 2198.85 4.05583 1.14368 0
M  V30 23095 H 2197.52 2.89786 1.44242 0
M  V30 23096 H 2196.43 3.66632 -0.743779 0
M  V30 23097 H 2197.76 4.82761 -0.95928 0
M  V30 23098 N 2199.41 0.545154 1.47871 0
M  V30 23099 C 2200.66 0.016646 2.02793 0
M  V30 23100 C 2200.99 -1.32487 1.41989 0
M  V30 23101 O 2200.27 -1.85927 0.571078 0
M  V30 23102 C 2200.55 -0.0892662 3.59989 0
M  V30 23103 C 2200.4 1.27849 4.31248 0
M  V30 23104 C 2201.72 -0.808648 4.32607 0
M  V30 23105 H 2198.84 0.00752331 0.736962 0
M  V30 23106 H 2201.48 0.705116 1.76432 0
M  V30 23107 H 2199.63 -0.675614 3.8258 0
M  V30 23108 H 2201.3 1.90711 4.20032 0
M  V30 23109 H 2199.55 1.85639 3.92072 0
M  V30 23110 H 2200.22 1.15722 5.39734 0
M  V30 23111 H 2202.69 -0.310919 4.14937 0
M  V30 23112 H 2201.57 -0.851686 5.42252 0
M  V30 23113 H 2201.83 -1.86222 4.00966 0
M  V30 23114 N 2200.89 -1.55074 0.28101 0
M  V30 23115 C 2202.31 -1.59433 -0.0729684 0
M  V30 23116 C 2202.51 -1.29819 -1.54108 0
M  V30 23117 O 2201.56 -1.06191 -2.29085 0
M  V30 23118 C 2202.88 -2.99129 0.306974 0
M  V30 23119 C 2204.42 -3.11967 0.254078 0
M  V30 23120 C 2204.9 -4.53939 0.608547 0
M  V30 23121 N 2206.39 -4.59798 0.560322 0
M  V30 23122 C 2207.12 -5.67688 0.807319 0
M  V30 23123 N 2206.62 -6.83699 1.11924 0
M  V30 23124 N 2208.41 -5.57264 0.735721 0
M  V30 23125 H 2200.56 -1.72588 1.23803 0
M  V30 23126 H 2202.83 -0.805073 0.500561 0
M  V30 23127 H 2202.53 -3.25655 1.32822 0
M  V30 23128 H 2202.41 -3.75579 -0.349297 0
M  V30 23129 H 2204.79 -2.85202 -0.75789 0
M  V30 23130 H 2204.88 -2.37717 0.94469 0
M  V30 23131 H 2204.52 -4.81431 1.61823 0
M  V30 23132 H 2204.45 -5.26497 -0.10392 0
M  V30 23133 H 2206.94 -3.76462 0.329354 0
M  V30 23134 H 2207.25 -7.61886 1.29422 0
M  V30 23135 H 2205.6 -6.853 1.15708 0
M  V30 23136 H 2208.79 -4.65509 0.491834 0
M  V30 23137 H 2208.96 -6.41269 0.931595 0
M  V30 23138 N 2202.37 -0.00838561 -1.57598 0
M  V30 23139 C 2203.65 0.712203 -1.82173 0
M  V30 23140 C 2204.03 1.91519 -0.887907 0
M  V30 23141 O 2203.37 2.28417 0.0614199 0
M  V30 23142 C 2203.58 1.11002 -3.30877 0
M  V30 23143 C 2204.93 1.51037 -3.96829 0
M  V30 23144 O 2205.96 1.20358 -3.3525 0
M  V30 23145 O 2204.82 2.08116 -5.05322 0
M  V30 23146 H 2201.91 0.347515 -0.750441 0
M  V30 23147 H 2204.46 -0.0344821 -1.69665 0
M  V30 23148 H 2203.23 0.252913 -3.90482 0
M  V30 23149 H 2202.85 1.91554 -3.48415 0
M  V30 23150 N 2203.85 1.55365 0.264492 0
M  V30 23151 C 2205.08 1.80145 1.0115 0
M  V30 23152 C 2205.49 0.579285 1.80114 0
M  V30 23153 O 2204.83 -0.461288 1.77814 0
M  V30 23154 C 2204.89 2.97997 2.01093 0
M  V30 23155 C 2204.55 4.34709 1.40988 0
M  V30 23156 C 2205.55 5.13373 0.821226 0
M  V30 23157 C 2203.24 4.8138 1.43452 0
M  V30 23158 C 2205.23 6.36848 0.265227 0
M  V30 23159 C 2202.92 6.04808 0.874665 0
M  V30 23160 C 2203.92 6.8238 0.291026 0
M  V30 23161 O 2203.6 8.03479 -0.260235 0
M  V30 23162 H 2203.34 0.603731 0.304114 0
M  V30 23163 H 2205.89 2.03226 0.298053 0
M  V30 23164 H 2204.12 2.70628 2.7622 0
M  V30 23165 H 2205.81 3.10025 2.61991 0
M  V30 23166 H 2206.57 4.78443 0.794819 0
M  V30 23167 H 2202.45 4.21005 1.87819 0
M  V30 23168 H 2206 6.97339 -0.190959 0
M  V30 23169 H 2201.89 6.39218 0.89834 0
M  V30 23170 H 2202.66 8.18362 -0.150409 0
M  V30 23171 N 2205.33 -0.529387 1.48443 0
M  V30 23172 C 2206.57 -1.29566 1.58088 0
M  V30 23173 C 2206.93 -1.90374 0.249335 0
M  V30 23174 O 2208.13 -2.67892 0.220785 0
M  V30 23175 C 2206.4 -2.35548 2.68798 0
M  V30 23176 S 2207.96 -3.21892 2.98213 0
M  V30 23177 H 2204.78 -0.440722 0.55793 0
M  V30 23178 H 2207.38 -0.603026 1.85967 0
M  V30 23179 H 2206.08 -1.89356 3.64105 0
M  V30 23180 H 2205.62 -3.09517 2.42822 0
M  V30 23181 H 2207.63 -4.3564 2.37556 0
M  V30 23182 N 2206.8 -1.37041 -0.778305 0
M  V30 23183 C 2207.71 -1.3445 -1.92251 0
M  V30 23184 C 2208.73 -0.245021 -1.72266 0
M  V30 23185 O 2209.91 -0.479293 -1.95614 0
M  V30 23186 C 2206.97 -1.14405 -3.2728 0
M  V30 23187 C 2206.03 -2.33931 -3.59965 0
M  V30 23188 C 2205.26 -2.14834 -4.88551 0
M  V30 23189 O 2205.49 -1.12922 -5.59111 0
M  V30 23190 O 2204.42 -3.0287 -5.20147 0
M  V30 23191 H 2208.25 -2.30807 -1.97388 0
M  V30 23192 H 2205.83 -1.17703 -0.920134 0
M  V30 23193 H 2207.71 -1.05189 -4.0806 0
M  V30 23194 H 2206.39 -0.211181 -3.2301 0
M  V30 23195 H 2205.3 -2.48718 -2.79446 0
M  V30 23196 H 2206.63 -3.25763 -3.6897 0
M  V30 23197 N 2208.28 1.00373 -1.21503 0
M  V30 23198 C 2209.23 2.09175 -0.975424 0
M  V30 23199 C 2210.2 1.65805 0.0990324 0
M  V30 23200 O 2211.38 1.90739 -0.0483483 0
M  V30 23201 C 2208.52 3.40728 -0.547567 0
M  V30 23202 C 2207.64 3.97503 -1.6916 0
M  V30 23203 C 2206.77 5.1717 -1.21279 0
M  V30 23204 C 2205.81 5.66057 -2.32907 0
M  V30 23205 N 2204.95 6.76973 -1.8615 0
M  V30 23206 H 2209.79 2.29005 -1.90684 0
M  V30 23207 H 2207.32 1.12286 -0.950277 0
M  V30 23208 H 2209.28 4.16254 -0.280741 0
M  V30 23209 H 2207.91 3.20931 0.346848 0
M  V30 23210 H 2206.96 3.18951 -2.07303 0
M  V30 23211 H 2208.28 4.29776 -2.53167 0
M  V30 23212 H 2207.43 5.99947 -0.902697 0
M  V30 23213 H 2206.17 4.86494 -0.342777 0
M  V30 23214 H 2205.17 4.81876 -2.64718 0
M  V30 23215 H 2206.4 5.98763 -3.20406 0
M  V30 23216 H 2204.35 6.48101 -1.01495 0
M  V30 23217 H 2204.26 7.08507 -2.6373 0
M  V30 23218 H 2205.53 7.63282 -1.58179 0
M  V30 23219 N 2209.76 1.02298 1.19887 0
M  V30 23220 C 2210.71 0.598691 2.229 0
M  V30 23221 C 2211.68 -0.384492 1.61589 0
M  V30 23222 O 2212.86 -0.282489 1.88697 0
M  V30 23223 C 2210 -0.0503869 3.45063 0
M  V30 23224 C 2209.11 0.978127 4.20781 0
M  V30 23225 C 2208.25 0.299432 5.30355 0
M  V30 23226 C 2207.29 1.31426 5.97824 0
M  V30 23227 N 2206.43 0.66179 6.98974 0
M  V30 23228 H 2211.27 1.48173 2.58551 0
M  V30 23229 H 2208.8 0.741606 1.27038 0
M  V30 23230 H 2210.76 -0.443898 4.14832 0
M  V30 23231 H 2209.39 -0.897042 3.10085 0
M  V30 23232 H 2208.44 1.48975 3.50015 0
M  V30 23233 H 2209.75 1.74967 4.67106 0
M  V30 23234 H 2208.91 -0.14924 6.06516 0
M  V30 23235 H 2207.65 -0.50436 4.85085 0
M  V30 23236 H 2206.65 1.77326 5.20419 0
M  V30 23237 H 2207.88 2.11945 6.45179 0
M  V30 23238 H 2205.82 -0.122017 6.55887 0
M  V30 23239 H 2205.74 1.3713 7.43459 0
M  V30 23240 H 2207.01 0.236922 7.7914 0
M  V30 23241 N 2211.24 -1.35782 0.800057 0
M  V30 23242 C 2212.49 -1.9856 0.376632 0
M  V30 23243 C 2212.81 -1.63797 -1.0581 0
M  V30 23244 O 2212.08 -0.917202 -1.73102 0
M  V30 23245 H 2210.66 -0.734465 0.136274 0
M  V30 23246 H 2213.32 -1.65804 1.02445 0
M  V30 23247 H 2212.41 -3.08432 0.477056 0
M  V30 23248 N 2212.72 -0.552988 -1.4758 0
M  V30 23249 C 2213.96 -0.0356165 -2.03369 0
M  V30 23250 C 2214.32 1.29802 -1.42018 0
M  V30 23251 O 2213.61 1.83082 -0.56495 0
M  V30 23252 C 2213.8 0.119666 -3.572 0
M  V30 23253 C 2213.63 -1.19737 -4.33466 0
M  V30 23254 C 2212.4 -1.76353 -4.73527 0
M  V30 23255 C 2214.6 -2.11359 -4.68862 0
M  V30 23256 N 2212.58 -3.02106 -5.3442 0
M  V30 23257 C 2213.95 -3.2169 -5.30014 0
M  V30 23258 C 2216.01 -2.11404 -4.50791 0
M  V30 23259 C 2214.71 -4.32161 -5.75004 0
M  V30 23260 C 2216.74 -3.20885 -4.96777 0
M  V30 23261 C 2216.1 -4.29936 -5.57974 0
M  V30 23262 H 2212.2 -0.0550943 -0.780057 0
M  V30 23263 H 2214.78 -0.739347 -1.80116 0
M  V30 23264 H 2212.95 0.792513 -3.80229 0
M  V30 23265 H 2214.69 0.638721 -3.99628 0
M  V30 23266 H 2211.44 -1.30204 -4.5535 0
M  V30 23267 H 2211.86 -3.66192 -5.69414 0
M  V30 23268 H 2216.51 -1.28379 -4.02838 0
M  V30 23269 H 2214.22 -5.15949 -6.2195 0
M  V30 23270 H 2217.81 -3.22002 -4.84568 0
M  V30 23271 H 2216.69 -5.13253 -5.92909 0
M  V30 23272 N 2214.19 1.54923 -0.28923 0
M  V30 23273 C 2215.44 1.99078 0.324196 0
M  V30 23274 C 2215.76 1.1812 1.55907 0
M  V30 23275 O 2216.96 1.52485 2.24635 0
M  V30 23276 C 2215.42 3.54376 0.628147 0
M  V30 23277 C 2215.03 4.44128 -0.587725 0
M  V30 23278 C 2216.77 4.07085 1.20342 0
M  V30 23279 C 2214.68 5.90839 -0.257578 0
M  V30 23280 H 2213.61 0.743581 0.124911 0
M  V30 23281 H 2216.26 1.79174 -0.396095 0
M  V30 23282 H 2214.64 3.70134 1.40772 0
M  V30 23283 H 2215.81 4.40142 -1.36426 0
M  V30 23284 H 2214.13 4.02129 -1.08081 0
M  V30 23285 H 2216.73 5.14254 1.46447 0
M  V30 23286 H 2217.07 3.56972 2.14189 0
M  V30 23287 H 2217.6 3.94822 0.48582 0
M  V30 23288 H 2214.34 6.45077 -1.1643 0
M  V30 23289 H 2213.86 5.97861 0.481912 0
M  V30 23290 H 2215.54 6.46837 0.145124 0
M  V30 23291 N 2215.67 0.0167433 1.57591 0
M  V30 23292 C 2216.92 -0.665548 1.91568 0
M  V30 23293 C 2217.25 -1.72485 0.892329 0
M  V30 23294 O 2216.53 -1.94307 -0.0866785 0
M  V30 23295 C 2216.81 -1.29336 3.36072 0
M  V30 23296 C 2216.66 -0.244462 4.49135 0
M  V30 23297 C 2217.98 -2.21488 3.80304 0
M  V30 23298 H 2215.1 -0.240476 0.696664 0
M  V30 23299 H 2217.74 0.071469 1.89866 0
M  V30 23300 H 2215.89 -1.92153 3.37653 0
M  V30 23301 H 2217.56 0.385309 4.59688 0
M  V30 23302 H 2215.81 0.431455 4.31649 0
M  V30 23303 H 2216.48 -0.723111 5.47243 0
M  V30 23304 H 2218.95 -1.68672 3.8038 0
M  V30 23305 H 2217.83 -2.62374 4.82132 0
M  V30 23306 H 2218.09 -3.10094 3.1511 0
M  V30 23307 N 2217.15 -1.55503 -0.256249 0
M  V30 23308 C 2218.1 -1.90341 -1.33691 0
M  V30 23309 C 2219.09 -0.781468 -1.50298 0
M  V30 23310 O 2220.3 -0.965992 -1.51883 0
M  V30 23311 H 2216.67 -0.604378 -0.447473 0
M  V30 23312 H 2218.64 -2.80582 -1.01569 0
M  V30 23313 C 2217.39 -2.20647 -2.6872 0
M  V30 23314 H 2216.72 -3.06473 -2.56738 0
M  V30 23315 H 2218.16 -2.48932 -3.43233 0
M  V30 23316 C 2216.62 -1.01964 -3.21099 0
M  V30 23317 O 2217.15 -0.262832 -4.00839 0
M  V30 23318 N 2215.35 -0.812795 -2.79002 0
M  V30 23319 H 2214.9 -1.42992 -2.14268 0
M  V30 23320 H 2214.86 -0.0203628 -3.14393 0
M  V30 23321 N 2218.63 0.521507 -1.48721 0
M  V30 23322 C 2219.88 1.27339 -1.56422 0
M  V30 23323 C 2220.19 1.94036 -0.246839 0
M  V30 23324 O 2221.4 2.70746 -0.20217 0
M  V30 23325 C 2219.85 2.311 -2.759 0
M  V30 23326 C 2219.46 1.70433 -4.14314 0
M  V30 23327 C 2221.2 3.07244 -2.92919 0
M  V30 23328 C 2219.11 2.72185 -5.25042 0
M  V30 23329 H 2218.04 0.478938 -0.582352 0
M  V30 23330 H 2220.69 0.549748 -1.75071 0
M  V30 23331 H 2219.07 3.06536 -2.50702 0
M  V30 23332 H 2220.25 1.01128 -4.49566 0
M  V30 23333 H 2218.56 1.06752 -4.02484 0
M  V30 23334 H 2221.16 3.83296 -3.72812 0
M  V30 23335 H 2221.5 3.63621 -2.02695 0
M  V30 23336 H 2222.04 2.38922 -3.18058 0
M  V30 23337 H 2218.78 2.20616 -6.17259 0
M  V30 23338 H 2218.3 3.39792 -4.94269 0
M  V30 23339 H 2219.97 3.35009 -5.53514 0
M  V30 23340 N 2220.11 1.37452 0.771027 0
M  V30 23341 C 2221.33 1.35895 1.56013 0
M  V30 23342 C 2221.75 -0.0555192 1.88718 0
M  V30 23343 O 2221.11 -1.0175 1.51503 0
M  V30 23344 C 2221.16 2.19806 2.86997 0
M  V30 23345 O 2220.88 3.55742 2.55694 0
M  V30 23346 C 2222.38 2.26237 3.81224 0
M  V30 23347 H 2219.6 0.465461 0.483308 0
M  V30 23348 H 2222.14 1.80801 0.955579 0
M  V30 23349 H 2220.3 1.78408 3.43874 0
M  V30 23350 H 2220.71 3.99735 3.39577 0
M  V30 23351 H 2222.19 2.89271 4.70134 0
M  V30 23352 H 2222.66 1.271 4.20407 0
M  V30 23353 H 2223.27 2.67951 3.30276 0
M  V30 23354 N 2221.58 -0.997276 1.22033 0
M  V30 23355 C 2222.81 -1.77713 1.06924 0
M  V30 23356 C 2223.23 -1.843 -0.376193 0
M  V30 23357 O 2222.59 -1.29226 -1.27163 0
M  V30 23358 C 2222.64 -3.19073 1.68002 0
M  V30 23359 O 2221.74 -4.0176 0.930723 0
M  V30 23360 H 2221.09 -0.547405 0.375824 0
M  V30 23361 H 2223.62 -1.25306 1.61739 0
M  V30 23362 H 2223.63 -3.6972 1.72544 0
M  V30 23363 H 2222.3 -3.13594 2.73188 0
M  V30 23364 H 2220.88 -3.60305 0.96098 0
M  V30 23365 N 2223.06 -1.02932 -1.19343 0
M  V30 23366 C 2223.99 -0.568609 -2.22035 0
M  V30 23367 C 2225.01 0.355751 -1.58866 0
M  V30 23368 O 2226.2 0.152072 -1.77851 0
M  V30 23369 C 2223.3 0.190693 -3.38363 0
M  V30 23370 C 2222.47 -0.738719 -4.31117 0
M  V30 23371 C 2221.53 -0.0247422 -5.26194 0
M  V30 23372 O 2220.55 -0.651454 -5.6546 0
M  V30 23373 N 2221.76 1.24584 -5.66974 0
M  V30 23374 H 2224.52 -1.45181 -2.62188 0
M  V30 23375 H 2222.08 -0.908405 -1.34013 0
M  V30 23376 H 2224.07 0.677891 -3.98982 0
M  V30 23377 H 2222.64 0.975314 -2.96996 0
M  V30 23378 H 2221.86 -1.406 -3.68273 0
M  V30 23379 H 2223.15 -1.37037 -4.89998 0
M  V30 23380 H 2222.55 1.77573 -5.37107 0
M  V30 23381 H 2221.11 1.67753 -6.29843 0
M  V30 23382 N 2224.54 1.35356 -0.807246 0
M  V30 23383 C 2225.79 1.99044 -0.388498 0
M  V30 23384 C 2226.12 1.6389 1.04181 0
M  V30 23385 O 2225.39 0.902565 1.7229 0
M  V30 23386 C 2225.68 3.55514 -0.572846 0
M  V30 23387 C 2225.53 4.00464 -2.04814 0
M  V30 23388 C 2226.85 4.401 0.00106328 0
M  V30 23389 H 2223.97 0.723067 -0.142631 0
M  V30 23390 H 2226.61 1.60496 -1.0169 0
M  V30 23391 H 2224.76 3.88482 -0.0379108 0
M  V30 23392 H 2226.43 3.77903 -2.6455 0
M  V30 23393 H 2224.68 3.51349 -2.54433 0
M  V30 23394 H 2225.35 5.09333 -2.128 0
M  V30 23395 H 2227.82 4.13596 -0.455788 0
M  V30 23396 H 2226.7 5.48673 -0.157833 0
M  V30 23397 H 2226.96 4.2833 1.09481 0
M  V30 23398 N 2226.02 0.560807 1.47284 0
M  V30 23399 C 2226.95 -0.222398 2.28118 0
M  V30 23400 C 2227.96 -0.876032 1.37221 0
M  V30 23401 O 2229.15 -0.749279 1.62013 0
M  V30 23402 C 2226.25 -1.33279 3.11592 0
M  V30 23403 C 2225.43 -0.775265 4.30475 0
M  V30 23404 C 2224.48 -1.7706 4.95516 0
M  V30 23405 O 2223.51 -1.31529 5.53795 0
M  V30 23406 N 2224.71 -3.10409 4.90537 0
M  V30 23407 H 2227.48 0.47101 2.95976 0
M  V30 23408 H 2225.04 0.397118 1.56954 0
M  V30 23409 H 2227.03 -1.99746 3.51971 0
M  V30 23410 H 2225.6 -1.92938 2.45954 0
M  V30 23411 H 2224.82 0.0662805 3.94144 0
M  V30 23412 H 2226.11 -0.382182 5.07363 0
M  V30 23413 H 2225.51 -3.50042 4.44395 0
M  V30 23414 H 2224.06 -3.72425 5.34923 0
M  V30 23415 N 2227.5 -1.54768 0.297442 0
M  V30 23416 C 2228.72 -2.04479 -0.315587 0
M  V30 23417 C 2229.14 -1.17489 -1.4779 0
M  V30 23418 O 2228.5 -0.199742 -1.81404 0
M  V30 23419 C 2228.55 -3.5309 -0.775238 0
M  V30 23420 O 2228.27 -4.36772 0.340808 0
M  V30 23421 C 2229.77 -4.18784 -1.45379 0
M  V30 23422 H 2226.99 -0.667435 -0.0690769 0
M  V30 23423 H 2229.53 -1.99797 0.436038 0
M  V30 23424 H 2227.69 -3.58143 -1.47689 0
M  V30 23425 H 2228.1 -5.24497 -0.0164113 0
M  V30 23426 H 2229.58 -5.24302 -1.7266 0
M  V30 23427 H 2230.05 -3.68303 -2.39268 0
M  V30 23428 H 2230.66 -4.17796 -0.795401 0
M  V30 23429 N 2228.97 -0.0251005 -1.5758 0
M  V30 23430 C 2229.88 0.973867 -2.13431 0
M  V30 23431 C 2230.9 1.35982 -1.08559 0
M  V30 23432 O 2232.08 1.44205 -1.40595 0
M  V30 23433 C 2229.14 2.23899 -2.64707 0
M  V30 23434 C 2228.2 1.91384 -3.84279 0
M  V30 23435 C 2227.44 3.11865 -4.331 0
M  V30 23436 O 2227.66 4.24391 -3.81115 0
M  V30 23437 O 2226.59 2.94397 -5.24989 0
M  V30 23438 H 2230.42 0.528984 -2.99058 0
M  V30 23439 H 2228 0.195262 -1.48118 0
M  V30 23440 H 2229.89 2.98176 -2.97774 0
M  V30 23441 H 2228.56 2.67576 -1.82166 0
M  V30 23442 H 2227.47 1.14505 -3.56145 0
M  V30 23443 H 2228.8 1.52526 -4.67971 0
M  V30 23444 N 2230.45 1.55637 0.247999 0
M  V30 23445 C 2231.87 1.48036 0.596457 0
M  V30 23446 C 2232.07 0.715073 1.88385 0
M  V30 23447 O 2231.12 0.243988 2.51318 0
M  V30 23448 C 2232.44 2.92434 0.700207 0
M  V30 23449 C 2233.99 3.02798 0.792606 0
M  V30 23450 C 2234.46 4.48501 0.927926 0
M  V30 23451 N 2235.95 4.52435 0.992824 0
M  V30 23452 C 2236.69 5.6242 1.11677 0
M  V30 23453 N 2236.18 6.82217 1.20633 0
M  V30 23454 N 2237.98 5.50214 1.14984 0
M  V30 23455 H 2230.13 2.03833 -0.597145 0
M  V30 23456 H 2232.39 0.925361 -0.205941 0
M  V30 23457 H 2232.1 3.51261 -0.17572 0
M  V30 23458 H 2231.97 3.42859 1.57249 0
M  V30 23459 H 2234.36 2.44053 1.65899 0
M  V30 23460 H 2234.44 2.55585 -0.104807 0
M  V30 23461 H 2234.08 5.07857 0.0661079 0
M  V30 23462 H 2234.01 4.93395 1.84036 0
M  V30 23463 H 2236.5 3.6615 0.934999 0
M  V30 23464 H 2236.82 7.61788 1.29995 0
M  V30 23465 H 2235.16 6.84979 1.17593 0
M  V30 23466 H 2238.35 4.55557 1.07635 0
M  V30 23467 H 2238.52 6.35967 1.24299 0
M  V30 23468 N 2231.93 -0.513613 1.48996 0
M  V30 23469 C 2232.88 -1.63741 1.65201 0
M  V30 23470 C 2233.87 -1.61282 0.518118 0
M  V30 23471 O 2235.08 -1.65942 0.697364 0
M  V30 23472 H 2231.45 -0.542565 0.520699 0
M  V30 23473 H 2233.43 -1.47222 2.59554 0
M  V30 23474 C 2232.17 -3.01942 1.72414 0
M  V30 23475 H 2231.5 -3.04535 2.59034 0
M  V30 23476 H 2232.94 -3.80145 1.87792 0
M  V30 23477 C 2231.4 -3.33658 0.466238 0
M  V30 23478 O 2231.93 -3.99564 -0.413674 0
M  V30 23479 N 2230.13 -2.88686 0.332981 0
M  V30 23480 H 2229.68 -2.35229 1.05001 0
M  V30 23481 H 2229.64 -3.10275 -0.507611 0
M  V30 23482 N 2233.41 -1.37859 -0.763727 0
M  V30 23483 C 2234.66 -1.3283 -1.51786 0
M  V30 23484 C 2234.97 0.0823376 -1.95427 0
M  V30 23485 O 2236.18 0.255124 -2.70299 0
M  V30 23486 C 2234.63 -2.33198 -2.74129 0
M  V30 23487 C 2234.24 -3.79831 -2.37555 0
M  V30 23488 C 2235.99 -2.37195 -3.5205 0
M  V30 23489 C 2233.89 -4.7191 -3.56448 0
M  V30 23490 H 2232.82 -0.493705 -0.569887 0
M  V30 23491 H 2235.47 -1.63361 -0.835793 0
M  V30 23492 H 2233.86 -1.95696 -3.44266 0
M  V30 23493 H 2235.03 -4.26215 -1.7515 0
M  V30 23494 H 2233.34 -3.78856 -1.72791 0
M  V30 23495 H 2235.94 -3.0319 -4.40432 0
M  V30 23496 H 2236.28 -1.38789 -3.92484 0
M  V30 23497 H 2236.82 -2.73445 -2.88917 0
M  V30 23498 H 2233.56 -5.71474 -3.21089 0
M  V30 23499 H 2233.08 -4.30225 -4.17931 0
M  V30 23500 H 2234.76 -4.89433 -4.23159 0
M  V30 23501 N 2234.89 0.990791 -1.22561 0
M  V30 23502 C 2235.84 2.10252 -0.994835 0
M  V30 23503 C 2236.83 1.69284 0.06275 0
M  V30 23504 O 2238.04 1.79776 -0.0898708 0
M  V30 23505 H 2234.41 0.687575 -0.304539 0
M  V30 23506 H 2236.38 2.26888 -1.93816 0
M  V30 23507 C 2235.13 3.42632 -0.591499 0
M  V30 23508 H 2234.45 3.746 -1.39697 0
M  V30 23509 H 2235.89 4.21393 -0.469459 0
M  V30 23510 C 2234.35 3.29565 0.699174 0
M  V30 23511 O 2234.88 3.61526 1.75106 0
M  V30 23512 N 2233.09 2.82744 0.671132 0
M  V30 23513 H 2232.64 2.56934 -0.185181 0
M  V30 23514 H 2232.59 2.74383 1.53497 0
M  V30 23515 N 2236.37 1.03564 1.18795 0
M  V30 23516 C 2237.78 0.753941 1.40669 0
M  V30 23517 C 2237.98 -0.658652 1.90431 0
M  V30 23518 O 2237.04 -1.42363 2.0854 0
M  V30 23519 C 2238.35 1.79578 2.41189 0
M  V30 23520 C 2239.9 1.81611 2.54925 0
M  V30 23521 C 2240.37 2.84772 3.58704 0
M  V30 23522 N 2241.86 2.83632 3.66207 0
M  V30 23523 C 2242.6 3.60106 4.46219 0
M  V30 23524 N 2242.1 4.46317 5.2988 0
M  V30 23525 N 2243.89 3.48618 4.40933 0
M  V30 23526 H 2236.04 1.94729 0.848187 0
M  V30 23527 H 2238.3 0.842272 0.435066 0
M  V30 23528 H 2238.01 2.80876 2.11664 0
M  V30 23529 H 2237.88 1.62371 3.40464 0
M  V30 23530 H 2240.27 0.809867 2.8377 0
M  V30 23531 H 2240.35 2.02894 1.55781 0
M  V30 23532 H 2239.99 3.85572 3.306 0
M  V30 23533 H 2239.92 2.60745 4.57515 0
M  V30 23534 H 2242.42 2.2111 3.06462 0
M  V30 23535 H 2242.73 5.01392 5.8807 0
M  V30 23536 H 2241.07 4.50386 5.29318 0
M  V30 23537 H 2244.26 2.80674 3.74619 0
M  V30 23538 H 2244.44 4.08467 5.03049 0
M  V30 23539 N 2237.84 -1.34926 0.814413 0
M  V30 23540 C 2238.81 -2.27984 0.235799 0
M  V30 23541 C 2239.81 -1.49922 -0.581385 0
M  V30 23542 O 2241 -1.69575 -0.398728 0
M  V30 23543 C 2238.13 -3.34244 -0.670374 0
M  V30 23544 H 2239.32 -2.80669 1.05664 0
M  V30 23545 H 2236.87 -1.44914 0.585639 0
M  V30 23546 H 2237.61 -2.86758 -1.51461 0
M  V30 23547 H 2237.39 -3.92006 -0.0860133 0
M  V30 23548 H 2238.88 -4.03678 -1.06928 0
M  V30 23549 N 2239.32 -0.56861 -1.46985 0
M  V30 23550 C 2240.25 0.220739 -2.2713 0
M  V30 23551 C 2241.23 0.909881 -1.34759 0
M  V30 23552 O 2242.42 0.926594 -1.64154 0
M  V30 23553 C 2239.54 1.31547 -3.12111 0
M  V30 23554 C 2238.59 0.733674 -4.20142 0
M  V30 23555 S 2239.42 -0.428573 -5.33782 0
M  V30 23556 C 2240.58 0.667701 -6.22328 0
M  V30 23557 H 2240.81 -0.459319 -2.9373 0
M  V30 23558 H 2238.34 -0.355181 -1.50259 0
M  V30 23559 H 2240.3 1.94235 -3.61639 0
M  V30 23560 H 2238.96 1.96741 -2.4485 0
M  V30 23561 H 2238.16 1.55612 -4.79376 0
M  V30 23562 H 2237.76 0.182746 -3.73553 0
M  V30 23563 H 2240.05 1.55696 -6.59367 0
M  V30 23564 H 2240.99 0.112456 -7.08011 0
M  V30 23565 H 2241.4 0.965503 -5.56182 0
M  V30 23566 N 2240.8 1.54608 -0.305646 0
M  V30 23567 C 2242.03 2.04643 0.304739 0
M  V30 23568 C 2242.44 1.18271 1.47165 0
M  V30 23569 O 2241.8 0.209359 1.81295 0
M  V30 23570 C 2241.85 3.53496 0.756502 0
M  V30 23571 O 2241.57 4.36585 -0.363967 0
M  V30 23572 C 2243.07 4.19549 1.43156 0
M  V30 23573 H 2240.29 0.667792 0.0655364 0
M  V30 23574 H 2242.84 1.99563 -0.446627 0
M  V30 23575 H 2240.99 3.58921 1.45788 0
M  V30 23576 H 2241.41 5.24499 -0.0114043 0
M  V30 23577 H 2242.88 5.2521 1.69877 0
M  V30 23578 H 2243.36 3.69567 2.37312 0
M  V30 23579 H 2243.96 4.18212 0.773233 0
M  V30 23580 N 2242.28 0.033457 1.57564 0
M  V30 23581 C 2243.53 -0.643605 1.91156 0
M  V30 23582 C 2243.84 -1.7304 0.91195 0
M  V30 23583 O 2245.05 -2.4644 1.13927 0
M  V30 23584 C 2243.5 -1.19604 3.39445 0
M  V30 23585 C 2243.11 -0.142303 4.47774 0
M  V30 23586 C 2244.85 -1.84937 3.82098 0
M  V30 23587 C 2242.76 -0.706624 5.87163 0
M  V30 23588 H 2241.69 -0.244164 0.713372 0
M  V30 23589 H 2244.34 0.0994645 1.8323 0
M  V30 23590 H 2242.72 -1.99086 3.42317 0
M  V30 23591 H 2243.9 0.630376 4.56468 0
M  V30 23592 H 2242.21 0.412519 4.14352 0
M  V30 23593 H 2244.81 -2.28122 4.83595 0
M  V30 23594 H 2245.15 -2.69386 3.17391 0
M  V30 23595 H 2245.69 -1.12138 3.81667 0
M  V30 23596 H 2242.42 0.099833 6.55424 0
M  V30 23597 H 2241.94 -1.44769 5.82067 0
M  V30 23598 H 2243.62 -1.19503 6.35868 0
M  V30 23599 N 2243.76 -1.55766 -0.239741 0
M  V30 23600 C 2244.69 -1.93932 -1.30049 0
M  V30 23601 C 2245.67 -0.805158 -1.49837 0
M  V30 23602 O 2246.85 -1.06602 -1.62326 0
M  V30 23603 C 2243.98 -2.24024 -2.65387 0
M  V30 23604 C 2242.94 -3.3976 -2.60283 0
M  V30 23605 C 2242.26 -3.55412 -3.99483 0
M  V30 23606 C 2243.56 -4.7525 -2.16645 0
M  V30 23607 H 2245.26 -2.82785 -0.983523 0
M  V30 23608 H 2242.8 -1.36056 -0.471677 0
M  V30 23609 H 2244.75 -2.49314 -3.39736 0
M  V30 23610 H 2243.48 -1.32006 -2.98734 0
M  V30 23611 H 2242.14 -3.1449 -1.88392 0
M  V30 23612 H 2241.79 -2.608 -4.30107 0
M  V30 23613 H 2241.49 -4.33245 -3.96954 0
M  V30 23614 H 2243.01 -3.8303 -4.75521 0
M  V30 23615 H 2244.42 -4.99864 -2.80729 0
M  V30 23616 H 2242.82 -5.56236 -2.25213 0
M  V30 23617 H 2243.89 -4.71829 -1.11827 0
M  V30 23618 N 2245.23 0.505704 -1.49266 0
M  V30 23619 C 2246.17 1.62434 -1.61702 0
M  V30 23620 C 2247.18 1.54933 -0.499952 0
M  V30 23621 O 2248.37 1.60951 -0.771813 0
M  V30 23622 C 2245.47 3.01204 -1.55335 0
M  V30 23623 C 2244.64 3.33938 -2.82496 0
M  V30 23624 C 2243.7 4.52098 -2.69246 0
M  V30 23625 O 2242.73 4.54114 -3.43175 0
M  V30 23626 N 2243.93 5.51732 -1.80477 0
M  V30 23627 H 2246.69 1.52195 -2.5818 0
M  V30 23628 H 2244.25 0.693485 -1.46296 0
M  V30 23629 H 2246.25 3.78164 -1.44132 0
M  V30 23630 H 2244.82 3.05394 -0.66735 0
M  V30 23631 H 2244.04 2.45921 -3.08085 0
M  V30 23632 H 2245.32 3.52604 -3.66808 0
M  V30 23633 H 2244.72 5.52899 -1.19662 0
M  V30 23634 H 2243.28 6.27812 -1.75199 0
M  V30 23635 N 2246.71 1.38262 0.756405 0
M  V30 23636 C 2247.68 1.35068 1.85173 0
M  V30 23637 C 2248.68 0.251731 1.58817 0
M  V30 23638 O 2249.87 0.508462 1.66614 0
M  V30 23639 C 2247 1.10207 3.22595 0
M  V30 23640 H 2248.19 2.32514 1.89413 0
M  V30 23641 H 2245.74 1.23514 0.957808 0
M  V30 23642 H 2246.48 0.133561 3.24025 0
M  V30 23643 H 2246.26 1.89768 3.43119 0
M  V30 23644 H 2247.75 1.10661 4.02671 0
M  V30 23645 N 2248.19 -0.984277 1.23084 0
M  V30 23646 C 2249.44 -1.72759 1.06217 0
M  V30 23647 C 2249.77 -1.90024 -0.40055 0
M  V30 23648 O 2249.04 -1.44969 -1.2967 0
M  V30 23649 C 2249.33 -3.12814 1.7838 0
M  V30 23650 C 2249.18 -3.03143 3.32301 0
M  V30 23651 C 2250.5 -4.12159 1.54316 0
M  V30 23652 H 2247.62 -0.627054 0.387262 0
M  V30 23653 H 2250.26 -1.14614 1.51538 0
M  V30 23654 H 2248.41 -3.62454 1.39854 0
M  V30 23655 H 2250.08 -2.61057 3.80325 0
M  V30 23656 H 2248.33 -2.39741 3.61534 0
M  V30 23657 H 2249 -4.02289 3.77979 0
M  V30 23658 H 2251.47 -3.7131 1.87797 0
M  V30 23659 H 2250.35 -5.08254 2.0729 0
M  V30 23660 H 2250.61 -4.39512 0.477649 0
M  V30 23661 N 2249.67 -1.04192 -1.18244 0
M  V30 23662 C 2250.9 -0.766106 -1.92194 0
M  V30 23663 C 2251.31 0.676902 -1.76248 0
M  V30 23664 O 2250.67 1.46153 -1.09296 0
M  V30 23665 C 2250.72 -1.12448 -3.43566 0
M  V30 23666 O 2250.44 -2.51084 -3.5901 0
M  V30 23667 C 2251.94 -0.873351 -4.34612 0
M  V30 23668 H 2249.16 -0.279299 -0.610109 0
M  V30 23669 H 2251.71 -1.38992 -1.50005 0
M  V30 23670 H 2249.86 -0.54561 -3.83539 0
M  V30 23671 H 2250.27 -2.64839 -4.52726 0
M  V30 23672 H 2251.75 -1.17395 -5.39372 0
M  V30 23673 H 2252.23 0.191832 -4.38781 0
M  V30 23674 H 2252.83 -1.43558 -4.00339 0
M  V30 23675 N 2251.15 1.34492 -0.821557 0
M  V30 23676 C 2252.37 2.02552 -0.42192 0
M  V30 23677 C 2252.79 1.61874 0.971717 0
M  V30 23678 O 2252.15 0.823524 1.62863 0
M  V30 23679 C 2252.2 3.57843 -0.512913 0
M  V30 23680 O 2251.92 3.97047 -1.85162 0
M  V30 23681 C 2253.42 4.43168 -0.107999 0
M  V30 23682 H 2250.64 0.64924 -0.169494 0
M  V30 23683 H 2253.18 1.71796 -1.10933 0
M  V30 23684 H 2251.34 3.87194 0.126406 0
M  V30 23685 H 2251.75 4.91729 -1.82491 0
M  V30 23686 H 2253.23 5.5155 -0.222754 0
M  V30 23687 H 2253.7 4.2884 0.948325 0
M  V30 23688 H 2254.31 4.19143 -0.721062 0
M  V30 23689 N 2252.62 0.576397 1.46681 0
M  V30 23690 C 2253.87 0.0595695 2.02412 0
M  V30 23691 C 2254.2 -1.2979 1.44861 0
M  V30 23692 O 2253.45 -1.86239 0.601131 0
M  V30 23693 C 2253.75 -0.0628232 3.57345 0
M  V30 23694 C 2253.42 1.22623 4.33906 0
M  V30 23695 C 2252.08 1.57941 4.54542 0
M  V30 23696 C 2254.43 2.07957 4.77916 0
M  V30 23697 C 2251.76 2.78402 5.16439 0
M  V30 23698 C 2254.11 3.27638 5.41143 0
M  V30 23699 C 2252.78 3.63246 5.60008 0
M  V30 23700 H 2252.05 0.021798 0.740679 0
M  V30 23701 H 2254.69 0.751766 1.76127 0
M  V30 23702 H 2253 -0.83811 3.82731 0
M  V30 23703 H 2254.7 -0.478369 3.98136 0
M  V30 23704 H 2251.29 0.941276 4.18136 0
M  V30 23705 H 2255.47 1.81976 4.61734 0
M  V30 23706 H 2250.73 3.06135 5.29236 0
M  V30 23707 H 2254.9 3.94034 5.74204 0
M  V30 23708 H 2252.53 4.56679 6.0774 0
M  V30 23709 N 2254.1 -1.54444 0.313841 0
M  V30 23710 C 2255.07 -2.22657 -0.543751 0
M  V30 23711 C 2256.07 -1.2168 -1.05122 0
M  V30 23712 O 2257.26 -1.46327 -0.945199 0
M  V30 23713 C 2254.39 -2.92301 -1.75422 0
M  V30 23714 H 2255.58 -2.99854 0.0524126 0
M  V30 23715 H 2253.13 -1.56166 0.0648109 0
M  V30 23716 H 2253.87 -2.19216 -2.38987 0
M  V30 23717 H 2253.65 -3.66337 -1.39785 0
M  V30 23718 H 2255.14 -3.44301 -2.36319 0
M  V30 23719 N 2255.58 -0.0418125 -1.57545 0
M  V30 23720 C 2256.54 0.920893 -2.09886 0
M  V30 23721 C 2257.54 1.24595 -1.0165 0
M  V30 23722 O 2258.73 1.18418 -1.27761 0
M  V30 23723 C 2255.87 2.23363 -2.57531 0
M  V30 23724 H 2257.06 0.467329 -2.96236 0
M  V30 23725 H 2254.61 0.20644 -1.54931 0
M  V30 23726 H 2255.35 2.7332 -1.74547 0
M  V30 23727 H 2255.13 2.01077 -3.36616 0
M  V30 23728 H 2256.62 2.9234 -2.98206 0
M  V30 23729 N 2257.06 1.55891 0.231477 0
M  V30 23730 C 2258.3 1.78707 0.958738 0
M  V30 23731 C 2258.64 0.609757 1.84379 0
M  V30 23732 O 2257.91 -0.391392 1.90521 0
M  V30 23733 C 2258.2 3.11529 1.80614 0
M  V30 23734 C 2258.05 4.39691 0.948251 0
M  V30 23735 C 2259.37 3.40708 2.78579 0
M  V30 23736 H 2256.49 0.650137 0.347118 0
M  V30 23737 H 2259.13 1.88624 0.228226 0
M  V30 23738 H 2257.28 3.03205 2.42897 0
M  V30 23739 H 2258.95 4.60024 0.342936 0
M  V30 23740 H 2257.19 4.3306 0.253237 0
M  V30 23741 H 2257.86 5.29044 1.57533 0
M  V30 23742 H 2260.34 3.49095 2.26433 0
M  V30 23743 H 2259.22 4.34832 3.34981 0
M  V30 23744 H 2259.48 2.62381 3.55821 0
M  V30 23745 N 2258.54 -0.497781 1.49532 0
M  V30 23746 C 2259.5 -1.58125 1.65919 0
M  V30 23747 C 2260.5 -1.51785 0.530851 0
M  V30 23748 O 2261.69 -1.54879 0.79737 0
M  V30 23749 C 2258.82 -2.97777 1.65956 0
M  V30 23750 H 2260.01 -1.44924 2.62559 0
M  V30 23751 H 2257.57 -0.722251 1.38612 0
M  V30 23752 H 2258.3 -3.16452 0.70912 0
M  V30 23753 H 2258.09 -3.03788 2.47902 0
M  V30 23754 H 2259.58 -3.7649 1.80679 0
M  V30 23755 N 2260.01 -1.38661 -0.749062 0
M  V30 23756 C 2261.26 -1.3485 -1.50532 0
M  V30 23757 C 2261.58 0.0594673 -1.94909 0
M  V30 23758 O 2260.85 1.00803 -1.67975 0
M  V30 23759 H 2259.43 -0.4962 -0.558386 0
M  V30 23760 H 2262.1 -1.73386 -0.890134 0
M  V30 23761 H 2261.19 -2.00223 -2.3941 0
M  V30 23762 N 2261.49 0.977736 -1.23605 0
M  V30 23763 C 2262.74 1.72193 -1.07132 0
M  V30 23764 C 2263.07 1.90234 0.390467 0
M  V30 23765 O 2262.35 1.45655 1.28899 0
M  V30 23766 C 2262.63 3.11864 -1.80037 0
M  V30 23767 C 2262.48 3.01377 -3.33904 0
M  V30 23768 C 2263.8 4.11334 -1.56499 0
M  V30 23769 H 2260.92 0.624992 -0.390582 0
M  V30 23770 H 2263.56 1.13808 -1.52144 0
M  V30 23771 H 2261.71 3.61707 -1.41775 0
M  V30 23772 H 2263.39 2.59036 -3.81704 0
M  V30 23773 H 2261.63 2.3782 -3.628 0
M  V30 23774 H 2262.3 4.00278 -3.80107 0
M  V30 23775 H 2264.78 3.70309 -1.89764 0
M  V30 23776 H 2263.65 5.07148 -2.09982 0
M  V30 23777 H 2263.91 4.39253 -0.500951 0
M  V30 23778 N 2262.97 1.04818 1.1769 0
M  V30 23779 C 2264.22 0.757143 1.88136 0
M  V30 23780 C 2264.55 -0.713809 1.80606 0
M  V30 23781 O 2263.83 -1.52162 1.21149 0
M  V30 23782 C 2264.11 1.23346 3.38316 0
M  V30 23783 C 2263.96 2.76707 3.54617 0
M  V30 23784 C 2265.28 0.829491 4.32212 0
M  V30 23785 H 2262.4 0.276522 0.683158 0
M  V30 23786 H 2265.04 1.30151 1.38422 0
M  V30 23787 H 2263.19 0.770352 3.80786 0
M  V30 23788 H 2264.86 3.31113 3.21188 0
M  V30 23789 H 2263.11 3.16167 2.9702 0
M  V30 23790 H 2263.78 3.05096 4.60022 0
M  V30 23791 H 2266.25 1.22812 3.97563 0
M  V30 23792 H 2265.13 1.19043 5.35836 0
M  V30 23793 H 2265.39 -0.266814 4.41294 0
M  V30 23794 N 2264.45 -1.34055 0.828678 0
M  V30 23795 C 2265.68 -2.02032 0.432028 0
M  V30 23796 C 2266.09 -1.62537 -0.968412 0
M  V30 23797 O 2265.43 -0.829436 -1.63909 0
M  V30 23798 C 2265.49 -3.56528 0.461287 0
M  V30 23799 C 2265.16 -4.19366 1.81606 0
M  V30 23800 C 2266.15 -4.39472 2.77778 0
M  V30 23801 C 2263.84 -4.56013 2.10612 0
M  V30 23802 C 2265.83 -4.95357 4.01124 0
M  V30 23803 C 2263.52 -5.11608 3.34216 0
M  V30 23804 C 2264.52 -5.31225 4.29289 0
M  V30 23805 O 2264.21 -5.8564 5.50709 0
M  V30 23806 H 2263.94 -0.654026 0.170955 0
M  V30 23807 H 2266.49 -1.72184 1.11991 0
M  V30 23808 H 2264.72 -3.85661 -0.28332 0
M  V30 23809 H 2266.41 -4.05813 0.0838863 0
M  V30 23810 H 2267.18 -4.11518 2.56666 0
M  V30 23811 H 2263.06 -4.40045 1.37409 0
M  V30 23812 H 2266.6 -5.10584 4.75342 0
M  V30 23813 H 2262.5 -5.38991 3.55189 0
M  V30 23814 H 2263.26 -6.04068 5.52308 0
M  V30 23815 N 2265.93 -0.584167 -1.46374 0
M  V30 23816 C 2267.17 -0.0704072 -2.02678 0
M  V30 23817 C 2267.51 1.28676 -1.45452 0
M  V30 23818 O 2266.78 1.84348 -0.620172 0
M  V30 23819 C 2267.06 -0.00621004 -3.60099 0
M  V30 23820 C 2266.92 -1.39238 -4.27707 0
M  V30 23821 C 2268.24 0.693666 -4.34599 0
M  V30 23822 H 2265.36 -0.0270599 -0.736503 0
M  V30 23823 H 2268 -0.751646 -1.745 0
M  V30 23824 H 2266.15 0.573942 -3.84237 0
M  V30 23825 H 2267.82 -2.01781 -4.14828 0
M  V30 23826 H 2266.06 -1.95969 -3.87013 0
M  V30 23827 H 2266.73 -1.29991 -5.36476 0
M  V30 23828 H 2269.21 0.200796 -4.15615 0
M  V30 23829 H 2268.09 0.707618 -5.4432 0
M  V30 23830 H 2268.35 1.75526 -4.05762 0
M  V30 23831 N 2267.41 1.54275 -0.322027 0
M  V30 23832 C 2268.34 2.20517 0.587141 0
M  V30 23833 C 2269.32 1.18169 1.1169 0
M  V30 23834 O 2270.5 1.46901 1.18119 0
M  V30 23835 C 2267.63 2.86565 1.80549 0
M  V30 23836 C 2266.67 4.0262 1.40711 0
M  V30 23837 S 2267.51 5.33647 0.445124 0
M  V30 23838 C 2268.66 6.03188 1.67079 0
M  V30 23839 H 2268.9 2.9729 0.0244352 0
M  V30 23840 H 2266.43 1.54035 -0.106114 0
M  V30 23841 H 2268.39 3.25241 2.50457 0
M  V30 23842 H 2267.05 2.09599 2.33938 0
M  V30 23843 H 2266.24 4.47691 2.31493 0
M  V30 23844 H 2265.84 3.6561 0.787755 0
M  V30 23845 H 2268.13 6.25273 2.60845 0
M  V30 23846 H 2269.08 6.96758 1.26227 0
M  V30 23847 H 2269.49 5.33079 1.85707 0
M  V30 23848 N 2268.88 0.0501669 1.5752 0
M  V30 23849 C 2270.11 -0.632539 1.96679 0
M  V30 23850 C 2270.52 -1.64972 0.926327 0
M  V30 23851 O 2269.86 -1.83438 -0.0979877 0
M  V30 23852 C 2269.93 -1.37729 3.32071 0
M  V30 23853 C 2269.59 -0.516051 4.54077 0
M  V30 23854 C 2270.59 0.217448 5.19445 0
M  V30 23855 C 2268.27 -0.447272 5.00305 0
M  V30 23856 C 2270.27 1.00818 6.29376 0
M  V30 23857 C 2267.95 0.347145 6.10113 0
M  V30 23858 C 2268.95 1.07356 6.7451 0
M  V30 23859 O 2268.64 1.85491 7.82207 0
M  V30 23860 H 2268.37 -0.177809 0.652196 0
M  V30 23861 H 2270.93 0.112579 2.05091 0
M  V30 23862 H 2269.16 -2.16801 3.2021 0
M  V30 23863 H 2270.84 -1.95013 3.55984 0
M  V30 23864 H 2271.61 0.173773 4.84689 0
M  V30 23865 H 2267.49 -1.00227 4.49973 0
M  V30 23866 H 2271.03 1.57568 6.79572 0
M  V30 23867 H 2266.93 0.392462 6.44306 0
M  V30 23868 H 2267.7 1.77692 7.98979 0
M  V30 23869 N 2270.36 -1.56011 -0.223207 0
M  V30 23870 C 2271.31 -1.9228 -1.2766 0
M  V30 23871 C 2272.28 -0.779789 -1.46658 0
M  V30 23872 O 2273.46 -1.03554 -1.60254 0
M  V30 23873 C 2270.6 -2.24343 -2.6223 0
M  V30 23874 C 2269.72 -3.51569 -2.51045 0
M  V30 23875 C 2268.85 -3.73087 -3.78126 0
M  V30 23876 C 2267.89 -4.93833 -3.61657 0
M  V30 23877 N 2267.03 -5.11749 -4.80684 0
M  V30 23878 H 2271.87 -2.82103 -0.960308 0
M  V30 23879 H 2269.4 -1.39628 -0.462876 0
M  V30 23880 H 2271.36 -2.40942 -3.40592 0
M  V30 23881 H 2269.99 -1.37695 -2.91959 0
M  V30 23882 H 2269.04 -3.43172 -1.64126 0
M  V30 23883 H 2270.36 -4.40083 -2.34795 0
M  V30 23884 H 2269.51 -3.89774 -4.64931 0
M  V30 23885 H 2268.25 -2.82851 -3.97299 0
M  V30 23886 H 2267.25 -4.77098 -2.73236 0
M  V30 23887 H 2268.48 -5.85552 -3.43956 0
M  V30 23888 H 2266.43 -4.24455 -5.00174 0
M  V30 23889 H 2266.34 -5.94393 -4.67155 0
M  V30 23890 H 2267.61 -5.3287 -5.6892 0
M  V30 23891 N 2271.84 0.489844 -1.49794 0
M  V30 23892 C 2272.77 1.59853 -1.70203 0
M  V30 23893 C 2273.75 1.60936 -0.550789 0
M  V30 23894 O 2274.94 1.775 -0.787872 0
M  V30 23895 C 2272.07 2.98284 -1.77888 0
M  V30 23896 C 2271.02 3.12068 -2.92912 0
M  V30 23897 C 2270.35 4.5196 -2.8572 0
M  V30 23898 C 2271.65 2.91043 -4.33695 0
M  V30 23899 H 2273.34 1.43027 -2.63028 0
M  V30 23900 H 2270.89 0.686642 -1.26575 0
M  V30 23901 H 2272.84 3.75755 -1.90751 0
M  V30 23902 H 2271.56 3.16224 -0.816708 0
M  V30 23903 H 2270.22 2.37024 -2.79669 0
M  V30 23904 H 2269.87 4.66792 -1.87388 0
M  V30 23905 H 2269.57 4.62122 -3.62929 0
M  V30 23906 H 2271.09 5.31477 -3.00607 0
M  V30 23907 H 2272.51 3.58276 -4.47561 0
M  V30 23908 H 2270.9 3.12666 -5.12211 0
M  V30 23909 H 2271.97 1.87063 -4.47365 0
M  V30 23910 N 2273.32 1.39056 0.741698 0
M  V30 23911 C 2274.56 1.35914 1.50112 0
M  V30 23912 C 2274.89 -0.0470596 1.94443 0
M  V30 23913 O 2274.15 -1.02656 1.66614 0
M  V30 23914 C 2274.45 2.27168 2.75916 0
M  V30 23915 C 2274.11 3.74923 2.50486 0
M  V30 23916 C 2272.77 4.15184 2.4326 0
M  V30 23917 C 2275.13 4.68404 2.28577 0
M  V30 23918 C 2272.45 5.46998 2.12156 0
M  V30 23919 C 2274.81 6.00488 1.98991 0
M  V30 23920 C 2273.47 6.3982 1.90229 0
M  V30 23921 H 2272.74 0.497346 0.549298 0
M  V30 23922 H 2275.39 1.71509 0.851866 0
M  V30 23923 H 2273.69 1.84669 3.4555 0
M  V30 23924 H 2275.39 2.22034 3.33919 0
M  V30 23925 H 2271.98 3.4301 2.56986 0
M  V30 23926 H 2276.16 4.38137 2.33131 0
M  V30 23927 H 2271.42 5.76401 2.0389 0
M  V30 23928 H 2275.59 6.72455 1.81045 0
M  V30 23929 H 2273.22 7.41878 1.65894 0
M  V30 23930 N 2274.8 -0.971167 1.24121 0
M  V30 23931 C 2275.76 -2.04673 1.03159 0
M  V30 23932 C 2276.76 -1.60797 -0.00987496 0
M  V30 23933 O 2277.95 -1.72665 0.23076 0
M  V30 23934 C 2275.08 -3.36222 0.562824 0
M  V30 23935 H 2276.27 -2.24702 1.98618 0
M  V30 23936 H 2273.83 -1.14591 1.06295 0
M  V30 23937 H 2274.56 -3.21884 -0.39512 0
M  V30 23938 H 2274.35 -3.6941 1.31447 0
M  V30 23939 H 2275.84 -4.15306 0.437088 0
M  V30 23940 N 2276.27 -1.05441 -1.17133 0
M  V30 23941 C 2277.52 -0.764462 -1.87084 0
M  V30 23942 C 2277.84 0.710755 -1.81585 0
M  V30 23943 O 2277.11 1.51372 -1.24352 0
M  V30 23944 H 2275.69 -0.279791 -0.692622 0
M  V30 23945 H 2278.36 -1.33409 -1.42085 0
M  V30 23946 H 2277.45 -1.08165 -2.92757 0
M  V30 23947 N 2277.75 1.33613 -0.835776 0
M  V30 23948 C 2278.7 2.26745 -0.238896 0
M  V30 23949 C 2279.69 1.4912 0.604317 0
M  V30 23950 O 2280.88 1.71004 0.456792 0
M  V30 23951 C 2278.01 3.38233 0.587665 0
M  V30 23952 C 2277.09 4.23259 -0.266886 0
M  V30 23953 N 2277.48 4.87614 -1.34411 0
M  V30 23954 C 2275.78 4.45968 -0.0533915 0
M  V30 23955 C 2276.48 5.50881 -1.86828 0
M  V30 23956 N 2275.46 5.30855 -1.17022 0
M  V30 23957 H 2279.26 2.74014 -1.06271 0
M  V30 23958 H 2276.78 1.47482 -0.679907 0
M  V30 23959 H 2278.77 4.03937 1.03154 0
M  V30 23960 H 2277.43 2.92512 1.40949 0
M  V30 23961 H 2278.44 4.88258 -1.72699 0
M  V30 23962 H 2275.12 4.10975 0.73524 0
M  V30 23963 H 2276.51 6.12135 -2.77021 0
M  V30 23964 N 2279.23 0.591922 1.46062 0
M  V30 23965 C 2280.16 -0.173961 2.28539 0
M  V30 23966 C 2281.18 -0.846729 1.39048 0
M  V30 23967 O 2282.36 -0.714745 1.63565 0
M  V30 23968 C 2279.46 -1.2664 3.14349 0
M  V30 23969 C 2278.64 -0.68378 4.32022 0
M  V30 23970 C 2277.7 -1.6651 4.9916 0
M  V30 23971 O 2276.72 -1.19753 5.5646 0
M  V30 23972 N 2277.92 -2.99934 4.97011 0
M  V30 23973 H 2280.69 0.533685 2.9491 0
M  V30 23974 H 2278.25 0.430321 1.56076 0
M  V30 23975 H 2280.24 -1.92235 3.56129 0
M  V30 23976 H 2278.81 -1.87678 2.49992 0
M  V30 23977 H 2278.03 0.149869 3.93915 0
M  V30 23978 H 2279.32 -0.274477 5.08059 0
M  V30 23979 H 2278.72 -3.40537 4.5172 0
M  V30 23980 H 2277.28 -3.60995 5.42703 0
M  V30 23981 N 2280.71 -1.54102 0.330204 0
M  V30 23982 C 2281.96 -2.00291 -0.269836 0
M  V30 23983 C 2282.28 -1.21989 -1.52131 0
M  V30 23984 O 2281.55 -0.323472 -1.93211 0
M  V30 23985 H 2280.13 -0.739907 -0.102697 0
M  V30 23986 H 2282.79 -1.89675 0.448282 0
M  V30 23987 H 2281.89 -3.0771 -0.521606 0
M  V30 23988 N 2282.19 -0.0585199 -1.57491 0
M  V30 23989 C 2283.15 0.89858 -2.10851 0
M  V30 23990 C 2284.15 1.2351 -1.02966 0
M  V30 23991 O 2285.34 1.17056 -1.29009 0
M  V30 23992 C 2282.47 2.20618 -2.59885 0
M  V30 23993 H 2283.66 0.435883 -2.96715 0
M  V30 23994 H 2281.22 0.189995 -1.55141 0
M  V30 23995 H 2281.95 2.71454 -1.77436 0
M  V30 23996 H 2281.74 1.97495 -3.3873 0
M  V30 23997 H 2283.23 2.89161 -3.0129 0
M  V30 23998 N 2283.66 1.56128 0.21493 0
M  V30 23999 C 2284.89 1.83272 0.953675 0
M  V30 24000 C 2285.3 0.636294 1.7818 0
M  V30 24001 O 2284.65 -0.404485 1.79192 0
M  V30 24002 C 2284.71 3.04243 1.9151 0
M  V30 24003 C 2284.37 4.38974 1.27086 0
M  V30 24004 C 2285.37 5.15726 0.657485 0
M  V30 24005 C 2283.05 4.857 1.28065 0
M  V30 24006 C 2285.05 6.37369 0.0624847 0
M  V30 24007 C 2282.73 6.07285 0.681807 0
M  V30 24008 C 2283.73 6.8296 0.0737846 0
M  V30 24009 O 2283.42 8.02244 -0.515724 0
M  V30 24010 H 2283.15 0.6131 0.284753 0
M  V30 24011 H 2285.71 2.04071 0.233248 0
M  V30 24012 H 2283.94 2.79279 2.6747 0
M  V30 24013 H 2285.63 3.18203 2.51996 0
M  V30 24014 H 2286.39 4.80729 0.642204 0
M  V30 24015 H 2282.27 4.26767 1.7433 0
M  V30 24016 H 2285.81 6.96378 -0.412716 0
M  V30 24017 H 2281.71 6.41753 0.694523 0
M  V30 24018 H 2282.48 8.17469 -0.410688 0
M  V30 24019 N 2285.14 -0.481893 1.50052 0
M  V30 24020 C 2286.37 -1.25829 1.64239 0
M  V30 24021 C 2286.79 -1.86045 0.321369 0
M  V30 24022 O 2286.14 -1.6873 -0.695448 0
M  V30 24023 C 2286.19 -2.37482 2.72552 0
M  V30 24024 O 2285.91 -1.79738 3.99532 0
M  V30 24025 C 2287.42 -3.28541 2.97616 0
M  V30 24026 H 2284.64 -0.380947 0.552377 0
M  V30 24027 H 2287.18 -0.576433 1.96208 0
M  V30 24028 H 2285.33 -3.01463 2.43308 0
M  V30 24029 H 2285.75 -2.53182 4.59347 0
M  V30 24030 H 2287.22 -4.0312 3.77092 0
M  V30 24031 H 2287.7 -3.8668 2.08266 0
M  V30 24032 H 2288.31 -2.70308 3.2835 0
M  V30 24033 N 2286.62 -1.39448 -0.734313 0
M  V30 24034 C 2287.87 -1.36439 -1.49094 0
M  V30 24035 C 2288.19 0.0387912 -1.94961 0
M  V30 24036 O 2287.46 0.990161 -1.69034 0
M  V30 24037 H 2286.04 -0.502094 -0.553092 0
M  V30 24038 H 2288.7 -1.7432 -0.871694 0
M  V30 24039 H 2287.8 -2.02751 -2.37273 0
M  V30 24040 N 2288.1 0.964571 -1.24635 0
M  V30 24041 C 2289.03 2.07739 -1.06614 0
M  V30 24042 C 2290.01 1.70086 0.0218367 0
M  V30 24043 O 2291.19 1.93652 -0.145827 0
M  V30 24044 C 2288.32 3.40707 -0.673503 0
M  V30 24045 C 2287.28 3.92329 -1.71061 0
M  V30 24046 C 2286.6 5.21676 -1.17294 0
M  V30 24047 C 2287.9 4.19818 -3.10725 0
M  V30 24048 H 2289.6 2.23073 -1.99697 0
M  V30 24049 H 2287.14 1.07193 -0.961539 0
M  V30 24050 H 2289.1 4.17998 -0.534418 0
M  V30 24051 H 2287.82 3.25283 0.293016 0
M  V30 24052 H 2286.48 3.17198 -1.83796 0
M  V30 24053 H 2286.13 5.02614 -0.196935 0
M  V30 24054 H 2285.83 5.57183 -1.86602 0
M  V30 24055 H 2287.35 6.01573 -1.04604 0
M  V30 24056 H 2288.77 4.87802 -3.01201 0
M  V30 24057 H 2287.16 4.6656 -3.77414 0
M  V30 24058 H 2288.23 3.26473 -3.5853 0
M  V30 24059 N 2289.58 1.0606 1.16572 0
M  V30 24060 C 2290.99 0.800661 1.6866 0
M  V30 24061 C 2291.34 -0.676048 1.84185 0
M  V30 24062 O 2290.46 -1.52464 1.5357 0
M  V30 24063 C 2291.06 1.44682 3.06354 0
M  V30 24064 C 2289.62 1.23471 3.55573 0
M  V30 24065 C 2288.76 1.52481 2.31613 0
M  V30 24066 H 2291.72 1.22439 1.00967 0
M  V30 24067 H 2291.74 0.860853 3.70634 0
M  V30 24068 H 2291.25 2.52157 2.95023 0
M  V30 24069 H 2289.35 0.179592 3.72167 0
M  V30 24070 H 2289.46 1.94578 4.37808 0
M  V30 24071 H 2287.83 0.945251 2.3651 0
M  V30 24072 H 2288.61 2.6111 2.22882 0
M  V30 24073 N 2291.06 -1.33168 0.84285 0
M  V30 24074 C 2292 -2.31056 0.267536 0
M  V30 24075 C 2293 -1.58318 -0.602654 0
M  V30 24076 O 2294.2 -1.73152 -0.491773 0
M  V30 24077 H 2290.58 -0.748938 0.0677944 0
M  V30 24078 H 2292.55 -2.77083 1.10759 0
M  V30 24079 C 2291.3 -3.43493 -0.539271 0
M  V30 24080 H 2290.62 -3.99617 0.12102 0
M  V30 24081 H 2292.06 -4.14172 -0.907597 0
M  V30 24082 C 2290.52 -2.897 -1.71976 0
M  V30 24083 O 2291.05 -2.86216 -2.81857 0
M  V30 24084 N 2289.26 -2.46255 -1.54295 0
M  V30 24085 H 2288.8 -2.49288 -0.649099 0
M  V30 24086 H 2288.76 -2.10616 -2.33427 0
M  V30 24087 N 2292.53 -0.599659 -1.45746 0
M  V30 24088 C 2293.48 0.123808 -2.30468 0
M  V30 24089 C 2294.45 0.867715 -1.41633 0
M  V30 24090 O 2295.64 0.855026 -1.70569 0
M  V30 24091 C 2292.78 1.12046 -3.26404 0
M  V30 24092 C 2291.89 0.378245 -4.30341 0
M  V30 24093 C 2291.02 1.36391 -5.13392 0
M  V30 24094 C 2290.06 0.609064 -6.09062 0
M  V30 24095 N 2289.2 1.54362 -6.84921 0
M  V30 24096 H 2294.04 -0.604678 -2.91801 0
M  V30 24097 H 2291.58 -0.309997 -1.43796 0
M  V30 24098 H 2293.53 1.71134 -3.80485 0
M  V30 24099 H 2292.16 1.81645 -2.66842 0
M  V30 24100 H 2291.22 -0.327996 -3.78983 0
M  V30 24101 H 2292.53 -0.211084 -4.98353 0
M  V30 24102 H 2291.68 2.02709 -5.71834 0
M  V30 24103 H 2290.42 1.98717 -4.45379 0
M  V30 24104 H 2289.43 -0.0677945 -5.49758 0
M  V30 24105 H 2290.65 -0.00903928 -6.79099 0
M  V30 24106 H 2288.6 2.15467 -6.19605 0
M  V30 24107 H 2288.51 1.00753 -7.49256 0
M  V30 24108 H 2289.78 2.19663 -7.47909 0
M  V30 24109 N 2294.01 1.53925 -0.338371 0
M  V30 24110 C 2294.96 2.24847 0.520806 0
M  V30 24111 C 2295.93 1.24478 1.09974 0
M  V30 24112 O 2297.11 1.53198 1.13732 0
M  V30 24113 C 2294.25 3.02087 1.66845 0
M  V30 24114 C 2293.37 4.17301 1.11732 0
M  V30 24115 C 2292.5 4.82039 2.23185 0
M  V30 24116 C 2291.54 5.89331 1.65396 0
M  V30 24117 N 2290.68 6.4787 2.70571 0
M  V30 24118 H 2295.52 2.97862 -0.0905405 0
M  V30 24119 H 2293.05 1.46992 -0.056454 0
M  V30 24120 H 2295.01 3.45126 2.34401 0
M  V30 24121 H 2293.64 2.31379 2.25086 0
M  V30 24122 H 2292.69 3.78941 0.332852 0
M  V30 24123 H 2294.01 4.94486 0.65459 0
M  V30 24124 H 2293.16 5.28122 2.98616 0
M  V30 24125 H 2291.9 4.04267 2.728 0
M  V30 24126 H 2290.9 5.42636 0.884683 0
M  V30 24127 H 2292.13 6.69008 1.1664 0
M  V30 24128 H 2290.08 5.72964 3.1945 0
M  V30 24129 H 2289.99 7.20513 2.28905 0
M  V30 24130 H 2291.26 6.98607 3.45787 0
M  V30 24131 N 2295.49 0.0668712 1.57458 0
M  V30 24132 C 2296.9 -0.466526 1.80777 0
M  V30 24133 C 2297.25 -1.69949 0.98039 0
M  V30 24134 O 2296.38 -2.1546 0.201479 0
M  V30 24135 C 2296.97 -0.853153 3.27882 0
M  V30 24136 C 2295.53 -1.33144 3.52065 0
M  V30 24137 C 2294.68 -0.314215 2.75514 0
M  V30 24138 H 2297.63 0.292615 1.55979 0
M  V30 24139 H 2297.65 -1.71494 3.39662 0
M  V30 24140 H 2297.16 0.0444121 3.88075 0
M  V30 24141 H 2295.26 -2.24767 2.97171 0
M  V30 24142 H 2295.38 -1.31276 4.60764 0
M  V30 24143 H 2293.74 -0.79045 2.42124 0
M  V30 24144 H 2294.52 0.575537 3.38441 0
M  V30 24145 N 2296.97 -1.56239 -0.206647 0
M  V30 24146 C 2297.92 -1.94497 -1.27568 0
M  V30 24147 C 2298.91 -0.828888 -1.47736 0
M  V30 24148 O 2300.12 -1.01382 -1.48733 0
M  V30 24149 H 2296.49 -0.618308 -0.428018 0
M  V30 24150 H 2298.46 -2.83671 -0.925911 0
M  V30 24151 C 2297.21 -2.29084 -2.61564 0
M  V30 24152 H 2296.53 -3.14486 -2.46858 0
M  V30 24153 H 2297.97 -2.59726 -3.3514 0
M  V30 24154 C 2296.43 -1.12128 -3.17693 0
M  V30 24155 O 2296.96 -0.390223 -3.998 0
M  V30 24156 N 2295.17 -0.901146 -2.76275 0
M  V30 24157 H 2294.72 -1.49737 -2.09611 0
M  V30 24158 H 2294.67 -0.120374 -3.14169 0
M  V30 24159 N 2298.45 0.473929 -1.50305 0
M  V30 24160 C 2299.69 1.22803 -1.61391 0
M  V30 24161 C 2300.02 1.91678 -0.311989 0
M  V30 24162 O 2299.3 1.81988 0.686352 0
M  V30 24163 C 2299.58 2.27391 -2.79223 0
M  V30 24164 C 2299.44 1.62841 -4.19289 0
M  V30 24165 C 2300.75 3.28727 -2.9262 0
M  V30 24166 H 2297.87 0.445109 -0.587407 0
M  V30 24167 H 2300.52 0.522233 -1.82682 0
M  V30 24168 H 2298.67 2.87588 -2.612 0
M  V30 24169 H 2300.34 1.06263 -4.48894 0
M  V30 24170 H 2298.58 0.931618 -4.23678 0
M  V30 24171 H 2299.25 2.3883 -4.97659 0
M  V30 24172 H 2301.73 2.78551 -3.0911 0
M  V30 24173 H 2300.6 3.99239 -3.76695 0
M  V30 24174 H 2300.86 3.9268 -2.03114 0
M  V30 24175 N 2299.92 1.39835 0.726907 0
M  V30 24176 C 2301.33 1.33462 1.30555 0
M  V30 24177 C 2301.69 0.00276451 1.962 0
M  V30 24178 O 2300.81 -0.899336 1.96827 0
M  V30 24179 C 2301.41 2.41717 2.37399 0
M  V30 24180 C 2299.96 2.3884 2.90917 0
M  V30 24181 C 2299.11 2.23183 1.64575 0
M  V30 24182 H 2302.06 1.49805 0.523835 0
M  V30 24183 H 2302.08 2.08971 3.1798 0
M  V30 24184 H 2301.6 3.38639 1.89593 0
M  V30 24185 H 2299.7 1.45581 3.42983 0
M  V30 24186 H 2299.81 3.34003 3.43481 0
M  V30 24187 H 2298.17 1.70498 1.89216 0
M  V30 24188 H 2298.96 3.22086 1.18808 0
M  V30 24189 N 2301.4 -0.957948 1.25144 0
M  V30 24190 C 2302.63 -1.73689 1.12427 0
M  V30 24191 C 2303.04 -1.86029 -0.322272 0
M  V30 24192 O 2302.4 -1.35563 -1.22184 0
M  V30 24193 C 2302.45 -3.15238 1.76938 0
M  V30 24194 O 2302.17 -3.03505 3.15937 0
M  V30 24195 C 2303.67 -4.09426 1.69957 0
M  V30 24196 H 2300.89 -0.544366 0.392309 0
M  V30 24197 H 2303.44 -1.20204 1.65442 0
M  V30 24198 H 2301.59 -3.65678 1.27901 0
M  V30 24199 H 2302.01 -3.92774 3.47605 0
M  V30 24200 H 2303.48 -5.06368 2.19762 0
M  V30 24201 H 2303.96 -4.34172 0.662695 0
M  V30 24202 H 2304.56 -3.649 2.18467 0
M  V30 24203 N 2302.88 -1.06677 -1.16008 0
M  V30 24204 C 2304.13 -0.78085 -1.85972 0
M  V30 24205 C 2304.44 0.695412 -1.82821 0
M  V30 24206 O 2305.65 1.09585 -2.48402 0
M  V30 24207 C 2304.1 -1.3467 -3.33754 0
M  V30 24208 C 2303.71 -2.85349 -3.45369 0
M  V30 24209 C 2305.46 -1.1385 -4.08948 0
M  V30 24210 C 2303.36 -3.35159 -4.8726 0
M  V30 24211 H 2302.29 -0.28842 -0.696656 0
M  V30 24212 H 2304.94 -1.28597 -1.30901 0
M  V30 24213 H 2303.33 -0.769342 -3.88455 0
M  V30 24214 H 2304.5 -3.4907 -3.0081 0
M  V30 24215 H 2302.81 -3.04881 -2.83613 0
M  V30 24216 H 2305.41 -1.48549 -5.13651 0
M  V30 24217 H 2305.75 -0.0771014 -4.16229 0
M  V30 24218 H 2306.29 -1.68186 -3.60497 0
M  V30 24219 H 2303.03 -4.40795 -4.8516 0
M  V30 24220 H 2302.55 -2.76188 -5.32428 0
M  V30 24221 H 2304.23 -3.30714 -5.56091 0
M  V30 24222 N 2304.36 1.32719 -0.8499 0
M  V30 24223 C 2305.77 1.50218 -0.539128 0
M  V30 24224 C 2305.97 1.7869 0.931239 0
M  V30 24225 O 2305.03 1.85366 1.71452 0
M  V30 24226 C 2306.34 2.64952 -1.42201 0
M  V30 24227 C 2307.89 2.78837 -1.42194 0
M  V30 24228 C 2308.37 3.96644 -2.28992 0
M  V30 24229 N 2309.86 4.03898 -2.26761 0
M  V30 24230 C 2310.59 4.94276 -2.90653 0
M  V30 24231 N 2310.09 5.89693 -3.63639 0
M  V30 24232 N 2311.88 4.8736 -2.80066 0
M  V30 24233 H 2304.03 1.12503 -1.80158 0
M  V30 24234 H 2306.29 0.554071 -0.769226 0
M  V30 24235 H 2306 2.50627 -2.46737 0
M  V30 24236 H 2305.87 3.60622 -1.10597 0
M  V30 24237 H 2308.26 2.92588 -0.384242 0
M  V30 24238 H 2308.34 1.83895 -1.7781 0
M  V30 24239 H 2307.99 3.83652 -3.32826 0
M  V30 24240 H 2307.92 4.90853 -1.9071 0
M  V30 24241 H 2310.41 3.35617 -1.73694 0
M  V30 24242 H 2310.72 6.55342 -4.09569 0
M  V30 24243 H 2309.07 5.89735 -3.67747 0
M  V30 24244 H 2312.26 4.11785 -2.226 0
M  V30 24245 H 2312.43 5.57593 -3.30142 0
M  V30 24246 N 2305.84 0.60738 1.45426 0
M  V30 24247 C 2307.06 0.10885 2.06613 0
M  V30 24248 C 2307.48 -1.20668 1.45206 0
M  V30 24249 O 2306.84 -1.73496 0.566162 0
M  V30 24250 C 2306.89 -0.0374712 3.61481 0
M  V30 24251 O 2306.61 1.22601 4.20596 0
M  V30 24252 C 2308.11 -0.567484 4.39653 0
M  V30 24253 H 2305.33 0.0687468 0.667469 0
M  V30 24254 H 2307.87 0.835054 1.86674 0
M  V30 24255 H 2306.03 -0.714001 3.80763 0
M  V30 24256 H 2306.44 1.05556 5.13769 0
M  V30 24257 H 2307.92 -0.618954 5.48519 0
M  V30 24258 H 2308.39 -1.58971 4.0942 0
M  V30 24259 H 2309 0.0749949 4.25234 0
M  V30 24260 N 2307.31 -1.53743 0.34653 0
M  V30 24261 C 2308.28 -2.2376 -0.4964 0
M  V30 24262 C 2309.28 -1.23882 -1.02517 0
M  V30 24263 O 2310.47 -1.48299 -0.913948 0
M  V30 24264 C 2307.6 -2.95956 -1.69182 0
M  V30 24265 H 2308.79 -2.99676 0.116004 0
M  V30 24266 H 2306.35 -1.55993 0.0979213 0
M  V30 24267 H 2307.08 -2.24236 -2.34284 0
M  V30 24268 H 2306.87 -3.69219 -1.31983 0
M  V30 24269 H 2308.36 -3.49236 -2.28963 0
M  V30 24270 N 2308.79 -0.0752207 -1.5742 0
M  V30 24271 C 2309.74 0.890806 -2.12916 0
M  V30 24272 C 2310.71 1.29307 -1.04254 0
M  V30 24273 O 2311.89 1.37832 -1.31935 0
M  V30 24274 C 2309.03 2.15181 -2.69798 0
M  V30 24275 C 2308.15 1.80188 -3.92628 0
M  V30 24276 C 2307.28 3.00925 -4.37741 0
M  V30 24277 C 2306.32 2.61965 -5.5321 0
M  V30 24278 N 2305.46 3.75472 -5.93266 0
M  V30 24279 H 2310.3 0.410683 -2.95157 0
M  V30 24280 H 2307.84 0.191061 -1.45854 0
M  V30 24281 H 2309.79 2.89003 -3.00888 0
M  V30 24282 H 2308.42 2.60728 -1.90318 0
M  V30 24283 H 2307.48 0.964153 -3.67979 0
M  V30 24284 H 2308.79 1.47526 -4.76485 0
M  V30 24285 H 2307.94 3.83021 -4.7051 0
M  V30 24286 H 2306.68 3.36783 -3.52745 0
M  V30 24287 H 2305.69 1.7829 -5.20089 0
M  V30 24288 H 2306.91 2.27273 -6.3994 0
M  V30 24289 H 2304.86 4.11085 -5.11219 0
M  V30 24290 H 2304.77 3.4659 -6.71872 0
M  V30 24291 H 2306.04 4.58137 -6.30659 0
M  V30 24292 N 2310.27 1.56347 0.198358 0
M  V30 24293 C 2311.52 1.807 0.920616 0
M  V30 24294 C 2311.85 0.64873 1.83044 0
M  V30 24295 O 2311.12 -0.350892 1.91309 0
M  V30 24296 C 2311.41 3.1529 1.73966 0
M  V30 24297 C 2311.26 4.41604 0.854773 0
M  V30 24298 C 2312.58 3.4654 2.71289 0
M  V30 24299 H 2309.7 0.657354 0.333249 0
M  V30 24300 H 2312.34 1.89066 0.188165 0
M  V30 24301 H 2310.49 3.08289 2.36411 0
M  V30 24302 H 2312.16 4.60647 0.245281 0
M  V30 24303 H 2310.41 4.335 0.161322 0
M  V30 24304 H 2311.08 5.32266 1.46276 0
M  V30 24305 H 2313.55 3.5382 2.18977 0
M  V30 24306 H 2312.43 4.4184 3.25682 0
M  V30 24307 H 2312.69 2.6987 3.50175 0
M  V30 24308 N 2311.75 -0.465951 1.50554 0
M  V30 24309 C 2312.68 -1.5809 1.65952 0
M  V30 24310 C 2313.69 -1.53553 0.540854 0
M  V30 24311 O 2314.88 -1.58848 0.814215 0
M  V30 24312 C 2311.98 -2.9698 1.63267 0
M  V30 24313 C 2311.16 -3.26331 2.9125 0
M  V30 24314 C 2310.21 -4.44801 2.81138 0
M  V30 24315 O 2309.24 -4.44856 3.55094 0
M  V30 24316 N 2310.44 -5.46753 1.95042 0
M  V30 24317 H 2313.21 -1.45296 2.62124 0
M  V30 24318 H 2310.77 -0.654454 1.48083 0
M  V30 24319 H 2312.76 -3.7421 1.54108 0
M  V30 24320 H 2311.33 -3.03517 0.748086 0
M  V30 24321 H 2310.55 -2.37666 3.14497 0
M  V30 24322 H 2311.84 -3.42755 3.76028 0
M  V30 24323 H 2311.24 -5.49532 1.34279 0
M  V30 24324 H 2309.79 -6.22947 1.91783 0
M  V30 24325 N 2313.23 -1.40218 -0.719481 0
M  V30 24326 C 2314.47 -1.38012 -1.47638 0
M  V30 24327 C 2314.8 0.0181108 -1.94992 0
M  V30 24328 O 2314.07 0.972177 -1.70075 0
M  V30 24329 H 2312.65 -0.507932 -0.547735 0
M  V30 24330 H 2315.31 -1.75235 -0.853156 0
M  V30 24331 H 2314.4 -2.05257 -2.35109 0
M  V30 24332 N 2314.7 0.951297 -1.25651 0
M  V30 24333 C 2316.12 1.51104 -1.09656 0
M  V30 24334 C 2316.47 1.93463 0.326581 0
M  V30 24335 O 2315.59 1.7894 1.21694 0
M  V30 24336 C 2316.19 2.74602 -1.98442 0
M  V30 24337 C 2314.75 3.26877 -1.86623 0
M  V30 24338 C 2313.89 1.99699 -1.92394 0
M  V30 24339 H 2316.84 0.767841 -1.38888 0
M  V30 24340 H 2316.86 3.48543 -1.52636 0
M  V30 24341 H 2316.38 2.43741 -3.02013 0
M  V30 24342 H 2314.48 3.62552 -0.859485 0
M  V30 24343 H 2314.59 3.94668 -2.71614 0
M  V30 24344 H 2312.95 2.15148 -1.36321 0
M  V30 24345 H 2313.74 1.71183 -2.97576 0
M  V30 24346 N 2316.18 1.07291 1.1544 0
M  V30 24347 C 2317.43 0.794129 1.85844 0
M  V30 24348 C 2317.75 -0.681776 1.82693 0
M  V30 24349 O 2317.02 -1.49375 1.26744 0
M  V30 24350 H 2315.6 0.290775 0.688083 0
M  V30 24351 H 2318.26 1.35652 1.39945 0
M  V30 24352 H 2317.36 1.12809 2.90999 0
M  V30 24353 N 2317.66 -1.32267 0.856927 0
M  V30 24354 C 2318.91 -1.97173 0.46142 0
M  V30 24355 C 2319.24 -1.67804 -0.983462 0
M  V30 24356 O 2318.49 -0.959933 -1.7054 0
M  V30 24357 C 2318.79 -3.5144 0.64998 0
M  V30 24358 C 2318.46 -4.008 2.06567 0
M  V30 24359 C 2317.12 -4.1399 2.45286 0
M  V30 24360 C 2319.47 -4.26937 2.98955 0
M  V30 24361 C 2316.8 -4.50662 3.75661 0
M  V30 24362 C 2319.15 -4.65068 4.2883 0
M  V30 24363 C 2317.81 -4.76464 4.67481 0
M  V30 24364 H 2317.08 -0.721507 0.168846 0
M  V30 24365 H 2319.73 -1.57631 1.08742 0
M  V30 24366 H 2318.04 -3.91755 -0.0592329 0
M  V30 24367 H 2319.73 -3.99689 0.32398 0
M  V30 24368 H 2316.32 -3.9102 1.75502 0
M  V30 24369 H 2320.51 -4.16253 2.70272 0
M  V30 24370 H 2315.76 -4.57681 4.05387 0
M  V30 24371 H 2319.94 -4.84246 5.00479 0
M  V30 24372 H 2317.56 -5.04636 5.68548 0
M  V30 24373 N 2319.14 -0.615084 -1.45102 0
M  V30 24374 C 2320.42 -0.044862 -1.95549 0
M  V30 24375 C 2320.8 1.42508 -1.55739 0
M  V30 24376 O 2320.14 2.13141 -0.823593 0
M  V30 24377 C 2320.35 -0.250846 -3.48097 0
M  V30 24378 C 2321.7 -0.135584 -4.24383 0
M  V30 24379 O 2322.73 -0.181361 -3.55738 0
M  V30 24380 O 2321.58 -0.0269839 -5.46493 0
M  V30 24381 H 2318.68 0.03147 -0.826401 0
M  V30 24382 H 2321.22 -0.685669 -1.55231 0
M  V30 24383 H 2320 -1.27145 -3.70067 0
M  V30 24384 H 2319.62 0.424867 -3.95323 0
M  V30 24385 N 2320.62 1.53557 -0.354678 0
M  V30 24386 C 2321.85 2.05211 0.239131 0
M  V30 24387 C 2322.26 1.22866 1.43877 0
M  V30 24388 O 2321.6 0.259597 1.81856 0
M  V30 24389 C 2321.66 3.52476 0.70719 0
M  V30 24390 C 2321.32 4.55465 -0.374293 0
M  V30 24391 C 2322.32 5.05368 -1.22063 0
M  V30 24392 C 2320.01 4.99481 -0.531411 0
M  V30 24393 C 2322 5.97878 -2.20953 0
M  V30 24394 C 2319.69 5.918 -1.52369 0
M  V30 24395 C 2320.69 6.40888 -2.36119 0
M  V30 24396 O 2320.37 7.31388 -3.33656 0
M  V30 24397 H 2320.11 0.674297 0.0479598 0
M  V30 24398 H 2322.66 1.99015 -0.508156 0
M  V30 24399 H 2320.89 3.56173 1.5059 0
M  V30 24400 H 2322.58 3.87044 1.22278 0
M  V30 24401 H 2323.34 4.72118 -1.11038 0
M  V30 24402 H 2319.22 4.60867 0.110657 0
M  V30 24403 H 2322.77 6.36116 -2.86359 0
M  V30 24404 H 2318.66 6.24465 -1.63445 0
M  V30 24405 H 2319.43 7.49354 -3.29257 0
M  V30 24406 N 2322.1 0.083568 1.57378 0
M  V30 24407 C 2323.06 -0.864922 2.12254 0
M  V30 24408 C 2324.06 -1.21856 1.04918 0
M  V30 24409 O 2325.25 -1.14989 1.30855 0
M  V30 24410 C 2322.38 -2.16456 2.63362 0
M  V30 24411 H 2323.57 -0.388623 2.97371 0
M  V30 24412 H 2321.13 -0.16529 1.55424 0
M  V30 24413 H 2321.86 -2.68596 1.81732 0
M  V30 24414 H 2321.65 -1.92081 3.41829 0
M  V30 24415 H 2323.14 -2.84331 3.05852 0
M  V30 24416 N 2323.57 -1.5645 -0.190064 0
M  V30 24417 C 2324.82 -1.81186 -0.911021 0
M  V30 24418 C 2325.15 -0.658428 -1.82697 0
M  V30 24419 O 2324.43 0.340741 -1.91492 0
M  V30 24420 C 2324.71 -3.16208 -1.72291 0
M  V30 24421 C 2324.56 -4.42051 -0.831341 0
M  V30 24422 C 2325.88 -3.47974 -2.69448 0
M  V30 24423 H 2323 -0.659112 -0.329758 0
M  V30 24424 H 2325.64 -1.89163 -0.178135 0
M  V30 24425 H 2323.79 -3.09539 -2.34773 0
M  V30 24426 H 2325.47 -4.60771 -0.220848 0
M  V30 24427 H 2323.71 -4.33579 -0.13833 0
M  V30 24428 H 2324.38 -5.33034 -1.43451 0
M  V30 24429 H 2326.86 -3.54976 -2.17097 0
M  V30 24430 H 2325.73 -4.43561 -3.23334 0
M  V30 24431 H 2325.99 -2.71723 -3.48739 0
M  V30 24432 N 2325.05 0.45796 -1.50799 0
M  V30 24433 C 2326.01 1.53671 -1.70053 0
M  V30 24434 C 2327.01 1.50324 -0.570908 0
M  V30 24435 O 2328.2 1.52711 -0.838153 0
M  V30 24436 C 2325.34 2.93273 -1.73793 0
M  V30 24437 H 2326.53 1.37912 -2.66309 0
M  V30 24438 H 2324.08 0.685246 -1.40478 0
M  V30 24439 H 2324.82 3.14461 -0.792773 0
M  V30 24440 H 2324.6 2.97108 -2.55869 0
M  V30 24441 H 2326.09 3.71567 -1.90598 0
M  V30 24442 N 2326.53 1.40598 0.712035 0
M  V30 24443 C 2327.46 1.3555 1.8358 0
M  V30 24444 C 2328.44 0.225312 1.61031 0
M  V30 24445 O 2329.62 0.409552 1.83997 0
M  V30 24446 C 2326.75 1.11039 3.19981 0
M  V30 24447 C 2325.8 2.26557 3.61351 0
M  V30 24448 S 2326.63 3.88967 3.68055 0
M  V30 24449 C 2327.79 3.66728 5.0721 0
M  V30 24450 H 2328.02 2.30652 1.87582 0
M  V30 24451 H 2325.55 1.26926 0.87916 0
M  V30 24452 H 2327.51 0.975831 3.98733 0
M  V30 24453 H 2326.17 0.175853 3.13607 0
M  V30 24454 H 2325.36 2.05058 4.60399 0
M  V30 24455 H 2324.97 2.36334 2.89866 0
M  V30 24456 H 2327.26 3.25414 5.94232 0
M  V30 24457 H 2328.2 4.65319 5.33745 0
M  V30 24458 H 2328.61 3.0034 4.77971 0
M  V30 24459 N 2328.01 -0.94462 1.26153 0
M  V30 24460 C 2328.97 -2.02438 1.07477 0
M  V30 24461 C 2329.97 -1.60782 0.0242347 0
M  V30 24462 O 2331.16 -1.72136 0.267333 0
M  V30 24463 C 2328.29 -3.34952 0.634015 0
M  V30 24464 H 2329.49 -2.20438 2.0334 0
M  V30 24465 H 2327.04 -1.1231 1.08702 0
M  V30 24466 H 2327.77 -3.2265 -0.326754 0
M  V30 24467 H 2327.56 -3.66539 1.39253 0
M  V30 24468 H 2329.05 -4.14286 0.525083 0
M  V30 24469 N 2329.49 -1.07901 -1.1487 0
M  V30 24470 C 2330.43 -0.704357 -2.1979 0
M  V30 24471 C 2331.4 0.306958 -1.63239 0
M  V30 24472 O 2332.59 0.192137 -1.8983 0
M  V30 24473 C 2329.73 -0.114305 -3.44911 0
M  V30 24474 C 2328.84 -1.17777 -4.15635 0
M  V30 24475 C 2327.98 -0.55213 -5.28323 0
M  V30 24476 C 2327.01 -1.598 -5.90873 0
M  V30 24477 N 2326.15 -0.994526 -6.95021 0
M  V30 24478 H 2330.99 -1.6034 -2.51187 0
M  V30 24479 H 2328.53 -0.801373 -1.23355 0
M  V30 24480 H 2330.49 0.245471 -4.16477 0
M  V30 24481 H 2329.12 0.748075 -3.14012 0
M  V30 24482 H 2328.17 -1.65505 -3.42509 0
M  V30 24483 H 2329.48 -1.97054 -4.58226 0
M  V30 24484 H 2328.63 -0.140306 -6.06538 0
M  V30 24485 H 2327.37 0.272345 -4.86939 0
M  V30 24486 H 2326.38 -2.01954 -5.11366 0
M  V30 24487 H 2327.6 -2.42486 -6.34332 0
M  V30 24488 H 2325.55 -0.191054 -6.55722 0
M  V30 24489 H 2325.47 -1.72445 -7.3607 0
M  V30 24490 H 2326.73 -0.60839 -7.77122 0
M  V30 24491 N 2330.96 1.31811 -0.863929 0
M  V30 24492 C 2332.38 1.49638 -0.55503 0
M  V30 24493 C 2332.58 1.79668 0.912234 0
M  V30 24494 O 2331.64 1.87174 1.69476 0
M  V30 24495 C 2332.95 2.63429 -1.45003 0
M  V30 24496 C 2334.5 2.77313 -1.45143 0
M  V30 24497 C 2334.97 3.94193 -2.33186 0
M  V30 24498 N 2336.46 4.0147 -2.31032 0
M  V30 24499 C 2337.2 4.91165 -2.95879 0
M  V30 24500 N 2336.69 5.85803 -3.69873 0
M  V30 24501 N 2338.49 4.84362 -2.85219 0
M  V30 24502 H 2330.64 1.10586 -1.81341 0
M  V30 24503 H 2332.9 0.545881 -0.77506 0
M  V30 24504 H 2332.61 2.47996 -2.49381 0
M  V30 24505 H 2332.48 3.59429 -1.14416 0
M  V30 24506 H 2334.87 2.92164 -0.415253 0
M  V30 24507 H 2334.95 1.81998 -1.79751 0
M  V30 24508 H 2334.59 3.80101 -3.36877 0
M  V30 24509 H 2334.52 4.88803 -1.95906 0
M  V30 24510 H 2337.01 3.33756 -1.77244 0
M  V30 24511 H 2337.33 6.50961 -4.16497 0
M  V30 24512 H 2335.67 5.85801 -3.73981 0
M  V30 24513 H 2338.86 4.09401 -2.26955 0
M  V30 24514 H 2339.04 5.5406 -3.36037 0
M  V30 24515 N 2332.44 0.62277 1.44773 0
M  V30 24516 C 2333.39 -0.0994274 2.32387 0
M  V30 24517 C 2334.38 -0.8443 1.4686 0
M  V30 24518 O 2335.59 -0.758146 1.63255 0
M  V30 24519 H 2331.96 -0.0509159 0.750274 0
M  V30 24520 H 2333.94 0.657721 2.91061 0
M  V30 24521 C 2332.68 -1.07313 3.30725 0
M  V30 24522 H 2332.01 -0.509393 3.96542 0
M  V30 24523 H 2333.45 -1.5481 3.94728 0
M  V30 24524 C 2331.91 -2.15425 2.59025 0
M  V30 24525 O 2332.44 -3.23388 2.38291 0
M  V30 24526 N 2330.64 -1.91127 2.18904 0
M  V30 24527 H 2330.19 -1.03333 2.35966 0
M  V30 24528 H 2330.15 -2.63665 1.71255 0
M  V30 24529 N 2333.92 -1.53367 0.362817 0
M  V30 24530 C 2335.17 -2.00398 -0.228845 0
M  V30 24531 C 2335.48 -1.25424 -1.50094 0
M  V30 24532 O 2336.69 -1.63029 -2.17103 0
M  V30 24533 C 2335.14 -3.56969 -0.458354 0
M  V30 24534 C 2334.75 -4.40818 0.798955 0
M  V30 24535 C 2336.5 -4.12363 -1.00782 0
M  V30 24536 C 2334.4 -5.88937 0.539182 0
M  V30 24537 H 2333.33 -0.748694 -0.0892919 0
M  V30 24538 H 2335.98 -1.7708 0.48113 0
M  V30 24539 H 2334.37 -3.76429 -1.22952 0
M  V30 24540 H 2335.54 -4.33131 1.5727 0
M  V30 24541 H 2333.85 -3.96514 1.27144 0
M  V30 24542 H 2336.45 -5.20656 -1.21745 0
M  V30 24543 H 2336.79 -3.66784 -1.96914 0
M  V30 24544 H 2337.33 -3.96691 -0.296891 0
M  V30 24545 H 2334.07 -6.38787 1.47075 0
M  V30 24546 H 2333.59 -5.99479 -0.196116 0
M  V30 24547 H 2335.27 -6.46793 0.163655 0
M  V30 24548 N 2335.4 -0.091913 -1.57332 0
M  V30 24549 C 2336.64 0.573391 -1.94525 0
M  V30 24550 C 2336.98 1.68031 -0.973607 0
M  V30 24551 O 2336.25 1.94499 -0.00612645 0
M  V30 24552 C 2336.54 1.13155 -3.4186 0
M  V30 24553 C 2336.39 0.0298956 -4.4979 0
M  V30 24554 C 2337.71 2.03091 -3.90438 0
M  V30 24555 H 2334.83 0.206963 -0.707344 0
M  V30 24556 H 2337.47 -0.161975 -1.89308 0
M  V30 24557 H 2335.62 1.75824 -3.46436 0
M  V30 24558 H 2337.29 -0.604193 -4.57326 0
M  V30 24559 H 2335.53 -0.636909 -4.29099 0
M  V30 24560 H 2336.2 0.46119 -5.5007 0
M  V30 24561 H 2338.68 1.50331 -3.87995 0
M  V30 24562 H 2337.56 2.39072 -4.94101 0
M  V30 24563 H 2337.82 2.94707 -3.29546 0
M  V30 24564 N 2336.88 1.56548 0.181765 0
M  V30 24565 C 2338.1 1.85523 0.915914 0
M  V30 24566 C 2338.52 0.676047 1.76281 0
M  V30 24567 O 2337.88 -0.355045 1.79013 0
M  V30 24568 C 2337.93 3.13431 1.80121 0
M  V30 24569 O 2337.65 4.26803 0.988487 0
M  V30 24570 C 2339.15 3.55678 2.64591 0
M  V30 24571 H 2336.37 0.615765 0.266599 0
M  V30 24572 H 2338.91 2.03661 0.185004 0
M  V30 24573 H 2337.07 2.97149 2.48558 0
M  V30 24574 H 2337.48 4.99724 1.59299 0
M  V30 24575 H 2338.96 4.48107 3.22342 0
M  V30 24576 H 2339.43 2.79298 3.38953 0
M  V30 24577 H 2340.04 3.74535 2.01503 0
M  V30 24578 N 2338.35 -0.449957 1.5104 0
M  V30 24579 C 2339.32 -1.52767 1.70865 0
M  V30 24580 C 2340.32 -1.50019 0.578872 0
M  V30 24581 O 2341.51 -1.52264 0.84624 0
M  V30 24582 C 2338.64 -2.92347 1.75346 0
M  V30 24583 H 2339.83 -1.36498 2.67036 0
M  V30 24584 H 2337.39 -0.677787 1.40839 0
M  V30 24585 H 2338.12 -3.14036 0.809438 0
M  V30 24586 H 2337.91 -2.95747 2.57441 0
M  V30 24587 H 2339.4 -3.70551 1.92566 0
M  V30 24588 N 2339.83 -1.40974 -0.704569 0
M  V30 24589 C 2341.06 -1.43184 -1.49352 0
M  V30 24590 C 2341.48 -0.034584 -1.88768 0
M  V30 24591 O 2340.83 0.944054 -1.56185 0
M  V30 24592 C 2340.88 -2.33249 -2.76183 0
M  V30 24593 O 2340.6 -3.67536 -2.3843 0
M  V30 24594 C 2342.11 -2.44168 -3.69996 0
M  V30 24595 H 2339.33 -0.48799 -0.46055 0
M  V30 24596 H 2341.87 -1.85154 -0.868228 0
M  V30 24597 H 2340.02 -1.94612 -3.3497 0
M  V30 24598 H 2340.44 -4.15481 -3.20118 0
M  V30 24599 H 2341.91 -3.11372 -4.55797 0
M  V30 24600 H 2342.39 -1.47013 -4.13864 0
M  V30 24601 H 2343 -2.83404 -3.17116 0
M  V30 24602 N 2341.31 0.937917 -1.26653 0
M  V30 24603 C 2342.54 1.71878 -1.15176 0
M  V30 24604 C 2342.95 1.86518 0.292635 0
M  V30 24605 O 2342.31 1.3749 1.20011 0
M  V30 24606 C 2342.36 3.12383 -1.81931 0
M  V30 24607 O 2342.08 2.9844 -3.20726 0
M  V30 24608 C 2343.58 4.0667 -1.76449 0
M  V30 24609 H 2340.8 0.538056 -0.40092 0
M  V30 24610 H 2343.35 1.17557 -1.67334 0
M  V30 24611 H 2341.5 3.63596 -1.33703 0
M  V30 24612 H 2341.92 3.87194 -3.53809 0
M  V30 24613 H 2343.39 5.02808 -2.2779 0
M  V30 24614 H 2343.87 4.33062 -0.731684 0
M  V30 24615 H 2344.47 3.61379 -2.24245 0
M  V30 24616 N 2342.79 1.08509 1.14296 0
M  V30 24617 C 2344.01 0.837035 1.89759 0
M  V30 24618 C 2344.44 -0.605196 1.78098 0
M  V30 24619 O 2343.8 -1.42418 1.1219 0
M  V30 24620 C 2343.84 1.26501 3.37683 0
M  V30 24621 O 2342.95 0.417587 4.1028 0
M  V30 24622 H 2342.29 0.303927 0.590359 0
M  V30 24623 H 2344.82 1.44679 1.44669 0
M  V30 24624 H 2344.83 1.24632 3.88498 0
M  V30 24625 H 2343.5 2.3154 3.45488 0
M  V30 24626 H 2342.08 0.499786 3.69536 0
M  V30 24627 N 2344.27 -1.31351 0.870907 0
M  V30 24628 C 2345.21 -2.28494 0.325465 0
M  V30 24629 C 2346.18 -1.55771 -0.576588 0
M  V30 24630 O 2347.37 -1.83912 -0.508026 0
M  V30 24631 C 2344.51 -3.41936 -0.466223 0
M  V30 24632 C 2343.62 -4.29507 0.463454 0
M  V30 24633 C 2342.76 -5.30095 -0.342451 0
M  V30 24634 C 2341.8 -6.09312 0.583593 0
M  V30 24635 N 2340.93 -7.01853 -0.18612 0
M  V30 24636 H 2345.77 -2.74536 1.15906 0
M  V30 24637 H 2343.31 -1.35055 0.582963 0
M  V30 24638 H 2345.27 -4.06449 -0.941013 0
M  V30 24639 H 2343.9 -2.97002 -1.26451 0
M  V30 24640 H 2342.95 -3.65429 1.05669 0
M  V30 24641 H 2344.26 -4.848 1.17349 0
M  V30 24642 H 2343.42 -6.00288 -0.87971 0
M  V30 24643 H 2342.15 -4.7546 -1.08577 0
M  V30 24644 H 2341.16 -5.38008 1.1326 0
M  V30 24645 H 2342.38 -6.66033 1.32578 0
M  V30 24646 H 2340.33 -6.49626 -0.912234 0
M  V30 24647 H 2340.25 -7.54571 0.464555 0
M  V30 24648 H 2341.52 -7.76309 -0.70458 0
M  V30 24649 N 2345.74 -0.630439 -1.44441 0
M  V30 24650 C 2346.99 -0.134386 -2.01653 0
M  V30 24651 C 2347.31 1.24794 -1.49838 0
M  V30 24652 O 2346.58 1.82901 -0.701716 0
M  V30 24653 H 2345.16 -0.04669 -0.745539 0
M  V30 24654 H 2347.83 -0.816986 -1.7695 0
M  V30 24655 H 2346.92 -0.101552 -3.11935 0
M  V30 24656 N 2347.22 1.53172 -0.370945 0
M  V30 24657 C 2348.13 2.29621 0.480783 0
M  V30 24658 C 2349.15 1.358 1.08786 0
M  V30 24659 O 2350.32 1.6886 1.09765 0
M  V30 24660 C 2347.39 3.07457 1.60222 0
M  V30 24661 C 2346.45 4.16955 1.02212 0
M  V30 24662 C 2345.68 4.9107 2.09012 0
M  V30 24663 O 2345.91 4.65097 3.30214 0
M  V30 24664 O 2344.84 5.7687 1.71768 0
M  V30 24665 H 2348.67 3.0337 -0.141474 0
M  V30 24666 H 2346.25 1.48787 -0.135172 0
M  V30 24667 H 2348.13 3.56045 2.2541 0
M  V30 24668 H 2346.81 2.36539 2.20978 0
M  V30 24669 H 2345.72 3.72606 0.333998 0
M  V30 24670 H 2347.05 4.90055 0.459044 0
M  V30 24671 N 2348.7 0.100255 1.57281 0
M  V30 24672 C 2349.95 -0.562234 1.94538 0
M  V30 24673 C 2350.28 -1.6787 0.982344 0
M  V30 24674 O 2349.53 -1.957 0.00284375 0
M  V30 24675 C 2349.83 -1.15253 3.38307 0
M  V30 24676 C 2349.5 -0.159329 4.50618 0
M  V30 24677 C 2348.16 0.113826 4.81065 0
M  V30 24678 C 2350.51 0.518552 5.18614 0
M  V30 24679 C 2347.84 1.07147 5.76833 0
M  V30 24680 C 2350.19 1.4647 6.1541 0
M  V30 24681 C 2348.85 1.74603 6.44259 0
M  V30 24682 H 2348.12 -0.205736 0.711866 0
M  V30 24683 H 2350.77 0.177184 1.90679 0
M  V30 24684 H 2349.08 -1.9683 3.3877 0
M  V30 24685 H 2350.77 -1.6729 3.64438 0
M  V30 24686 H 2347.36 -0.382416 4.26891 0
M  V30 24687 H 2351.55 0.320668 4.95263 0
M  V30 24688 H 2346.8 1.29638 5.97498 0
M  V30 24689 H 2350.98 1.99575 6.6719 0
M  V30 24690 H 2348.6 2.48966 7.18276 0
M  V30 24691 N 2350.18 -1.56643 -0.17346 0
M  V30 24692 C 2351.41 -1.86006 -0.906062 0
M  V30 24693 C 2351.82 -0.685386 -1.7592 0
M  V30 24694 O 2351.18 0.345547 -1.79199 0
M  V30 24695 C 2351.23 -3.14381 -1.78456 0
M  V30 24696 O 2350.95 -4.27321 -0.965839 0
M  V30 24697 C 2352.45 -3.57076 -2.62701 0
M  V30 24698 H 2349.67 -0.61717 -0.26333 0
M  V30 24699 H 2352.22 -2.03757 -0.1742 0
M  V30 24700 H 2350.37 -2.98463 -2.46979 0
M  V30 24701 H 2350.79 -5.00562 -1.56646 0
M  V30 24702 H 2352.26 -4.4981 -3.19961 0
M  V30 24703 H 2352.74 -2.81092 -3.37467 0
M  V30 24704 H 2353.34 -3.75599 -1.99514 0
M  V30 24705 N 2351.66 0.44194 -1.51277 0
M  V30 24706 C 2352.59 1.55588 -1.66936 0
M  V30 24707 C 2353.57 1.54162 -0.516986 0
M  V30 24708 O 2354.75 1.73357 -0.74024 0
M  V30 24709 C 2351.88 2.94171 -1.67872 0
M  V30 24710 C 2350.93 3.13641 -2.89019 0
M  V30 24711 S 2351.76 2.90428 -4.49902 0
M  V30 24712 C 2352.91 4.31301 -4.53575 0
M  V30 24713 H 2353.15 1.42071 -2.61157 0
M  V30 24714 H 2350.68 0.631317 -1.40903 0
M  V30 24715 H 2352.64 3.74055 -1.69095 0
M  V30 24716 H 2351.3 3.05055 -0.74835 0
M  V30 24717 H 2350.49 4.14952 -2.86061 0
M  V30 24718 H 2350.09 2.41575 -2.85513 0
M  V30 24719 H 2352.39 5.24426 -4.28933 0
M  V30 24720 H 2353.33 4.39293 -5.55362 0
M  V30 24721 H 2353.74 4.14741 -3.8295 0
M  V30 24722 N 2353.14 1.41345 0.697083 0
M  V30 24723 C 2354.07 1.45845 1.8235 0
M  V30 24724 C 2355.05 0.317276 1.67115 0
M  V30 24725 O 2356.23 0.528507 1.8687 0
M  V30 24726 C 2353.36 1.33843 3.20474 0
M  V30 24727 C 2352.32 2.45756 3.50411 0
M  V30 24728 C 2351.64 2.18821 4.87874 0
M  V30 24729 C 2352.94 3.88097 3.4954 0
M  V30 24730 H 2354.64 2.40116 1.78842 0
M  V30 24731 H 2352.18 1.15573 0.859007 0
M  V30 24732 H 2354.13 1.35603 3.98986 0
M  V30 24733 H 2352.86 0.360555 3.24604 0
M  V30 24734 H 2351.52 2.43276 2.74249 0
M  V30 24735 H 2351.17 1.1938 4.88628 0
M  V30 24736 H 2350.87 2.93812 5.0887 0
M  V30 24737 H 2352.39 2.22294 5.68698 0
M  V30 24738 H 2353.8 3.923 4.18059 0
M  V30 24739 H 2352.2 4.62758 3.82067 0
M  V30 24740 H 2353.27 4.16357 2.48545 0
M  V30 24741 N 2354.61 -0.931187 1.27148 0
M  V30 24742 C 2355.86 -1.67518 1.13058 0
M  V30 24743 C 2356.18 -1.92277 -0.324757 0
M  V30 24744 O 2355.45 -1.52656 -1.22772 0
M  V30 24745 H 2354.03 -0.620846 0.415402 0
M  V30 24746 H 2356.69 -1.1183 1.59624 0
M  V30 24747 H 2355.79 -2.64482 1.65698 0
M  V30 24748 N 2356.09 -1.09114 -1.13719 0
M  V30 24749 C 2357.34 -0.826447 -1.85196 0
M  V30 24750 C 2357.67 0.646287 -1.8313 0
M  V30 24751 O 2356.95 1.47561 -1.26712 0
M  V30 24752 C 2357.23 -1.35818 -3.33505 0
M  V30 24753 C 2357.08 -2.89678 -3.44103 0
M  V30 24754 C 2358.4 -0.989332 -4.28836 0
M  V30 24755 H 2355.52 -0.301686 -0.672424 0
M  V30 24756 H 2358.16 -1.35199 -1.33496 0
M  V30 24757 H 2356.31 -0.911148 -3.77664 0
M  V30 24758 H 2357.98 -3.42806 -3.08678 0
M  V30 24759 H 2356.23 -3.26972 -2.85082 0
M  V30 24760 H 2356.9 -3.21959 -4.48382 0
M  V30 24761 H 2359.37 -1.37482 -3.92731 0
M  V30 24762 H 2358.25 -1.38848 -5.31049 0
M  V30 24763 H 2358.51 0.102846 -4.4198 0
M  V30 24764 N 2357.57 1.30887 -0.877861 0
M  V30 24765 C 2358.52 2.2587 -0.310912 0
M  V30 24766 C 2359.5 1.50967 0.55657 0
M  V30 24767 O 2360.7 1.72371 0.402157 0
M  V30 24768 C 2357.82 3.39931 0.479762 0
M  V30 24769 C 2356.91 4.22196 -0.401407 0
M  V30 24770 N 2357.3 4.83091 -1.49856 0
M  V30 24771 C 2355.6 4.45572 -0.195246 0
M  V30 24772 C 2356.3 5.44659 -2.0426 0
M  V30 24773 N 2355.28 5.26863 -1.33852 0
M  V30 24774 H 2359.08 2.70494 -1.14935 0
M  V30 24775 H 2356.59 1.45245 -0.726483 0
M  V30 24776 H 2358.59 4.07014 0.902511 0
M  V30 24777 H 2357.25 2.96848 1.31572 0
M  V30 24778 H 2358.26 4.82516 -1.88145 0
M  V30 24779 H 2354.94 4.13106 0.604119 0
M  V30 24780 H 2356.33 6.03012 -2.96355 0
M  V30 24781 N 2359.05 0.638091 1.44105 0
M  V30 24782 C 2360.32 0.0759664 1.95452 0
M  V30 24783 C 2360.7 -1.40012 1.57987 0
M  V30 24784 O 2360.05 -2.11804 0.857398 0
M  V30 24785 C 2360.26 0.306193 3.47654 0
M  V30 24786 C 2361.61 0.203083 4.24114 0
M  V30 24787 O 2362.63 0.237933 3.55404 0
M  V30 24788 O 2361.49 0.113923 5.46381 0
M  V30 24789 H 2358.59 -0.0183187 0.826797 0
M  V30 24790 H 2361.13 0.710278 1.54121 0
M  V30 24791 H 2359.91 1.33016 3.67998 0
M  V30 24792 H 2359.53 -0.361921 3.95949 0
M  V30 24793 N 2360.53 -1.52973 0.379063 0
M  V30 24794 C 2361.47 -2.27678 -0.475993 0
M  V30 24795 C 2362.47 -1.31176 -1.07187 0
M  V30 24796 O 2363.67 -1.48754 -1.01353 0
M  V30 24797 H 2360.05 -0.732009 -0.172242 0
M  V30 24798 H 2362.02 -2.97882 0.175667 0
M  V30 24799 C 2360.77 -3.08873 -1.59664 0
M  V30 24800 H 2360.09 -3.8298 -1.14744 0
M  V30 24801 H 2361.53 -3.643 -2.16937 0
M  V30 24802 C 2359.99 -2.20547 -2.54678 0
M  V30 24803 O 2360.52 -1.82533 -3.57833 0
M  V30 24804 N 2358.73 -1.8491 -2.2418 0
M  V30 24805 H 2358.27 -2.16022 -1.40329 0
M  V30 24806 H 2358.23 -1.26101 -2.88003 0
M  V30 24807 N 2362 -0.108595 -1.57225 0
M  V30 24808 C 2363.25 0.552727 -1.95122 0
M  V30 24809 C 2363.58 1.66989 -0.991375 0
M  V30 24810 O 2362.86 1.94482 -0.0267553 0
M  V30 24811 C 2363.14 1.09522 -3.43041 0
M  V30 24812 C 2362.99 -0.0178123 -4.49796 0
M  V30 24813 C 2364.31 1.98938 -3.9257 0
M  V30 24814 H 2361.43 0.199449 -0.709499 0
M  V30 24815 H 2364.07 -0.182044 -1.89126 0
M  V30 24816 H 2362.22 1.7214 -3.48282 0
M  V30 24817 H 2363.9 -0.652664 -4.5666 0
M  V30 24818 H 2362.14 -0.682385 -4.28399 0
M  V30 24819 H 2362.81 0.402822 -5.50528 0
M  V30 24820 H 2365.29 1.46207 -3.89567 0
M  V30 24821 H 2364.16 2.33818 -4.96609 0
M  V30 24822 H 2364.42 2.91195 -3.32653 0
M  V30 24823 N 2363.48 1.56732 0.16515 0
M  V30 24824 C 2364.44 1.95997 1.18818 0
M  V30 24825 C 2365.44 0.844334 1.36849 0
M  V30 24826 O 2366.63 1.11128 1.3415 0
M  V30 24827 C 2363.77 2.26015 2.55206 0
M  V30 24828 H 2364.96 2.8755 0.851774 0
M  V30 24829 H 2362.51 1.50885 0.407831 0
M  V30 24830 H 2363.25 1.37196 2.9385 0
M  V30 24831 H 2363.03 3.0734 2.43484 0
M  V30 24832 H 2364.52 2.57294 3.28922 0
M  V30 24833 N 2364.96 -0.433911 1.51509 0
M  V30 24834 C 2366.21 -1.18002 1.6358 0
M  V30 24835 C 2366.52 -1.92267 0.359548 0
M  V30 24836 O 2367.73 -2.69107 0.359679 0
M  V30 24837 C 2366.18 -2.14621 2.88905 0
M  V30 24838 C 2365.79 -1.45988 4.23546 0
M  V30 24839 C 2367.54 -2.89644 3.10333 0
M  V30 24840 C 2365.44 -2.4111 5.40018 0
M  V30 24841 H 2364.37 -0.444171 0.609285 0
M  V30 24842 H 2367.02 -0.446741 1.77979 0
M  V30 24843 H 2365.41 -2.91398 2.68147 0
M  V30 24844 H 2366.58 -0.747452 4.54697 0
M  V30 24845 H 2364.89 -0.831043 4.08023 0
M  V30 24846 H 2367.49 -3.60908 3.94525 0
M  V30 24847 H 2367.84 -3.51185 2.2355 0
M  V30 24848 H 2368.37 -2.19972 3.31447 0
M  V30 24849 H 2365.11 -1.84253 6.29072 0
M  V30 24850 H 2364.63 -3.10397 5.13239 0
M  V30 24851 H 2366.31 -3.02167 5.72105 0
M  V30 24852 N 2366.44 -1.41713 -0.689577 0
M  V30 24853 C 2367.37 -1.4681 -1.81574 0
M  V30 24854 C 2368.35 -0.326134 -1.66944 0
M  V30 24855 O 2369.53 -0.53841 -1.86587 0
M  V30 24856 C 2366.66 -1.35541 -3.19759 0
M  V30 24857 C 2365.62 -2.47611 -3.49103 0
M  V30 24858 C 2364.94 -2.21405 -4.86707 0
M  V30 24859 C 2366.24 -3.89945 -3.47477 0
M  V30 24860 H 2367.94 -2.41061 -1.77566 0
M  V30 24861 H 2365.48 -1.16027 -0.852866 0
M  V30 24862 H 2367.44 -1.37717 -3.98261 0
M  V30 24863 H 2366.16 -0.377765 -3.24408 0
M  V30 24864 H 2364.82 -2.44727 -2.72955 0
M  V30 24865 H 2364.47 -1.21969 -4.87988 0
M  V30 24866 H 2364.17 -2.96506 -5.07304 0
M  V30 24867 H 2365.69 -2.25307 -5.67511 0
M  V30 24868 H 2367.11 -3.94512 -4.15973 0
M  V30 24869 H 2365.5 -4.64778 -3.79607 0
M  V30 24870 H 2366.57 -4.1767 -2.46333 0
M  V30 24871 N 2367.92 0.924431 -1.2764 0
M  V30 24872 C 2369.33 1.48744 -1.12837 0
M  V30 24873 C 2369.68 1.94112 0.285471 0
M  V30 24874 O 2368.8 1.81481 1.17871 0
M  V30 24875 C 2369.4 2.70331 -2.04222 0
M  V30 24876 C 2367.96 3.22845 -1.93515 0
M  V30 24877 C 2367.1 1.95573 -1.96587 0
M  V30 24878 H 2370.06 0.738208 -1.40486 0
M  V30 24879 H 2370.08 3.45227 -1.59995 0
M  V30 24880 H 2369.59 2.3728 -3.07115 0
M  V30 24881 H 2367.69 3.60647 -0.936194 0
M  V30 24882 H 2367.8 3.88818 -2.79924 0
M  V30 24883 H 2366.17 2.12208 -1.40854 0
M  V30 24884 H 2366.95 1.64832 -3.0114 0
M  V30 24885 N 2369.39 1.09715 1.13139 0
M  V30 24886 C 2370.62 0.856931 1.8832 0
M  V30 24887 C 2371.04 -0.592041 1.79277 0
M  V30 24888 O 2370.39 -1.40772 1.16145 0
M  V30 24889 C 2370.45 1.28712 3.3781 0
M  V30 24890 O 2370.17 2.67927 3.46622 0
M  V30 24891 C 2371.67 1.07972 4.2995 0
M  V30 24892 H 2368.89 0.30809 0.596089 0
M  V30 24893 H 2371.43 1.45991 1.43203 0
M  V30 24894 H 2369.59 0.727979 3.80499 0
M  V30 24895 H 2370 2.86138 4.39574 0
M  V30 24896 H 2371.47 1.42995 5.33157 0
M  V30 24897 H 2371.95 0.0177349 4.39196 0
M  V30 24898 H 2372.56 1.62495 3.93033 0
M  V30 24899 N 2370.87 -1.30419 0.88479 0
M  V30 24900 C 2371.82 -2.25702 0.322886 0
M  V30 24901 C 2372.81 -1.5126 -0.548556 0
M  V30 24902 O 2374 -1.72582 -0.39301 0
M  V30 24903 C 2371.13 -3.40181 -0.461728 0
M  V30 24904 C 2370.21 -4.21977 0.423792 0
M  V30 24905 N 2370.6 -4.82289 1.52416 0
M  V30 24906 C 2368.9 -4.45463 0.218873 0
M  V30 24907 C 2369.6 -5.43568 2.07145 0
M  V30 24908 N 2368.58 -5.26146 1.36644 0
M  V30 24909 H 2372.38 -2.69881 1.16368 0
M  V30 24910 H 2369.9 -1.44857 0.734176 0
M  V30 24911 H 2371.89 -4.07487 -0.880913 0
M  V30 24912 H 2370.55 -2.97542 -1.29996 0
M  V30 24913 H 2371.56 -4.81512 1.90701 0
M  V30 24914 H 2368.24 -4.13421 -0.582202 0
M  V30 24915 H 2369.63 -6.01432 2.99549 0
M  V30 24916 N 2372.35 -0.645724 -1.43764 0
M  V30 24917 C 2373.31 0.0409085 -2.29163 0
M  V30 24918 C 2374.31 0.757971 -1.41815 0
M  V30 24919 O 2375.5 0.600353 -1.63528 0
M  V30 24920 C 2372.64 1.06863 -3.23718 0
M  V30 24921 H 2373.83 -0.710396 -2.91365 0
M  V30 24922 H 2371.38 -0.406574 -1.50919 0
M  V30 24923 H 2372.12 1.84943 -2.66396 0
M  V30 24924 H 2371.9 0.558209 -3.88106 0
M  V30 24925 H 2373.39 1.54838 -3.87834 0
M  V30 24926 N 2373.83 1.5277 -0.38717 0
M  V30 24927 C 2375.05 2.06449 0.198371 0
M  V30 24928 C 2375.48 1.25719 1.39916 0
M  V30 24929 O 2374.84 0.281688 1.79098 0
M  V30 24930 C 2374.88 3.56399 0.54883 0
M  V30 24931 O 2373.99 3.78255 1.64308 0
M  V30 24932 H 2373.33 0.663575 0.0237615 0
M  V30 24933 H 2375.86 1.96956 -0.554023 0
M  V30 24934 H 2375.87 3.99803 0.813742 0
M  V30 24935 H 2374.54 4.14596 -0.329078 0
M  V30 24936 H 2373.12 3.46741 1.37205 0
M  V30 24937 N 2375.31 0.116931 1.57166 0
M  V30 24938 C 2376.72 -0.408777 1.8217 0
M  V30 24939 C 2377.07 -1.66744 1.03396 0
M  V30 24940 O 2376.19 -2.1471 0.269924 0
M  V30 24941 C 2376.79 -0.748408 3.3043 0
M  V30 24942 C 2375.35 -1.21876 3.56122 0
M  V30 24943 C 2374.49 -0.226403 2.76374 0
M  V30 24944 H 2377.45 0.342091 1.54969 0
M  V30 24945 H 2377.47 -1.60601 3.44946 0
M  V30 24946 H 2376.98 0.167853 3.87737 0
M  V30 24947 H 2375.08 -2.15199 3.04171 0
M  V30 24948 H 2375.19 -1.16551 4.64707 0
M  V30 24949 H 2373.56 -0.71302 2.44516 0
M  V30 24950 H 2374.34 0.682918 3.36439 0
M  V30 24951 N 2376.78 -1.56818 -0.156836 0
M  V30 24952 C 2378.03 -1.82445 -0.869372 0
M  V30 24953 C 2378.35 -0.696262 -1.82146 0
M  V30 24954 O 2377.62 0.282836 -1.93847 0
M  V30 24955 H 2376.2 -0.673062 -0.324031 0
M  V30 24956 H 2378.87 -1.94297 -0.15319 0
M  V30 24957 H 2377.96 -2.77021 -1.43756 0
M  V30 24958 N 2378.26 0.425871 -1.51737 0
M  V30 24959 C 2379.17 1.54272 -1.76741 0
M  V30 24960 C 2380.19 1.61317 -0.652138 0
M  V30 24961 O 2381.36 1.78345 -0.935686 0
M  V30 24962 C 2378.43 2.90159 -1.8976 0
M  V30 24963 C 2377.49 2.93137 -3.13638 0
M  V30 24964 C 2376.72 4.22542 -3.26027 0
M  V30 24965 O 2376.95 5.15541 -2.44076 0
M  V30 24966 O 2375.88 4.32038 -4.19078 0
M  V30 24967 H 2379.71 1.36084 -2.71505 0
M  V30 24968 H 2377.29 0.610045 -1.36377 0
M  V30 24969 H 2379.17 3.70784 -2.00242 0
M  V30 24970 H 2377.85 3.0845 -0.981839 0
M  V30 24971 H 2376.76 2.11425 -3.08626 0
M  V30 24972 H 2378.09 2.79792 -4.04941 0
M  V30 24973 N 2379.74 1.42077 0.682052 0
M  V30 24974 C 2380.97 1.45746 1.47556 0
M  V30 24975 C 2381.39 0.0681312 1.87977 0
M  V30 24976 O 2380.75 -0.931773 1.55524 0
M  V30 24977 C 2380.8 2.38378 2.70571 0
M  V30 24978 O 2379.9 1.85014 3.6857 0
M  V30 24979 H 2379.24 0.494101 0.443577 0
M  V30 24980 H 2381.77 1.86687 0.837206 0
M  V30 24981 H 2381.78 2.54712 3.18725 0
M  V30 24982 H 2380.46 3.39319 2.40489 0
M  V30 24983 H 2379.03 1.78198 3.27567 0
M  V30 24984 N 2381.22 -0.917649 1.28129 0
M  V30 24985 C 2382.47 -1.66095 1.14435 0
M  V30 24986 C 2382.78 -1.93172 -0.307213 0
M  V30 24987 O 2383.99 -2.65552 -0.565212 0
M  V30 24988 C 2382.44 -2.99199 2.0002 0
M  V30 24989 C 2382.05 -2.79783 3.49893 0
M  V30 24990 C 2383.8 -3.7706 1.95002 0
M  V30 24991 C 2381.7 -4.08503 4.27643 0
M  V30 24992 H 2380.63 -0.623032 0.424673 0
M  V30 24993 H 2383.28 -1.01865 1.52629 0
M  V30 24994 H 2381.67 -3.64542 1.54678 0
M  V30 24995 H 2382.84 -2.23145 4.03166 0
M  V30 24996 H 2381.15 -2.15339 3.56396 0
M  V30 24997 H 2383.75 -4.72465 2.50362 0
M  V30 24998 H 2384.09 -4.05873 0.92589 0
M  V30 24999 H 2384.63 -3.1853 2.38293 0
M  V30 25000 H 2381.37 -3.84865 5.30621 0
M  V30 25001 H 2380.89 -4.64768 3.79145 0
M  V30 25002 H 2382.57 -4.76791 4.37355 0
M  V30 25003 N 2382.7 -1.10314 -1.12555 0
M  V30 25004 C 2383.94 -0.846043 -1.84309 0
M  V30 25005 C 2384.28 0.626827 -1.83806 0
M  V30 25006 O 2383.55 1.46209 -1.2827 0
M  V30 25007 C 2383.83 -1.39347 -3.32046 0
M  V30 25008 C 2383.69 -2.93311 -3.41011 0
M  V30 25009 C 2385.01 -1.03476 -4.27762 0
M  V30 25010 H 2382.13 -0.308801 -0.669187 0
M  V30 25011 H 2384.77 -1.36607 -1.32055 0
M  V30 25012 H 2382.92 -0.951153 -3.76677 0
M  V30 25013 H 2384.59 -3.4606 -3.05025 0
M  V30 25014 H 2382.83 -3.29978 -2.81598 0
M  V30 25015 H 2383.5 -3.26696 -4.44942 0
M  V30 25016 H 2385.98 -1.4164 -3.91251 0
M  V30 25017 H 2384.86 -1.44472 -5.29546 0
M  V30 25018 H 2385.12 0.0559627 -4.42065 0
M  V30 25019 N 2384.18 1.29948 -0.891694 0
M  V30 25020 C 2385.42 1.95157 -0.509555 0
M  V30 25021 C 2385.74 1.71127 0.947358 0
M  V30 25022 O 2386.94 2.30375 1.43665 0
M  V30 25023 C 2385.4 3.49465 -0.860377 0
M  V30 25024 C 2385.01 3.82306 -2.33552 0
M  V30 25025 C 2386.75 4.20951 -0.547761 0
M  V30 25026 C 2384.66 5.29821 -2.62762 0
M  V30 25027 H 2383.59 0.730486 -0.186833 0
M  V30 25028 H 2386.24 1.47796 -1.08759 0
M  V30 25029 H 2384.62 3.95436 -0.211354 0
M  V30 25030 H 2385.8 3.47222 -3.02942 0
M  V30 25031 H 2384.11 3.23939 -2.61634 0
M  V30 25032 H 2386.71 5.29513 -0.742947 0
M  V30 25033 H 2387.05 4.13124 0.513248 0
M  V30 25034 H 2387.58 3.80685 -1.15427 0
M  V30 25035 H 2384.32 5.42705 -3.67629 0
M  V30 25036 H 2383.84 5.66181 -1.97987 0
M  V30 25037 H 2385.52 5.97329 -2.48611 0
M  V30 25038 N 2385.65 0.653339 1.4342 0
M  V30 25039 C 2386.93 0.0966925 1.95361 0
M  V30 25040 C 2387.31 -1.38328 1.59463 0
M  V30 25041 O 2386.66 -2.10883 0.879815 0
M  V30 25042 C 2386.87 0.343049 3.4731 0
M  V30 25043 C 2388.22 0.248054 4.23875 0
M  V30 25044 O 2389.24 0.275615 3.55132 0
M  V30 25045 O 2388.1 0.171867 5.4623 0
M  V30 25046 H 2385.19 -0.00954838 0.826945 0
M  V30 25047 H 2387.74 0.726585 1.53359 0
M  V30 25048 H 2386.51 1.36912 3.66566 0
M  V30 25049 H 2386.13 -0.319905 3.96311 0
M  V30 25050 N 2387.13 -1.52563 0.395266 0
M  V30 25051 C 2388.38 -2.01255 -0.184643 0
M  V30 25052 C 2388.7 -1.28332 -1.4682 0
M  V30 25053 O 2387.97 -0.405128 -1.91665 0
M  V30 25054 H 2386.55 -0.743597 -0.0712225 0
M  V30 25055 H 2389.21 -1.87603 0.528326 0
M  V30 25056 H 2388.31 -3.09646 -0.390626 0
M  V30 25057 N 2388.61 -0.125265 -1.57101 0
M  V30 25058 C 2389.56 0.822617 -2.15642 0
M  V30 25059 C 2390.53 1.25925 -1.08315 0
M  V30 25060 O 2391.71 1.33565 -1.36254 0
M  V30 25061 C 2388.85 2.06489 -2.76508 0
M  V30 25062 C 2387.96 1.67605 -3.98161 0
M  V30 25063 C 2387.1 2.86846 -4.47094 0
M  V30 25064 C 2386.14 2.44232 -5.61264 0
M  V30 25065 N 2385.28 3.56408 -6.04911 0
M  V30 25066 H 2390.12 0.316573 -2.96314 0
M  V30 25067 H 2387.65 0.144562 -1.46388 0
M  V30 25068 H 2389.61 2.79284 -3.0993 0
M  V30 25069 H 2388.24 2.54541 -1.98516 0
M  V30 25070 H 2387.29 0.846595 -3.7086 0
M  V30 25071 H 2388.6 1.32292 -4.80937 0
M  V30 25072 H 2387.76 3.67859 -4.82457 0
M  V30 25073 H 2386.5 3.2539 -3.63281 0
M  V30 25074 H 2385.5 1.61654 -5.25498 0
M  V30 25075 H 2386.73 2.06799 -6.46847 0
M  V30 25076 H 2384.67 3.94613 -5.24038 0
M  V30 25077 H 2384.59 3.25039 -6.82558 0
M  V30 25078 H 2385.86 4.37841 -6.44915 0
M  V30 25079 N 2390.09 1.56899 0.148518 0
M  V30 25080 C 2391 2.01414 1.2029 0
M  V30 25081 C 2392.01 0.929299 1.47105 0
M  V30 25082 O 2393.19 1.23866 1.58805 0
M  V30 25083 C 2390.25 2.38452 2.51678 0
M  V30 25084 C 2389.32 3.60876 2.32523 0
M  V30 25085 C 2388.55 3.96138 3.57646 0
M  V30 25086 O 2388.77 3.32081 4.63765 0
M  V30 25087 O 2387.71 4.89391 3.50399 0
M  V30 25088 H 2391.53 2.91417 0.854974 0
M  V30 25089 H 2389.12 1.45069 0.357126 0
M  V30 25090 H 2391 2.63141 3.29143 0
M  V30 25091 H 2389.67 1.51604 2.86003 0
M  V30 25092 H 2388.58 3.41376 1.53013 0
M  V30 25093 H 2389.91 4.48337 2.03113 0
M  V30 25094 N 2391.57 -0.417818 1.51961 0
M  V30 25095 C 2392.81 -1.16729 1.65838 0
M  V30 25096 C 2393.14 -1.90388 0.382914 0
M  V30 25097 O 2392.42 -1.8441 -0.618335 0
M  V30 25098 C 2392.7 -2.16871 2.8747 0
M  V30 25099 C 2392.56 -1.47167 4.25043 0
M  V30 25100 C 2393.87 -3.1764 3.04619 0
M  V30 25101 H 2390.99 -0.423001 0.603522 0
M  V30 25102 H 2393.64 -0.454072 1.84494 0
M  V30 25103 H 2391.79 -2.77695 2.71694 0
M  V30 25104 H 2393.46 -0.895297 4.52529 0
M  V30 25105 H 2391.7 -0.773731 4.26844 0
M  V30 25106 H 2392.37 -2.20195 5.0618 0
M  V30 25107 H 2394.85 -2.66886 3.19235 0
M  V30 25108 H 2393.72 -3.84983 3.91253 0
M  V30 25109 H 2393.98 -3.84871 2.17548 0
M  V30 25110 N 2393.04 -1.42436 -0.674508 0
M  V30 25111 C 2393.95 -1.4834 -1.81748 0
M  V30 25112 C 2394.97 -0.372129 -1.69974 0
M  V30 25113 O 2396.15 -0.623074 -1.9152 0
M  V30 25114 C 2393.21 -1.38367 -3.17892 0
M  V30 25115 C 2392.27 -2.59988 -3.41621 0
M  V30 25116 C 2391.5 -2.50481 -4.71269 0
M  V30 25117 O 2391.73 -1.54084 -5.49194 0
M  V30 25118 O 2390.66 -3.40619 -4.96248 0
M  V30 25119 H 2394.49 -2.44813 -1.79723 0
M  V30 25120 H 2392.07 -1.24204 -0.83029 0
M  V30 25121 H 2393.95 -1.35168 -3.99133 0
M  V30 25122 H 2392.63 -0.450201 -3.20554 0
M  V30 25123 H 2391.54 -2.68762 -2.60227 0
M  V30 25124 H 2392.87 -3.52235 -3.43789 0
M  V30 25125 N 2394.52 0.910841 -1.28614 0
M  V30 25126 C 2395.77 1.65486 -1.15314 0
M  V30 25127 C 2396.08 1.93333 0.296965 0
M  V30 25128 O 2397.29 2.65848 0.551121 0
M  V30 25129 C 2395.75 2.98134 -2.01604 0
M  V30 25130 C 2395.35 2.77924 -3.51372 0
M  V30 25131 C 2397.1 3.76021 -1.96999 0
M  V30 25132 C 2395 4.0623 -4.29804 0
M  V30 25133 H 2393.93 0.620771 -0.427971 0
M  V30 25134 H 2396.59 1.01054 -1.53167 0
M  V30 25135 H 2394.97 3.63716 -1.56609 0
M  V30 25136 H 2396.14 2.21003 -4.04344 0
M  V30 25137 H 2394.46 2.13446 -3.57533 0
M  V30 25138 H 2397.05 4.7113 -2.52864 0
M  V30 25139 H 2397.4 4.05376 -0.947401 0
M  V30 25140 H 2397.93 3.17262 -2.39979 0
M  V30 25141 H 2394.67 3.82046 -5.32655 0
M  V30 25142 H 2394.19 4.62751 -3.81604 0
M  V30 25143 H 2395.87 4.74465 -4.39877 0
M  V30 25144 N 2396 1.10909 1.11969 0
M  V30 25145 C 2396.93 0.784511 2.19927 0
M  V30 25146 C 2397.91 -0.244697 1.68331 0
M  V30 25147 O 2399.1 -0.109384 1.93892 0
M  V30 25148 C 2396.23 0.220888 3.46597 0
M  V30 25149 C 2395.18 1.18134 4.11374 0
M  V30 25150 C 2394.51 0.478688 5.32553 0
M  V30 25151 C 2395.81 2.52987 4.56941 0
M  V30 25152 H 2397.5 1.68719 2.47334 0
M  V30 25153 H 2395.05 0.812663 1.18877 0
M  V30 25154 H 2397 -0.0183538 4.21396 0
M  V30 25155 H 2395.72 -0.717057 3.18631 0
M  V30 25156 H 2394.38 1.40612 3.38561 0
M  V30 25157 H 2394.03 -0.463888 5.00856 0
M  V30 25158 H 2393.73 1.11922 5.76842 0
M  V30 25159 H 2395.25 0.248107 6.10096 0
M  V30 25160 H 2396.67 2.3463 5.23089 0
M  V30 25161 H 2395.07 3.12971 5.12025 0
M  V30 25162 H 2396.14 3.1262 3.70671 0
M  V30 25163 N 2397.48 -1.29474 0.898573 0
M  V30 25164 C 2398.76 -1.90507 0.44345 0
M  V30 25165 C 2399.14 -1.81571 -1.07682 0
M  V30 25166 O 2398.48 -1.2417 -1.91818 0
M  V30 25167 C 2398.69 -3.35629 0.956767 0
M  V30 25168 C 2400.04 -4.12661 0.9998 0
M  V30 25169 O 2401.07 -3.44528 0.904359 0
M  V30 25170 O 2399.92 -5.34414 1.14298 0
M  V30 25171 H 2397.02 -0.815398 0.138039 0
M  V30 25172 H 2399.56 -1.37947 0.988364 0
M  V30 25173 H 2398.34 -3.36283 2.00073 0
M  V30 25174 H 2397.96 -3.95665 0.391798 0
M  V30 25175 N 2398.96 -0.660936 -1.43071 0
M  V30 25176 C 2399.92 0.0166003 -2.29194 0
M  V30 25177 C 2400.92 0.742887 -1.42611 0
M  V30 25178 O 2402.11 0.582975 -1.64156 0
M  V30 25179 C 2399.24 1.03424 -3.24833 0
M  V30 25180 H 2400.43 -0.741259 -2.90595 0
M  V30 25181 H 2397.99 -0.422558 -1.5048 0
M  V30 25182 H 2398.72 1.82107 -2.68342 0
M  V30 25183 H 2398.51 0.517014 -3.88676 0
M  V30 25184 H 2400 1.50716 -3.89454 0
M  V30 25185 N 2400.43 1.52351 -0.403352 0
M  V30 25186 C 2401.38 2.26854 0.424972 0
M  V30 25187 C 2402.35 1.29031 1.04596 0
M  V30 25188 O 2403.54 1.57884 1.07132 0
M  V30 25189 C 2400.68 3.08892 1.53882 0
M  V30 25190 C 2399.79 4.21664 0.939322 0
M  V30 25191 C 2398.92 4.91072 2.02539 0
M  V30 25192 C 2397.96 5.95815 1.40252 0
M  V30 25193 N 2397.1 6.58763 2.42849 0
M  V30 25194 H 2401.94 2.9721 -0.216793 0
M  V30 25195 H 2399.48 1.4662 -0.118747 0
M  V30 25196 H 2401.44 3.54757 2.19552 0
M  V30 25197 H 2400.07 2.40717 2.1507 0
M  V30 25198 H 2399.12 3.80012 0.171831 0
M  V30 25199 H 2400.43 4.96818 0.444273 0
M  V30 25200 H 2399.58 5.40312 2.75948 0
M  V30 25201 H 2398.32 4.15473 2.55408 0
M  V30 25202 H 2397.33 5.459 0.653737 0
M  V30 25203 H 2398.55 6.73353 0.881601 0
M  V30 25204 H 2396.5 5.85998 2.94861 0
M  V30 25205 H 2396.42 7.29573 1.98139 0
M  V30 25206 H 2397.68 7.12644 3.15845 0
M  V30 25207 N 2401.91 0.133594 1.57033 0
M  V30 25208 C 2402.88 -0.796957 2.14898 0
M  V30 25209 C 2403.88 -1.18456 1.08742 0
M  V30 25210 O 2405.07 -1.10768 1.34447 0
M  V30 25211 C 2402.2 -2.07968 2.70115 0
M  V30 25212 H 2403.39 -0.29382 2.98457 0
M  V30 25213 H 2400.94 -0.115759 1.55871 0
M  V30 25214 H 2401.68 -2.62679 1.90185 0
M  V30 25215 H 2401.46 -1.81109 3.47767 0
M  V30 25216 H 2402.95 -2.74457 3.14743 0
M  V30 25217 N 2403.39 -1.56975 -0.140195 0
M  V30 25218 C 2404.32 -2.0181 -1.17452 0
M  V30 25219 C 2405.3 -0.898819 -1.44413 0
M  V30 25220 O 2406.49 -1.1671 -1.55218 0
M  V30 25221 C 2403.62 -2.40449 -2.50603 0
M  V30 25222 C 2402.57 -3.55625 -2.38149 0
M  V30 25223 C 2401.9 -3.80098 -3.76072 0
M  V30 25224 C 2403.2 -4.88065 -1.85983 0
M  V30 25225 H 2404.89 -2.88467 -0.801692 0
M  V30 25226 H 2402.44 -1.3878 -0.384196 0
M  V30 25227 H 2404.39 -2.70416 -3.23193 0
M  V30 25228 H 2403.11 -1.50737 -2.89734 0
M  V30 25229 H 2401.77 -3.25834 -1.6801 0
M  V30 25230 H 2401.42 -2.87625 -4.12651 0
M  V30 25231 H 2401.12 -4.57613 -3.68598 0
M  V30 25232 H 2402.64 -4.12496 -4.50199 0
M  V30 25233 H 2404.06 -5.16706 -2.48371 0
M  V30 25234 H 2402.46 -5.69433 -1.89383 0
M  V30 25235 H 2403.53 -4.77986 -0.815938 0
M  V30 25236 N 2404.87 0.409753 -1.5218 0
M  V30 25237 C 2405.78 1.52389 -1.78367 0
M  V30 25238 C 2406.79 1.60616 -0.669211 0
M  V30 25239 O 2407.97 1.77342 -0.954549 0
M  V30 25240 C 2405.04 2.8813 -1.92827 0
M  V30 25241 C 2404.1 2.89794 -3.1673 0
M  V30 25242 C 2403.33 4.19061 -3.3049 0
M  V30 25243 O 2403.55 5.12924 -2.49531 0
M  V30 25244 O 2402.49 4.27569 -4.23637 0
M  V30 25245 H 2406.31 1.33197 -2.72933 0
M  V30 25246 H 2403.9 0.595546 -1.37017 0
M  V30 25247 H 2405.78 3.6864 -2.04164 0
M  V30 25248 H 2404.45 3.07392 -1.0145 0
M  V30 25249 H 2403.36 2.0814 -3.10851 0
M  V30 25250 H 2404.69 2.75482 -4.07886 0
M  V30 25251 N 2406.35 1.42792 0.666944 0
M  V30 25252 C 2407.62 1.34161 1.42338 0
M  V30 25253 C 2408 -0.0172358 2.11093 0
M  V30 25254 O 2407.35 -1.03314 2.0381 0
M  V30 25255 C 2407.56 2.5153 2.41937 0
M  V30 25256 C 2408.91 2.94001 3.06347 0
M  V30 25257 O 2409.93 2.51477 2.52265 0
M  V30 25258 O 2408.79 3.67624 4.0437 0
M  V30 25259 H 2405.89 0.529494 0.635268 0
M  V30 25260 H 2408.43 1.54815 0.695007 0
M  V30 25261 H 2407.2 3.42084 1.89985 0
M  V30 25262 H 2406.83 2.32904 3.22245 0
M  V30 25263 N 2407.82 -0.904008 1.29095 0
M  V30 25264 C 2408.76 -2.01264 1.09661 0
M  V30 25265 C 2409.77 -1.62737 0.0454015 0
M  V30 25266 O 2410.96 -1.76137 0.289477 0
M  V30 25267 C 2408.06 -3.3268 0.646337 0
M  V30 25268 C 2407.23 -3.9976 1.77512 0
M  V30 25269 C 2406.29 -5.09463 1.31658 0
M  V30 25270 O 2405.32 -5.3213 2.02054 0
M  V30 25271 N 2406.52 -5.80205 0.185099 0
M  V30 25272 H 2409.28 -2.18491 2.05139 0
M  V30 25273 H 2406.84 -1.07592 1.20977 0
M  V30 25274 H 2408.84 -4.03409 0.322977 0
M  V30 25275 H 2407.41 -3.11854 -0.215861 0
M  V30 25276 H 2406.63 -3.22451 2.26758 0
M  V30 25277 H 2407.91 -4.41321 2.53206 0
M  V30 25278 H 2407.31 -5.6427 -0.401922 0
M  V30 25279 H 2405.87 -6.51752 -0.0789213 0
M  V30 25280 N 2409.3 -1.11501 -1.11379 0
M  V30 25281 C 2410.27 -0.777191 -2.15621 0
M  V30 25282 C 2411.27 0.203751 -1.59504 0
M  V30 25283 O 2412.46 -0.0208126 -1.74188 0
M  V30 25284 C 2409.59 -0.153176 -3.40556 0
M  V30 25285 H 2410.78 -1.70065 -2.47018 0
M  V30 25286 H 2408.33 -0.916974 -1.26575 0
M  V30 25287 H 2409.07 0.780481 -3.14768 0
M  V30 25288 H 2408.85 -0.859305 -3.82568 0
M  V30 25289 H 2410.34 0.067031 -4.17546 0
M  V30 25290 N 2410.78 1.28995 -0.905426 0
M  V30 25291 C 2412.03 1.94939 -0.533227 0
M  V30 25292 C 2412.35 1.71687 0.924588 0
M  V30 25293 O 2411.62 1.05186 1.65266 0
M  V30 25294 H 2410.2 0.721313 -0.194207 0
M  V30 25295 H 2412.86 1.57139 -1.15297 0
M  V30 25296 H 2411.96 3.03666 -0.720644 0
M  V30 25297 N 2412.26 0.668514 1.42719 0
M  V30 25298 C 2413.49 0.196384 2.05966 0
M  V30 25299 C 2413.9 -1.144 1.50193 0
M  V30 25300 O 2413.26 -1.70939 0.639238 0
M  V30 25301 C 2413.31 0.115879 3.61314 0
M  V30 25302 O 2413.03 1.40329 4.15017 0
M  V30 25303 C 2414.53 -0.380501 4.41664 0
M  V30 25304 H 2411.75 0.0969946 0.663953 0
M  V30 25305 H 2414.3 0.913478 1.82964 0
M  V30 25306 H 2412.45 -0.551864 3.83449 0
M  V30 25307 H 2412.87 1.27252 5.08829 0
M  V30 25308 H 2414.34 -0.385751 5.5065 0
M  V30 25309 H 2414.82 -1.41463 4.15794 0
M  V30 25310 H 2415.42 0.255284 4.24533 0
M  V30 25311 N 2413.74 -1.52135 0.411426 0
M  V30 25312 C 2414.69 -2.28636 -0.427593 0
M  V30 25313 C 2415.68 -1.3342 -1.04381 0
M  V30 25314 O 2416.89 -1.5087 -0.981746 0
M  V30 25315 H 2413.26 -0.735498 -0.156676 0
M  V30 25316 H 2415.23 -2.97443 0.238813 0
M  V30 25317 C 2413.98 -3.1219 -1.53077 0
M  V30 25318 H 2413.3 -3.85328 -1.06594 0
M  V30 25319 H 2414.74 -3.6882 -2.09161 0
M  V30 25320 C 2413.2 -2.25899 -2.49942 0
M  V30 25321 O 2413.73 -1.90082 -3.53881 0
M  V30 25322 N 2411.94 -1.89624 -2.20207 0
M  V30 25323 H 2411.49 -2.1895 -1.35715 0
M  V30 25324 H 2411.44 -1.32181 -2.85264 0
M  V30 25325 N 2415.22 -0.14192 -1.5696 0
M  V30 25326 C 2416.15 0.795898 -2.19517 0
M  V30 25327 C 2417.13 1.26075 -1.14189 0
M  V30 25328 O 2418.31 1.31923 -1.42513 0
M  V30 25329 C 2415.44 2.03718 -2.81276 0
M  V30 25330 C 2414.4 1.70929 -3.92387 0
M  V30 25331 C 2413.72 3.02279 -4.41057 0
M  V30 25332 C 2415.02 0.959864 -5.13404 0
M  V30 25333 H 2416.72 0.274543 -2.98139 0
M  V30 25334 H 2414.26 0.130611 -1.43406 0
M  V30 25335 H 2416.21 2.69802 -3.23705 0
M  V30 25336 H 2414.94 2.58218 -1.99978 0
M  V30 25337 H 2413.6 1.07226 -3.50568 0
M  V30 25338 H 2413.25 3.54759 -3.56588 0
M  V30 25339 H 2412.95 2.81105 -5.15998 0
M  V30 25340 H 2414.47 3.69443 -4.86153 0
M  V30 25341 H 2415.88 1.52269 -5.52709 0
M  V30 25342 H 2414.28 0.848253 -5.94075 0
M  V30 25343 H 2415.35 -0.0493287 -4.84875 0
M  V30 25344 N 2416.69 1.57047 0.131868 0
M  V30 25345 C 2417.6 2.02678 1.18147 0
M  V30 25346 C 2418.62 0.94485 1.46112 0
M  V30 25347 O 2419.8 1.25544 1.57483 0
M  V30 25348 C 2416.86 2.41107 2.49135 0
M  V30 25349 C 2415.92 3.63322 2.28682 0
M  V30 25350 C 2415.15 3.99909 3.53424 0
M  V30 25351 O 2415.38 3.36981 4.60217 0
M  V30 25352 O 2414.31 4.9308 3.45189 0
M  V30 25353 H 2418.14 2.92307 0.824017 0
M  V30 25354 H 2415.72 1.45439 0.341719 0
M  V30 25355 H 2417.6 2.66617 3.26333 0
M  V30 25356 H 2416.28 1.54629 2.84379 0
M  V30 25357 H 2415.19 3.4298 1.49384 0
M  V30 25358 H 2416.52 4.50466 1.98347 0
M  V30 25359 N 2418.17 -0.401677 1.52395 0
M  V30 25360 C 2419.42 -1.14506 1.66046 0
M  V30 25361 C 2419.73 -1.91461 0.400249 0
M  V30 25362 O 2420.94 -2.68283 0.41668 0
M  V30 25363 C 2419.4 -2.08444 2.93392 0
M  V30 25364 C 2419 -1.36971 4.26548 0
M  V30 25365 C 2420.75 -2.82996 3.16407 0
M  V30 25366 C 2418.65 -2.29601 5.45011 0
M  V30 25367 H 2417.58 -0.431147 0.618569 0
M  V30 25368 H 2420.24 -0.408889 1.78886 0
M  V30 25369 H 2418.62 -2.85645 2.74268 0
M  V30 25370 H 2419.79 -0.650836 4.56181 0
M  V30 25371 H 2418.11 -0.744308 4.09694 0
M  V30 25372 H 2420.7 -3.52458 4.02091 0
M  V30 25373 H 2421.05 -3.46364 2.30949 0
M  V30 25374 H 2421.58 -2.12892 3.36038 0
M  V30 25375 H 2418.32 -1.70868 6.32838 0
M  V30 25376 H 2417.84 -2.9944 5.19707 0
M  V30 25377 H 2419.52 -2.89964 5.78385 0
M  V30 25378 N 2419.65 -1.43144 -0.659362 0
M  V30 25379 C 2420.88 -1.47863 -1.44721 0
M  V30 25380 C 2421.29 -0.0946217 -1.88563 0
M  V30 25381 O 2420.65 0.893887 -1.5911 0
M  V30 25382 C 2420.7 -2.41918 -2.68623 0
M  V30 25383 O 2420.42 -3.74936 -2.26616 0
M  V30 25384 C 2421.92 -2.55816 -3.6204 0
M  V30 25385 H 2419.14 -0.502395 -0.444792 0
M  V30 25386 H 2421.69 -1.87823 -0.808883 0
M  V30 25387 H 2419.84 -2.0517 -3.28609 0
M  V30 25388 H 2420.26 -4.25455 -3.06738 0
M  V30 25389 H 2421.73 -3.25715 -4.45661 0
M  V30 25390 H 2422.21 -1.60106 -4.08978 0
M  V30 25391 H 2422.81 -2.93349 -3.07939 0
M  V30 25392 N 2421.13 0.897149 -1.29572 0
M  V30 25393 C 2422.38 1.64254 -1.17063 0
M  V30 25394 C 2422.69 1.93637 0.276442 0
M  V30 25395 O 2423.9 2.66417 0.522893 0
M  V30 25396 C 2422.35 2.95979 -2.04755 0
M  V30 25397 C 2421.96 2.74181 -3.543 0
M  V30 25398 C 2423.7 3.7391 -2.00976 0
M  V30 25399 C 2421.61 4.01648 -4.34088 0
M  V30 25400 H 2420.54 0.616197 -0.434531 0
M  V30 25401 H 2423.19 0.994241 -1.54231 0
M  V30 25402 H 2421.57 3.62035 -1.60458 0
M  V30 25403 H 2422.75 2.16702 -4.06665 0
M  V30 25404 H 2421.06 2.09642 -3.59777 0
M  V30 25405 H 2423.66 4.68422 -2.57847 0
M  V30 25406 H 2424 4.04349 -0.990344 0
M  V30 25407 H 2424.54 3.14699 -2.4333 0
M  V30 25408 H 2421.27 3.76375 -5.36677 0
M  V30 25409 H 2420.79 4.58677 -3.86491 0
M  V30 25410 H 2422.47 4.69773 -4.44885 0
M  V30 25411 N 2422.61 1.1209 1.10786 0
M  V30 25412 C 2423.85 0.868691 1.82035 0
M  V30 25413 C 2424.17 -0.607394 1.8593 0
M  V30 25414 O 2425.37 -0.976085 2.53347 0
M  V30 25415 C 2423.83 1.50441 3.26949 0
M  V30 25416 C 2423.44 3.01502 3.31362 0
M  V30 25417 C 2425.18 1.33232 4.0305 0
M  V30 25418 C 2423.09 3.58025 4.70714 0
M  V30 25419 H 2422.02 0.32133 0.682102 0
M  V30 25420 H 2424.67 1.34696 1.24616 0
M  V30 25421 H 2423.05 0.953803 3.84342 0
M  V30 25422 H 2424.23 3.63025 2.83813 0
M  V30 25423 H 2422.54 3.18065 2.68744 0
M  V30 25424 H 2425.14 1.72887 5.05978 0
M  V30 25425 H 2425.48 0.275602 4.15387 0
M  V30 25426 H 2426.01 1.85194 3.52062 0
M  V30 25427 H 2422.75 4.6344 4.63577 0
M  V30 25428 H 2422.27 3.01277 5.18645 0
M  V30 25429 H 2423.95 3.56869 5.39679 0
M  V30 25430 N 2424.08 -1.28513 0.912254 0
M  V30 25431 C 2425.31 -1.99165 0.560451 0
M  V30 25432 C 2425.73 -1.68183 -0.857897 0
M  V30 25433 O 2425.08 -0.933761 -1.56803 0
M  V30 25434 C 2425.13 -3.53459 0.758204 0
M  V30 25435 O 2424.86 -3.83349 2.12074 0
M  V30 25436 C 2426.36 -4.41372 0.413032 0
M  V30 25437 H 2423.58 -0.636022 0.213816 0
M  V30 25438 H 2426.12 -1.63746 1.22505 0
M  V30 25439 H 2424.28 -3.87145 0.140624 0
M  V30 25440 H 2424.69 -4.77989 2.15931 0
M  V30 25441 H 2426.16 -5.48706 0.602176 0
M  V30 25442 H 2426.64 -4.34354 -0.650654 0
M  V30 25443 H 2427.25 -4.1318 1.00809 0
M  V30 25444 N 2425.56 -0.676073 -1.42362 0
M  V30 25445 C 2426.49 -0.0125243 -2.33497 0
M  V30 25446 C 2427.47 0.787954 -1.50749 0
M  V30 25447 O 2428.66 0.744852 -1.79348 0
M  V30 25448 C 2425.79 0.938523 -3.34379 0
M  V30 25449 C 2424.74 0.246547 -4.27289 0
M  V30 25450 C 2424.07 1.31062 -5.18389 0
M  V30 25451 C 2425.37 -0.875215 -5.14915 0
M  V30 25452 H 2427.06 -0.773644 -2.89232 0
M  V30 25453 H 2424.61 -0.373484 -1.39072 0
M  V30 25454 H 2426.56 1.41181 -3.97046 0
M  V30 25455 H 2425.29 1.73108 -2.7695 0
M  V30 25456 H 2423.94 -0.20652 -3.66018 0
M  V30 25457 H 2423.59 2.0952 -4.57286 0
M  V30 25458 H 2423.29 0.852737 -5.8138 0
M  V30 25459 H 2424.82 1.78481 -5.83932 0
M  V30 25460 H 2426.23 -0.483084 -5.71261 0
M  V30 25461 H 2424.63 -1.25897 -5.86745 0
M  V30 25462 H 2425.7 -1.72343 -4.53239 0
M  V30 25463 N 2427.04 1.51915 -0.419488 0
M  V30 25464 C 2427.99 2.27292 0.400887 0
M  V30 25465 C 2428.96 1.30133 1.03221 0
M  V30 25466 O 2430.14 1.59011 1.05452 0
M  V30 25467 C 2427.28 3.10507 1.50597 0
M  V30 25468 C 2426.4 4.22637 0.894546 0
M  V30 25469 C 2425.53 4.93192 1.97319 0
M  V30 25470 C 2424.57 5.97269 1.33925 0
M  V30 25471 N 2423.71 6.61302 2.35848 0
M  V30 25472 H 2428.55 2.96964 -0.248304 0
M  V30 25473 H 2426.08 1.46486 -0.134292 0
M  V30 25474 H 2428.04 3.57066 2.15777 0
M  V30 25475 H 2426.67 2.42985 2.12505 0
M  V30 25476 H 2425.72 3.80173 0.131516 0
M  V30 25477 H 2427.04 4.97261 0.391553 0
M  V30 25478 H 2426.19 5.43209 2.70202 0
M  V30 25479 H 2424.93 4.18159 2.50987 0
M  V30 25480 H 2423.93 5.46562 0.5958 0
M  V30 25481 H 2425.16 6.7425 0.810133 0
M  V30 25482 H 2423.1 5.89092 2.88629 0
M  V30 25483 H 2423.02 7.31633 1.9039 0
M  V30 25484 H 2424.29 7.15954 3.08269 0
M  V30 25485 N 2428.52 0.150242 1.56882 0
M  V30 25486 C 2429.93 -0.206142 1.58263 0
M  V30 25487 C 2430.13 -1.64432 1.16467 0
M  V30 25488 O 2429.19 -2.37168 0.866464 0
M  V30 25489 C 2430.5 0.0555554 3.00649 0
M  V30 25490 C 2432.05 -0.00789886 3.12999 0
M  V30 25491 C 2432.53 0.226509 4.5744 0
M  V30 25492 N 2434.02 0.17355 4.62875 0
M  V30 25493 C 2434.75 0.329388 5.72453 0
M  V30 25494 N 2434.25 0.543127 6.90668 0
M  V30 25495 N 2436.04 0.266765 5.61467 0
M  V30 25496 H 2428.19 1.08925 1.82343 0
M  V30 25497 H 2430.46 0.431428 0.844141 0
M  V30 25498 H 2430.16 1.05102 3.35628 0
M  V30 25499 H 2430.04 -0.662394 3.71338 0
M  V30 25500 H 2432.42 -0.993917 2.77858 0
M  V30 25501 H 2432.5 0.742431 2.44789 0
M  V30 25502 H 2432.15 1.20964 4.93285 0
M  V30 25503 H 2432.08 -0.544182 5.23781 0
M  V30 25504 H 2434.57 0.0131373 3.77898 0
M  V30 25505 H 2434.88 0.652057 7.70044 0
M  V30 25506 H 2433.23 0.579487 6.9258 0
M  V30 25507 H 2436.42 0.100523 4.67992 0
M  V30 25508 H 2436.59 0.391648 6.46815 0
M  V30 25509 N 2430 -1.57115 -0.123538 0
M  V30 25510 C 2430.94 -2.00986 -1.17078 0
M  V30 25511 C 2431.94 -0.906034 -1.43134 0
M  V30 25512 O 2433.14 -1.09124 -1.4315 0
M  V30 25513 H 2429.52 -0.640127 -0.394641 0
M  V30 25514 H 2431.49 -2.88181 -0.774241 0
M  V30 25515 C 2430.24 -2.42627 -2.49053 0
M  V30 25516 H 2429.56 -3.27129 -2.2984 0
M  V30 25517 H 2431 -2.77126 -3.20901 0
M  V30 25518 C 2429.46 -1.28811 -3.11303 0
M  V30 25519 O 2429.99 -0.6016 -3.9717 0
M  V30 25520 N 2428.2 -1.04633 -2.7111 0
M  V30 25521 H 2427.74 -1.60637 -2.01379 0
M  V30 25522 H 2427.7 -0.28674 -3.1309 0
M  V30 25523 N 2431.47 0.393589 -1.52606 0
M  V30 25524 C 2432.38 1.50489 -1.79973 0
M  V30 25525 C 2433.4 1.59897 -0.686209 0
M  V30 25526 O 2434.58 1.7632 -0.973305 0
M  V30 25527 C 2431.64 2.86068 -1.95872 0
M  V30 25528 C 2430.7 2.86419 -3.19786 0
M  V30 25529 C 2429.94 4.15532 -3.34916 0
M  V30 25530 O 2430.16 5.10248 -2.54957 0
M  V30 25531 O 2429.09 4.23052 -4.28148 0
M  V30 25532 H 2432.92 1.30294 -2.7433 0
M  V30 25533 H 2430.5 0.58098 -1.37641 0
M  V30 25534 H 2432.39 3.66453 -2.08062 0
M  V30 25535 H 2431.06 3.06298 -1.04704 0
M  V30 25536 H 2429.97 2.04831 -3.13041 0
M  V30 25537 H 2431.3 2.7114 -4.10784 0
M  V30 25538 N 2432.95 1.43492 0.651762 0
M  V30 25539 C 2433.9 1.48763 1.7646 0
M  V30 25540 C 2434.87 0.337217 1.62641 0
M  V30 25541 O 2436.05 0.544576 1.82863 0
M  V30 25542 C 2433.19 1.41802 3.14621 0
M  V30 25543 C 2432.31 2.67059 3.39563 0
M  V30 25544 C 2431.44 2.52076 4.6758 0
M  V30 25545 C 2430.48 3.72595 4.85633 0
M  V30 25546 N 2429.62 3.56413 6.04908 0
M  V30 25547 H 2434.46 2.43852 1.71289 0
M  V30 25548 H 2432 1.21044 0.835868 0
M  V30 25549 H 2433.95 1.3576 3.94494 0
M  V30 25550 H 2432.58 0.502936 3.18858 0
M  V30 25551 H 2431.64 2.83374 2.53778 0
M  V30 25552 H 2432.95 3.56578 3.48788 0
M  V30 25553 H 2432.1 2.4375 5.55582 0
M  V30 25554 H 2430.84 1.60084 4.60678 0
M  V30 25555 H 2429.85 3.81328 3.96067 0
M  V30 25556 H 2431.07 4.65598 4.94364 0
M  V30 25557 H 2429.02 2.67156 5.99136 0
M  V30 25558 H 2428.93 4.39534 6.15098 0
M  V30 25559 H 2430.2 3.51941 6.95527 0
M  V30 25560 N 2434.43 -0.890264 1.30046 0
M  V30 25561 C 2435.68 -1.64161 1.18564 0
M  V30 25562 C 2436.01 -1.92743 -0.260818 0
M  V30 25563 O 2435.26 -1.54301 -1.20373 0
M  V30 25564 C 2435.56 -2.99246 1.95415 0
M  V30 25565 C 2435.23 -2.90236 3.45071 0
M  V30 25566 C 2433.89 -2.87486 3.85883 0
M  V30 25567 C 2436.24 -2.7875 4.40395 0
M  V30 25568 C 2433.57 -2.71081 5.20319 0
M  V30 25569 C 2435.92 -2.63884 5.74933 0
M  V30 25570 C 2434.58 -2.59505 6.1499 0
M  V30 25571 H 2433.85 -0.600708 0.433856 0
M  V30 25572 H 2436.5 -1.03549 1.6109 0
M  V30 25573 H 2434.81 -3.63778 1.45508 0
M  V30 25574 H 2436.5 -3.56331 1.83927 0
M  V30 25575 H 2433.09 -2.93183 3.12637 0
M  V30 25576 H 2437.28 -2.79945 4.09811 0
M  V30 25577 H 2432.53 -2.66102 5.50454 0
M  V30 25578 H 2436.71 -2.53969 6.48439 0
M  V30 25579 H 2434.33 -2.46552 7.19108 0
M  V30 25580 N 2435.91 -1.12676 -1.1019 0
M  V30 25581 C 2437.32 -0.86334 -1.34233 0
M  V30 25582 C 2437.52 0.505243 -1.95063 0
M  V30 25583 O 2436.58 1.25341 -2.19194 0
M  V30 25584 C 2437.89 -1.98176 -2.26156 0
M  V30 25585 C 2439.44 -2.01294 -2.39687 0
M  V30 25586 C 2439.92 -3.12376 -3.3494 0
M  V30 25587 N 2441.41 -3.11835 -3.4251 0
M  V30 25588 C 2442.14 -3.94426 -4.16192 0
M  V30 25589 N 2441.64 -4.87012 -4.92738 0
M  V30 25590 N 2443.43 -3.82554 -4.11836 0
M  V30 25591 H 2435.58 -2.00854 -0.690762 0
M  V30 25592 H 2437.85 -0.874181 -0.366759 0
M  V30 25593 H 2437.55 -2.96808 -1.88675 0
M  V30 25594 H 2437.43 -1.88912 -3.26484 0
M  V30 25595 H 2439.81 -1.0328 -2.76437 0
M  V30 25596 H 2439.89 -2.14632 -1.39165 0
M  V30 25597 H 2439.54 -4.10624 -2.98915 0
M  V30 25598 H 2439.47 -2.96277 -4.35348 0
M  V30 25599 H 2441.96 -2.44764 -2.87922 0
M  V30 25600 H 2442.27 -5.46537 -5.46367 0
M  V30 25601 H 2440.62 -4.91024 -4.91854 0
M  V30 25602 H 2443.81 -3.09556 -3.51131 0
M  V30 25603 H 2443.98 -4.47151 -4.68999 0
M  V30 25604 N 2437.39 1.28028 -0.919057 0
M  V30 25605 C 2438.66 1.89777 -0.473701 0
M  V30 25606 C 2439.04 1.83261 1.0478 0
M  V30 25607 O 2438.39 1.27206 1.89818 0
M  V30 25608 C 2438.6 3.34065 -1.01004 0
M  V30 25609 C 2439.95 4.11018 -1.06532 0
M  V30 25610 O 2440.97 3.43046 -0.959056 0
M  V30 25611 O 2439.83 5.32528 -1.22786 0
M  V30 25612 H 2436.93 0.813099 -0.150994 0
M  V30 25613 H 2439.47 1.36357 -1.01019 0
M  V30 25614 H 2438.24 3.33058 -2.05398 0
M  V30 25615 H 2437.87 3.94991 -0.454695 0
M  V30 25616 N 2438.86 0.683613 1.42002 0
M  V30 25617 C 2440.11 0.206716 2.00638 0
M  V30 25618 C 2440.43 -1.19668 1.54722 0
M  V30 25619 O 2441.63 -1.77041 2.05836 0
M  V30 25620 C 2440.09 0.318695 3.58486 0
M  V30 25621 C 2439.7 1.7267 4.13387 0
M  V30 25622 C 2441.44 -0.0990395 4.24384 0
M  V30 25623 C 2439.35 1.79097 5.63629 0
M  V30 25624 H 2438.28 0.0735239 0.750407 0
M  V30 25625 H 2440.93 0.850077 1.62622 0
M  V30 25626 H 2439.31 -0.392712 3.94048 0
M  V30 25627 H 2440.48 2.4659 3.89269 0
M  V30 25628 H 2438.8 2.09305 3.59972 0
M  V30 25629 H 2441.4 -0.0712894 5.34652 0
M  V30 25630 H 2441.74 -1.13579 4.00507 0
M  V30 25631 H 2442.27 0.561668 3.93815 0
M  V30 25632 H 2439.01 2.80784 5.92318 0
M  V30 25633 H 2438.53 1.09545 5.89712 0
M  V30 25634 H 2440.21 1.54841 6.28198 0
M  V30 25635 N 2440.34 -1.5169 0.427538 0
M  V30 25636 C 2441.76 -1.59403 0.0793258 0
M  V30 25637 C 2441.96 -1.43917 -1.41033 0
M  V30 25638 O 2441.02 -1.27543 -2.1792 0
M  V30 25639 C 2442.33 -2.94841 0.590688 0
M  V30 25640 C 2443.88 -3.08125 0.550269 0
M  V30 25641 C 2444.35 -4.46072 1.03844 0
M  V30 25642 N 2445.84 -4.52364 0.996023 0
M  V30 25643 C 2446.58 -5.57409 1.34473 0
M  V30 25644 N 2446.07 -6.69919 1.76581 0
M  V30 25645 N 2447.87 -5.47715 1.26352 0
M  V30 25646 H 2440.02 -1.60002 1.39689 0
M  V30 25647 H 2442.28 -0.753698 0.575016 0
M  V30 25648 H 2441.99 -3.11513 1.63257 0
M  V30 25649 H 2441.86 -3.77199 0.0102724 0
M  V30 25650 H 2444.25 -2.91127 -0.482603 0
M  V30 25651 H 2444.33 -2.2763 1.16697 0
M  V30 25652 H 2443.97 -4.63815 2.06973 0
M  V30 25653 H 2443.9 -5.25091 0.398378 0
M  V30 25654 H 2446.39 -3.71609 0.686675 0
M  V30 25655 H 2446.71 -7.46081 2.01451 0
M  V30 25656 H 2445.05 -6.71152 1.80499 0
M  V30 25657 H 2448.24 -4.58702 0.933289 0
M  V30 25658 H 2448.42 -6.2947 1.53857 0
M  V30 25659 N 2441.82 -0.15856 -1.568 0
M  V30 25660 C 2443.23 0.360334 -1.8319 0
M  V30 25661 C 2443.58 1.63944 -1.07781 0
M  V30 25662 O 2442.71 2.13919 -0.326756 0
M  V30 25663 C 2443.3 0.660537 -3.32299 0
M  V30 25664 C 2441.86 1.12391 -3.59229 0
M  V30 25665 C 2441.01 0.153048 -2.76877 0
M  V30 25666 H 2443.96 -0.383058 -1.54008 0
M  V30 25667 H 2443.98 1.51399 -3.49083 0
M  V30 25668 H 2443.49 -0.270595 -3.87156 0
M  V30 25669 H 2441.59 2.07059 -3.0977 0
M  V30 25670 H 2441.71 1.04189 -4.67634 0
M  V30 25671 H 2440.07 0.64794 -2.46321 0
M  V30 25672 H 2440.85 -0.771879 -3.3451 0
M  V30 25673 N 2443.3 1.57178 0.115204 0
M  V30 25674 C 2444.25 1.97046 1.14703 0
M  V30 25675 C 2445.23 0.845981 1.36865 0
M  V30 25676 O 2446.43 1.1097 1.37893 0
M  V30 25677 C 2443.55 2.38152 2.47262 0
M  V30 25678 C 2442.64 3.57241 2.28559 0
M  V30 25679 N 2443.03 4.7281 1.79677 0
M  V30 25680 C 2441.33 3.62947 2.59201 0
M  V30 25681 C 2442.03 5.54824 1.74772 0
M  V30 25682 N 2441.01 4.97421 2.19256 0
M  V30 25683 H 2444.81 2.83858 0.761704 0
M  V30 25684 H 2442.32 1.59158 0.3229 0
M  V30 25685 H 2444.32 2.64932 3.21895 0
M  V30 25686 H 2442.98 1.52707 2.8655 0
M  V30 25687 H 2443.99 4.95953 1.49168 0
M  V30 25688 H 2440.67 2.88118 3.02149 0
M  V30 25689 H 2442.06 6.57534 1.382 0
M  V30 25690 N 2444.78 -0.38549 1.52813 0
M  V30 25691 C 2446.03 -1.12738 1.67251 0
M  V30 25692 C 2446.34 -1.91026 0.420534 0
M  V30 25693 O 2447.55 -2.67826 0.445111 0
M  V30 25694 C 2446 -2.05321 2.95586 0
M  V30 25695 C 2445.61 -1.32439 4.27976 0
M  V30 25696 C 2447.35 -2.79624 3.19391 0
M  V30 25697 C 2445.26 -2.23808 5.47416 0
M  V30 25698 H 2444.19 -0.424562 0.623108 0
M  V30 25699 H 2446.84 -0.389893 1.7931 0
M  V30 25700 H 2445.22 -2.8272 2.77282 0
M  V30 25701 H 2446.4 -0.602415 4.56845 0
M  V30 25702 H 2444.71 -0.700813 4.1046 0
M  V30 25703 H 2447.31 -3.48174 4.05807 0
M  V30 25704 H 2447.65 -3.43895 2.3461 0
M  V30 25705 H 2448.19 -2.09316 3.38277 0
M  V30 25706 H 2444.92 -1.64146 6.34615 0
M  V30 25707 H 2444.44 -2.93911 5.22854 0
M  V30 25708 H 2446.12 -2.83813 5.81428 0
M  V30 25709 N 2446.26 -1.43835 -0.644143 0
M  V30 25710 C 2447.67 -1.40847 -1.22552 0
M  V30 25711 C 2448.02 -0.11715 -1.9585 0
M  V30 25712 O 2447.14 0.78305 -2.01736 0
M  V30 25713 C 2447.74 -2.55147 -2.22903 0
M  V30 25714 C 2446.3 -2.55395 -2.76497 0
M  V30 25715 C 2445.44 -2.32398 -1.51282 0
M  V30 25716 H 2448.39 -1.52605 -0.435604 0
M  V30 25717 H 2448.42 -2.27155 -3.05255 0
M  V30 25718 H 2447.93 -3.49116 -1.69527 0
M  V30 25719 H 2446.03 -1.6533 -3.33911 0
M  V30 25720 H 2446.14 -3.5346 -3.23423 0
M  V30 25721 H 2444.51 -1.8124 -1.78953 0
M  V30 25722 H 2445.29 -3.28465 -0.998279 0
M  V30 25723 N 2447.73 0.883355 -1.30517 0
M  V30 25724 C 2448.96 1.66839 -1.22362 0
M  V30 25725 C 2449.38 1.87592 0.213263 0
M  V30 25726 O 2448.73 1.42456 1.14072 0
M  V30 25727 C 2448.78 3.04386 -1.95017 0
M  V30 25728 O 2448.51 2.84569 -3.33095 0
M  V30 25729 C 2450.01 3.9882 -1.93539 0
M  V30 25730 H 2447.23 0.520567 -0.42338 0
M  V30 25731 H 2449.77 1.10354 -1.72169 0
M  V30 25732 H 2447.93 3.57598 -1.49004 0
M  V30 25733 H 2448.34 3.71839 -3.69913 0
M  V30 25734 H 2449.81 4.92694 -2.48911 0
M  V30 25735 H 2450.29 4.29569 -0.914702 0
M  V30 25736 H 2450.9 3.51542 -2.3937 0
M  V30 25737 N 2449.21 1.13259 1.09591 0
M  V30 25738 C 2450.14 0.766205 2.16014 0
M  V30 25739 C 2451.16 -0.211274 1.61423 0
M  V30 25740 O 2452.35 0.00867083 1.78498 0
M  V30 25741 C 2449.45 0.114722 3.38706 0
M  V30 25742 C 2448.62 1.12387 4.22715 0
M  V30 25743 C 2447.68 0.498393 5.23834 0
M  V30 25744 O 2446.7 1.15791 5.57298 0
M  V30 25745 N 2447.91 -0.730316 5.75888 0
M  V30 25746 H 2450.67 1.68197 2.48052 0
M  V30 25747 H 2448.23 1.02537 1.25291 0
M  V30 25748 H 2450.22 -0.31592 4.03465 0
M  V30 25749 H 2448.79 -0.703957 3.04571 0
M  V30 25750 H 2448.01 1.73186 3.54119 0
M  V30 25751 H 2449.3 1.80597 4.7567 0
M  V30 25752 H 2448.7 -1.28494 5.50913 0
M  V30 25753 H 2447.26 -1.10365 6.42388 0
M  V30 25754 N 2450.69 -1.27539 0.925834 0
M  V30 25755 C 2451.94 -1.93738 0.561118 0
M  V30 25756 C 2452.25 -1.73579 -0.901654 0
M  V30 25757 O 2453.46 -2.34103 -1.37507 0
M  V30 25758 C 2451.91 -3.47061 0.952729 0
M  V30 25759 C 2451.52 -3.75979 2.43606 0
M  V30 25760 C 2453.27 -4.19351 0.659176 0
M  V30 25761 C 2451.17 -5.22668 2.76716 0
M  V30 25762 H 2450.1 -0.725275 0.206135 0
M  V30 25763 H 2452.75 -1.44861 1.12639 0
M  V30 25764 H 2451.14 -3.94736 0.316123 0
M  V30 25765 H 2452.31 -3.39068 3.12041 0
M  V30 25766 H 2450.62 -3.16888 2.70131 0
M  V30 25767 H 2453.22 -5.27357 0.883077 0
M  V30 25768 H 2453.56 -4.1434 -0.403535 0
M  V30 25769 H 2454.1 -3.77491 1.2548 0
M  V30 25770 H 2450.84 -5.32767 3.81889 0
M  V30 25771 H 2450.36 -5.60733 2.12929 0
M  V30 25772 H 2452.04 -5.90527 2.64361 0
M  V30 25773 N 2452.17 -0.691135 -1.41637 0
M  V30 25774 C 2453.4 -0.229127 -2.05627 0
M  V30 25775 C 2453.81 1.11996 -1.51994 0
M  V30 25776 O 2453.17 1.699 -0.666352 0
M  V30 25777 C 2453.22 -0.173346 -3.61084 0
M  V30 25778 O 2452.94 -1.46914 -4.12732 0
M  V30 25779 C 2454.44 0.310188 -4.42213 0
M  V30 25780 H 2451.66 -0.107545 -0.662325 0
M  V30 25781 H 2454.2 -0.94247 -1.81488 0
M  V30 25782 H 2452.36 0.490791 -3.84279 0
M  V30 25783 H 2452.77 -1.3533 -5.0674 0
M  V30 25784 H 2454.25 0.298099 -5.51194 0
M  V30 25785 H 2454.72 1.3483 -4.17992 0
M  V30 25786 H 2455.33 -0.322791 -4.24073 0
M  V30 25787 N 2453.65 1.51461 -0.435577 0
M  V30 25788 C 2454.56 2.31453 0.38296 0
M  V30 25789 C 2455.57 1.40291 1.02929 0
M  V30 25790 O 2456.75 1.73363 1.02504 0
M  V30 25791 C 2453.81 3.13976 1.47037 0
M  V30 25792 C 2452.87 4.20915 0.844359 0
M  V30 25793 C 2452.11 4.99493 1.87995 0
M  V30 25794 O 2452.33 4.78684 3.10191 0
M  V30 25795 O 2451.26 5.83636 1.47147 0
M  V30 25796 H 2455.09 3.02497 -0.270017 0
M  V30 25797 H 2452.67 1.4808 -0.198156 0
M  V30 25798 H 2454.56 3.65285 2.10107 0
M  V30 25799 H 2453.23 2.45698 2.10746 0
M  V30 25800 H 2452.14 3.73687 0.175663 0
M  V30 25801 H 2453.47 4.91561 0.250782 0
M  V30 25802 N 2455.12 0.166873 1.56714 0
M  V30 25803 C 2456.35 -0.485609 2.0112 0
M  V30 25804 C 2456.77 -1.57104 1.04708 0
M  V30 25805 O 2456.12 -1.82439 0.0472244 0
M  V30 25806 C 2456.18 -1.06802 3.45363 0
M  V30 25807 O 2455.9 -0.0259225 4.38092 0
M  V30 25808 C 2457.4 -1.79917 4.05148 0
M  V30 25809 H 2454.62 -0.124692 0.659312 0
M  V30 25810 H 2457.16 0.267298 2.02746 0
M  V30 25811 H 2455.32 -1.77144 3.44527 0
M  V30 25812 H 2455.73 -0.455306 5.2252 0
M  V30 25813 H 2457.2 -2.15933 5.08013 0
M  V30 25814 H 2457.68 -2.69252 3.46987 0
M  V30 25815 H 2458.29 -1.14226 4.09674 0
M  V30 25816 N 2456.6 -1.57237 -0.106866 0
M  V30 25817 C 2457.55 -2.02217 -1.1494 0
M  V30 25818 C 2458.54 -0.921165 -1.42165 0
M  V30 25819 O 2459.75 -1.10636 -1.41985 0
M  V30 25820 H 2456.13 -0.644276 -0.38783 0
M  V30 25821 H 2458.1 -2.88986 -0.743632 0
M  V30 25822 C 2456.85 -2.45255 -2.46466 0
M  V30 25823 H 2456.17 -3.29549 -2.26358 0
M  V30 25824 H 2457.61 -2.80514 -3.17944 0
M  V30 25825 C 2456.07 -1.32105 -3.09919 0
M  V30 25826 O 2456.6 -0.643691 -3.96509 0
M  V30 25827 N 2454.8 -1.07502 -2.69985 0
M  V30 25828 H 2454.35 -1.62764 -1.99664 0
M  V30 25829 H 2454.31 -0.319931 -3.12768 0
M  V30 25830 N 2458.08 0.377381 -1.53015 0
M  V30 25831 C 2459.36 1.13619 -1.59217 0
M  V30 25832 C 2459.74 2.0742 -0.392444 0
M  V30 25833 O 2459.09 2.19976 0.618303 0
M  V30 25834 C 2459.3 1.88568 -2.93672 0
M  V30 25835 C 2460.64 2.43519 -3.47827 0
M  V30 25836 O 2461.67 1.9871 -2.95623 0
M  V30 25837 O 2460.53 3.25404 -4.39061 0
M  V30 25838 H 2457.62 0.520529 -0.642634 0
M  V30 25839 H 2460.17 0.381596 -1.65354 0
M  V30 25840 H 2458.94 1.20042 -3.72432 0
M  V30 25841 H 2458.56 2.70963 -2.90972 0
M  V30 25842 N 2459.56 1.44175 0.636506 0
M  V30 25843 C 2460.81 1.46385 1.39341 0
M  V30 25844 C 2461.13 0.0956057 1.94765 0
M  V30 25845 O 2460.4 -0.871365 1.75454 0
M  V30 25846 H 2458.98 0.539003 0.517189 0
M  V30 25847 H 2461.64 1.79911 0.749538 0
M  V30 25848 H 2460.74 2.18615 2.22742 0
M  V30 25849 N 2461.04 -0.876421 1.30983 0
M  V30 25850 C 2462.28 -1.63136 1.20477 0
M  V30 25851 C 2462.62 -1.92735 -0.238063 0
M  V30 25852 O 2461.89 -1.55437 -1.16917 0
M  V30 25853 C 2462.17 -2.96571 2.04249 0
M  V30 25854 C 2462.03 -2.7389 3.56797 0
M  V30 25855 C 2463.35 -3.97597 1.88691 0
M  V30 25856 H 2460.46 -0.591978 0.439012 0
M  V30 25857 H 2463.11 -1.01358 1.60706 0
M  V30 25858 H 2461.26 -3.49297 1.70069 0
M  V30 25859 H 2462.93 -2.27885 4.01081 0
M  V30 25860 H 2461.17 -2.08238 3.80551 0
M  V30 25861 H 2461.84 -3.68807 4.10713 0
M  V30 25862 H 2464.32 -3.54059 2.1859 0
M  V30 25863 H 2463.19 -4.88858 2.49619 0
M  V30 25864 H 2463.46 -4.33883 0.848419 0
M  V30 25865 N 2462.51 -1.13839 -1.08989 0
M  V30 25866 C 2463.44 -0.842545 -2.17769 0
M  V30 25867 C 2464.43 0.199981 -1.6892 0
M  V30 25868 O 2465.61 0.0579389 -1.94114 0
M  V30 25869 C 2462.74 -0.312705 -3.45889 0
M  V30 25870 C 2461.69 -1.28999 -4.08097 0
M  V30 25871 C 2461.02 -0.619716 -5.31097 0
M  V30 25872 C 2462.32 -2.65013 -4.50073 0
M  V30 25873 H 2464.01 -1.75217 -2.42774 0
M  V30 25874 H 2461.56 -0.843895 -1.16681 0
M  V30 25875 H 2463.51 -0.0933784 -4.21297 0
M  V30 25876 H 2462.24 0.632326 -3.2042 0
M  V30 25877 H 2460.9 -1.49539 -3.34714 0
M  V30 25878 H 2460.54 0.330931 -5.0191 0
M  V30 25879 H 2460.24 -1.27177 -5.73672 0
M  V30 25880 H 2461.77 -0.409776 -6.09223 0
M  V30 25881 H 2463.18 -2.48416 -5.16684 0
M  V30 25882 H 2461.58 -3.26436 -5.03547 0
M  V30 25883 H 2462.65 -3.22338 -3.62252 0
M  V30 25884 N 2463.99 1.27046 -0.932584 0
M  V30 25885 C 2465.24 1.93438 -0.571385 0
M  V30 25886 C 2465.55 1.74054 0.892436 0
M  V30 25887 O 2466.76 2.34829 1.36263 0
M  V30 25888 C 2465.22 3.46551 -0.971121 0
M  V30 25889 C 2464.82 3.74682 -2.45596 0
M  V30 25890 C 2466.57 4.18995 -0.681406 0
M  V30 25891 C 2464.48 5.21193 -2.79484 0
M  V30 25892 H 2463.41 0.724172 -0.209978 0
M  V30 25893 H 2466.06 1.44261 -1.13406 0
M  V30 25894 H 2464.44 3.94563 -0.337052 0
M  V30 25895 H 2465.61 3.37408 -3.13835 0
M  V30 25896 H 2463.93 3.15451 -2.71808 0
M  V30 25897 H 2466.52 5.26882 -0.911032 0
M  V30 25898 H 2466.87 4.14548 0.381555 0
M  V30 25899 H 2467.4 3.76821 -1.2748 0
M  V30 25900 H 2464.14 5.30735 -3.84709 0
M  V30 25901 H 2463.66 5.59596 -2.159 0
M  V30 25902 H 2465.34 5.89117 -2.67489 0
M  V30 25903 N 2465.47 0.698636 1.41269 0
M  V30 25904 C 2466.72 0.231243 2.01477 0
M  V30 25905 C 2467.05 -1.1671 1.55217 0
M  V30 25906 O 2466.32 -1.78837 0.764703 0
M  V30 25907 C 2466.61 0.292344 3.58911 0
M  V30 25908 C 2466.46 1.72785 4.15289 0
M  V30 25909 C 2467.78 -0.346117 4.38737 0
M  V30 25910 H 2464.9 0.0855006 0.732024 0
M  V30 25911 H 2467.54 0.887936 1.67975 0
M  V30 25912 H 2465.69 -0.266792 3.87583 0
M  V30 25913 H 2467.36 2.34107 3.97482 0
M  V30 25914 H 2465.61 2.26103 3.70216 0
M  V30 25915 H 2466.28 1.72211 5.24449 0
M  V30 25916 H 2468.75 0.130108 4.15897 0
M  V30 25917 H 2467.63 -0.272836 5.48222 0
M  V30 25918 H 2467.89 -1.42727 4.18427 0
M  V30 25919 N 2466.95 -1.51228 0.443603 0
M  V30 25920 C 2467.9 -2.29492 -0.378999 0
M  V30 25921 C 2468.89 -1.35604 -1.01527 0
M  V30 25922 O 2470.1 -1.52918 -0.949523 0
M  V30 25923 H 2466.47 -0.738655 -0.14104 0
M  V30 25924 H 2468.44 -2.96869 0.301851 0
M  V30 25925 C 2467.19 -3.15367 -1.4642 0
M  V30 25926 H 2466.51 -3.87502 -0.983969 0
M  V30 25927 H 2467.95 -3.73173 -2.0129 0
M  V30 25928 C 2466.41 -2.3115 -2.45095 0
M  V30 25929 O 2466.94 -1.97546 -3.49769 0
M  V30 25930 N 2465.15 -1.94252 -2.16135 0
M  V30 25931 H 2464.7 -2.2178 -1.3104 0
M  V30 25932 H 2464.65 -1.38203 -2.82396 0
M  V30 25933 N 2468.43 -0.175182 -1.56623 0
M  V30 25934 C 2469.65 0.474936 -2.01375 0
M  V30 25935 C 2470.07 1.56547 -1.0554 0
M  V30 25936 O 2469.43 1.82411 -0.0568989 0
M  V30 25937 C 2469.48 1.04969 -3.45925 0
M  V30 25938 O 2469.2 0.00268904 -4.381 0
M  V30 25939 C 2470.7 1.77766 -4.06096 0
M  V30 25940 H 2467.92 0.121194 -0.659964 0
M  V30 25941 H 2470.46 -0.278046 -2.02601 0
M  V30 25942 H 2468.62 1.75315 -3.45461 0
M  V30 25943 H 2469.03 0.427589 -5.22754 0
M  V30 25944 H 2470.51 2.13236 -5.09151 0
M  V30 25945 H 2470.98 2.67408 -3.4841 0
M  V30 25946 H 2471.59 1.12052 -4.10274 0
M  V30 25947 N 2469.91 1.57292 0.0985263 0
M  V30 25948 C 2471.13 1.90494 0.820163 0
M  V30 25949 C 2471.56 0.769125 1.71657 0
M  V30 25950 O 2470.91 -0.279463 1.79133 0
M  V30 25951 C 2470.96 3.22545 1.61236 0
M  V30 25952 O 2470.07 3.09893 2.72103 0
M  V30 25953 H 2469.41 0.624524 0.225536 0
M  V30 25954 H 2471.94 2.04463 0.0747799 0
M  V30 25955 H 2471.95 3.55769 1.99731 0
M  V30 25956 H 2470.62 4.048 0.954464 0
M  V30 25957 H 2469.2 2.88177 2.36662 0
M  V30 25958 N 2471.38 -0.369261 1.53213 0
M  V30 25959 C 2472.33 -1.45215 1.79391 0
M  V30 25960 C 2473.3 -1.53355 0.638086 0
M  V30 25961 O 2474.49 -1.69301 0.879882 0
M  V30 25962 C 2471.63 -2.82208 1.98628 0
M  V30 25963 C 2470.74 -2.83064 3.26342 0
M  V30 25964 C 2469.87 -4.11608 3.35786 0
M  V30 25965 C 2468.91 -4.06593 4.57547 0
M  V30 25966 N 2468.05 -5.26779 4.64164 0
M  V30 25967 H 2472.89 -1.22193 2.71796 0
M  V30 25968 H 2470.43 -0.592421 1.34643 0
M  V30 25969 H 2472.38 -3.61785 2.07767 0
M  V30 25970 H 2471.01 -3.03638 1.09563 0
M  V30 25971 H 2470.07 -1.95741 3.26174 0
M  V30 25972 H 2471.38 -2.7523 4.15993 0
M  V30 25973 H 2470.53 -4.996 3.44217 0
M  V30 25974 H 2469.27 -4.22191 2.44144 0
M  V30 25975 H 2468.28 -3.16988 4.4922 0
M  V30 25976 H 2469.5 -3.97615 5.50526 0
M  V30 25977 H 2467.45 -5.37954 3.75422 0
M  V30 25978 H 2467.36 -5.21099 5.47715 0
M  V30 25979 H 2468.63 -6.16613 4.76874 0
M  V30 25980 N 2472.86 -1.4451 -0.628851 0
M  V30 25981 C 2474.09 -1.50681 -1.41346 0
M  V30 25982 C 2474.5 -0.131108 -1.88745 0
M  V30 25983 O 2473.84 0.873681 -1.61594 0
M  V30 25984 C 2473.9 -2.4117 -2.66603 0
M  V30 25985 C 2473.57 -3.88297 -2.40986 0
M  V30 25986 C 2474.57 -4.7877 -2.02672 0
M  V30 25987 C 2472.25 -4.33021 -2.54555 0
M  V30 25988 C 2474.24 -6.11966 -1.78258 0
M  V30 25989 C 2471.93 -5.66264 -2.29756 0
M  V30 25990 C 2472.93 -6.55555 -1.91667 0
M  V30 25991 O 2472.62 -7.86332 -1.67144 0
M  V30 25992 H 2472.35 -0.513337 -0.439842 0
M  V30 25993 H 2474.9 -1.90175 -0.77605 0
M  V30 25994 H 2473.13 -1.96607 -3.3299 0
M  V30 25995 H 2474.82 -2.38264 -3.28611 0
M  V30 25996 H 2475.59 -4.45488 -1.91743 0
M  V30 25997 H 2471.47 -3.63778 -2.83173 0
M  V30 25998 H 2475.01 -6.81621 -1.48453 0
M  V30 25999 H 2470.91 -5.99106 -2.40295 0
M  V30 26000 H 2471.68 -7.98152 -1.81372 0
M  V30 26001 N 2474.34 0.869463 -1.31446 0
M  V30 26002 C 2475.75 1.43824 -1.19044 0
M  V30 26003 C 2476.1 1.95148 0.202884 0
M  V30 26004 O 2475.23 1.86317 1.10067 0
M  V30 26005 C 2475.82 2.61426 -2.15504 0
M  V30 26006 C 2474.38 3.14347 -2.07034 0
M  V30 26007 C 2473.53 1.8706 -2.04705 0
M  V30 26008 H 2476.48 0.677959 -1.4349 0
M  V30 26009 H 2476.5 3.38131 -1.74493 0
M  V30 26010 H 2476.01 2.24041 -3.16903 0
M  V30 26011 H 2474.11 3.56352 -1.08831 0
M  V30 26012 H 2474.23 3.76595 -2.96164 0
M  V30 26013 H 2472.59 2.06043 -1.49727 0
M  V30 26014 H 2473.37 1.51911 -3.0786 0
M  V30 26015 N 2475.82 1.14415 1.08383 0
M  V30 26016 C 2476.77 0.826926 2.17404 0
M  V30 26017 C 2477.76 -0.195283 1.68271 0
M  V30 26018 O 2478.97 -0.0513575 1.79927 0
M  V30 26019 H 2475.34 0.249693 0.709336 0
M  V30 26020 H 2477.31 1.7543 2.41385 0
M  V30 26021 C 2476.06 0.32104 3.46215 0
M  V30 26022 H 2475.38 1.09897 3.84399 0
M  V30 26023 H 2476.82 0.137624 4.23777 0
M  V30 26024 C 2475.28 -0.955415 3.23069 0
M  V30 26025 O 2475.81 -2.02912 3.46684 0
M  V30 26026 N 2474.02 -0.89075 2.76612 0
M  V30 26027 H 2473.57 -0.0168362 2.57594 0
M  V30 26028 H 2473.52 -1.74537 2.61504 0
M  V30 26029 N 2477.3 -1.26549 0.939309 0
M  V30 26030 C 2478.23 -2.24812 0.391742 0
M  V30 26031 C 2479.21 -1.54115 -0.518394 0
M  V30 26032 O 2480.39 -1.82895 -0.456267 0
M  V30 26033 C 2477.52 -3.35865 -0.437323 0
M  V30 26034 C 2476.56 -4.24515 0.411021 0
M  V30 26035 S 2477.4 -5.03122 1.83381 0
M  V30 26036 C 2478.55 -6.17652 1.01274 0
M  V30 26037 H 2478.79 -2.70911 1.22453 0
M  V30 26038 H 2476.32 -1.35386 0.742292 0
M  V30 26039 H 2478.28 -4.00292 -0.909766 0
M  V30 26040 H 2476.94 -2.88382 -1.24477 0
M  V30 26041 H 2476.13 -5.03502 -0.224103 0
M  V30 26042 H 2475.73 -3.64943 0.818078 0
M  V30 26043 H 2478.02 -6.77023 0.254142 0
M  V30 26044 H 2478.97 -6.85466 1.77601 0
M  V30 26045 H 2479.38 -5.61818 0.549631 0
M  V30 26046 N 2478.77 -0.706118 -1.40896 0
M  V30 26047 C 2480 -0.250559 -2.05075 0
M  V30 26048 C 2480.41 1.10919 -1.53277 0
M  V30 26049 O 2479.75 1.70638 -0.680311 0
M  V30 26050 C 2479.82 -0.142242 -3.59218 0
M  V30 26051 C 2479.48 -1.43573 -4.33861 0
M  V30 26052 C 2480.48 -2.37575 -4.62444 0
M  V30 26053 C 2478.16 -1.69203 -4.72943 0
M  V30 26054 C 2480.16 -3.55459 -5.29082 0
M  V30 26055 C 2477.84 -2.87371 -5.39315 0
M  V30 26056 C 2478.84 -3.80322 -5.67313 0
M  V30 26057 O 2478.53 -4.96419 -6.32316 0
M  V30 26058 H 2478.26 -0.112086 -0.666643 0
M  V30 26059 H 2480.82 -0.962271 -1.81465 0
M  V30 26060 H 2479.05 0.625332 -3.8161 0
M  V30 26061 H 2480.73 0.277513 -4.0495 0
M  V30 26062 H 2481.5 -2.19034 -4.32723 0
M  V30 26063 H 2477.38 -0.977121 -4.50526 0
M  V30 26064 H 2480.92 -4.28028 -5.50852 0
M  V30 26065 H 2476.82 -3.05824 -5.68456 0
M  V30 26066 H 2477.59 -4.96372 -6.50813 0
M  V30 26067 N 2480.25 1.50991 -0.451617 0
M  V30 26068 C 2481.5 2.025 0.110202 0
M  V30 26069 C 2481.83 1.33426 1.41107 0
M  V30 26070 O 2481.11 0.453692 1.89135 0
M  V30 26071 C 2481.39 3.58727 0.314208 0
M  V30 26072 C 2481.24 4.38399 -1.00631 0
M  V30 26073 C 2482.56 4.26704 1.07759 0
M  V30 26074 H 2479.68 0.73599 0.0385767 0
M  V30 26075 H 2482.32 1.80496 -0.593406 0
M  V30 26076 H 2480.47 3.77607 0.913535 0
M  V30 26077 H 2482.14 4.31136 -1.64072 0
M  V30 26078 H 2480.39 4.02914 -1.60757 0
M  V30 26079 H 2481.06 5.45914 -0.817437 0
M  V30 26080 H 2483.53 4.1218 0.569788 0
M  V30 26081 H 2482.41 5.35865 1.18911 0
M  V30 26082 H 2482.67 3.88536 2.10932 0
M  V30 26083 N 2481.73 0.183486 1.56528 0
M  V30 26084 C 2483.14 -0.331144 1.8374 0
M  V30 26085 C 2483.49 -1.62209 1.10375 0
M  V30 26086 O 2482.62 -2.13372 0.360747 0
M  V30 26087 C 2483.21 -0.607587 3.33307 0
M  V30 26088 C 2481.77 -1.06662 3.60971 0
M  V30 26089 C 2480.92 -0.10898 2.77086 0
M  V30 26090 H 2483.87 0.407511 1.53379 0
M  V30 26091 H 2483.89 -1.45826 3.51447 0
M  V30 26092 H 2483.4 0.332154 3.86676 0
M  V30 26093 H 2481.5 -2.02104 3.13025 0
M  V30 26094 H 2481.62 -0.967364 4.69232 0
M  V30 26095 H 2479.98 -0.60867 2.4732 0
M  V30 26096 H 2480.76 0.824998 3.3324 0
M  V30 26097 N 2483.21 -1.57342 -0.0901833 0
M  V30 26098 C 2484.45 -1.86613 -0.793949 0
M  V30 26099 C 2484.79 -0.773284 -1.7814 0
M  V30 26100 O 2484.06 0.21827 -1.93271 0
M  V30 26101 C 2484.34 -3.26525 -1.51833 0
M  V30 26102 C 2484.2 -4.46443 -0.548531 0
M  V30 26103 C 2485.52 -3.64405 -2.46773 0
M  V30 26104 H 2482.64 -0.678749 -0.287174 0
M  V30 26105 H 2485.28 -1.89913 -0.0574742 0
M  V30 26106 H 2483.43 -3.23843 -2.14612 0
M  V30 26107 H 2485.1 -4.61243 0.0726324 0
M  V30 26108 H 2483.34 -4.33581 0.13769 0
M  V30 26109 H 2484.01 -5.41078 -1.09262 0
M  V30 26110 H 2486.49 -3.68064 -1.94083 0
M  V30 26111 H 2485.37 -4.63226 -2.94471 0
M  V30 26112 H 2485.63 -2.93352 -3.30753 0
M  V30 26113 N 2484.69 0.36113 -1.53407 0
M  V30 26114 C 2485.93 1.10112 -1.69469 0
M  V30 26115 C 2486.26 1.89704 -0.451385 0
M  V30 26116 O 2485.53 1.88464 0.534602 0
M  V30 26117 H 2484.11 0.409498 -0.624757 0
M  V30 26118 H 2486.77 0.406666 -1.9061 0
M  V30 26119 H 2485.86 1.78843 -2.55777 0
M  V30 26120 N 2486.16 1.44842 0.621179 0
M  V30 26121 C 2487.13 1.52103 1.71457 0
M  V30 26122 C 2488.13 0.40196 1.55695 0
M  V30 26123 O 2489.32 0.664953 1.61009 0
M  V30 26124 C 2486.45 1.40453 3.10622 0
M  V30 26125 H 2487.64 2.49509 1.66389 0
M  V30 26126 H 2485.2 1.32081 0.835721 0
M  V30 26127 H 2485.93 0.441793 3.21277 0
M  V30 26128 H 2485.72 2.21608 3.23469 0
M  V30 26129 H 2487.21 1.48537 3.9029 0
M  V30 26130 N 2487.64 -0.862479 1.31905 0
M  V30 26131 C 2488.89 -1.61849 1.222 0
M  V30 26132 C 2489.22 -1.92977 -0.217607 0
M  V30 26133 O 2488.5 -1.56668 -1.15262 0
M  V30 26134 C 2488.78 -2.94388 2.07384 0
M  V30 26135 C 2488.63 -2.7009 3.59682 0
M  V30 26136 C 2489.95 -3.95574 1.92898 0
M  V30 26137 H 2487.07 -0.587288 0.445266 0
M  V30 26138 H 2489.71 -0.996481 1.61772 0
M  V30 26139 H 2487.86 -3.47474 1.73765 0
M  V30 26140 H 2489.53 -2.23618 4.03476 0
M  V30 26141 H 2487.78 -2.0419 3.82739 0
M  V30 26142 H 2488.45 -3.6443 4.14602 0
M  V30 26143 H 2490.92 -3.5172 2.22333 0
M  V30 26144 H 2489.8 -4.86183 2.5479 0
M  V30 26145 H 2490.06 -4.32958 0.894391 0
M  V30 26146 N 2489.12 -1.14988 -1.07775 0
M  V30 26147 C 2490.35 -0.945805 -1.84017 0
M  V30 26148 C 2490.76 0.505831 -1.81898 0
M  V30 26149 O 2490.12 1.3507 -1.22729 0
M  V30 26150 C 2490.17 -1.44683 -3.31284 0
M  V30 26151 O 2489.89 -2.8416 -3.33444 0
M  V30 26152 C 2491.39 -1.28362 -4.24309 0
M  V30 26153 H 2488.61 -0.336179 -0.580711 0
M  V30 26154 H 2491.16 -1.52657 -1.36074 0
M  V30 26155 H 2489.31 -0.908691 -3.76592 0
M  V30 26156 H 2489.73 -3.06785 -4.25422 0
M  V30 26157 H 2491.2 -1.6827 -5.25727 0
M  V30 26158 H 2491.68 -0.227261 -4.38612 0
M  V30 26159 H 2492.28 -1.81063 -3.84833 0
M  V30 26160 N 2490.6 1.26049 -0.946007 0
M  V30 26161 C 2491.51 2.29932 -0.465673 0
M  V30 26162 C 2492.52 1.67734 0.462731 0
M  V30 26163 O 2493.7 1.98491 0.341083 0
M  V30 26164 C 2490.77 3.45747 0.256933 0
M  V30 26165 C 2489.83 4.23411 -0.708623 0
M  V30 26166 C 2489.06 5.33696 -0.0204074 0
M  V30 26167 O 2489.28 5.57729 1.19562 0
M  V30 26168 O 2488.22 5.97797 -0.701564 0
M  V30 26169 H 2492.04 2.73092 -1.32871 0
M  V30 26170 H 2489.63 1.31338 -0.712094 0
M  V30 26171 H 2491.51 4.16139 0.663779 0
M  V30 26172 H 2490.18 3.04607 1.09528 0
M  V30 26173 H 2489.09 3.55481 -1.16551 0
M  V30 26174 H 2490.42 4.68313 -1.51473 0
M  V30 26175 N 2492.08 0.71358 1.4052 0
M  V30 26176 C 2493.01 0.0203529 2.29191 0
M  V30 26177 C 2494.02 -0.725838 1.45724 0
M  V30 26178 O 2495.21 -0.573551 1.69034 0
M  V30 26179 C 2492.31 -0.995429 3.23951 0
M  V30 26180 C 2491.48 -0.315179 4.36263 0
M  V30 26181 C 2490.54 -1.23607 5.11476 0
M  V30 26182 O 2489.57 -0.721619 5.64607 0
M  V30 26183 N 2490.77 -2.56733 5.20642 0
M  V30 26184 H 2493.54 0.781702 2.89326 0
M  V30 26185 H 2491.1 0.561048 1.51868 0
M  V30 26186 H 2493.09 -1.61362 3.71139 0
M  V30 26187 H 2491.66 -1.65816 2.64998 0
M  V30 26188 H 2490.88 0.483175 3.91228 0
M  V30 26189 H 2492.17 0.157093 5.08557 0
M  V30 26190 H 2491.56 -3.01029 4.78955 0
M  V30 26191 H 2490.12 -3.13701 5.71345 0
M  V30 26192 N 2493.55 -1.50749 0.459618 0
M  V30 26193 C 2494.8 -2.01857 -0.0991177 0
M  V30 26194 C 2495.12 -1.34443 -1.41245 0
M  V30 26195 O 2494.39 -0.486055 -1.89774 0
M  V30 26196 H 2492.97 -0.745949 -0.0396199 0
M  V30 26197 H 2495.64 -1.85193 0.60742 0
M  V30 26198 H 2494.73 -3.11024 -0.258943 0
M  V30 26199 N 2495.03 -0.191784 -1.56429 0
M  V30 26200 C 2496.26 0.452893 -2.01575 0
M  V30 26201 C 2496.67 1.55962 -1.0711 0
M  V30 26202 O 2496.01 1.83576 -0.0675663 0
M  V30 26203 C 2496.08 1.07272 -3.43122 0
M  V30 26204 C 2495.74 0.105134 -4.56879 0
M  V30 26205 C 2496.74 -0.684239 -5.15378 0
M  V30 26206 C 2494.42 -0.00498653 -5.023 0
M  V30 26207 C 2496.42 -1.57073 -6.17743 0
M  V30 26208 C 2494.1 -0.895041 -6.0451 0
M  V30 26209 C 2495.1 -1.67648 -6.62105 0
M  V30 26210 O 2494.79 -2.55163 -7.6233 0
M  V30 26211 H 2494.52 0.118368 -0.665556 0
M  V30 26212 H 2497.07 -0.296773 -2.03245 0
M  V30 26213 H 2495.3 1.87091 -3.38429 0
M  V30 26214 H 2496.99 1.6217 -3.72096 0
M  V30 26215 H 2497.76 -0.609449 -4.81156 0
M  V30 26216 H 2493.64 0.593075 -4.57169 0
M  V30 26217 H 2497.18 -2.18112 -6.62626 0
M  V30 26218 H 2493.08 -0.970959 -6.38156 0
M  V30 26219 H 2493.85 -2.48905 -7.79736 0
M  V30 26220 N 2496.51 1.57387 0.0818378 0
M  V30 26221 C 2497.44 2.0603 1.09881 0
M  V30 26222 C 2498.42 0.951798 1.40978 0
M  V30 26223 O 2499.61 1.2239 1.50779 0
M  V30 26224 C 2496.74 2.49584 2.41506 0
M  V30 26225 C 2495.69 3.64219 2.24786 0
M  V30 26226 C 2495.02 3.93793 3.61705 0
M  V30 26227 C 2496.32 4.94632 1.6774 0
M  V30 26228 H 2498.01 2.91244 0.694077 0
M  V30 26229 H 2495.56 1.4011 0.332424 0
M  V30 26230 H 2497.51 2.82224 3.12934 0
M  V30 26231 H 2496.23 1.61386 2.8394 0
M  V30 26232 H 2494.89 3.31846 1.55801 0
M  V30 26233 H 2494.54 3.02743 4.01691 0
M  V30 26234 H 2494.24 4.70978 3.5136 0
M  V30 26235 H 2495.76 4.28921 4.34579 0
M  V30 26236 H 2497.18 5.25568 2.29023 0
M  V30 26237 H 2495.58 5.7607 1.68118 0
M  V30 26238 H 2496.65 4.80685 0.637975 0
M  V30 26239 N 2497.99 -0.35299 1.53596 0
M  V30 26240 C 2498.94 -1.45332 1.81608 0
M  V30 26241 C 2499.93 -1.54891 0.685951 0
M  V30 26242 O 2501.14 -1.57627 0.869123 0
M  V30 26243 H 2497.51 -0.484391 0.575212 0
M  V30 26244 H 2499.48 -1.18916 2.73681 0
M  V30 26245 C 2498.23 -2.81992 2.03411 0
M  V30 26246 H 2497.55 -2.754 2.89818 0
M  V30 26247 H 2498.99 -3.58128 2.26981 0
M  V30 26248 C 2497.45 -3.26847 0.816851 0
M  V30 26249 O 2497.98 -4.01698 0.0116562 0
M  V30 26250 N 2496.19 -2.83538 0.636732 0
M  V30 26251 H 2495.74 -2.22791 1.29313 0
M  V30 26252 H 2495.69 -3.13905 -0.17628 0
M  V30 26253 N 2499.47 -1.45169 -0.613489 0
M  V30 26254 C 2500.4 -1.56228 -1.73537 0
M  V30 26255 C 2501.38 -0.414169 -1.64981 0
M  V30 26256 O 2502.56 -0.636558 -1.83471 0
M  V30 26257 C 2499.69 -1.523 -3.12125 0
M  V30 26258 C 2498.65 -2.65768 -3.35487 0
M  V30 26259 C 2497.97 -2.46893 -4.74287 0
M  V30 26260 C 2499.27 -4.07816 -3.26318 0
M  V30 26261 H 2500.97 -2.50135 -1.64538 0
M  V30 26262 H 2498.51 -1.20384 -0.790164 0
M  V30 26263 H 2500.47 -1.58635 -3.90401 0
M  V30 26264 H 2499.19 -0.549195 -3.21949 0
M  V30 26265 H 2497.85 -2.58852 -2.59598 0
M  V30 26266 H 2497.5 -1.47665 -4.80837 0
M  V30 26267 H 2497.2 -3.22981 -4.90874 0
M  V30 26268 H 2498.72 -2.55073 -5.5477 0
M  V30 26269 H 2500.14 -4.16007 -3.94476 0
M  V30 26270 H 2498.53 -4.84247 -3.54437 0
M  V30 26271 H 2499.6 -4.3014 -2.23847 0
M  V30 26272 N 2500.95 0.855472 -1.32361 0
M  V30 26273 C 2502.19 1.60642 -1.22632 0
M  V30 26274 C 2502.51 1.93843 0.212102 0
M  V30 26275 O 2501.78 1.59554 1.13663 0
M  V30 26276 H 2500.36 0.595571 -0.450893 0
M  V30 26277 H 2503.03 1.02334 -1.65873 0
M  V30 26278 H 2502.12 2.54371 -1.80836 0
M  V30 26279 N 2502.42 1.15558 1.07164 0
M  V30 26280 C 2503.67 0.929795 1.79441 0
M  V30 26281 C 2503.99 -0.544381 1.87247 0
M  V30 26282 O 2503.26 -1.39562 1.37475 0
M  V30 26283 H 2501.84 0.341014 0.664619 0
M  V30 26284 H 2504.5 1.45659 1.29497 0
M  V30 26285 H 2503.6 1.34084 2.8183 0
M  V30 26286 N 2503.9 -1.25546 0.952678 0
M  V30 26287 C 2505.32 -1.45459 0.656794 0
M  V30 26288 C 2505.52 -1.85525 -0.786298 0
M  V30 26289 O 2504.57 -1.98404 -1.56179 0
M  V30 26290 C 2505.89 -2.52814 1.62805 0
M  V30 26291 C 2507.43 -2.66656 1.63902 0
M  V30 26292 C 2507.91 -3.77193 2.59787 0
M  V30 26293 N 2509.4 -3.84601 2.5814 0
M  V30 26294 C 2510.14 -4.69616 3.29012 0
M  V30 26295 N 2509.63 -5.58932 4.09349 0
M  V30 26296 N 2511.42 -4.63563 3.17908 0
M  V30 26297 H 2503.58 -0.978311 1.88528 0
M  V30 26298 H 2505.84 -0.491192 0.810823 0
M  V30 26299 H 2505.54 -2.30227 2.65873 0
M  V30 26300 H 2505.42 -3.50693 1.38904 0
M  V30 26301 H 2507.81 -2.88609 0.615532 0
M  V30 26302 H 2507.89 -1.69183 1.91861 0
M  V30 26303 H 2507.53 -3.55991 3.62261 0
M  V30 26304 H 2507.46 -4.74146 2.29113 0
M  V30 26305 H 2509.95 -3.20753 1.99815 0
M  V30 26306 H 2510.26 -6.20723 4.60351 0
M  V30 26307 H 2508.61 -5.58647 4.13448 0
M  V30 26308 H 2511.8 -3.92794 2.54619 0
M  V30 26309 H 2511.97 -5.29595 3.73407 0
M  V30 26310 N 2505.38 -0.721022 -1.40139 0
M  V30 26311 C 2506.31 -0.0325072 -2.29177 0
M  V30 26312 C 2507.32 0.7181 -1.46107 0
M  V30 26313 O 2508.51 0.564578 -1.69336 0
M  V30 26314 C 2505.61 0.978235 -3.24475 0
M  V30 26315 C 2504.79 0.292039 -4.36424 0
M  V30 26316 C 2503.85 1.20892 -5.12124 0
M  V30 26317 O 2502.87 0.691667 -5.64982 0
M  V30 26318 N 2504.07 2.53969 -5.21996 0
M  V30 26319 H 2506.84 -0.797035 -2.88907 0
M  V30 26320 H 2504.4 -0.569094 -1.51568 0
M  V30 26321 H 2506.39 1.59391 -3.7199 0
M  V30 26322 H 2504.96 1.64408 -2.65874 0
M  V30 26323 H 2504.18 -0.503916 -3.90966 0
M  V30 26324 H 2505.47 -0.184061 -5.08467 0
M  V30 26325 H 2504.87 2.98484 -4.80545 0
M  V30 26326 H 2503.42 3.10667 -5.73 0
M  V30 26327 N 2506.86 1.50503 -0.467606 0
M  V30 26328 C 2508.09 2.0672 0.086377 0
M  V30 26329 C 2508.5 1.33186 1.33817 0
M  V30 26330 O 2507.86 0.400114 1.7806 0
M  V30 26331 C 2507.91 3.59518 0.378016 0
M  V30 26332 O 2507.63 4.30279 -0.82412 0
M  V30 26333 C 2509.13 4.32347 0.97935 0
M  V30 26334 H 2506.35 0.670977 -0.00552876 0
M  V30 26335 H 2508.89 1.93713 -0.655388 0
M  V30 26336 H 2507.05 3.72339 1.06971 0
M  V30 26337 H 2507.46 5.21431 -0.566609 0
M  V30 26338 H 2508.94 5.40243 1.1332 0
M  V30 26339 H 2509.41 3.92614 1.96853 0
M  V30 26340 H 2510.02 4.24048 0.326141 0
M  V30 26341 N 2508.34 0.200077 1.56325 0
M  V30 26342 C 2509.3 -0.705094 2.18085 0
M  V30 26343 C 2510.3 -1.13738 1.13668 0
M  V30 26344 O 2511.49 -1.04966 1.39025 0
M  V30 26345 C 2508.62 -1.96324 2.78693 0
M  V30 26346 H 2509.81 -0.16697 2.99435 0
M  V30 26347 H 2507.37 -0.049545 1.56221 0
M  V30 26348 H 2508.1 -2.54376 2.01155 0
M  V30 26349 H 2507.89 -1.66196 3.55136 0
M  V30 26350 H 2509.38 -2.60861 3.261 0
M  V30 26351 N 2509.81 -1.57429 -0.0734901 0
M  V30 26352 C 2511.23 -1.53747 -0.428237 0
M  V30 26353 C 2511.43 -0.920011 -1.79271 0
M  V30 26354 O 2510.49 -0.521788 -2.4705 0
M  V30 26355 C 2511.8 -2.98404 -0.370862 0
M  V30 26356 C 2513.35 -3.09731 -0.45117 0
M  V30 26357 C 2513.82 -4.56036 -0.42372 0
M  V30 26358 N 2515.31 -4.60666 -0.483844 0
M  V30 26359 C 2516.05 -5.71347 -0.48479 0
M  V30 26360 N 2515.54 -6.91397 -0.440653 0
M  V30 26361 N 2517.34 -5.59584 -0.531221 0
M  V30 26362 H 2509.49 -1.95934 0.819983 0
M  V30 26363 H 2511.75 -0.89674 0.307509 0
M  V30 26364 H 2511.46 -3.47132 0.565017 0
M  V30 26365 H 2511.33 -3.58212 -1.1817 0
M  V30 26366 H 2513.72 -2.60978 -1.37747 0
M  V30 26367 H 2513.8 -2.52837 0.388211 0
M  V30 26368 H 2513.44 -5.05445 0.498727 0
M  V30 26369 H 2513.37 -5.10791 -1.28061 0
M  V30 26370 H 2515.86 -3.74274 -0.522272 0
M  V30 26371 H 2516.18 -7.71516 -0.445254 0
M  V30 26372 H 2514.52 -6.93805 -0.407368 0
M  V30 26373 H 2517.71 -4.64697 -0.563383 0
M  V30 26374 H 2517.89 -6.45841 -0.528489 0
M  V30 26375 N 2511.29 0.344839 -1.53781 0
M  V30 26376 C 2512.52 1.10531 -1.74901 0
M  V30 26377 C 2512.93 1.82396 -0.487566 0
M  V30 26378 O 2512.29 1.74306 0.54071 0
M  V30 26379 C 2512.34 2.11979 -2.92826 0
M  V30 26380 O 2512.06 1.43037 -4.14092 0
M  V30 26381 C 2513.56 3.00412 -3.25987 0
M  V30 26382 H 2510.78 0.329668 -0.584431 0
M  V30 26383 H 2513.33 0.397439 -2.00601 0
M  V30 26384 H 2511.48 2.78333 -2.69462 0
M  V30 26385 H 2511.9 2.10797 -4.80276 0
M  V30 26386 H 2513.37 3.67532 -4.11854 0
M  V30 26387 H 2513.85 3.66359 -2.42235 0
M  V30 26388 H 2514.45 2.39648 -3.51353 0
M  V30 26389 N 2512.77 1.45492 0.605781 0
M  V30 26390 C 2513.7 1.57146 1.72706 0
M  V30 26391 C 2514.68 0.422913 1.64759 0
M  V30 26392 O 2515.87 0.646279 1.83131 0
M  V30 26393 C 2513 1.53953 3.11313 0
M  V30 26394 C 2511.95 2.67543 3.34073 0
M  V30 26395 C 2511.28 2.49405 4.72971 0
M  V30 26396 C 2512.58 4.09541 3.24151 0
M  V30 26397 H 2514.27 2.51004 1.6321 0
M  V30 26398 H 2511.82 1.20802 0.783769 0
M  V30 26399 H 2513.77 1.60703 3.89554 0
M  V30 26400 H 2512.49 0.566261 3.21654 0
M  V30 26401 H 2511.15 2.60225 2.58222 0
M  V30 26402 H 2510.8 1.50213 4.80047 0
M  V30 26403 H 2510.5 3.25579 4.89154 0
M  V30 26404 H 2512.02 2.58011 5.5341 0
M  V30 26405 H 2513.44 4.18093 3.92264 0
M  V30 26406 H 2511.83 4.86119 3.51863 0
M  V30 26407 H 2512.9 4.31321 2.21563 0
M  V30 26408 N 2514.25 -0.848441 1.32813 0
M  V30 26409 C 2515.18 -1.9616 1.16604 0
M  V30 26410 C 2516.16 -1.62474 0.063914 0
M  V30 26411 O 2517.34 -1.8716 0.22438 0
M  V30 26412 C 2514.47 -3.29444 0.786391 0
M  V30 26413 C 2513.52 -3.82106 1.89465 0
M  V30 26414 S 2514.35 -4.04943 3.50402 0
M  V30 26415 C 2515.51 -5.41192 3.14423 0
M  V30 26416 H 2515.74 -2.09608 2.10836 0
M  V30 26417 H 2513.27 -1.00113 1.17545 0
M  V30 26418 H 2515.23 -4.06465 0.574116 0
M  V30 26419 H 2513.89 -3.138 -0.137163 0
M  V30 26420 H 2513.08 -4.78523 1.58215 0
M  V30 26421 H 2512.69 -3.11949 2.0631 0
M  V30 26422 H 2514.98 -6.23671 2.64653 0
M  V30 26423 H 2515.92 -5.77409 4.09884 0
M  V30 26424 H 2516.33 -5.05491 2.51275 0
M  V30 26425 N 2515.73 -1.16125 -1.06549 0
M  V30 26426 C 2516.96 -0.96387 -1.82738 0
M  V30 26427 C 2517.36 0.491196 -1.82713 0
M  V30 26428 O 2516.71 1.35263 -1.24296 0
M  V30 26429 C 2516.77 -1.41112 -3.30647 0
M  V30 26430 C 2516.43 -2.88556 -3.54379 0
M  V30 26431 C 2517.43 -3.86575 -3.47643 0
M  V30 26432 C 2515.12 -3.26415 -3.81784 0
M  V30 26433 C 2517.11 -5.20456 -3.67973 0
M  V30 26434 C 2514.8 -4.60466 -4.01764 0
M  V30 26435 C 2515.79 -5.57295 -3.94856 0
M  V30 26436 O 2515.48 -6.88923 -4.14294 0
M  V30 26437 H 2515.21 -0.341959 -0.58313 0
M  V30 26438 H 2517.77 -1.54499 -1.35348 0
M  V30 26439 H 2516 -0.773461 -3.78886 0
M  V30 26440 H 2517.69 -1.18157 -3.88322 0
M  V30 26441 H 2518.45 -3.58673 -3.26464 0
M  V30 26442 H 2514.33 -2.51626 -3.86271 0
M  V30 26443 H 2517.88 -5.96022 -3.62497 0
M  V30 26444 H 2513.77 -4.8808 -4.22432 0
M  V30 26445 H 2514.54 -6.95461 -4.31597 0
M  V30 26446 N 2517.2 1.25039 -0.959323 0
M  V30 26447 C 2518.15 2.27709 -0.474477 0
M  V30 26448 C 2519.15 1.631 0.457668 0
M  V30 26449 O 2520.35 1.76876 0.333881 0
M  V30 26450 H 2516.73 0.739792 -0.134949 0
M  V30 26451 H 2518.7 2.65986 -1.35256 0
M  V30 26452 C 2517.45 3.46953 0.227823 0
M  V30 26453 H 2516.77 3.96904 -0.480317 0
M  V30 26454 H 2518.21 4.20662 0.531017 0
M  V30 26455 C 2516.67 3.04007 1.45194 0
M  V30 26456 O 2517.2 3.1043 2.54943 0
M  V30 26457 N 2515.41 2.59146 1.31497 0
M  V30 26458 H 2514.95 2.5412 0.422021 0
M  V30 26459 H 2514.91 2.30777 2.13517 0
M  V30 26460 N 2518.68 0.728444 1.39755 0
M  V30 26461 C 2519.93 0.273522 2.00644 0
M  V30 26462 C 2520.26 -1.13725 1.57788 0
M  V30 26463 O 2519.51 -1.78828 0.794918 0
M  V30 26464 C 2519.81 0.315839 3.56002 0
M  V30 26465 C 2519.48 1.6787 4.18486 0
M  V30 26466 C 2518.14 2.05174 4.35267 0
M  V30 26467 C 2520.49 2.57383 4.53214 0
M  V30 26468 C 2517.82 3.31511 4.84063 0
M  V30 26469 C 2520.17 3.83086 5.03416 0
M  V30 26470 C 2518.84 4.2049 5.18405 0
M  V30 26471 H 2518.11 0.100089 0.734209 0
M  V30 26472 H 2520.75 0.934001 1.67179 0
M  V30 26473 H 2519.06 -0.428216 3.89453 0
M  V30 26474 H 2520.75 -0.054187 4.00963 0
M  V30 26475 H 2517.34 1.37865 4.05822 0
M  V30 26476 H 2521.53 2.29835 4.39874 0
M  V30 26477 H 2516.78 3.60443 4.93853 0
M  V30 26478 H 2520.96 4.52608 5.29262 0
M  V30 26479 H 2518.59 5.18452 5.55978 0
M  V30 26480 N 2520.16 -1.50253 0.475581 0
M  V30 26481 C 2521.57 -1.86688 0.0215502 0
M  V30 26482 C 2521.92 -1.39003 -1.38465 0
M  V30 26483 O 2521.05 -0.75693 -2.0273 0
M  V30 26484 C 2521.64 -3.38785 0.032331 0
M  V30 26485 C 2520.2 -3.74614 -0.366248 0
M  V30 26486 C 2519.35 -2.74164 0.415881 0
M  V30 26487 H 2522.3 -1.42932 0.689637 0
M  V30 26488 H 2522.32 -3.72652 -0.768824 0
M  V30 26489 H 2521.83 -3.7346 1.0559 0
M  V30 26490 H 2519.93 -3.45541 -1.394 0
M  V30 26491 H 2520.05 -4.79057 -0.0644708 0
M  V30 26492 H 2518.41 -2.54363 -0.131003 0
M  V30 26493 H 2519.19 -3.11683 1.43905 0
M  V30 26494 N 2521.64 -0.208365 -1.56217 0
M  V30 26495 C 2522.87 0.432114 -2.02337 0
M  V30 26496 C 2523.28 1.54273 -1.08837 0
M  V30 26497 O 2522.64 1.8225 -0.0955782 0
M  V30 26498 C 2522.69 0.976077 -3.48073 0
M  V30 26499 O 2522.41 -0.090239 -4.38007 0
M  V30 26500 C 2523.91 1.69112 -4.09776 0
M  V30 26501 H 2521.13 0.107168 -0.662387 0
M  V30 26502 H 2523.68 -0.320958 -2.01966 0
M  V30 26503 H 2521.83 1.67948 -3.49102 0
M  V30 26504 H 2522.24 0.316609 -5.23544 0
M  V30 26505 H 2523.72 2.02388 -5.13559 0
M  V30 26506 H 2524.2 2.59958 -3.54004 0
M  V30 26507 H 2524.8 1.03325 -4.12558 0
M  V30 26508 N 2523.12 1.57465 0.0651402 0
M  V30 26509 C 2524.53 1.53972 0.420078 0
M  V30 26510 C 2524.73 0.929505 1.7878 0
M  V30 26511 O 2523.79 0.534883 2.4677 0
M  V30 26512 C 2525.1 2.98597 0.355032 0
M  V30 26513 C 2526.65 3.09966 0.434738 0
M  V30 26514 C 2527.12 4.56254 0.399529 0
M  V30 26515 N 2528.62 4.60916 0.459407 0
M  V30 26516 C 2529.35 5.71596 0.454484 0
M  V30 26517 N 2528.85 6.91621 0.403981 0
M  V30 26518 N 2530.64 5.59858 0.501537 0
M  V30 26519 H 2522.79 1.95496 -0.830362 0
M  V30 26520 H 2525.05 0.895096 -0.31226 0
M  V30 26521 H 2524.76 3.46827 -0.583418 0
M  V30 26522 H 2524.63 3.58833 1.16269 0
M  V30 26523 H 2527.02 2.61705 1.36361 0
M  V30 26524 H 2527.1 2.52628 -0.401614 0
M  V30 26525 H 2526.75 5.05174 -0.525525 0
M  V30 26526 H 2526.68 5.11463 1.2535 0
M  V30 26527 H 2529.17 3.74545 0.502416 0
M  V30 26528 H 2529.48 7.71742 0.404333 0
M  V30 26529 H 2527.82 6.94011 0.370568 0
M  V30 26530 H 2531.02 4.6499 0.538731 0
M  V30 26531 H 2531.19 6.46112 0.494231 0
M  V30 26532 N 2524.59 -0.336679 1.53962 0
M  V30 26533 C 2525.56 -1.39672 1.81726 0
M  V30 26534 C 2526.56 -1.45312 0.688558 0
M  V30 26535 O 2527.75 -1.45568 0.956854 0
M  V30 26536 C 2524.88 -2.78535 1.96548 0
M  V30 26537 H 2526.07 -1.16314 2.76426 0
M  V30 26538 H 2523.63 -0.571448 1.45479 0
M  V30 26539 H 2524.36 -3.07167 1.04015 0
M  V30 26540 H 2524.15 -2.75836 2.7867 0
M  V30 26541 H 2525.64 -3.55246 2.19522 0
M  V30 26542 N 2526.07 -1.45812 -0.598057 0
M  V30 26543 C 2527.32 -1.50028 -1.3541 0
M  V30 26544 C 2527.64 -0.147211 -1.94444 0
M  V30 26545 O 2526.91 0.82454 -1.77702 0
M  V30 26546 H 2525.49 -0.552526 -0.502717 0
M  V30 26547 H 2528.15 -1.81835 -0.701574 0
M  V30 26548 H 2527.25 -2.24444 -2.16867 0
M  V30 26549 N 2527.55 0.841385 -1.33261 0
M  V30 26550 C 2528.48 1.95802 -1.19139 0
M  V30 26551 C 2529.5 1.62335 -0.122994 0
M  V30 26552 O 2530.68 1.74555 -0.373185 0
M  V30 26553 C 2527.78 3.29217 -0.804326 0
M  V30 26554 C 2526.96 3.90836 -1.96383 0
M  V30 26555 C 2526.02 5.02601 -1.55815 0
M  V30 26556 O 2525.04 5.21884 -2.27213 0
M  V30 26557 N 2526.24 5.78661 -0.461711 0
M  V30 26558 H 2529.01 2.08454 -2.1533 0
M  V30 26559 H 2526.57 1.01698 -1.25973 0
M  V30 26560 H 2528.56 4.01409 -0.515081 0
M  V30 26561 H 2527.13 3.12529 0.0668259 0
M  V30 26562 H 2526.35 3.11265 -2.41884 0
M  V30 26563 H 2527.64 4.28737 -2.73974 0
M  V30 26564 H 2527.04 5.65545 0.132243 0
M  V30 26565 H 2525.6 6.51387 -0.232128 0
M  V30 26566 N 2529.03 1.16688 1.05932 0
M  V30 26567 C 2530.27 0.961377 1.8038 0
M  V30 26568 C 2530.63 -0.501611 1.85332 0
M  V30 26569 O 2531.83 -0.825941 2.55796 0
M  V30 26570 C 2530.11 1.57602 3.20775 0
M  V30 26571 S 2531.66 1.51567 4.11792 0
M  V30 26572 H 2528.48 0.345652 0.621326 0
M  V30 26573 H 2531.08 1.48499 1.27154 0
M  V30 26574 H 2529.79 2.63342 3.14768 0
M  V30 26575 H 2529.32 1.05189 3.79076 0
M  V30 26576 H 2531.33 0.51846 4.93484 0
M  V30 26577 N 2530.51 -1.24529 0.96594 0
M  V30 26578 C 2531.76 -1.92173 0.625627 0
M  V30 26579 C 2532.08 -1.75903 -0.841621 0
M  V30 26580 O 2531.35 -1.12951 -1.60059 0
M  V30 26581 H 2529.93 -0.711226 0.228401 0
M  V30 26582 H 2532.59 -1.51459 1.22663 0
M  V30 26583 H 2531.68 -2.99882 0.864706 0
M  V30 26584 N 2531.99 -0.735845 -1.39367 0
M  V30 26585 C 2533.23 -0.283597 -2.001 0
M  V30 26586 C 2533.55 1.13335 -1.58682 0
M  V30 26587 O 2532.82 1.77192 -0.835454 0
M  V30 26588 H 2531.4 -0.101864 -0.740022 0
M  V30 26589 H 2534.07 -0.945992 -1.70402 0
M  V30 26590 H 2533.16 -0.332658 -3.10322 0
M  V30 26591 N 2533.46 1.49999 -0.483543 0
M  V30 26592 C 2534.71 2.02689 0.0672236 0
M  V30 26593 C 2535.04 1.36389 1.38245 0
M  V30 26594 O 2534.32 0.493708 1.8813 0
M  V30 26595 C 2534.6 3.59312 0.238046 0
M  V30 26596 C 2534.45 4.36166 -1.09907 0
M  V30 26597 C 2535.77 4.28893 0.98684 0
M  V30 26598 H 2532.89 0.736642 0.0229566 0
M  V30 26599 H 2535.53 1.79196 -0.631558 0
M  V30 26600 H 2533.68 3.79459 0.833233 0
M  V30 26601 H 2535.36 4.27559 -1.7318 0
M  V30 26602 H 2533.6 3.99413 -1.69268 0
M  V30 26603 H 2534.27 5.44057 -0.93305 0
M  V30 26604 H 2536.75 4.13296 0.48223 0
M  V30 26605 H 2535.62 5.38267 1.07518 0
M  V30 26606 H 2535.88 3.92923 2.02643 0
M  V30 26607 N 2534.94 0.216646 1.56104 0
M  V30 26608 C 2536.19 -0.41671 1.97348 0
M  V30 26609 C 2536.5 -1.61248 1.10718 0
M  V30 26610 O 2537.71 -2.31503 1.4184 0
M  V30 26611 C 2536.17 -0.792773 3.5106 0
M  V30 26612 C 2535.77 0.379907 4.46386 0
M  V30 26613 C 2537.52 -1.39201 4.01028 0
M  V30 26614 C 2535.42 -0.0183183 5.91397 0
M  V30 26615 H 2534.35 -0.159462 0.736945 0
M  V30 26616 H 2537.01 0.312082 1.80827 0
M  V30 26617 H 2535.39 -1.57885 3.63164 0
M  V30 26618 H 2536.56 1.15745 4.46027 0
M  V30 26619 H 2534.88 0.89205 4.06733 0
M  V30 26620 H 2537.47 -1.70277 5.06863 0
M  V30 26621 H 2537.82 -2.30608 3.46591 0
M  V30 26622 H 2538.35 -0.669469 3.92126 0
M  V30 26623 H 2535.09 0.862116 6.49806 0
M  V30 26624 H 2534.61 -0.76028 5.94962 0
M  V30 26625 H 2536.29 -0.446705 6.45456 0
M  V30 26626 N 2536.42 -1.57498 -0.0567885 0
M  V30 26627 C 2537.65 -1.92214 -0.765592 0
M  V30 26628 C 2538.06 -0.813991 -1.70351 0
M  V30 26629 O 2537.42 0.211669 -1.81268 0
M  V30 26630 C 2537.47 -3.26753 -1.54644 0
M  V30 26631 O 2537.19 -4.33308 -0.646202 0
M  V30 26632 C 2538.69 -3.75579 -2.3549 0
M  V30 26633 H 2535.91 -0.635003 -0.216824 0
M  V30 26634 H 2538.46 -2.04488 -0.0225787 0
M  V30 26635 H 2536.61 -3.15961 -2.24159 0
M  V30 26636 H 2537.03 -5.10802 -1.19084 0
M  V30 26637 H 2538.5 -4.72304 -2.85714 0
M  V30 26638 H 2538.98 -3.0535 -3.15687 0
M  V30 26639 H 2539.58 -3.89363 -1.71103 0
M  V30 26640 N 2537.9 0.328509 -1.54138 0
M  V30 26641 C 2539.14 1.07531 -1.73829 0
M  V30 26642 C 2539.5 1.85407 -0.498809 0
M  V30 26643 O 2540.7 2.62622 -0.572983 0
M  V30 26644 C 2538.97 1.97947 -2.97576 0
M  V30 26645 S 2540.53 2.79646 -3.38148 0
M  V30 26646 H 2537.35 0.363099 -0.611294 0
M  V30 26647 H 2539.95 0.351897 -1.92307 0
M  V30 26648 H 2538.66 1.39562 -3.85941 0
M  V30 26649 H 2538.19 2.74701 -2.81607 0
M  V30 26650 H 2540.2 4.00413 -2.93059 0
M  V30 26651 N 2539.38 1.46127 0.590316 0
M  V30 26652 C 2540.6 1.546 1.37501 0
M  V30 26653 C 2541.02 0.18448 1.87897 0
M  V30 26654 O 2540.38 -0.816956 1.63193 0
M  V30 26655 C 2540.43 2.54458 2.56775 0
M  V30 26656 O 2540.15 3.85321 2.08469 0
M  V30 26657 C 2541.65 2.72798 3.49423 0
M  V30 26658 H 2538.87 0.523045 0.420316 0
M  V30 26659 H 2541.41 1.91468 0.71835 0
M  V30 26660 H 2539.57 2.20615 3.18446 0
M  V30 26661 H 2539.98 4.39605 2.8609 0
M  V30 26662 H 2541.46 3.46608 4.29613 0
M  V30 26663 H 2541.93 1.79436 4.00873 0
M  V30 26664 H 2542.54 3.07707 2.93592 0
M  V30 26665 N 2540.85 -0.834306 1.33705 0
M  V30 26666 C 2542.1 -1.58671 1.25172 0
M  V30 26667 C 2542.42 -1.94156 -0.181236 0
M  V30 26668 O 2541.69 -1.61342 -1.1111 0
M  V30 26669 H 2540.27 -0.588322 0.460311 0
M  V30 26670 H 2542.93 -0.996817 1.6748 0
M  V30 26671 H 2542.03 -2.51462 1.8486 0
M  V30 26672 N 2542.33 -1.17248 -1.05312 0
M  V30 26673 C 2543.28 -0.888096 -2.13029 0
M  V30 26674 C 2544.25 0.167508 -1.65253 0
M  V30 26675 O 2545.43 0.0305639 -1.90776 0
M  V30 26676 C 2542.57 -0.406207 -3.42701 0
M  V30 26677 C 2541.69 -1.52579 -4.04158 0
M  V30 26678 C 2540.82 -0.9979 -5.21743 0
M  V30 26679 C 2539.86 -2.09301 -5.75204 0
M  V30 26680 N 2539 -1.57998 -6.84091 0
M  V30 26681 H 2543.84 -1.81052 -2.36694 0
M  V30 26682 H 2541.37 -0.903034 -1.16119 0
M  V30 26683 H 2543.33 -0.108378 -4.17059 0
M  V30 26684 H 2541.96 0.479257 -3.19222 0
M  V30 26685 H 2541.01 -1.93937 -3.2725 0
M  V30 26686 H 2542.33 -2.3518 -4.39877 0
M  V30 26687 H 2541.48 -0.653845 -6.03166 0
M  V30 26688 H 2540.22 -0.141318 -4.87495 0
M  V30 26689 H 2539.22 -2.44566 -4.9241 0
M  V30 26690 H 2540.45 -2.95373 -6.11499 0
M  V30 26691 H 2538.4 -0.746094 -6.51743 0
M  V30 26692 H 2538.31 -2.34207 -7.18807 0
M  V30 26693 H 2539.58 -1.26482 -7.6917 0
M  V30 26694 N 2543.81 1.24015 -0.972531 0
M  V30 26695 C 2545.06 1.92503 -0.638012 0
M  V30 26696 C 2545.39 1.75788 0.825352 0
M  V30 26697 O 2544.66 1.11396 1.5944 0
M  V30 26698 C 2544.95 3.45367 -1.01948 0
M  V30 26699 C 2544.8 3.71227 -2.5399 0
M  V30 26700 C 2546.12 4.36554 -0.557587 0
M  V30 26701 H 2543.24 0.699113 -0.23326 0
M  V30 26702 H 2545.88 1.4629 -1.2124 0
M  V30 26703 H 2544.03 3.84858 -0.530723 0
M  V30 26704 H 2545.7 3.41266 -3.1038 0
M  V30 26705 H 2543.95 3.1621 -2.96974 0
M  V30 26706 H 2544.62 4.78201 -2.75731 0
M  V30 26707 H 2547.09 4.04465 -0.9771 0
M  V30 26708 H 2545.97 5.42231 -0.853015 0
M  V30 26709 H 2546.23 4.38762 0.542251 0
M  V30 26710 N 2545.29 0.743226 1.38974 0
M  V30 26711 C 2546.54 0.291627 1.99581 0
M  V30 26712 C 2546.85 -1.12998 1.59658 0
M  V30 26713 O 2548.06 -1.68152 2.1316 0
M  V30 26714 C 2546.51 0.470454 3.56812 0
M  V30 26715 C 2546.12 1.90048 4.05692 0
M  V30 26716 C 2547.86 0.0810455 4.24423 0
M  V30 26717 C 2545.77 2.02842 5.55526 0
M  V30 26718 H 2544.7 0.105285 0.746613 0
M  V30 26719 H 2547.35 0.918286 1.5887 0
M  V30 26720 H 2545.73 -0.225229 3.95359 0
M  V30 26721 H 2546.91 2.62878 3.7846 0
M  V30 26722 H 2545.22 2.24385 3.50771 0
M  V30 26723 H 2547.82 0.155539 5.34474 0
M  V30 26724 H 2548.16 -0.964899 4.04963 0
M  V30 26725 H 2548.7 0.728193 3.91078 0
M  V30 26726 H 2545.44 3.05654 5.79876 0
M  V30 26727 H 2544.96 1.34458 5.84535 0
M  V30 26728 H 2546.63 1.81346 6.21066 0
M  V30 26729 N 2546.77 -1.4974 0.491491 0
M  V30 26730 C 2548.01 -2.02022 -0.0562786 0
M  V30 26731 C 2548.34 -1.37409 -1.38361 0
M  V30 26732 O 2547.61 -0.5262 -1.88701 0
M  V30 26733 H 2546.19 -0.746621 -0.0237883 0
M  V30 26734 H 2548.85 -1.83863 0.646565 0
M  V30 26735 H 2547.94 -3.11503 -0.192912 0
M  V30 26736 N 2548.24 -0.224922 -1.55987 0
M  V30 26737 C 2549.18 0.723891 -2.16414 0
M  V30 26738 C 2550.16 1.18861 -1.10954 0
M  V30 26739 O 2551.34 1.27075 -1.39227 0
M  V30 26740 C 2548.47 1.98116 -2.74714 0
M  V30 26741 C 2547.51 1.65613 -3.93032 0
M  V30 26742 S 2548.35 0.777965 -5.29819 0
M  V30 26743 C 2549.5 2.04472 -5.91559 0
M  V30 26744 H 2549.73 0.210295 -2.96555 0
M  V30 26745 H 2547.27 -0.00958171 -1.54397 0
M  V30 26746 H 2549.23 2.70305 -3.08942 0
M  V30 26747 H 2547.89 2.46588 -1.94559 0
M  V30 26748 H 2547.08 2.59036 -4.32338 0
M  V30 26749 H 2546.68 1.01484 -3.59968 0
M  V30 26750 H 2548.97 2.99435 -6.07738 0
M  V30 26751 H 2549.92 1.69551 -6.87501 0
M  V30 26752 H 2550.32 2.18679 -5.20423 0
M  V30 26753 N 2549.72 1.57526 0.0484352 0
M  V30 26754 C 2550.67 2.01734 1.06243 0
M  V30 26755 C 2551.66 0.903268 1.33154 0
M  V30 26756 O 2552.85 1.16719 1.33063 0
M  V30 26757 C 2549.98 2.48425 2.36939 0
M  V30 26758 C 2549.06 3.66614 2.13202 0
M  V30 26759 N 2549.45 4.80006 1.59462 0
M  V30 26760 C 2547.75 3.73614 2.43574 0
M  V30 26761 C 2548.45 5.61738 1.51082 0
M  V30 26762 N 2547.43 5.06273 1.97961 0
M  V30 26763 H 2551.23 2.86833 0.640625 0
M  V30 26764 H 2548.75 1.60384 0.255105 0
M  V30 26765 H 2550.74 2.78347 3.10369 0
M  V30 26766 H 2549.4 1.64723 2.79815 0
M  V30 26767 H 2550.41 5.01833 1.27999 0
M  V30 26768 H 2547.09 3.00674 2.89657 0
M  V30 26769 H 2548.48 6.62803 1.10187 0
M  V30 26770 N 2551.2 -0.32033 1.5431 0
M  V30 26771 C 2552.45 -1.05946 1.72926 0
M  V30 26772 C 2552.78 -1.87567 0.503218 0
M  V30 26773 O 2552.05 -1.87969 -0.499806 0
M  V30 26774 C 2552.34 -1.9815 3.0068 0
M  V30 26775 C 2552.19 -1.19838 4.33542 0
M  V30 26776 C 2553.51 -2.97625 3.24203 0
M  V30 26777 H 2550.63 -0.383763 0.629202 0
M  V30 26778 H 2553.27 -0.335821 1.87009 0
M  V30 26779 H 2551.42 -2.59854 2.88804 0
M  V30 26780 H 2553.09 -0.605693 4.57306 0
M  V30 26781 H 2551.34 -0.500708 4.30901 0
M  V30 26782 H 2552.01 -1.87558 5.19159 0
M  V30 26783 H 2554.48 -2.46044 3.35562 0
M  V30 26784 H 2553.36 -3.59322 4.14945 0
M  V30 26785 H 2553.62 -3.70256 2.41584 0
M  V30 26786 N 2552.68 -1.46438 -0.582558 0
M  V30 26787 C 2553.93 -1.51456 -1.33812 0
M  V30 26788 C 2554.25 -0.167826 -1.94276 0
M  V30 26789 O 2553.52 0.805646 -1.78567 0
M  V30 26790 H 2552.1 -0.557827 -0.496828 0
M  V30 26791 H 2554.76 -1.82569 -0.682249 0
M  V30 26792 H 2553.86 -2.26731 -2.14475 0
M  V30 26793 N 2554.16 0.827204 -1.34146 0
M  V30 26794 C 2555.4 1.58004 -1.26012 0
M  V30 26795 C 2555.73 1.94249 0.170937 0
M  V30 26796 O 2555 1.61929 1.10253 0
M  V30 26797 H 2553.58 0.585873 -0.463424 0
M  V30 26798 H 2556.24 0.987922 -1.68006 0
M  V30 26799 H 2555.33 2.50478 -1.86191 0
M  V30 26800 N 2555.63 1.17805 1.04688 0
M  V30 26801 C 2556.58 0.895673 2.14664 0
M  V30 26802 C 2557.58 -0.14165 1.68807 0
M  V30 26803 O 2558.78 0.00591078 1.79999 0
M  V30 26804 H 2555.16 0.272134 0.701033 0
M  V30 26805 H 2557.13 1.83021 2.35682 0
M  V30 26806 C 2555.88 0.431023 3.45018 0
M  V30 26807 H 2555.2 1.2207 3.80708 0
M  V30 26808 H 2556.64 0.272376 4.23124 0
M  V30 26809 C 2555.1 -0.85215 3.25945 0
M  V30 26810 O 2555.63 -1.9178 3.52964 0
M  V30 26811 N 2553.84 -0.802297 2.79305 0
M  V30 26812 H 2553.38 0.0651241 2.57518 0
M  V30 26813 H 2553.34 -1.66129 2.66924 0
M  V30 26814 N 2557.11 -1.23497 0.979094 0
M  V30 26815 C 2558.36 -1.91498 0.645974 0
M  V30 26816 C 2558.68 -1.76785 -0.822917 0
M  V30 26817 O 2557.95 -1.14642 -1.58852 0
M  V30 26818 H 2556.53 -0.708763 0.235931 0
M  V30 26819 H 2559.19 -1.50149 1.24262 0
M  V30 26820 H 2558.29 -2.98948 0.896464 0
M  V30 26821 N 2558.59 -0.750586 -1.38578 0
M  V30 26822 C 2559.82 -0.314848 -2.04996 0
M  V30 26823 C 2560.24 1.04746 -1.56237 0
M  V30 26824 O 2559.6 1.66691 -0.713011 0
M  V30 26825 C 2559.65 -0.343478 -3.5896 0
M  V30 26826 O 2558.75 0.663556 -4.07027 0
M  V30 26827 H 2558.09 -0.139973 -0.649079 0
M  V30 26828 H 2560.62 -1.02087 -1.77312 0
M  V30 26829 H 2560.63 -0.193305 -4.07542 0
M  V30 26830 H 2559.31 -1.33745 -3.93809 0
M  V30 26831 H 2557.88 0.478242 -3.69821 0
M  V30 26832 N 2560.07 1.49477 -0.499425 0
M  V30 26833 C 2561.02 2.2603 0.299063 0
M  V30 26834 C 2562 1.30808 0.936911 0
M  V30 26835 O 2563.2 1.5554 0.844771 0
M  V30 26836 C 2560.32 3.15046 1.36385 0
M  V30 26837 C 2559.41 4.17729 0.732325 0
M  V30 26838 N 2559.8 5.05534 -0.164117 0
M  V30 26839 C 2558.1 4.34803 0.993086 0
M  V30 26840 C 2558.8 5.79322 -0.525446 0
M  V30 26841 N 2557.78 5.43496 0.106252 0
M  V30 26842 H 2561.58 2.91287 -0.391054 0
M  V30 26843 H 2559.09 1.59308 -0.315398 0
M  V30 26844 H 2561.09 3.6852 1.94933 0
M  V30 26845 H 2559.75 2.51341 2.05567 0
M  V30 26846 H 2560.76 5.15131 -0.534827 0
M  V30 26847 H 2557.44 3.82305 1.67777 0
M  V30 26848 H 2558.83 6.60004 -1.25873 0
M  V30 26849 N 2561.55 0.233191 1.55865 0
M  V30 26850 C 2562.8 -0.394558 1.98211 0
M  V30 26851 C 2563.12 -1.59461 1.12237 0
M  V30 26852 O 2562.39 -1.94856 0.202016 0
M  V30 26853 H 2560.97 -0.148765 0.732037 0
M  V30 26854 H 2563.63 0.328793 1.92107 0
M  V30 26855 H 2562.72 -0.71301 3.03846 0
M  V30 26856 N 2563.03 -1.57549 -0.0400806 0
M  V30 26857 C 2564.27 -1.88764 -0.733092 0
M  V30 26858 C 2564.6 -0.829089 -1.75944 0
M  V30 26859 O 2563.86 0.171289 -1.94949 0
M  V30 26860 C 2564.15 -3.26711 -1.44896 0
M  V30 26861 C 2563.82 -4.47414 -0.559629 0
M  V30 26862 C 2562.48 -4.8017 -0.314647 0
M  V30 26863 C 2564.83 -5.21171 0.0550659 0
M  V30 26864 C 2562.16 -5.84079 0.553989 0
M  V30 26865 C 2564.51 -6.26001 0.911339 0
M  V30 26866 C 2563.18 -6.57239 1.16589 0
M  V30 26867 H 2562.45 -0.690738 -0.268257 0
M  V30 26868 H 2565.1 -1.91499 0.00682774 0
M  V30 26869 H 2563.4 -3.19914 -2.26191 0
M  V30 26870 H 2565.1 -3.48108 -1.99052 0
M  V30 26871 H 2561.69 -4.21795 -0.760719 0
M  V30 26872 H 2565.87 -4.96152 -0.121257 0
M  V30 26873 H 2561.13 -6.06663 0.759625 0
M  V30 26874 H 2565.3 -6.82301 1.39422 0
M  V30 26875 H 2562.93 -7.37578 1.84071 0
M  V30 26876 N 2564.5 0.312142 -1.54478 0
M  V30 26877 C 2565.47 1.36763 -1.83925 0
M  V30 26878 C 2566.47 1.44198 -0.711588 0
M  V30 26879 O 2567.66 1.44027 -0.979892 0
M  V30 26880 C 2564.79 2.75373 -2.00955 0
M  V30 26881 H 2565.98 1.11901 -2.78241 0
M  V30 26882 H 2563.53 0.548232 -1.4637 0
M  V30 26883 H 2564.27 3.05473 -1.08889 0
M  V30 26884 H 2564.05 2.71368 -2.83023 0
M  V30 26885 H 2565.54 3.51709 -2.25146 0
M  V30 26886 N 2565.98 1.46745 0.574784 0
M  V30 26887 C 2566.94 1.57481 1.66531 0
M  V30 26888 C 2567.94 0.45129 1.54337 0
M  V30 26889 O 2569.13 0.715841 1.58812 0
M  V30 26890 C 2566.27 1.50264 3.05996 0
M  V30 26891 H 2567.46 2.54676 1.58367 0
M  V30 26892 H 2565.01 1.34673 0.793278 0
M  V30 26893 H 2565.75 0.543781 3.19708 0
M  V30 26894 H 2565.53 2.31787 3.16255 0
M  V30 26895 H 2567.02 1.60879 3.85367 0
M  V30 26896 N 2567.46 -0.820078 1.34583 0
M  V30 26897 C 2568.42 -1.91273 1.26283 0
M  V30 26898 C 2569.42 -1.59819 0.177372 0
M  V30 26899 O 2570.61 -1.68805 0.430186 0
M  V30 26900 C 2567.74 -3.27384 0.950385 0
M  V30 26901 H 2568.94 -2.00054 2.23425 0
M  V30 26902 H 2566.49 -1.01438 1.18912 0
M  V30 26903 H 2567.23 -3.24295 -0.0177368 0
M  V30 26904 H 2567.01 -3.51598 1.73556 0
M  V30 26905 H 2568.5 -4.07395 0.917564 0
M  V30 26906 N 2568.94 -1.18359 -1.04062 0
M  V30 26907 C 2569.87 -0.93415 -2.14 0
M  V30 26908 C 2570.85 0.128156 -1.69617 0
M  V30 26909 O 2572.03 -0.0244434 -1.94185 0
M  V30 26910 C 2569.16 -0.459127 -3.44252 0
M  V30 26911 C 2568.12 -1.46192 -4.02258 0
M  V30 26912 C 2567.44 -0.844415 -5.2799 0
M  V30 26913 C 2568.74 -2.83864 -4.38427 0
M  V30 26914 H 2570.44 -1.85356 -2.35124 0
M  V30 26915 H 2567.98 -0.892624 -1.12997 0
M  V30 26916 H 2569.94 -0.271981 -4.20521 0
M  V30 26917 H 2568.66 0.495856 -3.22814 0
M  V30 26918 H 2567.32 -1.63601 -3.28071 0
M  V30 26919 H 2566.97 0.117756 -5.02862 0
M  V30 26920 H 2566.67 -1.51394 -5.67762 0
M  V30 26921 H 2568.19 -0.6678 -6.06937 0
M  V30 26922 H 2569.61 -2.70107 -5.05683 0
M  V30 26923 H 2568 -3.475 -4.89248 0
M  V30 26924 H 2569.07 -3.37412 -3.48254 0
M  V30 26925 N 2570.42 1.22976 -0.98563 0
M  V30 26926 C 2571.36 2.24635 -0.529864 0
M  V30 26927 C 2572.33 1.6033 0.434 0
M  V30 26928 O 2573.52 1.87739 0.340381 0
M  V30 26929 C 2570.66 3.44745 0.156472 0
M  V30 26930 C 2569.77 4.2359 -0.848271 0
M  V30 26931 C 2568.91 5.31025 -0.136203 0
M  V30 26932 C 2567.94 6.01583 -1.12981 0
M  V30 26933 N 2567.08 7.00679 -0.446538 0
M  V30 26934 H 2571.92 2.62985 -1.40153 0
M  V30 26935 H 2569.46 1.29258 -0.702191 0
M  V30 26936 H 2571.42 4.13271 0.571252 0
M  V30 26937 H 2570.05 3.0718 0.991971 0
M  V30 26938 H 2569.1 3.54431 -1.38141 0
M  V30 26939 H 2570.41 4.72266 -1.6052 0
M  V30 26940 H 2569.56 6.05771 0.335677 0
M  V30 26941 H 2568.3 4.83305 0.653288 0
M  V30 26942 H 2567.31 5.25625 -1.61239 0
M  V30 26943 H 2568.53 6.51392 -1.92005 0
M  V30 26944 H 2566.48 6.55201 0.323648 0
M  V30 26945 H 2566.4 7.47324 -1.14204 0
M  V30 26946 H 2567.66 7.795 0.00277995 0
M  V30 26947 N 2571.89 0.757924 1.38178 0
M  V30 26948 C 2573.31 0.435999 1.53529 0
M  V30 26949 C 2573.51 -1.05029 1.71962 0
M  V30 26950 O 2572.57 -1.83629 1.7331 0
M  V30 26951 C 2573.88 1.23903 2.73987 0
M  V30 26952 C 2575.43 1.22954 2.87839 0
M  V30 26953 C 2575.9 2.01562 4.11263 0
M  V30 26954 N 2577.39 1.98844 4.18348 0
M  V30 26955 C 2578.13 2.56459 5.12851 0
M  V30 26956 N 2577.62 3.22805 6.13 0
M  V30 26957 N 2579.42 2.46365 5.05233 0
M  V30 26958 H 2571.57 1.72112 1.24463 0
M  V30 26959 H 2573.83 0.729874 0.604969 0
M  V30 26960 H 2573.54 2.2917 2.66785 0
M  V30 26961 H 2573.41 0.858828 3.67293 0
M  V30 26962 H 2575.8 0.184906 2.9452 0
M  V30 26963 H 2575.88 1.64928 1.95531 0
M  V30 26964 H 2575.52 3.06038 4.05343 0
M  V30 26965 H 2575.45 1.56979 5.02658 0
M  V30 26966 H 2577.94 1.5053 3.46625 0
M  V30 26967 H 2578.26 3.64177 6.81612 0
M  V30 26968 H 2576.6 3.26901 6.1332 0
M  V30 26969 H 2579.79 1.94158 4.25935 0
M  V30 26970 H 2579.97 2.91562 5.78702 0
M  V30 26971 N 2573.37 -1.4921 0.507345 0
M  V30 26972 C 2574.6 -2.07373 -0.0336885 0
M  V30 26973 C 2575.02 -1.3644 -1.29483 0
M  V30 26974 O 2574.38 -0.423118 -1.76294 0
M  V30 26975 C 2574.43 -3.59633 -0.263882 0
M  V30 26976 O 2573.53 -3.90115 -1.33731 0
M  V30 26977 H 2572.87 -0.663364 0.0290447 0
M  V30 26978 H 2575.4 -1.91931 0.708783 0
M  V30 26979 H 2575.41 -4.05005 -0.493464 0
M  V30 26980 H 2574.09 -4.1067 0.657496 0
M  V30 26981 H 2572.67 -3.56547 -1.09217 0
M  V30 26982 N 2574.85 -0.241454 -1.55739 0
M  V30 26983 C 2576.08 0.388534 -2.02914 0
M  V30 26984 C 2576.49 1.52476 -1.12017 0
M  V30 26985 O 2575.83 1.83268 -0.125935 0
M  V30 26986 C 2575.89 0.963014 -3.46362 0
M  V30 26987 C 2575.56 -0.0402719 -4.56982 0
M  V30 26988 C 2576.55 -0.847857 -5.1294 0
M  V30 26989 C 2574.24 -0.164787 -5.0203 0
M  V30 26990 C 2576.23 -1.76647 -6.12433 0
M  V30 26991 C 2573.92 -1.08691 -6.01356 0
M  V30 26992 C 2574.92 -1.88628 -6.56436 0
M  V30 26993 O 2574.61 -2.79286 -7.53826 0
M  V30 26994 H 2574.34 0.0971335 -0.668985 0
M  V30 26995 H 2576.89 -0.361283 -2.02198 0
M  V30 26996 H 2575.12 1.76229 -3.44209 0
M  V30 26997 H 2576.81 1.5025 -3.77067 0
M  V30 26998 H 2577.58 -0.762217 -4.78973 0
M  V30 26999 H 2573.46 0.44733 -4.58825 0
M  V30 27000 H 2577 -2.39083 -6.55351 0
M  V30 27001 H 2572.9 -1.17349 -6.34744 0
M  V30 27002 H 2573.67 -2.73586 -7.71423 0
M  V30 27003 N 2576.33 1.57568 0.0317248 0
M  V30 27004 C 2577.58 1.89151 0.723071 0
M  V30 27005 C 2577.9 0.838408 1.75502 0
M  V30 27006 O 2577.16 -0.160948 1.95037 0
M  V30 27007 C 2577.46 3.27475 1.43161 0
M  V30 27008 C 2577.12 4.47704 0.535893 0
M  V30 27009 C 2575.79 4.8033 0.289178 0
M  V30 27010 C 2578.14 5.21134 -0.0827041 0
M  V30 27011 C 2575.47 5.83777 -0.584956 0
M  V30 27012 C 2577.82 6.25509 -0.944524 0
M  V30 27013 C 2576.48 6.56612 -1.20073 0
M  V30 27014 H 2575.75 0.692151 0.26459 0
M  V30 27015 H 2578.4 1.91492 -0.0169833 0
M  V30 27016 H 2576.7 3.21109 2.24492 0
M  V30 27017 H 2578.4 3.49159 1.97203 0
M  V30 27018 H 2574.99 4.22193 0.738339 0
M  V30 27019 H 2579.17 4.96209 0.094943 0
M  V30 27020 H 2574.43 6.06251 -0.791787 0
M  V30 27021 H 2578.6 6.81552 -1.43038 0
M  V30 27022 H 2576.23 7.36592 -1.8798 0
M  V30 27023 N 2577.81 -0.303946 1.54641 0
M  V30 27024 C 2579.03 -1.05855 1.7777 0
M  V30 27025 C 2579.45 -1.81039 0.535754 0
M  V30 27026 O 2578.81 -1.75678 -0.494306 0
M  V30 27027 C 2578.86 -2.04141 2.98344 0
M  V30 27028 O 2578.58 -1.32008 4.17739 0
M  V30 27029 C 2580.08 -2.91663 3.33838 0
M  V30 27030 H 2577.3 -0.314057 0.592967 0
M  V30 27031 H 2579.84 -0.344113 2.01584 0
M  V30 27032 H 2578 -2.71091 2.76746 0
M  V30 27033 H 2578.41 -1.97989 4.85696 0
M  V30 27034 H 2579.89 -3.56483 4.21454 0
M  V30 27035 H 2580.36 -3.59808 2.51863 0
M  V30 27036 H 2580.97 -2.30248 3.57583 0
M  V30 27037 N 2579.28 -1.47047 -0.566994 0
M  V30 27038 C 2580.22 -1.54847 -1.68982 0
M  V30 27039 C 2581.23 -0.435459 -1.56868 0
M  V30 27040 O 2582.42 -0.704599 -1.64005 0
M  V30 27041 C 2579.52 -1.42748 -3.0737 0
M  V30 27042 C 2578.69 -2.68446 -3.45334 0
M  V30 27043 C 2577.75 -2.50322 -4.62845 0
M  V30 27044 O 2576.78 -3.24103 -4.67916 0
M  V30 27045 N 2577.98 -1.57509 -5.58723 0
M  V30 27046 H 2580.74 -2.51666 -1.6274 0
M  V30 27047 H 2578.3 -1.43303 -0.753385 0
M  V30 27048 H 2580.3 -1.28372 -3.838 0
M  V30 27049 H 2578.87 -0.540499 -3.07892 0
M  V30 27050 H 2578.09 -2.97653 -2.5845 0
M  V30 27051 H 2579.37 -3.51914 -3.6747 0
M  V30 27052 H 2578.77 -0.966974 -5.57374 0
M  V30 27053 H 2577.33 -1.49089 -6.3452 0
M  V30 27054 N 2580.76 0.812929 -1.35016 0
M  V30 27055 C 2581.99 1.60636 -1.3119 0
M  V30 27056 C 2582.41 1.87782 0.109349 0
M  V30 27057 O 2581.77 1.46049 1.07421 0
M  V30 27058 C 2581.82 2.91834 -2.11814 0
M  V30 27059 O 2580.92 3.84367 -1.49451 0
M  V30 27060 H 2580.26 0.488173 -0.450092 0
M  V30 27061 H 2582.79 1.00944 -1.77965 0
M  V30 27062 H 2582.8 3.41314 -2.23537 0
M  V30 27063 H 2581.48 2.71401 -3.15142 0
M  V30 27064 H 2580.06 3.42904 -1.4653 0
M  V30 27065 N 2582.24 1.18909 1.03433 0
M  V30 27066 C 2583.17 0.879632 2.11649 0
M  V30 27067 C 2584.19 -0.12541 1.62316 0
M  V30 27068 O 2585.37 0.103276 1.78201 0
M  V30 27069 C 2582.47 0.294101 3.37621 0
M  V30 27070 C 2581.65 1.34636 4.16163 0
M  V30 27071 C 2580.71 0.775365 5.20456 0
M  V30 27072 O 2579.73 1.45169 5.50377 0
M  V30 27073 N 2580.93 -0.424024 5.78949 0
M  V30 27074 H 2583.7 1.81109 2.38787 0
M  V30 27075 H 2581.26 1.09034 1.19679 0
M  V30 27076 H 2583.25 -0.101608 4.04572 0
M  V30 27077 H 2581.82 -0.541521 3.07874 0
M  V30 27078 H 2581.04 1.91713 3.44441 0
M  V30 27079 H 2582.33 2.05557 4.65428 0
M  V30 27080 H 2581.73 -0.991111 5.5695 0
M  V30 27081 H 2580.29 -0.761577 6.47335 0
M  V30 27082 N 2583.72 -1.22452 0.992137 0
M  V30 27083 C 2584.97 -1.90802 0.666249 0
M  V30 27084 C 2585.29 -1.77648 -0.80412 0
M  V30 27085 O 2584.56 -1.16321 -1.57627 0
M  V30 27086 H 2583.14 -0.706221 0.243435 0
M  V30 27087 H 2585.8 -1.48823 1.25848 0
M  V30 27088 H 2584.9 -2.9798 0.928121 0
M  V30 27089 N 2585.2 -0.765242 -1.37774 0
M  V30 27090 C 2586.11 -0.147707 -2.34135 0
M  V30 27091 C 2587.12 0.687187 -1.59855 0
M  V30 27092 O 2588.3 0.608626 -1.91984 0
M  V30 27093 C 2585.36 0.726111 -3.39011 0
M  V30 27094 C 2584.42 -0.124492 -4.29119 0
M  V30 27095 C 2583.66 0.707715 -5.28987 0
M  V30 27096 O 2583.88 1.94515 -5.36209 0
M  V30 27097 O 2582.81 0.120354 -6.0178 0
M  V30 27098 H 2586.64 -0.943808 -2.88662 0
M  V30 27099 H 2584.23 -0.526302 -1.39823 0
M  V30 27100 H 2586.11 1.22517 -4.03197 0
M  V30 27101 H 2584.78 1.50051 -2.86821 0
M  V30 27102 H 2583.69 -0.669761 -3.68056 0
M  V30 27103 H 2585.02 -0.861821 -4.84596 0
M  V30 27104 N 2586.67 1.48939 -0.515251 0
M  V30 27105 C 2587.92 2.01683 0.0261007 0
M  V30 27106 C 2588.24 1.39886 1.36716 0
M  V30 27107 O 2589.44 1.84041 1.99603 0
M  V30 27108 C 2587.9 3.59769 0.0969479 0
M  V30 27109 C 2587.51 4.30545 -1.23833 0
M  V30 27110 C 2589.25 4.20409 0.587908 0
M  V30 27111 C 2587.16 5.80526 -1.12887 0
M  V30 27112 H 2586.09 0.753879 0.0135266 0
M  V30 27113 H 2588.74 1.71342 -0.656817 0
M  V30 27114 H 2587.12 3.86888 0.844626 0
M  V30 27115 H 2588.29 4.15114 -2.00042 0
M  V30 27116 H 2586.61 3.81713 -1.66385 0
M  V30 27117 H 2589.21 5.30261 0.687537 0
M  V30 27118 H 2589.55 3.84732 1.59019 0
M  V30 27119 H 2590.08 3.97665 -0.103652 0
M  V30 27120 H 2586.82 6.20753 -2.10586 0
M  V30 27121 H 2586.34 5.98411 -0.407905 0
M  V30 27122 H 2588.02 6.41866 -0.813445 0
M  V30 27123 N 2588.15 0.249709 1.55609 0
M  V30 27124 C 2589.09 -0.681457 2.18835 0
M  V30 27125 C 2590.1 -1.13667 1.16548 0
M  V30 27126 O 2591.29 -1.06296 1.43399 0
M  V30 27127 C 2588.39 -1.93835 2.77995 0
M  V30 27128 C 2587.56 -1.63412 4.05728 0
M  V30 27129 C 2586.62 -2.74088 4.49179 0
M  V30 27130 O 2585.65 -2.41355 5.15496 0
M  V30 27131 N 2586.85 -4.03641 4.17198 0
M  V30 27132 H 2589.61 -0.140461 2.99371 0
M  V30 27133 H 2587.17 0.0697826 1.6175 0
M  V30 27134 H 2589.17 -2.67122 3.0402 0
M  V30 27135 H 2587.74 -2.38906 2.016 0
M  V30 27136 H 2586.96 -0.73629 3.87263 0
M  V30 27137 H 2588.24 -1.40553 4.89001 0
M  V30 27138 H 2587.64 -4.33067 3.63963 0
M  V30 27139 H 2586.2 -4.73385 4.48052 0
M  V30 27140 N 2589.63 -1.57583 -0.0233682 0
M  V30 27141 C 2590.88 -1.90659 -0.708578 0
M  V30 27142 C 2591.23 -0.848926 -1.72659 0
M  V30 27143 O 2590.53 0.141715 -1.91075 0
M  V30 27144 C 2590.72 -3.28229 -1.41423 0
M  V30 27145 C 2590.55 -4.47278 -0.466076 0
M  V30 27146 C 2589.32 -5.05228 -0.0850282 0
M  V30 27147 C 2591.52 -5.13653 0.257926 0
M  V30 27148 N 2589.5 -6.07793 0.863779 0
M  V30 27149 C 2590.87 -6.10833 1.0622 0
M  V30 27150 C 2592.92 -4.96843 0.324261 0
M  V30 27151 C 2591.63 -6.93015 1.92672 0
M  V30 27152 C 2593.65 -5.79591 1.17593 0
M  V30 27153 C 2593.02 -6.76347 1.96811 0
M  V30 27154 H 2589.11 -0.746417 -0.233209 0
M  V30 27155 H 2591.7 -1.94675 0.0314854 0
M  V30 27156 H 2589.87 -3.25131 -2.12472 0
M  V30 27157 H 2591.6 -3.48803 -2.05227 0
M  V30 27158 H 2588.36 -4.71472 -0.448433 0
M  V30 27159 H 2588.78 -6.6375 1.33286 0
M  V30 27160 H 2593.42 -4.21912 -0.273901 0
M  V30 27161 H 2591.14 -7.67287 2.53566 0
M  V30 27162 H 2594.73 -5.68631 1.23086 0
M  V30 27163 H 2593.61 -7.39263 2.61648 0
M  V30 27164 N 2591.11 0.29574 -1.548 0
M  V30 27165 C 2592.04 1.38969 -1.81005 0
M  V30 27166 C 2593.02 1.48533 -0.66157 0
M  V30 27167 O 2594.2 1.65512 -0.902103 0
M  V30 27168 C 2591.33 2.76832 -1.95146 0
M  V30 27169 C 2590.38 2.84665 -3.17597 0
M  V30 27170 S 2591.21 2.46224 -4.75536 0
M  V30 27171 C 2592.37 3.86105 -4.92619 0
M  V30 27172 H 2592.6 1.16533 -2.73509 0
M  V30 27173 H 2590.13 0.494142 -1.46279 0
M  V30 27174 H 2592.09 3.56235 -2.03978 0
M  V30 27175 H 2590.75 2.96533 -1.0357 0
M  V30 27176 H 2589.94 3.85797 -3.2431 0
M  V30 27177 H 2589.55 2.13262 -3.07238 0
M  V30 27178 H 2591.84 4.81155 -4.76965 0
M  V30 27179 H 2592.78 3.84359 -5.94705 0
M  V30 27180 H 2593.19 3.76352 -4.20737 0
M  V30 27181 N 2592.59 1.47346 0.559187 0
M  V30 27182 C 2594 1.32821 0.88492 0
M  V30 27183 C 2594.2 0.317208 1.98988 0
M  V30 27184 O 2593.26 -0.271967 2.51031 0
M  V30 27185 C 2594.57 2.72095 1.28003 0
M  V30 27186 C 2596.12 2.80365 1.39156 0
M  V30 27187 C 2596.6 4.20276 1.82023 0
M  V30 27188 N 2598.09 4.22808 1.89177 0
M  V30 27189 C 2598.82 5.27976 2.2367 0
M  V30 27190 N 2598.32 6.43452 2.56791 0
M  V30 27191 N 2600.11 5.15353 2.24427 0
M  V30 27192 H 2592.26 2.11716 -0.170341 0
M  V30 27193 H 2594.52 0.947903 -0.0135413 0
M  V30 27194 H 2594.23 3.47499 0.541966 0
M  V30 27195 H 2594.1 3.03737 2.2366 0
M  V30 27196 H 2596.49 2.05235 2.12044 0
M  V30 27197 H 2596.57 2.5238 0.416916 0
M  V30 27198 H 2596.22 4.9591 1.09706 0
M  V30 27199 H 2596.15 4.45684 2.80488 0
M  V30 27200 H 2598.64 3.395 1.65976 0
M  V30 27201 H 2598.95 7.19459 2.82131 0
M  V30 27202 H 2597.3 6.46775 2.54375 0
M  V30 27203 H 2600.49 4.24167 1.9799 0
M  V30 27204 H 2600.66 5.97422 2.50979 0
M  V30 27205 N 2594.07 -0.805758 1.35445 0
M  V30 27206 C 2595.48 -1.37981 1.25771 0
M  V30 27207 C 2595.83 -1.95894 -0.109546 0
M  V30 27208 O 2594.95 -1.91357 -1.01053 0
M  V30 27209 C 2595.55 -2.50846 2.27732 0
M  V30 27210 C 2594.11 -3.04111 2.21796 0
M  V30 27211 C 2593.25 -1.7708 2.13396 0
M  V30 27212 H 2596.2 -0.608726 1.46561 0
M  V30 27213 H 2596.23 -3.2942 1.90427 0
M  V30 27214 H 2595.74 -2.08666 3.27231 0
M  V30 27215 H 2593.84 -3.50753 1.2571 0
M  V30 27216 H 2593.95 -3.62036 3.13794 0
M  V30 27217 H 2592.32 -1.98665 1.59387 0
M  V30 27218 H 2593.1 -1.3705 3.14757 0
M  V30 27219 N 2595.54 -1.19456 -1.02801 0
M  V30 27220 C 2596.77 -1.02367 -1.80377 0
M  V30 27221 C 2597.19 0.422975 -1.83283 0
M  V30 27222 O 2596.55 1.30411 -1.25947 0
M  V30 27223 C 2596.6 -1.59827 -3.23246 0
M  V30 27224 O 2595.7 -0.828176 -4.03999 0
M  V30 27225 H 2595.04 -0.361771 -0.556792 0
M  V30 27226 H 2597.57 -1.58498 -1.29382 0
M  V30 27227 H 2597.58 -1.63079 -3.73991 0
M  V30 27228 H 2596.26 -2.65118 -3.20445 0
M  V30 27229 H 2594.84 -0.868973 -3.62634 0
M  V30 27230 N 2597.02 1.21924 -0.998617 0
M  V30 27231 C 2597.97 2.24061 -0.55366 0
M  V30 27232 C 2598.94 1.60781 0.41697 0
M  V30 27233 O 2600.12 1.8809 0.320449 0
M  V30 27234 C 2597.26 3.44892 0.119898 0
M  V30 27235 C 2596.38 4.22666 -0.893151 0
M  V30 27236 C 2595.51 5.30851 -0.192517 0
M  V30 27237 C 2594.55 6.00351 -1.19355 0
M  V30 27238 N 2593.69 7.00166 -0.52083 0
M  V30 27239 H 2598.53 2.61484 -1.42934 0
M  V30 27240 H 2596.06 1.28506 -0.715861 0
M  V30 27241 H 2598.02 4.13853 0.527387 0
M  V30 27242 H 2596.65 3.08215 0.959335 0
M  V30 27243 H 2595.7 3.52946 -1.41893 0
M  V30 27244 H 2597.02 4.70536 -1.6552 0
M  V30 27245 H 2596.17 6.06093 0.271408 0
M  V30 27246 H 2594.91 4.8397 0.60199 0
M  V30 27247 H 2593.91 5.23886 -1.66805 0
M  V30 27248 H 2595.14 6.49318 -1.98903 0
M  V30 27249 H 2593.09 6.55508 0.254137 0
M  V30 27250 H 2593 7.46071 -1.22123 0
M  V30 27251 H 2594.27 7.79459 -0.0798966 0
M  V30 27252 N 2598.5 0.772537 1.37367 0
M  V30 27253 C 2599.41 0.160122 2.34053 0
M  V30 27254 C 2600.43 -0.6787 1.60218 0
M  V30 27255 O 2601.6 -0.598436 1.92304 0
M  V30 27256 C 2598.67 -0.708122 3.39391 0
M  V30 27257 C 2597.73 0.147248 4.29047 0
M  V30 27258 C 2596.96 -0.679651 5.29355 0
M  V30 27259 O 2597.18 -1.91669 5.37233 0
M  V30 27260 O 2596.12 -0.0884386 6.01835 0
M  V30 27261 H 2599.94 0.959103 2.88158 0
M  V30 27262 H 2597.53 0.53371 1.39542 0
M  V30 27263 H 2599.41 -1.20377 4.03841 0
M  V30 27264 H 2598.09 -1.48528 2.87613 0
M  V30 27265 H 2596.99 0.68927 3.67695 0
M  V30 27266 H 2598.33 0.887508 4.84132 0
M  V30 27267 N 2599.98 -1.48664 0.523142 0
M  V30 27268 C 2601.22 -2.02796 -0.0134606 0
M  V30 27269 C 2601.56 -1.40007 -1.3458 0
M  V30 27270 O 2600.83 -0.543414 -1.86755 0
M  V30 27271 C 2601.11 -3.59817 -0.142697 0
M  V30 27272 C 2600.97 -4.33098 1.21433 0
M  V30 27273 C 2602.29 -4.31359 -0.87278 0
M  V30 27274 H 2599.41 -0.736992 -0.00341778 0
M  V30 27275 H 2602.05 -1.77459 0.678847 0
M  V30 27276 H 2600.2 -3.81535 -0.732334 0
M  V30 27277 H 2601.87 -4.22817 1.84455 0
M  V30 27278 H 2600.11 -3.94785 1.79798 0
M  V30 27279 H 2600.78 -5.41392 1.07697 0
M  V30 27280 H 2603.26 -4.14429 -0.372482 0
M  V30 27281 H 2602.14 -5.40928 -0.93209 0
M  V30 27282 H 2602.4 -3.98157 -1.92154 0
M  V30 27283 N 2601.46 -0.257958 -1.55475 0
M  V30 27284 C 2602.7 0.362974 -1.98814 0
M  V30 27285 C 2603.02 1.57655 -1.1476 0
M  V30 27286 O 2602.29 1.9451 -0.23299 0
M  V30 27287 H 2600.87 0.1371 -0.734311 0
M  V30 27288 H 2603.54 -0.359314 -1.91559 0
M  V30 27289 H 2602.63 0.66458 -3.04942 0
M  V30 27290 N 2602.93 1.57593 0.0150108 0
M  V30 27291 C 2604.16 1.93895 0.713325 0
M  V30 27292 C 2604.57 0.857319 1.68661 0
M  V30 27293 O 2603.92 -0.173756 1.82876 0
M  V30 27294 C 2603.98 3.26092 1.51342 0
M  V30 27295 C 2603.64 4.51555 0.703371 0
M  V30 27296 C 2604.64 5.199 -0.00247062 0
M  V30 27297 C 2602.32 4.98027 0.653766 0
M  V30 27298 C 2604.32 6.33007 -0.747066 0
M  V30 27299 C 2602 6.11027 -0.0945652 0
M  V30 27300 C 2603 6.78372 -0.793728 0
M  V30 27301 O 2602.69 7.89208 -1.52988 0
M  V30 27302 H 2602.42 0.644286 0.204626 0
M  V30 27303 H 2604.98 2.05381 -0.0276772 0
M  V30 27304 H 2603.21 3.10971 2.29856 0
M  V30 27305 H 2604.9 3.47616 2.09566 0
M  V30 27306 H 2605.66 4.84993 0.0267951 0
M  V30 27307 H 2601.54 4.45444 1.18748 0
M  V30 27308 H 2605.08 6.85506 -1.29333 0
M  V30 27309 H 2600.98 6.45378 -0.125705 0
M  V30 27310 H 2601.75 8.05643 -1.44502 0
M  V30 27311 N 2604.41 -0.287527 1.54955 0
M  V30 27312 C 2605.82 -0.859604 1.65734 0
M  V30 27313 C 2606.17 -1.87591 0.5748 0
M  V30 27314 O 2605.3 -2.14498 -0.286261 0
M  V30 27315 C 2605.89 -1.56592 3.00441 0
M  V30 27316 C 2604.45 -2.08622 3.13295 0
M  V30 27317 C 2603.6 -0.92337 2.61475 0
M  V30 27318 H 2606.55 -0.0642059 1.5857 0
M  V30 27319 H 2606.57 -2.43219 2.92617 0
M  V30 27320 H 2606.08 -0.825986 3.79208 0
M  V30 27321 H 2604.19 -2.85621 2.39273 0
M  V30 27322 H 2604.3 -2.3115 4.19651 0
M  V30 27323 H 2602.66 -1.31271 2.18266 0
M  V30 27324 H 2603.45 -0.197181 3.42733 0
M  V30 27325 N 2605.89 -1.47641 -0.551365 0
M  V30 27326 C 2607.14 -1.53824 -1.30464 0
M  V30 27327 C 2607.45 -0.207695 -1.94494 0
M  V30 27328 O 2608.66 -0.14758 -2.71099 0
M  V30 27329 C 2607.11 -2.71188 -2.36612 0
M  V30 27330 C 2606.72 -4.10796 -1.78746 0
M  V30 27331 C 2608.47 -2.86669 -3.13083 0
M  V30 27332 C 2606.37 -5.19452 -2.82708 0
M  V30 27333 H 2605.3 -0.572585 -0.490574 0
M  V30 27334 H 2607.95 -1.73928 -0.584909 0
M  V30 27335 H 2606.34 -2.44475 -3.11525 0
M  V30 27336 H 2607.51 -4.47437 -1.10165 0
M  V30 27337 H 2605.83 -4.00251 -1.14839 0
M  V30 27338 H 2608.42 -3.65013 -3.90729 0
M  V30 27339 H 2608.77 -1.95328 -3.67631 0
M  V30 27340 H 2609.3 -3.1318 -2.45282 0
M  V30 27341 H 2606.04 -6.12689 -2.33008 0
M  V30 27342 H 2605.56 -4.87322 -3.49681 0
M  V30 27343 H 2607.24 -5.46652 -3.46093 0
M  V30 27344 N 2607.37 0.798563 -1.3587 0
M  V30 27345 C 2608.62 1.55118 -1.28924 0
M  V30 27346 C 2608.93 1.95154 0.132046 0
M  V30 27347 O 2610.14 2.69562 0.323831 0
M  V30 27348 C 2608.59 2.79975 -2.26146 0
M  V30 27349 C 2608.2 2.47145 -3.73662 0
M  V30 27350 C 2609.94 3.57972 -2.28158 0
M  V30 27351 C 2607.85 3.68342 -4.62686 0
M  V30 27352 H 2606.78 0.582267 -0.479042 0
M  V30 27353 H 2609.43 0.877097 -1.61181 0
M  V30 27354 H 2607.81 3.49135 -1.86871 0
M  V30 27355 H 2608.99 1.8594 -4.21619 0
M  V30 27356 H 2607.3 1.82377 -3.74336 0
M  V30 27357 H 2609.9 4.48005 -2.91883 0
M  V30 27358 H 2610.24 3.95889 -1.28755 0
M  V30 27359 H 2610.78 2.95782 -2.66003 0
M  V30 27360 H 2607.52 3.35528 -5.63117 0
M  V30 27361 H 2607.04 4.28744 -4.1945 0
M  V30 27362 H 2608.71 4.35478 -4.78506 0
M  V30 27363 N 2608.85 1.19999 1.02166 0
M  V30 27364 C 2609.79 0.941005 2.12715 0
M  V30 27365 C 2610.79 -0.105811 1.69069 0
M  V30 27366 O 2611.99 0.0440899 1.79946 0
M  V30 27367 H 2608.37 0.286942 0.695103 0
M  V30 27368 H 2610.34 1.87979 2.31747 0
M  V30 27369 C 2609.09 0.50411 3.44026 0
M  V30 27370 H 2608.41 1.30118 3.78033 0
M  V30 27371 H 2609.85 0.362065 4.22451 0
M  V30 27372 C 2608.31 -0.78282 3.27679 0
M  V30 27373 O 2608.84 -1.8425 3.56952 0
M  V30 27374 N 2607.05 -0.742872 2.80944 0
M  V30 27375 H 2606.59 0.119733 2.57322 0
M  V30 27376 H 2606.55 -1.6043 2.70388 0
M  V30 27377 N 2610.32 -1.21392 1.00507 0
M  V30 27378 C 2611.29 -2.21986 0.570498 0
M  V30 27379 C 2612.29 -1.56873 -0.353183 0
M  V30 27380 O 2613.48 -1.73608 -0.14346 0
M  V30 27381 C 2610.61 -3.40483 -0.168496 0
M  V30 27382 H 2611.8 -2.61948 1.46026 0
M  V30 27383 H 2609.36 -1.34655 0.793589 0
M  V30 27384 H 2610.09 -3.0601 -1.07369 0
M  V30 27385 H 2609.88 -3.88964 0.494892 0
M  V30 27386 H 2611.37 -4.15056 -0.460289 0
M  V30 27387 N 2611.8 -0.779811 -1.36955 0
M  V30 27388 C 2613.21 -0.412188 -1.82093 0
M  V30 27389 C 2613.56 1.0627 -1.64927 0
M  V30 27390 O 2612.69 1.82373 -1.16486 0
M  V30 27391 C 2613.28 -0.741377 -3.30589 0
M  V30 27392 C 2611.84 -0.426707 -3.73973 0
M  V30 27393 C 2610.99 -0.981032 -2.59367 0
M  V30 27394 H 2613.94 -0.97378 -1.25312 0
M  V30 27395 H 2613.96 -0.0289539 -3.80489 0
M  V30 27396 H 2613.47 -1.81488 -3.43051 0
M  V30 27397 H 2611.58 0.63915 -3.67077 0
M  V30 27398 H 2611.69 -0.940597 -4.69776 0
M  V30 27399 H 2610.05 -0.404802 -2.51463 0
M  V30 27400 H 2610.84 -2.0601 -2.74618 0
M  V30 27401 N 2613.28 1.48384 -0.531019 0
M  V30 27402 C 2614.51 2.074 0.000693079 0
M  V30 27403 C 2614.93 1.38482 1.27296 0
M  V30 27404 O 2614.29 0.451111 1.75598 0
M  V30 27405 C 2614.34 3.60007 0.206634 0
M  V30 27406 O 2613.44 3.92193 1.27507 0
M  V30 27407 H 2612.78 0.662818 -0.0395946 0
M  V30 27408 H 2615.31 1.90779 -0.739228 0
M  V30 27409 H 2615.32 4.05739 0.428969 0
M  V30 27410 H 2614 4.09572 -0.722747 0
M  V30 27411 H 2612.57 3.5824 1.03531 0
M  V30 27412 N 2614.76 0.2662 1.55336 0
M  V30 27413 C 2615.71 -0.625126 2.22173 0
M  V30 27414 C 2616.68 -1.15661 1.19213 0
M  V30 27415 O 2617.86 -1.20755 1.47726 0
M  V30 27416 C 2615 -1.80755 2.93975 0
M  V30 27417 C 2614.11 -1.31077 4.11634 0
M  V30 27418 C 2613.25 -2.45428 4.71104 0
M  V30 27419 C 2612.29 -1.92708 5.80973 0
M  V30 27420 N 2611.42 -3.00498 6.34543 0
M  V30 27421 H 2616.26 -0.0485058 2.97961 0
M  V30 27422 H 2613.8 -0.0121766 1.47095 0
M  V30 27423 H 2615.76 -2.50245 3.33816 0
M  V30 27424 H 2614.39 -2.35634 2.20627 0
M  V30 27425 H 2613.44 -0.509259 3.76976 0
M  V30 27426 H 2614.75 -0.884547 4.90894 0
M  V30 27427 H 2613.91 -3.22927 5.13617 0
M  V30 27428 H 2612.65 -2.91361 3.91101 0
M  V30 27429 H 2611.65 -1.13685 5.37918 0
M  V30 27430 H 2612.88 -1.47721 6.62839 0
M  V30 27431 H 2610.82 -3.4583 5.57439 0
M  V30 27432 H 2610.74 -2.62266 7.0905 0
M  V30 27433 H 2612.01 -3.77999 6.81716 0
M  V30 27434 N 2616.24 -1.57599 -0.0066531 0
M  V30 27435 C 2617.46 -1.94553 -0.704053 0
M  V30 27436 C 2617.88 -0.867775 -1.67676 0
M  V30 27437 O 2617.24 0.153893 -1.8185 0
M  V30 27438 C 2617.29 -3.31507 -1.44171 0
M  V30 27439 O 2617.01 -4.35145 -0.508021 0
M  V30 27440 C 2618.51 -3.8288 -2.23422 0
M  V30 27441 H 2615.73 -0.641579 -0.196512 0
M  V30 27442 H 2618.27 -2.04456 0.0424889 0
M  V30 27443 H 2616.43 -3.22933 -2.13994 0
M  V30 27444 H 2616.84 -5.14332 -1.02773 0
M  V30 27445 H 2618.32 -4.81155 -2.70543 0
M  V30 27446 H 2618.79 -3.15239 -3.05812 0
M  V30 27447 H 2619.4 -3.9461 -1.5863 0
M  V30 27448 N 2617.72 0.279305 -1.55105 0
M  V30 27449 C 2618.66 1.34509 -1.87552 0
M  V30 27450 C 2619.63 1.49374 -0.72641 0
M  V30 27451 O 2620.82 1.63883 -0.977092 0
M  V30 27452 C 2617.96 2.70147 -2.14743 0
M  V30 27453 C 2617.07 2.63556 -3.4229 0
M  V30 27454 C 2616.21 3.91331 -3.59213 0
M  V30 27455 C 2615.24 3.79225 -4.80474 0
M  V30 27456 N 2614.38 4.98821 -4.94087 0
M  V30 27457 H 2619.22 1.06138 -2.78458 0
M  V30 27458 H 2616.76 0.512912 -1.37868 0
M  V30 27459 H 2618.72 3.49057 -2.28507 0
M  V30 27460 H 2617.35 2.96733 -1.2708 0
M  V30 27461 H 2616.4 1.76391 -3.37032 0
M  V30 27462 H 2617.71 2.50508 -4.31332 0
M  V30 27463 H 2616.86 4.78681 -3.72759 0
M  V30 27464 H 2615.6 4.07238 -2.68344 0
M  V30 27465 H 2614.61 2.90258 -4.66937 0
M  V30 27466 H 2615.83 3.64842 -5.72772 0
M  V30 27467 H 2613.78 5.15151 -4.06148 0
M  V30 27468 H 2613.7 4.88279 -5.77165 0
M  V30 27469 H 2614.96 5.87761 -5.12013 0
M  V30 27470 N 2619.19 1.47931 0.543528 0
M  V30 27471 C 2620.12 1.6433 1.65885 0
M  V30 27472 C 2621.1 0.492412 1.62817 0
M  V30 27473 O 2622.29 0.72337 1.80225 0
M  V30 27474 C 2619.42 1.67019 3.04503 0
M  V30 27475 C 2618.37 2.81472 3.22425 0
M  V30 27476 C 2617.7 2.69241 4.61967 0
M  V30 27477 C 2619 4.22921 3.06489 0
M  V30 27478 H 2620.69 2.577 1.52417 0
M  V30 27479 H 2618.24 1.24017 0.731827 0
M  V30 27480 H 2620.19 1.77081 3.82388 0
M  V30 27481 H 2618.92 0.702176 3.18962 0
M  V30 27482 H 2617.58 2.70943 2.46953 0
M  V30 27483 H 2617.22 1.70438 4.73244 0
M  V30 27484 H 2616.92 3.46033 4.74905 0
M  V30 27485 H 2618.45 2.81251 5.41969 0
M  V30 27486 H 2619.86 4.34354 3.74178 0
M  V30 27487 H 2618.26 5.00606 3.30929 0
M  V30 27488 H 2619.33 4.4033 2.0307 0
M  V30 27489 N 2620.67 -0.791347 1.36292 0
M  V30 27490 C 2621.58 -1.93525 1.32609 0
M  V30 27491 C 2622.6 -1.72492 0.228572 0
M  V30 27492 O 2623.77 -1.96062 0.460605 0
M  V30 27493 C 2620.84 -3.28357 1.11277 0
M  V30 27494 C 2619.9 -3.62181 2.30486 0
M  V30 27495 C 2619.13 -4.90579 2.10162 0
M  V30 27496 O 2619.36 -5.60163 1.07582 0
M  V30 27497 O 2618.29 -5.23014 2.97893 0
M  V30 27498 H 2622.12 -1.99581 2.28913 0
M  V30 27499 H 2619.7 -0.931323 1.16819 0
M  V30 27500 H 2621.58 -4.09045 1.01291 0
M  V30 27501 H 2620.26 -3.23197 0.180349 0
M  V30 27502 H 2619.16 -2.81806 2.46041 0
M  V30 27503 H 2620.5 -3.72062 3.22228 0
M  V30 27504 N 2622.15 -1.2054 -1.01528 0
M  V30 27505 C 2623.56 -1.01659 -1.56596 0
M  V30 27506 C 2623.91 0.426634 -1.91505 0
M  V30 27507 O 2623.04 1.30824 -1.72377 0
M  V30 27508 C 2623.63 -1.8391 -2.84539 0
M  V30 27509 C 2622.19 -1.69392 -3.3613 0
M  V30 27510 C 2621.34 -1.81761 -2.09424 0
M  V30 27511 H 2624.29 -1.34712 -0.83895 0
M  V30 27512 H 2624.31 -1.34325 -3.56001 0
M  V30 27513 H 2623.82 -2.88944 -2.591 0
M  V30 27514 H 2621.92 -0.669997 -3.66527 0
M  V30 27515 H 2622.04 -2.50746 -4.08244 0
M  V30 27516 H 2620.4 -1.24961 -2.21939 0
M  V30 27517 H 2621.18 -2.88282 -1.86409 0
M  V30 27518 N 2623.63 1.20858 -1.01149 0
M  V30 27519 C 2624.85 1.94622 -0.716732 0
M  V30 27520 C 2625.28 1.73965 0.715384 0
M  V30 27521 O 2624.64 1.03065 1.49155 0
M  V30 27522 C 2624.68 3.44933 -1.05136 0
M  V30 27523 O 2623.79 4.12089 -0.160204 0
M  V30 27524 H 2623.13 0.60821 -0.266415 0
M  V30 27525 H 2625.66 1.53433 -1.35349 0
M  V30 27526 H 2625.67 3.95532 -1.00093 0
M  V30 27527 H 2624.34 3.59291 -2.09482 0
M  V30 27528 H 2622.92 3.71938 -0.267722 0
M  V30 27529 N 2625.11 0.787064 1.3654 0
M  V30 27530 C 2626.07 0.189818 2.28413 0
M  V30 27531 C 2627.07 -0.611473 1.4872 0
M  V30 27532 O 2628.26 -0.432813 1.68738 0
M  V30 27533 C 2625.39 -0.73758 3.32825 0
M  V30 27534 H 2626.58 0.999881 2.82741 0
M  V30 27535 H 2624.14 0.556324 1.46064 0
M  V30 27536 H 2624.87 -1.57207 2.83648 0
M  V30 27537 H 2624.66 -0.164975 3.91753 0
M  V30 27538 H 2626.15 -1.1504 4.01442 0
M  V30 27539 N 2626.58 -1.48101 0.53888 0
M  V30 27540 C 2627.83 -2.02498 0.00803739 0
M  V30 27541 C 2628.16 -1.41511 -1.33435 0
M  V30 27542 O 2627.41 -0.55354 -1.87708 0
M  V30 27543 C 2627.71 -3.57069 -0.153745 0
M  V30 27544 C 2627.38 -4.36886 1.11541 0
M  V30 27545 C 2626.04 -4.58414 1.46322 0
M  V30 27546 C 2628.39 -4.83053 1.95726 0
M  V30 27547 C 2625.72 -5.23357 2.65169 0
M  V30 27548 C 2628.07 -5.49306 3.1376 0
M  V30 27549 C 2626.74 -5.69071 3.48876 0
M  V30 27550 H 2626.01 -0.740994 0.00294109 0
M  V30 27551 H 2628.65 -1.77983 0.706699 0
M  V30 27552 H 2626.96 -3.80474 -0.935242 0
M  V30 27553 H 2628.66 -3.9679 -0.579537 0
M  V30 27554 H 2625.25 -4.20396 0.834558 0
M  V30 27555 H 2629.43 -4.66216 1.70166 0
M  V30 27556 H 2624.69 -5.36856 2.92567 0
M  V30 27557 H 2628.86 -5.84046 3.79293 0
M  V30 27558 H 2626.49 -6.19165 4.41065 0
M  V30 27559 N 2628.06 -0.274434 -1.55192 0
M  V30 27560 C 2629.01 0.627844 -2.19185 0
M  V30 27561 C 2630 1.1189 -1.15627 0
M  V30 27562 O 2631.19 1.06409 -1.41443 0
M  V30 27563 C 2628.32 1.81184 -2.91594 0
M  V30 27564 C 2627.4 1.338 -4.02441 0
M  V30 27565 N 2627.79 0.580261 -5.02461 0
M  V30 27566 C 2626.09 1.62101 -4.15499 0
M  V30 27567 C 2626.79 0.331242 -5.80756 0
M  V30 27568 N 2625.77 0.903462 -5.3604 0
M  V30 27569 H 2629.57 0.04107 -2.93871 0
M  V30 27570 H 2627.08 -0.0779633 -1.62213 0
M  V30 27571 H 2629.08 2.46951 -3.35888 0
M  V30 27572 H 2627.74 2.40257 -2.18418 0
M  V30 27573 H 2628.75 0.227671 -5.17399 0
M  V30 27574 H 2625.43 2.22115 -3.53513 0
M  V30 27575 H 2626.82 -0.275572 -6.71335 0
M  V30 27576 N 2629.54 1.576 -0.00170483 0
M  V30 27577 C 2630.77 1.94641 0.692719 0
M  V30 27578 C 2631.18 0.875159 1.67743 0
M  V30 27579 O 2630.52 -0.15435 1.8305 0
M  V30 27580 C 2630.58 3.27679 1.47875 0
M  V30 27581 C 2630.25 4.52275 0.655438 0
M  V30 27582 C 2631.24 5.19868 -0.0576128 0
M  V30 27583 C 2628.93 4.98693 0.600907 0
M  V30 27584 C 2630.92 6.32179 -0.814163 0
M  V30 27585 C 2628.61 6.10892 -0.159367 0
M  V30 27586 C 2629.61 6.77492 -0.865634 0
M  V30 27587 O 2629.3 7.87541 -1.6135 0
M  V30 27588 H 2629.03 0.64642 0.19778 0
M  V30 27589 H 2631.58 2.0534 -0.0494591 0
M  V30 27590 H 2629.81 3.13392 2.26545 0
M  V30 27591 H 2631.5 3.49819 2.05867 0
M  V30 27592 H 2632.27 4.84994 -0.0246464 0
M  V30 27593 H 2628.15 4.46678 1.14017 0
M  V30 27594 H 2631.69 6.84096 -1.36596 0
M  V30 27595 H 2627.59 6.45208 -0.194148 0
M  V30 27596 H 2628.35 8.04066 -1.53039 0
M  V30 27597 N 2631.02 -0.271076 1.55251 0
M  V30 27598 C 2632.26 -1.00391 1.76209 0
M  V30 27599 C 2632.6 -1.85871 0.562636 0
M  V30 27600 O 2631.87 -1.89464 -0.439752 0
M  V30 27601 C 2632.15 -1.88484 3.06832 0
M  V30 27602 C 2632.01 -1.05984 4.37135 0
M  V30 27603 C 2633.33 -2.8716 3.33508 0
M  V30 27604 H 2630.45 -0.363551 0.641093 0
M  V30 27605 H 2633.09 -0.276156 1.87982 0
M  V30 27606 H 2631.24 -2.50535 2.96925 0
M  V30 27607 H 2632.91 -0.459898 4.59002 0
M  V30 27608 H 2631.15 -0.363367 4.32275 0
M  V30 27609 H 2631.82 -1.70946 5.24863 0
M  V30 27610 H 2634.3 -2.35244 3.4322 0
M  V30 27611 H 2633.18 -3.45939 4.26166 0
M  V30 27612 H 2633.44 -3.62383 2.53241 0
M  V30 27613 N 2632.5 -1.48217 -0.535675 0
M  V30 27614 C 2633.74 -1.55944 -1.29181 0
M  V30 27615 C 2634.07 -0.230891 -1.93125 0
M  V30 27616 O 2633.33 0.7783 -1.79558 0
M  V30 27617 C 2633.63 -2.64216 -2.40675 0
M  V30 27618 C 2633.29 -4.06831 -1.94421 0
M  V30 27619 C 2631.95 -4.45648 -1.81524 0
M  V30 27620 C 2634.31 -4.96228 -1.59396 0
M  V30 27621 C 2631.63 -5.71674 -1.31929 0
M  V30 27622 C 2633.99 -6.22738 -1.11265 0
M  V30 27623 C 2632.65 -6.60417 -0.969808 0
M  V30 27624 H 2631.92 -0.570641 -0.472705 0
M  V30 27625 H 2634.57 -1.8191 -0.598405 0
M  V30 27626 H 2632.87 -2.32088 -3.15661 0
M  V30 27627 H 2634.57 -2.67412 -2.98817 0
M  V30 27628 H 2631.16 -3.76172 -2.05409 0
M  V30 27629 H 2635.34 -4.6692 -1.68223 0
M  V30 27630 H 2630.6 -5.99598 -1.19552 0
M  V30 27631 H 2634.77 -6.91408 -0.832332 0
M  V30 27632 H 2632.4 -7.57959 -0.583302 0
M  V30 27633 N 2633.97 0.784108 -1.3671 0
M  V30 27634 C 2634.88 1.92819 -1.33634 0
M  V30 27635 C 2635.9 1.72369 -0.237716 0
M  V30 27636 O 2637.08 1.95815 -0.470996 0
M  V30 27637 C 2634.14 3.27762 -1.13017 0
M  V30 27638 C 2633.2 3.60953 -2.32403 0
M  V30 27639 C 2632.44 4.89457 -2.12761 0
M  V30 27640 O 2632.66 5.59584 -1.10551 0
M  V30 27641 O 2631.59 5.21427 -3.00662 0
M  V30 27642 H 2635.42 1.98364 -2.29968 0
M  V30 27643 H 2633 0.925115 -1.17311 0
M  V30 27644 H 2634.89 4.08503 -1.03458 0
M  V30 27645 H 2633.56 3.23097 -0.197487 0
M  V30 27646 H 2632.47 2.80498 -2.47532 0
M  V30 27647 H 2633.8 3.70348 -3.24196 0
M  V30 27648 N 2635.45 1.21076 1.00888 0
M  V30 27649 C 2636.7 1.02361 1.7426 0
M  V30 27650 C 2637.02 -0.44436 1.8987 0
M  V30 27651 O 2636.29 -1.32078 1.4468 0
M  V30 27652 H 2634.87 0.375765 0.645608 0
M  V30 27653 H 2637.53 1.52319 1.21594 0
M  V30 27654 H 2636.63 1.48835 2.74326 0
M  V30 27655 N 2636.93 -1.2032 1.01789 0
M  V30 27656 C 2638.18 -1.90002 0.709018 0
M  V30 27657 C 2638.51 -1.78731 -0.759541 0
M  V30 27658 O 2637.78 -1.17237 -1.55196 0
M  V30 27659 C 2638.07 -3.41346 1.14696 0
M  V30 27660 C 2637.92 -3.61544 2.67593 0
M  V30 27661 C 2639.24 -4.34183 0.719226 0
M  V30 27662 H 2636.36 -0.689974 0.259046 0
M  V30 27663 H 2639 -1.4169 1.26586 0
M  V30 27664 H 2637.15 -3.82623 0.673195 0
M  V30 27665 H 2638.82 -3.29511 3.22832 0
M  V30 27666 H 2637.07 -3.04971 3.08505 0
M  V30 27667 H 2637.74 -4.67638 2.93289 0
M  V30 27668 H 2640.21 -4.0056 1.12654 0
M  V30 27669 H 2639.09 -5.38692 1.05367 0
M  V30 27670 H 2639.35 -4.40472 -0.379034 0
M  V30 27671 N 2638.41 -0.794293 -1.3612 0
M  V30 27672 C 2639.36 -0.194141 -2.29982 0
M  V30 27673 C 2640.33 0.664807 -1.52215 0
M  V30 27674 O 2641.51 0.612466 -1.80703 0
M  V30 27675 C 2638.65 0.661184 -3.38707 0
M  V30 27676 C 2637.76 -0.216842 -4.31455 0
M  V30 27677 C 2636.9 0.645319 -5.27266 0
M  V30 27678 C 2635.94 -0.233863 -6.11653 0
M  V30 27679 N 2635.07 0.587559 -6.99637 0
M  V30 27680 H 2639.91 -1.00001 -2.8072 0
M  V30 27681 H 2637.45 -0.504701 -1.38171 0
M  V30 27682 H 2639.41 1.17212 -4.00396 0
M  V30 27683 H 2638.04 1.43244 -2.89277 0
M  V30 27684 H 2637.09 -0.845789 -3.70878 0
M  V30 27685 H 2638.4 -0.89406 -4.90722 0
M  V30 27686 H 2637.56 1.22188 -5.94269 0
M  V30 27687 H 2636.3 1.35615 -4.68466 0
M  V30 27688 H 2635.3 -0.822785 -5.43609 0
M  V30 27689 H 2636.53 -0.942365 -6.7253 0
M  V30 27690 H 2634.47 1.28259 -6.43339 0
M  V30 27691 H 2634.39 -0.0318731 -7.55993 0
M  V30 27692 H 2635.66 1.14779 -7.71003 0
M  V30 27693 N 2639.89 1.47813 -0.546727 0
M  V30 27694 C 2640.8 2.33656 0.210219 0
M  V30 27695 C 2641.81 1.4754 0.922387 0
M  V30 27696 O 2642.99 1.80489 0.89362 0
M  V30 27697 C 2640.05 3.24018 1.23342 0
M  V30 27698 C 2639.11 4.26018 0.529809 0
M  V30 27699 C 2638.35 5.12062 1.50426 0
M  V30 27700 O 2638.57 5.00374 2.73828 0
M  V30 27701 O 2637.5 5.92944 1.03449 0
M  V30 27702 H 2641.33 2.99661 -0.493658 0
M  V30 27703 H 2638.92 1.46202 -0.307452 0
M  V30 27704 H 2640.8 3.79864 1.82432 0
M  V30 27705 H 2639.47 2.60654 1.91941 0
M  V30 27706 H 2638.38 3.73961 -0.102013 0
M  V30 27707 H 2639.71 4.92067 -0.114536 0
M  V30 27708 N 2641.36 0.28266 1.55044 0
M  V30 27709 C 2642.78 -0.213622 1.85474 0
M  V30 27710 C 2643.13 -1.54861 1.20468 0
M  V30 27711 O 2642.25 -2.10646 0.495713 0
M  V30 27712 C 2642.85 -0.394386 3.36497 0
M  V30 27713 C 2641.41 -0.834896 3.67024 0
M  V30 27714 C 2640.55 0.0674568 2.77218 0
M  V30 27715 H 2643.5 0.504229 1.50477 0
M  V30 27716 H 2643.52 -1.2318 3.6001 0
M  V30 27717 H 2643.04 0.577393 3.83781 0
M  V30 27718 H 2641.14 -1.81788 3.25244 0
M  V30 27719 H 2641.25 -0.666992 4.74434 0
M  V30 27720 H 2639.61 -0.450152 2.5069 0
M  V30 27721 H 2640.4 1.03526 3.27318 0
M  V30 27722 N 2642.84 -1.57597 0.0100627 0
M  V30 27723 C 2643.81 -2.07988 -0.962993 0
M  V30 27724 C 2644.81 -0.991195 -1.26617 0
M  V30 27725 O 2646 -1.25349 -1.20968 0
M  V30 27726 C 2643.13 -2.52978 -2.28506 0
M  V30 27727 H 2644.32 -2.95235 -0.526919 0
M  V30 27728 H 2641.87 -1.54483 -0.237612 0
M  V30 27729 H 2642.61 -1.69004 -2.76782 0
M  V30 27730 H 2642.39 -3.32497 -2.07818 0
M  V30 27731 H 2643.88 -2.92256 -2.98289 0
M  V30 27732 N 2644.32 0.262839 -1.55393 0
M  V30 27733 C 2645.57 0.994549 -1.76739 0
M  V30 27734 C 2645.9 1.8557 -0.572486 0
M  V30 27735 O 2645.17 1.89694 0.429698 0
M  V30 27736 C 2645.46 1.86854 -3.07827 0
M  V30 27737 C 2645.31 1.03665 -4.37691 0
M  V30 27738 C 2646.63 2.85387 -3.35026 0
M  V30 27739 H 2643.75 0.360146 -0.643012 0
M  V30 27740 H 2646.39 0.266183 -1.88126 0
M  V30 27741 H 2644.54 2.48956 -2.9825 0
M  V30 27742 H 2646.21 0.435549 -4.59239 0
M  V30 27743 H 2644.46 0.340437 -4.32462 0
M  V30 27744 H 2645.13 1.6816 -5.25762 0
M  V30 27745 H 2647.6 2.3342 -3.44462 0
M  V30 27746 H 2646.48 3.43674 -4.27995 0
M  V30 27747 H 2646.74 3.61035 -2.55159 0
M  V30 27748 N 2645.8 1.48499 0.527807 0
M  V30 27749 C 2646.73 1.6608 1.64133 0
M  V30 27750 C 2647.71 0.509653 1.62285 0
M  V30 27751 O 2648.89 0.742444 1.79447 0
M  V30 27752 C 2646.02 1.70239 3.02714 0
M  V30 27753 C 2644.98 2.84876 3.19421 0
M  V30 27754 C 2644.3 2.74126 4.59085 0
M  V30 27755 C 2645.6 4.26148 3.01986 0
M  V30 27756 H 2647.3 2.59302 1.49675 0
M  V30 27757 H 2644.84 1.24787 0.718632 0
M  V30 27758 H 2646.8 1.81126 3.80488 0
M  V30 27759 H 2645.52 0.735967 3.182 0
M  V30 27760 H 2644.18 2.73547 2.44065 0
M  V30 27761 H 2643.83 1.75448 4.7141 0
M  V30 27762 H 2643.53 3.51051 4.71208 0
M  V30 27763 H 2645.05 2.86984 5.38955 0
M  V30 27764 H 2646.47 4.38298 3.6955 0
M  V30 27765 H 2644.86 5.04088 3.25601 0
M  V30 27766 H 2645.93 4.42459 1.98388 0
M  V30 27767 N 2647.28 -0.776847 1.37123 0
M  V30 27768 C 2648.51 -1.56588 1.35233 0
M  V30 27769 C 2648.92 -1.88693 -0.0635186 0
M  V30 27770 O 2648.28 -1.51071 -1.02391 0
M  V30 27771 C 2648.33 -2.87926 2.18588 0
M  V30 27772 O 2648.05 -2.57199 3.54655 0
M  V30 27773 C 2649.55 -3.82179 2.24619 0
M  V30 27774 H 2646.77 -0.485277 0.463408 0
M  V30 27775 H 2649.31 -0.963235 1.80394 0
M  V30 27776 H 2647.47 -3.44627 1.76949 0
M  V30 27777 H 2647.88 -3.41268 3.98292 0
M  V30 27778 H 2649.36 -4.71356 2.87275 0
M  V30 27779 H 2649.83 -4.20942 1.25317 0
M  V30 27780 H 2650.44 -3.31409 2.66548 0
M  V30 27781 N 2648.76 -1.2161 -1.00244 0
M  V30 27782 C 2649.7 -0.97765 -2.09071 0
M  V30 27783 C 2650.67 0.0972679 -1.65815 0
M  V30 27784 O 2651.86 -0.050378 -1.90733 0
M  V30 27785 C 2649 -0.551193 -3.4067 0
M  V30 27786 C 2648.11 -1.69583 -3.97323 0
M  V30 27787 C 2647.25 -1.21829 -5.17041 0
M  V30 27788 C 2646.28 -2.33509 -5.65809 0
M  V30 27789 N 2645.42 -1.86871 -6.76775 0
M  V30 27790 H 2650.26 -1.90928 -2.28802 0
M  V30 27791 H 2647.8 -0.951471 -1.12185 0
M  V30 27792 H 2649.76 -0.28517 -4.16224 0
M  V30 27793 H 2648.39 0.343432 -3.20968 0
M  V30 27794 H 2647.44 -2.07642 -3.1873 0
M  V30 27795 H 2648.75 -2.53625 -4.29507 0
M  V30 27796 H 2647.9 -0.909081 -5.9985 0
M  V30 27797 H 2646.64 -0.347954 -4.86457 0
M  V30 27798 H 2645.65 -2.6523 -4.81594 0
M  V30 27799 H 2646.87 -3.21043 -5.98421 0
M  V30 27800 H 2644.82 -1.02185 -6.47992 0
M  V30 27801 H 2644.74 -2.64484 -7.08226 0
M  V30 27802 H 2646 -1.58991 -7.63113 0
M  V30 27803 N 2650.23 1.19778 -1.02425 0
M  V30 27804 C 2651.18 2.24874 -0.594514 0
M  V30 27805 C 2652.18 1.65297 0.370569 0
M  V30 27806 O 2653.38 1.78397 0.239653 0
M  V30 27807 H 2649.76 0.731599 -0.173974 0
M  V30 27808 H 2651.73 2.58442 -1.49165 0
M  V30 27809 C 2650.48 3.47673 0.0435901 0
M  V30 27810 H 2649.8 3.938 -0.690032 0
M  V30 27811 H 2651.24 4.22885 0.307287 0
M  V30 27812 C 2649.7 3.11276 1.28876 0
M  V30 27813 O 2650.23 3.23508 2.3813 0
M  V30 27814 N 2648.43 2.65752 1.17576 0
M  V30 27815 H 2647.98 2.55999 0.286724 0
M  V30 27816 H 2647.94 2.4177 2.00984 0
M  V30 27817 N 2651.71 0.801501 1.35697 0
M  V30 27818 C 2652.99 0.302971 1.93239 0
M  V30 27819 C 2653.37 -1.20669 1.73211 0
M  V30 27820 O 2652.72 -2.00383 1.09812 0
M  V30 27821 C 2652.93 0.708807 3.41726 0
M  V30 27822 C 2654.27 0.695402 4.18867 0
M  V30 27823 O 2655.3 0.650033 3.50219 0
M  V30 27824 O 2654.16 0.749176 5.41341 0
M  V30 27825 H 2651.25 0.0780511 0.823309 0
M  V30 27826 H 2653.8 0.884857 1.44805 0
M  V30 27827 H 2652.57 1.7495 3.50012 0
M  V30 27828 H 2652.19 0.101454 3.97471 0
M  V30 27829 N 2653.19 -1.47521 0.554558 0
M  V30 27830 C 2654.6 -1.86311 0.120479 0
M  V30 27831 C 2654.95 -1.46148 -1.30902 0
M  V30 27832 O 2654.08 -0.863329 -1.98433 0
M  V30 27833 C 2654.67 -3.38137 0.211868 0
M  V30 27834 C 2653.23 -3.76029 -0.167158 0
M  V30 27835 C 2652.38 -2.71574 0.560624 0
M  V30 27836 H 2655.33 -1.39076 0.764433 0
M  V30 27837 H 2655.35 -3.76203 -0.570209 0
M  V30 27838 H 2654.86 -3.67338 1.25238 0
M  V30 27839 H 2652.96 -3.52444 -1.20888 0
M  V30 27840 H 2653.08 -4.78725 0.189557 0
M  V30 27841 H 2651.44 -2.547 0.00401313 0
M  V30 27842 H 2652.22 -3.03617 1.60224 0
M  V30 27843 N 2654.67 -0.290879 -1.54892 0
M  V30 27844 C 2656.08 0.0628152 -1.59476 0
M  V30 27845 C 2656.28 1.53278 -1.30798 0
M  V30 27846 O 2655.34 2.28404 -1.07648 0
M  V30 27847 C 2656.65 -0.326014 -2.98927 0
M  V30 27848 C 2658.2 -0.273937 -3.11799 0
M  V30 27849 C 2658.68 -0.637438 -4.53542 0
M  V30 27850 N 2660.17 -0.589587 -4.59432 0
M  V30 27851 C 2660.9 -0.84345 -5.67163 0
M  V30 27852 N 2660.4 -1.16275 -6.82973 0
M  V30 27853 N 2662.19 -0.771189 -5.56785 0
M  V30 27854 H 2654.34 -1.24899 -1.71796 0
M  V30 27855 H 2656.6 -0.505677 -0.80187 0
M  V30 27856 H 2656.31 -1.34893 -3.24803 0
M  V30 27857 H 2656.18 0.325375 -3.75794 0
M  V30 27858 H 2658.57 0.739715 -2.85679 0
M  V30 27859 H 2658.65 -0.959808 -2.3711 0
M  V30 27860 H 2658.3 -1.64885 -4.80391 0
M  V30 27861 H 2658.23 0.070394 -5.26553 0
M  V30 27862 H 2660.72 -0.353318 -3.76245 0
M  V30 27863 H 2661.03 -1.34271 -7.61046 0
M  V30 27864 H 2659.38 -1.20069 -6.8455 0
M  V30 27865 H 2662.57 -0.521465 -4.65186 0
M  V30 27866 H 2662.74 -0.972408 -6.40662 0
M  V30 27867 N 2656.15 1.57589 -0.0184203 0
M  V30 27868 C 2657.08 2.12601 0.965559 0
M  V30 27869 C 2658.06 1.03953 1.3464 0
M  V30 27870 O 2659.24 1.31731 1.4269 0
M  V30 27871 C 2656.37 2.64438 2.25145 0
M  V30 27872 C 2655.33 3.77777 2.01168 0
M  V30 27873 C 2654.65 4.15999 3.35929 0
M  V30 27874 C 2655.95 5.04298 1.35944 0
M  V30 27875 H 2657.65 2.95068 0.507452 0
M  V30 27876 H 2655.19 1.41941 0.242646 0
M  V30 27877 H 2657.14 3.01554 2.94352 0
M  V30 27878 H 2655.87 1.79117 2.73102 0
M  V30 27879 H 2654.53 3.41082 1.34382 0
M  V30 27880 H 2654.18 3.27676 3.81625 0
M  V30 27881 H 2653.88 4.92369 3.20696 0
M  V30 27882 H 2655.4 4.5569 4.06422 0
M  V30 27883 H 2656.81 5.39069 1.95135 0
M  V30 27884 H 2655.21 5.85595 1.31142 0
M  V30 27885 H 2656.28 4.83769 0.330986 0
M  V30 27886 N 2657.62 -0.254594 1.5553 0
M  V30 27887 C 2658.57 -1.31508 1.89669 0
M  V30 27888 C 2659.54 -1.48199 0.750083 0
M  V30 27889 O 2660.73 -1.62308 1.00304 0
M  V30 27890 C 2657.87 -2.66696 2.19014 0
M  V30 27891 C 2656.98 -2.58077 3.46439 0
M  V30 27892 C 2656.11 -3.85566 3.65393 0
M  V30 27893 C 2655.15 -3.71533 4.86446 0
M  V30 27894 N 2654.29 -4.90897 5.01961 0
M  V30 27895 H 2659.13 -1.01695 2.80111 0
M  V30 27896 H 2656.67 -0.490914 1.38667 0
M  V30 27897 H 2658.62 -3.45377 2.34031 0
M  V30 27898 H 2657.25 -2.94674 1.31784 0
M  V30 27899 H 2656.31 -1.71007 3.39795 0
M  V30 27900 H 2657.62 -2.43614 4.35263 0
M  V30 27901 H 2656.77 -4.7269 3.80328 0
M  V30 27902 H 2655.51 -4.02918 2.74789 0
M  V30 27903 H 2654.52 -2.82792 4.71496 0
M  V30 27904 H 2655.74 -3.55683 5.78503 0
M  V30 27905 H 2653.69 -5.08624 4.14292 0
M  V30 27906 H 2653.6 -4.79035 5.8486 0
M  V30 27907 H 2654.87 -5.79541 5.21299 0
M  V30 27908 N 2659.1 -1.48777 -0.519925 0
M  V30 27909 C 2660.33 -1.60984 -1.29968 0
M  V30 27910 C 2660.74 -0.273917 -1.86802 0
M  V30 27911 O 2660.1 0.738164 -1.66905 0
M  V30 27912 C 2660.15 -2.6642 -2.44342 0
M  V30 27913 O 2659.87 -3.94828 -1.89848 0
M  V30 27914 C 2661.37 -2.89159 -3.36009 0
M  V30 27915 H 2658.59 -0.542503 -0.394882 0
M  V30 27916 H 2661.14 -1.94677 -0.62618 0
M  V30 27917 H 2659.29 -2.35557 -3.07557 0
M  V30 27918 H 2659.71 -4.52755 -2.6479 0
M  V30 27919 H 2661.18 -3.6671 -4.12586 0
M  V30 27920 H 2661.66 -1.98358 -3.91855 0
M  V30 27921 H 2662.26 -3.21364 -2.78577 0
M  V30 27922 N 2660.58 0.769564 -1.37534 0
M  V30 27923 C 2661.86 1.51766 -1.23395 0
M  V30 27924 C 2662.24 2.10402 0.171533 0
M  V30 27925 O 2661.58 1.9571 1.1794 0
M  V30 27926 C 2661.79 2.59681 -2.33167 0
M  V30 27927 C 2663.14 3.27024 -2.70815 0
M  V30 27928 O 2664.17 2.69977 -2.3236 0
M  V30 27929 O 2663.03 4.30167 -3.37074 0
M  V30 27930 H 2660.12 0.672282 -0.481628 0
M  V30 27931 H 2662.67 0.806342 -1.49319 0
M  V30 27932 H 2661.44 2.14488 -3.27277 0
M  V30 27933 H 2661.06 3.38411 -2.08719 0
M  V30 27934 N 2662.06 1.22139 0.995977 0
M  V30 27935 C 2663.31 1.04409 1.73508 0
M  V30 27936 C 2663.63 -0.42121 1.89884 0
M  V30 27937 O 2662.89 -1.32865 1.43685 0
M  V30 27938 C 2663.19 1.69685 3.1455 0
M  V30 27939 C 2662.85 3.19571 3.18097 0
M  V30 27940 C 2661.52 3.60469 3.18772 0
M  V30 27941 C 2663.87 4.15522 3.14629 0
M  V30 27942 C 2661.2 4.95807 3.13676 0
M  V30 27943 C 2663.55 5.50832 3.11074 0
M  V30 27944 C 2662.21 5.91115 3.10063 0
M  V30 27945 H 2661.48 0.382061 0.63491 0
M  V30 27946 H 2664.13 1.51859 1.16667 0
M  V30 27947 H 2662.43 1.14553 3.7468 0
M  V30 27948 H 2664.13 1.5346 3.70474 0
M  V30 27949 H 2660.72 2.87003 3.18319 0
M  V30 27950 H 2664.9 3.84944 3.1326 0
M  V30 27951 H 2660.16 5.26253 3.11236 0
M  V30 27952 H 2664.33 6.24909 3.07346 0
M  V30 27953 H 2661.96 6.95951 3.05869 0
M  V30 27954 N 2663.54 -1.19233 1.03059 0
M  V30 27955 C 2664.45 -2.26178 0.622962 0
M  V30 27956 C 2665.46 -1.70523 -0.346083 0
M  V30 27957 O 2666.64 -2.00369 -0.203537 0
M  V30 27958 C 2663.7 -3.46695 -0.0181454 0
M  V30 27959 C 2662.76 -4.17524 0.998619 0
M  V30 27960 C 2662 -5.32288 0.388011 0
M  V30 27961 O 2662.22 -5.6464 -0.808569 0
M  V30 27962 O 2661.15 -5.91544 1.11171 0
M  V30 27963 H 2664.98 -2.6329 1.51368 0
M  V30 27964 H 2662.57 -1.2612 0.800878 0
M  V30 27965 H 2664.45 -4.19723 -0.375532 0
M  V30 27966 H 2663.12 -3.11428 -0.88284 0
M  V30 27967 H 2662.03 -3.46608 1.40762 0
M  V30 27968 H 2663.36 -4.56766 1.83374 0
M  V30 27969 N 2665.01 -0.808686 -1.3527 0
M  V30 27970 C 2665.92 -0.222121 -2.33546 0
M  V30 27971 C 2666.94 0.635982 -1.61961 0
M  V30 27972 O 2668.12 0.547239 -1.93823 0
M  V30 27973 C 2665.18 0.61789 -3.4115 0
M  V30 27974 C 2664.24 -0.26095 -4.28506 0
M  V30 27975 C 2663.48 0.539063 -5.30971 0
M  V30 27976 O 2663.7 1.77358 -5.42126 0
M  V30 27977 O 2662.63 -0.0711584 -6.01858 0
M  V30 27978 H 2666.46 -1.03517 -2.85514 0
M  V30 27979 H 2664.04 -0.570519 -1.38078 0
M  V30 27980 H 2665.93 1.09627 -4.0689 0
M  V30 27981 H 2664.6 1.4085 -2.9145 0
M  V30 27982 H 2663.51 -0.786516 -3.65739 0
M  V30 27983 H 2664.84 -1.01556 -4.81609 0
M  V30 27984 N 2666.49 1.47225 -0.562374 0
M  V30 27985 C 2667.46 2.28554 0.172016 0
M  V30 27986 C 2668.46 1.37244 0.837904 0
M  V30 27987 O 2669.65 1.59823 0.692973 0
M  V30 27988 C 2666.78 3.1707 1.25218 0
M  V30 27989 H 2667.97 2.94953 -0.542453 0
M  V30 27990 H 2665.52 1.52999 -0.31952 0
M  V30 27991 H 2666.26 2.55373 1.99888 0
M  V30 27992 H 2666.04 3.84275 0.779448 0
M  V30 27993 H 2667.53 3.78335 1.76784 0
M  V30 27994 N 2667.97 0.299089 1.54736 0
M  V30 27995 C 2669.22 -0.311514 1.9928 0
M  V30 27996 C 2669.53 -1.55152 1.1911 0
M  V30 27997 O 2670.74 -2.23659 1.53912 0
M  V30 27998 C 2669.19 -0.60557 3.54769 0
M  V30 27999 C 2668.8 0.615992 4.43745 0
M  V30 28000 C 2670.55 -1.17747 4.07843 0
M  V30 28001 C 2668.45 0.295194 5.90663 0
M  V30 28002 H 2667.38 -0.120174 0.744362 0
M  V30 28003 H 2670.03 0.407495 1.78918 0
M  V30 28004 H 2668.42 -1.38412 3.71023 0
M  V30 28005 H 2669.59 1.39225 4.39264 0
M  V30 28006 H 2667.91 1.1064 4.01432 0
M  V30 28007 H 2670.5 -1.4317 5.15176 0
M  V30 28008 H 2670.85 -2.11912 3.58328 0
M  V30 28009 H 2671.38 -0.46067 3.95124 0
M  V30 28010 H 2668.12 1.20535 6.44323 0
M  V30 28011 H 2667.64 -0.443834 5.98156 0
M  V30 28012 H 2669.32 -0.103935 6.46917 0
M  V30 28013 N 2669.45 -1.57577 0.0267774 0
M  V30 28014 C 2670.7 -1.91704 -0.652371 0
M  V30 28015 C 2671.02 -0.902967 -1.72269 0
M  V30 28016 O 2670.28 0.08845 -1.955 0
M  V30 28017 C 2670.58 -3.32562 -1.30909 0
M  V30 28018 C 2670.24 -4.49385 -0.369362 0
M  V30 28019 C 2668.91 -4.81073 -0.110707 0
M  V30 28020 C 2671.26 -5.20468 0.276063 0
M  V30 28021 C 2668.59 -5.81203 0.801218 0
M  V30 28022 C 2670.94 -6.21572 1.17603 0
M  V30 28023 C 2669.6 -6.51703 1.4436 0
M  V30 28024 H 2668.87 -0.701494 -0.238719 0
M  V30 28025 H 2671.52 -1.91298 0.0880428 0
M  V30 28026 H 2669.82 -3.29219 -2.12419 0
M  V30 28027 H 2671.52 -3.56237 -1.84109 0
M  V30 28028 H 2668.11 -4.24642 -0.581137 0
M  V30 28029 H 2672.29 -4.9622 0.0892872 0
M  V30 28030 H 2667.55 -6.02895 1.01625 0
M  V30 28031 H 2671.72 -6.75774 1.68235 0
M  V30 28032 H 2669.35 -7.29108 2.15188 0
M  V30 28033 N 2670.93 0.246342 -1.55663 0
M  V30 28034 C 2672.15 0.996061 -1.81916 0
M  V30 28035 C 2672.58 1.78142 -0.603906 0
M  V30 28036 O 2671.93 1.75702 0.44706 0
M  V30 28037 C 2671.98 1.9092 -3.05912 0
M  V30 28038 O 2671.09 3.001 -2.82866 0
M  V30 28039 H 2670.43 0.283396 -0.600486 0
M  V30 28040 H 2672.96 0.267163 -2.02848 0
M  V30 28041 H 2672.97 2.32374 -3.3536 0
M  V30 28042 H 2671.64 1.33176 -3.94001 0
M  V30 28043 H 2670.22 2.6277 -2.64587 0
M  V30 28044 N 2672.4 1.4905 0.512027 0
M  V30 28045 C 2673.35 1.64905 1.61477 0
M  V30 28046 C 2674.32 0.490701 1.58686 0
M  V30 28047 O 2675.51 0.716391 1.7684 0
M  V30 28048 C 2672.65 1.71144 2.99673 0
M  V30 28049 C 2671.76 2.98209 3.12563 0
M  V30 28050 C 2670.89 2.95495 4.41425 0
M  V30 28051 C 2669.93 4.17187 4.47908 0
M  V30 28052 N 2669.07 4.12447 5.68183 0
M  V30 28053 H 2673.91 2.59069 1.47267 0
M  V30 28054 H 2671.45 1.2846 0.716691 0
M  V30 28055 H 2673.41 1.72742 3.79758 0
M  V30 28056 H 2672.04 0.804563 3.12613 0
M  V30 28057 H 2671.09 3.06273 2.25613 0
M  V30 28058 H 2672.4 3.88199 3.13214 0
M  V30 28059 H 2671.55 2.95595 5.29819 0
M  V30 28060 H 2670.29 2.03264 4.43323 0
M  V30 28061 H 2669.3 4.17343 3.57918 0
M  V30 28062 H 2670.52 5.10598 4.47735 0
M  V30 28063 H 2668.47 3.23046 5.70944 0
M  V30 28064 H 2668.39 4.96161 5.70404 0
M  V30 28065 H 2669.65 4.16633 6.58815 0
M  V30 28066 N 2673.88 -0.762259 1.3794 0
M  V30 28067 C 2675.11 -1.5492 1.36688 0
M  V30 28068 C 2675.52 -1.89141 -0.0473767 0
M  V30 28069 O 2674.86 -1.52639 -1.0221 0
M  V30 28070 C 2674.93 -2.88148 2.14968 0
M  V30 28071 C 2674.59 -2.76512 3.63855 0
M  V30 28072 C 2675.59 -2.46896 4.57535 0
M  V30 28073 C 2673.27 -2.94236 4.071 0
M  V30 28074 C 2675.27 -2.35145 5.9244 0
M  V30 28075 C 2672.95 -2.82106 5.42088 0
M  V30 28076 C 2673.95 -2.52602 6.34572 0
M  V30 28077 O 2673.64 -2.40516 7.67077 0
M  V30 28078 H 2673.37 -0.486268 0.469595 0
M  V30 28079 H 2675.92 -0.951844 1.82014 0
M  V30 28080 H 2674.15 -3.50039 1.64346 0
M  V30 28081 H 2675.84 -3.49605 2.06231 0
M  V30 28082 H 2676.61 -2.32879 4.25432 0
M  V30 28083 H 2672.49 -3.162 3.35468 0
M  V30 28084 H 2676.03 -2.12038 6.64594 0
M  V30 28085 H 2671.93 -2.95694 5.7379 0
M  V30 28086 H 2672.7 -2.55794 7.77504 0
M  V30 28087 N 2675.36 -1.22666 -0.989486 0
M  V30 28088 C 2676.61 -1.05484 -1.73208 0
M  V30 28089 C 2676.94 0.408602 -1.89853 0
M  V30 28090 O 2676.21 1.30283 -1.44418 0
M  V30 28091 C 2676.5 -1.77052 -3.13567 0
M  V30 28092 C 2676.35 -3.31013 -3.04549 0
M  V30 28093 C 2677.67 -1.52567 -4.12809 0
M  V30 28094 H 2674.79 -0.3846 -0.62869 0
M  V30 28095 H 2677.43 -1.51051 -1.15255 0
M  V30 28096 H 2675.58 -1.38317 -3.63044 0
M  V30 28097 H 2677.25 -3.79215 -2.62667 0
M  V30 28098 H 2675.5 -3.60514 -2.41271 0
M  V30 28099 H 2676.17 -3.7627 -4.03887 0
M  V30 28100 H 2678.64 -1.86222 -3.72103 0
M  V30 28101 H 2677.52 -2.05133 -5.09128 0
M  V30 28102 H 2677.78 -0.459014 -4.39711 0
M  V30 28103 N 2676.84 1.18685 -1.0369 0
M  V30 28104 C 2678.09 1.88198 -0.736605 0
M  V30 28105 C 2678.41 1.8051 0.737633 0
M  V30 28106 O 2677.68 1.22091 1.53201 0
M  V30 28107 H 2676.26 0.6967 -0.269479 0
M  V30 28108 H 2678.92 1.4405 -1.31285 0
M  V30 28109 H 2678.02 2.9433 -1.03807 0
M  V30 28110 N 2678.32 0.815849 1.34839 0
M  V30 28111 C 2679.27 0.220929 2.31548 0
M  V30 28112 C 2680.26 -0.634429 1.57071 0
M  V30 28113 O 2681.47 -0.526559 1.72126 0
M  V30 28114 H 2677.84 0.0526914 0.750152 0
M  V30 28115 H 2679.81 1.05154 2.79258 0
M  V30 28116 C 2678.56 -0.608367 3.42336 0
M  V30 28117 H 2677.88 0.0404824 3.9978 0
M  V30 28118 H 2679.32 -0.990858 4.1226 0
M  V30 28119 C 2677.78 -1.77777 2.86176 0
M  V30 28120 O 2678.31 -2.87566 2.80479 0
M  V30 28121 N 2676.52 -1.59225 2.43096 0
M  V30 28122 H 2676.07 -0.699193 2.4793 0
M  V30 28123 H 2676.02 -2.37623 2.0587 0
M  V30 28124 N 2679.8 -1.46924 0.570174 0
M  V30 28125 C 2680.74 -2.30171 -0.170217 0
M  V30 28126 C 2681.71 -1.39856 -0.896074 0
M  V30 28127 O 2682.9 -1.68812 -0.889218 0
M  V30 28128 C 2680.04 -3.24081 -1.18599 0
M  V30 28129 C 2679.15 -4.29491 -0.464871 0
M  V30 28130 C 2678.29 -5.10539 -1.46707 0
M  V30 28131 C 2677.32 -6.07712 -0.731651 0
M  V30 28132 N 2676.46 -6.81672 -1.6813 0
M  V30 28133 H 2681.3 -2.9296 0.545765 0
M  V30 28134 H 2678.84 -1.44392 0.280963 0
M  V30 28135 H 2680.8 -3.7696 -1.78765 0
M  V30 28136 H 2679.43 -2.63129 -1.86984 0
M  V30 28137 H 2678.48 -3.79567 0.251573 0
M  V30 28138 H 2679.79 -4.98677 0.110636 0
M  V30 28139 H 2678.94 -5.67634 -2.14189 0
M  V30 28140 H 2677.68 -4.41285 -2.0765 0
M  V30 28141 H 2676.69 -5.49783 -0.042982 0
M  V30 28142 H 2677.91 -6.7898 -0.127784 0
M  V30 28143 H 2675.86 -6.15138 -2.27907 0
M  V30 28144 H 2675.78 -7.47074 -1.15828 0
M  V30 28145 H 2677.04 -7.43332 -2.34687 0
M  V30 28146 N 2681.27 -0.307291 -1.54575 0
M  V30 28147 C 2682.52 0.300941 -1.99442 0
M  V30 28148 C 2682.84 1.54518 -1.19931 0
M  V30 28149 O 2684.04 2.2284 -1.55096 0
M  V30 28150 C 2682.5 0.586747 -3.55085 0
M  V30 28151 C 2682.11 -0.639516 -4.43412 0
M  V30 28152 C 2683.85 1.15583 -4.08462 0
M  V30 28153 C 2681.76 -0.326514 -5.90498 0
M  V30 28154 H 2680.69 0.116225 -0.744988 0
M  V30 28155 H 2683.34 -0.416978 -1.787 0
M  V30 28156 H 2681.72 1.36443 -3.71752 0
M  V30 28157 H 2682.89 -1.41553 -4.3852 0
M  V30 28158 H 2681.21 -1.12767 -4.0084 0
M  V30 28159 H 2683.81 1.40436 -5.15928 0
M  V30 28160 H 2684.15 2.10009 -3.59447 0
M  V30 28161 H 2684.68 0.439709 -3.95362 0
M  V30 28162 H 2681.42 -1.23951 -6.43674 0
M  V30 28163 H 2680.94 0.412107 -5.98383 0
M  V30 28164 H 2682.62 0.0696256 -6.46963 0
M  V30 28165 N 2682.75 1.57561 -0.0351337 0
M  V30 28166 C 2683.98 1.96351 0.652223 0
M  V30 28167 C 2684.39 0.911926 1.65316 0
M  V30 28168 O 2683.75 -0.105625 1.82194 0
M  V30 28169 C 2683.8 3.35213 1.35331 0
M  V30 28170 O 2683.52 4.36338 0.392472 0
M  V30 28171 C 2685.02 3.88669 2.13192 0
M  V30 28172 H 2682.24 0.646564 0.179433 0
M  V30 28173 H 2684.79 2.04271 -0.0966819 0
M  V30 28174 H 2682.94 3.28493 2.05356 0
M  V30 28175 H 2683.36 5.16877 0.891007 0
M  V30 28176 H 2684.83 4.88159 2.57691 0
M  V30 28177 H 2685.31 3.23236 2.97347 0
M  V30 28178 H 2685.91 3.98677 1.48111 0
M  V30 28179 N 2684.23 -0.238084 1.55791 0
M  V30 28180 C 2685.14 -1.31621 1.94198 0
M  V30 28181 C 2686.16 -1.52184 0.843572 0
M  V30 28182 O 2687.33 -1.65635 1.14573 0
M  V30 28183 C 2684.4 -2.64914 2.23654 0
M  V30 28184 C 2683.46 -2.52798 3.46975 0
M  V30 28185 C 2682.69 -3.79734 3.75017 0
M  V30 28186 O 2682.91 -4.82014 3.0499 0
M  V30 28187 O 2681.85 -3.77838 4.68532 0
M  V30 28188 H 2685.67 -1.02038 2.86045 0
M  V30 28189 H 2683.26 -0.439578 1.42787 0
M  V30 28190 H 2685.14 -3.43665 2.43869 0
M  V30 28191 H 2683.82 -2.94212 1.34984 0
M  V30 28192 H 2682.72 -1.72303 3.32058 0
M  V30 28193 H 2684.06 -2.28443 4.35975 0
M  V30 28194 N 2685.71 -1.4932 -0.504115 0
M  V30 28195 C 2686.95 -1.58884 -1.2603 0
M  V30 28196 C 2687.29 -0.273307 -1.92267 0
M  V30 28197 O 2686.56 0.722878 -1.80568 0
M  V30 28198 C 2686.84 -2.74584 -2.32971 0
M  V30 28199 C 2686.7 -4.15923 -1.71255 0
M  V30 28200 C 2688.02 -2.85938 -3.34556 0
M  V30 28201 H 2685.14 -0.57832 -0.456853 0
M  V30 28202 H 2687.78 -1.81593 -0.558933 0
M  V30 28203 H 2685.93 -2.55353 -2.92792 0
M  V30 28204 H 2687.6 -4.46662 -1.15286 0
M  V30 28205 H 2685.84 -4.21715 -1.01679 0
M  V30 28206 H 2686.51 -4.92746 -2.48808 0
M  V30 28207 H 2688.99 -3.03435 -2.84722 0
M  V30 28208 H 2687.87 -3.68575 -4.06748 0
M  V30 28209 H 2688.13 -1.95161 -3.96692 0
M  V30 28210 N 2687.19 0.754933 -1.38342 0
M  V30 28211 C 2688.46 1.50449 -1.24998 0
M  V30 28212 C 2688.84 2.10572 0.149207 0
M  V30 28213 O 2688.19 1.9695 1.15857 0
M  V30 28214 C 2688.4 2.57193 -2.35908 0
M  V30 28215 C 2689.75 3.24133 -2.74268 0
M  V30 28216 O 2690.77 2.67497 -2.3521 0
M  V30 28217 O 2689.63 4.26567 -3.41617 0
M  V30 28218 H 2686.73 0.667136 -0.488732 0
M  V30 28219 H 2689.27 0.790459 -1.50166 0
M  V30 28220 H 2688.04 2.11005 -3.29534 0
M  V30 28221 H 2687.67 3.36178 -2.12297 0
M  V30 28222 N 2688.66 1.23189 0.982967 0
M  V30 28223 C 2689.57 1.02743 2.10905 0
M  V30 28224 C 2690.59 -0.0272883 1.73979 0
M  V30 28225 O 2691.77 0.167605 2.00701 0
M  V30 28226 C 2688.83 0.618364 3.41141 0
M  V30 28227 C 2687.89 1.74784 3.92109 0
M  V30 28228 C 2687.12 1.35819 5.16129 0
M  V30 28229 O 2687.35 0.241301 5.69889 0
M  V30 28230 O 2686.28 2.17834 5.61099 0
M  V30 28231 H 2690.11 1.97112 2.31042 0
M  V30 28232 H 2687.69 1.01871 1.09282 0
M  V30 28233 H 2689.57 0.401056 4.19487 0
M  V30 28234 H 2688.25 -0.296364 3.2234 0
M  V30 28235 H 2687.16 2.01976 3.14891 0
M  V30 28236 H 2688.49 2.64079 4.15359 0
M  V30 28237 N 2690.14 -1.18133 1.04318 0
M  V30 28238 C 2691.37 -1.91834 0.767037 0
M  V30 28239 C 2691.78 -1.76558 -0.679989 0
M  V30 28240 O 2691.12 -1.09435 -1.47546 0
M  V30 28241 C 2691.18 -3.43616 1.05681 0
M  V30 28242 C 2690.85 -3.8267 2.49825 0
M  V30 28243 C 2691.85 -3.86245 3.4801 0
M  V30 28244 C 2689.53 -4.13892 2.84603 0
M  V30 28245 C 2691.52 -4.20495 4.79023 0
M  V30 28246 C 2689.21 -4.47812 4.15821 0
M  V30 28247 C 2690.21 -4.5109 5.12842 0
M  V30 28248 O 2689.9 -4.84217 6.41708 0
M  V30 28249 H 2689.63 -0.615758 0.278958 0
M  V30 28250 H 2692.18 -1.50796 1.39463 0
M  V30 28251 H 2690.41 -3.84906 0.372097 0
M  V30 28252 H 2692.1 -3.98567 0.768064 0
M  V30 28253 H 2692.87 -3.62258 3.22481 0
M  V30 28254 H 2688.75 -4.10516 2.09755 0
M  V30 28255 H 2692.29 -4.22968 5.54747 0
M  V30 28256 H 2688.19 -4.7126 4.41117 0
M  V30 28257 H 2688.96 -5.0211 6.46396 0
M  V30 28258 N 2691.62 -0.822988 -1.34405 0
M  V30 28259 C 2692.55 -0.190164 -2.27406 0
M  V30 28260 C 2693.53 0.65346 -1.48891 0
M  V30 28261 O 2694.72 0.617185 -1.7811 0
M  V30 28262 C 2691.84 0.734419 -3.30642 0
M  V30 28263 C 2690.89 -0.0316848 -4.26488 0
M  V30 28264 S 2691.72 -1.37889 -5.17443 0
M  V30 28265 C 2692.88 -0.45918 -6.24213 0
M  V30 28266 H 2693.11 -0.978635 -2.80731 0
M  V30 28267 H 2690.64 -0.618891 -1.41454 0
M  V30 28268 H 2692.6 1.26231 -3.9061 0
M  V30 28269 H 2691.26 1.49641 -2.76163 0
M  V30 28270 H 2690.46 0.671197 -4.99511 0
M  V30 28271 H 2690.06 -0.490131 -3.70774 0
M  V30 28272 H 2692.35 0.349238 -6.76599 0
M  V30 28273 H 2693.29 -1.15908 -6.98549 0
M  V30 28274 H 2693.7 -0.0475817 -5.6448 0
M  V30 28275 N 2693.1 1.4662 -0.577957 0
M  V30 28276 C 2694.05 2.30258 0.158008 0
M  V30 28277 C 2695.02 1.40329 0.888645 0
M  V30 28278 O 2696.2 1.69281 0.880253 0
M  V30 28279 C 2693.34 3.24705 1.16879 0
M  V30 28280 C 2692.45 4.29732 0.442088 0
M  V30 28281 C 2691.59 5.1131 1.43998 0
M  V30 28282 C 2690.63 6.08091 0.699413 0
M  V30 28283 N 2689.76 6.82554 1.64513 0
M  V30 28284 H 2694.6 2.92666 -0.561294 0
M  V30 28285 H 2692.14 1.44241 -0.288616 0
M  V30 28286 H 2694.1 3.77903 1.76763 0
M  V30 28287 H 2692.73 2.64117 1.85586 0
M  V30 28288 H 2691.78 3.79428 -0.271699 0
M  V30 28289 H 2693.09 4.98612 -0.13708 0
M  V30 28290 H 2692.25 5.68762 2.11176 0
M  V30 28291 H 2690.99 4.4238 2.05307 0
M  V30 28292 H 2689.99 5.49798 0.0138251 0
M  V30 28293 H 2691.22 6.79038 0.0917746 0
M  V30 28294 H 2689.16 6.16338 2.24642 0
M  V30 28295 H 2689.08 7.47678 1.11865 0
M  V30 28296 H 2690.35 7.44566 2.30741 0
M  V30 28297 N 2694.58 0.315484 1.5441 0
M  V30 28298 C 2695.49 -0.56325 2.27738 0
M  V30 28299 C 2696.5 -1.13611 1.31789 0
M  V30 28300 O 2697.68 -1.15781 1.64793 0
M  V30 28301 C 2694.74 -1.71202 3.01481 0
M  V30 28302 C 2693.8 -1.17177 4.12999 0
M  V30 28303 C 2693.04 -2.26579 4.83216 0
M  V30 28304 O 2693.26 -3.46767 4.5289 0
M  V30 28305 O 2692.19 -1.92453 5.70303 0
M  V30 28306 H 2696.02 0.0320147 3.03683 0
M  V30 28307 H 2693.61 0.081445 1.49178 0
M  V30 28308 H 2695.49 -2.381 3.47687 0
M  V30 28309 H 2694.16 -2.29362 2.28418 0
M  V30 28310 H 2693.07 -0.468109 3.7116 0
M  V30 28311 H 2694.4 -0.635415 4.88081 0
M  V30 28312 N 2696.05 -1.5754 0.0434891 0
M  V30 28313 C 2697.02 -2.09984 -0.918659 0
M  V30 28314 C 2698.02 -1.01783 -1.24486 0
M  V30 28315 O 2699.21 -1.27887 -1.18282 0
M  V30 28316 C 2696.34 -2.57768 -2.23088 0
M  V30 28317 H 2697.53 -2.96286 -0.464177 0
M  V30 28318 H 2695.09 -1.54953 -0.204791 0
M  V30 28319 H 2695.82 -1.74837 -2.73134 0
M  V30 28320 H 2695.61 -3.3683 -2.00718 0
M  V30 28321 H 2697.1 -2.98517 -2.92023 0
M  V30 28322 N 2697.53 0.229818 -1.55915 0
M  V30 28323 C 2698.78 0.956836 -1.78809 0
M  V30 28324 C 2699.11 1.84314 -0.611719 0
M  V30 28325 O 2698.39 1.90563 0.389365 0
M  V30 28326 C 2698.67 1.80283 -3.11721 0
M  V30 28327 C 2698.52 0.943571 -4.39792 0
M  V30 28328 C 2699.84 2.78216 -3.41004 0
M  V30 28329 H 2696.96 0.346426 -0.650506 0
M  V30 28330 H 2699.6 0.226219 -1.88648 0
M  V30 28331 H 2697.75 2.42574 -3.03463 0
M  V30 28332 H 2699.42 0.33804 -4.6006 0
M  V30 28333 H 2697.67 0.248629 -4.33087 0
M  V30 28334 H 2698.34 1.5697 -5.29211 0
M  V30 28335 H 2700.81 2.26061 -3.49336 0
M  V30 28336 H 2699.69 3.34518 -4.35188 0
M  V30 28337 H 2699.95 3.55541 -2.6276 0
M  V30 28338 N 2699.01 1.49585 0.49619 0
M  V30 28339 C 2700.29 1.49818 1.25753 0
M  V30 28340 C 2700.67 0.228609 2.09858 0
M  V30 28341 O 2700.02 -0.78887 2.14451 0
M  V30 28342 C 2700.23 2.77983 2.11013 0
M  V30 28343 C 2701.57 3.27663 2.70041 0
M  V30 28344 O 2702.6 2.79133 2.21276 0
M  V30 28345 O 2701.46 4.12196 3.58827 0
M  V30 28346 H 2698.55 0.599844 0.569312 0
M  V30 28347 H 2701.1 1.61853 0.510066 0
M  V30 28348 H 2699.87 3.61874 1.48872 0
M  V30 28349 H 2699.49 2.68832 2.92942 0
M  V30 28350 N 2700.49 -0.747586 1.3874 0
M  V30 28351 C 2701.44 -1.85224 1.32951 0
M  V30 28352 C 2702.42 -1.59488 0.21267 0
M  V30 28353 O 2703.61 -1.71206 0.449152 0
M  V30 28354 C 2700.74 -3.23006 1.16285 0
M  V30 28355 C 2699.83 -3.54613 2.32617 0
M  V30 28356 N 2700.22 -3.57238 3.58071 0
M  V30 28357 C 2698.52 -3.8491 2.253 0
M  V30 28358 C 2699.22 -3.86282 4.34926 0
M  V30 28359 N 2698.2 -4.03418 3.64355 0
M  V30 28360 H 2702 -1.8554 2.2793 0
M  V30 28361 H 2699.51 -0.94523 1.32057 0
M  V30 28362 H 2701.51 -4.02066 1.10221 0
M  V30 28363 H 2700.17 -3.23937 0.222451 0
M  V30 28364 H 2701.18 -3.38853 3.91662 0
M  V30 28365 H 2697.86 -3.93522 1.39453 0
M  V30 28366 H 2699.25 -3.94886 5.43612 0
M  V30 28367 N 2701.97 -1.23709 -0.97642 0
M  V30 28368 C 2703.2 -1.09676 -1.75085 0
M  V30 28369 C 2703.6 0.354311 -1.85853 0
M  V30 28370 O 2702.95 1.25671 -1.33987 0
M  V30 28371 C 2703.01 -1.6525 -3.19269 0
M  V30 28372 C 2702.67 -3.14048 -3.31999 0
M  V30 28373 C 2703.67 -4.11298 -3.1801 0
M  V30 28374 C 2701.36 -3.53835 -3.56519 0
M  V30 28375 C 2703.35 -5.46318 -3.28353 0
M  V30 28376 C 2701.04 -4.88999 -3.66501 0
M  V30 28377 C 2702.03 -5.85049 -3.52429 0
M  V30 28378 O 2701.72 -7.17757 -3.6205 0
M  V30 28379 H 2701.45 -0.384272 -0.556158 0
M  V30 28380 H 2704.01 -1.64113 -1.23515 0
M  V30 28381 H 2702.24 -1.05238 -3.72105 0
M  V30 28382 H 2703.93 -1.46636 -3.78487 0
M  V30 28383 H 2704.69 -3.81901 -2.98959 0
M  V30 28384 H 2700.57 -2.79585 -3.66542 0
M  V30 28385 H 2704.12 -6.21269 -3.17286 0
M  V30 28386 H 2700.01 -5.1807 -3.85063 0
M  V30 28387 H 2700.78 -7.2556 -3.7882 0
M  V30 28388 N 2703.44 1.17579 -1.04943 0
M  V30 28389 C 2704.41 2.19716 -0.652494 0
M  V30 28390 C 2705.41 1.58076 0.294717 0
M  V30 28391 O 2706.6 1.74021 0.0789273 0
M  V30 28392 C 2703.73 3.40874 0.0420113 0
M  V30 28393 H 2704.92 2.56348 -1.55647 0
M  V30 28394 H 2702.48 1.31616 -0.843019 0
M  V30 28395 H 2703.21 3.09785 0.959376 0
M  V30 28396 H 2703 3.8686 -0.638912 0
M  V30 28397 H 2704.49 4.16478 0.305927 0
M  V30 28398 N 2704.92 0.830104 1.33967 0
M  V30 28399 C 2706.17 0.420768 1.97671 0
M  V30 28400 C 2706.49 -1.02135 1.66113 0
M  V30 28401 O 2705.76 -1.71016 0.955533 0
M  V30 28402 H 2704.34 0.1526 0.731247 0
M  V30 28403 H 2707 1.06113 1.63481 0
M  V30 28404 H 2706.1 0.545642 3.07293 0
M  V30 28405 N 2706.4 -1.46311 0.585725 0
M  V30 28406 C 2707.33 -2.28463 -0.183647 0
M  V30 28407 C 2708.35 -1.38688 -0.852615 0
M  V30 28408 O 2709.54 -1.63261 -0.721672 0
M  V30 28409 C 2706.64 -3.1381 -1.27971 0
M  V30 28410 C 2705.81 -4.31728 -0.702088 0
M  V30 28411 C 2704.87 -4.9845 -1.68624 0
M  V30 28412 O 2703.89 -5.55947 -1.22111 0
M  V30 28413 N 2705.1 -4.95735 -3.02039 0
M  V30 28414 H 2707.86 -2.95134 0.521178 0
M  V30 28415 H 2705.42 -1.56257 0.423701 0
M  V30 28416 H 2707.41 -3.55311 -1.93743 0
M  V30 28417 H 2705.98 -2.49194 -1.88736 0
M  V30 28418 H 2705.2 -3.93975 0.13317 0
M  V30 28419 H 2706.49 -5.07938 -0.296012 0
M  V30 28420 H 2705.89 -4.50272 -3.42449 0
M  V30 28421 H 2704.45 -5.41167 -3.63292 0
M  V30 28422 N 2707.88 -0.323668 -1.54241 0
M  V30 28423 C 2708.81 0.534953 -2.27289 0
M  V30 28424 C 2709.79 1.11925 -1.28089 0
M  V30 28425 O 2710.98 1.14436 -1.56901 0
M  V30 28426 C 2708.11 1.69591 -3.03078 0
M  V30 28427 C 2707.06 1.24091 -4.09616 0
M  V30 28428 C 2706.39 2.48882 -4.73246 0
M  V30 28429 C 2707.69 0.355698 -5.21087 0
M  V30 28430 H 2709.38 -0.0743784 -2.99308 0
M  V30 28431 H 2706.93 -0.0372127 -1.43952 0
M  V30 28432 H 2708.88 2.30287 -3.52911 0
M  V30 28433 H 2707.6 2.33183 -2.28677 0
M  V30 28434 H 2706.26 0.656881 -3.60667 0
M  V30 28435 H 2705.91 3.10838 -3.9546 0
M  V30 28436 H 2705.61 2.19128 -5.45212 0
M  V30 28437 H 2707.13 3.10339 -5.25854 0
M  V30 28438 H 2708.55 0.868943 -5.66677 0
M  V30 28439 H 2706.94 0.150939 -5.9991 0
M  V30 28440 H 2708.01 -0.613423 -4.81004 0
M  V30 28441 N 2709.36 1.57515 -0.0518432 0
M  V30 28442 C 2710.29 2.0713 0.957722 0
M  V30 28443 C 2711.27 0.971949 1.30353 0
M  V30 28444 O 2712.45 1.24393 1.41629 0
M  V30 28445 C 2709.58 2.51236 2.27153 0
M  V30 28446 C 2708.63 3.72413 2.07872 0
M  V30 28447 S 2709.46 5.18035 1.35647 0
M  V30 28448 C 2710.61 5.65455 2.68349 0
M  V30 28449 H 2710.85 2.92438 0.535468 0
M  V30 28450 H 2708.38 1.53564 0.160438 0
M  V30 28451 H 2710.34 2.77309 3.02671 0
M  V30 28452 H 2709 1.66232 2.66506 0
M  V30 28453 H 2708.19 4.01196 3.05054 0
M  V30 28454 H 2707.79 3.46609 1.40493 0
M  V30 28455 H 2710.09 5.71082 3.64516 0
M  V30 28456 H 2711.03 6.64659 2.44201 0
M  V30 28457 H 2711.44 4.93187 2.74639 0
M  V30 28458 N 2710.84 -0.221546 1.56035 0
M  V30 28459 C 2712.06 -0.966994 1.83477 0
M  V30 28460 C 2712.49 -1.77159 0.632171 0
M  V30 28461 O 2711.84 -1.76391 -0.419051 0
M  V30 28462 C 2711.89 -1.86029 3.0891 0
M  V30 28463 O 2711 -2.95562 2.87605 0
M  V30 28464 H 2710.34 -0.273807 0.604918 0
M  V30 28465 H 2712.87 -0.234858 2.03248 0
M  V30 28466 H 2712.88 -2.2701 3.39014 0
M  V30 28467 H 2711.55 -1.26891 3.9607 0
M  V30 28468 H 2710.13 -2.58527 2.68734 0
M  V30 28469 N 2712.31 -1.49846 -0.48825 0
M  V30 28470 C 2713.24 -1.70373 -1.59672 0
M  V30 28471 C 2714.22 -0.552501 -1.60877 0
M  V30 28472 O 2715.41 -0.789761 -1.77416 0
M  V30 28473 C 2712.54 -1.78205 -2.98094 0
M  V30 28474 C 2711.49 -2.93244 -3.11756 0
M  V30 28475 C 2710.82 -2.86201 -4.51656 0
M  V30 28476 C 2712.12 -4.34004 -2.90581 0
M  V30 28477 H 2713.81 -2.6318 -1.42747 0
M  V30 28478 H 2711.36 -1.26648 -0.685295 0
M  V30 28479 H 2713.31 -1.91151 -3.75552 0
M  V30 28480 H 2712.04 -0.820073 -3.16137 0
M  V30 28481 H 2710.7 -2.79922 -2.36727 0
M  V30 28482 H 2710.34 -1.87885 -4.66592 0
M  V30 28483 H 2710.04 -3.6342 -4.61735 0
M  V30 28484 H 2711.57 -3.01172 -5.31157 0
M  V30 28485 H 2712.98 -4.47942 -3.578 0
M  V30 28486 H 2711.38 -5.12543 -3.12121 0
M  V30 28487 H 2712.45 -4.47564 -1.86587 0
M  V30 28488 N 2713.79 0.740218 -1.39135 0
M  V30 28489 C 2715.07 1.49115 -1.26587 0
M  V30 28490 C 2715.45 2.10718 0.126865 0
M  V30 28491 O 2714.8 1.98168 1.13762 0
M  V30 28492 C 2715.01 2.54676 -2.38623 0
M  V30 28493 C 2716.35 3.21206 -2.77691 0
M  V30 28494 O 2717.38 2.64987 -2.38034 0
M  V30 28495 O 2716.24 4.2292 -3.46122 0
M  V30 28496 H 2713.33 0.661915 -0.49578 0
M  V30 28497 H 2715.88 0.774488 -1.50996 0
M  V30 28498 H 2714.65 2.07498 -3.31753 0
M  V30 28499 H 2714.27 3.33908 -2.1585 0
M  V30 28500 N 2715.27 1.24225 0.969846 0
M  V30 28501 C 2716.52 1.07469 1.70685 0
M  V30 28502 C 2716.83 -0.386828 1.91737 0
M  V30 28503 O 2718.04 -0.674535 2.62987 0
M  V30 28504 C 2716.49 1.87477 3.07214 0
M  V30 28505 C 2716.1 3.38025 2.94012 0
M  V30 28506 C 2717.85 1.79244 3.84801 0
M  V30 28507 C 2715.75 4.10386 4.25837 0
M  V30 28508 H 2714.68 0.398547 0.64006 0
M  V30 28509 H 2717.33 1.48287 1.08089 0
M  V30 28510 H 2715.72 1.39472 3.70626 0
M  V30 28511 H 2716.89 3.93594 2.39625 0
M  V30 28512 H 2715.2 3.47187 2.29892 0
M  V30 28513 H 2717.8 2.30611 4.82413 0
M  V30 28514 H 2718.14 0.757269 4.09355 0
M  V30 28515 H 2718.68 2.24918 3.28111 0
M  V30 28516 H 2715.42 5.14253 4.06477 0
M  V30 28517 H 2714.94 3.59603 4.80048 0
M  V30 28518 H 2716.62 4.17265 4.94468 0
M  V30 28519 N 2716.75 -1.1702 1.05565 0
M  V30 28520 C 2717.7 -2.23219 0.653926 0
M  V30 28521 C 2718.69 -1.66222 -0.326613 0
M  V30 28522 O 2719.9 -1.7897 -0.19227 0
M  V30 28523 H 2716.27 -0.726729 0.19331 0
M  V30 28524 H 2718.24 -2.54397 1.55965 0
M  V30 28525 C 2716.99 -3.47666 0.0486045 0
M  V30 28526 H 2716.31 -3.91832 0.794199 0
M  V30 28527 H 2717.75 -4.23551 -0.195059 0
M  V30 28528 C 2716.21 -3.14583 -1.20577 0
M  V30 28529 O 2716.74 -3.29707 -2.29469 0
M  V30 28530 N 2714.95 -2.68776 -1.10488 0
M  V30 28531 H 2714.5 -2.5667 -0.21875 0
M  V30 28532 H 2714.45 -2.47014 -1.94503 0
M  V30 28533 N 2718.23 -0.837197 -1.33524 0
M  V30 28534 C 2719.45 -0.44553 -2.02046 0
M  V30 28535 C 2719.87 0.952759 -1.62997 0
M  V30 28536 O 2719.23 1.61891 -0.842475 0
M  V30 28537 C 2719.28 -0.554639 -3.5722 0
M  V30 28538 O 2719 -1.89783 -3.94859 0
M  V30 28539 C 2720.5 -0.159711 -4.43012 0
M  V30 28540 H 2717.72 -0.177059 -0.647218 0
M  V30 28541 H 2720.26 -1.12931 -1.7049 0
M  V30 28542 H 2718.42 0.08121 -3.87315 0
M  V30 28543 H 2718.83 -1.88217 -4.89566 0
M  V30 28544 H 2720.31 -0.287107 -5.51253 0
M  V30 28545 H 2720.78 0.898213 -4.29917 0
M  V30 28546 H 2721.39 -0.769929 -4.18273 0
M  V30 28547 N 2719.7 1.45999 -0.593476 0
M  V30 28548 C 2720.61 2.34207 0.135776 0
M  V30 28549 C 2721.63 1.504 0.874982 0
M  V30 28550 O 2722.81 1.83241 0.835746 0
M  V30 28551 C 2719.87 3.27778 1.12971 0
M  V30 28552 C 2718.93 4.27488 0.394006 0
M  V30 28553 C 2718.16 5.16589 1.34059 0
M  V30 28554 O 2718.39 5.08832 2.57771 0
M  V30 28555 O 2717.32 5.95934 0.845322 0
M  V30 28556 H 2721.15 2.97939 -0.588743 0
M  V30 28557 H 2718.73 1.4515 -0.35381 0
M  V30 28558 H 2720.61 3.85476 1.70254 0
M  V30 28559 H 2719.29 2.66628 1.83551 0
M  V30 28560 H 2718.2 3.73447 -0.220934 0
M  V30 28561 H 2719.53 4.91453 -0.271026 0
M  V30 28562 N 2721.18 0.331843 1.54067 0
M  V30 28563 C 2722.11 -0.564499 2.2214 0
M  V30 28564 C 2723.13 -1.0733 1.2241 0
M  V30 28565 O 2724.32 -0.985455 1.48832 0
M  V30 28566 C 2721.42 -1.78826 2.87879 0
M  V30 28567 C 2720.59 -1.41675 4.1382 0
M  V30 28568 C 2719.65 -2.49893 4.63077 0
M  V30 28569 O 2718.67 -2.1369 5.27565 0
M  V30 28570 N 2719.88 -3.80959 4.38007 0
M  V30 28571 H 2722.64 0.0184263 2.99694 0
M  V30 28572 H 2720.2 0.155424 1.61152 0
M  V30 28573 H 2722.19 -2.50631 3.17752 0
M  V30 28574 H 2720.76 -2.27884 2.13981 0
M  V30 28575 H 2719.98 -0.529976 3.90621 0
M  V30 28576 H 2721.27 -1.14435 4.95764 0
M  V30 28577 H 2720.67 -4.13166 3.86407 0
M  V30 28578 H 2719.23 -4.48969 4.72515 0
M  V30 28579 N 2722.66 -1.57485 0.0601958 0
M  V30 28580 C 2723.59 -2.07635 -0.946724 0
M  V30 28581 C 2724.57 -0.978849 -1.29836 0
M  V30 28582 O 2725.76 -1.25142 -1.40967 0
M  V30 28583 C 2722.88 -2.52437 -2.25817 0
M  V30 28584 C 2721.93 -3.7351 -2.05894 0
M  V30 28585 S 2722.76 -5.18747 -1.32897 0
M  V30 28586 C 2723.92 -5.6687 -2.65346 0
M  V30 28587 H 2724.15 -2.92718 -0.519952 0
M  V30 28588 H 2721.68 -1.53647 -0.152292 0
M  V30 28589 H 2723.64 -2.78911 -3.01196 0
M  V30 28590 H 2722.3 -1.67643 -2.65621 0
M  V30 28591 H 2721.5 -4.02808 -3.02922 0
M  V30 28592 H 2721.1 -3.47349 -1.38653 0
M  V30 28593 H 2723.39 -5.73007 -3.61482 0
M  V30 28594 H 2724.33 -6.65945 -2.40673 0
M  V30 28595 H 2724.74 -4.94637 -2.72019 0
M  V30 28596 N 2724.14 0.213268 -1.5615 0
M  V30 28597 C 2725.38 0.943403 -1.81326 0
M  V30 28598 C 2725.74 1.81197 -0.634966 0
M  V30 28599 O 2726.94 2.57648 -0.766211 0
M  V30 28600 C 2725.21 1.75328 -3.1144 0
M  V30 28601 S 2726.77 2.53792 -3.57959 0
M  V30 28602 H 2723.59 0.316755 -0.636543 0
M  V30 28603 H 2726.19 0.208279 -1.94387 0
M  V30 28604 H 2724.9 1.1055 -3.9523 0
M  V30 28605 H 2724.43 2.53056 -3.01208 0
M  V30 28606 H 2726.44 3.77571 -3.21954 0
M  V30 28607 N 2725.62 1.50103 0.480296 0
M  V30 28608 C 2726.55 1.71218 1.58766 0
M  V30 28609 C 2727.53 0.561025 1.60582 0
M  V30 28610 O 2728.71 0.799158 1.76995 0
M  V30 28611 C 2725.84 1.79783 2.97145 0
M  V30 28612 C 2724.8 2.94894 3.10196 0
M  V30 28613 C 2724.12 2.88592 4.50132 0
M  V30 28614 C 2725.42 4.35539 2.88276 0
M  V30 28615 H 2727.12 2.63933 1.4135 0
M  V30 28616 H 2724.66 1.2701 0.678569 0
M  V30 28617 H 2726.62 1.9314 3.74533 0
M  V30 28618 H 2725.34 0.836827 3.15697 0
M  V30 28619 H 2724 2.81173 2.35239 0
M  V30 28620 H 2723.65 1.90357 4.65589 0
M  V30 28621 H 2723.35 3.65864 4.59801 0
M  V30 28622 H 2724.87 3.03985 5.29552 0
M  V30 28623 H 2726.28 4.49834 3.55419 0
M  V30 28624 H 2724.68 5.14191 3.09399 0
M  V30 28625 H 2725.75 4.48547 1.84211 0
M  V30 28626 N 2727.09 -0.732829 1.39526 0
M  V30 28627 C 2728 -1.87727 1.40698 0
M  V30 28628 C 2729.02 -1.71368 0.301526 0
M  V30 28629 O 2730.2 -1.93932 0.543347 0
M  V30 28630 C 2727.26 -3.23342 1.25104 0
M  V30 28631 C 2726.32 -3.52079 2.4564 0
M  V30 28632 C 2725.56 -4.81224 2.3078 0
M  V30 28633 O 2725.78 -5.55096 1.31243 0
M  V30 28634 O 2724.71 -5.09909 3.19808 0
M  V30 28635 H 2728.54 -1.89693 2.37172 0
M  V30 28636 H 2726.12 -0.880938 1.20664 0
M  V30 28637 H 2728.01 -4.04381 1.18548 0
M  V30 28638 H 2726.68 -3.22141 0.317266 0
M  V30 28639 H 2725.59 -2.71117 2.57772 0
M  V30 28640 H 2726.92 -3.5806 3.37718 0
M  V30 28641 N 2728.57 -1.24737 -0.963244 0
M  V30 28642 C 2729.85 -0.99763 -1.68246 0
M  V30 28643 C 2730.23 0.47874 -2.056 0
M  V30 28644 O 2729.58 1.45409 -1.76263 0
M  V30 28645 C 2729.79 -1.92492 -2.91115 0
M  V30 28646 C 2731.14 -2.19839 -3.63257 0
M  V30 28647 O 2732.16 -1.90181 -3.0118 0
M  V30 28648 O 2731.02 -2.70228 -4.75015 0
M  V30 28649 H 2728.11 -0.37765 -0.735738 0
M  V30 28650 H 2730.66 -1.35855 -1.01694 0
M  V30 28651 H 2729.43 -2.9222 -2.60237 0
M  V30 28652 H 2729.05 -1.56745 -3.654 0
M  V30 28653 N 2730.05 1.16459 -1.06184 0
M  V30 28654 C 2731.01 2.19012 -0.675761 0
M  V30 28655 C 2732.01 1.5838 0.277935 0
M  V30 28656 O 2733.2 1.74095 0.0604656 0
M  V30 28657 C 2730.34 3.40899 0.00585467 0
M  V30 28658 H 2731.53 2.54682 -1.58357 0
M  V30 28659 H 2729.08 1.30715 -0.856931 0
M  V30 28660 H 2729.82 3.10785 0.926465 0
M  V30 28661 H 2729.6 3.8616 -0.679908 0
M  V30 28662 H 2731.09 4.16779 0.261736 0
M  V30 28663 N 2731.53 0.844266 1.33079 0
M  V30 28664 C 2732.46 0.226319 2.27075 0
M  V30 28665 C 2733.44 -0.62969 1.49912 0
M  V30 28666 O 2734.62 -0.588771 1.79069 0
M  V30 28667 C 2731.75 -0.681724 3.31768 0
M  V30 28668 C 2730.8 0.0995314 4.26384 0
M  V30 28669 S 2731.63 1.46103 5.15184 0
M  V30 28670 C 2732.79 0.558429 6.23404 0
M  V30 28671 H 2733.02 1.02317 2.79139 0
M  V30 28672 H 2730.55 0.641316 1.40451 0
M  V30 28673 H 2732.51 -1.20001 3.92568 0
M  V30 28674 H 2731.17 -1.45229 2.78509 0
M  V30 28675 H 2730.36 -0.591645 5.00515 0
M  V30 28676 H 2729.97 0.549056 3.69948 0
M  V30 28677 H 2732.26 -0.241553 6.77069 0
M  V30 28678 H 2733.2 1.27007 6.96617 0
M  V30 28679 H 2733.61 0.13738 5.64333 0
M  V30 28680 N 2733.01 -1.45682 0.60121 0
M  V30 28681 C 2734.24 -2.06358 0.0999455 0
M  V30 28682 C 2734.64 -1.44756 -1.21829 0
M  V30 28683 O 2733.99 -0.553726 -1.75156 0
M  V30 28684 C 2734.05 -3.59297 -0.120786 0
M  V30 28685 C 2733.71 -4.43198 1.11467 0
M  V30 28686 C 2734.71 -4.78577 2.03127 0
M  V30 28687 C 2732.4 -4.84049 1.34171 0
M  V30 28688 C 2734.39 -5.53655 3.15823 0
M  V30 28689 C 2732.08 -5.58883 2.47169 0
M  V30 28690 C 2733.07 -5.93602 3.37824 0
M  V30 28691 O 2732.76 -6.6692 4.48857 0
M  V30 28692 H 2732.49 -0.673054 0.0630434 0
M  V30 28693 H 2735.05 -1.88015 0.827015 0
M  V30 28694 H 2733.28 -3.76017 -0.902678 0
M  V30 28695 H 2734.97 -4.01837 -0.572855 0
M  V30 28696 H 2735.73 -4.4758 1.86809 0
M  V30 28697 H 2731.61 -4.56464 0.645098 0
M  V30 28698 H 2735.16 -5.80673 3.86606 0
M  V30 28699 H 2731.05 -5.89295 2.63442 0
M  V30 28700 H 2731.82 -6.85364 4.47458 0
M  V30 28701 N 2734.48 -0.340009 -1.53889 0
M  V30 28702 C 2735.73 0.257077 -2.00458 0
M  V30 28703 C 2736.05 1.51351 -1.22955 0
M  V30 28704 O 2735.32 1.93001 -0.335768 0
M  V30 28705 H 2733.9 0.0979835 -0.740546 0
M  V30 28706 H 2736.57 -0.46035 -1.89385 0
M  V30 28707 H 2735.66 0.502002 -3.08036 0
M  V30 28708 N 2735.96 1.57451 -0.0685468 0
M  V30 28709 C 2737.19 1.9769 0.610427 0
M  V30 28710 C 2737.61 0.946787 1.63344 0
M  V30 28711 O 2736.96 -0.0669548 1.82377 0
M  V30 28712 C 2737.01 3.38008 1.2819 0
M  V30 28713 O 2736.74 4.37073 0.299829 0
M  V30 28714 C 2738.24 3.93104 2.049 0
M  V30 28715 H 2735.46 0.650224 0.165678 0
M  V30 28716 H 2738 2.0402 -0.139989 0
M  V30 28717 H 2736.16 3.32775 1.98342 0
M  V30 28718 H 2736.57 5.1865 0.781169 0
M  V30 28719 H 2738.04 4.93515 2.47279 0
M  V30 28720 H 2738.52 3.2947 2.90424 0
M  V30 28721 H 2739.13 4.01729 1.39622 0
M  V30 28722 N 2737.44 -0.204984 1.56261 0
M  V30 28723 C 2738.72 -0.952203 1.70858 0
M  V30 28724 C 2739.1 -2.01774 0.620536 0
M  V30 28725 O 2738.45 -2.25485 -0.369995 0
M  V30 28726 C 2738.66 -1.54761 3.1281 0
M  V30 28727 C 2740 -2.03354 3.72736 0
M  V30 28728 O 2741.03 -1.64623 3.15876 0
M  V30 28729 O 2739.89 -2.74592 4.72506 0
M  V30 28730 H 2736.98 -0.445883 0.696504 0
M  V30 28731 H 2739.53 -0.19546 1.68571 0
M  V30 28732 H 2738.3 -0.779064 3.83466 0
M  V30 28733 H 2737.92 -2.36946 3.19284 0
M  V30 28734 N 2738.92 -1.50356 -0.472329 0
M  V30 28735 C 2740.17 -1.60964 -1.22208 0
M  V30 28736 C 2740.49 -0.311473 -1.92496 0
M  V30 28737 O 2739.76 0.67097 -1.84051 0
M  V30 28738 H 2738.34 -0.593143 -0.454081 0
M  V30 28739 H 2741 -1.87127 -0.544944 0
M  V30 28740 H 2740.1 -2.42016 -1.97065 0
M  V30 28741 N 2740.4 0.725419 -1.39912 0
M  V30 28742 C 2741.33 1.85252 -1.42141 0
M  V30 28743 C 2742.31 1.6772 -0.283542 0
M  V30 28744 O 2743.49 1.87897 -0.49075 0
M  V30 28745 C 2740.62 3.23105 -1.27359 0
M  V30 28746 C 2739.58 3.55291 -2.38646 0
M  V30 28747 C 2738.9 4.92184 -2.08947 0
M  V30 28748 C 2740.2 3.57288 -3.80976 0
M  V30 28749 H 2741.9 1.83644 -2.36464 0
M  V30 28750 H 2739.44 0.882118 -1.13819 0
M  V30 28751 H 2741.4 4.01637 -1.27537 0
M  V30 28752 H 2740.12 3.25264 -0.295083 0
M  V30 28753 H 2738.78 2.79094 -2.37701 0
M  V30 28754 H 2738.43 4.90934 -1.09511 0
M  V30 28755 H 2738.13 5.14686 -2.835 0
M  V30 28756 H 2739.65 5.73061 -2.10791 0
M  V30 28757 H 2741.07 4.25878 -3.83798 0
M  V30 28758 H 2739.46 3.91312 -4.54967 0
M  V30 28759 H 2740.53 2.56883 -4.11265 0
M  V30 28760 N 2741.88 1.25246 0.956615 0
M  V30 28761 C 2742.79 1.07193 2.08679 0
M  V30 28762 C 2743.8 0.00962132 1.73997 0
M  V30 28763 O 2744.98 0.210139 2.00301 0
M  V30 28764 C 2742.04 0.690586 3.39753 0
M  V30 28765 C 2741.1 1.83061 3.88313 0
M  V30 28766 C 2740.34 1.46737 5.13132 0
M  V30 28767 O 2740.56 0.362129 5.69249 0
M  V30 28768 O 2739.49 2.29687 5.56352 0
M  V30 28769 H 2743.32 2.01969 2.26809 0
M  V30 28770 H 2740.9 1.04167 1.07097 0
M  V30 28771 H 2742.79 0.489945 4.18542 0
M  V30 28772 H 2741.46 -0.227924 3.22897 0
M  V30 28773 H 2740.37 2.0861 3.10536 0
M  V30 28774 H 2741.7 2.7283 4.09664 0
M  V30 28775 N 2743.35 -1.15894 1.068 0
M  V30 28776 C 2744.32 -2.1865 0.687366 0
M  V30 28777 C 2745.32 -1.58525 -0.269532 0
M  V30 28778 O 2746.51 -1.74125 -0.0512321 0
M  V30 28779 C 2743.64 -3.40898 0.0122241 0
M  V30 28780 H 2744.83 -2.53839 1.59705 0
M  V30 28781 H 2742.38 -1.30259 0.863851 0
M  V30 28782 H 2743.12 -3.11272 -0.90997 0
M  V30 28783 H 2742.9 -3.85794 0.700377 0
M  V30 28784 H 2744.39 -4.16912 -0.23963 0
M  V30 28785 N 2744.83 -0.851312 -1.32629 0
M  V30 28786 C 2745.76 -0.308812 -2.31449 0
M  V30 28787 C 2746.74 0.590227 -1.59532 0
M  V30 28788 O 2747.93 0.511172 -1.87352 0
M  V30 28789 C 2745.06 0.506488 -3.43587 0
M  V30 28790 C 2744.01 -0.297828 -4.26963 0
M  V30 28791 C 2743.34 0.642001 -5.30832 0
M  V30 28792 C 2744.64 -1.52174 -4.9964 0
M  V30 28793 H 2746.33 -1.13452 -2.77072 0
M  V30 28794 H 2743.88 -0.546995 -1.33206 0
M  V30 28795 H 2745.83 0.896402 -4.11756 0
M  V30 28796 H 2744.55 1.36553 -2.96683 0
M  V30 28797 H 2743.21 -0.669455 -3.60436 0
M  V30 28798 H 2742.86 1.49779 -4.80182 0
M  V30 28799 H 2742.56 0.107865 -5.87501 0
M  V30 28800 H 2744.09 1.02916 -6.01864 0
M  V30 28801 H 2745.5 -1.20431 -5.60508 0
M  V30 28802 H 2743.9 -1.99357 -5.66018 0
M  V30 28803 H 2744.97 -2.28481 -4.27697 0
M  V30 28804 N 2746.31 1.45361 -0.608928 0
M  V30 28805 C 2747.59 1.95566 -0.0365721 0
M  V30 28806 C 2747.97 1.55134 1.43167 0
M  V30 28807 O 2747.31 0.814551 2.13488 0
M  V30 28808 C 2747.52 3.48201 -0.236087 0
M  V30 28809 C 2748.87 4.24437 -0.117593 0
M  V30 28810 O 2749.9 3.55812 -0.16628 0
M  V30 28811 O 2748.76 5.465 -0.00381733 0
M  V30 28812 H 2745.85 0.82626 0.0349729 0
M  V30 28813 H 2748.4 1.5552 -0.679083 0
M  V30 28814 H 2747.17 3.70603 -1.25575 0
M  V30 28815 H 2746.79 3.9514 0.441622 0
M  V30 28816 N 2747.79 0.348166 1.53706 0
M  V30 28817 C 2748.72 -0.498726 2.28112 0
M  V30 28818 C 2749.7 -1.09873 1.29853 0
M  V30 28819 O 2750.88 -1.11926 1.58702 0
M  V30 28820 C 2748.01 -1.64748 3.05738 0
M  V30 28821 C 2746.97 -1.17558 4.11539 0
M  V30 28822 C 2746.29 -2.41321 4.77146 0
M  V30 28823 C 2747.59 -0.272752 5.21587 0
M  V30 28824 H 2749.29 0.121986 2.99151 0
M  V30 28825 H 2746.83 0.0601095 1.43874 0
M  V30 28826 H 2748.79 -2.24643 3.5653 0
M  V30 28827 H 2747.51 -2.29516 2.32358 0
M  V30 28828 H 2746.17 -0.599419 3.61666 0
M  V30 28829 H 2745.82 -3.04507 4.00356 0
M  V30 28830 H 2745.52 -2.10427 5.4863 0
M  V30 28831 H 2747.04 -3.01934 5.30724 0
M  V30 28832 H 2748.46 -0.778679 5.67987 0
M  V30 28833 H 2746.85 -0.0554795 6.00074 0
M  V30 28834 H 2747.92 0.689869 4.79968 0
M  V30 28835 N 2749.27 -1.57412 0.0768958 0
M  V30 28836 C 2750.49 -1.98429 -0.603369 0
M  V30 28837 C 2750.92 -0.955137 -1.62046 0
M  V30 28838 O 2750.27 0.0786459 -1.81129 0
M  V30 28839 C 2750.32 -3.38466 -1.2439 0
M  V30 28840 O 2749.43 -3.38214 -2.35976 0
M  V30 28841 H 2748.77 -0.64572 -0.15473 0
M  V30 28842 H 2751.3 -2.04028 0.152921 0
M  V30 28843 H 2751.31 -3.75763 -1.58954 0
M  V30 28844 H 2749.98 -4.129 -0.498663 0
M  V30 28845 H 2748.56 -3.12693 -2.03168 0
M  V30 28846 N 2750.74 0.196695 -1.56368 0
M  V30 28847 C 2751.97 0.933575 -1.8464 0
M  V30 28848 C 2752.39 1.76918 -0.659195 0
M  V30 28849 O 2751.74 1.78666 0.372111 0
M  V30 28850 C 2751.8 1.83103 -3.11698 0
M  V30 28851 O 2751.52 1.02917 -4.2584 0
M  V30 28852 C 2753.02 2.67973 -3.53137 0
M  V30 28853 H 2750.24 0.272463 -0.613193 0
M  V30 28854 H 2752.78 0.204429 -2.03476 0
M  V30 28855 H 2750.94 2.51382 -2.94764 0
M  V30 28856 H 2751.35 1.6406 -4.98181 0
M  V30 28857 H 2752.82 3.26604 -4.4501 0
M  V30 28858 H 2753.3 3.41603 -2.76051 0
M  V30 28859 H 2753.91 2.05068 -3.72595 0
M  V30 28860 N 2752.22 1.50604 0.464349 0
M  V30 28861 C 2753.45 1.65973 1.24369 0
M  V30 28862 C 2753.87 0.345486 1.849 0
M  V30 28863 O 2753.23 -0.691427 1.67598 0
M  V30 28864 C 2753.28 2.75784 2.32326 0
M  V30 28865 O 2752.38 2.37506 3.37142 0
M  V30 28866 H 2751.72 0.554289 0.365595 0
M  V30 28867 H 2754.25 1.97019 0.551796 0
M  V30 28868 H 2754.26 2.99064 2.77534 0
M  V30 28869 H 2752.94 3.71165 1.87642 0
M  V30 28870 H 2751.52 2.24699 2.97598 0
M  V30 28871 N 2753.7 -0.717989 1.40295 0
M  V30 28872 C 2754.66 -1.81378 1.40123 0
M  V30 28873 C 2755.66 -1.58063 0.295433 0
M  V30 28874 O 2756.85 -1.65149 0.554216 0
M  V30 28875 C 2753.99 -3.19433 1.19061 0
M  V30 28876 H 2755.18 -1.82929 2.37649 0
M  V30 28877 H 2752.73 -0.923382 1.26108 0
M  V30 28878 H 2753.47 -3.23533 0.222866 0
M  V30 28879 H 2753.25 -3.37755 1.99158 0
M  V30 28880 H 2754.74 -3.99466 1.21723 0
M  V30 28881 N 2755.18 -1.25752 -0.94996 0
M  V30 28882 C 2756.43 -1.10558 -1.69178 0
M  V30 28883 C 2756.75 0.353265 -1.91773 0
M  V30 28884 O 2756.02 1.25025 -1.50816 0
M  V30 28885 H 2754.6 -0.40614 -0.626945 0
M  V30 28886 H 2757.26 -1.57947 -1.14188 0
M  V30 28887 H 2756.36 -1.61754 -2.66912 0
M  V30 28888 N 2756.66 1.15326 -1.07413 0
M  V30 28889 C 2757.89 1.89732 -0.817628 0
M  V30 28890 C 2758.29 1.78299 0.632939 0
M  V30 28891 O 2757.64 1.13308 1.44592 0
M  V30 28892 C 2757.7 3.40693 -1.14754 0
M  V30 28893 C 2757.36 3.75912 -2.59883 0
M  V30 28894 C 2758.36 3.76882 -3.58128 0
M  V30 28895 C 2756.05 4.06201 -2.95476 0
M  V30 28896 C 2758.04 4.07646 -4.90003 0
M  V30 28897 C 2755.73 4.3663 -4.27548 0
M  V30 28898 C 2756.72 4.37335 -5.24621 0
M  V30 28899 O 2756.41 4.67033 -6.5432 0
M  V30 28900 H 2756.14 0.608146 -0.295186 0
M  V30 28901 H 2758.7 1.47045 -1.43412 0
M  V30 28902 H 2756.93 3.83784 -0.474017 0
M  V30 28903 H 2758.62 3.9639 -0.873467 0
M  V30 28904 H 2759.38 3.53581 -3.31972 0
M  V30 28905 H 2755.26 4.04811 -2.20566 0
M  V30 28906 H 2758.81 4.08111 -5.65766 0
M  V30 28907 H 2754.7 4.59399 -4.53457 0
M  V30 28908 H 2755.47 4.84795 -6.59481 0
M  V30 28909 N 2758.13 0.858334 1.32176 0
M  V30 28910 C 2759.55 0.517652 1.7938 0
M  V30 28911 C 2759.9 -0.964739 1.70843 0
M  V30 28912 O 2759.02 -1.75272 1.26921 0
M  V30 28913 C 2759.62 0.932859 3.25704 0
M  V30 28914 C 2758.18 0.644018 3.7085 0
M  V30 28915 C 2757.32 1.13058 2.53206 0
M  V30 28916 H 2760.27 1.04518 1.19422 0
M  V30 28917 H 2760.29 0.250741 3.79673 0
M  V30 28918 H 2759.81 2.0118 3.31886 0
M  V30 28919 H 2757.91 -0.424047 3.70179 0
M  V30 28920 H 2758.02 1.21289 4.63493 0
M  V30 28921 H 2756.38 0.550723 2.48675 0
M  V30 28922 H 2757.17 2.2167 2.6214 0
M  V30 28923 N 2759.61 -1.45036 0.616628 0
M  V30 28924 C 2760.84 -2.0624 0.121827 0
M  V30 28925 C 2761.25 -1.4604 -1.20287 0
M  V30 28926 O 2760.59 -0.572273 -1.74559 0
M  V30 28927 C 2760.66 -3.59405 -0.0826713 0
M  V30 28928 C 2760.32 -4.4199 1.16161 0
M  V30 28929 C 2761.32 -4.76395 2.08191 0
M  V30 28930 C 2759 -4.82599 1.39297 0
M  V30 28931 C 2761 -5.50275 3.21678 0
M  V30 28932 C 2758.68 -5.5623 2.53083 0
M  V30 28933 C 2759.68 -5.89986 3.44101 0
M  V30 28934 O 2759.37 -6.62122 4.55906 0
M  V30 28935 H 2759.1 -0.672347 0.0701785 0
M  V30 28936 H 2761.65 -1.87127 0.84691 0
M  V30 28937 H 2759.88 -3.76953 -0.862746 0
M  V30 28938 H 2761.57 -4.02422 -0.530202 0
M  V30 28939 H 2762.34 -4.45573 1.91546 0
M  V30 28940 H 2758.22 -4.55754 0.693476 0
M  V30 28941 H 2761.76 -5.7654 3.92743 0
M  V30 28942 H 2757.66 -5.86468 2.69678 0
M  V30 28943 H 2758.43 -6.80579 4.54702 0
M  V30 28944 N 2761.09 -0.356312 -1.53519 0
M  V30 28945 C 2762.34 0.236618 -2.01415 0
M  V30 28946 C 2762.67 1.49174 -1.24341 0
M  V30 28947 O 2761.94 1.91602 -0.33453 0
M  V30 28948 C 2762.23 0.53792 -3.5606 0
M  V30 28949 C 2762.08 -0.73019 -4.43834 0
M  V30 28950 C 2763.4 1.34232 -4.1913 0
M  V30 28951 H 2760.52 0.0845258 -0.732137 0
M  V30 28952 H 2763.16 -0.479373 -1.83853 0
M  V30 28953 H 2761.31 1.14788 -3.71155 0
M  V30 28954 H 2762.98 -1.3679 -4.40552 0
M  V30 28955 H 2761.23 -1.35247 -4.12178 0
M  V30 28956 H 2761.9 -0.474455 -5.49957 0
M  V30 28957 H 2764.37 0.826426 -4.07811 0
M  V30 28958 H 2763.25 1.52188 -5.2738 0
M  V30 28959 H 2763.51 2.34816 -3.74585 0
M  V30 28960 N 2762.57 1.57369 -0.0852427 0
M  V30 28961 C 2763.53 2.12346 0.862662 0
M  V30 28962 C 2764.53 1.05048 1.21744 0
M  V30 28963 O 2765.72 1.30978 1.1485 0
M  V30 28964 C 2762.85 2.63592 2.16176 0
M  V30 28965 H 2764.05 2.97413 0.385459 0
M  V30 28966 H 2761.6 1.55441 0.163636 0
M  V30 28967 H 2762.33 1.82018 2.68403 0
M  V30 28968 H 2762.12 3.42033 1.91717 0
M  V30 28969 H 2763.61 3.06154 2.84006 0
M  V30 28970 N 2764.05 -0.188399 1.5647 0
M  V30 28971 C 2764.98 -1.2617 1.90149 0
M  V30 28972 C 2765.96 -1.43623 0.76232 0
M  V30 28973 O 2767.14 -1.58905 1.01398 0
M  V30 28974 C 2764.27 -2.62731 2.13753 0
M  V30 28975 C 2763.31 -2.6211 3.36453 0
M  V30 28976 S 2764.15 -2.1288 4.91368 0
M  V30 28977 C 2765.3 -3.51252 5.18047 0
M  V30 28978 H 2765.54 -0.974143 2.80887 0
M  V30 28979 H 2763.07 -0.392199 1.49336 0
M  V30 28980 H 2765.03 -3.41337 2.28034 0
M  V30 28981 H 2763.69 -2.88694 1.23752 0
M  V30 28982 H 2762.88 -3.62539 3.50116 0
M  V30 28983 H 2762.48 -1.9159 3.212 0
M  V30 28984 H 2764.78 -4.47155 5.08978 0
M  V30 28985 H 2765.72 -3.42478 6.1977 0
M  V30 28986 H 2766.13 -3.46474 4.45663 0
M  V30 28987 N 2765.53 -1.50848 -0.456355 0
M  V30 28988 C 2766.77 -1.62252 -1.20494 0
M  V30 28989 C 2767.09 -0.331872 -1.92155 0
M  V30 28990 O 2766.36 0.651411 -1.84752 0
M  V30 28991 H 2764.94 -0.597926 -0.447765 0
M  V30 28992 H 2767.61 -1.87694 -0.525066 0
M  V30 28993 H 2766.7 -2.44092 -1.94487 0
M  V30 28994 N 2767 0.710538 -1.40674 0
M  V30 28995 C 2767.95 1.8246 -1.4134 0
M  V30 28996 C 2768.92 1.63896 -0.269676 0
M  V30 28997 O 2770.11 1.84959 -0.468496 0
M  V30 28998 C 2767.25 3.20215 -1.28671 0
M  V30 28999 C 2766.36 3.50316 -2.5279 0
M  V30 29000 C 2765.49 4.77604 -2.32526 0
M  V30 29001 C 2764.53 5.00624 -3.52196 0
M  V30 29002 N 2763.67 6.19129 -3.31095 0
M  V30 29003 H 2768.51 1.81226 -2.36561 0
M  V30 29004 H 2766.05 0.885205 -1.17484 0
M  V30 29005 H 2768 3.9977 -1.19331 0
M  V30 29006 H 2766.63 3.20665 -0.370658 0
M  V30 29007 H 2765.69 2.65278 -2.72638 0
M  V30 29008 H 2767 3.63235 -3.41851 0
M  V30 29009 H 2766.15 5.65186 -2.20568 0
M  V30 29010 H 2764.89 4.66904 -1.40898 0
M  V30 29011 H 2763.9 4.11496 -3.64625 0
M  V30 29012 H 2765.12 5.13193 -4.44758 0
M  V30 29013 H 2763.07 6.0967 -2.42154 0
M  V30 29014 H 2762.98 6.32747 -4.13724 0
M  V30 29015 H 2764.25 7.09485 -3.2288 0
M  V30 29016 N 2768.48 1.26254 0.943277 0
M  V30 29017 C 2769.43 1.07629 2.04168 0
M  V30 29018 C 2770.4 -0.0180446 1.6609 0
M  V30 29019 O 2771.58 0.141322 1.90276 0
M  V30 29020 C 2768.72 0.713103 3.37652 0
M  V30 29021 C 2767.84 1.88347 3.88779 0
M  V30 29022 C 2766.97 1.46359 5.10639 0
M  V30 29023 C 2766.01 2.60239 5.54024 0
M  V30 29024 N 2765.15 2.18948 6.67088 0
M  V30 29025 H 2769.99 2.01627 2.19432 0
M  V30 29026 H 2767.52 1.00391 1.07517 0
M  V30 29027 H 2769.48 0.483431 4.1439 0
M  V30 29028 H 2768.11 -0.189903 3.22241 0
M  V30 29029 H 2767.16 2.22613 3.0846 0
M  V30 29030 H 2768.48 2.73828 4.16917 0
M  V30 29031 H 2767.63 1.19424 5.9483 0
M  V30 29032 H 2766.37 0.579653 4.84243 0
M  V30 29033 H 2765.37 2.87906 4.68391 0
M  V30 29034 H 2766.6 3.49229 5.82422 0
M  V30 29035 H 2764.55 1.32985 6.42379 0
M  V30 29036 H 2764.46 2.97973 6.94801 0
M  V30 29037 H 2765.73 1.95219 7.54659 0
M  V30 29038 N 2769.96 -1.14755 1.08024 0
M  V30 29039 C 2770.91 -2.19714 0.706696 0
M  V30 29040 C 2771.88 -1.63272 -0.305221 0
M  V30 29041 O 2773.06 -1.8985 -0.190117 0
M  V30 29042 C 2770.2 -3.44898 0.117975 0
M  V30 29043 C 2769.31 -4.1551 1.1822 0
M  V30 29044 C 2768.45 -5.28264 0.557752 0
M  V30 29045 C 2767.49 -5.90702 1.60428 0
M  V30 29046 N 2766.63 -6.94914 1.00192 0
M  V30 29047 H 2771.47 -2.51016 1.60608 0
M  V30 29048 H 2769 -1.2327 0.802685 0
M  V30 29049 H 2770.96 -4.16503 -0.241039 0
M  V30 29050 H 2769.59 -3.14092 -0.744733 0
M  V30 29051 H 2768.64 -3.42333 1.65869 0
M  V30 29052 H 2769.95 -4.58016 1.97541 0
M  V30 29053 H 2769.11 -6.06522 0.146761 0
M  V30 29054 H 2767.85 -4.86968 -0.267163 0
M  V30 29055 H 2766.85 -5.1115 2.02498 0
M  V30 29056 H 2768.08 -6.34074 2.43161 0
M  V30 29057 H 2766.02 -6.55701 0.198032 0
M  V30 29058 H 2765.94 -7.35886 1.73229 0
M  V30 29059 H 2767.21 -7.77057 0.61666 0
M  V30 29060 N 2771.44 -0.865331 -1.31719 0
M  V30 29061 C 2772.85 -0.556622 -1.49579 0
M  V30 29062 C 2773.05 0.910322 -1.79765 0
M  V30 29063 O 2772.11 1.69277 -1.87354 0
M  V30 29064 C 2773.42 -1.45283 -2.63274 0
M  V30 29065 C 2774.97 -1.45438 -2.77158 0
M  V30 29066 C 2775.45 -2.33605 -3.93945 0
M  V30 29067 N 2776.94 -2.3146 -4.01224 0
M  V30 29068 C 2777.67 -2.96402 -4.9085 0
M  V30 29069 N 2777.17 -3.70496 -5.85409 0
M  V30 29070 N 2778.96 -2.85734 -4.84058 0
M  V30 29071 H 2771.11 -1.81458 -1.10393 0
M  V30 29072 H 2773.37 -0.77564 -0.545056 0
M  V30 29073 H 2773.08 -2.49645 -2.4773 0
M  V30 29074 H 2772.95 -1.14798 -3.59307 0
M  V30 29075 H 2775.34 -0.418362 -2.92119 0
M  V30 29076 H 2775.42 -1.79944 -1.81807 0
M  V30 29077 H 2775.07 -3.37281 -3.79742 0
M  V30 29078 H 2775 -1.96426 -4.88594 0
M  V30 29079 H 2777.49 -1.77599 -3.33567 0
M  V30 29080 H 2777.8 -4.17189 -6.50517 0
M  V30 29081 H 2776.15 -3.74605 -5.85403 0
M  V30 29082 H 2779.34 -2.27391 -4.09159 0
M  V30 29083 H 2779.51 -3.36627 -5.53703 0
M  V30 29084 N 2772.92 1.44707 -0.624311 0
M  V30 29085 C 2774.19 1.95516 -0.0573125 0
M  V30 29086 C 2774.57 1.56644 1.41513 0
M  V30 29087 O 2773.92 0.837148 2.12613 0
M  V30 29088 C 2774.13 3.47931 -0.273005 0
M  V30 29089 C 2775.48 4.24289 -0.162603 0
M  V30 29090 O 2776.5 3.55615 -0.204009 0
M  V30 29091 O 2775.36 5.46465 -0.0617807 0
M  V30 29092 H 2772.46 0.826585 0.0262073 0
M  V30 29093 H 2775 1.54791 -0.695539 0
M  V30 29094 H 2773.77 3.6925 -1.29499 0
M  V30 29095 H 2773.4 3.95586 0.399687 0
M  V30 29096 N 2774.39 0.364449 1.53328 0
M  V30 29097 C 2775.64 -0.226712 2.00422 0
M  V30 29098 C 2775.96 -1.49961 1.25583 0
M  V30 29099 O 2777.16 -2.1693 1.6326 0
M  V30 29100 C 2775.62 -0.454555 3.57018 0
M  V30 29101 C 2775.23 0.803645 4.40733 0
M  V30 29102 C 2776.97 -1.00343 4.1247 0
M  V30 29103 C 2774.88 0.545449 5.88879 0
M  V30 29104 H 2773.81 -0.0884951 0.748789 0
M  V30 29105 H 2776.46 0.483014 1.77029 0
M  V30 29106 H 2774.84 -1.22551 3.7656 0
M  V30 29107 H 2776.01 1.57731 4.32964 0
M  V30 29108 H 2774.33 1.27566 3.96378 0
M  V30 29109 H 2776.93 -1.21191 5.20785 0
M  V30 29110 H 2777.27 -1.96523 3.66994 0
M  V30 29111 H 2777.8 -0.29267 3.96722 0
M  V30 29112 H 2774.54 1.47755 6.3863 0
M  V30 29113 H 2774.06 -0.189737 5.995 0
M  V30 29114 H 2775.74 0.170538 6.46775 0
M  V30 29115 N 2775.87 -1.57322 0.0935872 0
M  V30 29116 C 2776.8 -2.16966 -0.863024 0
M  V30 29117 C 2777.78 -1.10258 -1.29527 0
M  V30 29118 O 2778.97 -1.38389 -1.36243 0
M  V30 29119 C 2776.1 -2.74878 -2.12272 0
M  V30 29120 C 2775.05 -3.86945 -1.82915 0
M  V30 29121 C 2774.38 -4.31553 -3.15699 0
M  V30 29122 C 2775.68 -5.1021 -1.11728 0
M  V30 29123 H 2777.37 -2.97153 -0.366093 0
M  V30 29124 H 2774.92 -1.42937 -0.174647 0
M  V30 29125 H 2776.87 -3.15255 -2.79629 0
M  V30 29126 H 2775.59 -1.91943 -2.64245 0
M  V30 29127 H 2774.25 -3.47105 -1.17955 0
M  V30 29128 H 2773.9 -3.4551 -3.65557 0
M  V30 29129 H 2773.6 -5.07109 -2.9684 0
M  V30 29130 H 2775.13 -4.74562 -3.84217 0
M  V30 29131 H 2776.54 -5.47765 -1.69193 0
M  V30 29132 H 2774.94 -5.91185 -1.03053 0
M  V30 29133 H 2776.01 -4.84797 -0.0997966 0
M  V30 29134 N 2777.35 0.180099 -1.56568 0
M  V30 29135 C 2778.3 1.24248 -1.96635 0
M  V30 29136 C 2779.29 1.46307 -0.853844 0
M  V30 29137 O 2780.5 1.46991 -1.03892 0
M  V30 29138 H 2776.87 0.417462 -0.625483 0
M  V30 29139 H 2778.84 0.877629 -2.85202 0
M  V30 29140 C 2777.59 2.57638 -2.33491 0
M  V30 29141 H 2776.92 2.41484 -3.18631 0
M  V30 29142 H 2778.36 3.30683 -2.65377 0
M  V30 29143 C 2776.81 3.15744 -1.17504 0
M  V30 29144 O 2777.34 3.9908 -0.458026 0
M  V30 29145 N 2775.55 2.74705 -0.947908 0
M  V30 29146 H 2775.1 2.07039 -1.53273 0
M  V30 29147 H 2775.06 3.1392 -0.173682 0
M  V30 29148 N 2778.83 1.51088 0.448349 0
M  V30 29149 C 2779.77 1.71606 1.54338 0
M  V30 29150 C 2780.74 0.557564 1.56462 0
M  V30 29151 O 2781.93 0.79075 1.73643 0
M  V30 29152 C 2779.07 1.837 2.92144 0
M  V30 29153 C 2778.18 3.11197 2.99634 0
M  V30 29154 C 2777.32 3.13952 4.28495 0
M  V30 29155 C 2776.36 4.35808 4.29811 0
M  V30 29156 N 2775.49 4.36174 5.50179 0
M  V30 29157 H 2780.33 2.65081 1.36146 0
M  V30 29158 H 2777.87 1.31384 0.661562 0
M  V30 29159 H 2779.83 1.88694 3.72089 0
M  V30 29160 H 2778.46 0.936428 3.08919 0
M  V30 29161 H 2777.51 3.15566 2.1242 0
M  V30 29162 H 2778.82 4.01134 2.96467 0
M  V30 29163 H 2777.98 3.178 5.16805 0
M  V30 29164 H 2776.72 2.21884 4.34303 0
M  V30 29165 H 2775.72 4.32148 3.39895 0
M  V30 29166 H 2776.95 5.29128 4.25676 0
M  V30 29167 H 2774.89 3.46971 5.56729 0
M  V30 29168 H 2774.81 5.19907 5.48847 0
M  V30 29169 H 2776.08 4.442 6.40552 0
M  V30 29170 N 2780.31 -0.703068 1.41049 0
M  V30 29171 C 2781.24 -1.82825 1.38231 0
M  V30 29172 C 2782.25 -1.60274 0.285665 0
M  V30 29173 O 2783.44 -1.69916 0.54688 0
M  V30 29174 C 2780.54 -3.19456 1.13141 0
M  V30 29175 C 2779.71 -3.69099 2.34702 0
M  V30 29176 C 2778.77 -4.84378 2.05582 0
M  V30 29177 O 2777.8 -4.96381 2.78557 0
M  V30 29178 N 2779 -5.71081 1.04145 0
M  V30 29179 H 2781.77 -1.85737 2.35206 0
M  V30 29180 H 2779.33 -0.885101 1.35564 0
M  V30 29181 H 2781.32 -3.94191 0.916252 0
M  V30 29182 H 2779.89 -3.11616 0.247891 0
M  V30 29183 H 2779.11 -2.85354 2.71968 0
M  V30 29184 H 2780.4 -3.99003 3.15712 0
M  V30 29185 H 2779.79 -5.64007 0.437319 0
M  V30 29186 H 2778.35 -6.45748 0.886191 0
M  V30 29187 N 2781.78 -1.26752 -0.936569 0
M  V30 29188 C 2783.01 -1.15358 -1.71756 0
M  V30 29189 C 2783.43 0.29065 -1.86549 0
M  V30 29190 O 2782.78 1.19865 -1.37618 0
M  V30 29191 C 2782.84 -1.82263 -3.1219 0
M  V30 29192 O 2782.56 -3.21043 -2.98099 0
M  V30 29193 C 2784.06 -1.76882 -4.06482 0
M  V30 29194 H 2781.28 -0.401492 -0.537629 0
M  V30 29195 H 2783.82 -1.67459 -1.17379 0
M  V30 29196 H 2781.98 -1.34089 -3.63454 0
M  V30 29197 H 2782.39 -3.54221 -3.86817 0
M  V30 29198 H 2783.86 -2.28325 -5.02565 0
M  V30 29199 H 2784.34 -0.736292 -4.32984 0
M  V30 29200 H 2784.95 -2.24629 -3.6114 0
M  V30 29201 N 2783.26 1.1418 -1.08631 0
M  V30 29202 C 2784.68 1.37259 -0.814387 0
M  V30 29203 C 2784.88 1.93115 0.575237 0
M  V30 29204 O 2783.93 2.14533 1.33161 0
M  V30 29205 C 2785.25 2.33154 -1.89894 0
M  V30 29206 C 2786.8 2.46788 -1.92522 0
M  V30 29207 C 2787.27 3.45984 -3.00098 0
M  V30 29208 N 2788.76 3.53529 -2.99285 0
M  V30 29209 C 2789.5 4.3014 -3.79166 0
M  V30 29210 N 2788.99 5.09975 -4.68932 0
M  V30 29211 N 2790.79 4.25359 -3.67458 0
M  V30 29212 H 2782.94 0.762723 -1.98233 0
M  V30 29213 H 2785.2 0.398036 -0.86039 0
M  V30 29214 H 2784.91 1.99252 -2.89813 0
M  V30 29215 H 2784.78 3.33083 -1.77019 0
M  V30 29216 H 2787.17 2.7998 -0.932474 0
M  V30 29217 H 2787.25 1.46812 -2.09475 0
M  V30 29218 H 2786.89 3.13524 -3.99581 0
M  V30 29219 H 2786.82 4.45746 -2.8039 0
M  V30 29220 H 2789.31 2.96559 -2.34225 0
M  V30 29221 H 2789.63 5.65715 -5.26485 0
M  V30 29222 H 2787.97 5.09236 -4.72973 0
M  V30 29223 H 2791.16 3.62062 -2.96696 0
M  V30 29224 H 2791.33 4.84815 -4.29952 0
M  V30 29225 N 2784.74 0.872304 1.31258 0
M  V30 29226 C 2786.02 0.404977 1.91362 0
M  V30 29227 C 2786.4 -1.11318 1.79364 0
M  V30 29228 O 2785.75 -1.94281 1.2028 0
M  V30 29229 C 2785.96 0.888952 3.37489 0
M  V30 29230 C 2787.3 0.916456 4.14592 0
M  V30 29231 O 2788.33 0.834762 3.4628 0
M  V30 29232 O 2787.19 1.03508 5.36608 0
M  V30 29233 H 2784.28 0.121583 0.818014 0
M  V30 29234 H 2786.83 0.960371 1.39911 0
M  V30 29235 H 2785.6 1.93257 3.40246 0
M  V30 29236 H 2785.22 0.312002 3.96374 0
M  V30 29237 N 2786.22 -1.44374 0.631976 0
M  V30 29238 C 2787.45 -2.06399 0.143903 0
M  V30 29239 C 2787.86 -1.47233 -1.18186 0
M  V30 29240 O 2787.22 -0.595528 -1.7251 0
M  V30 29241 C 2787.27 -3.61492 0.0238889 0
M  V30 29242 O 2786.99 -4.18454 1.29722 0
M  V30 29243 C 2788.49 -4.40553 -0.492779 0
M  V30 29244 H 2785.71 -0.666206 0.0800659 0
M  V30 29245 H 2788.26 -1.8523 0.866619 0
M  V30 29246 H 2786.41 -3.8192 -0.649271 0
M  V30 29247 H 2786.82 -5.11903 1.14261 0
M  V30 29248 H 2788.3 -5.4949 -0.525764 0
M  V30 29249 H 2788.78 -4.12059 -1.51999 0
M  V30 29250 H 2789.38 -4.25045 0.14716 0
M  V30 29251 N 2787.7 -0.372575 -1.53133 0
M  V30 29252 C 2788.64 0.470591 -2.25952 0
M  V30 29253 C 2789.61 1.07174 -1.26897 0
M  V30 29254 O 2790.8 1.10292 -1.55693 0
M  V30 29255 C 2787.94 1.60074 -3.05729 0
M  V30 29256 C 2787.05 1.02409 -4.19686 0
M  V30 29257 C 2786.19 2.12392 -4.86891 0
M  V30 29258 C 2785.23 1.52228 -5.92869 0
M  V30 29259 N 2784.36 2.56072 -6.53737 0
M  V30 29260 H 2789.2 -0.156868 -2.97587 0
M  V30 29261 H 2786.74 -0.089183 -1.46829 0
M  V30 29262 H 2788.7 2.26655 -3.50262 0
M  V30 29263 H 2787.33 2.19876 -2.36335 0
M  V30 29264 H 2786.38 0.248359 -3.79588 0
M  V30 29265 H 2787.69 0.544279 -4.95822 0
M  V30 29266 H 2786.85 2.86778 -5.34643 0
M  V30 29267 H 2785.58 2.63727 -4.10243 0
M  V30 29268 H 2784.59 0.763589 -5.44472 0
M  V30 29269 H 2785.81 1.01709 -6.7144 0
M  V30 29270 H 2783.76 3.06607 -5.79938 0
M  V30 29271 H 2783.68 2.12798 -7.25433 0
M  V30 29272 H 2784.95 3.30139 -7.06136 0
M  V30 29273 N 2789.17 1.5727 -0.101929 0
M  V30 29274 C 2790.08 2.17927 0.868608 0
M  V30 29275 C 2791.1 1.15062 1.30525 0
M  V30 29276 O 2792.28 1.47461 1.37176 0
M  V30 29277 C 2789.34 2.75313 2.10722 0
M  V30 29278 C 2788.4 3.93157 1.72413 0
M  V30 29279 C 2787.64 4.47796 2.9037 0
M  V30 29280 O 2787.86 4.0136 4.05298 0
M  V30 29281 O 2786.79 5.38724 2.68441 0
M  V30 29282 H 2790.62 3.01282 0.382491 0
M  V30 29283 H 2788.2 1.48895 0.122786 0
M  V30 29284 H 2790.09 3.11963 2.83297 0
M  V30 29285 H 2788.76 1.95 2.58373 0
M  V30 29286 H 2787.67 3.61306 0.969975 0
M  V30 29287 H 2789 4.74853 1.29519 0
M  V30 29288 N 2790.65 -0.171793 1.56661 0
M  V30 29289 C 2791.59 -1.24146 1.91476 0
M  V30 29290 C 2792.56 -1.42806 0.77751 0
M  V30 29291 O 2793.75 -1.5782 1.03078 0
M  V30 29292 C 2790.87 -2.60449 2.16527 0
M  V30 29293 C 2789.92 -2.58527 3.39214 0
M  V30 29294 S 2790.75 -2.07657 4.93598 0
M  V30 29295 C 2791.91 -3.45738 5.21743 0
M  V30 29296 H 2792.14 -0.944296 2.81905 0
M  V30 29297 H 2789.68 -0.376338 1.49743 0
M  V30 29298 H 2791.63 -3.38899 2.31641 0
M  V30 29299 H 2790.29 -2.87365 1.26807 0
M  V30 29300 H 2789.49 -3.58806 3.53941 0
M  V30 29301 H 2789.09 -1.88173 3.23214 0
M  V30 29302 H 2791.38 -4.41732 5.13692 0
M  V30 29303 H 2792.32 -3.35885 6.23367 0
M  V30 29304 H 2792.73 -3.41728 4.49313 0
M  V30 29305 N 2792.13 -1.51324 -0.44033 0
M  V30 29306 C 2793.06 -1.68612 -1.55251 0
M  V30 29307 C 2794.08 -0.566839 -1.52613 0
M  V30 29308 O 2795.26 -0.841059 -1.57443 0
M  V30 29309 C 2792.36 -1.68284 -2.94166 0
M  V30 29310 C 2791.54 -2.96747 -3.21341 0
M  V30 29311 C 2790.6 -2.88647 -4.39965 0
M  V30 29312 O 2789.62 -3.62593 -4.38765 0
M  V30 29313 N 2790.82 -2.04294 -5.43364 0
M  V30 29314 H 2793.59 -2.64553 -1.40826 0
M  V30 29315 H 2791.15 -1.49172 -0.629225 0
M  V30 29316 H 2793.14 -1.60437 -3.7154 0
M  V30 29317 H 2791.71 -0.799494 -3.02203 0
M  V30 29318 H 2790.93 -3.18486 -2.32294 0
M  V30 29319 H 2792.22 -3.81791 -3.36323 0
M  V30 29320 H 2791.62 -1.43587 -5.47174 0
M  V30 29321 H 2790.18 -2.02329 -6.19602 0
M  V30 29322 N 2793.61 0.695578 -1.41419 0
M  V30 29323 C 2794.56 1.80951 -1.43267 0
M  V30 29324 C 2795.53 1.63601 -0.287045 0
M  V30 29325 O 2796.71 1.84451 -0.488087 0
M  V30 29326 C 2793.85 3.18833 -1.3206 0
M  V30 29327 C 2792.96 3.47615 -2.56491 0
M  V30 29328 C 2792.1 4.75111 -2.37578 0
M  V30 29329 C 2791.14 4.96861 -3.57486 0
M  V30 29330 N 2790.27 6.15582 -3.37643 0
M  V30 29331 H 2795.11 1.78707 -2.3847 0
M  V30 29332 H 2792.65 0.872694 -1.18416 0
M  V30 29333 H 2794.61 3.98482 -1.23565 0
M  V30 29334 H 2793.24 3.20254 -0.404648 0
M  V30 29335 H 2792.29 2.62372 -2.75437 0
M  V30 29336 H 2793.6 3.59588 -3.45684 0
M  V30 29337 H 2792.76 5.62814 -2.2655 0
M  V30 29338 H 2791.5 4.65383 -1.45842 0
M  V30 29339 H 2790.5 4.07605 -3.68969 0
M  V30 29340 H 2791.73 5.08447 -4.50176 0
M  V30 29341 H 2789.67 6.07067 -2.48606 0
M  V30 29342 H 2789.59 6.28323 -4.20412 0
M  V30 29343 H 2790.86 7.0602 -3.30387 0
M  V30 29344 N 2795.09 1.27247 0.929833 0
M  V30 29345 C 2796.02 1.12303 2.0472 0
M  V30 29346 C 2797 0.0250762 1.70082 0
M  V30 29347 O 2798.18 0.199175 1.93176 0
M  V30 29348 C 2795.31 0.767204 3.3872 0
M  V30 29349 C 2794.27 1.81815 3.87463 0
M  V30 29350 C 2793.59 1.31635 5.18243 0
M  V30 29351 C 2794.89 3.22184 4.1109 0
M  V30 29352 H 2796.59 2.05773 2.17481 0
M  V30 29353 H 2794.13 0.990734 1.04501 0
M  V30 29354 H 2796.09 0.649486 4.16365 0
M  V30 29355 H 2794.81 -0.203201 3.25967 0
M  V30 29356 H 2793.47 1.92474 3.12009 0
M  V30 29357 H 2793.12 0.335466 5.0188 0
M  V30 29358 H 2792.82 2.01897 5.51826 0
M  V30 29359 H 2794.34 1.21153 5.9846 0
M  V30 29360 H 2795.76 3.14538 4.79311 0
M  V30 29361 H 2794.15 3.90137 4.55975 0
M  V30 29362 H 2795.22 3.67396 3.16462 0
M  V30 29363 N 2796.57 -1.13603 1.09235 0
M  V30 29364 C 2797.5 -2.21067 0.751776 0
M  V30 29365 C 2798.48 -1.67949 -0.269659 0
M  V30 29366 O 2799.66 -1.93708 -0.138156 0
M  V30 29367 C 2796.79 -3.46887 0.169411 0
M  V30 29368 C 2795.75 -4.13082 1.12014 0
M  V30 29369 C 2795.07 -5.33205 0.399577 0
M  V30 29370 C 2796.37 -4.60646 2.46176 0
M  V30 29371 H 2798.07 -2.49812 1.65029 0
M  V30 29372 H 2795.61 -1.20071 0.794926 0
M  V30 29373 H 2797.56 -4.21322 -0.0809084 0
M  V30 29374 H 2796.29 -3.17532 -0.76428 0
M  V30 29375 H 2794.95 -3.40612 1.3557 0
M  V30 29376 H 2794.6 -5.00113 -0.538189 0
M  V30 29377 H 2794.3 -5.7844 1.03347 0
M  V30 29378 H 2795.82 -6.10397 0.157511 0
M  V30 29379 H 2797.23 -5.26514 2.26838 0
M  V30 29380 H 2795.63 -5.16614 3.05335 0
M  V30 29381 H 2796.7 -3.75271 3.07083 0
M  V30 29382 N 2798.04 -0.879253 -1.30793 0
M  V30 29383 C 2799.32 -0.41512 -1.91144 0
M  V30 29384 C 2799.7 1.10365 -1.79952 0
M  V30 29385 O 2799.05 1.9364 -1.21309 0
M  V30 29386 C 2799.26 -0.906837 -3.37013 0
M  V30 29387 C 2800.61 -0.93843 -4.141 0
M  V30 29388 O 2801.63 -0.853114 -3.45833 0
M  V30 29389 O 2800.49 -1.06352 -5.36052 0
M  V30 29390 H 2797.58 -0.12592 -0.817357 0
M  V30 29391 H 2800.13 -0.967777 -1.39399 0
M  V30 29392 H 2798.9 -1.95059 -3.39216 0
M  V30 29393 H 2798.52 -0.333018 -3.96203 0
M  V30 29394 N 2799.52 1.44037 -0.639624 0
M  V30 29395 C 2800.75 2.0632 -0.154847 0
M  V30 29396 C 2801.16 1.47858 1.17403 0
M  V30 29397 O 2800.52 0.604669 1.72192 0
M  V30 29398 C 2800.57 3.61474 -0.0430593 0
M  V30 29399 O 2800.29 4.1776 -1.31939 0
M  V30 29400 C 2801.79 4.40808 0.469408 0
M  V30 29401 H 2799.01 0.665772 -0.0835979 0
M  V30 29402 H 2801.56 1.84767 -0.87643 0
M  V30 29403 H 2799.71 3.82259 0.629008 0
M  V30 29404 H 2800.13 5.1129 -1.16974 0
M  V30 29405 H 2801.6 5.49762 0.496616 0
M  V30 29406 H 2802.08 4.1286 1.49812 0
M  V30 29407 H 2802.68 4.24961 -0.169699 0
M  V30 29408 N 2801 0.380691 1.52933 0
M  V30 29409 C 2802.23 -0.204266 2.05588 0
M  V30 29410 C 2802.64 -1.41771 1.2529 0
M  V30 29411 O 2801.98 -1.8139 0.290426 0
M  V30 29412 C 2802.04 -0.647261 3.53625 0
M  V30 29413 C 2801.71 0.451545 4.54764 0
M  V30 29414 C 2802.7 1.30623 5.03223 0
M  V30 29415 C 2800.39 0.616112 4.98507 0
M  V30 29416 C 2802.38 2.31069 5.94042 0
M  V30 29417 C 2800.07 1.62392 5.89128 0
M  V30 29418 C 2801.07 2.46963 6.36788 0
M  V30 29419 O 2800.76 3.46022 7.2562 0
M  V30 29420 H 2800.49 -0.0365079 0.675013 0
M  V30 29421 H 2803.04 0.541862 1.98124 0
M  V30 29422 H 2801.27 -1.44523 3.58678 0
M  V30 29423 H 2802.96 -1.15691 3.89063 0
M  V30 29424 H 2803.73 1.19036 4.70165 0
M  V30 29425 H 2799.61 -0.0324177 4.60989 0
M  V30 29426 H 2803.15 2.97115 6.31164 0
M  V30 29427 H 2799.05 1.74021 6.216 0
M  V30 29428 H 2799.81 3.41929 7.43658 0
M  V30 29429 N 2802.48 -1.57214 0.110268 0
M  V30 29430 C 2803.73 -1.94507 -0.548749 0
M  V30 29431 C 2804.05 -0.993889 -1.6777 0
M  V30 29432 O 2803.32 -0.0486185 -1.9584 0
M  V30 29433 H 2801.9 -0.718119 -0.205702 0
M  V30 29434 H 2804.56 -1.94093 0.177161 0
M  V30 29435 H 2803.65 -2.97321 -0.949043 0
M  V30 29436 N 2803.96 0.163482 -1.5675 0
M  V30 29437 C 2805.2 0.877179 -1.81627 0
M  V30 29438 C 2805.52 1.8307 -0.688823 0
M  V30 29439 O 2806.72 2.58734 -0.822743 0
M  V30 29440 C 2805.18 1.6104 -3.21861 0
M  V30 29441 C 2804.79 0.700118 -4.42496 0
M  V30 29442 C 2806.53 2.31185 -3.56025 0
M  V30 29443 C 2804.44 1.43402 -5.73751 0
M  V30 29444 H 2803.37 0.3313 -0.677316 0
M  V30 29445 H 2806.02 0.130028 -1.83039 0
M  V30 29446 H 2804.4 2.40258 -3.14789 0
M  V30 29447 H 2805.58 -0.0556659 -4.60766 0
M  V30 29448 H 2803.89 0.107916 -4.1626 0
M  V30 29449 H 2806.49 2.86702 -4.51338 0
M  V30 29450 H 2806.83 3.06897 -2.81283 0
M  V30 29451 H 2807.36 1.58902 -3.64685 0
M  V30 29452 H 2804.1 0.719072 -6.51544 0
M  V30 29453 H 2803.62 2.16293 -5.59444 0
M  V30 29454 H 2805.3 1.97939 -6.15978 0
M  V30 29455 N 2805.43 1.51555 0.432299 0
M  V30 29456 C 2806.38 1.73813 1.54569 0
M  V30 29457 C 2807.38 0.604566 1.58245 0
M  V30 29458 O 2808.58 0.78607 1.61929 0
M  V30 29459 H 2804.96 0.549274 0.513617 0
M  V30 29460 H 2806.93 2.67135 1.32972 0
M  V30 29461 C 2805.68 1.88488 2.92177 0
M  V30 29462 H 2805 2.75121 2.90083 0
M  V30 29463 H 2806.44 2.08072 3.69435 0
M  V30 29464 C 2804.9 0.645967 3.30649 0
M  V30 29465 O 2805.43 -0.197022 4.01217 0
M  V30 29466 N 2803.63 0.488588 2.86463 0
M  V30 29467 H 2803.18 1.17566 2.29207 0
M  V30 29468 H 2803.14 -0.339101 3.12566 0
M  V30 29469 N 2806.91 -0.688069 1.41786 0
M  V30 29470 C 2807.84 -1.81418 1.47003 0
M  V30 29471 C 2808.82 -1.66909 0.32791 0
M  V30 29472 O 2810.01 -1.8653 0.540395 0
M  V30 29473 C 2807.14 -3.19615 1.35881 0
M  V30 29474 C 2806.09 -3.48839 2.47982 0
M  V30 29475 C 2805.42 -4.86471 2.21923 0
M  V30 29476 C 2806.72 -3.47061 3.90315 0
M  V30 29477 H 2808.41 -1.7731 2.4125 0
M  V30 29478 H 2805.96 -0.851631 1.16117 0
M  V30 29479 H 2807.91 -3.98114 1.38141 0
M  V30 29480 H 2806.63 -3.24368 0.381217 0
M  V30 29481 H 2805.29 -2.72694 2.45017 0
M  V30 29482 H 2804.94 -4.87858 1.22489 0
M  V30 29483 H 2804.64 -5.06989 2.97046 0
M  V30 29484 H 2806.17 -5.67271 2.25911 0
M  V30 29485 H 2807.58 -4.15553 3.94954 0
M  V30 29486 H 2805.98 -3.79112 4.65182 0
M  V30 29487 H 2807.05 -2.45889 4.17932 0
M  V30 29488 N 2808.39 -1.27739 -0.923072 0
M  V30 29489 C 2809.8 -1.12995 -1.48624 0
M  V30 29490 C 2810.15 0.283405 -1.94142 0
M  V30 29491 O 2809.28 1.17678 -1.81607 0
M  V30 29492 C 2809.87 -2.0451 -2.70113 0
M  V30 29493 C 2808.43 -1.93858 -3.22639 0
M  V30 29494 C 2807.58 -1.96795 -1.95364 0
M  V30 29495 H 2810.53 -1.40564 -0.736712 0
M  V30 29496 H 2810.55 -1.60362 -3.45057 0
M  V30 29497 H 2810.06 -3.07368 -2.36953 0
M  V30 29498 H 2808.16 -0.940032 -3.60547 0
M  V30 29499 H 2808.28 -2.80338 -3.8852 0
M  V30 29500 H 2806.64 -1.41079 -2.12058 0
M  V30 29501 H 2807.42 -3.01315 -1.64512 0
M  V30 29502 N 2809.87 1.13022 -1.09836 0
M  V30 29503 C 2810.8 2.20665 -0.76349 0
M  V30 29504 C 2811.78 1.6809 0.260748 0
M  V30 29505 O 2812.96 1.93778 0.127881 0
M  V30 29506 C 2810.09 3.46792 -0.187805 0
M  V30 29507 C 2809.05 4.12482 -1.14203 0
M  V30 29508 C 2808.37 5.32986 -0.427849 0
M  V30 29509 C 2809.67 4.59334 -2.48615 0
M  V30 29510 H 2811.37 2.48933 -1.66351 0
M  V30 29511 H 2808.91 1.19647 -0.801282 0
M  V30 29512 H 2810.87 4.21359 0.0585635 0
M  V30 29513 H 2809.59 3.17932 0.747429 0
M  V30 29514 H 2808.25 3.39888 -1.37375 0
M  V30 29515 H 2807.9 5.00391 0.511659 0
M  V30 29516 H 2807.6 5.77884 -1.06413 0
M  V30 29517 H 2809.12 6.10305 -0.189879 0
M  V30 29518 H 2810.54 5.25304 -2.29628 0
M  V30 29519 H 2808.93 5.14988 -3.08071 0
M  V30 29520 H 2810 3.73637 -3.09069 0
M  V30 29521 N 2811.35 0.886177 1.30325 0
M  V30 29522 C 2812.59 0.505975 1.96387 0
M  V30 29523 C 2812.93 -0.942682 1.69786 0
M  V30 29524 O 2812.2 -1.66629 1.00325 0
M  V30 29525 C 2812.48 0.782887 3.51487 0
M  V30 29526 C 2812.34 2.28226 3.87599 0
M  V30 29527 C 2813.66 0.260205 4.3933 0
M  V30 29528 H 2810.77 0.185305 0.713324 0
M  V30 29529 H 2813.42 1.11039 1.54176 0
M  V30 29530 H 2811.57 0.268467 3.87571 0
M  V30 29531 H 2813.24 2.86518 3.61532 0
M  V30 29532 H 2811.48 2.74843 3.35625 0
M  V30 29533 H 2812.15 2.42662 4.95802 0
M  V30 29534 H 2814.63 0.700517 4.10161 0
M  V30 29535 H 2813.5 0.483276 5.46768 0
M  V30 29536 H 2813.77 -0.838598 4.34074 0
M  V30 29537 N 2812.82 -1.43695 0.647253 0
M  V30 29538 C 2814.05 -2.06235 0.165787 0
M  V30 29539 C 2814.47 -1.48478 -1.16617 0
M  V30 29540 O 2813.82 -0.613792 -1.71869 0
M  V30 29541 C 2813.88 -3.61446 0.0622286 0
M  V30 29542 O 2813.6 -4.17055 1.34153 0
M  V30 29543 C 2815.1 -4.4105 -0.446025 0
M  V30 29544 H 2812.32 -0.665319 0.0871275 0
M  V30 29545 H 2814.86 -1.843 0.886216 0
M  V30 29546 H 2813.02 -3.82588 -0.608727 0
M  V30 29547 H 2813.43 -5.10662 1.19684 0
M  V30 29548 H 2814.9 -5.50017 -0.467454 0
M  V30 29549 H 2815.38 -4.13648 -1.4762 0
M  V30 29550 H 2815.99 -4.24865 0.192233 0
M  V30 29551 N 2814.3 -0.388796 -1.52729 0
M  V30 29552 C 2815.53 0.19336 -2.05693 0
M  V30 29553 C 2815.94 1.41105 -1.2604 0
M  V30 29554 O 2815.28 1.81233 -0.300042 0
M  V30 29555 C 2815.35 0.628499 -3.53963 0
M  V30 29556 C 2815.01 -0.475656 -4.54518 0
M  V30 29557 C 2816.01 -1.3329 -5.02523 0
M  V30 29558 C 2813.69 -0.642541 -4.98173 0
M  V30 29559 C 2815.69 -2.34216 -5.92808 0
M  V30 29560 C 2813.37 -1.65514 -5.88259 0
M  V30 29561 C 2814.37 -2.50336 -6.35469 0
M  V30 29562 O 2814.06 -3.49865 -7.23775 0
M  V30 29563 H 2813.79 0.0329277 -0.675198 0
M  V30 29564 H 2816.34 -0.552361 -1.97834 0
M  V30 29565 H 2814.57 1.42619 -3.59439 0
M  V30 29566 H 2816.26 1.13627 -3.89671 0
M  V30 29567 H 2817.03 -1.21527 -4.69528 0
M  V30 29568 H 2812.91 0.0079699 -4.60999 0
M  V30 29569 H 2816.45 -3.00458 -6.2958 0
M  V30 29570 H 2812.35 -1.77315 -6.20669 0
M  V30 29571 H 2813.12 -3.45868 -7.41834 0
M  V30 29572 N 2815.78 1.57153 -0.118604 0
M  V30 29573 C 2817.03 1.9547 0.540291 0
M  V30 29574 C 2817.36 1.00199 1.66355 0
M  V30 29575 O 2816.63 0.0391382 1.94461 0
M  V30 29576 C 2816.92 3.43731 1.07336 0
M  V30 29577 C 2816.77 4.49776 -0.0464523 0
M  V30 29578 C 2818.09 3.93829 1.96435 0
M  V30 29579 H 2815.21 0.710755 0.194927 0
M  V30 29580 H 2817.85 1.89006 -0.194083 0
M  V30 29581 H 2816 3.49371 1.69918 0
M  V30 29582 H 2817.67 4.56235 -0.681729 0
M  V30 29583 H 2815.92 4.27956 -0.709649 0
M  V30 29584 H 2816.59 5.50774 0.36776 0
M  V30 29585 H 2819.06 3.9049 1.43724 0
M  V30 29586 H 2817.94 4.98088 2.30651 0
M  V30 29587 H 2818.2 3.345 2.89071 0
M  V30 29588 N 2817.26 -0.155167 1.56834 0
M  V30 29589 C 2818.21 -1.1918 1.97648 0
M  V30 29590 C 2819.18 -1.43129 0.842813 0
M  V30 29591 O 2820.36 -1.556 1.10423 0
M  V30 29592 C 2817.5 -2.52228 2.35531 0
M  V30 29593 C 2816.61 -2.35522 3.62151 0
M  V30 29594 C 2815.75 -3.61548 3.89174 0
M  V30 29595 C 2814.79 -3.39844 5.0909 0
M  V30 29596 N 2813.92 -4.5798 5.32164 0
M  V30 29597 H 2818.76 -0.836751 2.86011 0
M  V30 29598 H 2816.3 -0.401733 1.41508 0
M  V30 29599 H 2818.26 -3.29794 2.55522 0
M  V30 29600 H 2816.89 -2.85696 1.50258 0
M  V30 29601 H 2815.94 -1.49051 3.49983 0
M  V30 29602 H 2817.25 -2.1544 4.49875 0
M  V30 29603 H 2816.41 -4.47546 4.09619 0
M  V30 29604 H 2815.15 -3.84626 2.99856 0
M  V30 29605 H 2814.15 -2.52235 4.88526 0
M  V30 29606 H 2815.38 -3.18173 5.99952 0
M  V30 29607 H 2813.32 -4.81247 4.458 0
M  V30 29608 H 2813.24 -4.40871 6.14141 0
M  V30 29609 H 2814.51 -5.45215 5.57101 0
M  V30 29610 N 2818.74 -1.51782 -0.424256 0
M  V30 29611 C 2820.01 -1.55648 -1.18462 0
M  V30 29612 C 2820.39 -0.328475 -2.08529 0
M  V30 29613 O 2819.74 0.685654 -2.1797 0
M  V30 29614 C 2819.95 -2.87734 -1.97509 0
M  V30 29615 C 2821.3 -3.40174 -2.541 0
M  V30 29616 O 2822.32 -2.89373 -2.07706 0
M  V30 29617 O 2821.18 -4.28847 -3.38752 0
M  V30 29618 H 2818.28 -0.626324 -0.540044 0
M  V30 29619 H 2820.82 -1.64102 -0.432263 0
M  V30 29620 H 2819.59 -3.68565 -1.31437 0
M  V30 29621 H 2819.22 -2.82503 -2.79782 0
M  V30 29622 N 2820.21 0.68054 -1.42149 0
M  V30 29623 C 2821.12 1.82375 -1.47568 0
M  V30 29624 C 2822.14 1.7013 -0.36492 0
M  V30 29625 O 2823.32 1.91782 -0.61495 0
M  V30 29626 C 2820.38 3.18476 -1.37018 0
M  V30 29627 C 2819.44 3.4272 -2.58538 0
M  V30 29628 C 2818.68 4.72327 -2.48481 0
M  V30 29629 O 2818.9 5.49842 -1.51755 0
M  V30 29630 O 2817.83 4.97688 -3.38512 0
M  V30 29631 H 2821.66 1.8076 -2.44049 0
M  V30 29632 H 2819.24 0.835548 -1.23851 0
M  V30 29633 H 2821.13 3.99703 -1.33475 0
M  V30 29634 H 2819.8 3.20742 -0.436608 0
M  V30 29635 H 2818.71 2.61364 -2.67656 0
M  V30 29636 H 2820.04 3.4528 -3.50775 0
M  V30 29637 N 2821.69 1.28226 0.916285 0
M  V30 29638 C 2822.62 1.14468 2.03518 0
M  V30 29639 C 2823.6 0.0431143 1.70045 0
M  V30 29640 O 2824.79 0.219653 1.92954 0
M  V30 29641 C 2821.92 0.803087 3.37887 0
M  V30 29642 C 2820.87 1.85914 3.85512 0
M  V30 29643 C 2820.2 1.37125 5.16818 0
M  V30 29644 C 2821.5 3.26526 4.07649 0
M  V30 29645 H 2823.19 2.08068 2.15286 0
M  V30 29646 H 2820.74 1.00176 1.03444 0
M  V30 29647 H 2822.69 0.693611 4.15653 0
M  V30 29648 H 2821.42 -0.168617 3.26164 0
M  V30 29649 H 2820.07 1.95772 3.0995 0
M  V30 29650 H 2819.72 0.388678 5.01496 0
M  V30 29651 H 2819.42 2.07738 5.49653 0
M  V30 29652 H 2820.95 1.27494 5.97141 0
M  V30 29653 H 2822.36 3.19604 4.75948 0
M  V30 29654 H 2820.76 3.94951 4.51811 0
M  V30 29655 H 2821.83 3.70732 3.12547 0
M  V30 29656 N 2823.17 -1.12438 1.10433 0
M  V30 29657 C 2824.59 -1.35946 0.83612 0
M  V30 29658 C 2824.79 -1.94005 -0.544441 0
M  V30 29659 O 2823.84 -2.16624 -1.29732 0
M  V30 29660 C 2825.16 -2.30103 1.93579 0
M  V30 29661 C 2826.7 -2.43694 1.96424 0
M  V30 29662 C 2827.18 -3.41166 3.05565 0
M  V30 29663 N 2828.67 -3.48723 3.04871 0
M  V30 29664 C 2829.4 -4.24054 3.85961 0
M  V30 29665 N 2828.9 -5.0245 4.76986 0
M  V30 29666 N 2830.69 -4.1946 3.74179 0
M  V30 29667 H 2822.84 -0.731089 1.99421 0
M  V30 29668 H 2825.11 -0.384297 0.866614 0
M  V30 29669 H 2824.81 -1.94616 2.92946 0
M  V30 29670 H 2824.69 -3.30224 1.82296 0
M  V30 29671 H 2827.07 -2.78461 0.976899 0
M  V30 29672 H 2827.16 -1.43461 2.11784 0
M  V30 29673 H 2826.8 -3.07128 4.04518 0
M  V30 29674 H 2826.73 -4.41229 2.87446 0
M  V30 29675 H 2829.22 -2.92795 2.38913 0
M  V30 29676 H 2829.53 -5.57267 5.35419 0
M  V30 29677 H 2827.88 -5.01647 4.81015 0
M  V30 29678 H 2831.07 -3.57296 3.02419 0
M  V30 29679 H 2831.24 -4.77913 4.37611 0
M  V30 29680 N 2824.65 -0.893076 -1.29853 0
M  V30 29681 C 2825.87 -0.530101 -2.00511 0
M  V30 29682 C 2826.3 0.876169 -1.66448 0
M  V30 29683 O 2825.66 1.58206 -0.885474 0
M  V30 29684 C 2825.71 -0.721567 -3.53307 0
M  V30 29685 O 2824.81 0.228922 -4.11764 0
M  V30 29686 H 2824.15 -0.207902 -0.630613 0
M  V30 29687 H 2826.68 -1.20285 -1.65508 0
M  V30 29688 H 2826.69 -0.623669 -4.03205 0
M  V30 29689 H 2825.37 -1.74684 -3.77436 0
M  V30 29690 H 2823.94 0.0840379 -3.72805 0
M  V30 29691 N 2826.13 1.4335 -0.654865 0
M  V30 29692 C 2827.07 2.30772 0.0357308 0
M  V30 29693 C 2828.04 1.44843 0.81301 0
M  V30 29694 O 2829.23 1.73709 0.789283 0
M  V30 29695 C 2826.37 3.30444 0.995025 0
M  V30 29696 C 2825.48 4.31471 0.213675 0
M  V30 29697 C 2824.62 5.18224 1.16692 0
M  V30 29698 C 2823.66 6.10943 0.376094 0
M  V30 29699 N 2822.79 6.90315 1.28101 0
M  V30 29700 H 2827.63 2.89279 -0.71564 0
M  V30 29701 H 2825.17 1.42508 -0.36467 0
M  V30 29702 H 2827.13 3.86741 1.56483 0
M  V30 29703 H 2825.76 2.73583 1.71325 0
M  V30 29704 H 2824.81 3.77455 -0.472444 0
M  V30 29705 H 2826.12 4.97184 -0.401191 0
M  V30 29706 H 2825.28 5.79156 1.8073 0
M  V30 29707 H 2824.02 4.52641 1.81569 0
M  V30 29708 H 2823.02 5.49099 -0.27763 0
M  V30 29709 H 2824.25 6.7857 -0.268298 0
M  V30 29710 H 2822.19 6.27379 1.91655 0
M  V30 29711 H 2822.11 7.52556 0.720747 0
M  V30 29712 H 2823.38 7.5575 1.90949 0
M  V30 29713 N 2827.61 0.39689 1.52521 0
M  V30 29714 C 2828.83 -0.182714 2.06092 0
M  V30 29715 C 2829.25 -1.39884 1.26799 0
M  V30 29716 O 2828.61 -1.79733 0.316616 0
M  V30 29717 C 2828.66 -0.545314 3.57363 0
M  V30 29718 O 2828.38 0.622505 4.33655 0
M  V30 29719 C 2829.88 -1.17997 4.27307 0
M  V30 29720 H 2827.1 -0.0257772 0.670505 0
M  V30 29721 H 2829.64 0.564311 1.9656 0
M  V30 29722 H 2827.8 -1.24223 3.66943 0
M  V30 29723 H 2828.21 0.322754 5.23506 0
M  V30 29724 H 2829.69 -1.38398 5.34369 0
M  V30 29725 H 2830.16 -2.14954 3.83003 0
M  V30 29726 H 2830.77 -0.523597 4.22065 0
M  V30 29727 N 2829.08 -1.57088 0.126936 0
M  V30 29728 C 2830.03 -2.1573 -0.820322 0
M  V30 29729 C 2831 -1.08449 -1.25809 0
M  V30 29730 O 2832.19 -1.36396 -1.3342 0
M  V30 29731 C 2829.33 -2.76727 -2.06194 0
M  V30 29732 C 2828.44 -3.9834 -1.67181 0
M  V30 29733 C 2827.57 -4.47399 -2.8637 0
M  V30 29734 C 2826.61 -5.61523 -2.43635 0
M  V30 29735 N 2825.75 -6.0529 -3.55764 0
M  V30 29736 H 2830.59 -2.96347 -0.31342 0
M  V30 29737 H 2828.13 -1.46403 -0.143004 0
M  V30 29738 H 2830.08 -3.10227 -2.78954 0
M  V30 29739 H 2828.71 -1.98787 -2.5433 0
M  V30 29740 H 2827.77 -3.7095 -0.842648 0
M  V30 29741 H 2829.08 -4.81077 -1.3178 0
M  V30 29742 H 2828.23 -4.82848 -3.67345 0
M  V30 29743 H 2826.97 -3.63627 -3.25003 0
M  V30 29744 H 2825.98 -5.2567 -1.61095 0
M  V30 29745 H 2827.2 -6.47067 -2.0611 0
M  V30 29746 H 2825.15 -5.24458 -3.94055 0
M  V30 29747 H 2825.06 -6.82903 -3.24313 0
M  V30 29748 H 2826.33 -6.4538 -4.37155 0
M  V30 29749 N 2830.56 0.146848 -1.56914 0
M  V30 29750 C 2831.81 0.860708 -1.83629 0
M  V30 29751 C 2832.14 1.80812 -0.70856 0
M  V30 29752 O 2831.42 1.92359 0.287804 0
M  V30 29753 C 2831.7 1.63506 -3.20839 0
M  V30 29754 C 2831.55 0.709121 -4.44175 0
M  V30 29755 C 2832.87 2.59749 -3.55272 0
M  V30 29756 H 2829.99 0.311457 -0.667955 0
M  V30 29757 H 2832.63 0.125902 -1.89582 0
M  V30 29758 H 2830.78 2.26147 -3.15895 0
M  V30 29759 H 2832.45 0.093697 -4.61205 0
M  V30 29760 H 2830.7 0.0187093 -4.33796 0
M  V30 29761 H 2831.37 1.28697 -5.36788 0
M  V30 29762 H 2833.84 2.07226 -3.60828 0
M  V30 29763 H 2832.72 3.10979 -4.52309 0
M  V30 29764 H 2832.98 3.41113 -2.81237 0
M  V30 29765 N 2832.04 1.52005 0.4162 0
M  V30 29766 C 2832.95 1.77719 1.53144 0
M  V30 29767 C 2833.97 0.662396 1.60898 0
M  V30 29768 O 2835.14 0.947023 1.77745 0
M  V30 29769 C 2832.21 1.91604 2.88945 0
M  V30 29770 C 2831.27 3.15499 2.91134 0
M  V30 29771 C 2830.5 3.28711 4.20458 0
M  V30 29772 O 2830.72 2.47354 5.13977 0
M  V30 29773 O 2829.66 4.21821 4.29361 0
M  V30 29774 H 2833.48 2.72366 1.34352 0
M  V30 29775 H 2831.07 1.36763 0.601349 0
M  V30 29776 H 2832.95 2.02599 3.69502 0
M  V30 29777 H 2831.63 1.00146 3.07819 0
M  V30 29778 H 2830.53 3.09966 2.09456 0
M  V30 29779 H 2831.87 4.06714 2.77208 0
M  V30 29780 N 2833.52 -0.672992 1.42508 0
M  V30 29781 C 2834.45 -1.79852 1.42078 0
M  V30 29782 C 2835.46 -1.59632 0.319597 0
M  V30 29783 O 2836.65 -1.68718 0.582799 0
M  V30 29784 C 2833.75 -3.16984 1.19892 0
M  V30 29785 C 2832.92 -3.64037 2.42478 0
M  V30 29786 C 2831.98 -4.79909 2.1581 0
M  V30 29787 O 2831.01 -4.90361 2.89024 0
M  V30 29788 N 2832.21 -5.68744 1.16235 0
M  V30 29789 H 2834.98 -1.80706 2.39093 0
M  V30 29790 H 2832.54 -0.856147 1.37411 0
M  V30 29791 H 2834.53 -3.92159 0.99966 0
M  V30 29792 H 2833.1 -3.1102 0.313933 0
M  V30 29793 H 2832.32 -2.79521 2.77959 0
M  V30 29794 H 2833.61 -3.92217 3.24104 0
M  V30 29795 H 2833.01 -5.62953 0.556855 0
M  V30 29796 H 2831.56 -6.43723 1.02296 0
M  V30 29797 N 2835 -1.2871 -0.909472 0
M  V30 29798 C 2836.24 -1.15885 -1.65575 0
M  V30 29799 C 2836.56 0.292075 -1.928 0
M  V30 29800 O 2835.83 1.20163 -1.54718 0
M  V30 29801 H 2834.41 -0.42588 -0.613706 0
M  V30 29802 H 2837.08 -1.615 -1.09105 0
M  V30 29803 H 2836.17 -1.70163 -2.61631 0
M  V30 29804 N 2836.47 1.1185 -1.11028 0
M  V30 29805 C 2837.42 2.17764 -0.764701 0
M  V30 29806 C 2838.39 1.64023 0.261825 0
M  V30 29807 O 2839.58 1.90288 0.139715 0
M  V30 29808 C 2836.72 3.44464 -0.209377 0
M  V30 29809 C 2835.83 4.12229 -1.29194 0
M  V30 29810 C 2834.96 5.26599 -0.697616 0
M  V30 29811 C 2834 5.86241 -1.76033 0
M  V30 29812 N 2833.14 6.92014 -1.18581 0
M  V30 29813 H 2837.98 2.4667 -1.67206 0
M  V30 29814 H 2835.52 1.21098 -0.835086 0
M  V30 29815 H 2837.47 4.16996 0.130526 0
M  V30 29816 H 2836.1 3.15956 0.661195 0
M  V30 29817 H 2835.16 3.37814 -1.74887 0
M  V30 29818 H 2836.47 4.52618 -2.09615 0
M  V30 29819 H 2835.62 6.0592 -0.307518 0
M  V30 29820 H 2834.36 4.87505 0.137958 0
M  V30 29821 H 2833.37 5.05602 -2.15979 0
M  V30 29822 H 2834.59 6.27404 -2.59886 0
M  V30 29823 H 2832.54 6.54945 -0.37181 0
M  V30 29824 H 2832.45 7.31034 -1.92678 0
M  V30 29825 H 2833.72 7.75149 -0.822466 0
M  V30 29826 N 2837.95 0.89995 1.29378 0
M  V30 29827 C 2839.18 0.540728 2.00227 0
M  V30 29828 C 2839.6 -0.86733 1.6691 0
M  V30 29829 O 2838.96 -1.57734 0.893851 0
M  V30 29830 C 2839.01 0.740294 3.52919 0
M  V30 29831 O 2838.11 -0.207082 4.1188 0
M  V30 29832 H 2837.45 0.211244 0.629501 0
M  V30 29833 H 2839.98 1.21161 1.64867 0
M  V30 29834 H 2839.99 0.645044 4.02869 0
M  V30 29835 H 2838.67 1.76683 3.76505 0
M  V30 29836 H 2837.24 -0.0642659 3.72845 0
M  V30 29837 N 2839.43 -1.43001 0.662458 0
M  V30 29838 C 2840.85 -1.56133 0.330862 0
M  V30 29839 C 2841.05 -1.64443 -1.16451 0
M  V30 29840 O 2840.1 -1.60456 -1.94962 0
M  V30 29841 C 2841.42 -2.81759 1.05034 0
M  V30 29842 C 2842.96 -2.95516 1.03148 0
M  V30 29843 C 2843.44 -4.23987 1.73203 0
M  V30 29844 N 2844.93 -4.30872 1.70011 0
M  V30 29845 C 2845.66 -5.29065 2.21084 0
M  V30 29846 N 2845.16 -6.33483 2.80484 0
M  V30 29847 N 2846.95 -5.2078 2.1153 0
M  V30 29848 H 2839.1 -1.35851 1.63274 0
M  V30 29849 H 2841.37 -0.65308 0.687161 0
M  V30 29850 H 2841.07 -2.81714 2.10547 0
M  V30 29851 H 2840.95 -3.72272 0.60773 0
M  V30 29852 H 2843.33 -2.95096 -0.015282 0
M  V30 29853 H 2843.42 -2.06267 1.51286 0
M  V30 29854 H 2843.06 -4.25167 2.7784 0
M  V30 29855 H 2842.99 -5.12148 1.22524 0
M  V30 29856 H 2845.48 -3.56037 1.26673 0
M  V30 29857 H 2845.79 -7.04743 3.17107 0
M  V30 29858 H 2844.14 -6.3408 2.84549 0
M  V30 29859 H 2847.33 -4.38123 1.64821 0
M  V30 29860 H 2847.5 -5.97145 2.51639 0
M  V30 29861 N 2840.91 -0.404973 -1.52308 0
M  V30 29862 C 2841.84 0.41372 -2.29806 0
M  V30 29863 C 2842.82 1.04978 -1.33842 0
M  V30 29864 O 2844 1.05958 -1.62747 0
M  V30 29865 C 2841.13 1.53287 -3.11641 0
M  V30 29866 C 2840.09 1.02203 -4.15618 0
M  V30 29867 C 2839.41 2.23446 -4.85774 0
M  V30 29868 C 2840.71 0.0789807 -5.2224 0
M  V30 29869 H 2842.41 -0.23293 -2.98493 0
M  V30 29870 H 2839.95 -0.113466 -1.43552 0
M  V30 29871 H 2841.91 2.11256 -3.64622 0
M  V30 29872 H 2840.63 2.20734 -2.40716 0
M  V30 29873 H 2839.29 0.464776 -3.63642 0
M  V30 29874 H 2838.94 2.89438 -4.11381 0
M  V30 29875 H 2838.64 1.8992 -5.56061 0
M  V30 29876 H 2840.16 2.82029 -5.41565 0
M  V30 29877 H 2841.58 0.567338 -5.70486 0
M  V30 29878 H 2839.97 -0.167272 -5.99867 0
M  V30 29879 H 2841.04 -0.867531 -4.77076 0
M  V30 29880 N 2842.39 1.57018 -0.135265 0
M  V30 29881 C 2843.64 1.94917 0.51866 0
M  V30 29882 C 2843.95 1.02193 1.66781 0
M  V30 29883 O 2845.15 1.29623 2.38558 0
M  V30 29884 C 2843.61 3.46468 0.974062 0
M  V30 29885 C 2843.22 4.47757 -0.147518 0
M  V30 29886 C 2844.96 3.93256 1.59844 0
M  V30 29887 C 2842.87 5.90504 0.325496 0
M  V30 29888 H 2841.8 0.727667 0.197528 0
M  V30 29889 H 2844.45 1.82204 -0.21773 0
M  V30 29890 H 2842.83 3.54473 1.76536 0
M  V30 29891 H 2844.01 4.51437 -0.924201 0
M  V30 29892 H 2842.32 4.10817 -0.679568 0
M  V30 29893 H 2844.92 4.97333 1.96376 0
M  V30 29894 H 2845.26 3.34145 2.483 0
M  V30 29895 H 2845.79 3.88119 0.872255 0
M  V30 29896 H 2842.53 6.53407 -0.52341 0
M  V30 29897 H 2842.05 5.90209 1.06831 0
M  V30 29898 H 2843.73 6.42264 0.781385 0
M  V30 29899 N 2843.86 -0.138524 1.5699 0
M  V30 29900 C 2844.77 -1.19005 2.02176 0
M  V30 29901 C 2845.79 -1.46511 0.938647 0
M  V30 29902 O 2846.97 -1.58013 1.24875 0
M  V30 29903 C 2844.03 -2.50154 2.40049 0
M  V30 29904 C 2843.09 -2.3022 3.6235 0
M  V30 29905 C 2842.33 -3.55116 3.98407 0
M  V30 29906 O 2842.55 -4.61642 3.35027 0
M  V30 29907 O 2841.48 -3.47276 4.91613 0
M  V30 29908 H 2845.31 -0.836401 2.91956 0
M  V30 29909 H 2842.89 -0.347881 1.45293 0
M  V30 29910 H 2844.78 -3.27461 2.65231 0
M  V30 29911 H 2843.45 -2.85032 1.53422 0
M  V30 29912 H 2842.36 -1.50837 3.42344 0
M  V30 29913 H 2843.69 -2.00255 4.49621 0
M  V30 29914 N 2845.34 -1.52224 -0.408133 0
M  V30 29915 C 2846.31 -1.75013 -1.47997 0
M  V30 29916 C 2847.31 -0.620023 -1.48366 0
M  V30 29917 O 2848.5 -0.887908 -1.49873 0
M  V30 29918 C 2845.63 -1.83341 -2.874 0
M  V30 29919 H 2846.82 -2.70699 -1.29082 0
M  V30 29920 H 2844.37 -1.42655 -0.63869 0
M  V30 29921 H 2845.11 -0.895732 -3.11684 0
M  V30 29922 H 2844.89 -2.65499 -2.88535 0
M  V30 29923 H 2846.38 -2.02711 -3.651 0
M  V30 29924 N 2846.82 0.665425 -1.42863 0
M  V30 29925 C 2848.05 1.45845 -1.47458 0
M  V30 29926 C 2848.47 1.87884 -0.0900642 0
M  V30 29927 O 2847.83 1.56601 0.913559 0
M  V30 29928 C 2847.88 2.6777 -2.41519 0
M  V30 29929 O 2846.98 3.66385 -1.89303 0
M  V30 29930 H 2846.32 0.43778 -0.499244 0
M  V30 29931 H 2848.85 0.815361 -1.87651 0
M  V30 29932 H 2848.86 3.15731 -2.58415 0
M  V30 29933 H 2847.54 2.36513 -3.42103 0
M  V30 29934 H 2846.11 3.25465 -1.82009 0
M  V30 29935 N 2848.3 1.29191 0.902633 0
M  V30 29936 C 2849.52 1.19992 1.69164 0
M  V30 29937 C 2849.95 -0.236462 1.86608 0
M  V30 29938 O 2849.31 -1.1708 1.38427 0
M  V30 29939 C 2849.35 1.91532 3.05529 0
M  V30 29940 O 2848.46 1.23036 3.93619 0
M  V30 29941 H 2847.8 0.415945 0.517577 0
M  V30 29942 H 2850.33 1.70708 1.12782 0
M  V30 29943 H 2850.34 1.99872 3.5569 0
M  V30 29944 H 2849.01 2.96008 2.92151 0
M  V30 29945 H 2847.59 1.22935 3.52053 0
M  V30 29946 N 2849.78 -1.1126 1.1162 0
M  V30 29947 C 2850.71 -2.19423 0.798499 0
M  V30 29948 C 2851.69 -1.68483 -0.233973 0
M  V30 29949 O 2852.87 -1.93957 -0.0970363 0
M  V30 29950 C 2850 -3.46449 0.242953 0
M  V30 29951 C 2848.96 -4.10613 1.20751 0
M  V30 29952 C 2848.28 -5.32237 0.512588 0
M  V30 29953 C 2849.58 -4.55321 2.55892 0
M  V30 29954 H 2851.28 -2.46255 1.7029 0
M  V30 29955 H 2848.82 -1.18357 0.820216 0
M  V30 29956 H 2850.78 -4.21399 0.00847854 0
M  V30 29957 H 2849.5 -3.19081 -0.696754 0
M  V30 29958 H 2848.16 -3.37659 1.42765 0
M  V30 29959 H 2847.81 -5.01142 -0.431987 0
M  V30 29960 H 2847.51 -5.76118 1.15593 0
M  V30 29961 H 2849.03 -6.09925 0.28695 0
M  V30 29962 H 2850.44 -5.21584 2.37956 0
M  V30 29963 H 2848.84 -5.10021 3.16225 0
M  V30 29964 H 2849.91 -3.68672 3.14974 0
M  V30 29965 N 2851.25 -0.906798 -1.28899 0
M  V30 29966 C 2852.2 -0.379913 -2.29476 0
M  V30 29967 C 2853.2 0.524719 -1.61068 0
M  V30 29968 O 2854.4 0.406734 -1.75344 0
M  V30 29969 H 2850.78 -0.104243 -0.74474 0
M  V30 29970 H 2852.75 -1.24141 -2.71351 0
M  V30 29971 C 2851.5 0.371093 -3.45714 0
M  V30 29972 H 2850.82 -0.315786 -3.98551 0
M  V30 29973 H 2852.26 0.704508 -4.18106 0
M  V30 29974 C 2850.72 1.57641 -2.97743 0
M  V30 29975 O 2851.25 2.67562 -2.99623 0
M  V30 29976 N 2849.46 1.42101 -2.53487 0
M  V30 29977 H 2849 0.526739 -2.52157 0
M  V30 29978 H 2848.96 2.22877 -2.2175 0
M  V30 29979 N 2852.73 1.42648 -0.670032 0
M  V30 29980 C 2854.01 1.95235 -0.119485 0
M  V30 29981 C 2854.39 1.61066 1.36458 0
M  V30 29982 O 2853.74 0.904366 2.09842 0
M  V30 29983 C 2853.95 3.46886 -0.383559 0
M  V30 29984 C 2855.3 4.23556 -0.297505 0
M  V30 29985 O 2856.32 3.54786 -0.317042 0
M  V30 29986 O 2855.18 5.45992 -0.235603 0
M  V30 29987 H 2852.27 0.827 -0.000103084 0
M  V30 29988 H 2854.82 1.525 -0.744433 0
M  V30 29989 H 2853.59 3.64943 -1.41181 0
M  V30 29990 H 2853.21 3.96657 0.273632 0
M  V30 29991 N 2854.21 0.413044 1.52091 0
M  V30 29992 C 2855.44 -0.163301 2.06756 0
M  V30 29993 C 2855.86 -1.37762 1.28075 0
M  V30 29994 O 2855.22 -1.78594 0.312046 0
M  V30 29995 C 2855.27 -0.488259 3.57279 0
M  V30 29996 O 2854.37 -1.57864 3.80989 0
M  V30 29997 H 2853.71 -0.0124951 0.663882 0
M  V30 29998 H 2856.24 0.587373 1.95987 0
M  V30 29999 H 2856.25 -0.745765 4.01126 0
M  V30 30000 H 2854.93 0.3994 4.13978 0
M  V30 30001 H 2853.5 -1.313 3.4902 0
M  V30 30002 N 2855.69 -1.56945 0.143591 0
M  V30 30003 C 2856.94 -1.96305 -0.509125 0
M  V30 30004 C 2857.27 -1.02833 -1.64739 0
M  V30 30005 O 2856.54 -0.0700702 -1.94374 0
M  V30 30006 C 2856.83 -3.45395 -1.01854 0
M  V30 30007 C 2856.68 -4.49645 0.118002 0
M  V30 30008 C 2858 -3.96904 -1.90144 0
M  V30 30009 H 2855.12 -0.713766 -0.183595 0
M  V30 30010 H 2857.76 -1.88673 0.224128 0
M  V30 30011 H 2855.91 -3.5203 -1.64339 0
M  V30 30012 H 2857.58 -4.55092 0.754225 0
M  V30 30013 H 2855.82 -4.26773 0.777643 0
M  V30 30014 H 2856.5 -5.51289 -0.28009 0
M  V30 30015 H 2858.97 -3.92727 -1.37493 0
M  V30 30016 H 2857.85 -5.01694 -2.22698 0
M  V30 30017 H 2858.11 -3.39057 -2.83712 0
M  V30 30018 N 2857.17 0.130197 -1.57061 0
M  V30 30019 C 2858.13 1.14423 -1.98595 0
M  V30 30020 C 2859.13 1.34934 -0.874608 0
M  V30 30021 O 2860.32 1.31641 -1.14089 0
M  V30 30022 C 2857.45 2.50108 -2.31644 0
M  V30 30023 H 2858.65 0.78751 -2.89376 0
M  V30 30024 H 2856.2 0.374119 -1.51757 0
M  V30 30025 H 2856.93 2.90721 -1.43708 0
M  V30 30026 H 2856.72 2.36577 -3.12688 0
M  V30 30027 H 2858.21 3.23109 -2.64557 0
M  V30 30028 N 2858.65 1.52438 0.400055 0
M  V30 30029 C 2859.58 1.71163 1.50926 0
M  V30 30030 C 2860.56 0.559302 1.52678 0
M  V30 30031 O 2861.74 0.787765 1.7125 0
M  V30 30032 C 2858.87 1.7592 2.8943 0
M  V30 30033 C 2857.91 2.97558 3.05551 0
M  V30 30034 S 2858.75 4.5774 2.7791 0
M  V30 30035 C 2859.9 4.65297 4.18628 0
M  V30 30036 H 2860.14 2.64976 1.34815 0
M  V30 30037 H 2857.67 1.42591 0.592219 0
M  V30 30038 H 2859.63 1.79346 3.69249 0
M  V30 30039 H 2858.29 0.83219 3.02875 0
M  V30 30040 H 2857.48 2.97396 4.06905 0
M  V30 30041 H 2857.08 2.92066 2.33609 0
M  V30 30042 H 2859.37 4.43232 5.12398 0
M  V30 30043 H 2860.32 5.67265 4.23811 0
M  V30 30044 H 2860.73 3.94241 4.04022 0
M  V30 30045 N 2860.12 -0.657839 1.43214 0
M  V30 30046 C 2861.54 -0.972969 1.26513 0
M  V30 30047 C 2861.74 -2.00681 0.181512 0
M  V30 30048 O 2860.8 -2.48608 -0.441606 0
M  V30 30049 C 2862.11 -1.46163 2.62787 0
M  V30 30050 C 2863.66 -1.57852 2.70281 0
M  V30 30051 C 2864.13 -2.1011 4.06962 0
M  V30 30052 N 2865.62 -2.17419 4.09003 0
M  V30 30053 C 2866.36 -2.58966 5.1159 0
M  V30 30054 N 2865.85 -2.99842 6.24553 0
M  V30 30055 N 2867.65 -2.58865 4.98944 0
M  V30 30056 H 2859.8 0.0263503 2.12384 0
M  V30 30057 H 2862.06 -0.0507825 0.946639 0
M  V30 30058 H 2861.77 -0.776413 3.43023 0
M  V30 30059 H 2861.64 -2.43746 2.87867 0
M  V30 30060 H 2864.03 -2.25476 1.9038 0
M  V30 30061 H 2864.11 -0.587135 2.48971 0
M  V30 30062 H 2863.75 -1.43089 4.87327 0
M  V30 30063 H 2863.68 -3.10071 4.25633 0
M  V30 30064 H 2866.17 -1.88621 3.27461 0
M  V30 30065 H 2866.49 -3.3028 6.98667 0
M  V30 30066 H 2864.83 -2.97658 6.28032 0
M  V30 30067 H 2868.02 -2.26304 4.09761 0
M  V30 30068 H 2868.2 -2.90922 5.79024 0
M  V30 30069 N 2861.6 -1.29668 -0.895769 0
M  V30 30070 C 2862.53 -1.09457 -2.00236 0
M  V30 30071 C 2863.51 -0.00529902 -1.62599 0
M  V30 30072 O 2864.7 -0.156762 -1.87847 0
M  V30 30073 C 2861.82 -0.667113 -3.32065 0
M  V30 30074 C 2860.87 -1.75567 -3.88688 0
M  V30 30075 S 2861.7 -3.35576 -4.17312 0
M  V30 30076 C 2862.86 -2.94708 -5.52176 0
M  V30 30077 H 2863.09 -2.03142 -2.17073 0
M  V30 30078 H 2860.62 -1.13859 -1.04285 0
M  V30 30079 H 2862.58 -0.427208 -4.08271 0
M  V30 30080 H 2861.24 0.250201 -3.13102 0
M  V30 30081 H 2860.44 -1.40861 -4.83915 0
M  V30 30082 H 2860.04 -1.9493 -3.19184 0
M  V30 30083 H 2862.33 -2.41997 -6.32806 0
M  V30 30084 H 2863.27 -3.88801 -5.9181 0
M  V30 30085 H 2863.68 -2.32888 -5.14221 0
M  V30 30086 N 2863.08 1.10667 -1.12208 0
M  V30 30087 C 2864.04 2.15122 -0.790905 0
M  V30 30088 C 2865.04 1.5963 0.19359 0
M  V30 30089 O 2866.23 1.74171 -0.0319034 0
M  V30 30090 C 2863.36 3.40451 -0.174857 0
M  V30 30091 H 2864.56 2.4593 -1.71635 0
M  V30 30092 H 2862.11 1.25989 -0.925015 0
M  V30 30093 H 2862.85 3.15259 0.760422 0
M  V30 30094 H 2862.63 3.82013 -0.883647 0
M  V30 30095 H 2864.12 4.1758 0.0404428 0
M  V30 30096 N 2864.56 0.913621 1.28416 0
M  V30 30097 C 2865.8 0.546708 1.9498 0
M  V30 30098 C 2866.13 -0.909576 1.71921 0
M  V30 30099 O 2865.39 -1.66205 1.03317 0
M  V30 30100 C 2865.69 0.80216 3.48282 0
M  V30 30101 C 2865.35 2.23797 3.9144 0
M  V30 30102 C 2864.01 2.63053 4.02935 0
M  V30 30103 C 2866.37 3.17234 4.13536 0
M  V30 30104 C 2863.69 3.94899 4.33903 0
M  V30 30105 C 2866.05 4.48644 4.45984 0
M  V30 30106 C 2864.71 4.87754 4.55689 0
M  V30 30107 H 2863.98 0.200055 0.713484 0
M  V30 30108 H 2866.63 1.15492 1.52754 0
M  V30 30109 H 2864.93 0.111145 3.91642 0
M  V30 30110 H 2866.63 0.497445 3.97903 0
M  V30 30111 H 2863.22 1.92336 3.8302 0
M  V30 30112 H 2867.4 2.88114 4.04109 0
M  V30 30113 H 2862.66 4.24902 4.39623 0
M  V30 30114 H 2866.83 5.21059 4.62029 0
M  V30 30115 H 2864.46 5.8995 4.7944 0
M  V30 30116 N 2866.04 -1.4229 0.677588 0
M  V30 30117 C 2867.28 -2.01102 0.200613 0
M  V30 30118 C 2867.6 -1.5386 -1.198 0
M  V30 30119 O 2866.87 -0.761471 -1.80495 0
M  V30 30120 H 2865.45 -0.743601 0.0711765 0
M  V30 30121 H 2868.12 -1.74168 0.874721 0
M  V30 30122 H 2867.21 -3.11432 0.204055 0
M  V30 30123 N 2867.51 -0.421104 -1.5187 0
M  V30 30124 C 2868.46 0.413026 -2.28904 0
M  V30 30125 C 2869.46 1.03529 -1.34082 0
M  V30 30126 O 2870.66 0.972119 -1.51492 0
M  V30 30127 H 2867.04 0.15199 -0.73648 0
M  V30 30128 H 2869.01 -0.257747 -2.97285 0
M  V30 30129 C 2867.76 1.51086 -3.13159 0
M  V30 30130 H 2867.08 1.04139 -3.85999 0
M  V30 30131 H 2868.52 2.06808 -3.70144 0
M  V30 30132 C 2866.98 2.48499 -2.27486 0
M  V30 30133 O 2867.51 3.52663 -1.92332 0
M  V30 30134 N 2865.71 2.18995 -1.91022 0
M  V30 30135 H 2865.26 1.34318 -2.1981 0
M  V30 30136 H 2865.22 2.84416 -1.33995 0
M  V30 30137 N 2868.99 1.56866 -0.151912 0
M  V30 30138 C 2869.92 2.20019 0.781904 0
M  V30 30139 C 2870.9 1.1499 1.25345 0
M  V30 30140 O 2872.09 1.4335 1.31013 0
M  V30 30141 C 2869.22 2.82567 2.01923 0
M  V30 30142 C 2868.17 3.93467 1.68427 0
M  V30 30143 C 2867.5 4.42973 2.99465 0
M  V30 30144 C 2868.8 5.14005 0.927154 0
M  V30 30145 H 2870.49 2.98307 0.255554 0
M  V30 30146 H 2868.04 1.43487 0.121477 0
M  V30 30147 H 2869.99 3.25416 2.67736 0
M  V30 30148 H 2868.72 2.01618 2.56939 0
M  V30 30149 H 2867.37 3.51244 1.04991 0
M  V30 30150 H 2867.02 3.5884 3.52481 0
M  V30 30151 H 2866.72 5.17777 2.77814 0
M  V30 30152 H 2868.25 4.88495 3.6634 0
M  V30 30153 H 2869.66 5.53667 1.48746 0
M  V30 30154 H 2868.06 5.94603 0.810408 0
M  V30 30155 H 2869.13 4.84834 -0.0802016 0
M  V30 30156 N 2870.47 -0.121866 1.57128 0
M  V30 30157 C 2871.7 -0.843193 1.8861 0
M  V30 30158 C 2872.11 -1.74088 0.740948 0
M  V30 30159 O 2871.45 -1.81277 -0.297394 0
M  V30 30160 C 2871.51 -1.73111 3.15076 0
M  V30 30161 C 2871.18 -1.00802 4.45744 0
M  V30 30162 C 2872.17 -0.350163 5.18719 0
M  V30 30163 C 2869.86 -0.990053 4.92446 0
M  V30 30164 C 2871.85 0.316001 6.36616 0
M  V30 30165 C 2869.54 -0.320089 6.10261 0
M  V30 30166 C 2870.54 0.331786 6.82194 0
M  V30 30167 O 2870.23 0.991068 7.97768 0
M  V30 30168 H 2869.96 -0.247854 0.628923 0
M  V30 30169 H 2872.51 -0.111689 2.05096 0
M  V30 30170 H 2870.74 -2.50419 2.94665 0
M  V30 30171 H 2872.43 -2.32661 3.32601 0
M  V30 30172 H 2873.2 -0.355685 4.83694 0
M  V30 30173 H 2869.08 -1.48687 4.36364 0
M  V30 30174 H 2872.62 0.825394 6.927 0
M  V30 30175 H 2868.52 -0.31232 6.44744 0
M  V30 30176 H 2869.29 0.895256 8.13589 0
M  V30 30177 N 2871.95 -1.52648 -0.391965 0
M  V30 30178 C 2872.91 -1.76573 -1.46132 0
M  V30 30179 C 2873.91 -0.635724 -1.477 0
M  V30 30180 O 2875.1 -0.903754 -1.48923 0
M  V30 30181 C 2872.23 -1.86379 -2.85439 0
M  V30 30182 H 2873.43 -2.72053 -1.26203 0
M  V30 30183 H 2870.98 -1.43324 -0.623523 0
M  V30 30184 H 2871.71 -0.92874 -3.10717 0
M  V30 30185 H 2871.5 -2.68544 -2.85703 0
M  V30 30186 H 2872.99 -2.06572 -3.62929 0
M  V30 30187 N 2873.43 0.650235 -1.43561 0
M  V30 30188 C 2874.39 1.74486 -1.48618 0
M  V30 30189 C 2875.39 1.56473 -0.37051 0
M  V30 30190 O 2876.58 1.62316 -0.632379 0
M  V30 30191 C 2873.71 3.13388 -1.34166 0
M  V30 30192 H 2874.9 1.71382 -2.46106 0
M  V30 30193 H 2872.46 0.862163 -1.3037 0
M  V30 30194 H 2873.19 3.22102 -0.376974 0
M  V30 30195 H 2872.98 3.27868 -2.15046 0
M  V30 30196 H 2874.47 3.93204 -1.40644 0
M  V30 30197 N 2874.9 1.30141 0.88888 0
M  V30 30198 C 2876.15 1.18739 1.64035 0
M  V30 30199 C 2876.48 -0.258767 1.92771 0
M  V30 30200 O 2875.73 -1.20209 1.54429 0
M  V30 30201 C 2876.03 1.95733 2.99037 0
M  V30 30202 C 2875.7 3.4538 2.89868 0
M  V30 30203 C 2874.36 3.86188 2.87075 0
M  V30 30204 C 2876.71 4.40692 2.78281 0
M  V30 30205 C 2874.04 5.20607 2.70527 0
M  V30 30206 C 2876.39 5.75214 2.63272 0
M  V30 30207 C 2875.06 6.15266 2.58851 0
M  V30 30208 H 2874.33 0.434495 0.600246 0
M  V30 30209 H 2876.97 1.612 1.03377 0
M  V30 30210 H 2875.28 1.45895 3.63623 0
M  V30 30211 H 2876.98 1.84306 3.56135 0
M  V30 30212 H 2873.57 3.12948 2.9285 0
M  V30 30213 H 2877.75 4.10108 2.79508 0
M  V30 30214 H 2873.01 5.50737 2.65516 0
M  V30 30215 H 2877.18 6.48709 2.53279 0
M  V30 30216 H 2874.81 7.1937 2.45787 0
M  V30 30217 N 2876.38 -1.1007 1.12794 0
M  V30 30218 C 2877.33 -2.14672 0.768124 0
M  V30 30219 C 2878.32 -1.59179 -0.234688 0
M  V30 30220 O 2879.51 -1.76956 -0.0396119 0
M  V30 30221 C 2876.64 -3.42538 0.228532 0
M  V30 30222 C 2875.72 -4.04955 1.25986 0
M  V30 30223 N 2876.11 -4.42021 2.45868 0
M  V30 30224 C 2874.41 -4.32067 1.10609 0
M  V30 30225 C 2875.11 -4.91104 3.11755 0
M  V30 30226 N 2874.09 -4.88147 2.39194 0
M  V30 30227 H 2877.89 -2.41127 1.68033 0
M  V30 30228 H 2875.41 -1.2723 1.00927 0
M  V30 30229 H 2877.4 -4.16873 -0.0474483 0
M  V30 30230 H 2876.06 -3.17541 -0.678081 0
M  V30 30231 H 2877.07 -4.33596 2.83223 0
M  V30 30232 H 2873.75 -4.16708 0.257095 0
M  V30 30233 H 2875.14 -5.29302 4.13871 0
M  V30 30234 N 2877.86 -0.920419 -1.2793 0
M  V30 30235 C 2878.81 -0.412462 -2.27085 0
M  V30 30236 C 2879.78 0.516697 -1.57859 0
M  V30 30237 O 2880.96 0.437443 -1.85718 0
M  V30 30238 C 2878.1 0.335339 -3.43467 0
M  V30 30239 C 2877.22 -0.627092 -4.27424 0
M  V30 30240 C 2876.35 0.139823 -5.31016 0
M  V30 30241 C 2875.39 -0.815789 -6.06639 0
M  V30 30242 N 2874.53 -0.0819673 -7.02052 0
M  V30 30243 H 2879.37 -1.26303 -2.6991 0
M  V30 30244 H 2876.9 -0.634099 -1.32731 0
M  V30 30245 H 2878.86 0.785154 -4.09745 0
M  V30 30246 H 2877.49 1.1502 -3.01613 0
M  V30 30247 H 2876.54 -1.19544 -3.61128 0
M  V30 30248 H 2877.86 -1.35772 -4.79966 0
M  V30 30249 H 2877.01 0.649892 -6.03209 0
M  V30 30250 H 2875.75 0.903459 -4.79259 0
M  V30 30251 H 2874.75 -1.33717 -5.33291 0
M  V30 30252 H 2875.98 -1.57909 -6.60486 0
M  V30 30253 H 2873.92 0.663556 -6.52635 0
M  V30 30254 H 2873.84 -0.752295 -7.52248 0
M  V30 30255 H 2875.11 0.407688 -7.78433 0
M  V30 30256 N 2879.34 1.41929 -0.685124 0
M  V30 30257 C 2880.29 2.326 -0.00170073 0
M  V30 30258 C 2881.28 1.50392 0.779652 0
M  V30 30259 O 2882.49 1.66397 0.686451 0
M  V30 30260 H 2878.86 0.751779 0.0182484 0
M  V30 30261 H 2880.83 2.87926 -0.783643 0
M  V30 30262 C 2879.58 3.35078 0.928326 0
M  V30 30263 H 2878.9 3.98381 0.336508 0
M  V30 30264 H 2880.34 4.01085 1.37502 0
M  V30 30265 C 2878.8 2.68146 2.03959 0
M  V30 30266 O 2879.33 2.52126 3.12723 0
M  V30 30267 N 2877.54 2.27006 1.81429 0
M  V30 30268 H 2877.09 2.40236 0.929765 0
M  V30 30269 H 2877.04 1.82557 2.5597 0
M  V30 30270 N 2880.82 0.429152 1.51644 0
M  V30 30271 C 2882.23 -0.0358675 1.86666 0
M  V30 30272 C 2882.58 -1.42674 1.3468 0
M  V30 30273 O 2881.7 -2.04962 0.694231 0
M  V30 30274 C 2882.3 -0.0718625 3.38724 0
M  V30 30275 C 2880.86 -0.481271 3.73311 0
M  V30 30276 C 2880 0.331377 2.75313 0
M  V30 30277 H 2882.96 0.645358 1.44986 0
M  V30 30278 H 2882.98 -0.883053 3.70111 0
M  V30 30279 H 2882.49 0.940561 3.7653 0
M  V30 30280 H 2880.59 -1.4996 3.41091 0
M  V30 30281 H 2880.7 -0.211753 4.78632 0
M  V30 30282 H 2879.07 -0.209159 2.5384 0
M  V30 30283 H 2879.85 1.34252 3.15961 0
M  V30 30284 N 2882.29 -1.56783 0.160229 0
M  V30 30285 C 2883.54 -1.96155 -0.48659 0
M  V30 30286 C 2883.86 -1.04676 -1.64523 0
M  V30 30287 O 2883.13 -0.110899 -1.95586 0
M  V30 30288 H 2881.71 -0.7243 -0.182752 0
M  V30 30289 H 2884.38 -1.93431 0.238821 0
M  V30 30290 H 2883.47 -3.00189 -0.853973 0
M  V30 30291 N 2883.77 0.113531 -1.57191 0
M  V30 30292 C 2885.02 0.821564 -1.85413 0
M  V30 30293 C 2885.35 1.79269 -0.746753 0
M  V30 30294 O 2884.63 1.92926 0.246937 0
M  V30 30295 C 2884.91 1.56663 -3.24235 0
M  V30 30296 C 2884.76 0.614745 -4.45579 0
M  V30 30297 C 2886.08 2.52155 -3.60702 0
M  V30 30298 H 2883.2 0.297218 -0.674411 0
M  V30 30299 H 2885.84 0.0856606 -1.89807 0
M  V30 30300 H 2883.99 2.19396 -3.20621 0
M  V30 30301 H 2885.67 -0.00415246 -4.613 0
M  V30 30302 H 2883.91 -0.0733094 -4.33738 0
M  V30 30303 H 2884.58 1.17282 -5.39397 0
M  V30 30304 H 2887.06 1.99525 -3.65142 0
M  V30 30305 H 2885.93 3.01315 -4.58803 0
M  V30 30306 H 2886.19 3.35071 -2.88409 0
M  V30 30307 N 2885.25 1.52854 0.383864 0
M  V30 30308 C 2886.5 1.67371 1.1256 0
M  V30 30309 C 2886.81 0.422567 1.90981 0
M  V30 30310 O 2888.02 0.447961 2.67779 0
M  V30 30311 C 2886.48 2.95805 2.05006 0
M  V30 30312 C 2886.08 4.28117 1.31984 0
M  V30 30313 C 2887.83 3.19689 2.79284 0
M  V30 30314 C 2885.73 5.47654 2.23225 0
M  V30 30315 H 2884.66 0.623559 0.423899 0
M  V30 30316 H 2887.32 1.79351 0.387984 0
M  V30 30317 H 2885.7 2.77583 2.82425 0
M  V30 30318 H 2886.87 4.56909 0.597553 0
M  V30 30319 H 2885.19 4.10535 0.696445 0
M  V30 30320 H 2887.78 4.06177 3.47742 0
M  V30 30321 H 2888.13 2.34976 3.43645 0
M  V30 30322 H 2888.66 3.385 2.08956 0
M  V30 30323 H 2885.4 6.34789 1.63471 0
M  V30 30324 H 2884.92 5.23166 2.93355 0
M  V30 30325 H 2886.6 5.8173 2.83195 0
M  V30 30326 N 2886.73 -0.642612 1.43904 0
M  V30 30327 C 2887.96 -1.42985 1.49542 0
M  V30 30328 C 2888.37 -1.88439 0.116621 0
M  V30 30329 O 2887.73 -1.60142 -0.875257 0
M  V30 30330 C 2887.78 -2.65781 2.45036 0
M  V30 30331 O 2887.5 -2.22225 3.77555 0
M  V30 30332 C 2889 -3.5903 2.60024 0
M  V30 30333 H 2886.22 -0.438899 0.507552 0
M  V30 30334 H 2888.77 -0.786909 1.88754 0
M  V30 30335 H 2886.92 -3.26192 2.08991 0
M  V30 30336 H 2887.34 -3.01752 4.29006 0
M  V30 30337 H 2888.81 -4.41829 3.30894 0
M  V30 30338 H 2889.29 -4.07081 1.64868 0
M  V30 30339 H 2889.89 -3.04495 2.96923 0
M  V30 30340 N 2888.21 -1.30611 -0.881966 0
M  V30 30341 C 2889.46 -1.19371 -1.6308 0
M  V30 30342 C 2889.78 0.251113 -1.93376 0
M  V30 30343 O 2889.05 1.16855 -1.57232 0
M  V30 30344 H 2887.63 -0.438802 -0.604535 0
M  V30 30345 H 2890.29 -1.63778 -1.05655 0
M  V30 30346 H 2889.38 -1.75675 -2.57963 0
M  V30 30347 N 2889.69 1.0947 -1.13376 0
M  V30 30348 C 2890.91 1.8594 -0.918744 0
M  V30 30349 C 2891.34 1.80561 0.527193 0
M  V30 30350 O 2890.69 1.18276 1.37406 0
M  V30 30351 C 2890.74 3.31864 -1.41062 0
M  V30 30352 O 2889.85 4.08077 -0.595568 0
M  V30 30353 H 2889.19 0.576587 -0.329307 0
M  V30 30354 H 2891.72 1.38242 -1.50832 0
M  V30 30355 H 2891.73 3.82712 -1.41404 0
M  V30 30356 H 2890.4 3.35095 -2.46341 0
M  V30 30357 H 2888.98 3.67013 -0.659975 0
M  V30 30358 N 2891.16 0.92719 1.2744 0
M  V30 30359 C 2892.13 0.430564 2.25119 0
M  V30 30360 C 2893.13 -0.450592 1.54358 0
M  V30 30361 O 2894.32 -0.251744 1.72371 0
M  V30 30362 C 2891.45 -0.381084 3.38763 0
M  V30 30363 H 2892.64 1.29359 2.70567 0
M  V30 30364 H 2890.19 0.707831 1.39354 0
M  V30 30365 H 2890.93 -1.26295 2.98697 0
M  V30 30366 H 2890.71 0.250687 3.91298 0
M  V30 30367 H 2892.2 -0.71894 4.11365 0
M  V30 30368 N 2892.64 -1.41564 0.692641 0
M  V30 30369 C 2893.89 -2.01574 0.2227 0
M  V30 30370 C 2894.22 -1.54721 -1.17367 0
M  V30 30371 O 2893.5 -0.757116 -1.79159 0
M  V30 30372 C 2893.78 -3.59032 0.277127 0
M  V30 30373 C 2893.63 -4.16018 1.71023 0
M  V30 30374 C 2894.95 -4.38586 -0.364713 0
M  V30 30375 H 2892.07 -0.73238 0.0823968 0
M  V30 30376 H 2894.71 -1.6835 0.880807 0
M  V30 30377 H 2892.86 -3.87466 -0.28322 0
M  V30 30378 H 2894.53 -3.98471 2.3242 0
M  V30 30379 H 2892.78 -3.71171 2.24531 0
M  V30 30380 H 2893.45 -5.25175 1.69987 0
M  V30 30381 H 2895.92 -4.15948 0.112477 0
M  V30 30382 H 2894.8 -5.48101 -0.296073 0
M  V30 30383 H 2895.06 -4.17819 -1.44499 0
M  V30 30384 N 2894.12 -0.437188 -1.51415 0
M  V30 30385 C 2895.37 0.129073 -2.01687 0
M  V30 30386 C 2895.69 1.43225 -1.32332 0
M  V30 30387 O 2894.96 1.90475 -0.457829 0
M  V30 30388 H 2893.54 0.0506892 -0.745278 0
M  V30 30389 H 2896.2 -0.579861 -1.86074 0
M  V30 30390 H 2895.3 0.305087 -3.10605 0
M  V30 30391 N 2895.6 1.56696 -0.168541 0
M  V30 30392 C 2896.84 1.98693 0.479613 0
M  V30 30393 C 2897.2 1.05212 1.60607 0
M  V30 30394 O 2898.4 1.36338 2.31658 0
M  V30 30395 C 2896.67 3.44466 0.952791 0
M  V30 30396 S 2898.23 4.08491 1.60252 0
M  V30 30397 H 2895.05 0.694041 0.154365 0
M  V30 30398 H 2897.65 1.93691 -0.265346 0
M  V30 30399 H 2896.36 4.10217 0.122498 0
M  V30 30400 H 2895.89 3.53228 1.73186 0
M  V30 30401 H 2897.9 4.03312 2.89057 0
M  V30 30402 N 2897.08 -0.105193 1.57249 0
M  V30 30403 C 2898.35 -0.841616 1.76568 0
M  V30 30404 C 2898.73 -1.97419 0.7476 0
M  V30 30405 O 2898.08 -2.27381 -0.225846 0
M  V30 30406 C 2898.29 -1.34555 3.22019 0
M  V30 30407 C 2899.64 -1.79238 3.84914 0
M  V30 30408 O 2900.66 -1.44202 3.25706 0
M  V30 30409 O 2899.52 -2.43986 4.89012 0
M  V30 30410 H 2896.62 -0.400685 0.72345 0
M  V30 30411 H 2899.16 -0.0878595 1.69472 0
M  V30 30412 H 2897.93 -0.533617 3.87644 0
M  V30 30413 H 2897.56 -2.16161 3.33707 0
M  V30 30414 N 2898.55 -1.53055 -0.375752 0
M  V30 30415 C 2899.97 -1.60542 -0.953062 0
M  V30 30416 C 2900.32 -0.466479 -1.90574 0
M  V30 30417 O 2899.44 0.408571 -2.12508 0
M  V30 30418 C 2900.04 -2.90985 -1.73532 0
M  V30 30419 C 2898.6 -3.0084 -2.26213 0
M  V30 30420 C 2897.74 -2.55761 -1.07153 0
M  V30 30421 H 2900.69 -1.57943 -0.154867 0
M  V30 30422 H 2900.71 -2.78216 -2.5957 0
M  V30 30423 H 2900.23 -3.73859 -1.04169 0
M  V30 30424 H 2898.33 -2.22532 -2.98848 0
M  V30 30425 H 2898.44 -4.05731 -2.54792 0
M  V30 30426 H 2896.8 -2.10394 -1.4355 0
M  V30 30427 H 2897.59 -3.41043 -0.39304 0
M  V30 30428 N 2900.03 0.634971 -1.44242 0
M  V30 30429 C 2901.31 1.39314 -1.37299 0
M  V30 30430 C 2901.69 2.11079 -0.0297903 0
M  V30 30431 O 2901.04 2.06061 0.987488 0
M  V30 30432 C 2901.25 2.36274 -2.56857 0
M  V30 30433 C 2902.6 2.99722 -3.00752 0
M  V30 30434 O 2903.62 2.466 -2.57034 0
M  V30 30435 O 2902.48 3.96081 -3.7654 0
M  V30 30436 H 2899.57 0.623315 -0.543514 0
M  V30 30437 H 2902.12 0.660349 -1.56325 0
M  V30 30438 H 2900.89 1.82318 -3.46231 0
M  V30 30439 H 2900.51 3.16977 -2.40024 0
M  V30 30440 N 2901.51 1.31076 0.875027 0
M  V30 30441 C 2902.44 1.20885 1.99773 0
M  V30 30442 C 2903.42 0.0971911 1.69822 0
M  V30 30443 O 2904.61 0.280929 1.92157 0
M  V30 30444 C 2901.74 0.910176 3.35161 0
M  V30 30445 C 2900.69 1.98085 3.79403 0
M  V30 30446 C 2900.02 1.53497 5.12194 0
M  V30 30447 C 2901.32 3.3933 3.97055 0
M  V30 30448 H 2903.01 2.14812 2.08558 0
M  V30 30449 H 2900.56 1.03416 1.00205 0
M  V30 30450 H 2902.51 0.825496 4.13235 0
M  V30 30451 H 2901.23 -0.0647647 3.26536 0
M  V30 30452 H 2899.89 2.05534 3.03565 0
M  V30 30453 H 2899.54 0.548029 5.00006 0
M  V30 30454 H 2899.24 2.2512 5.42766 0
M  V30 30455 H 2900.76 1.46427 5.92783 0
M  V30 30456 H 2902.18 3.34584 4.65539 0
M  V30 30457 H 2900.58 4.09126 4.39017 0
M  V30 30458 H 2901.65 3.80488 3.00594 0
M  V30 30459 N 2902.99 -1.08867 1.13955 0
M  V30 30460 C 2904.24 -1.8116 0.904842 0
M  V30 30461 C 2904.56 -1.85997 -0.568791 0
M  V30 30462 O 2903.82 -1.32826 -1.43721 0
M  V30 30463 C 2904.12 -3.26886 1.44501 0
M  V30 30464 C 2903.78 -3.42173 2.93647 0
M  V30 30465 C 2902.45 -3.46053 3.34367 0
M  V30 30466 C 2904.8 -3.46239 3.89574 0
M  V30 30467 C 2902.13 -3.51583 4.69687 0
M  V30 30468 C 2904.48 -3.53304 5.24746 0
M  V30 30469 C 2903.14 -3.55455 5.64985 0
M  V30 30470 H 2902.41 -0.662911 0.331105 0
M  V30 30471 H 2905.06 -1.28214 1.42244 0
M  V30 30472 H 2903.36 -3.82508 0.848236 0
M  V30 30473 H 2905.06 -3.81366 1.23941 0
M  V30 30474 H 2901.65 -3.39842 2.61162 0
M  V30 30475 H 2905.83 -3.42477 3.59198 0
M  V30 30476 H 2901.09 -3.51539 5.00231 0
M  V30 30477 H 2905.26 -3.55395 5.98888 0
M  V30 30478 H 2902.89 -3.59493 6.69827 0
M  V30 30479 N 2904.47 -0.933936 -1.26946 0
M  V30 30480 C 2905.71 -0.588019 -1.94715 0
M  V30 30481 C 2906.07 0.862282 -1.71996 0
M  V30 30482 O 2905.36 1.60781 -1.04211 0
M  V30 30483 C 2905.55 -0.857467 -3.46961 0
M  V30 30484 C 2905.38 -2.33241 -3.84485 0
M  V30 30485 C 2904.15 -2.98626 -4.07616 0
M  V30 30486 C 2906.35 -3.31038 -3.93596 0
M  V30 30487 N 2904.33 -4.36207 -4.31968 0
M  V30 30488 C 2905.7 -4.53852 -4.22396 0
M  V30 30489 C 2907.76 -3.26162 -3.76195 0
M  V30 30490 C 2906.46 -5.72399 -4.35605 0
M  V30 30491 C 2908.49 -4.44027 -3.90633 0
M  V30 30492 C 2907.85 -5.6562 -4.19825 0
M  V30 30493 H 2903.95 -0.265413 -0.735582 0
M  V30 30494 H 2906.53 -1.20185 -1.53179 0
M  V30 30495 H 2904.7 -0.272748 -3.87441 0
M  V30 30496 H 2906.44 -0.47355 -4.0192 0
M  V30 30497 H 2903.19 -2.49271 -4.02692 0
M  V30 30498 H 2903.62 -5.074 -4.4819 0
M  V30 30499 H 2908.26 -2.33217 -3.52661 0
M  V30 30500 H 2905.98 -6.65804 -4.57963 0
M  V30 30501 H 2909.56 -4.41778 -3.78581 0
M  V30 30502 H 2908.44 -6.55302 -4.30754 0
M  V30 30503 N 2905.94 1.41194 -0.700139 0
M  V30 30504 C 2907.17 2.05998 -0.240741 0
M  V30 30505 C 2907.59 1.52359 1.1031 0
M  V30 30506 O 2906.95 0.652454 1.69153 0
M  V30 30507 C 2907 3.59965 -0.213846 0
M  V30 30508 O 2906.1 4.0437 0.809862 0
M  V30 30509 H 2905.45 0.653703 -0.116482 0
M  V30 30510 H 2907.98 1.80877 -0.956283 0
M  V30 30511 H 2907.99 4.07974 -0.0462569 0
M  V30 30512 H 2906.66 3.98374 -1.19461 0
M  V30 30513 H 2905.24 3.67856 0.611255 0
M  V30 30514 N 2907.42 0.445212 1.51181 0
M  V30 30515 C 2908.37 -0.36225 2.27939 0
M  V30 30516 C 2909.34 -1.00998 1.31866 0
M  V30 30517 O 2910.52 -1.02738 1.60778 0
M  V30 30518 C 2907.66 -1.45305 3.13018 0
M  V30 30519 C 2906.78 -0.822682 4.24094 0
M  V30 30520 C 2905.91 -1.8892 4.9647 0
M  V30 30521 C 2904.95 -1.23768 5.99456 0
M  V30 30522 N 2904.09 -2.2459 6.6521 0
M  V30 30523 H 2908.93 0.298672 2.96499 0
M  V30 30524 H 2906.47 0.159136 1.46237 0
M  V30 30525 H 2908.42 -2.09686 3.60677 0
M  V30 30526 H 2907.05 -2.0835 2.46557 0
M  V30 30527 H 2906.11 -0.0669696 3.80341 0
M  V30 30528 H 2907.42 -0.307096 4.97854 0
M  V30 30529 H 2906.57 -2.60943 5.47717 0
M  V30 30530 H 2905.31 -2.43853 4.22359 0
M  V30 30531 H 2904.32 -0.502945 5.47495 0
M  V30 30532 H 2905.54 -0.695575 6.75528 0
M  V30 30533 H 2903.49 -2.78589 5.93906 0
M  V30 30534 H 2903.4 -1.77945 7.3476 0
M  V30 30535 H 2904.67 -2.96073 7.21083 0
M  V30 30536 N 2908.9 -1.56605 0.176849 0
M  V30 30537 C 2910.15 -1.96224 -0.466799 0
M  V30 30538 C 2910.46 -1.06579 -1.64013 0
M  V30 30539 O 2911.67 -1.35902 -2.35038 0
M  V30 30540 C 2910.12 -3.48929 -0.881859 0
M  V30 30541 C 2909.73 -4.47209 0.266181 0
M  V30 30542 C 2911.48 -3.97356 -1.49361 0
M  V30 30543 C 2909.38 -5.91159 -0.16882 0
M  V30 30544 H 2908.31 -0.732648 -0.178165 0
M  V30 30545 H 2910.96 -1.81562 0.265961 0
M  V30 30546 H 2909.35 -3.59029 -1.67076 0
M  V30 30547 H 2910.52 -4.48828 1.04357 0
M  V30 30548 H 2908.84 -4.08871 0.78825 0
M  V30 30549 H 2911.43 -5.02365 -1.83121 0
M  V30 30550 H 2911.78 -3.4061 -2.39354 0
M  V30 30551 H 2912.31 -3.90295 -0.769046 0
M  V30 30552 H 2909.05 -6.5179 0.696465 0
M  V30 30553 H 2908.57 -5.92834 -0.911448 0
M  V30 30554 H 2910.25 -6.4411 -0.610825 0
M  V30 30555 N 2910.38 0.0968524 -1.57302 0
M  V30 30556 C 2911.79 0.651565 -1.74961 0
M  V30 30557 C 2912.14 1.79204 -0.798777 0
M  V30 30558 O 2911.27 2.16388 0.0231478 0
M  V30 30559 C 2911.86 1.18873 -3.17261 0
M  V30 30560 C 2910.42 1.68952 -3.36351 0
M  V30 30561 C 2909.57 0.598365 -2.70767 0
M  V30 30562 H 2912.52 -0.129208 -1.58173 0
M  V30 30563 H 2912.54 2.05808 -3.20036 0
M  V30 30564 H 2912.05 0.358455 -3.86441 0
M  V30 30565 H 2910.15 2.54385 -2.72248 0
M  V30 30566 H 2910.26 1.78372 -4.44657 0
M  V30 30567 H 2908.63 1.03739 -2.32616 0
M  V30 30568 H 2909.41 -0.221298 -3.42586 0
M  V30 30569 N 2911.86 1.53252 0.36763 0
M  V30 30570 C 2913.1 1.69586 1.11213 0
M  V30 30571 C 2913.44 0.445302 1.89026 0
M  V30 30572 O 2912.71 -0.557371 1.86343 0
M  V30 30573 C 2912.99 2.94444 2.07303 0
M  V30 30574 C 2912.85 4.29652 1.33113 0
M  V30 30575 C 2914.17 3.14898 3.07453 0
M  V30 30576 H 2911.28 0.617104 0.40293 0
M  V30 30577 H 2913.93 1.85888 0.393169 0
M  V30 30578 H 2912.08 2.80677 2.68612 0
M  V30 30579 H 2913.75 4.55227 0.746031 0
M  V30 30580 H 2911.99 4.29157 0.632976 0
M  V30 30581 H 2912.66 5.13146 2.03434 0
M  V30 30582 H 2915.14 3.27837 2.56246 0
M  V30 30583 H 2914.01 4.03699 3.71911 0
M  V30 30584 H 2914.28 2.30084 3.7751 0
M  V30 30585 N 2913.34 -0.627313 1.44577 0
M  V30 30586 C 2914.27 -1.7502 1.54565 0
M  V30 30587 C 2915.25 -1.65368 0.398407 0
M  V30 30588 O 2916.43 -1.8407 0.619022 0
M  V30 30589 C 2913.56 -3.13564 1.49315 0
M  V30 30590 C 2912.52 -3.38008 2.62555 0
M  V30 30591 C 2911.84 -4.76621 2.42356 0
M  V30 30592 C 2913.14 -3.30195 4.04684 0
M  V30 30593 H 2914.84 -1.66918 2.48553 0
M  V30 30594 H 2912.38 -0.801615 1.19625 0
M  V30 30595 H 2914.33 -3.91897 1.54902 0
M  V30 30596 H 2913.06 -3.22459 0.518449 0
M  V30 30597 H 2911.72 -2.62057 2.56363 0
M  V30 30598 H 2911.37 -4.82224 1.4307 0
M  V30 30599 H 2911.07 -4.93934 3.18282 0
M  V30 30600 H 2912.59 -5.57179 2.49768 0
M  V30 30601 H 2914 -3.98427 4.12224 0
M  V30 30602 H 2912.4 -3.59041 4.80842 0
M  V30 30603 H 2913.47 -2.27941 4.27984 0
M  V30 30604 N 2914.81 -1.31539 -0.868063 0
M  V30 30605 C 2915.75 -1.13679 -1.97869 0
M  V30 30606 C 2916.72 -0.0397875 -1.62551 0
M  V30 30607 O 2917.91 -0.196572 -1.87472 0
M  V30 30608 C 2915.04 -0.737398 -3.30575 0
M  V30 30609 C 2914.08 -1.83772 -3.84877 0
M  V30 30610 S 2914.91 -3.44352 -4.101 0
M  V30 30611 C 2916.07 -3.06354 -5.458 0
M  V30 30612 H 2916.3 -2.07701 -2.12715 0
M  V30 30613 H 2913.84 -1.16046 -1.01847 0
M  V30 30614 H 2915.79 -0.513712 -4.07273 0
M  V30 30615 H 2914.46 0.183731 -3.13562 0
M  V30 30616 H 2913.65 -1.51094 -4.80819 0
M  V30 30617 H 2913.25 -2.01656 -3.14977 0
M  V30 30618 H 2915.54 -2.55365 -6.27531 0
M  V30 30619 H 2916.49 -4.01267 -5.8343 0
M  V30 30620 H 2916.89 -2.43743 -5.09165 0
M  V30 30621 N 2916.29 1.08262 -1.1453 0
M  V30 30622 C 2917.2 2.18764 -0.847318 0
M  V30 30623 C 2918.22 1.7314 0.172795 0
M  V30 30624 O 2919.39 2.014 0.000949935 0
M  V30 30625 C 2916.46 3.45119 -0.330693 0
M  V30 30626 C 2915.52 4.05361 -1.41355 0
M  V30 30627 C 2914.75 5.25685 -0.92148 0
M  V30 30628 O 2914.98 5.6991 0.236487 0
M  V30 30629 O 2913.91 5.77361 -1.70111 0
M  V30 30630 H 2917.74 2.46728 -1.77085 0
M  V30 30631 H 2915.32 1.17424 -0.923682 0
M  V30 30632 H 2917.2 4.21372 -0.0485793 0
M  V30 30633 H 2915.88 3.18729 0.565091 0
M  V30 30634 H 2914.78 3.3069 -1.74914 0
M  V30 30635 H 2916.12 4.36003 -2.28391 0
M  V30 30636 N 2917.77 0.940655 1.26449 0
M  V30 30637 C 2918.68 0.455922 2.30127 0
M  V30 30638 C 2919.7 -0.469837 1.67537 0
M  V30 30639 O 2920.87 -0.349494 1.98344 0
M  V30 30640 C 2917.94 -0.271587 3.45635 0
M  V30 30641 C 2917 0.690668 4.23708 0
M  V30 30642 C 2916.23 -0.00221666 5.337 0
M  V30 30643 O 2916.45 -1.21925 5.57217 0
M  V30 30644 O 2915.39 0.676216 5.98089 0
M  V30 30645 H 2919.21 1.31712 2.73652 0
M  V30 30646 H 2916.8 0.70652 1.31638 0
M  V30 30647 H 2918.68 -0.681413 4.15854 0
M  V30 30648 H 2917.36 -1.10818 3.0414 0
M  V30 30649 H 2916.26 1.15043 3.55972 0
M  V30 30650 H 2917.6 1.49486 4.68951 0
M  V30 30651 N 2919.25 -1.40821 0.707617 0
M  V30 30652 C 2920.19 -2.30746 0.0499435 0
M  V30 30653 C 2921.16 -1.4776 -0.758692 0
M  V30 30654 O 2922.35 -1.76519 -0.724268 0
M  V30 30655 C 2919.49 -3.33909 -0.871698 0
M  V30 30656 C 2918.6 -4.31967 -0.0533896 0
M  V30 30657 C 2917.74 -5.22198 -0.973777 0
M  V30 30658 C 2916.78 -6.11918 -0.149087 0
M  V30 30659 N 2915.91 -6.94594 -1.02392 0
M  V30 30660 H 2920.75 -2.86424 0.822512 0
M  V30 30661 H 2918.29 -1.41057 0.417309 0
M  V30 30662 H 2920.25 -3.92283 -1.42021 0
M  V30 30663 H 2918.88 -2.79753 -1.61053 0
M  V30 30664 H 2917.93 -3.75441 0.612208 0
M  V30 30665 H 2919.24 -4.95352 0.585441 0
M  V30 30666 H 2918.4 -5.85465 -1.59111 0
M  V30 30667 H 2917.14 -4.59068 -1.64644 0
M  V30 30668 H 2916.14 -5.4769 0.481234 0
M  V30 30669 H 2917.37 -6.77107 0.51996 0
M  V30 30670 H 2915.31 -6.3406 -1.68238 0
M  V30 30671 H 2915.23 -7.54713 -0.440944 0
M  V30 30672 H 2916.5 -7.62317 -1.62768 0
M  V30 30673 N 2920.73 -0.453223 -1.50943 0
M  V30 30674 C 2921.66 0.340399 -2.31005 0
M  V30 30675 C 2922.64 1.00667 -1.37114 0
M  V30 30676 O 2923.82 1.00727 -1.66035 0
M  V30 30677 C 2920.95 1.43295 -3.1636 0
M  V30 30678 C 2919.91 0.889289 -4.18659 0
M  V30 30679 C 2919.23 2.07879 -4.92636 0
M  V30 30680 C 2920.53 -0.087206 -5.22227 0
M  V30 30681 H 2922.23 -0.327775 -2.976 0
M  V30 30682 H 2919.77 -0.159079 -1.43119 0
M  V30 30683 H 2921.72 1.99549 -3.71158 0
M  V30 30684 H 2920.45 2.12964 -2.47617 0
M  V30 30685 H 2919.11 0.348851 -3.64936 0
M  V30 30686 H 2918.76 2.76204 -4.20381 0
M  V30 30687 H 2918.46 1.72133 -5.61822 0
M  V30 30688 H 2919.98 2.64656 -5.50263 0
M  V30 30689 H 2921.39 0.385555 -5.72002 0
M  V30 30690 H 2919.79 -0.358031 -5.99031 0
M  V30 30691 H 2920.86 -1.01887 -4.74075 0
M  V30 30692 N 2922.2 1.56509 -0.185151 0
M  V30 30693 C 2923.45 1.97294 0.456223 0
M  V30 30694 C 2923.78 1.07168 1.62313 0
M  V30 30695 O 2923.03 0.108655 1.95398 0
M  V30 30696 C 2923.33 3.44044 0.967916 0
M  V30 30697 C 2923 4.50821 -0.0845552 0
M  V30 30698 C 2921.66 4.79746 -0.373774 0
M  V30 30699 C 2924.01 5.15051 -0.79821 0
M  V30 30700 C 2921.34 5.70196 -1.3818 0
M  V30 30701 C 2923.69 6.0659 -1.79531 0
M  V30 30702 C 2922.36 6.33876 -2.09183 0
M  V30 30703 H 2921.63 0.721949 0.166944 0
M  V30 30704 H 2924.27 1.89442 -0.280026 0
M  V30 30705 H 2922.58 3.48917 1.78225 0
M  V30 30706 H 2924.28 3.7295 1.4734 0
M  V30 30707 H 2920.87 4.28334 0.151035 0
M  V30 30708 H 2925.05 4.92805 -0.58799 0
M  V30 30709 H 2920.31 5.89614 -1.61756 0
M  V30 30710 H 2924.48 6.55423 -2.35359 0
M  V30 30711 H 2922.11 7.03763 -2.87439 0
M  V30 30712 N 2923.68 -0.0885089 1.57351 0
M  V30 30713 C 2924.64 -1.09117 2.01559 0
M  V30 30714 C 2925.64 -1.32568 0.910076 0
M  V30 30715 O 2926.83 -1.2857 1.17539 0
M  V30 30716 C 2923.97 -2.43878 2.38194 0
M  V30 30717 H 2925.16 -0.71051 2.91362 0
M  V30 30718 H 2922.71 -0.333752 1.52695 0
M  V30 30719 H 2923.45 -2.86808 1.51365 0
M  V30 30720 H 2923.23 -2.28203 3.1885 0
M  V30 30721 H 2924.72 -3.15981 2.7303 0
M  V30 30722 N 2925.16 -1.53445 -0.359498 0
M  V30 30723 C 2926.41 -1.69922 -1.10149 0
M  V30 30724 C 2926.73 -0.454133 -1.89124 0
M  V30 30725 O 2925.99 0.56399 -1.87397 0
M  V30 30726 C 2926.29 -2.90436 -2.08282 0
M  V30 30727 C 2925.95 -4.26697 -1.45741 0
M  V30 30728 C 2924.62 -4.63749 -1.28413 0
M  V30 30729 C 2926.97 -5.11409 -1.00548 0
M  V30 30730 C 2924.3 -5.83145 -0.644849 0
M  V30 30731 C 2926.65 -6.31457 -0.380177 0
M  V30 30732 C 2925.31 -6.67217 -0.19444 0
M  V30 30733 H 2924.58 -0.621788 -0.403065 0
M  V30 30734 H 2927.23 -1.87639 -0.382579 0
M  V30 30735 H 2925.53 -2.67256 -2.86499 0
M  V30 30736 H 2927.23 -3.00379 -2.65657 0
M  V30 30737 H 2923.82 -3.97526 -1.60223 0
M  V30 30738 H 2928.01 -4.83328 -1.12727 0
M  V30 30739 H 2923.26 -6.09438 -0.489413 0
M  V30 30740 H 2927.44 -6.96397 -0.0218231 0
M  V30 30741 H 2925.06 -7.59596 0.302983 0
M  V30 30742 N 2926.64 0.619637 -1.44908 0
M  V30 30743 C 2927.91 1.3785 -1.38769 0
M  V30 30744 C 2928.29 2.11036 -0.0521764 0
M  V30 30745 O 2927.64 2.07096 0.965577 0
M  V30 30746 C 2927.85 2.33537 -2.59348 0
M  V30 30747 C 2929.2 2.96516 -3.03914 0
M  V30 30748 O 2930.22 2.4386 -2.59635 0
M  V30 30749 O 2929.08 3.92065 -3.8072 0
M  V30 30750 H 2926.18 0.617516 -0.550094 0
M  V30 30751 H 2928.72 0.643731 -1.57017 0
M  V30 30752 H 2927.5 1.78635 -3.48145 0
M  V30 30753 H 2927.12 3.14413 -2.43373 0
M  V30 30754 N 2928.12 1.31997 0.861075 0
M  V30 30755 C 2929.35 1.24995 1.64499 0
M  V30 30756 C 2929.75 -0.185542 1.88288 0
M  V30 30757 O 2929.1 -1.13097 1.44758 0
M  V30 30758 C 2929.16 1.93324 3.03094 0
M  V30 30759 C 2928.82 3.42663 3.02375 0
M  V30 30760 C 2929.82 4.38259 2.79688 0
M  V30 30761 C 2927.51 3.84497 3.23214 0
M  V30 30762 C 2929.5 5.73662 2.77833 0
M  V30 30763 C 2927.19 5.2001 3.20987 0
M  V30 30764 C 2928.18 6.14404 2.98324 0
M  V30 30765 O 2927.87 7.47438 2.95958 0
M  V30 30766 H 2927.6 0.432784 0.519302 0
M  V30 30767 H 2930.16 1.74567 1.08238 0
M  V30 30768 H 2928.39 1.38312 3.61119 0
M  V30 30769 H 2930.08 1.80117 3.63748 0
M  V30 30770 H 2930.84 4.07266 2.63361 0
M  V30 30771 H 2926.72 3.11451 3.39882 0
M  V30 30772 H 2930.27 6.47312 2.60063 0
M  V30 30773 H 2926.16 5.50635 3.36856 0
M  V30 30774 H 2926.93 7.5672 3.11957 0
M  V30 30775 N 2929.59 -1.07653 1.15103 0
M  V30 30776 C 2930.82 -1.83916 0.947763 0
M  V30 30777 C 2931.24 -1.81951 -0.503895 0
M  V30 30778 O 2930.59 -1.22873 -1.34939 0
M  V30 30779 C 2930.65 -3.3113 1.45035 0
M  V30 30780 O 2930.37 -3.33141 2.84514 0
M  V30 30781 C 2931.87 -4.24172 1.28814 0
M  V30 30782 H 2929.09 -0.580352 0.336797 0
M  V30 30783 H 2931.63 -1.35912 1.52801 0
M  V30 30784 H 2929.79 -3.76495 0.912698 0
M  V30 30785 H 2930.2 -4.25095 3.07237 0
M  V30 30786 H 2931.67 -5.25548 1.68829 0
M  V30 30787 H 2932.15 -4.38587 0.231928 0
M  V30 30788 H 2932.76 -3.8464 1.81472 0
M  V30 30789 N 2931.07 -0.947348 -1.25949 0
M  V30 30790 C 2932.32 -0.59703 -1.9308 0
M  V30 30791 C 2932.64 0.867641 -1.74634 0
M  V30 30792 O 2931.91 1.61718 -1.10562 0
M  V30 30793 H 2930.49 -0.217817 -0.714538 0
M  V30 30794 H 2933.15 -1.20401 -1.53263 0
M  V30 30795 H 2932.25 -0.820093 -3.01133 0
M  V30 30796 N 2932.55 1.40444 -0.715075 0
M  V30 30797 C 2933.78 2.04911 -0.263612 0
M  V30 30798 C 2934.19 1.5398 1.0994 0
M  V30 30799 O 2933.53 0.691163 1.70202 0
M  V30 30800 C 2933.59 3.59121 -0.165111 0
M  V30 30801 C 2933.26 4.32938 -1.46333 0
M  V30 30802 C 2934.25 4.60922 -2.40514 0
M  V30 30803 C 2931.94 4.71857 -1.72211 0
M  V30 30804 C 2933.93 5.26808 -3.58821 0
M  V30 30805 C 2931.62 5.37475 -2.90799 0
M  V30 30806 C 2932.62 5.6488 -3.83926 0
M  V30 30807 O 2932.31 6.29142 -5.00435 0
M  V30 30808 H 2932.04 0.665916 -0.116328 0
M  V30 30809 H 2934.59 1.80848 -0.973806 0
M  V30 30810 H 2932.82 3.82001 0.601021 0
M  V30 30811 H 2934.51 4.05119 0.251723 0
M  V30 30812 H 2935.28 4.31319 -2.21785 0
M  V30 30813 H 2931.16 4.49894 -1.00579 0
M  V30 30814 H 2934.7 5.48115 -4.31527 0
M  V30 30815 H 2930.6 5.66497 -3.09438 0
M  V30 30816 H 2931.37 6.47639 -5.00506 0
M  V30 30817 N 2934.03 0.461222 1.507 0
M  V30 30818 C 2935.31 -0.158262 1.94959 0
M  V30 30819 C 2935.69 -1.57897 1.40114 0
M  V30 30820 O 2935.03 -2.20536 0.598015 0
M  V30 30821 C 2935.24 -0.111659 3.48821 0
M  V30 30822 C 2936.59 -0.305445 4.235 0
M  V30 30823 O 2937.62 -0.188696 3.557 0
M  V30 30824 O 2936.47 -0.540148 5.43824 0
M  V30 30825 H 2933.57 -0.117039 0.818676 0
M  V30 30826 H 2936.11 0.520917 1.61507 0
M  V30 30827 H 2934.89 0.880644 3.81262 0
M  V30 30828 H 2934.51 -0.832723 3.88782 0
M  V30 30829 N 2935.51 -1.56408 0.193449 0
M  V30 30830 C 2936.47 -2.17784 -0.714332 0
M  V30 30831 C 2937.47 -1.13185 -1.14218 0
M  V30 30832 O 2938.66 -1.38578 -1.05554 0
M  V30 30833 C 2935.79 -2.77858 -1.97504 0
M  V30 30834 H 2936.98 -2.99361 -0.179662 0
M  V30 30835 H 2934.54 -1.56199 -0.056167 0
M  V30 30836 H 2935.27 -2.00075 -2.55226 0
M  V30 30837 H 2935.06 -3.54428 -1.677 0
M  V30 30838 H 2936.55 -3.24992 -2.62241 0
M  V30 30839 N 2936.98 0.0801629 -1.57396 0
M  V30 30840 C 2938.21 0.797875 -1.91439 0
M  V30 30841 C 2938.63 1.70748 -0.789105 0
M  V30 30842 O 2937.99 1.79447 0.258539 0
M  V30 30843 C 2938.04 1.57461 -3.24405 0
M  V30 30844 O 2937.14 2.68468 -3.13047 0
M  V30 30845 H 2936.49 0.218232 -0.627113 0
M  V30 30846 H 2939.02 0.0509131 -2.04537 0
M  V30 30847 H 2939.03 1.95565 -3.58076 0
M  V30 30848 H 2937.7 0.907157 -4.05886 0
M  V30 30849 H 2936.28 2.33282 -2.90919 0
M  V30 30850 N 2938.46 1.53634 0.351355 0
M  V30 30851 C 2939.39 1.84057 1.43684 0
M  V30 30852 C 2940.37 0.6951 1.55249 0
M  V30 30853 O 2941.56 0.946287 1.69585 0
M  V30 30854 C 2938.69 2.0432 2.80839 0
M  V30 30855 C 2937.64 3.20122 2.84088 0
M  V30 30856 C 2936.97 3.25703 4.24054 0
M  V30 30857 C 2938.27 4.58404 2.50326 0
M  V30 30858 H 2939.96 2.74963 1.18473 0
M  V30 30859 H 2937.51 1.32304 0.568486 0
M  V30 30860 H 2939.46 2.24187 3.56817 0
M  V30 30861 H 2938.19 1.10137 3.07469 0
M  V30 30862 H 2936.84 3.00098 2.10563 0
M  V30 30863 H 2936.49 2.29131 4.47781 0
M  V30 30864 H 2936.19 4.03516 4.2714 0
M  V30 30865 H 2937.72 3.47771 5.01884 0
M  V30 30866 H 2939.13 4.78337 3.16017 0
M  V30 30867 H 2937.53 5.38563 2.64708 0
M  V30 30868 H 2938.6 4.62545 1.45534 0
M  V30 30869 N 2939.94 -0.611943 1.45234 0
M  V30 30870 C 2941.17 -1.40272 1.5277 0
M  V30 30871 C 2941.59 -1.87421 0.159734 0
M  V30 30872 O 2940.95 -1.59883 -0.854808 0
M  V30 30873 C 2941 -2.58622 2.51291 0
M  V30 30874 O 2940.1 -3.59107 2.0277 0
M  V30 30875 H 2939.44 -0.418949 0.515148 0
M  V30 30876 H 2941.97 -0.745154 1.90548 0
M  V30 30877 H 2941.98 -3.05922 2.69955 0
M  V30 30878 H 2940.66 -2.23653 3.50645 0
M  V30 30879 H 2939.23 -3.18485 1.93963 0
M  V30 30880 N 2941.42 -1.32452 -0.854063 0
M  V30 30881 C 2942.83 -1.20714 -1.42425 0
M  V30 30882 C 2943.18 0.180096 -1.95372 0
M  V30 30883 O 2942.31 1.07886 -1.87589 0
M  V30 30884 C 2942.9 -2.1854 -2.58893 0
M  V30 30885 C 2941.46 -2.10688 -3.11909 0
M  V30 30886 C 2940.61 -2.06874 -1.84658 0
M  V30 30887 H 2943.56 -1.44272 -0.661167 0
M  V30 30888 H 2943.58 -1.78428 -3.36071 0
M  V30 30889 H 2943.09 -3.19496 -2.20327 0
M  V30 30890 H 2941.19 -1.12983 -3.55057 0
M  V30 30891 H 2941.3 -3.00538 -3.73113 0
M  V30 30892 H 2939.67 -1.52122 -2.04282 0
M  V30 30893 H 2940.45 -3.09612 -1.48308 0
M  V30 30894 N 2942.9 1.07041 -1.15672 0
M  V30 30895 C 2943.86 2.12497 -0.858943 0
M  V30 30896 C 2944.86 1.60165 0.142707 0
M  V30 30897 O 2946.05 1.73981 -0.0872984 0
M  V30 30898 C 2943.18 3.39723 -0.28308 0
M  V30 30899 H 2944.38 2.40345 -1.79372 0
M  V30 30900 H 2941.93 1.22982 -0.964629 0
M  V30 30901 H 2942.66 3.17518 0.65974 0
M  V30 30902 H 2942.45 3.79009 -1.00473 0
M  V30 30903 H 2943.94 4.17498 -0.0924277 0
M  V30 30904 N 2944.38 0.954014 1.25445 0
M  V30 30905 C 2945.62 0.618922 1.93755 0
M  V30 30906 C 2945.98 -0.834809 1.73346 0
M  V30 30907 O 2945.27 -1.59103 1.06756 0
M  V30 30908 C 2945.46 0.912557 3.45553 0
M  V30 30909 C 2945.29 2.39328 3.80726 0
M  V30 30910 C 2944.06 3.05073 4.02814 0
M  V30 30911 C 2946.26 3.37258 3.8828 0
M  V30 30912 N 2944.24 4.43024 4.24974 0
M  V30 30913 C 2945.61 4.60515 4.15122 0
M  V30 30914 C 2947.67 3.32105 3.70959 0
M  V30 30915 C 2946.37 5.79257 4.26444 0
M  V30 30916 C 2948.4 4.50185 3.8352 0
M  V30 30917 C 2947.76 5.72228 4.10773 0
M  V30 30918 H 2943.86 0.277081 0.731266 0
M  V30 30919 H 2946.44 1.22606 1.51247 0
M  V30 30920 H 2944.61 0.334352 3.86958 0
M  V30 30921 H 2946.35 0.537432 4.01116 0
M  V30 30922 H 2943.1 2.55646 3.98675 0
M  V30 30923 H 2943.52 5.14466 4.40061 0
M  V30 30924 H 2948.17 2.38798 3.48906 0
M  V30 30925 H 2945.88 6.73006 4.47313 0
M  V30 30926 H 2949.47 4.47745 3.71505 0
M  V30 30927 H 2948.35 6.62072 4.20274 0
M  V30 30928 N 2945.85 -1.40063 0.722513 0
M  V30 30929 C 2947.1 -2.00758 0.265014 0
M  V30 30930 C 2947.43 -1.57304 -1.14393 0
M  V30 30931 O 2946.68 -0.78733 -1.79164 0
M  V30 30932 C 2946.98 -3.56132 0.300745 0
M  V30 30933 C 2946.65 -4.19194 1.66095 0
M  V30 30934 C 2945.31 -4.36133 2.03327 0
M  V30 30935 C 2947.66 -4.54301 2.5546 0
M  V30 30936 C 2944.99 -4.85464 3.29456 0
M  V30 30937 C 2947.34 -5.05036 3.80948 0
M  V30 30938 C 2946.01 -5.20183 4.18289 0
M  V30 30939 H 2945.28 -0.734627 0.0969754 0
M  V30 30940 H 2947.92 -1.67573 0.926906 0
M  V30 30941 H 2946.23 -3.89268 -0.444722 0
M  V30 30942 H 2947.93 -4.00937 -0.0711837 0
M  V30 30943 H 2944.52 -4.06402 1.36144 0
M  V30 30944 H 2948.7 -4.40845 2.27968 0
M  V30 30945 H 2943.96 -4.95376 3.58347 0
M  V30 30946 H 2948.13 -5.31176 4.50361 0
M  V30 30947 H 2945.76 -5.5817 5.16091 0
M  V30 30948 N 2947.33 -0.469207 -1.50453 0
M  V30 30949 C 2948.24 0.331308 -2.32249 0
M  V30 30950 C 2949.26 0.997782 -1.42549 0
M  V30 30951 O 2950.43 0.986169 -1.75604 0
M  V30 30952 C 2947.5 1.40007 -3.17173 0
M  V30 30953 C 2946.56 0.750389 -4.22691 0
M  V30 30954 C 2945.79 1.76822 -5.03557 0
M  V30 30955 O 2946.02 2.99451 -4.85474 0
M  V30 30956 O 2944.95 1.34109 -5.86769 0
M  V30 30957 H 2948.78 -0.337332 -3.01821 0
M  V30 30958 H 2946.36 -0.231092 -1.47602 0
M  V30 30959 H 2948.24 2.01918 -3.69875 0
M  V30 30960 H 2946.92 2.05221 -2.50332 0
M  V30 30961 H 2945.82 0.0923789 -3.73986 0
M  V30 30962 H 2947.16 0.141223 -4.91997 0
M  V30 30963 N 2948.81 1.56303 -0.201741 0
M  V30 30964 C 2949.77 2.1816 0.702773 0
M  V30 30965 C 2950.77 1.13789 1.13617 0
M  V30 30966 O 2951.96 1.39136 1.04818 0
M  V30 30967 C 2949.09 2.78902 1.96027 0
M  V30 30968 H 2950.29 2.99452 0.163783 0
M  V30 30969 H 2947.84 1.56227 0.0478825 0
M  V30 30970 H 2948.58 2.01426 2.54162 0
M  V30 30971 H 2948.36 3.55312 1.65818 0
M  V30 30972 H 2949.85 3.26378 2.60513 0
M  V30 30973 N 2950.29 -0.0718147 1.57436 0
M  V30 30974 C 2951.22 -1.08567 2.06726 0
M  V30 30975 C 2952.2 -1.40369 0.960756 0
M  V30 30976 O 2953.38 -1.49997 1.23348 0
M  V30 30977 C 2950.51 -2.39912 2.51117 0
M  V30 30978 C 2949.47 -2.22462 3.65643 0
M  V30 30979 C 2948.79 -3.59191 3.96089 0
M  V30 30980 C 2950.09 -1.64587 4.9569 0
M  V30 30981 H 2951.79 -0.675518 2.9168 0
M  V30 30982 H 2949.33 -0.323496 1.40319 0
M  V30 30983 H 2951.29 -3.1113 2.84211 0
M  V30 30984 H 2950.01 -2.82907 1.63191 0
M  V30 30985 H 2948.67 -1.53685 3.32831 0
M  V30 30986 H 2948.32 -3.99756 3.05294 0
M  V30 30987 H 2948.02 -3.48354 4.73205 0
M  V30 30988 H 2949.54 -4.31839 4.31679 0
M  V30 30989 H 2950.96 -2.25671 5.27015 0
M  V30 30990 H 2949.35 -1.64447 5.77128 0
M  V30 30991 H 2950.42 -0.607355 4.81081 0
M  V30 30992 N 2951.77 -1.53818 -0.343203 0
M  V30 30993 C 2952.71 -1.8183 -1.4215 0
M  V30 30994 C 2953.68 -0.664023 -1.5225 0
M  V30 30995 O 2954.87 -0.908491 -1.67783 0
M  V30 30996 C 2952.01 -2.03389 -2.78796 0
M  V30 30997 C 2951.12 -3.31099 -2.77484 0
M  V30 30998 C 2950.26 -3.42724 -4.0585 0
M  V30 30999 C 2949.29 -4.64382 -3.98768 0
M  V30 31000 N 2948.43 -4.73038 -5.18825 0
M  V30 31001 H 2953.27 -2.73831 -1.17562 0
M  V30 31002 H 2950.81 -1.35629 -0.569482 0
M  V30 31003 H 2952.77 -2.13878 -3.58207 0
M  V30 31004 H 2951.4 -1.14701 -3.01734 0
M  V30 31005 H 2950.45 -3.2945 -1.90176 0
M  V30 31006 H 2951.76 -4.20605 -2.68129 0
M  V30 31007 H 2950.91 -3.52647 -4.93685 0
M  V30 31008 H 2949.65 -2.51275 -4.17986 0
M  V30 31009 H 2948.66 -4.54536 -3.09317 0
M  V30 31010 H 2949.88 -5.57195 -3.88214 0
M  V30 31011 H 2947.83 -3.84499 -5.31504 0
M  V30 31012 H 2947.75 -5.56481 -5.11728 0
M  V30 31013 H 2949.01 -4.87271 -6.0843 0
M  V30 31014 N 2953.24 0.604233 -1.45557 0
M  V30 31015 C 2954.18 1.72861 -1.48978 0
M  V30 31016 C 2955.15 1.5888 -0.345831 0
M  V30 31017 O 2956.34 1.80394 -0.546828 0
M  V30 31018 C 2953.47 3.1072 -1.34799 0
M  V30 31019 C 2952.51 3.43281 -2.53102 0
M  V30 31020 S 2953.34 3.37746 -4.15557 0
M  V30 31021 C 2954.5 4.7818 -4.0385 0
M  V30 31022 H 2954.73 1.69697 -2.44111 0
M  V30 31023 H 2952.27 0.781171 -1.33181 0
M  V30 31024 H 2954.22 3.9026 -1.27307 0
M  V30 31025 H 2952.89 3.11395 -0.411309 0
M  V30 31026 H 2952.08 4.43666 -2.39117 0
M  V30 31027 H 2951.68 2.71262 -2.57474 0
M  V30 31028 H 2953.97 5.68064 -3.69201 0
M  V30 31029 H 2954.92 4.97222 -5.04159 0
M  V30 31030 H 2955.32 4.54019 -3.35451 0
M  V30 31031 N 2954.72 1.32903 0.847027 0
M  V30 31032 C 2955.97 1.24081 1.60411 0
M  V30 31033 C 2956.3 -0.195071 1.93218 0
M  V30 31034 O 2955.58 -1.13425 1.58003 0
M  V30 31035 C 2955.86 2.10805 2.91947 0
M  V30 31036 C 2955.71 3.6281 2.65874 0
M  V30 31037 C 2957.03 1.97501 3.93295 0
M  V30 31038 H 2954.15 0.452089 0.582052 0
M  V30 31039 H 2956.79 1.62924 0.977534 0
M  V30 31040 H 2954.94 1.77808 3.45422 0
M  V30 31041 H 2956.61 4.06058 2.18894 0
M  V30 31042 H 2954.86 3.85096 1.99709 0
M  V30 31043 H 2955.53 4.18826 3.59567 0
M  V30 31044 H 2958 2.26423 3.49101 0
M  V30 31045 H 2956.88 2.60446 4.83176 0
M  V30 31046 H 2957.14 0.944858 4.31885 0
M  V30 31047 N 2956.2 -1.06426 1.16238 0
M  V30 31048 C 2957.13 -2.15838 0.890845 0
M  V30 31049 C 2958.11 -1.69324 -0.162303 0
M  V30 31050 O 2959.3 -1.94194 -0.014685 0
M  V30 31051 C 2956.43 -3.45107 0.389675 0
M  V30 31052 C 2955.38 -4.05122 1.38058 0
M  V30 31053 C 2954.71 -5.29584 0.737867 0
M  V30 31054 C 2956.01 -4.44058 2.74973 0
M  V30 31055 H 2957.7 -2.38811 1.80582 0
M  V30 31056 H 2955.25 -1.14772 0.869677 0
M  V30 31057 H 2957.2 -4.20984 0.187201 0
M  V30 31058 H 2955.92 -3.21749 -0.560794 0
M  V30 31059 H 2954.58 -3.313 1.56958 0
M  V30 31060 H 2954.23 -5.02523 -0.219047 0
M  V30 31061 H 2953.93 -5.70697 1.39924 0
M  V30 31062 H 2955.45 -6.08159 0.545381 0
M  V30 31063 H 2956.87 -5.11022 2.59864 0
M  V30 31064 H 2955.26 -4.9615 3.37572 0
M  V30 31065 H 2956.33 -3.54982 3.30327 0
M  V30 31066 N 2957.68 -0.960653 -1.24937 0
M  V30 31067 C 2958.59 -0.492475 -2.29373 0
M  V30 31068 C 2959.6 0.443124 -1.68263 0
M  V30 31069 O 2960.78 0.317895 -1.98875 0
M  V30 31070 C 2957.85 0.216566 -3.46023 0
M  V30 31071 C 2956.91 -0.757989 -4.22555 0
M  V30 31072 C 2956.14 -0.0826907 -5.33636 0
M  V30 31073 O 2956.36 1.13045 -5.59086 0
M  V30 31074 O 2955.3 -0.771282 -5.96938 0
M  V30 31075 H 2959.12 -1.36049 -2.71522 0
M  V30 31076 H 2956.71 -0.727373 -1.30498 0
M  V30 31077 H 2958.59 0.615168 -4.16886 0
M  V30 31078 H 2957.26 1.05966 -3.05864 0
M  V30 31079 H 2956.17 -1.20692 -3.54097 0
M  V30 31080 H 2957.5 -1.56928 -4.66513 0
M  V30 31081 N 2959.16 1.39677 -0.729931 0
M  V30 31082 C 2960.1 2.30637 -0.0866469 0
M  V30 31083 C 2961.07 1.48948 0.735089 0
M  V30 31084 O 2962.26 1.77649 0.696094 0
M  V30 31085 C 2959.4 3.35254 0.818465 0
M  V30 31086 C 2958.51 4.31997 -0.0153394 0
M  V30 31087 C 2957.65 5.23681 0.890577 0
M  V30 31088 C 2956.69 6.12078 0.051717 0
M  V30 31089 N 2955.82 6.96135 0.913289 0
M  V30 31090 H 2960.66 2.85079 -0.867975 0
M  V30 31091 H 2958.2 1.40375 -0.439697 0
M  V30 31092 H 2960.16 3.94493 1.35763 0
M  V30 31093 H 2958.79 2.8228 1.56582 0
M  V30 31094 H 2957.84 3.7442 -0.67186 0
M  V30 31095 H 2959.15 4.94358 -0.664173 0
M  V30 31096 H 2958.31 5.87922 1.49776 0
M  V30 31097 H 2957.04 4.61629 1.5732 0
M  V30 31098 H 2956.05 5.46855 -0.568305 0
M  V30 31099 H 2957.27 6.76194 -0.627616 0
M  V30 31100 H 2955.22 6.36656 1.5813 0
M  V30 31101 H 2955.14 7.55319 0.32082 0
M  V30 31102 H 2956.41 7.6481 1.5062 0
M  V30 31103 N 2960.63 0.47718 1.50202 0
M  V30 31104 C 2961.88 -0.0774194 2.01551 0
M  V30 31105 C 2962.2 -1.40232 1.36361 0
M  V30 31106 O 2963.4 -2.04222 1.78901 0
M  V30 31107 C 2961.86 -0.188476 3.59406 0
M  V30 31108 C 2961.47 1.12836 4.33558 0
M  V30 31109 C 2963.21 -0.694709 4.18777 0
M  V30 31110 C 2961.12 0.980762 5.83211 0
M  V30 31111 H 2960.05 -0.032708 0.75329 0
M  V30 31112 H 2962.7 0.612999 1.72958 0
M  V30 31113 H 2961.08 -0.942814 3.84613 0
M  V30 31114 H 2962.25 1.89412 4.20071 0
M  V30 31115 H 2960.57 1.56617 3.85824 0
M  V30 31116 H 2963.17 -0.822263 5.2834 0
M  V30 31117 H 2963.51 -1.68759 3.8056 0
M  V30 31118 H 2964.04 0.00241512 3.978 0
M  V30 31119 H 2960.78 1.9472 6.25911 0
M  V30 31120 H 2960.3 0.25548 5.99256 0
M  V30 31121 H 2961.98 0.649831 6.43728 0
M  V30 31122 N 2962.11 -1.56194 0.210027 0
M  V30 31123 C 2963.36 -1.97604 -0.423939 0
M  V30 31124 C 2963.68 -1.09857 -1.6111 0
M  V30 31125 O 2962.95 -0.173067 -1.95134 0
M  V30 31126 H 2961.53 -0.729748 -0.159616 0
M  V30 31127 H 2964.19 -1.92574 0.300239 0
M  V30 31128 H 2963.29 -3.02754 -0.758037 0
M  V30 31129 N 2963.59 0.0634645 -1.57472 0
M  V30 31130 C 2964.84 0.761033 -1.87655 0
M  V30 31131 C 2965.17 1.77156 -0.802878 0
M  V30 31132 O 2964.42 1.94673 0.20021 0
M  V30 31133 C 2964.72 1.4973 -3.24524 0
M  V30 31134 C 2964.39 0.625986 -4.46534 0
M  V30 31135 C 2963.05 0.385894 -4.7965 0
M  V30 31136 C 2965.4 0.0223085 -5.21195 0
M  V30 31137 C 2962.73 -0.467221 -5.84837 0
M  V30 31138 C 2965.08 -0.818308 -6.27285 0
M  V30 31139 C 2963.74 -1.06819 -6.58897 0
M  V30 31140 H 2963.01 0.278482 -0.68668 0
M  V30 31141 H 2965.66 0.0216012 -1.91488 0
M  V30 31142 H 2963.97 2.30916 -3.1652 0
M  V30 31143 H 2965.66 2.04198 -3.45115 0
M  V30 31144 H 2962.25 0.823251 -4.20619 0
M  V30 31145 H 2966.44 0.194898 -4.95917 0
M  V30 31146 H 2961.69 -0.669482 -6.07724 0
M  V30 31147 H 2965.87 -1.29277 -6.84295 0
M  V30 31148 H 2963.49 -1.73101 -7.4023 0
M  V30 31149 N 2965.07 1.53998 0.33504 0
M  V30 31150 C 2966.32 1.71314 1.0722 0
M  V30 31151 C 2966.64 0.483519 1.8891 0
M  V30 31152 O 2965.91 -0.502537 1.89345 0
M  V30 31153 H 2964.49 0.631617 0.398834 0
M  V30 31154 H 2967.15 1.91273 0.374254 0
M  V30 31155 H 2966.25 2.58775 1.74475 0
M  V30 31156 N 2966.55 -0.596505 1.45875 0
M  V30 31157 C 2967.82 -1.35625 1.40944 0
M  V30 31158 C 2968.2 -2.10926 0.0857437 0
M  V30 31159 O 2967.55 -2.08606 -0.932507 0
M  V30 31160 C 2967.76 -2.29381 2.63031 0
M  V30 31161 C 2969.11 -2.91643 3.08593 0
M  V30 31162 O 2970.13 -2.39699 2.63482 0
M  V30 31163 O 2968.99 -3.85958 3.86909 0
M  V30 31164 H 2966.09 -0.608686 0.559849 0
M  V30 31165 H 2968.63 -0.61867 1.58021 0
M  V30 31166 H 2967.4 -1.73074 3.50943 0
M  V30 31167 H 2967.03 -3.10501 2.48344 0
M  V30 31168 N 2968.02 -1.3335 -0.839967 0
M  V30 31169 C 2969.44 -1.12661 -1.13047 0
M  V30 31170 C 2969.64 0.0832259 -2.01328 0
M  V30 31171 O 2968.7 0.763814 -2.4067 0
M  V30 31172 C 2970.01 -2.4135 -1.79362 0
M  V30 31173 C 2971.56 -2.47246 -1.91933 0
M  V30 31174 C 2972.03 -3.75894 -2.61664 0
M  V30 31175 N 2973.52 -3.76959 -2.69177 0
M  V30 31176 C 2974.26 -4.73211 -3.23819 0
M  V30 31177 N 2973.75 -5.79839 -3.79156 0
M  V30 31178 N 2975.55 -4.60688 -3.2206 0
M  V30 31179 H 2967.7 -2.10895 -0.252394 0
M  V30 31180 H 2969.96 -0.931804 -0.174485 0
M  V30 31181 H 2969.67 -3.29879 -1.21954 0
M  V30 31182 H 2969.54 -2.53417 -2.79392 0
M  V30 31183 H 2971.93 -1.59167 -2.48495 0
M  V30 31184 H 2972.01 -2.39121 -0.908562 0
M  V30 31185 H 2971.65 -4.64354 -2.05761 0
M  V30 31186 H 2971.58 -3.81295 -3.6321 0
M  V30 31187 H 2974.07 -2.99897 -2.29935 0
M  V30 31188 H 2974.39 -6.4932 -4.1905 0
M  V30 31189 H 2972.73 -5.83574 -3.77447 0
M  V30 31190 H 2975.92 -3.76545 -2.78085 0
M  V30 31191 H 2976.1 -5.35872 -3.64342 0
M  V30 31192 N 2969.5 1.05808 -1.16801 0
M  V30 31193 C 2970.75 1.78962 -0.953967 0
M  V30 31194 C 2971.08 1.87203 0.516605 0
M  V30 31195 O 2970.36 1.36724 1.38336 0
M  V30 31196 C 2970.64 3.23188 -1.58813 0
M  V30 31197 C 2970.49 3.22997 -3.13038 0
M  V30 31198 C 2971.81 4.20865 -1.28688 0
M  V30 31199 H 2968.93 0.649674 -0.347983 0
M  V30 31200 H 2971.57 1.23712 -1.44206 0
M  V30 31201 H 2969.72 3.70366 -1.17309 0
M  V30 31202 H 2971.39 2.83943 -3.63558 0
M  V30 31203 H 2969.64 2.61512 -3.46113 0
M  V30 31204 H 2970.31 4.24763 -3.52534 0
M  V30 31205 H 2972.78 3.82152 -1.64617 0
M  V30 31206 H 2971.66 5.20035 -1.75654 0
M  V30 31207 H 2971.92 4.41617 -0.206569 0
M  V30 31208 N 2970.98 0.967265 1.24426 0
M  V30 31209 C 2972.26 0.545809 1.8783 0
M  V30 31210 C 2972.64 -0.977066 1.87127 0
M  V30 31211 O 2971.99 -1.84823 1.3436 0
M  V30 31212 C 2972.2 1.13684 3.29965 0
M  V30 31213 C 2973.54 1.22147 4.06651 0
M  V30 31214 O 2974.57 1.08932 3.39134 0
M  V30 31215 O 2973.43 1.43027 5.27452 0
M  V30 31216 H 2970.52 0.181926 0.806741 0
M  V30 31217 H 2973.07 1.06151 1.32401 0
M  V30 31218 H 2971.84 2.17963 3.24973 0
M  V30 31219 H 2971.46 0.605163 3.92968 0
M  V30 31220 N 2972.46 -1.39288 0.737328 0
M  V30 31221 C 2973.69 -2.04466 0.296178 0
M  V30 31222 C 2974.1 -1.55709 -1.07477 0
M  V30 31223 O 2973.44 -0.718153 -1.69081 0
M  V30 31224 C 2973.5 -3.58813 0.222224 0
M  V30 31225 C 2973.17 -4.30556 1.53202 0
M  V30 31226 C 2974.16 -4.57037 2.47817 0
M  V30 31227 C 2971.85 -4.69057 1.79696 0
M  V30 31228 C 2973.84 -5.21032 3.67157 0
M  V30 31229 C 2971.53 -5.3278 2.99313 0
M  V30 31230 C 2972.53 -5.58701 3.92865 0
M  V30 31231 O 2972.22 -6.21101 5.10381 0
M  V30 31232 H 2971.95 -0.663981 0.126908 0
M  V30 31233 H 2974.5 -1.79276 1.00245 0
M  V30 31234 H 2972.73 -3.82909 -0.540172 0
M  V30 31235 H 2974.42 -4.05468 -0.18724 0
M  V30 31236 H 2975.19 -4.27736 2.28619 0
M  V30 31237 H 2971.07 -4.48237 1.07723 0
M  V30 31238 H 2974.61 -5.41181 4.40192 0
M  V30 31239 H 2970.51 -5.61502 3.18411 0
M  V30 31240 H 2971.27 -6.39594 5.10746 0
M  V30 31241 N 2973.94 -0.485139 -1.49947 0
M  V30 31242 C 2975.19 0.0667296 -2.0159 0
M  V30 31243 C 2975.5 1.39507 -1.37103 0
M  V30 31244 O 2976.71 2.0327 -1.79982 0
M  V30 31245 C 2975.16 0.169413 -3.59501 0
M  V30 31246 C 2974.77 -1.15133 -4.32953 0
M  V30 31247 C 2976.51 0.67249 -4.19139 0
M  V30 31248 C 2974.42 -1.01168 -5.82683 0
M  V30 31249 H 2973.35 0.0287126 -0.753453 0
M  V30 31250 H 2976 -0.622163 -1.72631 0
M  V30 31251 H 2974.38 0.922403 -3.85107 0
M  V30 31252 H 2975.56 -1.91638 -4.1906 0
M  V30 31253 H 2973.87 -1.58661 -3.84988 0
M  V30 31254 H 2976.47 0.794232 -5.28768 0
M  V30 31255 H 2976.81 1.66739 -3.8145 0
M  V30 31256 H 2977.35 -0.0235114 -3.97793 0
M  V30 31257 H 2974.08 -1.98036 -6.24869 0
M  V30 31258 H 2973.6 -0.287257 -5.99112 0
M  V30 31259 H 2975.28 -0.68396 -6.43375 0
M  V30 31260 N 2975.42 1.56081 -0.218307 0
M  V30 31261 C 2976.69 1.90039 0.463109 0
M  V30 31262 C 2977.07 1.13518 1.7798 0
M  V30 31263 O 2976.42 0.24349 2.27199 0
M  V30 31264 C 2976.63 3.42717 0.659232 0
M  V30 31265 C 2977.98 4.13416 0.96813 0
M  V30 31266 O 2979 3.48298 0.746133 0
M  V30 31267 O 2977.86 5.28547 1.38927 0
M  V30 31268 H 2974.96 0.790055 0.244422 0
M  V30 31269 H 2977.5 1.67693 -0.26025 0
M  V30 31270 H 2976.27 3.9037 -0.269653 0
M  V30 31271 H 2975.9 3.70832 1.4342 0
M  V30 31272 N 2976.89 -0.0551124 1.57504 0
M  V30 31273 C 2978.12 -0.762439 1.92017 0
M  V30 31274 C 2978.53 -1.70789 0.814118 0
M  V30 31275 O 2977.87 -1.82375 -0.220241 0
M  V30 31276 C 2977.94 -1.59592 3.22135 0
M  V30 31277 C 2977.6 -0.818062 4.49618 0
M  V30 31278 C 2978.6 -0.129842 5.19738 0
M  V30 31279 C 2976.28 -0.780299 4.96202 0
M  V30 31280 C 2978.28 0.585727 6.34703 0
M  V30 31281 C 2975.96 -0.0609682 6.1107 0
M  V30 31282 C 2976.96 0.620829 6.80173 0
M  V30 31283 O 2976.65 1.32854 7.92846 0
M  V30 31284 H 2976.38 -0.220956 0.63887 0
M  V30 31285 H 2978.94 -0.0246001 2.05385 0
M  V30 31286 H 2977.17 -2.37696 3.05021 0
M  V30 31287 H 2978.85 -2.18345 3.4217 0
M  V30 31288 H 2979.62 -0.150214 4.84767 0
M  V30 31289 H 2975.5 -1.30046 4.42277 0
M  V30 31290 H 2979.04 1.11845 6.88576 0
M  V30 31291 H 2974.94 -0.038581 6.45488 0
M  V30 31292 H 2975.71 1.23952 8.0906 0
M  V30 31293 N 2978.37 -1.54173 -0.326869 0
M  V30 31294 C 2979.3 -1.8632 -1.40738 0
M  V30 31295 C 2980.28 -0.719711 -1.54124 0
M  V30 31296 O 2981.47 -0.973147 -1.68058 0
M  V30 31297 C 2978.6 -2.08762 -2.77553 0
M  V30 31298 C 2977.55 -3.24601 -2.78959 0
M  V30 31299 C 2976.88 -3.32408 -4.18819 0
M  V30 31300 C 2978.18 -4.62328 -2.43002 0
M  V30 31301 H 2979.87 -2.76813 -1.14083 0
M  V30 31302 H 2977.42 -1.33191 -0.547366 0
M  V30 31303 H 2979.37 -2.29835 -3.53205 0
M  V30 31304 H 2978.09 -1.15015 -3.05678 0
M  V30 31305 H 2976.75 -3.0341 -2.05762 0
M  V30 31306 H 2976.4 -2.36226 -4.44079 0
M  V30 31307 H 2976.1 -4.1026 -4.20666 0
M  V30 31308 H 2977.63 -3.55712 -4.96288 0
M  V30 31309 H 2979.04 -4.83304 -3.08367 0
M  V30 31310 H 2977.44 -5.42706 -2.56106 0
M  V30 31311 H 2978.51 -4.64802 -1.38157 0
M  V30 31312 N 2979.85 0.58876 -1.4619 0
M  V30 31313 C 2980.8 1.71935 -1.56656 0
M  V30 31314 C 2981.79 1.63709 -0.435383 0
M  V30 31315 O 2983 1.69276 -0.612026 0
M  V30 31316 H 2979.37 0.568356 -0.492418 0
M  V30 31317 H 2981.34 1.60238 -2.51727 0
M  V30 31318 C 2980.09 3.10323 -1.56827 0
M  V30 31319 H 2979.42 3.1732 -2.43203 0
M  V30 31320 H 2980.86 3.89208 -1.68206 0
M  V30 31321 C 2979.31 3.35598 -0.295861 0
M  V30 31322 O 2979.84 3.96942 0.616446 0
M  V30 31323 N 2978.05 2.90006 -0.18566 0
M  V30 31324 H 2977.6 2.40267 -0.928956 0
M  V30 31325 H 2977.56 3.0729 0.664829 0
M  V30 31326 N 2981.33 1.33794 0.832883 0
M  V30 31327 C 2982.28 1.21108 1.93176 0
M  V30 31328 C 2983.26 0.112519 1.60506 0
M  V30 31329 O 2984.45 0.34121 1.7368 0
M  V30 31330 C 2981.58 0.958584 3.29645 0
M  V30 31331 C 2980.67 2.09986 3.68465 0
M  V30 31332 N 2981.06 3.35031 3.7893 0
M  V30 31333 C 2979.36 2.00789 3.98246 0
M  V30 31334 C 2980.06 4.09919 4.12724 0
M  V30 31335 N 2979.03 3.38415 4.25413 0
M  V30 31336 H 2982.84 2.15881 1.9943 0
M  V30 31337 H 2980.35 1.25888 1.02596 0
M  V30 31338 H 2982.35 0.848624 4.08172 0
M  V30 31339 H 2981.01 0.019444 3.24694 0
M  V30 31340 H 2982.02 3.69706 3.62682 0
M  V30 31341 H 2978.7 1.14571 4.01472 0
M  V30 31342 H 2980.09 5.17854 4.28108 0
M  V30 31343 N 2982.81 -1.05187 1.1736 0
M  V30 31344 C 2984.03 -1.82402 0.987122 0
M  V30 31345 C 2984.46 -1.82393 -0.459816 0
M  V30 31346 O 2983.81 -1.23294 -1.32922 0
M  V30 31347 C 2983.86 -3.264 1.53282 0
M  V30 31348 O 2982.97 -4.05585 0.746612 0
M  V30 31349 H 2982.31 -0.563968 0.35048 0
M  V30 31350 H 2984.84 -1.32549 1.55859 0
M  V30 31351 H 2984.85 -3.77201 1.55511 0
M  V30 31352 H 2983.52 -3.25721 2.58608 0
M  V30 31353 H 2982.1 -3.64311 0.795735 0
M  V30 31354 N 2984.28 -0.97385 -1.23911 0
M  V30 31355 C 2985.23 -0.479973 -2.22891 0
M  V30 31356 C 2986.22 0.441406 -1.54727 0
M  V30 31357 O 2987.41 0.271327 -1.74908 0
M  V30 31358 C 2984.54 0.222642 -3.42577 0
M  V30 31359 C 2983.62 -0.717925 -4.17979 0
M  V30 31360 N 2984.02 -1.85779 -4.70446 0
M  V30 31361 C 2982.31 -0.529936 -4.4284 0
M  V30 31362 C 2983.01 -2.4466 -5.27746 0
M  V30 31363 N 2981.99 -1.73113 -5.15299 0
M  V30 31364 H 2985.79 -1.34961 -2.6108 0
M  V30 31365 H 2983.31 -0.833704 -1.39367 0
M  V30 31366 H 2985.3 0.59372 -4.12651 0
M  V30 31367 H 2983.96 1.08864 -3.05906 0
M  V30 31368 H 2984.97 -2.23916 -4.66993 0
M  V30 31369 H 2981.65 0.291591 -4.1648 0
M  V30 31370 H 2983.04 -3.40885 -5.79005 0
M  V30 31371 N 2985.76 1.38895 -0.744705 0
M  V30 31372 C 2986.71 2.27834 -0.0869776 0
M  V30 31373 C 2987.7 1.44753 0.702528 0
M  V30 31374 O 2988.89 1.67573 0.569942 0
M  V30 31375 C 2986.02 3.33555 0.812173 0
M  V30 31376 C 2985.1 4.24097 0.0162967 0
M  V30 31377 N 2985.49 4.955 -1.01556 0
M  V30 31378 C 2983.79 4.45329 0.244476 0
M  V30 31379 C 2984.49 5.62126 -1.49632 0
M  V30 31380 N 2983.47 5.37483 -0.813191 0
M  V30 31381 H 2987.27 2.80498 -0.877394 0
M  V30 31382 H 2984.78 1.51693 -0.579924 0
M  V30 31383 H 2986.78 3.96148 1.29893 0
M  V30 31384 H 2985.44 2.82449 1.60164 0
M  V30 31385 H 2986.45 4.98698 -1.39715 0
M  V30 31386 H 2983.13 4.05149 1.00798 0
M  V30 31387 H 2984.52 6.29264 -2.35534 0
M  V30 31388 N 2987.24 0.493084 1.49688 0
M  V30 31389 C 2988.17 -0.279033 2.31827 0
M  V30 31390 C 2989.15 -0.969962 1.39735 0
M  V30 31391 O 2990.34 -0.962895 1.68647 0
M  V30 31392 C 2987.47 -1.34857 3.20048 0
M  V30 31393 C 2986.42 -0.777976 4.2087 0
M  V30 31394 C 2985.75 -1.94744 4.97975 0
M  V30 31395 C 2987.05 0.225635 5.21812 0
M  V30 31396 H 2988.74 0.406564 2.96627 0
M  V30 31397 H 2986.29 0.196968 1.42647 0
M  V30 31398 H 2988.24 -1.89638 3.76318 0
M  V30 31399 H 2986.96 -2.06324 2.53176 0
M  V30 31400 H 2985.62 -0.251972 3.65733 0
M  V30 31401 H 2985.27 -2.64961 4.27557 0
M  V30 31402 H 2984.97 -1.57177 5.66188 0
M  V30 31403 H 2986.49 -2.49974 5.57086 0
M  V30 31404 H 2987.91 -0.233763 5.72823 0
M  V30 31405 H 2986.31 0.516727 5.97871 0
M  V30 31406 H 2987.38 1.1442 4.71207 0
M  V30 31407 N 2988.72 -1.55963 0.226582 0
M  V30 31408 C 2989.95 -2.02534 -0.407879 0
M  V30 31409 C 2990.36 -1.10557 -1.53538 0
M  V30 31410 O 2989.7 -0.108442 -1.8338 0
M  V30 31411 C 2989.76 -3.45427 -0.996021 0
M  V30 31412 C 2989.43 -4.57 -0.00333619 0
M  V30 31413 C 2990.42 -5.13726 0.798872 0
M  V30 31414 C 2988.11 -5.02164 0.116875 0
M  V30 31415 C 2990.1 -6.14091 1.70795 0
M  V30 31416 C 2987.79 -6.02366 1.02948 0
M  V30 31417 C 2988.79 -6.58206 1.82355 0
M  V30 31418 O 2988.47 -7.56457 2.72081 0
M  V30 31419 H 2988.21 -0.668028 -0.103513 0
M  V30 31420 H 2990.76 -2.02533 0.341973 0
M  V30 31421 H 2988.99 -3.42512 -1.79506 0
M  V30 31422 H 2990.68 -3.75616 -1.53842 0
M  V30 31423 H 2991.45 -4.79679 0.716477 0
M  V30 31424 H 2987.32 -4.58377 -0.491092 0
M  V30 31425 H 2990.87 -6.57603 2.32818 0
M  V30 31426 H 2986.77 -6.35834 1.11287 0
M  V30 31427 H 2987.53 -7.73998 2.66212 0
M  V30 31428 N 2990.2 0.0467589 -1.57531 0
M  V30 31429 C 2991.14 1.05281 -2.05389 0
M  V30 31430 C 2992.11 1.36983 -0.93941 0
M  V30 31431 O 2993.3 1.47624 -1.2088 0
M  V30 31432 C 2990.44 2.35404 -2.52347 0
M  V30 31433 C 2989.55 2.10015 -3.77515 0
M  V30 31434 C 2988.69 3.3388 -4.13156 0
M  V30 31435 C 2987.73 3.03967 -5.31291 0
M  V30 31436 N 2986.86 4.20233 -5.62449 0
M  V30 31437 H 2991.7 0.637737 -2.91096 0
M  V30 31438 H 2989.24 0.303297 -1.43939 0
M  V30 31439 H 2991.2 3.11409 -2.77634 0
M  V30 31440 H 2989.83 2.74667 -1.69582 0
M  V30 31441 H 2988.88 1.24587 -3.59419 0
M  V30 31442 H 2990.19 1.83937 -4.63647 0
M  V30 31443 H 2989.35 4.18265 -4.39476 0
M  V30 31444 H 2988.08 3.63056 -3.2564 0
M  V30 31445 H 2987.09 2.17982 -5.04741 0
M  V30 31446 H 2988.31 2.76087 -6.20445 0
M  V30 31447 H 2986.26 4.49393 -4.77893 0
M  V30 31448 H 2986.18 3.97517 -6.43053 0
M  V30 31449 H 2987.45 5.05542 -5.93336 0
M  V30 31450 N 2991.67 1.54344 0.318688 0
M  V30 31451 C 2992.62 1.848 1.41251 0
M  V30 31452 C 2993.62 0.720283 1.53324 0
M  V30 31453 O 2994.82 0.904019 1.55652 0
M  V30 31454 H 2991.2 0.58586 0.471458 0
M  V30 31455 H 2993.17 2.76262 1.1279 0
M  V30 31456 C 2991.92 2.09642 2.77391 0
M  V30 31457 H 2991.24 2.95881 2.68876 0
M  V30 31458 H 2992.68 2.34902 3.52983 0
M  V30 31459 C 2991.14 0.889455 3.24947 0
M  V30 31460 O 2991.67 0.101133 4.01573 0
M  V30 31461 N 2989.88 0.699734 2.8205 0
M  V30 31462 H 2989.42 1.34244 2.19855 0
M  V30 31463 H 2989.38 -0.106313 3.1422 0
M  V30 31464 N 2993.15 -0.580999 1.465 0
M  V30 31465 C 2994.1 -1.68994 1.57193 0
M  V30 31466 C 2995.07 -1.60803 0.416143 0
M  V30 31467 O 2996.25 -1.7999 0.633118 0
M  V30 31468 C 2993.39 -3.0733 1.56978 0
M  V30 31469 C 2992.51 -3.26134 2.83303 0
M  V30 31470 C 2991.64 -4.54729 2.74582 0
M  V30 31471 C 2990.68 -4.66882 3.95838 0
M  V30 31472 N 2989.82 -5.86805 3.85493 0
M  V30 31473 H 2994.66 -1.59192 2.51917 0
M  V30 31474 H 2992.2 -0.775835 1.24977 0
M  V30 31475 H 2994.15 -3.87402 1.54839 0
M  V30 31476 H 2992.78 -3.16025 0.657858 0
M  V30 31477 H 2991.84 -2.39654 2.95415 0
M  V30 31478 H 2993.15 -3.30981 3.73166 0
M  V30 31479 H 2992.3 -5.43032 2.70558 0
M  V30 31480 H 2991.04 -4.52322 1.82362 0
M  V30 31481 H 2990.05 -3.76996 4.00192 0
M  V30 31482 H 2991.27 -4.71066 4.89156 0
M  V30 31483 H 2989.22 -5.85392 2.96061 0
M  V30 31484 H 2989.13 -5.92928 4.69012 0
M  V30 31485 H 2990.4 -6.77533 3.85446 0
M  V30 31486 N 2994.63 -1.34234 -0.825776 0
M  V30 31487 C 2995.86 -1.295 -1.61361 0
M  V30 31488 C 2996.27 0.131503 -1.88341 0
M  V30 31489 O 2995.63 1.07771 -1.47281 0
M  V30 31490 C 2995.68 -2.08066 -2.95619 0
M  V30 31491 O 2995.4 -3.45152 -2.69818 0
M  V30 31492 C 2996.9 -2.10695 -3.90029 0
M  V30 31493 H 2994.12 -0.445612 -0.501668 0
M  V30 31494 H 2996.67 -1.76804 -1.02764 0
M  V30 31495 H 2994.82 -1.6441 -3.50782 0
M  V30 31496 H 2995.24 -3.8573 -3.55405 0
M  V30 31497 H 2996.71 -2.70096 -4.81407 0
M  V30 31498 H 2997.19 -1.1006 -4.25186 0
M  V30 31499 H 2997.79 -2.54428 -3.40803 0
M  V30 31500 N 2996.11 1.04563 -1.17917 0
M  V30 31501 C 2997.34 1.81075 -0.994747 0
M  V30 31502 C 2997.75 1.8352 0.460113 0
M  V30 31503 O 2997.09 1.26574 1.33134 0
M  V30 31504 C 2997.15 3.28204 -1.46704 0
M  V30 31505 C 2996.82 3.4943 -2.94529 0
M  V30 31506 C 2997.81 3.41031 -3.9242 0
M  V30 31507 C 2995.5 3.76188 -3.32848 0
M  V30 31508 C 2997.49 3.59086 -5.26627 0
M  V30 31509 C 2995.18 3.93891 -4.67218 0
M  V30 31510 C 2996.18 3.8534 -5.63917 0
M  V30 31511 O 2995.86 4.02541 -6.95856 0
M  V30 31512 H 2995.6 0.577242 -0.351807 0
M  V30 31513 H 2998.15 1.32707 -1.56774 0
M  V30 31514 H 2996.38 3.77518 -0.837658 0
M  V30 31515 H 2998.07 3.8626 -1.24731 0
M  V30 31516 H 2998.84 3.20329 -3.64162 0
M  V30 31517 H 2994.71 3.81945 -2.58146 0
M  V30 31518 H 2998.26 3.52328 -6.02089 0
M  V30 31519 H 2994.16 4.14086 -4.95179 0
M  V30 31520 H 2994.92 4.19731 -7.02687 0
M  V30 31521 N 2997.59 0.980408 1.23393 0
M  V30 31522 C 2998.83 0.657322 1.93542 0
M  V30 31523 C 2999.19 -0.794446 1.74793 0
M  V30 31524 O 3000.39 -1.22836 2.39092 0
M  V30 31525 C 2998.66 1.03707 3.42023 0
M  V30 31526 S 3000.22 0.830455 4.3087 0
M  V30 31527 H 2997.04 0.240728 0.669007 0
M  V30 31528 H 2999.64 1.26005 1.49476 0
M  V30 31529 H 2998.35 2.09028 3.53179 0
M  V30 31530 H 2997.88 0.425628 3.91091 0
M  V30 31531 H 2999.89 -0.285632 4.95377 0
M  V30 31532 N 2999.06 -1.38498 0.75206 0
M  V30 31533 C 3000.31 -2.00448 0.307994 0
M  V30 31534 C 3000.64 -1.5956 -1.10699 0
M  V30 31535 O 2999.92 -0.832422 -1.75787 0
M  V30 31536 C 3000.2 -3.57534 0.429155 0
M  V30 31537 C 3000.05 -4.0839 1.88514 0
M  V30 31538 C 3001.37 -4.39738 -0.178365 0
M  V30 31539 H 2998.49 -0.728226 0.113385 0
M  V30 31540 H 3001.13 -1.64463 0.951418 0
M  V30 31541 H 2999.28 -3.88319 -0.118627 0
M  V30 31542 H 3000.96 -3.88254 2.49111 0
M  V30 31543 H 2999.2 -3.61314 2.40072 0
M  V30 31544 H 2999.87 -5.17492 1.92108 0
M  V30 31545 H 3002.35 -4.15097 0.288793 0
M  V30 31546 H 3001.22 -5.48863 -0.0633384 0
M  V30 31547 H 3001.48 -4.23571 -1.26648 0
M  V30 31548 N 3000.54 -0.501015 -1.49424 0
M  V30 31549 C 3001.49 0.277403 -2.29127 0
M  V30 31550 C 3002.46 0.960339 -1.35524 0
M  V30 31551 O 3003.64 0.966998 -1.6448 0
M  V30 31552 C 3000.78 1.33588 -3.18195 0
M  V30 31553 C 2999.9 0.664716 -4.26855 0
M  V30 31554 C 2999.03 1.70363 -5.0314 0
M  V30 31555 C 2998.07 1.01434 -6.03637 0
M  V30 31556 N 2997.21 1.99746 -6.73087 0
M  V30 31557 H 3002.05 -0.40851 -2.95187 0
M  V30 31558 H 2999.59 -0.213301 -1.45545 0
M  V30 31559 H 3001.54 1.96155 -3.68211 0
M  V30 31560 H 3000.17 1.99055 -2.5412 0
M  V30 31561 H 2999.23 -0.0742377 -3.80328 0
M  V30 31562 H 3000.54 0.122109 -4.98651 0
M  V30 31563 H 2999.69 2.40435 -5.57024 0
M  V30 31564 H 2998.43 2.28009 -4.31118 0
M  V30 31565 H 2997.44 0.2994 -5.48984 0
M  V30 31566 H 2998.66 0.444378 -6.77645 0
M  V30 31567 H 2996.61 2.56354 -6.03836 0
M  V30 31568 H 2996.52 1.50552 -7.40858 0
M  V30 31569 H 2997.79 2.69106 -7.31575 0
M  V30 31570 N 3002.02 1.5584 -0.234849 0
M  V30 31571 C 3003.27 1.98253 0.392448 0
M  V30 31572 C 3003.59 1.12406 1.59342 0
M  V30 31573 O 3002.86 0.204089 1.94834 0
M  V30 31574 H 3001.44 0.732195 0.147986 0
M  V30 31575 H 3004.1 1.92072 -0.330838 0
M  V30 31576 H 3003.2 3.03922 0.709776 0
M  V30 31577 N 3003.5 -0.038404 1.57553 0
M  V30 31578 C 3004.75 -0.729638 1.88469 0
M  V30 31579 C 3005.07 -1.76391 0.831333 0
M  V30 31580 O 3004.34 -1.95426 -0.136186 0
M  V30 31581 H 3002.92 -0.272473 0.695534 0
M  V30 31582 H 3005.58 -0.00656894 1.94899 0
M  V30 31583 H 3004.68 -1.22506 2.87052 0
M  V30 31584 N 3004.98 -1.54511 -0.310498 0
M  V30 31585 C 3005.91 -1.79671 -1.4069 0
M  V30 31586 C 3006.89 -0.647367 -1.49157 0
M  V30 31587 O 3008.07 -0.886269 -1.66366 0
M  V30 31588 C 3005.2 -1.92495 -2.78681 0
M  V30 31589 C 3004.25 -3.14866 -2.87683 0
M  V30 31590 S 3005.08 -4.73164 -2.5075 0
M  V30 31591 C 3006.23 -4.88913 -3.90788 0
M  V30 31592 H 3006.47 -2.72385 -1.19137 0
M  V30 31593 H 3004 -1.45801 -0.508078 0
M  V30 31594 H 3005.96 -2.0057 -3.58165 0
M  V30 31595 H 3004.62 -1.00736 -2.97508 0
M  V30 31596 H 3003.81 -3.20613 -3.88874 0
M  V30 31597 H 3003.41 -3.05189 -2.16184 0
M  V30 31598 H 3005.71 -4.72352 -4.85685 0
M  V30 31599 H 3006.65 -5.9101 -3.90017 0
M  V30 31600 H 3007.06 -4.17126 -3.8035 0
M  V30 31601 N 3006.46 0.573222 -1.46806 0
M  V30 31602 C 3007.87 1.15536 -1.46657 0
M  V30 31603 C 3008.22 1.95045 -0.212535 0
M  V30 31604 O 3007.34 2.05315 0.683723 0
M  V30 31605 C 3007.94 2.10193 -2.65715 0
M  V30 31606 C 3006.5 2.63711 -2.68577 0
M  V30 31607 C 3005.64 1.39767 -2.395 0
M  V30 31608 H 3008.59 0.360653 -1.54548 0
M  V30 31609 H 3008.62 2.93813 -2.41773 0
M  V30 31610 H 3008.13 1.52297 -3.5697 0
M  V30 31611 H 3006.23 3.2545 -1.81419 0
M  V30 31612 H 3006.34 3.05798 -3.68814 0
M  V30 31613 H 3004.71 1.69901 -1.89752 0
M  V30 31614 H 3005.49 0.836884 -3.32943 0
M  V30 31615 N 3007.93 1.3467 0.818645 0
M  V30 31616 C 3009.16 1.30508 1.61191 0
M  V30 31617 C 3009.58 -0.117308 1.87734 0
M  V30 31618 O 3008.94 -1.08039 1.45592 0
M  V30 31619 C 3008.99 2.10575 2.92729 0
M  V30 31620 O 3008.09 1.4782 3.84997 0
M  V30 31621 H 3007.43 0.448019 0.490077 0
M  V30 31622 H 3009.96 1.77535 1.01697 0
M  V30 31623 H 3009.97 2.22088 3.42258 0
M  V30 31624 H 3008.65 3.13988 2.72735 0
M  V30 31625 H 3007.23 1.45075 3.43522 0
M  V30 31626 N 3009.41 -1.03936 1.1847 0
M  V30 31627 C 3010.66 -1.76809 0.978926 0
M  V30 31628 C 3010.98 -1.88677 -0.492537 0
M  V30 31629 O 3010.25 -1.41271 -1.35717 0
M  V30 31630 H 3008.83 -0.654962 0.359213 0
M  V30 31631 H 3011.49 -1.25431 1.49175 0
M  V30 31632 H 3010.59 -2.78025 1.41805 0
M  V30 31633 N 3010.89 -0.986938 -1.22871 0
M  V30 31634 C 3012.13 -0.667577 -1.93191 0
M  V30 31635 C 3012.49 0.785165 -1.75212 0
M  V30 31636 O 3013.69 1.21566 -2.3974 0
M  V30 31637 C 3011.97 -1.05519 -3.41468 0
M  V30 31638 S 3013.52 -0.853293 -4.30423 0
M  V30 31639 H 3010.34 -0.244273 -0.667721 0
M  V30 31640 H 3012.94 -1.26796 -1.48805 0
M  V30 31641 H 3011.65 -2.10898 -3.52065 0
M  V30 31642 H 3011.18 -0.446362 -3.9086 0
M  V30 31643 H 3013.19 0.259357 -4.95522 0
M  V30 31644 N 3012.37 1.38098 -0.759394 0
M  V30 31645 C 3013.59 2.04792 -0.327895 0
M  V30 31646 C 3014.02 1.56901 1.03749 0
M  V30 31647 O 3013.38 0.72361 1.66233 0
M  V30 31648 C 3013.42 3.58734 -0.366327 0
M  V30 31649 O 3012.53 4.07441 0.637626 0
M  V30 31650 H 3011.87 0.648175 -0.144103 0
M  V30 31651 H 3014.4 1.76658 -1.03214 0
M  V30 31652 H 3014.41 4.0741 -0.219251 0
M  V30 31653 H 3013.08 3.92949 -1.36249 0
M  V30 31654 H 3011.66 3.70118 0.454684 0
M  V30 31655 N 3013.85 0.508932 1.49156 0
M  V30 31656 C 3015.09 -0.032698 2.02074 0
M  V30 31657 C 3015.41 -1.36748 1.39014 0
M  V30 31658 O 3014.68 -1.88074 0.548186 0
M  V30 31659 H 3013.26 -0.0150733 0.746848 0
M  V30 31660 H 3015.93 0.667979 1.83096 0
M  V30 31661 H 3015.02 -0.156545 3.11707 0
M  V30 31662 N 3015.32 -1.55714 0.243111 0
M  V30 31663 C 3016.55 -2.0325 -0.386936 0
M  V30 31664 C 3016.97 -1.12246 -1.5181 0
M  V30 31665 O 3016.32 -0.136151 -1.81991 0
M  V30 31666 C 3016.37 -3.50161 -0.8983 0
M  V30 31667 O 3016.1 -4.37697 0.187784 0
M  V30 31668 C 3017.6 -4.13441 -1.59942 0
M  V30 31669 H 3014.82 -0.664609 -0.0923864 0
M  V30 31670 H 3017.36 -2.01201 0.365867 0
M  V30 31671 H 3015.52 -3.52757 -1.60129 0
M  V30 31672 H 3015.93 -5.24119 -0.199909 0
M  V30 31673 H 3017.4 -5.1794 -1.90898 0
M  V30 31674 H 3017.88 -3.59707 -2.52008 0
M  V30 31675 H 3018.49 -4.14757 -0.94109 0
M  V30 31676 N 3016.8 0.030048 -1.57571 0
M  V30 31677 C 3018.03 0.736567 -1.9388 0
M  V30 31678 C 3018.45 1.68151 -0.843028 0
M  V30 31679 O 3017.81 1.80179 0.201318 0
M  V30 31680 C 3017.86 1.47061 -3.2925 0
M  V30 31681 O 3016.96 2.58373 -3.2143 0
M  V30 31682 H 3016.3 0.19817 -0.633739 0
M  V30 31683 H 3018.83 -0.0141845 -2.04595 0
M  V30 31684 H 3018.84 1.84074 -3.64116 0
M  V30 31685 H 3017.52 0.777569 -4.08567 0
M  V30 31686 H 3016.1 2.23909 -2.98193 0
M  V30 31687 N 3018.28 1.54674 0.3023 0
M  V30 31688 C 3019.53 1.73102 1.0353 0
M  V30 31689 C 3019.84 0.523207 1.88473 0
M  V30 31690 O 3021.05 0.589275 2.65028 0
M  V30 31691 C 3019.5 3.06256 1.89038 0
M  V30 31692 C 3019.11 4.34511 1.09105 0
M  V30 31693 C 3020.86 3.34043 2.61945 0
M  V30 31694 C 3018.76 5.58716 1.93882 0
M  V30 31695 H 3017.69 0.645152 0.390249 0
M  V30 31696 H 3020.34 1.81156 0.292369 0
M  V30 31697 H 3018.73 2.92163 2.67313 0
M  V30 31698 H 3019.9 4.59434 0.354515 0
M  V30 31699 H 3018.22 4.13649 0.47785 0
M  V30 31700 H 3020.81 4.24039 3.25722 0
M  V30 31701 H 3021.16 2.52861 3.30707 0
M  V30 31702 H 3021.69 3.491 1.90719 0
M  V30 31703 H 3018.43 6.42562 1.29592 0
M  V30 31704 H 3017.95 5.37981 2.6521 0
M  V30 31705 H 3019.63 5.95924 2.5196 0
M  V30 31706 N 3019.76 -0.565428 1.47108 0
M  V30 31707 C 3021.01 -1.32296 1.5331 0
M  V30 31708 C 3021.33 -1.93551 0.191934 0
M  V30 31709 O 3020.59 -1.77953 -0.814318 0
M  V30 31710 C 3020.89 -2.4595 2.59314 0
M  V30 31711 C 3020.55 -2.02578 4.02831 0
M  V30 31712 C 3019.22 -1.90466 4.41901 0
M  V30 31713 C 3021.57 -1.69362 4.92916 0
M  V30 31714 C 3018.9 -1.4342 5.689 0
M  V30 31715 C 3021.25 -1.23789 6.2037 0
M  V30 31716 C 3019.91 -1.10267 6.58329 0
M  V30 31717 H 3019.18 -0.484106 0.561001 0
M  V30 31718 H 3021.83 -0.634934 1.80668 0
M  V30 31719 H 3020.13 -3.20273 2.25682 0
M  V30 31720 H 3021.83 -3.04144 2.61337 0
M  V30 31721 H 3018.42 -2.12946 3.71957 0
M  V30 31722 H 3022.6 -1.77596 4.63436 0
M  V30 31723 H 3017.86 -1.31608 5.97067 0
M  V30 31724 H 3022.03 -0.971465 6.89591 0
M  V30 31725 H 3019.66 -0.735894 7.5663 0
M  V30 31726 N 3021.24 -1.35102 -0.811492 0
M  V30 31727 C 3022.18 -1.27645 -1.94447 0
M  V30 31728 C 3023.18 -0.172317 -1.68521 0
M  V30 31729 O 3024.38 -0.337998 -1.76798 0
M  V30 31730 H 3020.76 -0.396835 -0.638769 0
M  V30 31731 H 3022.73 -2.23372 -1.97857 0
M  V30 31732 C 3021.48 -1.06035 -3.31137 0
M  V30 31733 H 3020.8 -1.90234 -3.51641 0
M  V30 31734 H 3022.24 -1.04857 -4.1083 0
M  V30 31735 C 3020.7 0.23598 -3.36073 0
M  V30 31736 O 3021.23 1.23346 -3.82294 0
M  V30 31737 N 3019.44 0.273057 -2.89314 0
M  V30 31738 H 3018.98 -0.539255 -2.51892 0
M  V30 31739 H 3018.94 1.14015 -2.92998 0
M  V30 31740 N 3022.71 1.03306 -1.19019 0
M  V30 31741 C 3023.94 1.80809 -1.01602 0
M  V30 31742 C 3024.36 1.83102 0.43074 0
M  V30 31743 O 3023.72 1.25393 1.30943 0
M  V30 31744 C 3023.77 3.2392 -1.58455 0
M  V30 31745 O 3022.87 4.04346 -0.811043 0
M  V30 31746 H 3022.22 0.558321 -0.359408 0
M  V30 31747 H 3024.75 1.30053 -1.57948 0
M  V30 31748 H 3024.76 3.74679 -1.61492 0
M  V30 31749 H 3023.43 3.21566 -2.63758 0
M  V30 31750 H 3022.01 3.62999 -0.853593 0
M  V30 31751 N 3024.19 0.99344 1.22346 0
M  V30 31752 C 3025.13 0.489112 2.22897 0
M  V30 31753 C 3026.1 -0.4509 1.56223 0
M  V30 31754 O 3027.29 -0.376319 1.84705 0
M  V30 31755 C 3024.41 -0.290887 3.37449 0
M  V30 31756 C 3023.46 0.595197 4.22326 0
M  V30 31757 S 3024.29 2.05081 4.94674 0
M  V30 31758 C 3025.45 1.28032 6.12665 0
M  V30 31759 H 3025.68 1.34116 2.65331 0
M  V30 31760 H 3023.22 0.800452 1.32031 0
M  V30 31761 H 3025.17 -0.734873 4.03869 0
M  V30 31762 H 3023.83 -1.11821 2.93521 0
M  V30 31763 H 3023.03 -0.00498554 5.04 0
M  V30 31764 H 3022.63 0.97597 3.61041 0
M  V30 31765 H 3024.92 0.548248 6.75278 0
M  V30 31766 H 3025.86 2.07235 6.77096 0
M  V30 31767 H 3026.27 0.793371 5.58897 0
M  V30 31768 N 3025.67 -1.37693 0.766707 0
M  V30 31769 C 3026.92 -1.99057 0.32546 0
M  V30 31770 C 3027.23 -1.61553 -1.10272 0
M  V30 31771 O 3028.44 -2.15983 -1.6451 0
M  V30 31772 C 3026.89 -3.55962 0.530949 0
M  V30 31773 C 3026.5 -4.02408 1.96906 0
M  V30 31774 C 3028.25 -4.24224 0.153072 0
M  V30 31775 C 3026.15 -5.52003 2.12241 0
M  V30 31776 H 3025.08 -0.744718 0.117942 0
M  V30 31777 H 3027.73 -1.57289 0.945119 0
M  V30 31778 H 3026.12 -3.95684 -0.158092 0
M  V30 31779 H 3027.29 -3.73943 2.69264 0
M  V30 31780 H 3025.61 -3.46912 2.30306 0
M  V30 31781 H 3028.2 -5.34133 0.246234 0
M  V30 31782 H 3028.55 -4.06543 -0.896025 0
M  V30 31783 H 3029.08 -3.89786 0.794467 0
M  V30 31784 H 3025.82 -5.74605 3.15452 0
M  V30 31785 H 3025.34 -5.82168 1.4436 0
M  V30 31786 H 3027.02 -6.17898 1.91861 0
M  V30 31787 N 3027.15 -0.516835 -1.48884 0
M  V30 31788 C 3028.1 0.266616 -2.31067 0
M  V30 31789 C 3029.09 0.947925 -1.40395 0
M  V30 31790 O 3030.3 0.873808 -1.57368 0
M  V30 31791 H 3026.67 0.104844 -0.744655 0
M  V30 31792 H 3028.64 -0.446288 -2.95044 0
M  V30 31793 C 3027.39 1.30864 -3.22133 0
M  V30 31794 H 3026.71 0.793796 -3.9184 0
M  V30 31795 H 3028.15 1.8285 -3.82547 0
M  V30 31796 C 3026.61 2.33529 -2.42829 0
M  V30 31797 O 3027.14 3.39718 -2.1437 0
M  V30 31798 N 3025.35 2.06403 -2.04563 0
M  V30 31799 H 3024.9 1.20067 -2.27907 0
M  V30 31800 H 3024.85 2.75319 -1.51812 0
M  V30 31801 N 3028.63 1.55583 -0.251365 0
M  V30 31802 C 3029.57 2.22966 0.662495 0
M  V30 31803 C 3030.57 1.21871 1.1766 0
M  V30 31804 O 3031.77 1.3987 1.13298 0
M  V30 31805 H 3028.15 0.715273 0.232138 0
M  V30 31806 H 3030.12 2.98315 0.0710728 0
M  V30 31807 C 3028.87 2.94624 1.8464 0
M  V30 31808 H 3028.19 3.72189 1.45997 0
M  V30 31809 H 3029.63 3.45129 2.46297 0
M  V30 31810 C 3028.09 1.98748 2.72031 0
M  V30 31811 O 3028.62 1.52341 3.71692 0
M  V30 31812 N 3026.83 1.65754 2.38692 0
M  V30 31813 H 3026.37 2.03688 1.57699 0
M  V30 31814 H 3026.33 1.01872 2.97438 0
M  V30 31815 N 3030.1 -0.0216912 1.57585 0
M  V30 31816 C 3031.03 -1.01935 2.10075 0
M  V30 31817 C 3032.02 -1.37242 1.00493 0
M  V30 31818 O 3033.2 -1.45997 1.28057 0
M  V30 31819 C 3030.33 -2.31801 2.58622 0
M  V30 31820 C 3029.28 -2.10717 3.72535 0
M  V30 31821 C 3028.61 -3.46408 4.07315 0
M  V30 31822 C 3029.91 -1.48734 5.00675 0
M  V30 31823 H 3031.6 -0.582381 2.93681 0
M  V30 31824 H 3029.15 -0.27869 1.41277 0
M  V30 31825 H 3031.1 -3.01931 2.93966 0
M  V30 31826 H 3029.83 -2.77572 1.72109 0
M  V30 31827 H 3028.49 -1.43019 3.37552 0
M  V30 31828 H 3028.13 -3.89841 3.17857 0
M  V30 31829 H 3027.83 -3.33123 4.84048 0
M  V30 31830 H 3029.36 -4.17887 4.45199 0
M  V30 31831 H 3030.77 -2.08791 5.33928 0
M  V30 31832 H 3029.17 -1.46003 5.82068 0
M  V30 31833 H 3030.24 -0.453995 4.8277 0
M  V30 31834 N 3031.58 -1.54832 -0.294093 0
M  V30 31835 C 3032.83 -1.73649 -1.02611 0
M  V30 31836 C 3033.15 -0.533195 -1.88192 0
M  V30 31837 O 3034.35 -0.603322 -2.64712 0
M  V30 31838 C 3032.81 -3.07254 -1.87411 0
M  V30 31839 C 3032.42 -4.35084 -1.06799 0
M  V30 31840 C 3034.16 -3.35428 -2.6017 0
M  V30 31841 C 3032.07 -5.59737 -1.90916 0
M  V30 31842 H 3031 -0.647213 -0.386822 0
M  V30 31843 H 3033.65 -1.81308 -0.282757 0
M  V30 31844 H 3032.03 -2.93577 -2.6576 0
M  V30 31845 H 3033.2 -4.59616 -0.330145 0
M  V30 31846 H 3031.52 -4.13897 -0.455906 0
M  V30 31847 H 3034.12 -4.25761 -3.23469 0
M  V30 31848 H 3034.46 -2.54612 -3.29361 0
M  V30 31849 H 3034.99 -3.50107 -1.88865 0
M  V30 31850 H 3031.73 -6.4324 -1.26183 0
M  V30 31851 H 3031.25 -5.3938 -2.62354 0
M  V30 31852 H 3032.93 -5.97252 -2.48796 0
M  V30 31853 N 3033.06 0.557619 -1.47405 0
M  V30 31854 C 3034.31 1.31115 -1.5327 0
M  V30 31855 C 3034.62 1.9458 -0.199449 0
M  V30 31856 O 3035.83 2.71159 -0.136087 0
M  V30 31857 C 3034.29 2.37759 -2.70183 0
M  V30 31858 C 3033.89 1.80486 -4.10035 0
M  V30 31859 C 3035.64 3.14296 -2.85339 0
M  V30 31860 C 3033.54 2.84907 -5.18249 0
M  V30 31861 H 3032.47 0.492997 -0.5705 0
M  V30 31862 H 3035.13 0.592277 -1.73679 0
M  V30 31863 H 3033.51 3.12559 -2.43152 0
M  V30 31864 H 3034.68 1.12061 -4.46966 0
M  V30 31865 H 3033 1.16535 -3.99761 0
M  V30 31866 H 3035.59 3.92273 -3.63354 0
M  V30 31867 H 3035.94 3.68456 -1.93768 0
M  V30 31868 H 3036.47 2.46607 -3.12137 0
M  V30 31869 H 3033.21 2.35603 -6.11696 0
M  V30 31870 H 3032.73 3.51744 -4.85836 0
M  V30 31871 H 3034.41 3.48407 -5.4518 0
M  V30 31872 N 3034.54 1.35531 0.804316 0
M  V30 31873 C 3035.96 1.15618 1.10021 0
M  V30 31874 C 3036.16 -0.0298181 2.01478 0
M  V30 31875 O 3035.21 -0.699736 2.42611 0
M  V30 31876 C 3036.52 2.4602 1.729 0
M  V30 31877 C 3038.07 2.52248 1.8531 0
M  V30 31878 C 3038.55 3.82699 2.51606 0
M  V30 31879 N 3040.04 3.83963 2.59088 0
M  V30 31880 C 3040.77 4.81631 3.11158 0
M  V30 31881 N 3040.27 5.89687 3.63649 0
M  V30 31882 N 3042.06 4.69065 3.09732 0
M  V30 31883 H 3034.21 2.1149 0.196391 0
M  V30 31884 H 3036.48 0.936103 0.149718 0
M  V30 31885 H 3036.18 3.32996 1.13165 0
M  V30 31886 H 3036.06 2.60735 2.72575 0
M  V30 31887 H 3038.44 1.657 2.44188 0
M  V30 31888 H 3038.52 2.41446 0.844843 0
M  V30 31889 H 3038.17 4.69646 1.93377 0
M  V30 31890 H 3038.1 3.90791 3.52973 0
M  V30 31891 H 3040.59 3.05888 2.21903 0
M  V30 31892 H 3040.9 6.60203 4.01687 0
M  V30 31893 H 3039.25 5.93377 3.61842 0
M  V30 31894 H 3042.44 3.83786 2.68004 0
M  V30 31895 H 3042.61 5.45344 3.50006 0
M  V30 31896 N 3036.02 -1.02674 1.19565 0
M  V30 31897 C 3037.25 -1.79731 1.02492 0
M  V30 31898 C 3037.66 -1.83925 -0.42627 0
M  V30 31899 O 3037.02 -1.28485 -1.29606 0
M  V30 31900 C 3037.07 -3.2468 1.58949 0
M  V30 31901 O 3036.79 -3.20774 2.98388 0
M  V30 31902 C 3038.29 -4.18327 1.46688 0
M  V30 31903 H 3035.51 -0.565546 0.361108 0
M  V30 31904 H 3038.05 -1.29309 1.58428 0
M  V30 31905 H 3036.21 -3.72285 1.07156 0
M  V30 31906 H 3036.62 -4.11681 3.2499 0
M  V30 31907 H 3038.1 -5.17914 1.90968 0
M  V30 31908 H 3038.57 -4.37209 0.41774 0
M  V30 31909 H 3039.18 -3.76597 1.97623 0
M  V30 31910 N 3037.5 -0.999914 -1.21817 0
M  V30 31911 C 3038.43 -0.576136 -2.26281 0
M  V30 31912 C 3039.41 0.400508 -1.65318 0
M  V30 31913 O 3040.59 0.289606 -1.92028 0
M  V30 31914 C 3037.72 0.103084 -3.47147 0
M  V30 31915 C 3036.68 -0.792819 -4.20593 0
M  V30 31916 C 3036 0.0197086 -5.34696 0
M  V30 31917 C 3037.3 -2.09302 -4.78529 0
M  V30 31918 H 3039 -1.44934 -2.61982 0
M  V30 31919 H 3036.54 -0.698338 -1.25933 0
M  V30 31920 H 3038.49 0.410994 -4.19391 0
M  V30 31921 H 3037.22 1.01089 -3.10562 0
M  V30 31922 H 3035.88 -1.08448 -3.50192 0
M  V30 31923 H 3035.53 0.928642 -4.94353 0
M  V30 31924 H 3035.23 -0.576763 -5.84763 0
M  V30 31925 H 3036.75 0.321551 -6.09753 0
M  V30 31926 H 3038.16 -1.84859 -5.42679 0
M  V30 31927 H 3036.56 -2.63891 -5.38964 0
M  V30 31928 H 3037.63 -2.76715 -3.98192 0
M  V30 31929 N 3038.97 1.37284 -0.773999 0
M  V30 31930 C 3039.9 2.32837 -0.175823 0
M  V30 31931 C 3040.88 1.55892 0.680576 0
M  V30 31932 O 3042.07 1.84119 0.617575 0
M  V30 31933 C 3039.2 3.40124 0.702328 0
M  V30 31934 C 3038.15 4.27967 -0.052944 0
M  V30 31935 C 3037.48 5.26287 0.944799 0
M  V30 31936 C 3038.78 5.07531 -1.23325 0
M  V30 31937 H 3040.47 2.83112 -0.974066 0
M  V30 31938 H 3038.02 1.36119 -0.46985 0
M  V30 31939 H 3039.97 4.05949 1.13062 0
M  V30 31940 H 3038.7 2.8838 1.53311 0
M  V30 31941 H 3037.36 3.63677 -0.462042 0
M  V30 31942 H 3037 4.70822 1.7702 0
M  V30 31943 H 3036.7 5.8592 0.443976 0
M  V30 31944 H 3038.23 5.94986 1.37199 0
M  V30 31945 H 3039.64 5.66483 -0.881495 0
M  V30 31946 H 3038.04 5.76502 -1.66631 0
M  V30 31947 H 3039.11 4.40074 -2.03625 0
M  V30 31948 N 3040.45 0.524724 1.48608 0
M  V30 31949 C 3041.38 -0.229796 2.32366 0
M  V30 31950 C 3042.36 -0.940104 1.41761 0
M  V30 31951 O 3043.55 -0.926906 1.70652 0
M  V30 31952 C 3040.68 -1.28038 3.22837 0
M  V30 31953 C 3039.63 -0.688529 4.22425 0
M  V30 31954 C 3038.96 -1.84137 5.01994 0
M  V30 31955 C 3040.26 0.336268 5.21216 0
M  V30 31956 H 3041.95 0.469391 2.95698 0
M  V30 31957 H 3039.5 0.227181 1.42197 0
M  V30 31958 H 3041.45 -1.81613 3.80256 0
M  V30 31959 H 3040.17 -2.00907 2.57495 0
M  V30 31960 H 3038.83 -0.174338 3.66185 0
M  V30 31961 H 3038.48 -2.55832 4.33081 0
M  V30 31962 H 3038.18 -1.45132 5.69395 0
M  V30 31963 H 3039.71 -2.38101 5.62263 0
M  V30 31964 H 3041.12 -0.112206 5.7319 0
M  V30 31965 H 3039.52 0.643429 5.96641 0
M  V30 31966 H 3040.59 1.2439 4.68674 0
M  V30 31967 N 3041.93 -1.55447 0.259613 0
M  V30 31968 C 3042.88 -2.21906 -0.634539 0
M  V30 31969 C 3043.85 -1.18721 -1.16166 0
M  V30 31970 O 3045.03 -1.47212 -1.2138 0
M  V30 31971 C 3042.17 -2.93207 -1.82 0
M  V30 31972 C 3041.28 -4.11075 -1.3282 0
M  V30 31973 C 3040.42 -4.70059 -2.47423 0
M  V30 31974 C 3039.46 -5.80151 -1.95169 0
M  V30 31975 N 3038.6 -6.33264 -3.03185 0
M  V30 31976 H 3043.44 -2.97937 -0.0611362 0
M  V30 31977 H 3040.97 -1.47088 -0.0184119 0
M  V30 31978 H 3042.93 -3.32752 -2.51658 0
M  V30 31979 H 3041.56 -2.19626 -2.36567 0
M  V30 31980 H 3040.61 -3.76756 -0.525235 0
M  V30 31981 H 3041.92 -4.90515 -0.905348 0
M  V30 31982 H 3041.08 -5.12244 -3.25102 0
M  V30 31983 H 3039.82 -3.89863 -2.93016 0
M  V30 31984 H 3038.82 -5.37431 -1.15964 0
M  V30 31985 H 3040.05 -6.62207 -1.5053 0
M  V30 31986 H 3037.99 -5.55968 -3.4819 0
M  V30 31987 H 3037.91 -7.07932 -2.6527 0
M  V30 31988 H 3039.18 -6.80108 -3.80886 0
M  V30 31989 N 3043.41 0.0133338 -1.57594 0
M  V30 31990 C 3044.64 0.712294 -1.94252 0
M  V30 31991 C 3045.05 1.68042 -0.860659 0
M  V30 31992 O 3044.41 1.81783 0.1616 0
M  V30 31993 C 3044.46 1.45575 -3.30893 0
M  V30 31994 O 3044.18 0.526463 -4.34925 0
M  V30 31995 C 3045.68 2.25043 -3.8193 0
M  V30 31996 H 3042.9 0.19923 -0.64074 0
M  V30 31997 H 3045.44 -0.0338215 -2.04472 0
M  V30 31998 H 3043.6 2.15361 -3.22023 0
M  V30 31999 H 3044.01 1.04953 -5.13892 0
M  V30 32000 H 3045.49 2.72581 -4.80004 0
M  V30 32001 H 3045.96 3.07146 -3.13939 0
M  V30 32002 H 3046.57 1.60301 -3.93934 0
M  V30 32003 N 3044.89 1.54985 0.285878 0
M  V30 32004 C 3046.12 1.78734 1.03623 0
M  V30 32005 C 3046.52 0.554408 1.80895 0
M  V30 32006 O 3045.87 -0.485749 1.77161 0
M  V30 32007 C 3045.93 2.95197 2.0518 0
M  V30 32008 C 3045.59 4.32724 1.46965 0
M  V30 32009 C 3046.59 5.12193 0.891896 0
M  V30 32010 C 3044.27 4.79357 1.50073 0
M  V30 32011 C 3046.27 6.36422 0.352966 0
M  V30 32012 C 3043.96 6.03545 0.957931 0
M  V30 32013 C 3044.95 6.81914 0.385037 0
M  V30 32014 O 3044.64 8.03761 -0.149482 0
M  V30 32015 H 3044.37 0.599482 0.312405 0
M  V30 32016 H 3046.93 2.02796 0.326032 0
M  V30 32017 H 3045.16 2.66796 2.79923 0
M  V30 32018 H 3046.85 3.06385 2.66239 0
M  V30 32019 H 3047.61 4.77302 0.860678 0
M  V30 32020 H 3043.49 4.18377 1.93603 0
M  V30 32021 H 3047.04 6.97536 -0.0948407 0
M  V30 32022 H 3042.93 6.3792 0.986345 0
M  V30 32023 H 3043.7 8.18491 -0.0376157 0
M  V30 32024 N 3046.36 -0.549794 1.47699 0
M  V30 32025 C 3047.31 -1.65622 1.60742 0
M  V30 32026 C 3048.28 -1.59884 0.450158 0
M  V30 32027 O 3049.47 -1.78606 0.671154 0
M  V30 32028 C 3046.61 -3.03931 1.63462 0
M  V30 32029 C 3045.72 -3.20051 2.90158 0
M  V30 32030 C 3044.85 -4.48802 2.84165 0
M  V30 32031 C 3043.89 -4.5838 4.05652 0
M  V30 32032 N 3043.03 -5.78496 3.97853 0
M  V30 32033 H 3047.87 -1.53812 2.55237 0
M  V30 32034 H 3045.41 -0.749151 1.26594 0
M  V30 32035 H 3047.37 -3.84031 1.63022 0
M  V30 32036 H 3046 -3.14559 0.724744 0
M  V30 32037 H 3045.05 -2.33334 3.00432 0
M  V30 32038 H 3046.36 -3.22992 3.80103 0
M  V30 32039 H 3045.51 -5.37171 2.82015 0
M  V30 32040 H 3044.25 -4.48352 1.91916 0
M  V30 32041 H 3043.26 -3.68423 4.08099 0
M  V30 32042 H 3044.48 -4.60584 4.99038 0
M  V30 32043 H 3042.43 -5.78981 3.08411 0
M  V30 32044 H 3042.35 -5.82846 4.81483 0
M  V30 32045 H 3043.61 -6.69205 3.99731 0
M  V30 32046 N 3047.84 -1.35955 -0.797117 0
M  V30 32047 C 3049.09 -1.295 -1.55158 0
M  V30 32048 C 3049.41 0.127625 -1.94582 0
M  V30 32049 O 3048.68 1.06619 -1.64345 0
M  V30 32050 H 3047.26 -0.47636 -0.575405 0
M  V30 32051 H 3049.92 -1.70165 -0.950252 0
M  V30 32052 H 3049.02 -1.91725 -2.46268 0
M  V30 32053 N 3049.32 1.02038 -1.20108 0
M  V30 32054 C 3050.57 1.74983 -1.00319 0
M  V30 32055 C 3050.88 1.89973 0.46578 0
M  V30 32056 O 3052.09 2.59973 0.782703 0
M  V30 32057 C 3050.54 3.14703 -1.74614 0
M  V30 32058 C 3050.15 3.07738 -3.25579 0
M  V30 32059 C 3051.9 3.91884 -1.63179 0
M  V30 32060 C 3049.8 4.42442 -3.92427 0
M  V30 32061 H 3048.73 0.655992 -0.371739 0
M  V30 32062 H 3051.38 1.14129 -1.4369 0
M  V30 32063 H 3049.77 3.76076 -1.24027 0
M  V30 32064 H 3050.94 2.55695 -3.83349 0
M  V30 32065 H 3049.26 2.44051 -3.37384 0
M  V30 32066 H 3051.85 4.91536 -2.10466 0
M  V30 32067 H 3052.2 4.12136 -0.587352 0
M  V30 32068 H 3052.73 3.37131 -2.11158 0
M  V30 32069 H 3049.47 4.27394 -4.97006 0
M  V30 32070 H 3048.99 4.94507 -3.39445 0
M  V30 32071 H 3050.67 5.11299 -3.96462 0
M  V30 32072 N 3050.8 1.00636 1.21285 0
M  V30 32073 C 3052.08 0.605289 1.85999 0
M  V30 32074 C 3052.46 -0.917039 1.90141 0
M  V30 32075 O 3051.8 -1.80455 1.40172 0
M  V30 32076 C 3052.01 1.24124 3.26181 0
M  V30 32077 C 3053.36 1.35022 4.0256 0
M  V30 32078 O 3054.39 1.19667 3.35497 0
M  V30 32079 O 3053.24 1.59735 5.22635 0
M  V30 32080 H 3050.34 0.2075 0.800545 0
M  V30 32081 H 3052.88 1.10309 1.28957 0
M  V30 32082 H 3051.66 2.28192 3.17874 0
M  V30 32083 H 3051.28 0.729876 3.90843 0
M  V30 32084 N 3052.28 -1.36872 0.781268 0
M  V30 32085 C 3053.21 -2.32741 0.188169 0
M  V30 32086 C 3054.19 -1.5625 -0.672299 0
M  V30 32087 O 3055.37 -1.84444 -0.607802 0
M  V30 32088 C 3052.5 -3.40492 -0.684281 0
M  V30 32089 C 3051.46 -4.27933 0.0756394 0
M  V30 32090 C 3050.78 -5.2678 -0.916875 0
M  V30 32091 C 3052.08 -5.0687 1.26015 0
M  V30 32092 H 3053.78 -2.82591 0.989066 0
M  V30 32093 H 3051.32 -1.35868 0.477062 0
M  V30 32094 H 3053.28 -4.06543 -1.10908 0
M  V30 32095 H 3052 -2.89189 -1.5178 0
M  V30 32096 H 3050.66 -3.63427 0.481322 0
M  V30 32097 H 3050.31 -4.71754 -1.7452 0
M  V30 32098 H 3050.01 -5.86148 -0.412897 0
M  V30 32099 H 3051.53 -5.95706 -1.34041 0
M  V30 32100 H 3052.94 -5.66007 0.911524 0
M  V30 32101 H 3051.34 -5.7561 1.69686 0
M  V30 32102 H 3052.41 -4.38988 2.05956 0
M  V30 32103 N 3053.75 -0.532597 -1.48328 0
M  V30 32104 C 3055.03 0.0650641 -1.95492 0
M  V30 32105 C 3055.41 1.51032 -1.47488 0
M  V30 32106 O 3054.76 2.17431 -0.702554 0
M  V30 32107 C 3054.97 -0.0548954 -3.48957 0
M  V30 32108 C 3056.32 0.10304 -4.24475 0
M  V30 32109 O 3057.34 0.0187717 -3.56195 0
M  V30 32110 O 3056.2 0.280068 -5.45782 0
M  V30 32111 H 3053.29 0.0778459 -0.823328 0
M  V30 32112 H 3055.84 -0.597381 -1.58838 0
M  V30 32113 H 3054.61 -1.06155 -3.76626 0
M  V30 32114 H 3054.24 0.646281 -3.92312 0
M  V30 32115 N 3055.23 1.55307 -0.267853 0
M  V30 32116 C 3056.18 2.18917 0.637129 0
M  V30 32117 C 3057.17 1.15151 1.12379 0
M  V30 32118 O 3058.36 1.40991 1.07007 0
M  V30 32119 C 3055.49 2.90824 1.82418 0
M  V30 32120 C 3054.57 4.0187 1.35505 0
M  V30 32121 N 3054.96 5.0221 0.601556 0
M  V30 32122 C 3053.26 4.14808 1.63861 0
M  V30 32123 C 3053.96 5.8061 0.355858 0
M  V30 32124 N 3052.94 5.35652 0.926177 0
M  V30 32125 H 3056.74 2.93851 0.053527 0
M  V30 32126 H 3054.26 1.62244 -0.0710863 0
M  V30 32127 H 3056.25 3.34838 2.48373 0
M  V30 32128 H 3054.91 2.17398 2.41181 0
M  V30 32129 H 3055.92 5.17298 0.249602 0
M  V30 32130 H 3052.6 3.52568 2.23611 0
M  V30 32131 H 3053.99 6.71445 -0.247112 0
M  V30 32132 N 3056.71 -0.00497598 1.57599 0
M  V30 32133 C 3057.64 -0.997013 2.11144 0
M  V30 32134 C 3058.62 -1.36168 1.01943 0
M  V30 32135 O 3059.81 -1.4463 1.29599 0
M  V30 32136 C 3056.94 -2.29045 2.61066 0
M  V30 32137 C 3055.89 -2.06754 3.74749 0
M  V30 32138 C 3055.22 -3.42068 4.10967 0
M  V30 32139 C 3056.52 -1.43415 5.02224 0
M  V30 32140 H 3058.21 -0.551199 2.94282 0
M  V30 32141 H 3055.76 -0.26369 1.41565 0
M  V30 32142 H 3057.71 -2.98796 2.97151 0
M  V30 32143 H 3056.43 -2.75731 1.75043 0
M  V30 32144 H 3055.09 -1.3943 3.3905 0
M  V30 32145 H 3054.74 -3.86447 3.21974 0
M  V30 32146 H 3054.44 -3.2797 4.87554 0
M  V30 32147 H 3055.96 -4.13142 4.49607 0
M  V30 32148 H 3057.38 -2.03116 5.36113 0
M  V30 32149 H 3055.78 -1.39821 5.83584 0
M  V30 32150 H 3056.85 -0.402765 4.83224 0
M  V30 32151 N 3058.19 -1.55135 -0.277654 0
M  V30 32152 C 3059.14 -1.87695 -1.3431 0
M  V30 32153 C 3060.11 -0.728 -1.49296 0
M  V30 32154 O 3061.29 -0.978835 -1.63779 0
M  V30 32155 C 3058.43 -2.15031 -2.69918 0
M  V30 32156 C 3057.54 -3.4257 -2.63191 0
M  V30 32157 C 3056.68 -3.59629 -3.90948 0
M  V30 32158 C 3055.72 -4.80877 -3.78713 0
M  V30 32159 N 3054.85 -4.94618 -4.98295 0
M  V30 32160 H 3059.69 -2.7857 -1.05842 0
M  V30 32161 H 3057.23 -1.37923 -0.511445 0
M  V30 32162 H 3059.19 -2.28878 -3.48813 0
M  V30 32163 H 3057.82 -1.27396 -2.96598 0
M  V30 32164 H 3056.87 -3.37219 -1.76032 0
M  V30 32165 H 3058.18 -4.31598 -2.50049 0
M  V30 32166 H 3057.34 -3.73268 -4.78284 0
M  V30 32167 H 3056.08 -2.68777 -4.06952 0
M  V30 32168 H 3055.08 -4.67246 -2.89761 0
M  V30 32169 H 3056.31 -5.73159 -3.64232 0
M  V30 32170 H 3054.25 -4.06696 -5.14718 0
M  V30 32171 H 3054.17 -5.77684 -4.87665 0
M  V30 32172 H 3055.44 -5.12638 -5.87216 0
M  V30 32173 N 3059.67 0.541953 -1.47989 0
M  V30 32174 C 3060.6 1.66387 -1.56175 0
M  V30 32175 C 3061.58 1.5727 -0.412906 0
M  V30 32176 O 3062.76 1.77913 -0.622847 0
M  V30 32177 C 3059.89 3.04723 -1.47857 0
M  V30 32178 C 3058.93 3.32237 -2.67434 0
M  V30 32179 S 3059.77 3.19817 -4.29508 0
M  V30 32180 C 3060.92 4.60621 -4.23768 0
M  V30 32181 H 3061.16 1.5919 -2.51089 0
M  V30 32182 H 3058.69 0.723981 -1.36374 0
M  V30 32183 H 3060.65 3.8451 -1.43744 0
M  V30 32184 H 3059.31 3.09371 -0.543012 0
M  V30 32185 H 3058.5 4.33125 -2.57719 0
M  V30 32186 H 3058.1 2.60098 -2.68747 0
M  V30 32187 H 3060.4 5.51894 -3.92963 0
M  V30 32188 H 3061.34 4.75391 -5.24794 0
M  V30 32189 H 3061.75 4.39383 -3.54405 0
M  V30 32190 N 3061.15 1.36376 0.789896 0
M  V30 32191 C 3062.39 1.29909 1.54294 0
M  V30 32192 C 3062.71 -0.119617 1.95234 0
M  V30 32193 O 3063.91 -0.306661 2.69763 0
M  V30 32194 C 3062.37 2.27924 2.78529 0
M  V30 32195 C 3061.98 3.75228 2.4476 0
M  V30 32196 C 3063.72 2.30433 3.56512 0
M  V30 32197 C 3061.63 4.65022 3.65389 0
M  V30 32198 H 3060.56 0.482739 0.579205 0
M  V30 32199 H 3063.21 1.61736 0.866816 0
M  V30 32200 H 3061.59 1.8909 3.47938 0
M  V30 32201 H 3062.77 4.22795 1.83252 0
M  V30 32202 H 3061.08 3.7549 1.7999 0
M  V30 32203 H 3063.68 2.94729 4.46137 0
M  V30 32204 H 3064.02 1.31273 3.95061 0
M  V30 32205 H 3064.55 2.67881 2.94082 0
M  V30 32206 H 3061.29 5.65242 3.31936 0
M  V30 32207 H 3060.81 4.22171 4.26065 0
M  V30 32208 H 3062.49 4.81269 4.32422 0
M  V30 32209 N 3062.62 -1.014 1.20647 0
M  V30 32210 C 3063.59 -2.08156 0.95935 0
M  V30 32211 C 3064.59 -1.60664 -0.0661276 0
M  V30 32212 O 3065.78 -1.73366 0.170208 0
M  V30 32213 C 3062.91 -3.37985 0.444844 0
M  V30 32214 H 3064.1 -2.31513 1.90635 0
M  V30 32215 H 3061.65 -1.1824 1.02221 0
M  V30 32216 H 3062.39 -3.20304 -0.507497 0
M  V30 32217 H 3062.17 -3.73783 1.18442 0
M  V30 32218 H 3063.66 -4.16581 0.291516 0
M  V30 32219 N 3064.1 -1.01278 -1.2075 0
M  V30 32220 C 3065.33 -0.717968 -1.93723 0
M  V30 32221 C 3065.74 0.724702 -1.7477 0
M  V30 32222 O 3065.08 1.50283 -1.05644 0
M  V30 32223 C 3065.14 -0.969015 -3.46194 0
M  V30 32224 C 3064.81 -2.40005 -3.88904 0
M  V30 32225 C 3065.81 -3.38068 -3.94976 0
M  V30 32226 C 3063.49 -2.73977 -4.21001 0
M  V30 32227 C 3065.48 -4.68166 -4.32549 0
M  V30 32228 C 3063.17 -4.0429 -4.5825 0
M  V30 32229 C 3064.17 -5.01196 -4.63996 0
M  V30 32230 O 3063.86 -6.29177 -5.00392 0
M  V30 32231 H 3063.59 -0.263197 -0.622658 0
M  V30 32232 H 3066.14 -1.3558 -1.54296 0
M  V30 32233 H 3064.37 -0.27402 -3.85728 0
M  V30 32234 H 3066.06 -0.666382 -4.00393 0
M  V30 32235 H 3066.83 -3.13157 -3.70348 0
M  V30 32236 H 3062.71 -1.9924 -4.15722 0
M  V30 32237 H 3066.25 -5.43803 -4.36949 0
M  V30 32238 H 3062.15 -4.28981 -4.82333 0
M  V30 32239 H 3062.92 -6.33408 -5.18398 0
M  V30 32240 N 3065.58 1.36456 -0.788516 0
M  V30 32241 C 3066.83 1.98872 -0.359784 0
M  V30 32242 C 3067.15 1.62894 1.07194 0
M  V30 32243 O 3066.42 0.902493 1.73873 0
M  V30 32244 H 3065 0.735594 -0.130042 0
M  V30 32245 H 3067.66 1.66667 -1.01036 0
M  V30 32246 H 3066.76 3.08826 -0.45089 0
M  V30 32247 N 3067.06 0.540456 1.48043 0
M  V30 32248 C 3068.33 -0.0546958 1.95524 0
M  V30 32249 C 3068.71 -1.50248 1.48287 0
M  V30 32250 O 3068.06 -2.17056 0.714075 0
M  V30 32251 C 3068.27 0.0734007 3.48923 0
M  V30 32252 C 3069.62 -0.0805279 4.24524 0
M  V30 32253 O 3070.64 0.00011848 3.562 0
M  V30 32254 O 3069.5 -0.25112 5.45923 0
M  V30 32255 H 3066.6 -0.0734785 0.823729 0
M  V30 32256 H 3069.14 0.605796 1.58519 0
M  V30 32257 H 3067.92 1.0815 3.76057 0
M  V30 32258 H 3067.54 -0.625467 3.9265 0
M  V30 32259 N 3068.54 -1.55163 0.276085 0
M  V30 32260 C 3069.81 -1.91626 -0.392259 0
M  V30 32261 C 3070.19 -1.20046 -1.73644 0
M  V30 32262 O 3069.54 -0.327646 -2.26139 0
M  V30 32263 C 3069.75 -3.44928 -0.53158 0
M  V30 32264 C 3071.1 -4.16724 -0.814027 0
M  V30 32265 O 3072.12 -3.50827 -0.616351 0
M  V30 32266 O 3070.98 -5.33339 -1.19215 0
M  V30 32267 H 3068.08 -0.798582 -0.214931 0
M  V30 32268 H 3070.62 -1.66611 0.322309 0
M  V30 32269 H 3069.39 -3.891 0.41435 0
M  V30 32270 H 3069.02 -3.759 -1.29558 0
M  V30 32271 N 3070.01 -0.00338196 -1.576 0
M  V30 32272 C 3071.26 0.681766 -1.90997 0
M  V30 32273 C 3071.59 1.73235 -0.877673 0
M  V30 32274 O 3070.87 1.94226 0.103149 0
M  V30 32275 C 3071.15 1.32181 -3.34963 0
M  V30 32276 C 3071 0.282532 -4.48912 0
M  V30 32277 C 3072.32 2.24704 -3.78412 0
M  V30 32278 H 3069.44 0.246373 -0.6946 0
M  V30 32279 H 3072.08 -0.0553694 -1.89919 0
M  V30 32280 H 3070.23 1.95008 -3.36012 0
M  V30 32281 H 3071.91 -0.346322 -4.59998 0
M  V30 32282 H 3070.15 -0.394844 -4.31999 0
M  V30 32283 H 3070.82 0.76948 -5.4661 0
M  V30 32284 H 3073.3 1.7189 -3.78937 0
M  V30 32285 H 3072.17 2.66452 -4.7989 0
M  V30 32286 H 3072.43 3.12754 -3.12469 0
M  V30 32287 N 3071.49 1.5528 0.269423 0
M  V30 32288 C 3072.74 1.75259 0.99835 0
M  V30 32289 C 3073.05 0.563067 1.8732 0
M  V30 32290 O 3074.26 0.645359 2.63718 0
M  V30 32291 C 3072.72 3.10197 1.82499 0
M  V30 32292 C 3072.32 4.36728 0.998633 0
M  V30 32293 C 3074.07 3.39524 2.54801 0
M  V30 32294 C 3071.97 5.62703 1.81987 0
M  V30 32295 H 3070.9 0.653285 0.376477 0
M  V30 32296 H 3073.56 1.81735 0.253877 0
M  V30 32297 H 3071.94 2.97768 2.61056 0
M  V30 32298 H 3073.11 4.60083 0.256983 0
M  V30 32299 H 3071.43 4.1457 0.390001 0
M  V30 32300 H 3074.02 4.30853 3.16654 0
M  V30 32301 H 3074.37 2.59819 3.25269 0
M  V30 32302 H 3074.9 3.53067 1.83271 0
M  V30 32303 H 3071.64 6.45166 1.15933 0
M  V30 32304 H 3071.16 5.43485 2.53739 0
M  V30 32305 H 3072.84 6.01134 2.39263 0
M  V30 32306 N 3072.97 -0.534097 1.48274 0
M  V30 32307 C 3073.93 -1.62124 1.62013 0
M  V30 32308 C 3074.93 -1.53034 0.49368 0
M  V30 32309 O 3076.12 -1.56778 0.759364 0
M  V30 32310 C 3073.25 -3.01736 1.58645 0
M  V30 32311 H 3074.45 -1.51284 2.58946 0
M  V30 32312 H 3072 -0.755837 1.36809 0
M  V30 32313 H 3072.74 -3.18087 0.631741 0
M  V30 32314 H 3072.52 -3.09743 2.4042 0
M  V30 32315 H 3074.01 -3.80784 1.71445 0
M  V30 32316 N 3074.45 -1.36793 -0.782652 0
M  V30 32317 C 3075.67 -1.34735 -1.57674 0
M  V30 32318 C 3076.1 0.0674923 -1.87979 0
M  V30 32319 O 3075.46 1.04141 -1.48406 0
M  V30 32320 C 3075.5 -2.18262 -2.87044 0
M  V30 32321 O 3074.61 -1.57976 -3.80943 0
M  V30 32322 H 3073.95 -0.460855 -0.478026 0
M  V30 32323 H 3076.48 -1.80169 -0.969547 0
M  V30 32324 H 3076.49 -2.31085 -3.3625 0
M  V30 32325 H 3075.16 -3.21109 -2.64314 0
M  V30 32326 H 3073.74 -1.54132 -3.39555 0
M  V30 32327 N 3075.93 1.00759 -1.21184 0
M  V30 32328 C 3077.16 1.77819 -1.05185 0
M  V30 32329 C 3077.56 1.84891 0.401495 0
M  V30 32330 O 3076.91 1.30746 1.2904 0
M  V30 32331 C 3076.97 3.23371 -1.57071 0
M  V30 32332 C 3076.63 3.39883 -3.05497 0
M  V30 32333 C 3077.63 3.28374 -4.03071 0
M  V30 32334 C 3075.32 3.65409 -3.44647 0
M  V30 32335 C 3077.31 3.4215 -5.37784 0
M  V30 32336 C 3075 3.78827 -4.79513 0
M  V30 32337 C 3075.99 3.67204 -5.75891 0
M  V30 32338 O 3075.68 3.80199 -7.0831 0
M  V30 32339 H 3075.41 0.565757 -0.369993 0
M  V30 32340 H 3077.97 1.27652 -1.60917 0
M  V30 32341 H 3076.2 3.74662 -0.957339 0
M  V30 32342 H 3077.89 3.82097 -1.36956 0
M  V30 32343 H 3078.65 3.08582 -3.74169 0
M  V30 32344 H 3074.53 3.73539 -2.70166 0
M  V30 32345 H 3078.08 3.32995 -6.12993 0
M  V30 32346 H 3073.97 3.98123 -5.08103 0
M  V30 32347 H 3074.74 3.97163 -7.15684 0
M  V30 32348 N 3077.4 1.01917 1.20211 0
M  V30 32349 C 3078.82 0.741161 1.71358 0
M  V30 32350 C 3079.17 -0.740076 1.81707 0
M  V30 32351 O 3078.29 -1.57743 1.48142 0
M  V30 32352 C 3078.89 1.33875 3.11228 0
M  V30 32353 C 3077.45 1.10955 3.59675 0
M  V30 32354 C 3076.59 1.44284 2.36807 0
M  V30 32355 H 3079.54 1.18832 1.05189 0
M  V30 32356 H 3079.56 0.73065 3.73419 0
M  V30 32357 H 3079.08 2.41681 3.03664 0
M  V30 32358 H 3077.18 0.0492707 3.72567 0
M  V30 32359 H 3077.29 1.79141 4.44348 0
M  V30 32360 H 3075.65 0.861924 2.39673 0
M  V30 32361 H 3076.44 2.53152 2.31881 0
M  V30 32362 N 3078.88 -1.36036 0.795742 0
M  V30 32363 C 3079.83 -2.27354 0.171477 0
M  V30 32364 C 3080.82 -1.4726 -0.64832 0
M  V30 32365 O 3082.01 -1.69573 -0.507356 0
M  V30 32366 C 3079.14 -3.36339 -0.687817 0
M  V30 32367 C 3078.22 -4.23865 0.141115 0
M  V30 32368 N 3078.61 -4.91389 1.19876 0
M  V30 32369 C 3076.91 -4.4593 -0.0790262 0
M  V30 32370 C 3077.61 -5.56185 1.70392 0
M  V30 32371 N 3076.59 -5.34095 1.01211 0
M  V30 32372 H 3080.39 -2.77048 0.980895 0
M  V30 32373 H 3077.91 -1.49436 0.635824 0
M  V30 32374 H 3079.9 -4.00696 -1.151 0
M  V30 32375 H 3078.56 -2.88199 -1.49571 0
M  V30 32376 H 3079.57 -4.93169 1.58128 0
M  V30 32377 H 3076.25 -4.08611 -0.856921 0
M  V30 32378 H 3077.64 -6.20089 2.58726 0
M  V30 32379 N 3080.36 -0.5483 -1.47755 0
M  V30 32380 C 3081.27 0.207732 -2.33678 0
M  V30 32381 C 3082.29 0.920817 -1.47638 0
M  V30 32382 O 3083.46 0.891699 -1.80584 0
M  V30 32383 C 3080.53 1.22997 -3.24149 0
M  V30 32384 C 3079.59 0.525275 -4.26074 0
M  V30 32385 C 3078.82 1.49881 -5.12222 0
M  V30 32386 O 3079.04 2.73296 -5.00665 0
M  V30 32387 O 3077.98 1.02818 -5.93053 0
M  V30 32388 H 3081.8 -0.496847 -2.99608 0
M  V30 32389 H 3079.39 -0.309008 -1.46169 0
M  V30 32390 H 3081.27 1.82027 -3.80058 0
M  V30 32391 H 3079.95 1.91663 -2.60858 0
M  V30 32392 H 3078.85 -0.105993 -3.7395 0
M  V30 32393 H 3080.19 -0.119773 -4.92054 0
M  V30 32394 N 3081.84 1.55014 -0.28431 0
M  V30 32395 C 3083.08 2.00092 0.330317 0
M  V30 32396 C 3083.42 1.17247 1.54812 0
M  V30 32397 O 3082.69 0.244787 1.92953 0
M  V30 32398 C 3082.98 3.53163 0.70343 0
M  V30 32399 C 3082.83 4.46757 -0.522354 0
M  V30 32400 C 3084.15 4.12412 1.53638 0
M  V30 32401 H 3081.27 0.727397 0.118587 0
M  V30 32402 H 3083.91 1.85889 -0.393087 0
M  V30 32403 H 3082.06 3.65396 1.31977 0
M  V30 32404 H 3083.73 4.46454 -1.1609 0
M  V30 32405 H 3081.97 4.18038 -1.15872 0
M  V30 32406 H 3082.64 5.51572 -0.217392 0
M  V30 32407 H 3085.12 4.03511 1.01576 0
M  V30 32408 H 3084 5.19707 1.76624 0
M  V30 32409 H 3084.26 3.63224 2.52034 0
M  V30 32410 N 3083.32 0.0117398 1.57596 0
M  V30 32411 C 3084.59 -0.708324 1.82324 0
M  V30 32412 C 3084.97 -1.91329 0.891981 0
M  V30 32413 O 3084.32 -2.2843 -0.0565582 0
M  V30 32414 C 3084.53 -1.10297 3.31113 0
M  V30 32415 C 3085.88 -1.50192 3.97149 0
M  V30 32416 O 3086.9 -1.19644 3.35505 0
M  V30 32417 O 3085.76 -2.0704 5.05763 0
M  V30 32418 H 3082.86 -0.345918 0.751179 0
M  V30 32419 H 3085.4 0.0380931 1.69657 0
M  V30 32420 H 3084.17 -0.244602 3.90535 0
M  V30 32421 H 3083.8 -1.90812 3.48822 0
M  V30 32422 N 3084.79 -1.55421 -0.261185 0
M  V30 32423 C 3085.76 -1.88322 -1.30642 0
M  V30 32424 C 3086.76 -0.758613 -1.4178 0
M  V30 32425 O 3087.95 -1.02671 -1.40727 0
M  V30 32426 C 3085.08 -2.099 -2.68617 0
M  V30 32427 H 3086.27 -2.8177 -1.02693 0
M  V30 32428 H 3083.83 -1.48093 -0.499812 0
M  V30 32429 H 3084.56 -1.18873 -3.01728 0
M  V30 32430 H 3084.35 -2.91792 -2.61916 0
M  V30 32431 H 3085.84 -2.36587 -3.44116 0
M  V30 32432 N 3086.27 0.526227 -1.48555 0
M  V30 32433 C 3087.5 1.31126 -1.60688 0
M  V30 32434 C 3087.92 1.8617 -0.268734 0
M  V30 32435 O 3087.28 1.64595 0.760138 0
M  V30 32436 C 3087.33 2.43531 -2.65942 0
M  V30 32437 O 3086.43 3.46674 -2.23362 0
M  V30 32438 H 3085.77 0.388202 -0.538698 0
M  V30 32439 H 3088.3 0.632791 -1.94569 0
M  V30 32440 H 3088.31 2.89663 -2.87332 0
M  V30 32441 H 3086.99 2.02829 -3.63088 0
M  V30 32442 H 3085.57 3.06635 -2.12201 0
M  V30 32443 N 3087.75 1.37206 0.775387 0
M  V30 32444 C 3088.68 1.3537 1.90255 0
M  V30 32445 C 3089.66 0.222893 1.68633 0
M  V30 32446 O 3090.85 0.422692 1.89544 0
M  V30 32447 C 3087.98 1.15628 3.27486 0
M  V30 32448 C 3086.93 2.25682 3.63664 0
M  V30 32449 C 3086.26 1.91068 4.99397 0
M  V30 32450 C 3087.56 3.67848 3.7079 0
M  V30 32451 H 3089.25 2.2969 1.92049 0
M  V30 32452 H 3086.8 1.10565 0.922577 0
M  V30 32453 H 3088.75 1.12975 4.05974 0
M  V30 32454 H 3087.47 0.17763 3.26117 0
M  V30 32455 H 3086.13 2.27485 2.87482 0
M  V30 32456 H 3085.78 0.917411 4.94563 0
M  V30 32457 H 3085.48 2.64761 5.24572 0
M  V30 32458 H 3087 1.89995 5.80288 0
M  V30 32459 H 3088.42 3.68195 4.39437 0
M  V30 32460 H 3086.82 4.40564 4.0746 0
M  V30 32461 H 3087.89 4.01737 2.71542 0
M  V30 32462 N 3089.23 -1.00115 1.21716 0
M  V30 32463 C 3090.16 -2.10813 1.004 0
M  V30 32464 C 3091.14 -1.69946 -0.0723203 0
M  V30 32465 O 3092.32 -1.93999 0.0882739 0
M  V30 32466 C 3089.45 -3.42556 0.572061 0
M  V30 32467 C 3088.41 -3.97235 1.59338 0
M  V30 32468 C 3087.73 -5.24929 1.01755 0
M  V30 32469 C 3089.03 -4.28858 2.98125 0
M  V30 32470 H 3090.73 -2.28903 1.92987 0
M  V30 32471 H 3088.27 -1.10001 0.929292 0
M  V30 32472 H 3090.23 -4.194 0.410092 0
M  V30 32473 H 3088.95 -3.2427 -0.389453 0
M  V30 32474 H 3087.61 -3.22515 1.74298 0
M  V30 32475 H 3087.26 -5.02977 0.0476375 0
M  V30 32476 H 3086.96 -5.62478 1.69979 0
M  V30 32477 H 3088.48 -6.04414 0.866987 0
M  V30 32478 H 3089.9 -4.96529 2.86586 0
M  V30 32479 H 3088.29 -4.77559 3.63397 0
M  V30 32480 H 3089.36 -3.36973 3.4868 0
M  V30 32481 N 3090.71 -1.02553 -1.19669 0
M  V30 32482 C 3091.67 -0.608094 -2.20986 0
M  V30 32483 C 3092.67 0.326506 -1.5745 0
M  V30 32484 O 3093.86 0.113972 -1.73827 0
M  V30 32485 C 3090.99 0.110681 -3.4072 0
M  V30 32486 H 3092.19 -1.50451 -2.59431 0
M  V30 32487 H 3089.74 -0.81633 -1.33288 0
M  V30 32488 H 3090.47 1.02159 -3.07789 0
M  V30 32489 H 3090.26 -0.56084 -3.88068 0
M  V30 32490 H 3091.75 0.389774 -4.15777 0
M  V30 32491 N 3092.19 1.35612 -0.802945 0
M  V30 32492 C 3093.12 2.2858 -0.168501 0
M  V30 32493 C 3094.13 1.50112 0.630097 0
M  V30 32494 O 3095.32 1.72389 0.463056 0
M  V30 32495 C 3092.42 3.2971 0.783885 0
M  V30 32496 C 3091.59 4.37388 0.0324396 0
M  V30 32497 C 3090.65 5.18398 0.902767 0
M  V30 32498 O 3089.68 5.68092 0.355044 0
M  V30 32499 N 3090.88 5.36153 2.22532 0
M  V30 32500 H 3093.64 2.83666 -0.96714 0
M  V30 32501 H 3091.21 1.47922 -0.658069 0
M  V30 32502 H 3093.2 3.80796 1.37027 0
M  V30 32503 H 3091.77 2.75165 1.48334 0
M  V30 32504 H 3090.99 3.87285 -0.735125 0
M  V30 32505 H 3092.28 5.06478 -0.485589 0
M  V30 32506 H 3091.67 4.97417 2.6943 0
M  V30 32507 H 3090.23 5.90432 2.76103 0
M  V30 32508 N 3093.66 0.556128 1.47462 0
M  V30 32509 C 3094.89 0.0345093 2.07371 0
M  V30 32510 C 3095.31 -1.24927 1.40623 0
M  V30 32511 O 3094.67 -1.74807 0.480851 0
M  V30 32512 C 3094.72 -0.145499 3.60306 0
M  V30 32513 O 3093.82 -1.20832 3.94301 0
M  V30 32514 H 3093.16 0.050839 0.662051 0
M  V30 32515 H 3095.69 0.771502 1.89497 0
M  V30 32516 H 3095.7 -0.360041 4.06408 0
M  V30 32517 H 3094.38 0.79216 4.08286 0
M  V30 32518 H 3092.96 -0.974357 3.59945 0
M  V30 32519 N 3095.14 -1.54861 0.292527 0
M  V30 32520 C 3096.39 -1.99573 -0.318598 0
M  V30 32521 C 3096.71 -1.18243 -1.5506 0
M  V30 32522 O 3095.98 -0.27626 -1.93942 0
M  V30 32523 H 3094.56 -0.737183 -0.120709 0
M  V30 32524 H 3097.22 -1.90711 0.401896 0
M  V30 32525 H 3096.32 -3.06347 -0.596488 0
M  V30 32526 N 3096.62 -0.0200973 -1.57587 0
M  V30 32527 C 3097.57 0.964754 -2.09669 0
M  V30 32528 C 3098.54 1.32875 -0.996663 0
M  V30 32529 O 3099.72 1.42364 -1.27032 0
M  V30 32530 C 3096.86 2.24489 -2.62104 0
M  V30 32531 C 3095.97 1.93814 -3.86083 0
M  V30 32532 C 3095.11 3.16056 -4.26945 0
M  V30 32533 C 3094.15 2.8116 -5.43706 0
M  V30 32534 N 3093.29 3.95999 -5.79766 0
M  V30 32535 H 3098.13 0.513699 -2.93539 0
M  V30 32536 H 3095.66 0.241974 -1.45096 0
M  V30 32537 H 3097.62 2.99353 -2.90592 0
M  V30 32538 H 3096.25 2.67227 -1.81079 0
M  V30 32539 H 3095.3 1.09231 -3.6438 0
M  V30 32540 H 3096.61 1.64107 -4.71031 0
M  V30 32541 H 3095.77 3.99249 -4.56821 0
M  V30 32542 H 3094.51 3.48918 -3.40746 0
M  V30 32543 H 3093.51 1.96378 -5.13533 0
M  V30 32544 H 3094.74 2.49524 -6.31597 0
M  V30 32545 H 3092.68 4.2872 -4.96523 0
M  V30 32546 H 3092.6 3.69885 -6.59334 0
M  V30 32547 H 3093.87 4.79922 -6.14244 0
M  V30 32548 N 3098.1 1.55557 0.252939 0
M  V30 32549 C 3099.37 1.67849 1.00429 0
M  V30 32550 C 3099.75 0.558196 2.03586 0
M  V30 32551 O 3099.1 -0.439158 2.2424 0
M  V30 32552 C 3099.31 3.07903 1.64307 0
M  V30 32553 C 3100.66 3.66307 2.1472 0
M  V30 32554 O 3101.68 3.10664 1.74259 0
M  V30 32555 O 3100.54 4.63838 2.88992 0
M  V30 32556 H 3097.64 0.682463 0.46709 0
M  V30 32557 H 3100.18 1.6789 0.247204 0
M  V30 32558 H 3098.96 3.80889 0.896614 0
M  V30 32559 H 3098.58 3.11847 2.46652 0
M  V30 32560 N 3099.58 -0.518341 1.48832 0
M  V30 32561 C 3100.81 -1.29609 1.60889 0
M  V30 32562 C 3101.21 -1.87224 0.272746 0
M  V30 32563 O 3100.56 -1.67709 -0.749624 0
M  V30 32564 C 3100.62 -2.47702 2.60545 0
M  V30 32565 C 3100.28 -2.11088 4.05328 0
M  V30 32566 C 3101.28 -1.66075 4.92661 0
M  V30 32567 C 3098.96 -2.21254 4.50946 0
M  V30 32568 C 3100.96 -1.31709 6.23644 0
M  V30 32569 C 3098.65 -1.865 5.81946 0
M  V30 32570 C 3099.64 -1.418 6.68118 0
M  V30 32571 O 3099.33 -1.07508 7.96679 0
M  V30 32572 H 3099.06 -0.399972 0.544975 0
M  V30 32573 H 3101.62 -0.630765 1.95475 0
M  V30 32574 H 3099.85 -3.17254 2.21103 0
M  V30 32575 H 3101.54 -3.09752 2.62313 0
M  V30 32576 H 3102.3 -1.57681 4.58652 0
M  V30 32577 H 3098.18 -2.55 3.84052 0
M  V30 32578 H 3101.73 -0.967476 6.90859 0
M  V30 32579 H 3097.62 -1.94538 6.15488 0
M  V30 32580 H 3098.39 -1.20805 8.09536 0
M  V30 32581 N 3101.05 -1.37615 -0.7681 0
M  V30 32582 C 3102.3 -1.32762 -1.52377 0
M  V30 32583 C 3102.62 0.0863222 -1.94809 0
M  V30 32584 O 3101.89 1.03109 -1.6657 0
M  V30 32585 H 3100.47 -0.488458 -0.565171 0
M  V30 32586 H 3103.13 -1.72143 -0.913944 0
M  V30 32587 H 3102.23 -1.96905 -2.42146 0
M  V30 32588 N 3102.53 0.994677 -1.22245 0
M  V30 32589 C 3103.46 2.10277 -1.01517 0
M  V30 32590 C 3104.44 1.69982 0.0633067 0
M  V30 32591 O 3105.63 1.9395 -0.0985609 0
M  V30 32592 C 3102.76 3.42248 -0.59022 0
M  V30 32593 C 3101.71 3.96384 -1.61443 0
M  V30 32594 C 3101.04 5.24382 -1.04537 0
M  V30 32595 C 3102.34 4.2727 -3.00395 0
M  V30 32596 H 3104.03 2.27876 -1.94198 0
M  V30 32597 H 3101.58 1.09506 -0.935113 0
M  V30 32598 H 3103.53 4.19176 -0.432328 0
M  V30 32599 H 3102.25 3.24472 0.372251 0
M  V30 32600 H 3100.91 3.21586 -1.76006 0
M  V30 32601 H 3100.56 5.02945 -0.0743109 0
M  V30 32602 H 3100.26 5.61568 -1.72959 0
M  V30 32603 H 3101.79 6.03945 -0.899028 0
M  V30 32604 H 3103.2 4.95002 -2.89216 0
M  V30 32605 H 3101.6 4.75625 -3.65925 0
M  V30 32606 H 3102.67 3.35119 -3.50462 0
M  V30 32607 N 3104.01 1.03186 1.19123 0
M  V30 32608 C 3105.24 0.749784 1.92836 0
M  V30 32609 C 3105.65 -0.69182 1.75668 0
M  V30 32610 O 3105.01 -1.47074 1.08053 0
M  V30 32611 C 3105.06 1.09532 3.44507 0
M  V30 32612 O 3104.78 2.48031 3.61126 0
M  V30 32613 C 3106.28 0.836473 4.35337 0
M  V30 32614 H 3103.5 0.274116 0.612455 0
M  V30 32615 H 3106.05 1.37715 1.51178 0
M  V30 32616 H 3104.2 0.513073 3.83987 0
M  V30 32617 H 3104.62 2.60992 4.54955 0
M  V30 32618 H 3106.09 1.12818 5.40348 0
M  V30 32619 H 3106.57 -0.229025 4.38602 0
M  V30 32620 H 3107.17 1.40159 4.01541 0
M  V30 32621 N 3105.49 -1.35184 0.810125 0
M  V30 32622 C 3106.42 -2.27577 0.168456 0
M  V30 32623 C 3107.4 -1.48261 -0.667637 0
M  V30 32624 O 3108.58 -1.77513 -0.634153 0
M  V30 32625 C 3105.71 -3.29926 -0.765936 0
M  V30 32626 C 3104.76 -4.26499 -0.00901305 0
M  V30 32627 S 3105.59 -5.18735 1.32945 0
M  V30 32628 C 3106.75 -6.24623 0.399595 0
M  V30 32629 H 3106.98 -2.81652 0.951803 0
M  V30 32630 H 3104.51 -1.42038 0.605365 0
M  V30 32631 H 3106.47 -3.89387 -1.29953 0
M  V30 32632 H 3105.13 -2.74723 -1.5227 0
M  V30 32633 H 3104.32 -4.98847 -0.718831 0
M  V30 32634 H 3103.93 -3.71225 0.454729 0
M  V30 32635 H 3106.22 -6.76235 -0.413785 0
M  V30 32636 H 3107.16 -6.99623 1.09237 0
M  V30 32637 H 3107.57 -5.645 -0.00628436 0
M  V30 32638 N 3106.97 -0.56394 -1.47165 0
M  V30 32639 C 3108.19 -0.047465 -2.06846 0
M  V30 32640 C 3108.61 1.24925 -1.4156 0
M  V30 32641 O 3107.97 1.751 -0.514407 0
M  V30 32642 C 3108.02 0.144767 -3.6121 0
M  V30 32643 O 3107.74 -1.10061 -4.2405 0
M  V30 32644 C 3109.24 0.697753 -4.37774 0
M  V30 32645 H 3106.46 -0.0489014 -0.669216 0
M  V30 32646 H 3109 -0.779269 -1.8907 0
M  V30 32647 H 3107.16 0.826723 -3.78476 0
M  V30 32648 H 3107.57 -0.902571 -5.16676 0
M  V30 32649 H 3109.05 0.78152 -5.4644 0
M  V30 32650 H 3109.52 1.71056 -4.0452 0
M  V30 32651 H 3110.13 0.0512769 -4.25269 0
M  V30 32652 N 3108.44 1.54704 -0.300735 0
M  V30 32653 C 3109.86 1.85711 0.191962 0
M  V30 32654 C 3110.21 1.22267 1.53445 0
M  V30 32655 O 3109.33 0.520263 2.10053 0
M  V30 32656 C 3109.93 3.36934 0.355089 0
M  V30 32657 C 3108.49 3.67973 0.792006 0
M  V30 32658 C 3107.63 2.7712 -0.0998048 0
M  V30 32659 H 3110.58 1.49878 -0.521756 0
M  V30 32660 H 3110.6 3.61423 1.1897 0
M  V30 32661 H 3110.12 3.83081 -0.622143 0
M  V30 32662 H 3108.22 3.27344 1.7798 0
M  V30 32663 H 3108.33 4.75181 0.611578 0
M  V30 32664 H 3106.69 2.51199 0.420864 0
M  V30 32665 H 3107.48 3.26088 -1.07339 0
M  V30 32666 N 3109.92 0.0284543 1.57574 0
M  V30 32667 C 3110.89 -0.938654 2.09098 0
M  V30 32668 C 3111.89 -1.25452 1.0059 0
M  V30 32669 O 3113.08 -1.19497 1.26752 0
M  V30 32670 C 3110.21 -2.25538 2.55628 0
M  V30 32671 H 3111.4 -0.492428 2.9583 0
M  V30 32672 H 3108.95 -0.219567 1.5475 0
M  V30 32673 H 3109.69 -2.7479 1.72223 0
M  V30 32674 H 3109.47 -2.03923 3.349 0
M  V30 32675 H 3110.96 -2.94858 2.95717 0
M  V30 32676 N 3111.4 -1.55689 -0.244686 0
M  V30 32677 C 3112.68 -1.68379 -0.995377 0
M  V30 32678 C 3113.06 -0.568985 -2.03287 0
M  V30 32679 O 3112.41 0.42726 -2.2447 0
M  V30 32680 C 3112.62 -3.0877 -1.62672 0
M  V30 32681 C 3113.96 -3.6744 -2.12774 0
M  V30 32682 O 3114.99 -3.11584 -1.72609 0
M  V30 32683 O 3113.85 -4.65365 -2.86528 0
M  V30 32684 H 3110.94 -0.684931 -0.463464 0
M  V30 32685 H 3113.49 -1.68019 -0.238297 0
M  V30 32686 H 3112.26 -3.81359 -0.876402 0
M  V30 32687 H 3111.88 -3.13151 -2.44995 0
M  V30 32688 N 3112.88 0.510441 -1.49105 0
M  V30 32689 C 3113.83 1.61302 -1.65077 0
M  V30 32690 C 3114.8 1.58634 -0.49239 0
M  V30 32691 O 3115.98 1.76764 -0.718272 0
M  V30 32692 C 3113.12 2.9949 -1.71463 0
M  V30 32693 C 3112.23 3.12245 -2.98541 0
M  V30 32694 C 3111.37 4.4111 -2.95965 0
M  V30 32695 C 3110.41 4.47464 -4.17663 0
M  V30 32696 N 3109.54 5.67744 -4.13051 0
M  V30 32697 H 3114.38 1.46991 -2.59225 0
M  V30 32698 H 3111.92 0.715323 -1.28536 0
M  V30 32699 H 3113.88 3.79574 -1.73146 0
M  V30 32700 H 3112.51 3.12527 -0.807889 0
M  V30 32701 H 3111.56 2.25287 -3.06513 0
M  V30 32702 H 3112.87 3.128 -3.88532 0
M  V30 32703 H 3112.03 5.29505 -2.96158 0
M  V30 32704 H 3110.77 4.43106 -2.03735 0
M  V30 32705 H 3109.77 3.57473 -4.17723 0
M  V30 32706 H 3111 4.47191 -5.11074 0
M  V30 32707 H 3108.94 5.706 -3.23653 0
M  V30 32708 H 3108.86 5.69876 -4.96767 0
M  V30 32709 H 3110.13 6.58372 -4.17333 0
M  V30 32710 N 3114.36 1.38021 0.760791 0
M  V30 32711 C 3115.58 1.37227 1.55511 0
M  V30 32712 C 3116.01 -0.0375779 1.88062 0
M  V30 32713 O 3115.36 -1.01767 1.50044 0
M  V30 32714 C 3115.41 2.22801 2.83535 0
M  V30 32715 O 3114.52 1.64016 3.78381 0
M  V30 32716 H 3113.86 0.468401 0.470634 0
M  V30 32717 H 3116.39 1.81689 0.94076 0
M  V30 32718 H 3116.4 2.36405 3.32531 0
M  V30 32719 H 3115.07 3.25273 2.59172 0
M  V30 32720 H 3113.65 1.59514 3.3706 0
M  V30 32721 N 3115.83 -0.98818 1.22771 0
M  V30 32722 C 3116.8 -2.06075 1.00329 0
M  V30 32723 C 3117.8 -1.60768 -0.0320335 0
M  V30 32724 O 3118.99 -1.72966 0.206943 0
M  V30 32725 C 3116.12 -3.36966 0.516436 0
M  V30 32726 H 3117.31 -2.27418 1.95503 0
M  V30 32727 H 3114.87 -1.16045 1.04706 0
M  V30 32728 H 3115.6 -3.21309 -0.439441 0
M  V30 32729 H 3115.39 -3.71187 1.26344 0
M  V30 32730 H 3116.88 -4.15869 0.379813 0
M  V30 32731 N 3117.31 -1.03816 -1.18575 0
M  V30 32732 C 3118.54 -0.76 -1.92436 0
M  V30 32733 C 3118.96 0.682495 -1.76033 0
M  V30 32734 O 3118.31 1.46499 -1.08831 0
M  V30 32735 C 3118.36 -1.11357 -3.43921 0
M  V30 32736 O 3118.08 -2.49943 -3.59806 0
M  V30 32737 C 3119.59 -0.859548 -4.34887 0
M  V30 32738 H 3116.81 -0.27736 -0.610993 0
M  V30 32739 H 3119.35 -1.38515 -1.50446 0
M  V30 32740 H 3117.5 -0.53343 -3.8371 0
M  V30 32741 H 3117.92 -2.63401 -4.53564 0
M  V30 32742 H 3119.39 -1.15682 -5.39742 0
M  V30 32743 H 3119.87 0.205762 -4.38718 0
M  V30 32744 H 3120.48 -1.42287 -4.00793 0
M  V30 32745 N 3118.79 1.34753 -0.817283 0
M  V30 32746 C 3120.04 1.98456 -0.402682 0
M  V30 32747 C 3120.37 1.64811 1.03284 0
M  V30 32748 O 3119.62 0.908882 1.73314 0
M  V30 32749 C 3119.92 3.53215 -0.545362 0
M  V30 32750 C 3119.59 4.06756 -1.94578 0
M  V30 32751 C 3118.25 4.2109 -2.32888 0
M  V30 32752 C 3120.6 4.35624 -2.86149 0
M  V30 32753 C 3117.93 4.61615 -3.62116 0
M  V30 32754 C 3120.28 4.77593 -4.14834 0
M  V30 32755 C 3118.94 4.90132 -4.5313 0
M  V30 32756 H 3118.21 0.726201 -0.147352 0
M  V30 32757 H 3120.86 1.6079 -1.04014 0
M  V30 32758 H 3119.17 3.91407 0.175507 0
M  V30 32759 H 3120.86 4.00475 -0.205182 0
M  V30 32760 H 3117.45 3.96058 -1.63817 0
M  V30 32761 H 3121.64 4.24093 -2.57796 0
M  V30 32762 H 3116.89 4.69514 -3.91621 0
M  V30 32763 H 3121.07 4.9889 -4.85882 0
M  V30 32764 H 3118.69 5.21292 -5.53316 0
M  V30 32765 N 3120.27 0.571737 1.46864 0
M  V30 32766 C 3121.18 -0.17053 2.33979 0
M  V30 32767 C 3122.2 -0.897212 1.49084 0
M  V30 32768 O 3123.37 -0.862856 1.8198 0
M  V30 32769 C 3120.44 -1.17825 3.26065 0
M  V30 32770 C 3119.5 -0.457424 4.26856 0
M  V30 32771 C 3118.73 -1.41713 5.14542 0
M  V30 32772 O 3118.95 -2.65296 5.0495 0
M  V30 32773 O 3117.89 -0.933695 5.94614 0
M  V30 32774 H 3121.71 0.544449 2.9878 0
M  V30 32775 H 3119.3 0.332223 1.45659 0
M  V30 32776 H 3121.18 -1.75958 3.82906 0
M  V30 32777 H 3119.86 -1.87489 2.63874 0
M  V30 32778 H 3118.76 0.165472 3.73734 0
M  V30 32779 H 3120.1 0.198039 4.91801 0
M  V30 32780 N 3121.75 -1.54542 0.308935 0
M  V30 32781 C 3122.98 -2.04708 -0.300382 0
M  V30 32782 C 3123.39 -1.18584 -1.46913 0
M  V30 32783 O 3122.75 -0.213218 -1.8125 0
M  V30 32784 C 3122.8 -3.53656 -0.748976 0
M  V30 32785 O 3122.52 -4.36507 0.373258 0
M  V30 32786 C 3124.02 -4.19853 -1.42262 0
M  V30 32787 H 3121.24 -0.66793 -0.0641149 0
M  V30 32788 H 3123.78 -1.99468 0.450874 0
M  V30 32789 H 3121.94 -3.59231 -1.45024 0
M  V30 32790 H 3122.35 -5.24495 0.0225674 0
M  V30 32791 H 3123.83 -5.25571 -1.68759 0
M  V30 32792 H 3124.3 -3.70071 -2.36525 0
M  V30 32793 H 3124.91 -4.18376 -0.76433 0
M  V30 32794 N 3123.23 -0.0368104 -1.57557 0
M  V30 32795 C 3124.47 0.641099 -1.924 0
M  V30 32796 C 3124.8 1.71335 -0.914222 0
M  V30 32797 O 3124.08 1.94401 0.0619274 0
M  V30 32798 C 3124.36 1.25046 -3.37691 0
M  V30 32799 C 3124.22 0.187247 -4.4941 0
M  V30 32800 C 3125.53 2.16627 -3.83094 0
M  V30 32801 H 3122.65 0.231584 -0.69967 0
M  V30 32802 H 3125.3 -0.0956416 -1.89759 0
M  V30 32803 H 3123.45 1.87837 -3.40073 0
M  V30 32804 H 3125.12 -0.443816 -4.5916 0
M  V30 32805 H 3123.36 -0.486388 -4.31065 0
M  V30 32806 H 3124.03 0.653363 -5.4812 0
M  V30 32807 H 3126.51 1.63814 -3.82497 0
M  V30 32808 H 3125.38 2.56213 -4.85434 0
M  V30 32809 H 3125.64 3.06056 -3.19033 0
M  V30 32810 N 3124.7 1.55817 0.236426 0
M  V30 32811 C 3125.93 1.82204 0.980263 0
M  V30 32812 C 3126.35 0.613957 1.78539 0
M  V30 32813 O 3125.7 -0.41746 1.77661 0
M  V30 32814 C 3125.75 3.06937 1.90977 0
M  V30 32815 O 3125.48 4.23083 1.13721 0
M  V30 32816 C 3126.98 3.46202 2.76873 0
M  V30 32817 H 3124.2 0.60606 0.28798 0
M  V30 32818 H 3126.74 2.02889 0.256146 0
M  V30 32819 H 3124.9 2.88271 2.58802 0
M  V30 32820 H 3125.31 4.93845 1.76685 0
M  V30 32821 H 3126.78 4.36554 3.37823 0
M  V30 32822 H 3127.26 2.67268 3.48517 0
M  V30 32823 H 3127.87 3.67256 2.14484 0
M  V30 32824 N 3126.18 -0.502526 1.49373 0
M  V30 32825 C 3127.43 -1.25594 1.59993 0
M  V30 32826 C 3127.78 -1.90317 0.28232 0
M  V30 32827 O 3127.08 -1.77666 -0.717319 0
M  V30 32828 C 3127.27 -2.3473 2.69512 0
M  V30 32829 C 3127.1 -1.80709 4.11794 0
M  V30 32830 C 3125.87 -1.62078 4.78601 0
M  V30 32831 C 3128.07 -1.31982 4.97077 0
M  V30 32832 N 3126.05 -1.02971 6.05203 0
M  V30 32833 C 3127.42 -0.84999 6.14146 0
M  V30 32834 C 3129.47 -1.20541 4.83088 0
M  V30 32835 C 3128.18 -0.277066 7.18766 0
M  V30 32836 C 3130.2 -0.646456 5.87856 0
M  V30 32837 C 3129.57 -0.186844 7.04152 0
M  V30 32838 H 3125.66 -0.449602 0.63983 0
M  V30 32839 H 3128.25 -0.563328 1.86372 0
M  V30 32840 H 3126.42 -3.01455 2.44908 0
M  V30 32841 H 3128.15 -3.0177 2.69661 0
M  V30 32842 H 3124.91 -1.86402 4.35375 0
M  V30 32843 H 3125.33 -0.753483 6.72794 0
M  V30 32844 H 3129.97 -1.54674 3.93492 0
M  V30 32845 H 3127.69 0.0765392 8.08064 0
M  V30 32846 H 3131.28 -0.56073 5.79092 0
M  V30 32847 H 3130.16 0.238922 7.83836 0
M  V30 32848 N 3127.66 -1.38422 -0.75346 0
M  V30 32849 C 3128.57 -1.37896 -1.89795 0
M  V30 32850 C 3129.59 -0.276053 -1.71796 0
M  V30 32851 O 3130.76 -0.514498 -1.94717 0
M  V30 32852 C 3127.83 -1.2029 -3.25163 0
M  V30 32853 C 3126.89 -2.40386 -3.55687 0
M  V30 32854 C 3126.12 -2.23611 -4.84597 0
M  V30 32855 O 3126.34 -1.22988 -5.56983 0
M  V30 32856 O 3125.28 -3.12203 -5.146 0
M  V30 32857 H 3129.1 -2.34329 -1.93193 0
M  V30 32858 H 3126.69 -1.19343 -0.898754 0
M  V30 32859 H 3128.57 -1.12532 -4.06097 0
M  V30 32860 H 3127.25 -0.269409 -3.22577 0
M  V30 32861 H 3126.15 -2.53718 -2.74914 0
M  V30 32862 H 3127.49 -3.32366 -3.63034 0
M  V30 32863 N 3129.14 0.981655 -1.23294 0
M  V30 32864 C 3130.09 2.09507 -1.01043 0
M  V30 32865 C 3131.08 1.69326 0.0501679 0
M  V30 32866 O 3132.29 1.79704 -0.103228 0
M  V30 32867 H 3128.66 0.685293 -0.309641 0
M  V30 32868 H 3130.63 2.25441 -1.95497 0
M  V30 32869 C 3129.38 3.42183 -0.616945 0
M  V30 32870 H 3128.7 3.73551 -1.42477 0
M  V30 32871 H 3130.14 4.21033 -0.500762 0
M  V30 32872 C 3128.6 3.30076 0.674663 0
M  V30 32873 O 3129.13 3.62817 1.72414 0
M  V30 32874 N 3127.34 2.83235 0.650102 0
M  V30 32875 H 3126.89 2.56789 -0.20427 0
M  V30 32876 H 3126.84 2.75516 1.51454 0
M  V30 32877 N 3130.62 1.04444 1.18022 0
M  V30 32878 C 3131.86 0.751166 1.88376 0
M  V30 32879 C 3132.19 -0.719539 1.80378 0
M  V30 32880 O 3131.47 -1.52546 1.20665 0
M  V30 32881 C 3131.75 1.22271 3.38706 0
M  V30 32882 C 3131.61 2.7558 3.55494 0
M  V30 32883 C 3132.92 0.815764 4.32473 0
M  V30 32884 H 3130.04 0.274352 0.684032 0
M  V30 32885 H 3132.69 1.29711 1.38835 0
M  V30 32886 H 3130.84 0.758259 3.81028 0
M  V30 32887 H 3132.51 3.30092 3.22238 0
M  V30 32888 H 3130.75 3.15222 2.98023 0
M  V30 32889 H 3131.42 3.03634 4.60989 0
M  V30 32890 H 3133.9 1.21549 3.97951 0
M  V30 32891 H 3132.77 1.17341 5.36211 0
M  V30 32892 H 3133.03 -0.280823 4.41207 0
M  V30 32893 N 3132.09 -1.34317 0.824418 0
M  V30 32894 C 3133.32 -2.02462 0.42623 0
M  V30 32895 C 3133.74 -1.6208 -0.96827 0
M  V30 32896 O 3133.09 -0.826989 -1.62687 0
M  V30 32897 C 3133.14 -3.57733 0.520527 0
M  V30 32898 O 3132.87 -3.96652 1.86007 0
M  V30 32899 C 3134.37 -4.43144 0.117431 0
M  V30 32900 H 3131.59 -0.648878 0.170875 0
M  V30 32901 H 3134.13 -1.7156 1.11299 0
M  V30 32902 H 3132.29 -3.8722 -0.118165 0
M  V30 32903 H 3132.7 -4.9134 1.83537 0
M  V30 32904 H 3134.17 -5.51502 0.234492 0
M  V30 32905 H 3134.65 -4.2904 -0.939196 0
M  V30 32906 H 3135.26 -4.18988 0.729981 0
M  V30 32907 N 3133.57 -0.579517 -1.46558 0
M  V30 32908 C 3134.82 -0.0638773 -2.02399 0
M  V30 32909 C 3135.15 1.29481 -1.45137 0
M  V30 32910 O 3134.4 1.8611 -0.605094 0
M  V30 32911 C 3134.7 0.0552175 -3.57357 0
M  V30 32912 C 3134.37 -1.23547 -4.33644 0
M  V30 32913 C 3133.03 -1.58908 -4.54205 0
M  V30 32914 C 3135.38 -2.08973 -4.77472 0
M  V30 32915 C 3132.71 -2.79501 -5.15845 0
M  V30 32916 C 3135.06 -3.28789 -5.40445 0
M  V30 32917 C 3133.72 -3.64437 -5.59234 0
M  V30 32918 H 3132.99 -0.0233744 -0.740631 0
M  V30 32919 H 3135.64 -0.755513 -1.75967 0
M  V30 32920 H 3133.95 0.829963 -3.82908 0
M  V30 32921 H 3135.64 0.469894 -3.98237 0
M  V30 32922 H 3132.23 -0.950173 -4.17935 0
M  V30 32923 H 3136.42 -1.82958 -4.61346 0
M  V30 32924 H 3131.67 -3.07261 -5.28584 0
M  V30 32925 H 3135.85 -3.95255 -5.73364 0
M  V30 32926 H 3133.47 -4.57972 -6.06767 0
M  V30 32927 N 3135.05 1.54376 -0.317127 0
M  V30 32928 C 3135.98 2.27061 0.544583 0
M  V30 32929 C 3136.96 1.27613 1.12467 0
M  V30 32930 O 3138.15 1.56415 1.151 0
M  V30 32931 C 3135.28 3.02356 1.70874 0
M  V30 32932 C 3134.23 4.09087 1.25826 0
M  V30 32933 C 3133.56 4.72187 2.50886 0
M  V30 32934 C 3134.86 5.20932 0.377784 0
M  V30 32935 H 3136.55 2.99336 -0.0616898 0
M  V30 32936 H 3134.1 1.43966 -0.0311101 0
M  V30 32937 H 3136.05 3.51931 2.3178 0
M  V30 32938 H 3134.77 2.27686 2.34151 0
M  V30 32939 H 3133.43 3.60385 0.672164 0
M  V30 32940 H 3133.08 3.94139 3.12511 0
M  V30 32941 H 3132.78 5.44279 2.21438 0
M  V30 32942 H 3134.3 5.24533 3.12566 0
M  V30 32943 H 3135.72 5.66303 0.892957 0
M  V30 32944 H 3134.12 5.99841 0.176368 0
M  V30 32945 H 3135.19 4.8126 -0.593028 0
M  V30 32946 N 3136.53 0.0451655 1.57535 0
M  V30 32947 C 3137.48 -0.931276 2.11177 0
M  V30 32948 C 3138.45 -1.31273 1.01768 0
M  V30 32949 O 3139.63 -1.40325 1.29281 0
M  V30 32950 C 3136.77 -2.20291 2.65643 0
M  V30 32951 C 3135.88 -1.87647 3.89118 0
M  V30 32952 C 3135.02 -3.09224 4.31919 0
M  V30 32953 C 3134.06 -2.72474 5.4811 0
M  V30 32954 N 3133.19 -3.86726 5.85993 0
M  V30 32955 H 3138.03 -0.466934 2.94319 0
M  V30 32956 H 3135.57 -0.21886 1.45463 0
M  V30 32957 H 3137.53 -2.94692 2.95318 0
M  V30 32958 H 3136.16 -2.64312 1.85307 0
M  V30 32959 H 3135.21 -1.0342 3.66072 0
M  V30 32960 H 3136.52 -1.56592 4.73582 0
M  V30 32961 H 3135.68 -3.91931 4.63115 0
M  V30 32962 H 3134.42 -3.43453 3.46253 0
M  V30 32963 H 3133.42 -1.88183 5.16592 0
M  V30 32964 H 3134.65 -2.39444 6.35487 0
M  V30 32965 H 3132.59 -4.20766 5.03281 0
M  V30 32966 H 3132.51 -3.59349 6.65135 0
M  V30 32967 H 3133.78 -4.70089 6.21801 0
M  V30 32968 N 3138.01 -1.5594 -0.228159 0
M  V30 32969 C 3139.42 -1.48783 -0.577557 0
M  V30 32970 C 3139.62 -0.739004 -1.87459 0
M  V30 32971 O 3138.68 -0.275973 -2.50987 0
M  V30 32972 C 3139.99 -2.93302 -0.66291 0
M  V30 32973 C 3141.54 -3.03783 -0.753982 0
M  V30 32974 C 3142.01 -4.49647 -0.870736 0
M  V30 32975 N 3143.51 -4.53662 -0.935128 0
M  V30 32976 C 3144.24 -5.63796 -1.04506 0
M  V30 32977 N 3143.74 -6.83697 -1.11936 0
M  V30 32978 N 3145.53 -5.51633 -1.07968 0
M  V30 32979 H 3137.68 -2.03056 0.623054 0
M  V30 32980 H 3139.94 -0.922663 0.217709 0
M  V30 32981 H 3139.65 -3.51008 0.220437 0
M  V30 32982 H 3139.52 -3.44834 -1.5287 0
M  V30 32983 H 3141.91 -2.46145 -1.62777 0
M  V30 32984 H 3141.99 -2.55431 0.137346 0
M  V30 32985 H 3141.64 -5.079 -0.00142932 0
M  V30 32986 H 3141.57 -4.95698 -1.77738 0
M  V30 32987 H 3144.06 -3.67311 -0.888296 0
M  V30 32988 H 3144.37 -7.63382 -1.20283 0
M  V30 32989 H 3142.71 -6.86421 -1.0886 0
M  V30 32990 H 3145.91 -4.56891 -1.01825 0
M  V30 32991 H 3146.08 -6.37498 -1.16191 0
M  V30 32992 N 3139.48 0.494597 -1.49638 0
M  V30 32993 C 3140.73 1.24831 -1.59447 0
M  V30 32994 C 3141.06 1.92415 -0.284061 0
M  V30 32995 O 3140.31 1.81636 0.728487 0
M  V30 32996 C 3140.61 2.33297 -2.70753 0
M  V30 32997 C 3140.28 1.83128 -4.12037 0
M  V30 32998 C 3138.94 1.69165 -4.50485 0
M  V30 32999 C 3141.29 1.45651 -5.00435 0
M  V30 33000 C 3138.62 1.16114 -5.75095 0
M  V30 33001 C 3140.97 0.940498 -6.2557 0
M  V30 33002 C 3139.64 0.787315 -6.62841 0
M  V30 33003 H 3138.91 0.456789 -0.583459 0
M  V30 33004 H 3141.55 0.548012 -1.83491 0
M  V30 33005 H 3139.86 3.09141 -2.40705 0
M  V30 33006 H 3141.56 2.91329 -2.75551 0
M  V30 33007 H 3138.15 1.94957 -3.81693 0
M  V30 33008 H 3142.33 1.55283 -4.71382 0
M  V30 33009 H 3137.59 1.02971 -6.02667 0
M  V30 33010 H 3141.76 0.641345 -6.9344 0
M  V30 33011 H 3139.39 0.374058 -7.59279 0
M  V30 33012 N 3140.96 1.3882 0.746109 0
M  V30 33013 C 3142.21 1.35437 1.50542 0
M  V30 33014 C 3142.54 -0.0532327 1.94427 0
M  V30 33015 O 3141.79 -1.03185 1.66287 0
M  V30 33016 C 3142.09 2.26291 2.76635 0
M  V30 33017 C 3141.76 3.74126 2.51675 0
M  V30 33018 C 3140.42 4.1441 2.44577 0
M  V30 33019 C 3142.77 4.67676 2.30063 0
M  V30 33020 C 3140.1 5.46321 2.13892 0
M  V30 33021 C 3142.45 5.99853 2.00897 0
M  V30 33022 C 3141.12 6.39212 1.9226 0
M  V30 33023 H 3140.39 0.4956 0.550874 0
M  V30 33024 H 3143.03 1.71238 0.857307 0
M  V30 33025 H 3141.34 1.83571 3.46134 0
M  V30 33026 H 3143.03 2.20973 3.34622 0
M  V30 33027 H 3139.62 3.42193 2.58074 0
M  V30 33028 H 3143.81 4.37394 2.34521 0
M  V30 33029 H 3139.06 5.75751 2.05719 0
M  V30 33030 H 3143.24 6.71877 1.83179 0
M  V30 33031 H 3140.87 7.41348 1.68248 0
M  V30 33032 N 3142.44 -0.975103 1.23812 0
M  V30 33033 C 3143.86 -1.24233 1.00192 0
M  V30 33034 C 3144.06 -1.99347 -0.293776 0
M  V30 33035 O 3143.11 -2.31339 -1.01185 0
M  V30 33036 C 3144.43 -2.0367 2.21222 0
M  V30 33037 C 3145.97 -2.16789 2.25768 0
M  V30 33038 C 3146.45 -2.99619 3.46399 0
M  V30 33039 N 3147.94 -3.07203 3.4667 0
M  V30 33040 C 3148.67 -3.71632 4.36666 0
M  V30 33041 N 3148.17 -4.37839 5.36906 0
M  V30 33042 N 3149.96 -3.6857 4.24396 0
M  V30 33043 H 3142.11 -0.47204 2.07088 0
M  V30 33044 H 3144.38 -0.271185 0.908385 0
M  V30 33045 H 3144.08 -1.55857 3.1528 0
M  V30 33046 H 3143.96 -3.04413 2.22738 0
M  V30 33047 H 3146.34 -2.63809 1.32246 0
M  V30 33048 H 3146.43 -1.15418 2.28281 0
M  V30 33049 H 3146.07 -2.53296 4.40231 0
M  V30 33050 H 3146 -4.01172 3.41128 0
M  V30 33051 H 3148.49 -2.601 2.74146 0
M  V30 33052 H 3148.8 -4.84796 6.01824 0
M  V30 33053 H 3147.15 -4.36531 5.40801 0
M  V30 33054 H 3150.34 -3.16019 3.45326 0
M  V30 33055 H 3150.51 -4.18499 4.94735 0
M  V30 33056 N 3143.92 -1.05068 -1.17467 0
M  V30 33057 C 3144.88 -0.654832 -2.19647 0
M  V30 33058 C 3145.88 0.293035 -1.58107 0
M  V30 33059 O 3147.07 0.0770754 -1.74029 0
M  V30 33060 C 3144.2 0.0383838 -3.40878 0
M  V30 33061 H 3145.4 -1.5592 -2.56182 0
M  V30 33062 H 3142.95 -0.844419 -1.31527 0
M  V30 33063 H 3143.68 0.956078 -3.09886 0
M  V30 33064 H 3143.47 -0.643029 -3.86791 0
M  V30 33065 H 3144.96 0.301494 -4.1651 0
M  V30 33066 N 3145.4 1.33878 -0.831529 0
M  V30 33067 C 3146.67 1.92517 -0.345941 0
M  V30 33068 C 3147.05 1.75856 1.16781 0
M  V30 33069 O 3146.4 1.14249 1.97887 0
M  V30 33070 C 3146.61 3.40063 -0.784752 0
M  V30 33071 C 3147.96 4.17214 -0.788534 0
M  V30 33072 O 3148.98 3.48684 -0.727884 0
M  V30 33073 O 3147.84 5.39537 -0.869576 0
M  V30 33074 H 3144.94 0.821366 -0.0963713 0
M  V30 33075 H 3147.48 1.42798 -0.916893 0
M  V30 33076 H 3146.25 3.46028 -1.82703 0
M  V30 33077 H 3145.88 3.97146 -0.189967 0
M  V30 33078 N 3146.87 0.587281 1.46249 0
M  V30 33079 C 3147.78 -0.145703 2.34147 0
M  V30 33080 C 3148.8 -0.88135 1.50027 0
M  V30 33081 O 3149.98 -0.843507 1.82885 0
M  V30 33082 C 3147.04 -1.1436 3.27296 0
M  V30 33083 C 3146.1 -0.412124 4.27317 0
M  V30 33084 C 3145.34 -1.36248 5.16016 0
M  V30 33085 O 3145.56 -2.59926 5.07735 0
M  V30 33086 O 3144.49 -0.870576 5.95571 0
M  V30 33087 H 3148.32 0.576108 2.98186 0
M  V30 33088 H 3145.9 0.347654 1.45299 0
M  V30 33089 H 3147.79 -1.71887 3.8475 0
M  V30 33090 H 3146.46 -1.8468 2.65848 0
M  V30 33091 H 3145.37 0.205102 3.73537 0
M  V30 33092 H 3146.7 0.25019 4.91564 0
M  V30 33093 N 3148.35 -1.54206 0.325309 0
M  V30 33094 C 3149.3 -2.24398 -0.53985 0
M  V30 33095 C 3150.27 -1.23542 -1.11026 0
M  V30 33096 O 3151.45 -1.52228 -1.15027 0
M  V30 33097 C 3148.59 -3.00662 -1.694 0
M  V30 33098 C 3147.71 -4.16339 -1.15266 0
M  V30 33099 C 3146.84 -4.8013 -2.27263 0
M  V30 33100 C 3145.88 -5.87907 -1.70387 0
M  V30 33101 N 3145.02 -6.45553 -2.76054 0
M  V30 33102 H 3149.86 -2.97928 0.0652842 0
M  V30 33103 H 3147.4 -1.47034 0.0439899 0
M  V30 33104 H 3149.35 -3.43126 -2.37319 0
M  V30 33105 H 3147.98 -2.29462 -2.27039 0
M  V30 33106 H 3147.04 -3.78645 -0.364967 0
M  V30 33107 H 3148.35 -4.93913 -0.69649 0
M  V30 33108 H 3147.5 -5.25572 -3.03083 0
M  V30 33109 H 3146.24 -4.0194 -2.76217 0
M  V30 33110 H 3145.25 -5.41866 -0.930657 0
M  V30 33111 H 3146.47 -6.67995 -1.22308 0
M  V30 33112 H 3144.42 -5.70235 -3.24296 0
M  V30 33113 H 3144.33 -7.18546 -2.35005 0
M  V30 33114 H 3145.6 -6.9565 -3.51697 0
M  V30 33115 N 3149.83 -0.0535194 -1.57509 0
M  V30 33116 C 3151.06 0.628351 -1.96813 0
M  V30 33117 C 3151.47 1.64775 -0.929836 0
M  V30 33118 O 3150.81 1.83459 0.0940833 0
M  V30 33119 C 3150.87 1.37022 -3.32363 0
M  V30 33120 C 3150.54 0.506386 -4.54186 0
M  V30 33121 C 3151.54 -0.228503 -5.19398 0
M  V30 33122 C 3149.22 0.436622 -5.00399 0
M  V30 33123 C 3151.21 -1.02157 -6.2916 0
M  V30 33124 C 3148.9 -0.36013 -6.10038 0
M  V30 33125 C 3149.9 -1.08791 -6.7428 0
M  V30 33126 O 3149.59 -1.87156 -7.81811 0
M  V30 33127 H 3149.32 0.176421 -0.652573 0
M  V30 33128 H 3151.87 -0.116944 -2.05067 0
M  V30 33129 H 3150.1 2.16119 -3.2067 0
M  V30 33130 H 3151.79 1.94255 -3.56398 0
M  V30 33131 H 3152.56 -0.184089 -4.84651 0
M  V30 33132 H 3148.44 0.992693 -4.50185 0
M  V30 33133 H 3151.98 -1.59014 -6.79235 0
M  V30 33134 H 3147.88 -0.406174 -6.44221 0
M  V30 33135 H 3148.65 -1.79392 -7.98599 0
M  V30 33136 N 3151.31 1.56059 0.219886 0
M  V30 33137 C 3152.72 1.69314 0.786736 0
M  V30 33138 C 3153.07 0.655815 1.84915 0
M  V30 33139 O 3152.2 -0.192734 2.1554 0
M  V30 33140 C 3152.79 3.06965 1.43381 0
M  V30 33141 C 3151.35 3.22069 1.94804 0
M  V30 33142 C 3150.5 2.65242 0.808816 0
M  V30 33143 H 3153.45 1.58699 -0.00479567 0
M  V30 33144 H 3153.47 3.02915 2.30267 0
M  V30 33145 H 3152.98 3.82441 0.660338 0
M  V30 33146 H 3151.08 2.51465 2.74948 0
M  V30 33147 H 3151.2 4.29303 2.12686 0
M  V30 33148 H 3149.56 2.23767 1.21658 0
M  V30 33149 H 3150.34 3.43266 0.0479854 0
M  V30 33150 N 3152.79 -0.486655 1.49898 0
M  V30 33151 C 3154.03 -1.23984 1.60107 0
M  V30 33152 C 3154.36 -1.92261 0.294262 0
M  V30 33153 O 3153.62 -1.8202 -0.718844 0
M  V30 33154 C 3153.92 -2.31858 2.71986 0
M  V30 33155 C 3153.58 -1.8094 4.13003 0
M  V30 33156 C 3152.24 -1.66774 4.51376 0
M  V30 33157 C 3154.6 -1.42995 5.012 0
M  V30 33158 C 3151.92 -1.13062 5.75703 0
M  V30 33159 C 3154.28 -0.90731 6.2606 0
M  V30 33160 C 3152.94 -0.752152 6.63249 0
M  V30 33161 H 3152.21 -0.453688 0.585874 0
M  V30 33162 H 3154.86 -0.538273 1.83779 0
M  V30 33163 H 3153.16 -3.0786 2.42341 0
M  V30 33164 H 3154.86 -2.89864 2.77092 0
M  V30 33165 H 3151.45 -1.9293 3.82722 0
M  V30 33166 H 3155.63 -1.52781 4.72199 0
M  V30 33167 H 3150.89 -0.997736 6.03204 0
M  V30 33168 H 3155.06 -0.604562 6.93771 0
M  V30 33169 H 3152.69 -0.333786 7.59467 0
M  V30 33170 N 3154.27 -1.39214 -0.738737 0
M  V30 33171 C 3155.2 -1.40367 -1.866 0
M  V30 33172 C 3156.18 -0.267525 -1.67983 0
M  V30 33173 O 3157.36 -0.472798 -1.88357 0
M  V30 33174 C 3154.49 -1.2427 -3.24306 0
M  V30 33175 C 3153.45 -2.35245 -3.57552 0
M  V30 33176 C 3152.77 -2.04241 -4.94155 0
M  V30 33177 C 3154.07 -3.77549 -3.60907 0
M  V30 33178 H 3155.77 -2.34701 -1.85892 0
M  V30 33179 H 3153.31 -1.12972 -0.892939 0
M  V30 33180 H 3155.26 -1.23699 -4.02836 0
M  V30 33181 H 3153.99 -0.264032 -3.25531 0
M  V30 33182 H 3152.65 -2.35027 -2.8135 0
M  V30 33183 H 3152.3 -1.04821 -4.91957 0
M  V30 33184 H 3152 -2.78576 -5.17368 0
M  V30 33185 H 3153.52 -2.05313 -5.75047 0
M  V30 33186 H 3154.93 -3.79717 -4.29521 0
M  V30 33187 H 3153.33 -4.51212 -3.95636 0
M  V30 33188 H 3154.4 -4.08795 -2.60796 0
M  V30 33189 N 3155.74 0.968523 -1.24328 0
M  V30 33190 C 3156.99 1.70571 -1.0765 0
M  V30 33191 C 3157.31 1.91778 0.384787 0
M  V30 33192 O 3158.51 2.63059 0.671736 0
M  V30 33193 C 3156.97 3.07014 -1.87804 0
M  V30 33194 C 3156.58 2.93652 -3.38338 0
M  V30 33195 C 3158.32 3.8461 -1.79653 0
M  V30 33196 C 3156.23 4.254 -4.10839 0
M  V30 33197 H 3155.16 0.639635 -0.399228 0
M  V30 33198 H 3157.81 1.07931 -1.48402 0
M  V30 33199 H 3156.19 3.70477 -1.39866 0
M  V30 33200 H 3157.36 2.39206 -3.93849 0
M  V30 33201 H 3155.68 2.29522 -3.47431 0
M  V30 33202 H 3158.28 4.82168 -2.31124 0
M  V30 33203 H 3158.62 4.09274 -0.761625 0
M  V30 33204 H 3159.15 3.27872 -2.25267 0
M  V30 33205 H 3155.89 4.0593 -5.14686 0
M  V30 33206 H 3155.41 4.79665 -3.60113 0
M  V30 33207 H 3157.09 4.94024 -4.17791 0
M  V30 33208 N 3157.22 1.0569 1.16908 0
M  V30 33209 C 3158.17 0.632377 2.19055 0
M  V30 33210 C 3159.16 -0.33377 1.574 0
M  V30 33211 O 3160.35 -0.150192 1.76362 0
M  V30 33212 C 3157.48 0.0138812 3.43297 0
M  V30 33213 C 3156.56 1.00416 4.12041 0
M  V30 33214 N 3156.95 2.17745 4.56531 0
M  V30 33215 C 3155.25 0.83374 4.38138 0
M  V30 33216 C 3155.95 2.80434 5.09639 0
M  V30 33217 N 3154.93 2.082 5.02149 0
M  V30 33218 H 3158.73 1.52625 2.51163 0
M  V30 33219 H 3156.24 0.927731 1.33293 0
M  V30 33220 H 3158.24 -0.308044 4.1576 0
M  V30 33221 H 3156.9 -0.875325 3.12679 0
M  V30 33222 H 3157.91 2.55554 4.50458 0
M  V30 33223 H 3154.59 -0.00399345 4.175 0
M  V30 33224 H 3155.98 3.79962 5.54147 0
M  V30 33225 N 3158.7 -1.33435 0.838617 0
M  V30 33226 C 3160.11 -1.80129 0.490966 0
M  V30 33227 C 3160.46 -1.69392 -0.989994 0
M  V30 33228 O 3159.59 -1.24305 -1.77136 0
M  V30 33229 C 3160.18 -3.27053 0.884405 0
M  V30 33230 C 3158.74 -3.71765 0.588894 0
M  V30 33231 C 3157.89 -2.54856 1.09287 0
M  V30 33232 H 3160.84 -1.2096 1.02734 0
M  V30 33233 H 3160.86 -3.80003 0.19435 0
M  V30 33234 H 3160.37 -3.34836 1.96231 0
M  V30 33235 H 3158.47 -3.69509 -0.478953 0
M  V30 33236 H 3158.59 -4.65242 1.14395 0
M  V30 33237 H 3156.95 -2.49465 0.513746 0
M  V30 33238 H 3157.73 -2.65401 2.17754 0
M  V30 33239 N 3160.18 -0.595029 -1.45935 0
M  V30 33240 C 3161.42 -0.0854673 -2.0262 0
M  V30 33241 C 3161.76 1.27591 -1.46404 0
M  V30 33242 O 3161.03 1.83882 -0.633855 0
M  V30 33243 C 3161.31 -0.0329708 -3.60085 0
M  V30 33244 C 3161.17 -1.42412 -4.2666 0
M  V30 33245 C 3162.49 0.661349 -4.35102 0
M  V30 33246 H 3159.61 -0.0325325 -0.736282 0
M  V30 33247 H 3162.25 -0.764593 -1.73937 0
M  V30 33248 H 3160.4 0.545371 -3.84653 0
M  V30 33249 H 3162.07 -2.04858 -4.13317 0
M  V30 33250 H 3160.31 -1.98839 -3.85546 0
M  V30 33251 H 3160.98 -1.33975 -5.35495 0
M  V30 33252 H 3163.46 0.169904 -4.15753 0
M  V30 33253 H 3162.34 0.667147 -5.44831 0
M  V30 33254 H 3162.6 1.72505 -4.07056 0
M  V30 33255 N 3161.66 1.54031 -0.333483 0
M  V30 33256 C 3162.59 2.20948 0.570737 0
M  V30 33257 C 3163.57 1.18996 1.10809 0
M  V30 33258 O 3164.75 1.47775 1.17024 0
M  V30 33259 C 3161.88 2.87899 1.78415 0
M  V30 33260 C 3160.92 4.03654 1.37715 0
M  V30 33261 S 3161.76 5.33963 0.405454 0
M  V30 33262 C 3162.91 6.04413 1.62592 0
M  V30 33263 H 3163.15 2.973 0.00234134 0
M  V30 33264 H 3160.68 1.53952 -0.117558 0
M  V30 33265 H 3162.64 3.27093 2.48033 0
M  V30 33266 H 3161.3 2.11332 2.32374 0
M  V30 33267 H 3160.49 4.49399 2.28159 0
M  V30 33268 H 3160.09 3.66185 0.760563 0
M  V30 33269 H 3162.38 6.27194 2.56191 0
M  V30 33270 H 3163.33 6.97677 1.21045 0
M  V30 33271 H 3163.74 5.34444 1.8174 0
M  V30 33272 N 3163.13 0.0618717 1.57479 0
M  V30 33273 C 3164.54 -0.472263 1.80628 0
M  V30 33274 C 3164.9 -1.7026 0.97499 0
M  V30 33275 O 3164.02 -2.15523 0.194638 0
M  V30 33276 C 3164.62 -0.863558 3.2761 0
M  V30 33277 C 3163.17 -1.34261 3.5164 0
M  V30 33278 C 3162.32 -0.322961 2.75413 0
M  V30 33279 H 3165.27 0.287662 1.56071 0
M  V30 33280 H 3165.29 -1.72571 3.39116 0
M  V30 33281 H 3164.81 0.0320908 3.88087 0
M  V30 33282 H 3162.91 -2.25709 2.96456 0
M  V30 33283 H 3163.02 -1.32739 4.60345 0
M  V30 33284 H 3161.38 -0.798133 2.41872 0
M  V30 33285 H 3162.17 0.564788 3.38622 0
M  V30 33286 N 3164.61 -1.56173 -0.211607 0
M  V30 33287 C 3165.55 -1.88255 -1.28978 0
M  V30 33288 C 3166.52 -0.740915 -1.44738 0
M  V30 33289 O 3167.71 -0.990277 -1.60393 0
M  V30 33290 C 3164.83 -2.09829 -2.65875 0
M  V30 33291 C 3163.88 -3.32525 -2.67076 0
M  V30 33292 S 3164.71 -4.88153 -2.20151 0
M  V30 33293 C 3165.87 -5.12776 -3.58904 0
M  V30 33294 H 3166.1 -2.7941 -1.01573 0
M  V30 33295 H 3163.64 -1.48737 -0.414325 0
M  V30 33296 H 3165.59 -2.22941 -3.44684 0
M  V30 33297 H 3164.25 -1.19452 -2.90499 0
M  V30 33298 H 3163.45 -3.44695 -3.67697 0
M  V30 33299 H 3163.05 -3.1832 -1.96337 0
M  V30 33300 H 3165.34 -5.02284 -4.54662 0
M  V30 33301 H 3166.28 -6.14617 -3.51641 0
M  V30 33302 H 3166.69 -4.40471 -3.53052 0
M  V30 33303 N 3166.09 0.478699 -1.50154 0
M  V30 33304 C 3167.04 1.57764 -1.68461 0
M  V30 33305 C 3168.01 1.57554 -0.525927 0
M  V30 33306 O 3169.19 1.75201 -0.755605 0
M  V30 33307 C 3166.33 2.95786 -1.77777 0
M  V30 33308 C 3165.45 3.05843 -3.05097 0
M  V30 33309 C 3164.58 4.34733 -3.05255 0
M  V30 33310 C 3163.62 4.38504 -4.2706 0
M  V30 33311 N 3162.76 5.58855 -4.25001 0
M  V30 33312 H 3167.6 1.41459 -2.62285 0
M  V30 33313 H 3165.13 0.687898 -1.30025 0
M  V30 33314 H 3167.09 3.75816 -1.81159 0
M  V30 33315 H 3165.72 3.10743 -0.873999 0
M  V30 33316 H 3164.77 2.18734 -3.11222 0
M  V30 33317 H 3166.09 3.04488 -3.9508 0
M  V30 33318 H 3165.24 5.23103 -3.07323 0
M  V30 33319 H 3163.98 4.38685 -2.13089 0
M  V30 33320 H 3162.98 3.48532 -4.25212 0
M  V30 33321 H 3164.21 4.3625 -5.20445 0
M  V30 33322 H 3162.15 5.63607 -3.35684 0
M  V30 33323 H 3162.07 5.5921 -5.08743 0
M  V30 33324 H 3163.34 6.49371 -4.31205 0
M  V30 33325 N 3167.57 1.39603 0.731343 0
M  V30 33326 C 3168.48 1.40898 1.87577 0
M  V30 33327 C 3169.49 0.303349 1.71335 0
M  V30 33328 O 3170.67 0.545411 1.93874 0
M  V30 33329 C 3167.74 1.25448 3.23209 0
M  V30 33330 C 3166.8 2.46014 3.51817 0
M  V30 33331 C 3166.03 2.31292 4.80978 0
M  V30 33332 O 3166.25 1.31834 5.54956 0
M  V30 33333 O 3165.19 3.2035 5.09568 0
M  V30 33334 H 3169.01 2.37373 1.8944 0
M  V30 33335 H 3166.6 1.20758 0.879654 0
M  V30 33336 H 3168.48 1.18979 4.04255 0
M  V30 33337 H 3167.15 0.320694 3.22108 0
M  V30 33338 H 3166.06 2.5806 2.70843 0
M  V30 33339 H 3167.39 3.38099 3.57701 0
M  V30 33340 N 3169.05 -0.961916 1.2484 0
M  V30 33341 C 3170.3 -1.69997 1.08553 0
M  V30 33342 C 3170.61 -1.91979 -0.374611 0
M  V30 33343 O 3171.81 -2.63411 -0.657775 0
M  V30 33344 C 3170.27 -3.06014 1.8943 0
M  V30 33345 C 3169.88 -2.91854 3.3989 0
M  V30 33346 C 3171.62 -3.83652 1.81691 0
M  V30 33347 C 3169.53 -4.23215 4.13089 0
M  V30 33348 H 3168.46 -0.637509 0.402614 0
M  V30 33349 H 3171.11 -1.07143 1.48972 0
M  V30 33350 H 3169.49 -3.6973 1.41829 0
M  V30 33351 H 3170.67 -2.37114 3.95112 0
M  V30 33352 H 3168.98 -2.27677 3.48644 0
M  V30 33353 H 3171.58 -4.80935 2.33678 0
M  V30 33354 H 3171.92 -4.08864 0.783319 0
M  V30 33355 H 3172.45 -3.26672 2.27002 0
M  V30 33356 H 3169.19 -4.03194 5.16831 0
M  V30 33357 H 3168.71 -4.77749 3.62652 0
M  V30 33358 H 3170.39 -4.91801 4.20405 0
M  V30 33359 N 3170.52 -1.06308 -1.16346 0
M  V30 33360 C 3171.47 -0.643985 -2.18716 0
M  V30 33361 C 3172.46 0.325418 -1.57575 0
M  V30 33362 O 3173.65 0.140837 -1.76439 0
M  V30 33363 C 3170.78 -0.0320869 -3.43285 0
M  V30 33364 C 3169.87 -1.02599 -4.11502 0
M  V30 33365 N 3170.26 -2.20163 -4.5537 0
M  V30 33366 C 3168.55 -0.856964 -4.3769 0
M  V30 33367 C 3169.26 -2.83133 -5.08144 0
M  V30 33368 N 3168.23 -2.1086 -5.01038 0
M  V30 33369 H 3172.03 -1.53955 -2.5035 0
M  V30 33370 H 3169.55 -0.934786 -1.32799 0
M  V30 33371 H 3171.54 0.285991 -4.15918 0
M  V30 33372 H 3170.2 0.858731 -3.13139 0
M  V30 33373 H 3171.22 -2.57939 -4.49097 0
M  V30 33374 H 3167.89 -0.0181476 -4.17496 0
M  V30 33375 H 3169.28 -3.82895 -5.52124 0
M  V30 33376 N 3172 1.32989 -0.845682 0
M  V30 33377 C 3172.91 2.32845 -0.286441 0
M  V30 33378 C 3173.93 1.63653 0.591076 0
M  V30 33379 O 3175.1 1.95258 0.493581 0
M  V30 33380 C 3172.17 3.42724 0.523576 0
M  V30 33381 C 3171.23 4.27624 -0.37902 0
M  V30 33382 C 3170.46 5.32255 0.392432 0
M  V30 33383 O 3170.69 5.46811 1.6234 0
M  V30 33384 O 3169.62 6.01433 -0.237106 0
M  V30 33385 H 3173.45 2.8255 -1.11351 0
M  V30 33386 H 3171.03 1.36452 -0.60838 0
M  V30 33387 H 3172.91 4.09759 0.983646 0
M  V30 33388 H 3171.59 2.95223 1.32759 0
M  V30 33389 H 3170.5 3.63431 -0.887076 0
M  V30 33390 H 3171.83 4.78625 -1.14798 0
M  V30 33391 N 3173.48 0.60276 1.45618 0
M  V30 33392 C 3174.71 0.100465 2.07157 0
M  V30 33393 C 3175.13 -1.2039 1.44526 0
M  V30 33394 O 3174.49 -1.73189 0.536221 0
M  V30 33395 C 3174.54 -0.030797 3.60587 0
M  V30 33396 O 3173.64 -1.08227 3.97946 0
M  V30 33397 H 3172.98 0.0718759 0.660098 0
M  V30 33398 H 3175.51 0.831399 1.86946 0
M  V30 33399 H 3175.52 -0.230563 4.07348 0
M  V30 33400 H 3174.2 0.921652 4.05559 0
M  V30 33401 H 3172.77 -0.85935 3.62863 0
M  V30 33402 N 3174.96 -1.53852 0.341647 0
M  V30 33403 C 3176.21 -2.00063 -0.25644 0
M  V30 33404 C 3176.52 -1.23343 -1.51808 0
M  V30 33405 O 3177.73 -1.60021 -2.1933 0
M  V30 33406 C 3176.18 -3.56304 -0.507505 0
M  V30 33407 C 3175.79 -4.41877 0.738129 0
M  V30 33408 C 3177.53 -4.10935 -1.06455 0
M  V30 33409 C 3175.44 -5.89624 0.457969 0
M  V30 33410 H 3174.37 -0.747393 -0.0996012 0
M  V30 33411 H 3177.02 -1.77726 0.456681 0
M  V30 33412 H 3175.4 -3.74699 -1.28128 0
M  V30 33413 H 3176.58 -4.35258 1.51286 0
M  V30 33414 H 3174.89 -3.98228 1.21668 0
M  V30 33415 H 3177.49 -5.18928 -1.28908 0
M  V30 33416 H 3177.83 -3.64036 -2.0195 0
M  V30 33417 H 3178.37 -3.96244 -0.351531 0
M  V30 33418 H 3175.11 -6.40753 1.38258 0
M  V30 33419 H 3174.63 -5.99152 -0.278712 0
M  V30 33420 H 3176.3 -6.46957 0.0745051 0
M  V30 33421 N 3176.44 -0.0702223 -1.57443 0
M  V30 33422 C 3177.85 0.286403 -1.57009 0
M  V30 33423 C 3178.05 1.70145 -1.07949 0
M  V30 33424 O 3177.11 2.4127 -0.744665 0
M  V30 33425 C 3178.42 0.0974937 -3.00542 0
M  V30 33426 C 3179.97 0.16715 -3.12553 0
M  V30 33427 C 3180.44 0.00653997 -4.58 0
M  V30 33428 N 3181.94 0.0621964 -4.63158 0
M  V30 33429 C 3182.67 -0.0376839 -5.73388 0
M  V30 33430 N 3182.17 -0.190995 -6.92537 0
M  V30 33431 N 3183.96 0.0192684 -5.62097 0
M  V30 33432 H 3176.11 -0.995056 -1.8765 0
M  V30 33433 H 3178.37 -0.387917 -0.865 0
M  V30 33434 H 3178.08 -0.878882 -3.40542 0
M  V30 33435 H 3177.95 0.850482 -3.67487 0
M  V30 33436 H 3180.34 1.13401 -2.72441 0
M  V30 33437 H 3180.42 -0.616915 -2.48249 0
M  V30 33438 H 3180.07 -0.95708 -4.98801 0
M  V30 33439 H 3180 0.809989 -5.20333 0
M  V30 33440 H 3182.49 0.179163 -3.77475 0
M  V30 33441 H 3182.8 -0.259396 -7.72365 0
M  V30 33442 H 3181.14 -0.226336 -6.94631 0
M  V30 33443 H 3184.34 0.137732 -4.67897 0
M  V30 33444 H 3184.51 -0.062026 -6.4797 0
M  V30 33445 N 3177.91 1.56283 0.203321 0
M  V30 33446 C 3179.16 1.81311 0.921845 0
M  V30 33447 C 3179.52 0.646025 1.8123 0
M  V30 33448 O 3178.81 -0.359173 1.88203 0
M  V30 33449 C 3179 3.09915 1.7801 0
M  V30 33450 C 3178.83 4.3902 0.974231 0
M  V30 33451 C 3177.6 5.00946 0.661913 0
M  V30 33452 C 3179.8 5.13235 0.330835 0
M  V30 33453 N 3177.78 6.13682 -0.163452 0
M  V30 33454 C 3179.15 6.18971 -0.357098 0
M  V30 33455 C 3181.21 4.97293 0.245721 0
M  V30 33456 C 3179.91 7.10495 -1.12203 0
M  V30 33457 C 3181.94 5.89233 -0.505788 0
M  V30 33458 C 3181.3 6.94409 -1.1822 0
M  V30 33459 H 3177.4 0.714871 0.316991 0
M  V30 33460 H 3179.98 1.93759 0.191221 0
M  V30 33461 H 3178.15 2.98717 2.4824 0
M  V30 33462 H 3179.88 3.23062 2.43748 0
M  V30 33463 H 3176.64 4.63257 0.984355 0
M  V30 33464 H 3177.06 6.74634 -0.565504 0
M  V30 33465 H 3181.71 4.16017 0.754323 0
M  V30 33466 H 3179.42 7.9124 -1.64209 0
M  V30 33467 H 3183.01 5.78973 -0.57289 0
M  V30 33468 H 3181.89 7.64323 -1.7544 0
M  V30 33469 N 3179.39 -0.470729 1.50406 0
M  V30 33470 C 3180.62 -1.24605 1.6517 0
M  V30 33471 C 3181.04 -1.85801 0.335186 0
M  V30 33472 O 3180.39 -1.69242 -0.68289 0
M  V30 33473 C 3180.44 -2.3545 2.74309 0
M  V30 33474 O 3180.17 -1.76764 4.00857 0
M  V30 33475 C 3181.67 -3.26321 3.0005 0
M  V30 33476 H 3178.89 -0.376832 0.555192 0
M  V30 33477 H 3181.43 -0.561835 1.96631 0
M  V30 33478 H 3179.59 -2.99647 2.45542 0
M  V30 33479 H 3180 -2.49761 4.61215 0
M  V30 33480 H 3181.47 -4.00307 3.80077 0
M  V30 33481 H 3181.95 -3.85122 2.11134 0
M  V30 33482 H 3182.56 -2.6786 3.3035 0
M  V30 33483 N 3180.87 -1.39989 -0.72393 0
M  V30 33484 C 3181.82 -1.39592 -1.83801 0
M  V30 33485 C 3182.79 -0.254025 -1.64146 0
M  V30 33486 O 3183.97 -0.450825 -1.85397 0
M  V30 33487 C 3181.11 -1.25609 -3.21428 0
M  V30 33488 C 3180.23 -2.49436 -3.52712 0
M  V30 33489 C 3179.36 -2.27958 -4.79801 0
M  V30 33490 C 3178.4 -3.47403 -5.03962 0
M  V30 33491 N 3177.54 -3.25172 -6.2226 0
M  V30 33492 H 3182.38 -2.34821 -1.83475 0
M  V30 33493 H 3179.91 -1.16634 -0.896375 0
M  V30 33494 H 3181.87 -1.15511 -4.0089 0
M  V30 33495 H 3180.5 -0.340043 -3.21004 0
M  V30 33496 H 3179.55 -2.70094 -2.67868 0
M  V30 33497 H 3180.87 -3.38369 -3.6648 0
M  V30 33498 H 3180.02 -2.15165 -5.67264 0
M  V30 33499 H 3178.76 -1.36436 -4.68227 0
M  V30 33500 H 3177.76 -3.60681 -4.14957 0
M  V30 33501 H 3178.99 -4.3984 -5.17414 0
M  V30 33502 H 3176.94 -2.36325 -6.11953 0
M  V30 33503 H 3176.85 -4.07667 -6.36666 0
M  V30 33504 H 3178.12 -3.16096 -7.12533 0
M  V30 33505 N 3182.35 0.955282 -1.25348 0
M  V30 33506 C 3183.63 1.67607 -1.00832 0
M  V30 33507 C 3184.01 2.05901 0.465639 0
M  V30 33508 O 3183.35 1.77185 1.44284 0
M  V30 33509 C 3183.56 2.89883 -1.94342 0
M  V30 33510 C 3184.91 3.6185 -2.22148 0
M  V30 33511 O 3185.94 2.99963 -1.92095 0
M  V30 33512 O 3184.8 4.73284 -2.73248 0
M  V30 33513 H 3181.89 0.733318 -0.382327 0
M  V30 33514 H 3184.44 1.00826 -1.365 0
M  V30 33515 H 3183.21 2.58371 -2.93871 0
M  V30 33516 H 3182.83 3.64394 -1.59068 0
M  V30 33517 N 3183.83 1.06924 1.1578 0
M  V30 33518 C 3185.24 0.813173 1.68061 0
M  V30 33519 C 3185.59 -0.662342 1.84682 0
M  V30 33520 O 3184.71 -1.51318 1.54699 0
M  V30 33521 C 3185.31 1.46954 3.0527 0
M  V30 33522 C 3183.87 1.2611 3.54645 0
M  V30 33523 C 3183.02 1.54198 2.30474 0
M  V30 33524 H 3185.97 1.23186 1.00054 0
M  V30 33525 H 3185.99 0.888373 3.69984 0
M  V30 33526 H 3185.5 2.54343 2.93141 0
M  V30 33527 H 3183.6 0.207245 3.72023 0
M  V30 33528 H 3183.71 1.97827 4.3635 0
M  V30 33529 H 3182.08 0.962801 2.35801 0
M  V30 33530 H 3182.86 2.62759 2.20936 0
M  V30 33531 N 3185.31 -1.32538 0.852723 0
M  V30 33532 C 3186.72 -1.50103 0.542324 0
M  V30 33533 C 3186.92 -1.78888 -0.927434 0
M  V30 33534 O 3185.98 -1.85731 -1.71057 0
M  V30 33535 C 3187.29 -2.64649 1.42764 0
M  V30 33536 C 3188.84 -2.78534 1.42787 0
M  V30 33537 C 3189.31 -3.96156 2.29835 0
M  V30 33538 N 3190.8 -4.03414 2.2762 0
M  V30 33539 C 3191.54 -4.93656 2.91704 0
M  V30 33540 N 3191.04 -5.88918 3.64893 0
M  V30 33541 N 3192.83 -4.86763 2.81102 0
M  V30 33542 H 3184.98 -1.12119 1.80397 0
M  V30 33543 H 3187.24 -0.552433 0.770404 0
M  V30 33544 H 3186.95 -2.50101 2.4727 0
M  V30 33545 H 3186.82 -3.60386 1.11364 0
M  V30 33546 H 3189.21 -2.92505 0.390468 0
M  V30 33547 H 3189.29 -1.83516 1.78201 0
M  V30 33548 H 3188.93 -3.82943 3.33642 0
M  V30 33549 H 3188.86 -4.90446 1.91755 0
M  V30 33550 H 3191.36 -3.35247 1.74408 0
M  V30 33551 H 3191.67 -6.54469 4.10963 0
M  V30 33552 H 3190.01 -5.88951 3.69001 0
M  V30 33553 H 3193.2 -4.1131 2.23476 0
M  V30 33554 H 3193.38 -5.5689 3.31328 0
M  V30 33555 N 3186.78 -0.610474 -1.45296 0
M  V30 33556 C 3187.73 0.119126 -2.32295 0
M  V30 33557 C 3188.73 0.85672 -1.46139 0
M  V30 33558 O 3189.93 0.771959 -1.62606 0
M  V30 33559 H 3186.31 0.057275 -0.749816 0
M  V30 33560 H 3188.28 -0.633021 -2.91608 0
M  V30 33561 C 3187.03 1.10113 -3.29804 0
M  V30 33562 H 3186.35 0.542993 -3.96095 0
M  V30 33563 H 3187.79 1.58151 -3.93401 0
M  V30 33564 C 3186.25 2.17613 -2.57189 0
M  V30 33565 O 3186.78 3.25397 -2.35541 0
M  V30 33566 N 3184.98 1.92976 -2.17275 0
M  V30 33567 H 3184.53 1.0533 -2.35082 0
M  V30 33568 H 3184.49 2.65107 -1.69014 0
M  V30 33569 N 3188.26 1.53669 -0.349801 0
M  V30 33570 C 3189.49 2.05432 0.246002 0
M  V30 33571 C 3189.9 1.22437 1.43717 0
M  V30 33572 O 3189.26 0.261198 1.80621 0
M  V30 33573 C 3189.31 3.55517 0.654947 0
M  V30 33574 O 3189.03 4.35364 -0.488859 0
M  V30 33575 C 3190.53 4.23477 1.31081 0
M  V30 33576 H 3187.75 0.669395 0.0463834 0
M  V30 33577 H 3190.3 1.98202 -0.503601 0
M  V30 33578 H 3188.45 3.6295 1.35448 0
M  V30 33579 H 3188.87 5.24251 -0.16162 0
M  V30 33580 H 3190.34 5.2986 1.54765 0
M  V30 33581 H 3190.82 3.76212 2.2663 0
M  V30 33582 H 3191.42 4.20255 0.653137 0
M  V30 33583 N 3189.74 0.0785709 1.57404 0
M  V30 33584 C 3190.67 -0.915976 2.10101 0
M  V30 33585 C 3191.68 -1.25696 1.03461 0
M  V30 33586 O 3192.87 -1.21296 1.30956 0
M  V30 33587 C 3189.97 -2.22987 2.55206 0
M  V30 33588 C 3189.15 -2.06671 3.85494 0
M  V30 33589 C 3188.21 -3.21425 4.1662 0
M  V30 33590 O 3187.23 -2.96117 4.8611 0
M  V30 33591 N 3188.43 -4.4672 3.70705 0
M  V30 33592 H 3191.2 -0.466007 2.96055 0
M  V30 33593 H 3188.76 -0.106978 1.61546 0
M  V30 33594 H 3190.75 -2.98675 2.73085 0
M  V30 33595 H 3189.32 -2.59461 1.74352 0
M  V30 33596 H 3188.54 -1.15411 3.76927 0
M  V30 33597 H 3189.83 -1.93028 4.70763 0
M  V30 33598 H 3189.23 -4.70166 3.14579 0
M  V30 33599 H 3187.78 -5.19411 3.93771 0
M  V30 33600 N 3191.22 -1.56389 -0.19503 0
M  V30 33601 C 3192.49 -1.71461 -0.941305 0
M  V30 33602 C 3192.87 -0.633371 -2.01374 0
M  V30 33603 O 3192.22 0.35563 -2.25716 0
M  V30 33604 C 3192.43 -3.13789 -1.52767 0
M  V30 33605 C 3193.78 -3.74024 -2.00976 0
M  V30 33606 O 3194.8 -3.16918 -1.62609 0
M  V30 33607 O 3193.66 -4.74245 -2.71577 0
M  V30 33608 H 3190.76 -0.699329 -0.441439 0
M  V30 33609 H 3193.3 -1.68692 -0.184722 0
M  V30 33610 H 3192.08 -3.83954 -0.754632 0
M  V30 33611 H 3191.7 -3.20787 -2.34908 0
M  V30 33612 N 3192.7 0.462746 -1.50653 0
M  V30 33613 C 3193.65 1.55749 -1.66512 0
M  V30 33614 C 3194.63 1.52281 -0.519534 0
M  V30 33615 O 3195.82 1.59164 -0.774324 0
M  V30 33616 C 3192.95 2.94136 -1.77028 0
M  V30 33617 C 3192.04 3.02456 -2.9729 0
M  V30 33618 N 3192.43 2.80571 -4.20848 0
M  V30 33619 C 3190.73 3.33599 -2.9602 0
M  V30 33620 C 3191.43 2.94075 -5.01891 0
M  V30 33621 N 3190.4 3.24641 -4.36015 0
M  V30 33622 H 3194.2 1.37541 -2.5973 0
M  V30 33623 H 3191.72 0.669627 -1.47952 0
M  V30 33624 H 3193.72 3.72861 -1.86494 0
M  V30 33625 H 3192.38 3.13384 -0.849743 0
M  V30 33626 H 3193.39 2.5599 -4.5021 0
M  V30 33627 H 3190.06 3.58782 -2.13499 0
M  V30 33628 H 3191.45 2.81324 -6.10169 0
M  V30 33629 N 3194.17 1.40371 0.716495 0
M  V30 33630 C 3195.42 1.38805 1.47854 0
M  V30 33631 C 3195.75 -0.0100194 1.94197 0
M  V30 33632 O 3195.03 -0.978491 1.68095 0
M  V30 33633 C 3195.31 2.37672 2.70526 0
M  V30 33634 C 3195.16 3.865 2.30083 0
M  V30 33635 C 3196.48 2.34088 3.7268 0
M  V30 33636 H 3193.6 0.505509 0.536311 0
M  V30 33637 H 3196.24 1.715 0.817794 0
M  V30 33638 H 3194.39 2.09922 3.26902 0
M  V30 33639 H 3196.07 4.25073 1.79195 0
M  V30 33640 H 3194.31 4.02377 1.62095 0
M  V30 33641 H 3194.98 4.51191 3.1801 0
M  V30 33642 H 3197.46 2.58666 3.25931 0
M  V30 33643 H 3196.33 3.05314 4.56152 0
M  V30 33644 H 3196.59 1.3522 4.20913 0
M  V30 33645 N 3195.65 -0.948621 1.25853 0
M  V30 33646 C 3197.07 -1.22079 1.02805 0
M  V30 33647 C 3197.27 -1.99925 -0.251426 0
M  V30 33648 O 3196.32 -2.33434 -0.962551 0
M  V30 33649 C 3197.64 -1.98932 2.25492 0
M  V30 33650 C 3199.19 -2.11952 2.30316 0
M  V30 33651 C 3199.66 -2.92204 3.52676 0
M  V30 33652 N 3201.15 -2.99781 3.53109 0
M  V30 33653 C 3201.89 -3.62286 4.44451 0
M  V30 33654 N 3201.38 -4.26352 5.46073 0
M  V30 33655 N 3203.18 -3.59485 4.32119 0
M  V30 33656 H 3195.33 -0.428007 2.08043 0
M  V30 33657 H 3197.59 -0.251856 0.913933 0
M  V30 33658 H 3197.3 -1.49134 3.18515 0
M  V30 33659 H 3197.17 -2.9962 2.29145 0
M  V30 33660 H 3199.56 -2.60944 1.37812 0
M  V30 33661 H 3199.64 -1.10549 2.30678 0
M  V30 33662 H 3199.28 -2.43901 4.45505 0
M  V30 33663 H 3199.21 -3.93846 3.49561 0
M  V30 33664 H 3201.7 -2.54227 2.79602 0
M  V30 33665 H 3202.02 -4.71921 6.11972 0
M  V30 33666 H 3200.36 -4.24962 5.49939 0
M  V30 33667 H 3203.55 -3.08623 3.51951 0
M  V30 33668 H 3203.72 -4.07911 5.035 0
M  V30 33669 N 3197.13 -1.07536 -1.15212 0
M  V30 33670 C 3198.36 -0.820917 -1.90462 0
M  V30 33671 C 3198.78 0.620274 -1.77579 0
M  V30 33672 O 3198.14 1.43364 -1.10979 0
M  V30 33673 C 3198.19 -1.23633 -3.38744 0
M  V30 33674 O 3197.29 -0.382788 -4.1062 0
M  V30 33675 H 3196.63 -0.298911 -0.592915 0
M  V30 33676 H 3199.16 -1.43447 -1.45891 0
M  V30 33677 H 3199.17 -1.21333 -3.89541 0
M  V30 33678 H 3197.85 -2.28602 -3.47439 0
M  V30 33679 H 3196.42 -0.468439 -3.69946 0
M  V30 33680 N 3198.61 1.32084 -0.85974 0
M  V30 33681 C 3199.54 2.31248 -0.323543 0
M  V30 33682 C 3200.52 1.59904 0.580057 0
M  V30 33683 O 3201.7 1.87673 0.499232 0
M  V30 33684 C 3198.83 3.43902 0.4846 0
M  V30 33685 C 3197.79 4.26764 -0.325008 0
M  V30 33686 C 3197.11 5.3123 0.608187 0
M  V30 33687 C 3198.41 4.98661 -1.55353 0
M  V30 33688 H 3200.11 2.76344 -1.15214 0
M  V30 33689 H 3197.65 1.32855 -0.555465 0
M  V30 33690 H 3199.61 4.12318 0.870166 0
M  V30 33691 H 3198.33 2.97547 1.34661 0
M  V30 33692 H 3196.99 3.60002 -0.692391 0
M  V30 33693 H 3196.64 4.81126 1.46719 0
M  V30 33694 H 3196.34 5.87558 0.0704538 0
M  V30 33695 H 3197.86 6.02507 0.990819 0
M  V30 33696 H 3199.28 5.5973 -1.23997 0
M  V30 33697 H 3197.67 5.64737 -2.02957 0
M  V30 33698 H 3198.74 4.26233 -2.312 0
M  V30 33699 N 3200.09 0.618171 1.4497 0
M  V30 33700 C 3201.33 0.120661 2.04044 0
M  V30 33701 C 3201.69 -1.22944 1.47474 0
M  V30 33702 O 3202.89 -1.8183 1.97968 0
M  V30 33703 C 3201.16 0.0931491 3.57279 0
M  V30 33704 S 3202.72 -0.341629 4.37468 0
M  V30 33705 H 3199.54 0.0547397 0.70889 0
M  V30 33706 H 3202.14 0.818652 1.77534 0
M  V30 33707 H 3200.85 1.0791 3.95959 0
M  V30 33708 H 3200.38 -0.626502 3.88379 0
M  V30 33709 H 3202.39 -1.5888 4.70076 0
M  V30 33710 N 3201.56 -1.53481 0.357946 0
M  V30 33711 C 3202.49 -2.28425 -0.484191 0
M  V30 33712 C 3203.48 -1.3055 -1.09044 0
M  V30 33713 O 3204.66 -1.59411 -1.10913 0
M  V30 33714 C 3201.79 -3.0678 -1.62798 0
M  V30 33715 C 3200.74 -4.12279 -1.14935 0
M  V30 33716 C 3200.07 -4.78673 -2.38278 0
M  V30 33717 C 3201.37 -5.2175 -0.239535 0
M  V30 33718 H 3203.06 -2.99068 0.141032 0
M  V30 33719 H 3200.61 -1.43833 0.0692693 0
M  V30 33720 H 3202.56 -3.57953 -2.22368 0
M  V30 33721 H 3201.29 -2.33814 -2.28032 0
M  V30 33722 H 3199.95 -3.62041 -0.576378 0
M  V30 33723 H 3199.59 -4.02286 -3.01952 0
M  V30 33724 H 3199.29 -5.49958 -2.06929 0
M  V30 33725 H 3200.82 -5.32636 -2.98549 0
M  V30 33726 H 3202.23 -5.68472 -0.742497 0
M  V30 33727 H 3200.63 -6.00098 -0.0172692 0
M  V30 33728 H 3201.7 -4.79519 0.720417 0
M  V30 33729 N 3203.04 -0.0869173 -1.5736 0
M  V30 33730 C 3203.97 0.872214 -2.16598 0
M  V30 33731 C 3204.95 1.29993 -1.09708 0
M  V30 33732 O 3206.14 1.36828 -1.3781 0
M  V30 33733 C 3203.27 2.13435 -2.73976 0
M  V30 33734 C 3202.22 1.84553 -3.86166 0
M  V30 33735 C 3201.55 3.17526 -4.30211 0
M  V30 33736 C 3202.85 1.1389 -5.09732 0
M  V30 33737 H 3204.54 0.378686 -2.96996 0
M  V30 33738 H 3202.09 0.180705 -1.42862 0
M  V30 33739 H 3204.04 2.80963 -3.14067 0
M  V30 33740 H 3202.77 2.65056 -1.90821 0
M  V30 33741 H 3201.42 1.19426 -3.46602 0
M  V30 33742 H 3201.07 3.67018 -3.43958 0
M  V30 33743 H 3200.77 2.98987 -5.05847 0
M  V30 33744 H 3202.3 3.86226 -4.72929 0
M  V30 33745 H 3203.71 1.71513 -5.47043 0
M  V30 33746 H 3202.11 1.05558 -5.90743 0
M  V30 33747 H 3203.18 0.120347 -4.84751 0
M  V30 33748 N 3204.52 1.5649 0.186734 0
M  V30 33749 C 3205.48 1.94341 1.21508 0
M  V30 33750 C 3206.48 0.825394 1.38 0
M  V30 33751 O 3207.67 1.09269 1.35669 0
M  V30 33752 C 3204.81 2.22477 2.58296 0
M  V30 33753 H 3206 2.86349 0.891321 0
M  V30 33754 H 3203.55 1.50309 0.428586 0
M  V30 33755 H 3204.29 1.33134 2.95713 0
M  V30 33756 H 3204.07 3.03956 2.47696 0
M  V30 33757 H 3205.56 2.52736 3.32437 0
M  V30 33758 N 3206 -0.45475 1.50897 0
M  V30 33759 C 3207.24 -1.20441 1.63907 0
M  V30 33760 C 3207.6 -1.89323 0.342726 0
M  V30 33761 O 3206.89 -1.79858 -0.660433 0
M  V30 33762 C 3207.09 -2.26037 2.76843 0
M  V30 33763 C 3206.92 -1.67516 4.17335 0
M  V30 33764 C 3205.69 -1.4677 4.83515 0
M  V30 33765 C 3207.88 -1.16101 5.01024 0
M  V30 33766 N 3205.87 -0.836643 6.08172 0
M  V30 33767 C 3207.24 -0.654174 6.16539 0
M  V30 33768 C 3209.29 -1.05111 4.86679 0
M  V30 33769 C 3207.99 -0.0482557 7.19284 0
M  V30 33770 C 3210.02 -0.459107 5.89615 0
M  V30 33771 C 3209.38 0.0372714 7.0439 0
M  V30 33772 H 3205.48 -0.429018 0.65381 0
M  V30 33773 H 3208.07 -0.50375 1.8807 0
M  V30 33774 H 3206.24 -2.9351 2.54374 0
M  V30 33775 H 3207.97 -2.93038 2.79125 0
M  V30 33776 H 3204.72 -1.72456 4.41085 0
M  V30 33777 H 3205.15 -0.539057 6.7485 0
M  V30 33778 H 3209.79 -1.42078 3.98213 0
M  V30 33779 H 3207.51 0.33358 8.07411 0
M  V30 33780 H 3211.09 -0.376213 5.80582 0
M  V30 33781 H 3209.97 0.488172 7.82679 0
M  V30 33782 N 3207.48 -1.40749 -0.709041 0
M  V30 33783 C 3208.43 -1.38009 -1.81487 0
M  V30 33784 C 3209.41 -0.256572 -1.58841 0
M  V30 33785 O 3210.6 -0.496194 -1.69903 0
M  V30 33786 C 3207.73 -1.25148 -3.19676 0
M  V30 33787 C 3206.82 -2.42307 -3.48063 0
M  V30 33788 N 3207.21 -3.67786 -3.47227 0
M  V30 33789 C 3205.51 -2.35829 -3.78551 0
M  V30 33790 C 3206.21 -4.45413 -3.74142 0
M  V30 33791 N 3205.18 -3.75342 -3.93217 0
M  V30 33792 H 3208.99 -2.3296 -1.79184 0
M  V30 33793 H 3206.5 -1.34614 -0.908453 0
M  V30 33794 H 3208.5 -1.21267 -3.98873 0
M  V30 33795 H 3207.16 -0.311699 -3.232 0
M  V30 33796 H 3208.17 -4.00858 -3.27923 0
M  V30 33797 H 3204.84 -1.50252 -3.89526 0
M  V30 33798 H 3206.23 -5.54295 -3.79745 0
M  V30 33799 N 3208.96 0.941933 -1.26354 0
M  V30 33800 C 3209.9 2.06186 -1.07657 0
M  V30 33801 C 3210.9 1.694 -0.00372719 0
M  V30 33802 O 3212.1 1.79284 -0.160348 0
M  V30 33803 H 3208.48 0.675095 -0.331286 0
M  V30 33804 H 3210.45 2.19107 -2.0257 0
M  V30 33805 C 3209.2 3.40047 -0.725496 0
M  V30 33806 H 3208.52 3.68829 -1.54289 0
M  V30 33807 H 3209.96 4.19226 -0.634457 0
M  V30 33808 C 3208.42 3.32055 0.56931 0
M  V30 33809 O 3208.95 3.68119 1.60784 0
M  V30 33810 N 3207.16 2.8516 0.559663 0
M  V30 33811 H 3206.7 2.56009 -0.285862 0
M  V30 33812 H 3206.66 2.80195 1.42612 0
M  V30 33813 N 3210.43 1.08146 1.1464 0
M  V30 33814 C 3211.68 0.807918 1.85249 0
M  V30 33815 C 3212 -0.668181 1.83195 0
M  V30 33816 O 3211.27 -1.48429 1.27851 0
M  V30 33817 H 3209.85 0.295881 0.685904 0
M  V30 33818 H 3212.51 1.36689 1.38933 0
M  V30 33819 H 3211.61 1.14969 2.90153 0
M  V30 33820 N 3211.91 -1.31626 0.866732 0
M  V30 33821 C 3212.82 -2.3236 0.323448 0
M  V30 33822 C 3213.84 -1.64573 -0.564966 0
M  V30 33823 O 3215.01 -1.96019 -0.462454 0
M  V30 33824 C 3212.08 -3.43513 -0.468985 0
M  V30 33825 C 3211.14 -4.26966 0.447004 0
M  V30 33826 C 3210.37 -5.32812 -0.307705 0
M  V30 33827 O 3210.6 -5.49324 -1.5362 0
M  V30 33828 O 3209.53 -6.00979 0.332759 0
M  V30 33829 H 3213.36 -2.80743 1.15832 0
M  V30 33830 H 3210.94 -1.35467 0.630011 0
M  V30 33831 H 3212.82 -4.11272 -0.918333 0
M  V30 33832 H 3211.5 -2.97298 -1.28046 0
M  V30 33833 H 3210.4 -3.61973 0.944783 0
M  V30 33834 H 3211.74 -4.76738 1.22398 0
M  V30 33835 N 3213.39 -0.62585 -1.4464 0
M  V30 33836 C 3214.3 0.0835721 -2.34451 0
M  V30 33837 C 3215.32 0.841263 -1.52311 0
M  V30 33838 O 3216.49 0.794721 -1.85057 0
M  V30 33839 C 3213.56 1.05642 -3.30213 0
M  V30 33840 C 3212.62 0.298683 -4.2826 0
M  V30 33841 C 3211.85 1.22519 -5.19447 0
M  V30 33842 O 3212.07 2.46372 -5.14448 0
M  V30 33843 O 3211.01 0.712365 -5.9767 0
M  V30 33844 H 3214.83 -0.654964 -2.96553 0
M  V30 33845 H 3212.42 -0.386055 -1.44326 0
M  V30 33846 H 3214.3 1.61625 -3.89172 0
M  V30 33847 H 3212.98 1.77566 -2.70651 0
M  V30 33848 H 3211.88 -0.304066 -3.72862 0
M  V30 33849 H 3213.22 -0.380431 -4.90728 0
M  V30 33850 N 3214.87 1.53289 -0.36608 0
M  V30 33851 C 3215.78 2.29467 0.488071 0
M  V30 33852 C 3216.79 1.35453 1.09217 0
M  V30 33853 O 3217.97 1.68511 1.103 0
M  V30 33854 C 3215.03 3.06947 1.61197 0
M  V30 33855 C 3214.1 4.16628 1.03536 0
M  V30 33856 C 3213.33 4.90404 2.1057 0
M  V30 33857 O 3213.55 4.64046 3.31689 0
M  V30 33858 O 3212.49 5.76322 1.73599 0
M  V30 33859 H 3216.31 3.03414 -0.131842 0
M  V30 33860 H 3213.9 1.48829 -0.130447 0
M  V30 33861 H 3215.78 3.55328 2.2654 0
M  V30 33862 H 3214.45 2.35836 2.21728 0
M  V30 33863 H 3213.36 3.72498 0.345827 0
M  V30 33864 H 3214.69 4.89907 0.474601 0
M  V30 33865 N 3216.35 0.0952613 1.57312 0
M  V30 33866 C 3217.58 -0.575949 1.9841 0
M  V30 33867 C 3217.98 -1.62251 0.973197 0
M  V30 33868 O 3217.33 -1.83644 -0.0454093 0
M  V30 33869 C 3217.39 -1.28161 3.35879 0
M  V30 33870 C 3217.05 -0.385788 4.55369 0
M  V30 33871 C 3218.05 0.366132 5.18609 0
M  V30 33872 C 3215.73 -0.303797 5.0138 0
M  V30 33873 C 3217.73 1.18802 6.26231 0
M  V30 33874 C 3215.42 0.521744 6.08869 0
M  V30 33875 C 3216.41 1.2663 6.71159 0
M  V30 33876 O 3216.1 2.07818 7.76574 0
M  V30 33877 H 3215.83 -0.159057 0.657021 0
M  V30 33878 H 3218.39 0.171273 2.04685 0
M  V30 33879 H 3216.62 -2.07541 3.26288 0
M  V30 33880 H 3218.31 -1.84737 3.61424 0
M  V30 33881 H 3219.07 0.31252 4.83992 0
M  V30 33882 H 3214.95 -0.872985 4.52659 0
M  V30 33883 H 3218.5 1.76967 6.7478 0
M  V30 33884 H 3214.39 0.576835 6.42917 0
M  V30 33885 H 3215.16 2.00502 7.93562 0
M  V30 33886 N 3217.82 -1.56587 -0.178432 0
M  V30 33887 C 3218.77 -1.96767 -1.24039 0
M  V30 33888 C 3219.77 -0.855401 -1.46216 0
M  V30 33889 O 3220.97 -1.04049 -1.4688 0
M  V30 33890 H 3217.35 -0.625927 -0.416796 0
M  V30 33891 H 3219.32 -2.85295 -0.874594 0
M  V30 33892 C 3218.07 -2.33765 -2.5739 0
M  V30 33893 H 3217.39 -3.18887 -2.41145 0
M  V30 33894 H 3218.83 -2.65729 -3.304 0
M  V30 33895 C 3217.29 -1.1784 -3.15619 0
M  V30 33896 O 3217.82 -0.462272 -3.99031 0
M  V30 33897 N 3216.02 -0.950831 -2.74604 0
M  V30 33898 H 3215.57 -1.53493 -2.06876 0
M  V30 33899 H 3215.53 -0.177022 -3.13901 0
M  V30 33900 N 3219.3 0.446741 -1.51136 0
M  V30 33901 C 3220.25 1.54155 -1.7177 0
M  V30 33902 C 3221.22 1.56403 -0.559229 0
M  V30 33903 O 3222.4 1.73558 -0.792598 0
M  V30 33904 C 3219.54 2.91949 -1.84011 0
M  V30 33905 C 3218.66 2.99302 -3.11516 0
M  V30 33906 C 3217.79 4.28161 -3.14407 0
M  V30 33907 C 3216.83 4.29347 -4.36266 0
M  V30 33908 N 3215.97 5.49714 -4.36759 0
M  V30 33909 H 3220.81 1.35864 -2.65226 0
M  V30 33910 H 3218.34 0.660163 -1.31454 0
M  V30 33911 H 3220.3 3.71888 -1.8909 0
M  V30 33912 H 3218.93 3.08819 -0.939715 0
M  V30 33913 H 3217.98 2.12084 -3.15792 0
M  V30 33914 H 3219.3 2.9604 -4.0145 0
M  V30 33915 H 3218.45 5.16467 -3.1835 0
M  V30 33916 H 3217.19 4.34066 -2.22346 0
M  V30 33917 H 3216.19 3.39435 -4.32509 0
M  V30 33918 H 3217.42 4.25113 -5.29581 0
M  V30 33919 H 3215.37 5.56359 -3.47563 0
M  V30 33920 H 3215.28 5.48293 -5.20491 0
M  V30 33921 H 3216.55 6.40079 -4.44882 0
M  V30 33922 N 3220.78 1.41123 0.701567 0
M  V30 33923 C 3222.03 1.40158 1.46157 0
M  V30 33924 C 3222.35 0.00864972 1.94498 0
M  V30 33925 O 3221.61 -0.978422 1.69486 0
M  V30 33926 C 3221.91 2.34977 2.69296 0
M  V30 33927 C 3221.57 3.81944 2.39645 0
M  V30 33928 C 3220.24 4.21981 2.31269 0
M  V30 33929 C 3222.59 4.74758 2.15067 0
M  V30 33930 C 3219.92 5.5285 1.96403 0
M  V30 33931 C 3222.27 6.0594 1.81711 0
M  V30 33932 C 3220.93 6.45005 1.71826 0
M  V30 33933 H 3220.2 0.512874 0.534828 0
M  V30 33934 H 3222.85 1.73879 0.802394 0
M  V30 33935 H 3221.15 1.9449 3.40119 0
M  V30 33936 H 3222.85 2.31507 3.27423 0
M  V30 33937 H 3219.44 3.5023 2.47057 0
M  V30 33938 H 3223.63 4.44634 2.20487 0
M  V30 33939 H 3218.88 5.82005 1.87298 0
M  V30 33940 H 3223.06 6.77364 1.61711 0
M  V30 33941 H 3220.68 7.46325 1.44578 0
M  V30 33942 N 3222.26 -0.935219 1.26852 0
M  V30 33943 C 3223.19 -2.05194 1.11434 0
M  V30 33944 C 3224.17 -1.70091 0.0178661 0
M  V30 33945 O 3225.35 -1.93259 0.190985 0
M  V30 33946 C 3222.48 -3.39042 0.752839 0
M  V30 33947 C 3221.44 -3.8823 1.80171 0
M  V30 33948 C 3220.76 -5.18797 1.29437 0
M  V30 33949 C 3222.06 -4.12452 3.20439 0
M  V30 33950 H 3223.76 -2.18351 2.04849 0
M  V30 33951 H 3221.3 -1.0492 0.986295 0
M  V30 33952 H 3223.26 -4.16636 0.63183 0
M  V30 33953 H 3221.98 -3.25878 -0.217018 0
M  V30 33954 H 3220.64 -3.12822 1.91149 0
M  V30 33955 H 3220.29 -5.02018 0.314188 0
M  V30 33956 H 3219.99 -5.52677 1.99556 0
M  V30 33957 H 3221.51 -5.98968 1.18615 0
M  V30 33958 H 3222.93 -4.8064 3.12503 0
M  V30 33959 H 3221.32 -4.57625 3.88201 0
M  V30 33960 H 3222.39 -3.18016 3.66052 0
M  V30 33961 N 3223.74 -1.08752 -1.14065 0
M  V30 33962 C 3224.7 -0.724379 -2.17452 0
M  V30 33963 C 3225.7 0.242586 -1.5896 0
M  V30 33964 O 3226.89 0.0216702 -1.74187 0
M  V30 33965 C 3224.02 -0.0700835 -3.40828 0
M  V30 33966 H 3225.21 -1.63991 -2.51092 0
M  V30 33967 H 3222.77 -0.885835 -1.28774 0
M  V30 33968 H 3223.5 0.857006 -3.12771 0
M  V30 33969 H 3223.29 -0.765758 -3.8455 0
M  V30 33970 H 3224.78 0.168832 -4.17259 0
M  V30 33971 N 3225.21 1.31165 -0.873701 0
M  V30 33972 C 3226.16 2.28424 -0.330328 0
M  V30 33973 C 3227.13 1.55894 0.573271 0
M  V30 33974 O 3228.32 1.8402 0.504111 0
M  V30 33975 C 3225.46 3.42035 0.458944 0
M  V30 33976 C 3224.57 4.29407 -0.472594 0
M  V30 33977 C 3223.7 5.30167 0.331168 0
M  V30 33978 C 3222.74 6.09186 -0.59656 0
M  V30 33979 N 3221.88 7.01891 0.171182 0
M  V30 33980 H 3226.72 2.74288 -1.1649 0
M  V30 33981 H 3224.26 1.34931 -0.585836 0
M  V30 33982 H 3226.22 4.06648 0.932361 0
M  V30 33983 H 3224.85 2.9727 1.25818 0
M  V30 33984 H 3223.9 3.65203 -1.06447 0
M  V30 33985 H 3225.21 4.84549 -1.1838 0
M  V30 33986 H 3224.36 6.00474 0.866932 0
M  V30 33987 H 3223.1 4.7569 1.07565 0
M  V30 33988 H 3222.11 5.37765 -1.14405 0
M  V30 33989 H 3223.33 6.65749 -1.33995 0
M  V30 33990 H 3221.28 6.49819 0.898406 0
M  V30 33991 H 3221.2 7.54471 -0.480614 0
M  V30 33992 H 3222.46 7.76457 0.688055 0
M  V30 33993 N 3226.69 0.633512 1.44307 0
M  V30 33994 C 3227.94 0.136391 2.01238 0
M  V30 33995 C 3228.25 -1.25008 1.50441 0
M  V30 33996 O 3229.46 -1.84135 1.99516 0
M  V30 33997 C 3227.92 0.193075 3.59382 0
M  V30 33998 C 3227.52 1.58101 4.19176 0
M  V30 33999 C 3229.27 -0.24746 4.23778 0
M  V30 34000 C 3227.18 1.59268 5.69551 0
M  V30 34001 H 3226.11 0.0472241 0.75252 0
M  V30 34002 H 3228.76 0.792659 1.65497 0
M  V30 34003 H 3227.14 -0.530339 3.92433 0
M  V30 34004 H 3228.31 2.3282 3.97658 0
M  V30 34005 H 3226.63 1.96583 3.67075 0
M  V30 34006 H 3229.22 -0.258307 5.34076 0
M  V30 34007 H 3229.57 -1.27522 3.96288 0
M  V30 34008 H 3230.1 0.423539 3.95539 0
M  V30 34009 H 3226.84 2.59888 6.01779 0
M  V30 34010 H 3226.36 0.888456 5.93183 0
M  V30 34011 H 3228.04 1.32767 6.33231 0
M  V30 34012 N 3228.17 -1.53093 0.374204 0
M  V30 34013 C 3229.59 -1.59583 0.0235063 0
M  V30 34014 C 3229.79 -1.38894 -1.45982 0
M  V30 34015 O 3228.84 -1.1984 -2.22249 0
M  V30 34016 C 3230.16 -2.96727 0.487169 0
M  V30 34017 C 3231.7 -3.09862 0.442128 0
M  V30 34018 C 3232.18 -4.49432 0.881738 0
M  V30 34019 N 3233.67 -4.55572 0.837142 0
M  V30 34020 C 3234.4 -5.61772 1.14888 0
M  V30 34021 N 3233.9 -6.75687 1.53034 0
M  V30 34022 N 3235.69 -5.518 1.07112 0
M  V30 34023 H 3227.84 -1.64791 1.34006 0
M  V30 34024 H 3230.11 -0.773354 0.548294 0
M  V30 34025 H 3229.81 -3.17034 1.52258 0
M  V30 34026 H 3229.69 -3.77004 -0.121706 0
M  V30 34027 H 3232.07 -2.8926 -0.584165 0
M  V30 34028 H 3232.16 -2.31574 1.08661 0
M  V30 34029 H 3231.8 -4.70773 1.90619 0
M  V30 34030 H 3231.73 -5.26163 0.214419 0
M  V30 34031 H 3234.22 -3.73784 0.556239 0
M  V30 34032 H 3234.53 -7.52673 1.75224 0
M  V30 34033 H 3232.88 -6.77056 1.56907 0
M  V30 34034 H 3236.07 -4.61686 0.77223 0
M  V30 34035 H 3236.24 -6.34467 1.31739 0
M  V30 34036 N 3229.65 -0.103603 -1.57259 0
M  V30 34037 C 3230.87 0.569603 -1.99425 0
M  V30 34038 C 3231.3 1.60401 -0.982503 0
M  V30 34039 O 3230.66 1.81237 0.0478912 0
M  V30 34040 C 3230.7 1.18627 -3.40529 0
M  V30 34041 O 3229.81 2.30202 -3.42171 0
M  V30 34042 H 3229.15 0.143747 -0.648254 0
M  V30 34043 H 3231.68 -0.187529 -2.03739 0
M  V30 34044 H 3231.69 1.52553 -3.78407 0
M  V30 34045 H 3230.36 0.428509 -4.13687 0
M  V30 34046 H 3228.94 1.97831 -3.16097 0
M  V30 34047 N 3231.13 1.56679 0.170126 0
M  V30 34048 C 3232.37 1.82331 0.887874 0
M  V30 34049 C 3232.71 0.68164 1.81844 0
M  V30 34050 O 3231.98 -0.316328 1.9191 0
M  V30 34051 C 3232.26 3.18377 1.68251 0
M  V30 34052 C 3232.12 4.43073 0.774981 0
M  V30 34053 C 3233.44 3.51377 2.64995 0
M  V30 34054 H 3230.55 0.663258 0.321338 0
M  V30 34055 H 3233.2 1.89375 0.154032 0
M  V30 34056 H 3231.35 3.12503 2.30812 0
M  V30 34057 H 3233.02 4.61015 0.162153 0
M  V30 34058 H 3231.26 4.3372 0.0831047 0
M  V30 34059 H 3231.93 5.34818 1.36652 0
M  V30 34060 H 3234.41 3.57712 2.12559 0
M  V30 34061 H 3233.28 4.47642 3.1766 0
M  V30 34062 H 3233.55 2.76142 3.45251 0
M  V30 34063 N 3232.6 -0.43872 1.5137 0
M  V30 34064 C 3234.02 -1.01863 1.56463 0
M  V30 34065 C 3234.37 -1.9234 0.387278 0
M  V30 34066 O 3233.49 -2.10637 -0.496094 0
M  V30 34067 C 3234.09 -1.85416 2.8356 0
M  V30 34068 C 3232.65 -2.38459 2.91229 0
M  V30 34069 C 3231.79 -1.17637 2.51111 0
M  V30 34070 H 3234.74 -0.220044 1.57167 0
M  V30 34071 H 3234.76 -2.70852 2.67244 0
M  V30 34072 H 3234.28 -1.19539 3.69232 0
M  V30 34073 H 3232.38 -3.07795 2.09984 0
M  V30 34074 H 3232.49 -2.71351 3.94849 0
M  V30 34075 H 3230.85 -1.52127 2.04278 0
M  V30 34076 H 3231.64 -0.533725 3.39126 0
M  V30 34077 N 3234.08 -1.41493 -0.694073 0
M  V30 34078 C 3235.33 -1.40229 -1.44978 0
M  V30 34079 C 3235.64 -0.0151597 -1.95594 0
M  V30 34080 O 3236.85 0.120098 -2.71234 0
M  V30 34081 C 3235.31 -2.4657 -2.62166 0
M  V30 34082 C 3234.91 -3.91198 -2.1833 0
M  V30 34083 C 3236.66 -2.54445 -3.39791 0
M  V30 34084 C 3234.57 -4.89088 -3.32486 0
M  V30 34085 H 3233.5 -0.521493 -0.544574 0
M  V30 34086 H 3236.15 -1.67323 -0.75334 0
M  V30 34087 H 3234.53 -2.1261 -3.34085 0
M  V30 34088 H 3235.7 -4.34414 -1.53691 0
M  V30 34089 H 3234.02 -3.86997 -1.53695 0
M  V30 34090 H 3236.61 -3.24763 -4.24774 0
M  V30 34091 H 3236.96 -1.58176 -3.85079 0
M  V30 34092 H 3237.49 -2.87504 -2.7493 0
M  V30 34093 H 3234.23 -5.86766 -2.92209 0
M  V30 34094 H 3233.75 -4.50519 -3.9597 0
M  V30 34095 H 3235.43 -5.09914 -3.98242 0
M  V30 34096 N 3235.56 0.928479 -1.27346 0
M  V30 34097 C 3236.81 1.67277 -1.13414 0
M  V30 34098 C 3237.13 1.92345 0.320664 0
M  V30 34099 O 3236.4 1.52917 1.22447 0
M  V30 34100 H 3234.98 0.619961 -0.416722 0
M  V30 34101 H 3237.64 1.1149 -1.59862 0
M  V30 34102 H 3236.74 2.64128 -1.66261 0
M  V30 34103 N 3237.04 1.09355 1.13486 0
M  V30 34104 C 3238.45 0.82311 1.36737 0
M  V30 34105 C 3238.65 -0.562929 1.93477 0
M  V30 34106 O 3237.71 -1.31793 2.15376 0
M  V30 34107 C 3239.02 1.91375 2.3194 0
M  V30 34108 C 3240.57 1.9409 2.45557 0
M  V30 34109 C 3241.05 3.02295 3.44066 0
M  V30 34110 N 3242.54 3.0153 3.51616 0
M  V30 34111 C 3243.27 3.81897 4.27717 0
M  V30 34112 N 3242.77 4.7217 5.06979 0
M  V30 34113 N 3244.56 3.70159 4.23011 0
M  V30 34114 H 3236.71 1.98715 0.750085 0
M  V30 34115 H 3238.98 0.862907 0.392549 0
M  V30 34116 H 3238.68 2.91076 1.97403 0
M  V30 34117 H 3238.56 1.79136 3.31949 0
M  V30 34118 H 3240.94 0.950283 2.79381 0
M  V30 34119 H 3241.02 2.10406 1.45475 0
M  V30 34120 H 3240.67 4.01569 3.10974 0
M  V30 34121 H 3240.6 2.83222 4.43951 0
M  V30 34122 H 3243.09 2.36108 2.95061 0
M  V30 34123 H 3243.4 5.30077 5.62351 0
M  V30 34124 H 3241.75 4.76206 5.06214 0
M  V30 34125 H 3244.94 2.98995 3.60166 0
M  V30 34126 H 3245.11 4.3303 4.82067 0
M  V30 34127 N 3238.52 -1.307 0.880644 0
M  V30 34128 C 3239.48 -2.26525 0.349127 0
M  V30 34129 C 3240.48 -1.52633 -0.505946 0
M  V30 34130 O 3241.67 -1.71352 -0.313721 0
M  V30 34131 C 3238.8 -3.37169 -0.502964 0
M  V30 34132 H 3240 -2.75054 1.19521 0
M  V30 34133 H 3237.55 -1.41815 0.657132 0
M  V30 34134 H 3238.28 -2.9395 -1.36981 0
M  V30 34135 H 3238.07 -3.91947 0.109458 0
M  V30 34136 H 3239.56 -4.08506 -0.866773 0
M  V30 34137 N 3240 -0.641156 -1.43969 0
M  V30 34138 C 3240.93 0.044419 -2.33458 0
M  V30 34139 C 3241.91 0.824481 -1.48783 0
M  V30 34140 O 3243.09 0.788366 -1.77478 0
M  V30 34141 C 3240.22 1.01978 -3.3199 0
M  V30 34142 C 3239.18 0.35067 -4.26561 0
M  V30 34143 C 3238.5 1.43664 -5.15039 0
M  V30 34144 C 3239.8 -0.74939 -5.16896 0
M  V30 34145 H 3241.5 -0.702883 -2.91032 0
M  V30 34146 H 3239.04 -0.33946 -1.39942 0
M  V30 34147 H 3240.99 1.50822 -3.93485 0
M  V30 34148 H 3239.72 1.7981 -2.72646 0
M  V30 34149 H 3238.38 -0.117203 -3.66413 0
M  V30 34150 H 3238.03 2.20609 -4.52041 0
M  V30 34151 H 3237.73 0.994256 -5.79127 0
M  V30 34152 H 3239.25 1.92668 -5.79406 0
M  V30 34153 H 3240.66 -0.343635 -5.72269 0
M  V30 34154 H 3239.06 -1.11552 -5.89641 0
M  V30 34155 H 3240.13 -1.6124 -4.57307 0
M  V30 34156 N 3241.47 1.52892 -0.382318 0
M  V30 34157 C 3242.4 2.29166 0.447789 0
M  V30 34158 C 3243.38 1.32269 1.06953 0
M  V30 34159 O 3244.57 1.61156 1.08363 0
M  V30 34160 C 3241.7 3.09332 1.57896 0
M  V30 34161 C 3240.65 4.14055 1.08362 0
M  V30 34162 C 3239.98 4.82403 2.30633 0
M  V30 34163 C 3241.28 5.22065 0.156499 0
M  V30 34164 H 3242.97 2.98805 -0.188593 0
M  V30 34165 H 3240.52 1.43705 -0.0921432 0
M  V30 34166 H 3242.47 3.61445 2.16645 0
M  V30 34167 H 3241.2 2.37413 2.24283 0
M  V30 34168 H 3239.86 3.62912 0.518708 0
M  V30 34169 H 3239.5 4.07039 2.95513 0
M  V30 34170 H 3239.2 5.53181 1.98154 0
M  V30 34171 H 3240.73 5.37318 2.90037 0
M  V30 34172 H 3242.14 5.69581 0.651965 0
M  V30 34173 H 3240.54 6.00049 -0.0782033 0
M  V30 34174 H 3241.61 4.78312 -0.796613 0
M  V30 34175 N 3242.95 0.111941 1.57202 0
M  V30 34176 C 3243.88 -0.837645 2.17958 0
M  V30 34177 C 3244.86 -1.28231 1.11762 0
M  V30 34178 O 3246.05 -1.34618 1.3997 0
M  V30 34179 C 3243.18 -2.09049 2.77337 0
M  V30 34180 C 3242.13 -1.78386 3.89053 0
M  V30 34181 C 3241.46 -3.10641 4.35208 0
M  V30 34182 C 3242.76 -1.05766 5.11479 0
M  V30 34183 H 3244.45 -0.331389 2.9756 0
M  V30 34184 H 3242 -0.157954 1.43131 0
M  V30 34185 H 3243.95 -2.75931 3.18497 0
M  V30 34186 H 3242.67 -2.61987 1.95014 0
M  V30 34187 H 3241.33 -1.13896 3.48458 0
M  V30 34188 H 3240.98 -3.61499 3.49753 0
M  V30 34189 H 3240.68 -2.90901 5.10539 0
M  V30 34190 H 3242.21 -3.78653 4.79014 0
M  V30 34191 H 3243.62 -1.62789 5.49702 0
M  V30 34192 H 3242.02 -0.961469 5.92348 0
M  V30 34193 H 3243.09 -0.0432118 4.84881 0
M  V30 34194 N 3244.43 -1.56767 -0.161814 0
M  V30 34195 C 3245.84 -1.72118 -0.723354 0
M  V30 34196 C 3246.19 -0.723993 -1.82353 0
M  V30 34197 O 3245.32 0.112605 -2.16107 0
M  V30 34198 C 3245.91 -3.12075 -1.3189 0
M  V30 34199 C 3244.47 -3.29077 -1.82716 0
M  V30 34200 C 3243.62 -2.68061 -0.709816 0
M  V30 34201 H 3246.57 -1.58572 0.0636926 0
M  V30 34202 H 3246.59 -3.11252 -2.18866 0
M  V30 34203 H 3246.1 -3.84628 -0.517942 0
M  V30 34204 H 3244.2 -2.61496 -2.65425 0
M  V30 34205 H 3244.32 -4.36901 -1.96606 0
M  V30 34206 H 3242.68 -2.28128 -1.13269 0
M  V30 34207 H 3243.46 -3.43208 0.0794488 0
M  V30 34208 N 3245.91 0.430686 -1.51601 0
M  V30 34209 C 3246.82 1.54833 -1.7625 0
M  V30 34210 C 3247.83 1.61523 -0.647013 0
M  V30 34211 O 3249.01 1.78641 -0.930019 0
M  V30 34212 C 3246.07 2.9076 -1.88838 0
M  V30 34213 C 3245.14 2.94132 -3.12706 0
M  V30 34214 C 3244.37 4.23575 -3.24684 0
M  V30 34215 O 3244.59 5.16314 -2.42438 0
M  V30 34216 O 3243.53 4.33367 -4.17704 0
M  V30 34217 H 3247.35 1.36945 -2.71071 0
M  V30 34218 H 3244.94 0.614372 -1.36183 0
M  V30 34219 H 3246.82 3.71418 -1.99064 0
M  V30 34220 H 3245.49 3.08761 -0.972041 0
M  V30 34221 H 3244.4 2.12404 -3.07953 0
M  V30 34222 H 3245.73 2.81077 -4.0405 0
M  V30 34223 N 3247.39 1.4186 0.686559 0
M  V30 34224 C 3248.62 1.44864 1.47302 0
M  V30 34225 C 3249.02 0.0549619 1.8912 0
M  V30 34226 O 3248.37 -0.938073 1.57943 0
M  V30 34227 C 3248.43 2.30233 2.76103 0
M  V30 34228 C 3248.09 3.78274 2.56433 0
M  V30 34229 C 3249.09 4.70216 2.21795 0
M  V30 34230 C 3246.77 4.22414 2.71794 0
M  V30 34231 C 3248.77 6.04288 2.02768 0
M  V30 34232 C 3246.46 5.56548 2.52383 0
M  V30 34233 C 3247.45 6.47302 2.17921 0
M  V30 34234 O 3247.14 7.7896 1.98688 0
M  V30 34235 H 3246.87 0.495201 0.460166 0
M  V30 34236 H 3249.43 1.86894 0.852036 0
M  V30 34237 H 3247.66 1.83032 3.40641 0
M  V30 34238 H 3249.35 2.24832 3.37943 0
M  V30 34239 H 3250.11 4.37402 2.09535 0
M  V30 34240 H 3245.99 3.52074 2.97598 0
M  V30 34241 H 3249.54 6.75087 1.75793 0
M  V30 34242 H 3245.43 5.88939 2.64236 0
M  V30 34243 H 3246.2 7.90197 2.13379 0
M  V30 34244 N 3248.86 -0.921712 1.27837 0
M  V30 34245 C 3250.09 -1.70927 1.17468 0
M  V30 34246 C 3250.51 -1.86236 -0.264138 0
M  V30 34247 O 3249.87 -1.36674 -1.19122 0
M  V30 34248 C 3249.92 -3.08338 1.86975 0
M  V30 34249 O 3249.02 -3.95402 1.1718 0
M  V30 34250 H 3248.36 -0.523695 0.408216 0
M  V30 34251 H 3250.89 -1.15304 1.69015 0
M  V30 34252 H 3250.9 -3.58617 1.9457 0
M  V30 34253 H 3249.58 -2.96513 2.91638 0
M  V30 34254 H 3248.16 -3.53839 1.17695 0
M  V30 34255 N 3250.34 -1.09956 -1.12905 0
M  V30 34256 C 3251.57 -0.860938 -1.88137 0
M  V30 34257 C 3251.98 0.588224 -1.79403 0
M  V30 34258 O 3251.34 1.40524 -1.16444 0
M  V30 34259 C 3251.39 -1.29431 -3.37535 0
M  V30 34260 O 3251.11 -2.68664 -3.46051 0
M  V30 34261 C 3252.61 -1.08886 -4.29719 0
M  V30 34262 H 3249.83 -0.309358 -0.595432 0
M  V30 34263 H 3252.38 -1.46295 -1.42892 0
M  V30 34264 H 3250.53 -0.736076 -3.80343 0
M  V30 34265 H 3250.95 -2.87073 -4.38964 0
M  V30 34266 H 3252.42 -1.4413 -5.32851 0
M  V30 34267 H 3252.9 -0.0270825 -4.39192 0
M  V30 34268 H 3253.5 -1.63332 -3.92687 0
M  V30 34269 N 3251.82 1.30231 -0.887563 0
M  V30 34270 C 3252.75 2.30509 -0.372521 0
M  V30 34271 C 3253.73 1.61099 0.546008 0
M  V30 34272 O 3254.92 1.8869 0.459312 0
M  V30 34273 C 3252.05 3.44853 0.411544 0
M  V30 34274 C 3251 4.25979 -0.415458 0
M  V30 34275 C 3250.33 5.324 0.495369 0
M  V30 34276 C 3251.63 4.95254 -1.65895 0
M  V30 34277 H 3253.32 2.73838 -1.2105 0
M  V30 34278 H 3250.87 1.31647 -0.583521 0
M  V30 34279 H 3252.82 4.14071 0.782511 0
M  V30 34280 H 3251.54 3.00336 1.28319 0
M  V30 34281 H 3250.2 3.58452 -0.768597 0
M  V30 34282 H 3249.85 4.8413 1.3648 0
M  V30 34283 H 3249.55 5.87575 -0.0541917 0
M  V30 34284 H 3251.07 6.04473 0.862795 0
M  V30 34285 H 3252.49 5.56974 -1.35842 0
M  V30 34286 H 3250.88 5.60305 -2.14891 0
M  V30 34287 H 3251.95 4.21233 -2.40189 0
M  V30 34288 N 3253.3 0.648782 1.43627 0
M  V30 34289 C 3254.53 0.167738 2.05918 0
M  V30 34290 C 3254.94 -1.17004 1.48684 0
M  V30 34291 O 3254.28 -1.73241 0.611014 0
M  V30 34292 C 3254.34 -0.00259195 3.595 0
M  V30 34293 C 3254.01 1.25978 4.39293 0
M  V30 34294 C 3255 2.18751 4.7164 0
M  V30 34295 C 3252.69 1.50012 4.79376 0
M  V30 34296 C 3254.68 3.33856 5.42973 0
M  V30 34297 C 3252.37 2.65411 5.50455 0
M  V30 34298 C 3253.37 3.57158 5.82175 0
M  V30 34299 O 3253.05 4.70542 6.51802 0
M  V30 34300 H 3252.79 0.0851379 0.670617 0
M  V30 34301 H 3255.34 0.888383 1.85194 0
M  V30 34302 H 3253.57 -0.778564 3.78781 0
M  V30 34303 H 3255.26 -0.44043 4.03503 0
M  V30 34304 H 3256.03 2.01423 4.41196 0
M  V30 34305 H 3251.9 0.794825 4.54096 0
M  V30 34306 H 3255.45 4.05489 5.67648 0
M  V30 34307 H 3251.35 2.82675 5.80315 0
M  V30 34308 H 3252.11 4.6975 6.70282 0
M  V30 34309 N 3254.78 -1.52688 0.390421 0
M  V30 34310 C 3256.19 -1.59549 0.0404309 0
M  V30 34311 C 3256.39 -1.40435 -1.445 0
M  V30 34312 O 3255.45 -1.2219 -2.20965 0
M  V30 34313 C 3256.76 -2.96194 0.518613 0
M  V30 34314 C 3258.31 -3.09375 0.474968 0
M  V30 34315 C 3258.78 -4.48472 0.929357 0
M  V30 34316 N 3260.28 -4.54659 0.885415 0
M  V30 34317 C 3261.01 -5.60522 1.2084 0
M  V30 34318 N 3260.51 -6.74026 1.60192 0
M  V30 34319 N 3262.3 -5.50633 1.12958 0
M  V30 34320 H 3254.45 -1.63361 1.35746 0
M  V30 34321 H 3256.71 -0.767496 0.556466 0
M  V30 34322 H 3256.42 -3.15401 1.55612 0
M  V30 34323 H 3256.29 -3.77111 -0.0817127 0
M  V30 34324 H 3258.68 -2.89864 -0.553452 0
M  V30 34325 H 3258.76 -2.30408 1.11111 0
M  V30 34326 H 3258.41 -4.68724 1.95601 0
M  V30 34327 H 3258.34 -5.25906 0.270213 0
M  V30 34328 H 3260.83 -3.73173 0.595852 0
M  V30 34329 H 3261.14 -7.50772 1.83198 0
M  V30 34330 H 3259.48 -6.75354 1.64079 0
M  V30 34331 H 3262.68 -4.60841 0.821155 0
M  V30 34332 H 3262.85 -6.33034 1.38461 0
M  V30 34333 N 3256.25 -0.120276 -1.5714 0
M  V30 34334 C 3257.67 0.236307 -1.57841 0
M  V30 34335 C 3257.87 1.66624 -1.13307 0
M  V30 34336 O 3256.93 2.38778 -0.821046 0
M  V30 34337 C 3258.24 0.00182926 -3.007 0
M  V30 34338 C 3259.79 0.0676288 -3.12927 0
M  V30 34339 C 3260.26 -0.139172 -4.57788 0
M  V30 34340 N 3261.75 -0.0851854 -4.63122 0
M  V30 34341 C 3262.49 -0.220084 -5.72977 0
M  V30 34342 N 3261.98 -0.411224 -6.91578 0
M  V30 34343 N 3263.78 -0.159568 -5.61873 0
M  V30 34344 H 3255.93 -1.05425 -1.84389 0
M  V30 34345 H 3258.19 -0.41524 -0.85222 0
M  V30 34346 H 3257.9 -0.986777 -3.37573 0
M  V30 34347 H 3257.77 0.733138 -3.70007 0
M  V30 34348 H 3260.16 1.04676 -2.75911 0
M  V30 34349 H 3260.24 -0.695581 -2.46161 0
M  V30 34350 H 3259.88 -1.11529 -4.95504 0
M  V30 34351 H 3259.81 0.644039 -5.22647 0
M  V30 34352 H 3262.3 0.0589815 -3.77854 0
M  V30 34353 H 3262.62 -0.504987 -7.71148 0
M  V30 34354 H 3260.96 -0.447213 -6.9356 0
M  V30 34355 H 3264.15 -0.0111954 -4.68099 0
M  V30 34356 H 3264.33 -0.268141 -6.47445 0
M  V30 34357 N 3257.73 1.56851 0.153498 0
M  V30 34358 C 3258.98 1.84152 0.863695 0
M  V30 34359 C 3259.33 0.703355 1.79083 0
M  V30 34360 O 3258.63 -0.299115 1.89251 0
M  V30 34361 C 3258.82 3.15421 1.6806 0
M  V30 34362 C 3258.65 4.41898 0.834067 0
M  V30 34363 C 3257.42 5.02798 0.502206 0
M  V30 34364 C 3259.62 5.14028 0.167385 0
M  V30 34365 N 3257.6 6.12852 -0.358608 0
M  V30 34366 C 3258.97 6.17521 -0.553838 0
M  V30 34367 C 3261.03 4.97823 0.087387 0
M  V30 34368 C 3259.73 7.06566 -1.3475 0
M  V30 34369 C 3261.75 5.87326 -0.692992 0
M  V30 34370 C 3261.12 6.90296 -1.40252 0
M  V30 34371 H 3257.22 0.724594 0.294087 0
M  V30 34372 H 3259.8 1.94269 0.129481 0
M  V30 34373 H 3257.97 3.06463 2.38611 0
M  V30 34374 H 3259.7 3.30653 2.33347 0
M  V30 34375 H 3256.46 4.66155 0.836475 0
M  V30 34376 H 3256.88 6.72493 -0.779848 0
M  V30 34377 H 3261.52 4.18206 0.621589 0
M  V30 34378 H 3259.24 7.85616 -1.89298 0
M  V30 34379 H 3262.83 5.76857 -0.756796 0
M  V30 34380 H 3261.71 7.58355 -1.99668 0
M  V30 34381 N 3259.21 -0.42264 1.51827 0
M  V30 34382 C 3260.14 -1.52114 1.77154 0
M  V30 34383 C 3261.12 -1.58323 0.621922 0
M  V30 34384 O 3262.31 -1.73815 0.866148 0
M  V30 34385 C 3259.44 -2.90065 1.90997 0
M  V30 34386 C 3258.39 -2.98712 3.06521 0
M  V30 34387 C 3257.72 -4.38786 3.05567 0
M  V30 34388 C 3259.02 -2.71437 4.46227 0
M  V30 34389 H 3260.71 -1.3117 2.69137 0
M  V30 34390 H 3258.26 -0.629584 1.29508 0
M  V30 34391 H 3260.21 -3.66886 2.07298 0
M  V30 34392 H 3258.93 -3.12272 0.956743 0
M  V30 34393 H 3257.59 -2.24333 2.89949 0
M  V30 34394 H 3257.24 -4.57982 2.07993 0
M  V30 34395 H 3256.94 -4.45498 3.83151 0
M  V30 34396 H 3258.46 -5.17561 3.2398 0
M  V30 34397 H 3259.88 -3.37986 4.63075 0
M  V30 34398 H 3258.28 -2.89542 5.25628 0
M  V30 34399 H 3259.35 -1.66952 4.55253 0
M  V30 34400 N 3260.69 -1.42222 -0.679027 0
M  V30 34401 C 3261.97 -1.3295 -1.4347 0
M  V30 34402 C 3262.35 0.0351318 -2.11071 0
M  V30 34403 O 3261.69 1.05039 -2.02926 0
M  V30 34404 C 3261.9 -2.4947 -2.44061 0
M  V30 34405 C 3263.25 -2.91393 -3.08829 0
M  V30 34406 O 3264.28 -2.4933 -2.54388 0
M  V30 34407 O 3263.13 -3.64182 -4.07472 0
M  V30 34408 H 3260.23 -0.524089 -0.639734 0
M  V30 34409 H 3262.77 -1.5422 -0.708107 0
M  V30 34410 H 3261.55 -3.40461 -1.92878 0
M  V30 34411 H 3261.17 -2.30163 -3.24208 0
M  V30 34412 N 3262.17 0.91492 -1.28324 0
M  V30 34413 C 3263.39 1.70302 -1.18373 0
M  V30 34414 C 3263.82 1.86374 0.254258 0
M  V30 34415 O 3263.17 1.37303 1.18395 0
M  V30 34416 C 3263.22 3.07342 -1.88608 0
M  V30 34417 O 3262.33 3.94775 -1.19275 0
M  V30 34418 H 3261.67 0.521522 -0.410987 0
M  V30 34419 H 3264.2 1.14406 -1.69624 0
M  V30 34420 H 3264.21 3.57581 -1.96469 0
M  V30 34421 H 3262.88 2.94962 -2.93207 0
M  V30 34422 H 3261.46 3.5321 -1.1957 0
M  V30 34423 N 3263.64 1.10553 1.1232 0
M  V30 34424 C 3264.89 0.848707 1.83857 0
M  V30 34425 C 3265.22 -0.625718 1.8416 0
M  V30 34426 O 3264.47 -1.47738 1.28344 0
M  V30 34427 C 3264.77 1.3438 3.31175 0
M  V30 34428 C 3264.44 2.82986 3.51041 0
M  V30 34429 C 3263.1 3.23567 3.56171 0
M  V30 34430 C 3265.45 3.78743 3.58055 0
M  V30 34431 C 3262.78 4.58654 3.6586 0
M  V30 34432 C 3265.13 5.13634 3.69274 0
M  V30 34433 C 3263.8 5.53787 3.7266 0
M  V30 34434 H 3263.07 0.310564 0.672779 0
M  V30 34435 H 3265.71 1.38234 1.32528 0
M  V30 34436 H 3264.02 0.730211 3.84935 0
M  V30 34437 H 3265.72 1.12155 3.84996 0
M  V30 34438 H 3262.31 2.50588 3.47712 0
M  V30 34439 H 3266.49 3.48497 3.5336 0
M  V30 34440 H 3261.75 4.89184 3.66755 0
M  V30 34441 H 3265.92 5.87676 3.73644 0
M  V30 34442 H 3263.55 6.58456 3.79921 0
M  V30 34443 O 3265.16 -1.24632 1.02709 0
M  V30 34444 H 3265.85 -1.80921 0.691892 0
M  V30 END ATOM
M  V30 BEGIN BOND
M  V30 END BOND
M  V30 END CTAB
M  END
$$$$
