drugbank_drug|DB00024 Beta chain
 OpenBabel12092119123D

  0  0  0     0  0            999 V3000
M  V30 BEGIN CTAB
M  V30 COUNTS 1774 1798 0 0 0
M  V30 BEGIN ATOM
M  V30 1 H -0.908 1.98254 -0.117106 0
M  V30 2 N 0 1.576 0 0
M  V30 3 C 1.247 1.90568 0.684848 0
M  V30 4 C 1.575 0.873566 1.73779 0
M  V30 5 O 0.83 -0.121654 1.95322 0
M  V30 6 C 1.129 3.3029 1.3654 0
M  V30 7 C 0.795 4.48692 0.445662 0
M  V30 8 C -0.543 4.80815 0.192429 0
M  V30 9 C 1.809 5.20862 -0.187591 0
M  V30 10 C -0.863 5.82481 -0.702352 0
M  V30 11 C 1.489 6.23481 -1.07025 0
M  V30 12 C 0.153 6.54062 -1.33266 0
M  V30 13 H -0.577 0.697337 0.250604 0
M  V30 14 H 2.07 1.91419 -0.0555272 0
M  V30 15 H 0.375 3.25563 2.17982 0
M  V30 16 H 2.072 3.53058 1.90135 0
M  V30 17 H -1.338 4.23593 0.653203 0
M  V30 18 H 2.846 4.963 -0.004963 0
M  V30 19 H -1.898 6.04535 -0.913665 0
M  V30 20 H 2.276 6.78535 -1.56729 0
M  V30 21 H -0.097 7.32659 -2.02769 0
M  V30 22 N 1.4781 -0.272755 1.55222 0
M  V30 23 C 2.7181 -1.01197 1.77591 0
M  V30 24 C 3.0821 -1.8349 0.565294 0
M  V30 25 O 4.2831 -2.60387 0.667242 0
M  V30 26 C 2.5541 -1.87096 3.04516 0
M  V30 27 S 4.1131 -2.67279 3.48004 0
M  V30 28 H 0.9311 -0.340836 0.62398 0
M  V30 29 H 3.5331 -0.282374 1.9345 0
M  V30 30 H 2.2371 -1.25565 3.90719 0
M  V30 31 H 1.7681 -2.64376 2.91323 0
M  V30 32 H 3.7831 -3.89593 3.07297 0
M  V30 33 N 2.9562 -1.48159 -0.537278 0
M  V30 34 C 4.2052 -1.5506 -1.28993 0
M  V30 35 C 4.5182 -0.226211 -1.94288 0
M  V30 36 O 5.7242 -0.173395 -2.70946 0
M  V30 37 C 4.1802 -2.73429 -2.34018 0
M  V30 38 C 3.7882 -4.1248 -1.74825 0
M  V30 39 C 5.5322 -2.89638 -3.10339 0
M  V30 40 C 3.4392 -5.22121 -2.77747 0
M  V30 41 H 2.3692 -0.577231 -0.485098 0
M  V30 42 H 5.0202 -1.74478 -0.568317 0
M  V30 43 H 3.4022 -2.47431 -3.09182 0
M  V30 44 H 4.5762 -4.48466 -1.05899 0
M  V30 45 H 2.8912 -4.01327 -1.11022 0
M  V30 46 H 5.4882 -3.68718 -3.87235 0
M  V30 47 H 5.8312 -1.9882 -3.65754 0
M  V30 48 H 6.3642 -3.15502 -2.42288 0
M  V30 49 H 3.1032 -6.1488 -2.27161 0
M  V30 50 H 2.6232 -4.90631 -3.45024 0
M  V30 51 H 4.3022 -5.49924 -3.4087 0
M  V30 52 N 4.4343 0.785586 -1.36625 0
M  V30 53 C 5.8453 1.36101 -1.27803 0
M  V30 54 C 6.1963 1.96035 0.0804875 0
M  V30 55 O 5.3213 1.92834 0.982042 0
M  V30 56 C 5.9163 2.47442 -2.31426 0
M  V30 57 C 4.4753 3.00789 -2.26281 0
M  V30 58 C 3.6223 1.73896 -2.15999 0
M  V30 59 H 6.5733 0.586928 -1.47448 0
M  V30 60 H 6.5943 3.2656 -1.95291 0
M  V30 61 H 6.1063 2.03791 -3.30289 0
M  V30 62 H 4.2073 3.48851 -1.30896 0
M  V30 63 H 4.3203 3.57343 -3.19128 0
M  V30 64 H 2.6843 1.9628 -1.62316 0
M  V30 65 H 3.4673 1.32368 -3.16755 0
M  V30 66 N 5.9124 1.20967 1.01018 0
M  V30 67 C 7.1404 1.04956 1.78303 0
M  V30 68 C 7.5554 -0.400915 1.84494 0
M  V30 69 O 6.9124 -1.27826 1.30257 0
M  V30 70 C 6.9634 1.63403 3.22462 0
M  V30 71 O 6.6844 3.02775 3.16637 0
M  V30 72 C 8.1854 1.52432 4.16268 0
M  V30 73 H 5.4054 0.368858 0.560522 0
M  V30 74 H 7.9494 1.60193 1.27116 0
M  V30 75 H 6.1044 1.1227 3.70775 0
M  V30 76 H 6.5184 3.30626 4.07169 0
M  V30 77 H 7.9924 1.98078 5.15237 0
M  V30 78 H 8.4694 0.477875 4.36592 0
M  V30 79 H 9.0754 2.02787 3.73841 0
M  V30 80 N 7.3905 -1.2043 1.01659 0
M  V30 81 C 8.3005 -2.2689 0.596484 0
M  V30 82 C 9.3165 -1.70107 -0.36599 0
M  V30 83 O 10.4925 -2.00117 -0.226942 0
M  V30 84 C 7.5575 -3.4665 -0.0586659 0
M  V30 85 C 6.6185 -4.18662 0.949751 0
M  V30 86 C 5.8515 -5.32705 0.32577 0
M  V30 87 O 6.0745 -5.63656 -0.874509 0
M  V30 88 O 5.0085 -5.92803 1.04249 0
M  V30 89 H 8.8345 -2.65041 1.4828 0
M  V30 90 H 6.4195 -1.27048 0.786082 0
M  V30 91 H 8.3015 -4.19256 -0.424564 0
M  V30 92 H 6.9765 -3.10375 -0.91918 0
M  V30 93 H 5.8835 -3.48229 1.36702 0
M  V30 94 H 7.2165 -4.58878 1.78023 0
M  V30 95 N 8.8686 -0.792821 -1.36206 0
M  V30 96 C 10.0986 -0.378275 -2.03107 0
M  V30 97 C 10.5066 1.01119 -1.59911 0
M  V30 98 O 9.8496 1.66052 -0.785658 0
M  V30 99 C 9.9116 -0.366535 -3.57627 0
M  V30 100 C 9.5756 -1.70416 -4.24037 0
M  V30 101 C 10.5726 -2.6602 -4.46687 0
M  V30 102 C 8.2576 -1.98439 -4.6144 0
M  V30 103 C 10.2516 -3.8784 -5.05825 0
M  V30 104 C 7.9386 -3.20525 -5.20295 0
M  V30 105 C 8.9366 -4.15044 -5.42427 0
M  V30 106 O 8.6246 -5.34978 -6.00045 0
M  V30 107 H 8.3566 -0.153543 -0.658332 0
M  V30 108 H 10.9106 -1.07383 -1.75094 0
M  V30 109 H 9.1406 0.385539 -3.84773 0
M  V30 110 H 10.8296 0.0238088 -4.05893 0
M  V30 111 H 11.5956 -2.45658 -4.18183 0
M  V30 112 H 7.4746 -1.25686 -4.43536 0
M  V30 113 H 11.0186 -4.61628 -5.23015 0
M  V30 114 H 6.9156 -3.40764 -5.48225 0
M  V30 115 H 7.6836 -5.36088 -6.18508 0
M  V30 116 N 10.3467 1.47872 -0.545128 0
M  V30 117 C 11.5747 2.06889 -0.021084 0
M  V30 118 C 11.9897 1.39955 1.2672 0
M  V30 119 O 11.3467 0.492036 1.75742 0
M  V30 120 C 11.3977 3.60996 0.190817 0
M  V30 121 O 11.1187 4.25419 -1.04644 0
M  V30 122 C 12.6197 4.36849 0.753521 0
M  V30 123 H 9.8397 0.669785 -0.0403635 0
M  V30 124 H 12.3837 1.90049 -0.755095 0
M  V30 125 H 10.5387 3.77391 0.87492 0
M  V30 126 H 10.9527 5.17785 -0.836611 0
M  V30 127 H 12.4267 5.45399 0.851139 0
M  V30 128 H 12.9037 4.02306 1.762 0
M  V30 129 H 13.5097 4.25169 0.105503 0
M  V30 130 N 11.8248 0.280983 1.55075 0
M  V30 131 C 12.7578 -0.645439 2.18882 0
M  V30 132 C 13.7358 -1.14786 1.15165 0
M  V30 133 O 14.9198 -1.21975 1.43716 0
M  V30 134 C 12.0468 -1.88088 2.81674 0
M  V30 135 C 11.0928 -1.51343 3.98745 0
M  V30 136 S 11.9258 -0.586548 5.32278 0
M  V30 137 C 13.0818 -1.83024 5.98543 0
M  V30 138 H 13.3148 -0.1033 2.9712 0
M  V30 139 H 10.8478 0.0652099 1.54262 0
M  V30 140 H 12.8058 -2.58997 3.18482 0
M  V30 141 H 11.4668 -2.39417 2.03318 0
M  V30 142 H 10.6598 -2.43289 4.41392 0
M  V30 143 H 10.2618 -0.884477 3.63391 0
M  V30 144 H 12.5538 -2.77342 6.18133 0
M  V30 145 H 13.4968 -1.44668 6.93164 0
M  V30 146 H 13.9048 -1.99785 5.27964 0
M  V30 147 N 13.3029 -1.57598 0.00835791 0
M  V30 148 C 14.2529 -2.05431 -0.989045 0
M  V30 149 C 15.2369 -0.950662 -1.29812 0
M  V30 150 O 16.4289 -1.21438 -1.28771 0
M  V30 151 C 13.5579 -2.56801 -2.27833 0
M  V30 152 C 12.6439 -3.74058 -1.99853 0
M  V30 153 N 13.0349 -4.8544 -1.42062 0
M  V30 154 C 11.3329 -3.82148 -2.29953 0
M  V30 155 C 12.0339 -5.66817 -1.30743 0
M  V30 156 N 11.0099 -5.13077 -1.7959 0
M  V30 157 H 14.8119 -2.88955 -0.536853 0
M  V30 158 H 12.3259 -1.61199 -0.197148 0
M  V30 159 H 14.3229 -2.89349 -3.00137 0
M  V30 160 H 12.9829 -1.74699 -2.73698 0
M  V30 161 H 13.9939 -5.0612 -1.09833 0
M  V30 162 H 10.6709 -3.10916 -2.78635 0
M  V30 163 H 12.0609 -6.66343 -0.862328 0
M  V30 164 N 14.781 0.264519 -1.55364 0
M  V30 165 C 16.03 0.992812 -1.75574 0
M  V30 166 C 16.343 1.87142 -0.568979 0
M  V30 167 O 17.549 2.63513 -0.653682 0
M  V30 168 C 16.005 1.81519 -3.10771 0
M  V30 169 C 15.613 0.984839 -4.37041 0
M  V30 170 C 17.357 2.53727 -3.40327 0
M  V30 171 C 15.264 1.80209 -5.63275 0
M  V30 172 H 14.194 0.374412 -0.65447 0
M  V30 173 H 16.845 0.248138 -1.81815 0
M  V30 174 H 15.227 2.60115 -2.98591 0
M  V30 175 H 16.401 0.242455 -4.60162 0
M  V30 176 H 14.716 0.37691 -4.14691 0
M  V30 177 H 17.313 3.15292 -4.3185 0
M  V30 178 H 17.656 3.24447 -2.60845 0
M  V30 179 H 18.189 1.82156 -3.53644 0
M  V30 180 H 14.928 1.13896 -6.45529 0
M  V30 181 H 14.448 2.52022 -5.44284 0
M  V30 182 H 16.127 2.37364 -6.01887 0
M  V30 183 N 16.2591 1.48442 0.529413 0
M  V30 184 C 17.1691 1.6569 1.66084 0
M  V30 185 C 18.1851 0.539432 1.65427 0
M  V30 186 O 19.3611 0.810572 1.84368 0
M  V30 187 C 16.4261 1.69315 3.02545 0
M  V30 188 C 15.4871 2.92694 3.14052 0
M  V30 189 C 14.7201 2.96137 4.44003 0
M  V30 190 O 14.9431 2.07973 5.31134 0
M  V30 191 O 13.8771 3.88312 4.59888 0
M  V30 192 H 17.7031 2.61483 1.54469 0
M  V30 193 H 15.2881 1.3185 0.702567 0
M  V30 194 H 17.1701 1.74217 3.83701 0
M  V30 195 H 15.8451 0.766966 3.14483 0
M  V30 196 H 14.7521 2.93324 2.32189 0
M  V30 197 H 16.0851 3.84699 3.0703 0
M  V30 198 N 17.7372 -0.778329 1.37039 0
M  V30 199 C 19.1532 -1.07796 1.17695 0
M  V30 200 C 19.3532 -2.01498 0.00860115 0
M  V30 201 O 18.4092 -2.43901 -0.653352 0
M  V30 202 C 19.7222 -1.68178 2.49272 0
M  V30 203 C 21.2702 -1.80467 2.55735 0
M  V30 204 C 21.7452 -2.44263 3.87427 0
M  V30 205 N 23.2362 -2.51721 3.88833 0
M  V30 206 C 23.9712 -3.01919 4.87476 0
M  V30 207 N 23.4672 -3.5234 5.96513 0
M  V30 208 N 25.2602 -3.00733 4.74885 0
M  V30 209 H 17.4112 -0.156032 2.11826 0
M  V30 210 H 19.6742 -0.131844 0.938787 0
M  V30 211 H 19.3802 -1.06796 3.35093 0
M  V30 212 H 19.2542 -2.67554 2.65885 0
M  V30 213 H 21.6412 -2.40984 1.70325 0
M  V30 214 H 21.7222 -0.798656 2.43013 0
M  V30 215 H 21.3662 -1.84388 4.73248 0
M  V30 216 H 21.2962 -3.45458 3.9745 0
M  V30 217 H 23.7872 -2.1603 3.10063 0
M  V30 218 H 24.1002 -3.89027 6.67741 0
M  V30 219 H 22.4452 -3.50462 6.00168 0
M  V30 220 H 25.6362 -2.60638 3.88826 0
M  V30 221 H 25.8092 -3.39545 5.51918 0
M  V30 222 N 19.2153 -1.21501 -1.00376 0
M  V30 223 C 20.6313 -0.972629 -1.26539 0
M  V30 224 C 20.8313 0.340257 -1.98606 0
M  V30 225 O 19.8873 1.06561 -2.28913 0
M  V30 226 C 21.2003 -2.16404 -2.08781 0
M  V30 227 C 22.7483 -2.20643 -2.22004 0
M  V30 228 C 23.2233 -3.39306 -3.07629 0
M  V30 229 N 24.7143 -3.39401 -3.15217 0
M  V30 230 C 25.4493 -4.27867 -3.81729 0
M  V30 231 N 24.9453 -5.26533 -4.5026 0
M  V30 232 N 26.7383 -4.15672 -3.78382 0
M  V30 233 H 18.8893 -2.05929 -0.520281 0
M  V30 234 H 21.1523 -0.901803 -0.292328 0
M  V30 235 H 20.8583 -3.11554 -1.63178 0
M  V30 236 H 20.7323 -2.15567 -3.09533 0
M  V30 237 H 23.1193 -1.26048 -2.66825 0
M  V30 238 H 23.2003 -2.25523 -1.20718 0
M  V30 239 H 22.8443 -4.34195 -2.63509 0
M  V30 240 H 22.7743 -3.31665 -4.09031 0
M  V30 241 H 25.2653 -2.67997 -2.66432 0
M  V30 242 H 25.5783 -5.90337 -4.98721 0
M  V30 243 H 23.9233 -5.30457 -4.49044 0
M  V30 244 H 27.1143 -3.3785 -3.23998 0
M  V30 245 H 27.2873 -4.84825 -4.2994 0
M  V30 246 N 20.6934 1.19889 -1.02296 0
M  V30 247 C 21.6034 2.26571 -0.608508 0
M  V30 248 C 22.6194 1.70299 0.356964 0
M  V30 249 O 23.7954 2.00235 0.216326 0
M  V30 250 C 20.8604 3.46677 0.0402814 0
M  V30 251 C 19.9214 4.18153 -0.97194 0
M  V30 252 C 19.1544 5.32525 -0.354016 0
M  V30 253 O 19.3774 5.64112 0.844604 0
M  V30 254 O 18.3114 5.92242 -1.07391 0
M  V30 255 H 22.1374 2.64251 -1.49684 0
M  V30 256 H 19.7224 1.26629 -0.792809 0
M  V30 257 H 21.6044 4.19475 0.402324 0
M  V30 258 H 20.2794 3.10858 0.902707 0
M  V30 259 H 19.1864 3.47499 -1.38546 0
M  V30 260 H 20.5194 4.57927 -1.80454 0
M  V30 261 N 22.1715 0.800033 1.35784 0
M  V30 262 C 23.4115 0.382891 2.00782 0
M  V30 263 C 23.7755 -1.02891 1.62103 0
M  V30 264 O 24.9765 -1.54771 2.19771 0
M  V30 265 C 23.2475 0.553299 3.53091 0
M  V30 266 S 24.8065 0.225608 4.3822 0
M  V30 267 H 21.6245 0.145737 0.695904 0
M  V30 268 H 24.2265 1.04085 1.65489 0
M  V30 269 H 22.9305 1.58091 3.78729 0
M  V30 270 H 22.4615 -0.120214 3.93216 0
M  V30 271 H 24.4765 -0.969074 4.86645 0
M  V30 272 N 23.6496 -1.47581 0.552962 0
M  V30 273 C 24.6126 -2.28439 -0.186605 0
M  V30 274 C 25.6126 -1.36706 -0.84665 0
M  V30 275 O 26.8026 -1.59378 -0.703164 0
M  V30 276 C 23.9346 -3.16264 -1.2724 0
M  V30 277 H 25.1276 -2.95294 0.523609 0
M  V30 278 H 22.6806 -1.532 0.309745 0
M  V30 279 H 23.4156 -2.54091 -2.01514 0
M  V30 280 H 23.2006 -3.83769 -0.803968 0
M  V30 281 H 24.6906 -3.77198 -1.79196 0
M  V30 282 N 25.1277 -0.289203 -1.54924 0
M  V30 283 C 26.3577 0.325989 -2.04012 0
M  V30 284 C 26.7657 1.48961 -1.1665 0
M  V30 285 O 26.1087 1.82794 -0.1822 0
M  V30 286 C 26.1707 0.856112 -3.49158 0
M  V30 287 C 25.8347 -0.180697 -4.56643 0
M  V30 288 C 26.8317 -1.0051 -5.10092 0
M  V30 289 C 24.5167 -0.318998 -5.01286 0
M  V30 290 C 26.5107 -1.95385 -6.06715 0
M  V30 291 C 24.1977 -1.27121 -5.97732 0
M  V30 292 C 25.1957 -2.08713 -6.50329 0
M  V30 293 O 24.8837 -3.02322 -7.44887 0
M  V30 294 H 24.6157 0.0765276 -0.671654 0
M  V30 295 H 27.1697 -0.423254 -2.00992 0
M  V30 296 H 25.3997 1.65567 -3.49463 0
M  V30 297 H 27.0887 1.38591 -3.81507 0
M  V30 298 H 27.8547 -0.90906 -4.76404 0
M  V30 299 H 23.7337 0.306108 -4.59983 0
M  V30 300 H 27.2777 -2.59111 -6.47694 0
M  V30 301 H 23.1747 -1.36801 -6.30837 0
M  V30 302 H 23.9427 -2.97165 -7.6265 0
M  V30 303 N 26.6058 1.57591 -0.0167156 0
M  V30 304 C 27.8458 1.93145 0.668902 0
M  V30 305 C 28.2098 0.892406 1.7 0
M  V30 306 O 29.4108 1.13373 2.43721 0
M  V30 307 C 27.6818 3.33678 1.28039 0
M  V30 308 S 29.2408 3.91142 1.9888 0
M  V30 309 H 26.0588 0.67593 0.220545 0
M  V30 310 H 28.6608 1.95347 -0.0774105 0
M  V30 311 H 27.3648 4.07126 0.517339 0
M  V30 312 H 26.8958 3.3489 2.06427 0
M  V30 313 H 28.9108 3.73571 3.26587 0
M  V30 314 N 28.0839 -0.256276 1.55502 0
M  V30 315 C 29.0139 -1.32102 1.92539 0
M  V30 316 C 29.9949 -1.50684 0.789194 0
M  V30 317 O 31.1799 -1.63449 1.04872 0
M  V30 318 C 28.3099 -2.67752 2.21192 0
M  V30 319 C 27.2639 -2.63878 3.36975 0
M  V30 320 C 26.5899 -4.03236 3.51147 0
M  V30 321 C 27.8899 -2.21682 4.72921 0
M  V30 322 H 29.5839 -1.01351 2.81724 0
M  V30 323 H 27.1299 -0.486105 1.35547 0
M  V30 324 H 29.0829 -3.42365 2.45691 0
M  V30 325 H 27.8069 -3.0012 1.28824 0
M  V30 326 H 26.4659 -1.91722 3.12471 0
M  V30 327 H 26.1139 -4.32854 2.56216 0
M  V30 328 H 25.8139 -4.01535 4.29003 0
M  V30 329 H 27.3379 -4.79563 3.77957 0
M  V30 330 H 28.7519 -2.86023 4.96854 0
M  V30 331 H 27.1489 -2.3111 5.53812 0
M  V30 332 H 28.2189 -1.16833 4.70615 0
M  V30 333 N 29.562 -1.4872 -0.521534 0
M  V30 334 C 30.79 -1.60843 -1.30142 0
M  V30 335 C 31.205 -0.271897 -1.86832 0
M  V30 336 O 30.562 0.739969 -1.66825 0
M  V30 337 C 30.613 -2.66155 -2.4463 0
M  V30 338 O 30.334 -3.94623 -1.90275 0
M  V30 339 C 31.835 -2.88795 -3.36322 0
M  V30 340 H 29.055 -0.542075 -0.395468 0
M  V30 341 H 31.599 -1.94609 -0.628285 0
M  V30 342 H 29.754 -2.35224 -3.07812 0
M  V30 343 H 30.168 -4.52468 -2.65279 0
M  V30 344 H 31.642 -3.66264 -4.12983 0
M  V30 345 H 32.119 -1.97934 -3.9207 0
M  V30 346 H 32.725 -3.21063 -2.78924 0
M  V30 347 N 31.0401 0.771051 -1.3745 0
M  V30 348 C 32.2891 1.52491 -1.3202 0
M  V30 349 C 32.6021 1.9538 0.0927347 0
M  V30 350 O 33.8081 2.70159 0.269503 0
M  V30 351 C 32.2641 2.75366 -2.31736 0
M  V30 352 C 31.8721 2.39573 -3.78562 0
M  V30 353 C 33.6161 3.53307 -2.35318 0
M  V30 354 C 31.5231 3.58954 -4.70007 0
M  V30 355 H 30.4531 0.572506 -0.490666 0
M  V30 356 H 33.1041 0.844474 -1.62914 0
M  V30 357 H 31.4861 3.45303 -1.93861 0
M  V30 358 H 32.6601 1.77415 -4.25277 0
M  V30 359 H 30.9751 1.74805 -3.77932 0
M  V30 360 H 33.5721 4.42039 -3.00842 0
M  V30 361 H 33.9151 3.93217 -1.36698 0
M  V30 362 H 34.4481 2.90367 -2.71904 0
M  V30 363 H 31.1871 3.24125 -5.69757 0
M  V30 364 H 30.7071 4.20214 -4.27996 0
M  V30 365 H 32.3861 4.25758 -4.87175 0
M  V30 366 N 32.5182 1.22032 0.997298 0
M  V30 367 C 33.4662 0.983634 2.10778 0
M  V30 368 C 34.4602 -0.0717564 1.69248 0
M  V30 369 O 35.6662 0.080304 1.79821 0
M  V30 370 H 32.0412 0.300877 0.689186 0
M  V30 371 H 34.0122 1.92606 2.27916 0
M  V30 372 C 32.7612 0.57326 3.42942 0
M  V30 373 H 32.0842 1.37702 3.75338 0
M  V30 374 H 33.5242 0.447031 4.21637 0
M  V30 375 C 31.9832 -0.7167 3.29188 0
M  V30 376 O 32.5132 -1.77027 3.60589 0
M  V30 377 N 30.7192 -0.686167 2.82383 0
M  V30 378 H 30.2662 0.171507 2.57028 0
M  V30 379 H 30.2242 -1.54955 2.73562 0
M  V30 380 N 33.9963 -1.19345 1.0293 0
M  V30 381 C 35.2243 -1.92997 0.745644 0
M  V30 382 C 35.6393 -1.75519 -0.695589 0
M  V30 383 O 34.9963 -1.07737 -1.47306 0
M  V30 384 C 35.0473 -3.44741 1.08792 0
M  V30 385 O 34.7683 -3.61658 2.47256 0
M  V30 386 C 36.2693 -4.35515 0.827129 0
M  V30 387 H 33.4893 -0.613042 0.272801 0
M  V30 388 H 36.0333 -1.51473 1.3739 0
M  V30 389 H 34.1883 -3.84097 0.504832 0
M  V30 390 H 34.6023 -4.55514 2.60015 0
M  V30 391 H 36.0763 -5.40589 1.11658 0
M  V30 392 H 36.5533 -4.38552 -0.238436 0
M  V30 393 H 37.1593 -4.01841 1.39297 0
M  V30 394 N 35.4744 -0.807222 -1.35358 0
M  V30 395 C 36.7024 -0.400377 -2.02989 0
M  V30 396 C 37.1174 0.988859 -1.60832 0
M  V30 397 O 36.4744 1.63729 -0.806175 0
M  V30 398 C 36.5254 -0.474867 -3.58368 0
M  V30 399 O 36.2464 -1.80933 -3.98992 0
M  V30 400 C 37.7474 -0.0609112 -4.43258 0
M  V30 401 H 34.9674 -0.162587 -0.651004 0
M  V30 402 H 37.5114 -1.09102 -1.72965 0
M  V30 403 H 35.6664 0.167534 -3.87038 0
M  V30 404 H 36.0804 -1.77256 -4.9364 0
M  V30 405 H 37.5544 -0.164145 -5.51756 0
M  V30 406 H 38.0314 0.993831 -4.27808 0
M  V30 407 H 38.6374 -0.676492 -4.19885 0
M  V30 408 N 36.9525 1.47285 -0.560781 0
M  V30 409 C 38.2015 2.01668 -0.035895 0
M  V30 410 C 38.5145 1.44021 1.32353 0
M  V30 411 O 39.7205 1.90088 1.93853 0
M  V30 412 C 38.1765 3.59897 -0.0136659 0
M  V30 413 C 37.7845 4.26536 -1.37006 0
M  V30 414 C 39.5285 4.22017 0.458425 0
M  V30 415 C 37.4355 5.76782 -1.30675 0
M  V30 416 H 36.3655 0.753938 -0.00964879 0
M  V30 417 H 39.0165 1.69243 -0.709166 0
M  V30 418 H 37.3985 3.89301 0.725325 0
M  V30 419 H 38.5725 4.0877 -2.12705 0
M  V30 420 H 36.8875 3.76419 -1.78038 0
M  V30 421 H 39.4845 5.32124 0.524247 0
M  V30 422 H 39.8275 3.89437 1.4712 0
M  V30 423 H 40.3605 3.97159 -0.225818 0
M  V30 424 H 37.0995 6.13988 -2.29564 0
M  V30 425 H 36.6195 5.96875 -0.591622 0
M  V30 426 H 38.2985 6.39063 -1.01033 0
M  V30 427 N 38.4306 0.297415 1.54768 0
M  V30 428 C 39.6706 -0.313829 2.01976 0
M  V30 429 C 40.0346 -1.51366 1.1812 0
M  V30 430 O 41.2356 -2.19603 1.5501 0
M  V30 431 C 39.5066 -0.664964 3.51159 0
M  V30 432 S 41.0656 -1.25958 4.20333 0
M  V30 433 H 37.8836 -0.0965014 0.704421 0
M  V30 434 H 40.4856 0.424451 1.90837 0
M  V30 435 H 39.1896 0.21681 4.09827 0
M  V30 436 H 38.7206 -1.43413 3.66328 0
M  V30 437 H 40.7356 -2.54751 4.25813 0
M  V30 438 N 39.9087 -1.5758 0.0250728 0
M  V30 439 C 40.8717 -2.08896 -0.943139 0
M  V30 440 C 41.8717 -1.00321 -1.25668 0
M  V30 441 O 43.0617 -1.26495 -1.19769 0
M  V30 442 C 40.1937 -2.55143 -2.26086 0
M  V30 443 H 41.3867 -2.95723 -0.498775 0
M  V30 444 H 38.9397 -1.54703 -0.222888 0
M  V30 445 H 39.6747 -1.71633 -2.75159 0
M  V30 446 H 39.4597 -3.34461 -2.04641 0
M  V30 447 H 40.9497 -2.95083 -2.95492 0
M  V30 448 N 41.3868 0.248026 -1.55636 0
M  V30 449 C 42.6348 0.974295 -1.77065 0
M  V30 450 C 42.9558 1.85897 -0.588849 0
M  V30 451 O 42.2258 1.91868 0.395407 0
M  V30 452 H 40.8058 0.362733 -0.653019 0
M  V30 453 H 43.4678 0.266244 -1.93073 0
M  V30 454 H 42.5638 1.59667 -2.68166 0
M  V30 455 N 42.8649 1.48995 0.513639 0
M  V30 456 C 44.0949 1.61297 1.291 0
M  V30 457 C 44.5029 0.278656 1.87137 0
M  V30 458 O 43.8459 -0.744325 1.67945 0
M  V30 459 C 43.9079 2.61326 2.46879 0
M  V30 460 C 43.5719 4.05993 2.09807 0
M  V30 461 C 44.5689 4.93183 1.64519 0
M  V30 462 C 42.2539 4.51642 2.19829 0
M  V30 463 C 44.2479 6.24056 1.2974 0
M  V30 464 C 41.9349 5.82532 1.84662 0
M  V30 465 C 42.9329 6.68562 1.3969 0
M  V30 466 O 42.6209 7.97014 1.04992 0
M  V30 467 H 42.3529 0.546236 0.39825 0
M  V30 468 H 44.9069 1.95673 0.62459 0
M  V30 469 H 43.1369 2.22104 3.16554 0
M  V30 470 H 44.8259 2.6329 3.08923 0
M  V30 471 H 45.5919 4.59147 1.56233 0
M  V30 472 H 41.4709 3.84855 2.53786 0
M  V30 473 H 45.0149 6.91161 0.945659 0
M  V30 474 H 40.9119 6.16099 1.92594 0
M  V30 475 H 41.6799 8.09913 1.18249 0
M  V30 476 N 44.343 -0.763751 1.37857 0
M  V30 477 C 45.583 -1.53551 1.34913 0
M  V30 478 C 45.947 -1.91895 -0.0635882 0
M  V30 479 O 47.148 -2.67916 -0.217825 0
M  V30 480 C 45.419 -2.76126 2.26912 0
M  V30 481 S 46.978 -3.66105 2.41893 0
M  V30 482 H 43.796 -0.52559 0.478828 0
M  V30 483 H 46.398 -0.897435 1.73685 0
M  V30 484 H 45.102 -2.4605 3.28463 0
M  V30 485 H 44.633 -3.44887 1.89253 0
M  V30 486 H 46.648 -4.68473 1.63545 0
M  V30 487 N 45.8211 -1.22559 -0.990812 0
M  V30 488 C 46.7541 -0.940773 -2.07905 0
M  V30 489 C 47.7321 0.117082 -1.62178 0
M  V30 490 O 48.9161 -0.0149506 -1.88494 0
M  V30 491 C 46.0431 -0.415321 -3.36144 0
M  V30 492 C 45.0891 -1.45818 -4.00799 0
M  V30 493 S 45.9221 -3.03219 -4.41382 0
M  V30 494 C 47.0781 -2.52317 -5.72789 0
M  V30 495 H 47.3111 -1.8623 -2.31745 0
M  V30 496 H 44.8441 -1.05688 -1.12558 0
M  V30 497 H 46.8021 -0.118747 -4.10328 0
M  V30 498 H 45.4631 0.485121 -3.10331 0
M  V30 499 H 44.6561 -1.04044 -4.93144 0
M  V30 500 H 44.2581 -1.70356 -3.32949 0
M  V30 501 H 46.5501 -1.93688 -6.49224 0
M  V30 502 H 47.4931 -3.43161 -6.19392 0
M  V30 503 H 47.9011 -1.93529 -5.30289 0
M  V30 504 N 47.2992 1.18797 -1.03562 0
M  V30 505 C 48.5272 1.92599 -0.755869 0
M  V30 506 C 48.9422 1.75886 0.686271 0
M  V30 507 O 48.2992 1.08517 1.46732 0
M  V30 508 C 48.3502 3.44159 -1.10619 0
M  V30 509 O 48.0712 3.60341 -2.4917 0
M  V30 510 C 49.5722 4.3507 -0.850214 0
M  V30 511 H 46.7922 0.611587 -0.276048 0
M  V30 512 H 49.3362 1.50742 -1.38192 0
M  V30 513 H 47.4912 3.83823 -0.525194 0
M  V30 514 H 47.9052 4.54128 -2.62427 0
M  V30 515 H 49.3792 5.39989 -1.14523 0
M  V30 516 H 49.8562 4.38673 0.215176 0
M  V30 517 H 50.4622 4.01097 -1.41426 0
M  V30 518 N 48.7773 0.814389 1.34928 0
M  V30 519 C 50.1933 0.499084 1.51596 0
M  V30 520 C 50.3933 -0.978319 1.76157 0
M  V30 521 O 49.4493 -1.76309 1.80752 0
M  V30 522 C 50.7623 1.35121 2.68631 0
M  V30 523 C 52.3103 1.34746 2.82511 0
M  V30 524 C 52.7853 2.18388 4.0258 0
M  V30 525 N 54.2763 2.15966 4.09772 0
M  V30 526 C 55.0113 2.77437 5.01813 0
M  V30 527 N 54.5073 3.47866 5.99134 0
M  V30 528 N 56.3003 2.67037 4.94619 0
M  V30 529 H 48.4513 1.7711 1.17243 0
M  V30 530 H 50.7143 0.754256 0.574284 0
M  V30 531 H 50.4203 2.40001 2.57085 0
M  V30 532 H 50.2943 1.00991 3.63429 0
M  V30 533 H 52.6813 0.30648 2.93504 0
M  V30 534 H 52.7623 1.72869 1.88547 0
M  V30 535 H 52.4063 3.2253 3.92347 0
M  V30 536 H 52.3363 1.77621 4.9574 0
M  V30 537 H 54.8273 1.64729 3.40107 0
M  V30 538 H 55.1403 3.92038 6.65977 0
M  V30 539 H 53.4853 3.51972 5.99284 0
M  V30 540 H 56.6763 2.11597 4.17546 0
M  V30 541 H 56.8493 3.15232 5.66156 0
M  V30 542 N 50.2554 -1.46986 0.568584 0
M  V30 543 C 51.5324 -1.95592 -0.0174074 0
M  V30 544 C 51.9124 -1.51124 -1.47393 0
M  V30 545 O 51.2604 -0.755329 -2.15655 0
M  V30 546 C 51.4704 -3.48719 0.139913 0
M  V30 547 C 52.8184 -4.246 0.000426376 0
M  V30 548 O 53.8424 -3.56135 0.0680316 0
M  V30 549 O 52.7014 -5.46302 -0.146988 0
M  V30 550 H 49.7954 -0.82498 -0.0577599 0
M  V30 551 H 52.3414 -1.57335 0.635909 0
M  V30 552 H 51.1134 -3.73927 1.15301 0
M  V30 553 H 50.7364 -3.93771 -0.550491 0
M  V30 554 N 51.7335 -0.305618 -1.54608 0
M  V30 555 C 52.9825 0.303098 -1.9941 0
M  V30 556 C 53.2955 1.54648 -1.19764 0
M  V30 557 O 54.5015 2.23007 -1.54855 0
M  V30 558 C 52.9575 0.590588 -3.55021 0
M  V30 559 C 52.5655 -0.634719 -4.43481 0
M  V30 560 C 54.3095 1.16025 -4.08336 0
M  V30 561 C 52.2165 -0.320126 -5.90533 0
M  V30 562 H 51.1465 0.117031 -0.744862 0
M  V30 563 H 53.7975 -0.415045 -1.78745 0
M  V30 564 H 52.1795 1.36845 -3.71604 0
M  V30 565 H 53.3535 -1.41079 -4.38672 0
M  V30 566 H 51.6685 -1.12333 -4.00962 0
M  V30 567 H 54.2655 1.40994 -5.15776 0
M  V30 568 H 54.6085 2.10397 -3.5922 0
M  V30 569 H 55.1415 0.443985 -3.95315 0
M  V30 570 H 51.8805 -1.23254 -6.43808 0
M  V30 571 H 51.4005 0.418579 -5.98338 0
M  V30 572 H 53.0795 0.0766241 -6.46955 0
M  V30 573 N 53.2116 1.57565 -0.0334293 0
M  V30 574 C 54.1596 2.1164 0.96496 0
M  V30 575 C 55.1536 1.04398 1.33407 0
M  V30 576 O 56.3596 1.22828 1.3158 0
M  V30 577 H 52.7346 0.676222 0.32898 0
M  V30 578 H 54.7056 2.94455 0.483614 0
M  V30 579 C 53.4546 2.66207 2.23672 0
M  V30 580 H 52.7776 3.48378 1.96145 0
M  V30 581 H 54.2176 3.07685 2.9173 0
M  V30 582 C 52.6766 1.59151 2.96939 0
M  V30 583 O 53.2066 0.993858 3.89211 0
M  V30 584 N 51.4126 1.31093 2.59351 0
M  V30 585 H 50.9596 1.7988 1.84393 0
M  V30 586 H 50.9176 0.596889 3.08682 0
M  V30 587 N 54.6897 -0.239769 1.55765 0
M  V30 588 C 55.9377 -0.964892 1.77579 0
M  V30 589 C 56.2587 -1.85582 0.598699 0
M  V30 590 O 55.5287 -1.92075 -0.385226 0
M  V30 591 H 54.1087 -0.359265 0.654933 0
M  V30 592 H 56.7707 -0.256001 1.93211 0
M  V30 593 H 55.8667 -1.58243 2.69009 0
M  V30 594 N 56.1678 -1.49265 -0.50573 0
M  V30 595 C 57.1148 -1.65585 -1.6078 0
M  V30 596 C 58.0848 -0.497396 -1.58478 0
M  V30 597 O 59.2698 -0.72385 -1.76536 0
M  V30 598 C 56.4098 -1.72408 -2.98948 0
M  V30 599 C 55.5228 -2.99525 -3.11301 0
M  V30 600 C 54.6578 -2.97356 -4.40174 0
M  V30 601 C 53.6968 -4.19074 -4.46143 0
M  V30 602 N 52.8338 -4.14841 -5.66437 0
M  V30 603 H 57.6738 -2.59688 -1.46172 0
M  V30 604 H 55.2108 -1.28761 -0.711261 0
M  V30 605 H 57.1688 -1.74344 -3.79025 0
M  V30 606 H 55.7988 -0.817753 -3.1227 0
M  V30 607 H 54.8508 -3.07222 -2.24318 0
M  V30 608 H 56.1628 -3.89518 -3.11572 0
M  V30 609 H 55.3168 -2.97829 -5.28567 0
M  V30 610 H 54.0558 -2.05133 -4.42461 0
M  V30 611 H 53.0608 -4.1885 -3.56153 0
M  V30 612 H 54.2858 -5.12483 -4.45575 0
M  V30 613 H 52.2318 -3.25453 -5.69575 0
M  V30 614 H 52.1488 -4.98564 -5.68304 0
M  V30 615 H 53.4168 -4.1941 -6.57051 0
M  V30 616 N 57.6459 0.756429 -1.3826 0
M  V30 617 C 58.5759 1.88374 -1.37976 0
M  V30 618 C 59.5569 1.68311 -0.246082 0
M  V30 619 O 60.7419 1.88944 -0.44874 0
M  V30 620 C 57.8719 3.25864 -1.20125 0
M  V30 621 C 56.8259 3.60523 -2.30666 0
M  V30 622 C 56.1519 4.9672 -1.97923 0
M  V30 623 C 57.4519 3.65692 -3.72916 0
M  V30 624 H 59.1459 1.88869 -2.32312 0
M  V30 625 H 56.6919 0.907272 -1.11824 0
M  V30 626 H 58.6449 4.0438 -1.18552 0
M  V30 627 H 57.3689 3.25841 -0.222498 0
M  V30 628 H 56.0279 2.84324 -2.3142 0
M  V30 629 H 55.6759 4.93253 -0.985393 0
M  V30 630 H 55.3759 5.20878 -2.71955 0
M  V30 631 H 56.8999 5.77618 -1.97964 0
M  V30 632 H 58.3139 4.34328 -3.74208 0
M  V30 633 H 56.7109 4.01358 -4.4613 0
M  V30 634 H 57.7809 2.65987 -4.05436 0
M  V30 635 N 59.124 1.23083 0.984299 0
M  V30 636 C 60.371 1.06057 1.72505 0
M  V30 637 C 60.699 -0.403105 1.90277 0
M  V30 638 O 59.954 -1.3149 1.44944 0
M  V30 639 C 60.253 1.72673 3.1292 0
M  V30 640 C 59.919 3.22586 3.15038 0
M  V30 641 C 58.581 3.63489 3.15324 0
M  V30 642 C 60.933 4.185 3.10657 0
M  V30 643 C 58.261 4.98772 3.08939 0
M  V30 644 C 60.613 5.53769 3.05814 0
M  V30 645 C 59.277 5.94041 3.04419 0
M  V30 646 H 58.547 0.388091 0.631242 0
M  V30 647 H 61.194 1.52963 1.15215 0
M  V30 648 H 59.499 1.18116 3.73572 0
M  V30 649 H 61.196 1.56982 3.68996 0
M  V30 650 H 57.786 2.90022 3.15571 0
M  V30 651 H 61.97 3.87911 3.09579 0
M  V30 652 H 57.226 5.29193 3.0621 0
M  V30 653 H 61.4 6.27808 3.0138 0
M  V30 654 H 59.027 6.98833 2.99227 0
M  V30 655 N 60.6021 -1.18246 1.0419 0
M  V30 656 C 61.5321 -2.24127 0.654914 0
M  V30 657 C 62.5131 -1.66617 -0.342451 0
M  V30 658 O 63.6981 -1.92924 -0.222277 0
M  V30 659 C 60.8281 -3.47295 0.0183757 0
M  V30 660 C 59.7821 -4.17563 0.939414 0
M  V30 661 C 59.1081 -5.34438 0.167286 0
M  V30 662 C 60.4081 -4.70917 2.25908 0
M  V30 663 H 62.1021 -2.56753 1.54007 0
M  V30 664 H 59.6481 -1.23414 0.74195 0
M  V30 665 H 61.6011 -4.20572 -0.264082 0
M  V30 666 H 60.3251 -3.13907 -0.901664 0
M  V30 667 H 58.9841 -3.46186 1.20628 0
M  V30 668 H 58.6321 -4.97298 -0.7552 0
M  V30 669 H 58.3321 -5.82388 0.780901 0
M  V30 670 H 59.8561 -6.10504 -0.108125 0
M  V30 671 H 61.2701 -5.35882 2.03724 0
M  V30 672 H 59.6671 -5.29406 2.82577 0
M  V30 673 H 60.7371 -3.88272 2.9047 0
M  V30 674 N 62.0802 -0.821533 -1.34494 0
M  V30 675 C 63.4912 -0.467956 -1.8074 0
M  V30 676 C 63.8422 1.01151 -1.68116 0
M  V30 677 O 62.9672 1.78707 -1.22036 0
M  V30 678 C 63.5622 -0.842627 -3.28154 0
M  V30 679 C 62.1212 -0.541439 -3.72485 0
M  V30 680 C 61.2682 -1.06028 -2.56229 0
M  V30 681 H 64.2192 -1.01183 -1.22261 0
M  V30 682 H 64.2402 -0.145876 -3.8022 0
M  V30 683 H 63.7522 -1.91945 -3.37311 0
M  V30 684 H 61.8532 0.526034 -3.68868 0
M  V30 685 H 61.9662 -1.08453 -4.66663 0
M  V30 686 H 60.3302 -0.481892 -2.501 0
M  V30 687 H 61.1132 -2.14352 -2.68157 0
M  V30 688 N 63.5583 1.46682 -0.576371 0
M  V30 689 C 64.5053 2.30241 0.160499 0
M  V30 690 C 65.4753 1.40233 0.890162 0
M  V30 691 O 66.6603 1.69186 0.882084 0
M  V30 692 C 63.8003 3.24578 1.1723 0
M  V30 693 C 62.9133 4.29684 0.446736 0
M  V30 694 C 62.0483 5.11154 1.44551 0
M  V30 695 C 61.0873 6.08015 0.70599 0
M  V30 696 N 60.2243 6.82376 1.65251 0
M  V30 697 H 65.0643 2.92727 -0.558127 0
M  V30 698 H 62.6013 1.44272 -0.287056 0
M  V30 699 H 64.5593 3.77711 1.77172 0
M  V30 700 H 63.1893 2.63916 1.85872 0
M  V30 701 H 62.2413 3.79458 -0.267594 0
M  V30 702 H 63.5533 4.98626 -0.131686 0
M  V30 703 H 62.7073 5.68533 2.11791 0
M  V30 704 H 61.4463 4.42158 2.05786 0
M  V30 705 H 60.4513 5.49796 0.0197725 0
M  V30 706 H 61.6763 6.79028 0.09912 0
M  V30 707 H 59.6223 6.16094 2.25308 0
M  V30 708 H 59.5393 7.47556 1.12673 0
M  V30 709 H 60.8073 7.44316 2.31546 0
M  V30 710 N 65.0364 0.313813 1.54444 0
M  V30 711 C 66.2664 -0.293491 2.04505 0
M  V30 712 C 66.6744 -1.47086 1.19005 0
M  V30 713 O 66.0174 -1.82481 0.211257 0
M  V30 714 C 66.0794 -0.800455 3.50475 0
M  V30 715 C 65.7434 0.253322 4.56297 0
M  V30 716 C 66.7404 1.08612 5.08428 0
M  V30 717 C 64.4254 0.398708 5.00715 0
M  V30 718 C 66.4194 2.05013 6.0353 0
M  V30 719 C 64.1064 1.36614 5.95634 0
M  V30 720 C 65.1044 2.19033 6.46926 0
M  V30 721 O 64.7924 3.14134 7.39983 0
M  V30 722 H 64.5244 -0.0658325 0.672787 0
M  V30 723 H 67.0784 0.455177 2.00293 0
M  V30 724 H 65.3084 -1.59987 3.52053 0
M  V30 725 H 66.9974 -1.32504 3.83663 0
M  V30 726 H 67.7634 0.984736 4.74898 0
M  V30 727 H 63.6424 -0.23289 4.60411 0
M  V30 728 H 67.1864 2.69382 6.4349 0
M  V30 729 H 63.0834 1.4682 6.28581 0
M  V30 730 H 63.8514 3.0926 7.57826 0
M  V30 731 N 66.5145 -1.57545 0.0417849 0
M  V30 732 C 67.4775 -2.09885 -0.92093 0
M  V30 733 C 68.4775 -1.01648 -1.24596 0
M  V30 734 O 69.6675 -1.27759 -1.1842 0
M  V30 735 C 66.7995 -2.57527 -2.23367 0
M  V30 736 H 67.9925 -2.96236 -0.467382 0
M  V30 737 H 65.5455 -1.5493 -0.206467 0
M  V30 738 H 66.2805 -1.74542 -2.73323 0
M  V30 739 H 66.0655 -3.36613 -2.01083 0
M  V30 740 H 67.5555 -2.98201 -2.92346 0
M  V30 741 N 67.9926 0.231505 -1.5589 0
M  V30 742 C 68.9226 1.29022 -1.94617 0
M  V30 743 C 69.9036 1.4941 -0.813067 0
M  V30 744 O 71.0886 1.6176 -1.07459 0
M  V30 745 C 68.2186 2.64199 -2.25424 0
M  V30 746 C 67.1726 2.58484 -3.41131 0
M  V30 747 C 66.4986 3.97599 -3.57518 0
M  V30 748 C 67.7986 2.1413 -4.76388 0
M  V30 749 H 69.4926 0.968563 -2.83301 0
M  V30 750 H 67.0386 0.464479 -1.36303 0
M  V30 751 H 68.9916 3.38413 -2.51107 0
M  V30 752 H 67.7156 2.98032 -1.33583 0
M  V30 753 H 66.3746 1.86727 -3.15481 0
M  V30 754 H 66.0226 4.28723 -2.6307 0
M  V30 755 H 65.7226 3.94659 -4.35337 0
M  V30 756 H 67.2466 4.7349 -3.85538 0
M  V30 757 H 68.6606 2.78083 -5.01341 0
M  V30 758 H 67.0576 2.2227 -5.57419 0
M  V30 759 H 68.1276 1.09331 -4.72414 0
M  V30 760 N 69.4707 1.49531 0.497807 0
M  V30 761 C 70.6957 1.63159 1.28039 0
M  V30 762 C 71.1207 0.30418 1.85624 0
M  V30 763 O 70.4787 -0.728618 1.66015 0
M  V30 764 C 70.5267 2.70537 2.38416 0
M  V30 765 O 69.6307 2.29931 3.42353 0
M  V30 766 H 68.9717 0.546001 0.377861 0
M  V30 767 H 71.5017 1.9574 0.59558 0
M  V30 768 H 71.5117 2.92802 2.84132 0
M  V30 769 H 70.1867 3.6689 1.95869 0
M  V30 770 H 68.7637 2.18009 3.02533 0
M  V30 771 N 70.9488 -0.749086 1.3866 0
M  V30 772 C 71.8808 -1.87273 1.32142 0
M  V30 773 C 72.8938 -1.61127 0.232787 0
M  V30 774 O 74.0828 -1.71623 0.49069 0
M  V30 775 C 71.1828 -3.23005 1.02571 0
M  V30 776 C 70.3558 -3.7662 2.22433 0
M  V30 777 C 69.4148 -4.90879 1.89537 0
M  V30 778 O 68.4408 -5.05276 2.62078 0
M  V30 779 N 69.6428 -5.74198 0.853031 0
M  V30 780 H 72.4078 -1.93373 2.28969 0
M  V30 781 H 69.9688 -0.929216 1.32579 0
M  V30 782 H 71.9608 -3.96992 0.786085 0
M  V30 783 H 70.5308 -3.12262 0.145249 0
M  V30 784 H 69.7508 -2.94147 2.62434 0
M  V30 785 H 71.0388 -4.09173 3.02415 0
M  V30 786 H 70.4368 -5.6514 0.25155 0
M  V30 787 H 68.9938 -6.48313 0.67329 0
M  V30 788 N 72.4269 -1.23603 -0.977757 0
M  V30 789 C 73.7039 -0.977897 -1.69401 0
M  V30 790 C 74.0839 0.502738 -2.05026 0
M  V30 791 O 73.4319 1.47459 -1.74551 0
M  V30 792 C 73.6419 -1.89077 -2.93345 0
M  V30 793 C 74.9899 -2.15579 -3.65802 0
M  V30 794 O 76.0139 -1.86648 -3.03383 0
M  V30 795 O 74.8729 -2.64658 -4.78141 0
M  V30 796 H 71.9669 -0.369025 -0.740101 0
M  V30 797 H 74.5129 -1.34657 -1.03274 0
M  V30 798 H 73.2849 -2.89158 -2.63634 0
M  V30 799 H 72.9079 -1.52463 -3.67207 0
M  V30 800 N 73.905 1.17692 -1.04816 0
M  V30 801 C 75.151 1.88137 -0.75711 0
M  V30 802 C 75.484 1.80604 0.713841 0
M  V30 803 O 74.759 1.21146 1.52164 0
M  V30 804 C 75.042 3.38318 -1.2334 0
M  V30 805 C 74.895 3.54622 -2.76701 0
M  V30 806 C 76.214 4.32214 -0.829415 0
M  V30 807 H 73.333 0.683163 -0.27651 0
M  V30 808 H 75.975 1.38424 -1.30149 0
M  V30 809 H 74.125 3.80787 -0.770286 0
M  V30 810 H 75.797 3.21194 -3.31107 0
M  V30 811 H 74.04 2.97026 -3.16161 0
M  V30 812 H 74.711 4.60028 -3.05088 0
M  V30 813 H 77.187 3.97565 -1.22805 0
M  V30 814 H 76.063 5.35838 -1.19033 0
M  V30 815 H 76.324 4.41294 0.266891 0
M  V30 816 N 75.3831 0.828654 1.34056 0
M  V30 817 C 76.6231 0.425394 1.99924 0
M  V30 818 C 76.9871 -0.994294 1.64249 0
M  V30 819 O 78.1881 -1.50074 2.23005 0
M  V30 820 C 76.4591 0.628071 3.51838 0
M  V30 821 S 78.0181 0.318511 4.37642 0
M  V30 822 H 74.8361 0.160465 0.692656 0
M  V30 823 H 77.4381 1.07572 1.63244 0
M  V30 824 H 76.1421 1.66089 3.7529 0
M  V30 825 H 75.6731 -0.0367799 3.93383 0
M  V30 826 H 77.6881 -0.865632 4.88591 0
M  V30 827 N 76.8612 -1.46375 0.584142 0
M  V30 828 C 78.0892 -2.06761 0.0759296 0
M  V30 829 C 78.5042 -1.43266 -1.22965 0
M  V30 830 O 77.8612 -0.538458 -1.74376 0
M  V30 831 C 77.9122 -3.61375 -0.0950384 0
M  V30 832 O 77.6332 -4.22495 1.15887 0
M  V30 833 C 79.1342 -4.38693 -0.637434 0
M  V30 834 H 76.3542 -0.668479 0.0581075 0
M  V30 835 H 78.8982 -1.8798 0.805218 0
M  V30 836 H 77.0532 -3.79578 -0.774554 0
M  V30 837 H 77.4672 -5.15385 0.973598 0
M  V30 838 H 78.9412 -5.47464 -0.706237 0
M  V30 839 H 79.4182 -4.06836 -1.65472 0
M  V30 840 H 80.0242 -4.25299 0.00725967 0
M  V30 841 N 78.3393 -0.321999 -1.54275 0
M  V30 842 C 79.5693 0.282642 -2.04658 0
M  V30 843 C 79.9773 1.46453 -1.19784 0
M  V30 844 O 79.3203 1.82367 -0.220932 0
M  V30 845 C 79.3823 0.781857 -3.50895 0
M  V30 846 C 79.0463 -0.277517 -4.56157 0
M  V30 847 C 80.0433 -1.11307 -5.07845 0
M  V30 848 C 77.7283 -0.425256 -5.00497 0
M  V30 849 C 79.7223 -2.08211 -6.02434 0
M  V30 850 C 77.4093 -1.39771 -5.94901 0
M  V30 851 C 78.4073 -2.2246 -6.45756 0
M  V30 852 O 78.0953 -3.18054 -7.38307 0
M  V30 853 H 77.8273 0.0622636 -0.673126 0
M  V30 854 H 80.3813 -0.465792 -2.00049 0
M  V30 855 H 78.6113 1.58118 -3.52896 0
M  V30 856 H 80.3003 1.30467 -3.84361 0
M  V30 857 H 81.0663 -1.00991 -4.74369 0
M  V30 858 H 76.9453 0.20847 -4.60528 0
M  V30 859 H 80.4893 -2.72791 -6.42052 0
M  V30 860 H 76.3863 -1.50152 -6.27794 0
M  V30 861 H 77.1543 -3.13275 -7.56175 0
M  V30 862 N 79.8174 1.5752 -0.0501392 0
M  V30 863 C 81.2334 1.56631 0.306402 0
M  V30 864 C 81.4334 1.0577 1.71508 0
M  V30 865 O 80.4894 0.713837 2.422 0
M  V30 866 C 81.8024 3.00393 0.135811 0
M  V30 867 C 83.3504 3.12315 0.206993 0
M  V30 868 C 83.8254 4.57954 0.064944 0
M  V30 869 N 85.3164 4.63041 0.121254 0
M  V30 870 C 86.0514 5.73389 0.0354381 0
M  V30 871 N 85.5474 6.92724 -0.102666 0
M  V30 872 N 87.3404 5.62026 0.090946 0
M  V30 873 H 79.4914 1.88903 -0.971046 0
M  V30 874 H 81.7544 0.869876 -0.376855 0
M  V30 875 H 81.4604 3.41635 -0.835384 0
M  V30 876 H 81.3344 3.66373 0.897275 0
M  V30 877 H 83.7214 2.70973 1.16866 0
M  V30 878 H 83.8024 2.49016 -0.585208 0
M  V30 879 H 83.4464 4.99981 -0.893394 0
M  V30 880 H 83.3764 5.19258 0.876277 0
M  V30 881 H 85.8674 3.77216 0.227284 0
M  V30 882 H 86.1804 7.72633 -0.160882 0
M  V30 883 H 84.5254 6.94864 -0.137737 0
M  V30 884 H 87.7164 4.67684 0.197388 0
M  V30 885 H 87.8894 6.47997 0.0206089 0
M  V30 886 N 81.2955 -0.223234 1.56011 0
M  V30 887 C 82.5725 -0.972108 1.69733 0
M  V30 888 C 82.9525 -2.02485 0.59691 0
M  V30 889 O 82.3005 -2.25037 -0.396324 0
M  V30 890 C 82.5105 -1.58407 3.10979 0
M  V30 891 C 83.8585 -2.07696 3.70334 0
M  V30 892 O 84.8825 -1.68304 3.1393 0
M  V30 893 O 83.7415 -2.80096 4.69264 0
M  V30 894 H 80.8355 -0.453993 0.691245 0
M  V30 895 H 83.3815 -0.215149 1.68331 0
M  V30 896 H 82.1535 -0.823831 3.82529 0
M  V30 897 H 81.7765 -2.40661 3.16493 0
M  V30 898 N 82.7736 -1.49793 -0.48987 0
M  V30 899 C 84.0206 -1.59841 -1.24327 0
M  V30 900 C 84.3486 -0.290135 -1.92324 0
M  V30 901 O 83.6036 0.722749 -1.81865 0
M  V30 902 C 83.9026 -2.71488 -2.32441 0
M  V30 903 C 83.5686 -4.12614 -1.81826 0
M  V30 904 C 82.2306 -4.51017 -1.67742 0
M  V30 905 C 84.5826 -5.00892 -1.4407 0
M  V30 906 C 81.9106 -5.75459 -1.14297 0
M  V30 907 C 84.2626 -6.25863 -0.920742 0
M  V30 908 C 82.9266 -6.63086 -0.766383 0
M  V30 909 H 82.1966 -0.584899 -0.454944 0
M  V30 910 H 84.8436 -1.83663 -0.542215 0
M  V30 911 H 83.1486 -2.4168 -3.0838 0
M  V30 912 H 84.8456 -2.76469 -2.90458 0
M  V30 913 H 81.4356 -3.82307 -1.93751 0
M  V30 914 H 85.6196 -4.7187 -1.53794 0
M  V30 915 H 80.8756 -6.02989 -1.01068 0
M  V30 916 H 85.0496 -6.9364 -0.619448 0
M  V30 917 H 82.6766 -7.59393 -0.350083 0
M  V30 918 N 84.2517 0.741722 -1.39055 0
M  V30 919 C 85.5007 1.49656 -1.35225 0
M  V30 920 C 85.8137 1.95533 0.0512708 0
M  V30 921 O 87.0197 2.7067 0.212138 0
M  V30 922 C 85.4757 2.70389 -2.37525 0
M  V30 923 C 85.0837 2.31489 -3.83558 0
M  V30 924 C 86.8277 3.48236 -2.42759 0
M  V30 925 C 84.7347 3.48903 -4.77515 0
M  V30 926 H 83.6647 0.56197 -0.502699 0
M  V30 927 H 86.3157 0.809727 -1.64668 0
M  V30 928 H 84.6977 3.41113 -2.01142 0
M  V30 929 H 85.8717 1.68354 -4.28945 0
M  V30 930 H 84.1867 1.66749 -3.81554 0
M  V30 931 H 86.7837 4.35558 -3.1015 0
M  V30 932 H 87.1267 3.90229 -1.45008 0
M  V30 933 H 87.6597 2.84535 -2.78002 0
M  V30 934 H 84.3987 3.11966 -5.76504 0
M  V30 935 H 83.9187 4.11041 -4.36813 0
M  V30 936 H 85.5977 4.15328 -4.96096 0
M  V30 937 N 85.7298 1.2412 0.971189 0
M  V30 938 C 86.9598 1.10415 1.7462 0
M  V30 939 C 87.3678 -0.346462 1.86001 0
M  V30 940 O 86.7108 -1.25104 1.34517 0
M  V30 941 C 86.7728 1.66596 3.18568 0
M  V30 942 C 86.4368 3.15446 3.3067 0
M  V30 943 C 87.4338 4.12636 3.16271 0
M  V30 944 C 85.1188 3.55337 3.55022 0
M  V30 945 C 87.1128 5.47699 3.26044 0
M  V30 946 C 84.7998 4.90542 3.64434 0
M  V30 947 C 85.7978 5.86532 3.49956 0
M  V30 948 O 85.4858 7.19279 3.59017 0
M  V30 949 H 85.2178 0.386616 0.55453 0
M  V30 950 H 87.7718 1.64633 1.22821 0
M  V30 951 H 86.0018 1.06808 3.71657 0
M  V30 952 H 87.6908 1.48232 3.77865 0
M  V30 953 H 88.4568 3.8316 2.97344 0
M  V30 954 H 84.3358 2.8113 3.65359 0
M  V30 955 H 87.8798 6.22603 3.14661 0
M  V30 956 H 83.7768 5.19691 3.82873 0
M  V30 957 H 84.5448 7.27153 3.75754 0
M  V30 958 N 87.2079 -1.17134 1.05439 0
M  V30 959 C 88.6239 -1.39454 0.776201 0
M  V30 960 C 88.8239 -1.91454 -0.628307 0
M  V30 961 O 87.8799 -2.10777 -1.39031 0
M  V30 962 C 89.1929 -2.38305 1.83388 0
M  V30 963 C 90.7409 -2.52006 1.85639 0
M  V30 964 C 91.2159 -3.54133 2.90437 0
M  V30 965 N 92.7069 -3.61653 2.89415 0
M  V30 966 C 93.4419 -4.4044 3.67152 0
M  V30 967 N 92.9379 -5.22721 4.54681 0
M  V30 968 N 94.7309 -4.35337 3.55581 0
M  V30 969 H 86.8819 -0.817134 1.96053 0
M  V30 970 H 89.1449 -0.421626 0.849079 0
M  V30 971 H 88.8509 -2.07173 2.84204 0
M  V30 972 H 88.7249 -3.37841 1.67761 0
M  V30 973 H 91.1119 -2.82447 0.85486 0
M  V30 974 H 91.1929 -1.52537 2.05344 0
M  V30 975 H 90.8369 -3.24431 3.90777 0
M  V30 976 H 90.7669 -4.53313 2.67983 0
M  V30 977 H 93.2579 -3.02909 2.25952 0
M  V30 978 H 93.5709 -5.80027 5.10674 0
M  V30 979 H 91.9159 -5.22093 4.58741 0
M  V30 980 H 95.1069 -3.70112 2.86592 0
M  V30 981 H 95.2799 -4.96494 4.1641 0
M  V30 982 N 88.686 -0.835752 -1.33615 0
M  V30 983 C 89.914 -0.443344 -2.02094 0
M  V30 984 C 90.329 0.954522 -1.62894 0
M  V30 985 O 89.686 1.61982 -0.840723 0
M  V30 986 C 89.737 -0.550775 -3.5728 0
M  V30 987 O 89.458 -1.89356 -3.95065 0
M  V30 988 C 90.959 -0.154919 -4.43029 0
M  V30 989 H 88.179 -0.176359 -0.647409 0
M  V30 990 H 90.723 -1.12746 -1.70612 0
M  V30 991 H 88.878 0.0853997 -3.87306 0
M  V30 992 H 89.292 -1.87687 -4.89769 0
M  V30 993 H 90.766 -0.281144 -5.51284 0
M  V30 994 H 91.243 0.902863 -4.2982 0
M  V30 995 H 91.849 -0.765404 -4.18356 0
M  V30 996 N 90.1641 1.46063 -0.591896 0
M  V30 997 C 91.4101 2.02638 -0.0811191 0
M  V30 998 C 91.7431 1.4613 1.27905 0
M  V30 999 O 91.0181 0.629908 1.84017 0
M  V30 1000 C 91.3011 3.60091 -0.0252436 0
M  V30 1001 C 91.1541 4.26965 -1.41496 0
M  V30 1002 C 92.4731 4.3496 0.670685 0
M  V30 1003 H 89.5921 0.73635 -0.0309524 0
M  V30 1004 H 92.2341 1.741 -0.760859 0
M  V30 1005 H 90.3841 3.84535 0.553624 0
M  V30 1006 H 92.0561 4.13756 -2.0397 0
M  V30 1007 H 90.2991 3.85971 -1.98011 0
M  V30 1008 H 90.9701 5.35781 -1.32825 0
M  V30 1009 H 93.4461 4.15716 0.178825 0
M  V30 1010 H 92.3221 5.44686 0.678837 0
M  V30 1011 H 92.5831 4.06685 1.73379 0
M  V30 1012 N 91.6422 0.330177 1.54103 0
M  V30 1013 C 92.5522 -0.541534 2.28264 0
M  V30 1014 C 93.5682 -1.12351 1.32866 0
M  V30 1015 O 94.7442 -1.14206 1.65888 0
M  V30 1016 C 91.8092 -1.68322 3.03098 0
M  V30 1017 C 90.8702 -1.13238 4.14096 0
M  V30 1018 C 90.1032 -2.21966 4.85352 0
M  V30 1019 O 90.3262 -3.42437 4.56172 0
M  V30 1020 O 89.2602 -1.87013 5.7211 0
M  V30 1021 H 93.0862 0.060938 3.03639 0
M  V30 1022 H 90.6712 0.09565 1.49093 0
M  V30 1023 H 92.5532 -2.34777 3.49939 0
M  V30 1024 H 91.2282 -2.27176 2.30593 0
M  V30 1025 H 90.1352 -0.432736 3.71589 0
M  V30 1026 H 91.4682 -0.588898 4.88664 0
M  V30 1027 N 93.1203 -1.57491 0.0584922 0
M  V30 1028 C 94.3693 -1.92155 -0.613146 0
M  V30 1029 C 94.6823 -0.939334 -1.71569 0
M  V30 1030 O 95.8883 -1.17829 -2.44599 0
M  V30 1031 C 94.3443 -3.41303 -1.14195 0
M  V30 1032 C 93.9523 -4.47944 -0.0711265 0
M  V30 1033 C 95.6963 -3.84988 -1.78841 0
M  V30 1034 C 93.6033 -5.88212 -0.613225 0
M  V30 1035 H 92.5333 -0.717162 -0.232796 0
M  V30 1036 H 95.1843 -1.83049 0.12857 0
M  V30 1037 H 93.5663 -3.45437 -1.93621 0
M  V30 1038 H 94.7403 -4.55408 0.702836 0
M  V30 1039 H 93.0553 -4.13644 0.478313 0
M  V30 1040 H 95.6523 -4.87159 -2.20408 0
M  V30 1041 H 95.9953 -3.21632 -2.64308 0
M  V30 1042 H 96.5283 -3.83401 -1.06059 0
M  V30 1043 H 93.2673 -6.55183 0.203978 0
M  V30 1044 H 92.7873 -5.84294 -1.35501 0
M  V30 1045 H 94.4663 -6.37687 -1.09383 0
M  V30 1046 N 94.5984 0.214957 -1.56127 0
M  V30 1047 C 96.0094 0.781386 -1.69562 0
M  V30 1048 C 96.3604 1.84707 -0.66165 0
M  V30 1049 O 95.4854 2.156 0.185927 0
M  V30 1050 C 96.0804 1.42411 -3.07416 0
M  V30 1051 C 94.6394 1.93786 -3.22683 0
M  V30 1052 C 93.7864 0.800438 -2.65496 0
M  V30 1053 H 96.7374 -0.00980633 -1.58697 0
M  V30 1054 H 96.7584 2.29309 -3.0364 0
M  V30 1055 H 96.2704 0.64826 -3.82648 0
M  V30 1056 H 94.3714 2.74152 -2.52332 0
M  V30 1057 H 94.4844 2.1133 -4.29973 0
M  V30 1058 H 92.8484 1.2095 -2.2415 0
M  V30 1059 H 93.6314 0.0371471 -3.4328 0
M  V30 1060 N 96.0765 1.50051 0.48192 0
M  V30 1061 C 97.3245 1.60181 1.23234 0
M  V30 1062 C 97.6455 0.299176 1.92691 0
M  V30 1063 O 96.9155 -0.682708 1.83619 0
M  V30 1064 H 95.4955 0.590232 0.457859 0
M  V30 1065 H 98.1575 1.86775 0.556881 0
M  V30 1066 H 97.2535 2.40753 1.98607 0
M  V30 1067 N 97.5546 -0.734337 1.39446 0
M  V30 1068 C 98.7946 -1.50655 1.38139 0
M  V30 1069 C 99.1586 -1.91986 -0.0228701 0
M  V30 1070 O 100.36 -2.68318 -0.160947 0
M  V30 1071 C 98.6306 -2.71251 2.32718 0
M  V30 1072 S 100.19 -3.60892 2.49605 0
M  V30 1073 H 97.0076 -0.515315 0.489869 0
M  V30 1074 H 99.6096 -0.860392 1.75549 0
M  V30 1075 H 98.3136 -2.39027 3.33608 0
M  V30 1076 H 97.8446 -3.40795 1.96526 0
M  V30 1077 H 99.8596 -4.64899 1.73446 0
M  V30 1078 N 99.0327 -1.24633 -0.964593 0
M  V30 1079 C 100.444 -1.08045 -1.5226 0
M  V30 1080 C 100.795 0.347116 -1.93105 0
M  V30 1081 O 99.9197 1.23588 -1.77637 0
M  V30 1082 C 100.515 -1.95514 -2.76695 0
M  V30 1083 C 99.0737 -1.8314 -3.28841 0
M  V30 1084 C 98.2207 -1.90262 -2.01732 0
M  V30 1085 H 101.172 -1.38064 -0.782553 0
M  V30 1086 H 101.193 -1.48925 -3.50145 0
M  V30 1087 H 100.705 -2.99407 -2.46936 0
M  V30 1088 H 98.8057 -0.82092 -3.63444 0
M  V30 1089 H 98.9187 -2.67406 -3.97531 0
M  V30 1090 H 97.2827 -1.34027 -2.16584 0
M  V30 1091 H 98.0657 -2.9574 -1.74334 0
M  V30 1092 N 100.511 1.16574 -1.06058 0
M  V30 1093 C 101.441 2.23057 -0.690488 0
M  V30 1094 C 102.422 1.67141 0.315901 0
M  V30 1095 O 103.607 1.93253 0.191556 0
M  V30 1096 C 100.737 3.47222 -0.073625 0
M  V30 1097 C 99.6908 4.16016 -1.00573 0
M  V30 1098 C 99.0168 5.34104 -0.252289 0
M  V30 1099 C 100.317 4.67264 -2.33371 0
M  V30 1100 H 102.011 2.54271 -1.58072 0
M  V30 1101 H 99.5568 1.22218 -0.76149 0
M  V30 1102 H 101.51 4.20939 0.19714 0
M  V30 1103 H 100.234 3.15302 0.85161 0
M  V30 1104 H 98.8928 3.44223 -1.2612 0
M  V30 1105 H 98.5408 4.98437 0.675988 0
M  V30 1106 H 98.2408 5.81072 -0.873455 0
M  V30 1107 H 99.7648 6.10599 0.0109857 0
M  V30 1108 H 101.179 5.32573 -2.12223 0
M  V30 1109 H 99.5758 5.24843 -2.90963 0
M  V30 1110 H 100.646 3.83602 -2.96611 0
M  V30 1111 N 101.989 0.842826 1.3317 0
M  V30 1112 C 102.939 0.250877 2.26616 0
M  V30 1113 C 103.923 -0.596427 1.49437 0
M  V30 1114 O 105.115 -0.447747 1.71243 0
M  V30 1115 C 102.244 -0.569779 3.38539 0
M  V30 1116 C 101.33 0.289254 4.23112 0
M  V30 1117 N 101.721 1.36987 4.86897 0
M  V30 1118 C 100.019 0.0769631 4.45934 0
M  V30 1119 C 100.72 1.89737 5.49886 0
M  V30 1120 N 99.6959 1.19827 5.30229 0
M  V30 1121 H 103.498 1.07718 2.73448 0
M  V30 1122 H 101.012 0.687693 1.47121 0
M  V30 1123 H 103.009 -1.01018 4.04476 0
M  V30 1124 H 101.669 -1.39401 2.93253 0
M  V30 1125 H 102.68 1.75277 4.87338 0
M  V30 1126 H 99.3569 -0.713507 4.11358 0
M  V30 1127 H 100.747 2.80253 6.10662 0
M  V30 1128 N 103.467 -1.45747 0.599634 0
M  V30 1129 C 104.713 -2.02592 0.0918643 0
M  V30 1130 C 105.046 -1.46806 -1.27128 0
M  V30 1131 O 104.321 -0.639658 -1.83681 0
M  V30 1132 C 104.604 -3.60073 0.0443398 0
M  V30 1133 C 104.457 -4.26208 1.43759 0
M  V30 1134 C 105.776 -4.35309 -0.647608 0
M  V30 1135 H 102.895 -0.736175 0.034857 0
M  V30 1136 H 105.537 -1.73694 0.770081 0
M  V30 1137 H 103.687 -3.84823 -0.533224 0
M  V30 1138 H 105.359 -4.12668 2.06162 0
M  V30 1139 H 103.602 -3.84916 2.00056 0
M  V30 1140 H 104.273 -5.35069 1.35665 0
M  V30 1141 H 106.749 -4.15805 -0.156776 0
M  V30 1142 H 105.625 -5.45038 -0.649942 0
M  V30 1143 H 105.886 -4.07598 -1.71219 0
M  V30 1144 N 104.945 -0.338344 -1.53925 0
M  V30 1145 C 105.908 0.508299 -2.23493 0
M  V30 1146 C 106.908 1.03175 -1.23335 0
M  V30 1147 O 108.098 0.921826 -1.47811 0
M  V30 1148 C 105.23 1.70754 -2.95052 0
M  V30 1149 H 106.423 -0.100058 -2.99733 0
M  V30 1150 H 103.976 -0.0896198 -1.56043 0
M  V30 1151 H 104.711 2.35474 -2.22986 0
M  V30 1152 H 104.496 1.33946 -3.68512 0
M  V30 1153 H 105.986 2.30818 -3.48013 0
M  V30 1154 N 106.423 1.57458 -0.0668435 0
M  V30 1155 C 107.834 1.80776 0.466558 0
M  V30 1156 C 108.185 0.980361 1.69951 0
M  V30 1157 O 107.31 0.201441 2.1546 0
M  V30 1158 C 107.905 3.27881 0.85321 0
M  V30 1159 C 106.464 3.52062 1.3315 0
M  V30 1160 C 105.611 2.75513 0.314264 0
M  V30 1161 H 108.562 1.5598 -0.292588 0
M  V30 1162 H 108.583 3.39659 1.715 0
M  V30 1163 H 108.095 3.88075 -0.0443439 0
M  V30 1164 H 106.196 2.97167 2.24772 0
M  V30 1165 H 106.309 4.60762 1.31285 0
M  V30 1166 H 104.673 2.42123 0.790492 0
M  V30 1167 H 105.456 3.38442 -0.575477 0
M  V30 1168 N 107.901 -0.206675 1.56239 0
M  V30 1169 C 109.131 -0.943975 1.83773 0
M  V30 1170 C 109.539 -1.77841 0.645703 0
M  V30 1171 O 108.882 -1.79403 -0.395008 0
M  V30 1172 C 108.944 -1.899 3.05251 0
M  V30 1173 C 108.608 -1.24764 4.39639 0
M  V30 1174 C 109.605 -0.630216 5.16066 0
M  V30 1175 C 107.29 -1.25496 4.8637 0
M  V30 1176 C 109.284 -0.0287946 6.37393 0
M  V30 1177 C 106.971 -0.649698 6.07637 0
M  V30 1178 C 107.969 -0.0376845 6.8299 0
M  V30 1179 O 107.657 0.55812 8.0196 0
M  V30 1180 H 107.389 -0.281508 0.614597 0
M  V30 1181 H 109.943 -0.222458 2.04192 0
M  V30 1182 H 108.173 -2.6599 2.80689 0
M  V30 1183 H 109.862 -2.5031 3.1953 0
M  V30 1184 H 110.628 -0.616785 4.81062 0
M  V30 1185 H 106.507 -1.72072 4.27683 0
M  V30 1186 H 110.051 0.449518 6.9615 0
M  V30 1187 H 105.948 -0.660592 6.42111 0
M  V30 1188 H 106.716 0.453891 8.17241 0
M  V30 1189 N 109.379 -1.50304 -0.473955 0
M  V30 1190 C 110.626 -1.6115 -1.22625 0
M  V30 1191 C 110.954 -0.310517 -1.92005 0
M  V30 1192 O 110.209 0.703419 -1.82621 0
M  V30 1193 C 110.508 -2.73938 -2.29549 0
M  V30 1194 C 110.174 -4.14519 -1.7744 0
M  V30 1195 C 108.836 -4.5277 -1.62949 0
M  V30 1196 C 111.188 -5.02392 -1.3875 0
M  V30 1197 C 108.516 -5.76639 -1.08187 0
M  V30 1198 C 110.868 -6.26805 -0.854309 0
M  V30 1199 C 109.532 -6.63861 -0.696011 0
M  V30 1200 H 108.802 -0.589691 -0.448715 0
M  V30 1201 H 111.449 -1.84228 -0.522705 0
M  V30 1202 H 109.754 -2.44937 -3.05799 0
M  V30 1203 H 111.451 -2.79534 -2.87509 0
M  V30 1204 H 108.041 -3.8434 -1.89685 0
M  V30 1205 H 112.225 -4.73474 -1.4878 0
M  V30 1206 H 107.481 -6.04027 -0.946666 0
M  V30 1207 H 111.655 -6.94258 -0.545843 0
M  V30 1208 H 109.282 -7.59722 -0.26952 0
M  V30 1209 N 110.857 0.726932 -1.39834 0
M  V30 1210 C 112.082 1.52121 -1.40976 0
M  V30 1211 C 112.507 1.88098 -0.00826029 0
M  V30 1212 O 111.865 1.52479 0.980807 0
M  V30 1213 C 111.913 2.78021 -2.29644 0
M  V30 1214 O 111.017 3.74272 -1.73188 0
M  V30 1215 H 110.358 0.45908 -0.479731 0
M  V30 1216 H 112.888 0.896207 -1.83927 0
M  V30 1217 H 112.898 3.26671 -2.44438 0
M  V30 1218 H 111.573 2.51169 -3.31492 0
M  V30 1219 H 110.15 3.33073 -1.6768 0
M  V30 1220 N 112.336 1.25143 0.95797 0
M  V30 1221 C 113.566 1.12261 1.73439 0
M  V30 1222 C 113.974 -0.326715 1.86358 0
M  V30 1223 O 113.317 -1.2367 1.35836 0
M  V30 1224 C 113.379 1.69966 3.16784 0
M  V30 1225 C 113.043 3.18936 3.27305 0
M  V30 1226 C 114.04 4.15968 3.11877 0
M  V30 1227 C 111.725 3.59083 3.51234 0
M  V30 1228 C 113.719 5.51126 3.20217 0
M  V30 1229 C 111.406 4.9438 3.5921 0
M  V30 1230 C 112.404 5.90211 3.43716 0
M  V30 1231 O 112.092 7.23046 3.51368 0
M  V30 1232 H 111.824 0.392476 0.550399 0
M  V30 1233 H 114.378 1.65927 1.21068 0
M  V30 1234 H 112.608 1.10744 3.70503 0
M  V30 1235 H 114.297 1.52232 3.76272 0
M  V30 1236 H 115.063 3.86292 2.93264 0
M  V30 1237 H 110.942 2.84989 3.62356 0
M  V30 1238 H 114.486 6.25905 3.0804 0
M  V30 1239 H 110.383 5.23723 3.77339 0
M  V30 1240 H 111.151 7.31097 3.6802 0
M  V30 1241 N 113.814 -1.1601 1.06675 0
M  V30 1242 C 115.225 -1.68235 0.809565 0
M  V30 1243 C 115.576 -1.8454 -0.666303 0
M  V30 1244 O 114.701 -1.54374 -1.5165 0
M  V30 1245 C 115.296 -3.05585 1.46299 0
M  V30 1246 C 113.855 -3.54915 1.25349 0
M  V30 1247 C 113.002 -2.30804 1.53703 0
M  V30 1248 H 115.953 -1.00318 1.22971 0
M  V30 1249 H 115.974 -3.70174 0.880431 0
M  V30 1250 H 115.486 -2.93686 2.53713 0
M  V30 1251 H 113.587 -3.72067 0.199261 0
M  V30 1252 H 113.7 -4.36774 1.9689 0
M  V30 1253 H 112.064 -2.36007 0.957739 0
M  V30 1254 H 112.847 -2.21499 2.62284 0
M  V30 1255 N 115.292 -0.849877 -1.32721 0
M  V30 1256 C 116.538 -0.451591 -1.97708 0
M  V30 1257 C 116.871 0.989175 -1.6712 0
M  V30 1258 O 116.146 1.69334 -0.956891 0
M  V30 1259 C 116.429 -0.685598 -3.53513 0
M  V30 1260 C 116.282 -2.17444 -3.93749 0
M  V30 1261 C 117.601 -0.138874 -4.39881 0
M  V30 1262 H 114.72 -0.16555 -0.718166 0
M  V30 1263 H 117.362 -1.06742 -1.57182 0
M  V30 1264 H 115.512 -0.161416 -3.88165 0
M  V30 1265 H 117.184 -2.76433 -3.693 0
M  V30 1266 H 115.427 -2.65476 -3.43081 0
M  V30 1267 H 116.098 -2.28888 -5.02309 0
M  V30 1268 H 118.574 -0.587068 -4.11938 0
M  V30 1269 H 117.45 -0.332213 -5.47894 0
M  V30 1270 H 117.711 0.95806 -4.31594 0
M  V30 1271 N 116.77 1.45427 -0.607355 0
M  V30 1272 C 117.733 2.28974 0.101693 0
M  V30 1273 C 118.733 1.39754 0.795329 0
M  V30 1274 O 119.923 1.61878 0.643527 0
M  V30 1275 C 117.055 3.20768 1.15414 0
M  V30 1276 H 118.248 2.93147 -0.632844 0
M  V30 1277 H 115.801 1.51945 -0.366391 0
M  V30 1278 H 116.536 2.61395 1.91945 0
M  V30 1279 H 116.321 3.86489 0.66098 0
M  V30 1280 H 117.811 3.83589 1.65073 0
M  V30 1281 N 118.248 0.346503 1.53744 0
M  V30 1282 C 119.178 -0.501193 2.28058 0
M  V30 1283 C 120.159 -1.10014 1.29734 0
M  V30 1284 O 121.344 -1.12097 1.58581 0
M  V30 1285 C 118.474 -1.65078 3.05559 0
M  V30 1286 C 117.428 -1.18003 4.11411 0
M  V30 1287 C 116.754 -2.41837 4.76884 0
M  V30 1288 C 118.054 -0.278394 5.21558 0
M  V30 1289 H 119.748 0.11875 2.99164 0
M  V30 1290 H 117.294 0.0585531 1.43881 0
M  V30 1291 H 119.247 -2.25028 3.56287 0
M  V30 1292 H 117.971 -2.29767 2.32109 0
M  V30 1293 H 116.63 -0.603331 3.61601 0
M  V30 1294 H 116.278 -3.0494 4.00026 0
M  V30 1295 H 115.978 -2.1102 5.48402 0
M  V30 1296 H 117.502 -3.02508 5.30397 0
M  V30 1297 H 118.916 -0.784823 5.67903 0
M  V30 1298 H 117.313 -0.0619707 6.00068 0
M  V30 1299 H 118.383 0.684677 4.80042 0
M  V30 1300 N 119.726 -1.57421 0.075193 0
M  V30 1301 C 120.951 -1.98364 -0.605515 0
M  V30 1302 C 121.376 -0.953383 -1.62149 0
M  V30 1303 O 120.734 0.0806053 -1.81121 0
M  V30 1304 C 120.782 -3.38332 -1.24756 0
M  V30 1305 O 119.886 -3.37959 -2.36342 0
M  V30 1306 H 119.227 -0.645553 -0.155428 0
M  V30 1307 H 121.757 -2.04044 0.150714 0
M  V30 1308 H 121.767 -3.75591 -1.5936 0
M  V30 1309 H 120.442 -4.12846 -0.503129 0
M  V30 1310 H 119.019 -3.12474 -2.03506 0
M  V30 1311 N 121.204 0.198386 -1.56346 0
M  V30 1312 C 122.444 0.92609 -1.82217 0
M  V30 1313 C 122.808 1.80584 -0.652195 0
M  V30 1314 O 124.009 2.56907 -0.790716 0
M  V30 1315 C 122.28 1.72354 -3.13096 0
M  V30 1316 S 123.839 2.50371 -3.6036 0
M  V30 1317 H 120.657 0.310677 -0.639532 0
M  V30 1318 H 123.259 0.189755 -1.94577 0
M  V30 1319 H 121.963 1.0678 -3.96265 0
M  V30 1320 H 121.494 2.50175 -3.03605 0
M  V30 1321 H 123.509 3.74488 -3.25535 0
M  V30 1322 N 122.682 1.50554 0.465978 0
M  V30 1323 C 123.629 1.6979 1.56333 0
M  V30 1324 C 124.599 0.539239 1.57103 0
M  V30 1325 O 125.784 0.770401 1.74555 0
M  V30 1326 C 122.924 1.80273 2.94271 0
M  V30 1327 C 122.037 3.07674 3.0325 0
M  V30 1328 C 121.172 3.08922 4.32135 0
M  V30 1329 C 120.211 4.30755 4.34875 0
M  V30 1330 N 119.348 4.29714 5.55239 0
M  V30 1331 H 124.188 2.63472 1.39235 0
M  V30 1332 H 121.725 1.30602 0.676873 0
M  V30 1333 H 123.683 1.84332 3.74269 0
M  V30 1334 H 122.313 0.900258 3.09992 0
M  V30 1335 H 121.365 3.13062 2.16094 0
M  V30 1336 H 122.677 3.97642 3.01135 0
M  V30 1337 H 121.831 3.11738 5.20485 0
M  V30 1338 H 120.57 2.16792 4.36866 0
M  V30 1339 H 119.575 4.28146 3.44922 0
M  V30 1340 H 120.8 5.24117 4.31831 0
M  V30 1341 H 118.746 3.4044 5.60746 0
M  V30 1342 H 118.663 5.13456 5.54886 0
M  V30 1343 H 119.931 4.36683 6.457 0
M  V30 1344 N 124.16 -0.719506 1.40217 0
M  V30 1345 C 125.4 -1.49181 1.39729 0
M  V30 1346 C 125.764 -1.92 -0.00250614 0
M  V30 1347 O 126.965 -2.68473 -0.132479 0
M  V30 1348 C 125.236 -2.68767 2.35582 0
M  V30 1349 S 126.795 -3.58224 2.53418 0
M  V30 1350 H 123.613 -0.510091 0.495307 0
M  V30 1351 H 126.215 -0.841724 1.76452 0
M  V30 1352 H 124.919 -2.35475 3.36124 0
M  V30 1353 H 124.45 -3.38691 2.0013 0
M  V30 1354 H 126.465 -4.63033 1.78367 0
M  V30 1355 N 125.638 -1.25649 -0.95132 0
M  V30 1356 C 126.886 -1.10375 -1.69298 0
M  V30 1357 C 127.207 0.355339 -1.91735 0
M  V30 1358 O 126.477 1.25188 -1.50681 0
M  V30 1359 H 125.057 -0.405461 -0.627384 0
M  V30 1360 H 127.719 -1.57823 -1.14358 0
M  V30 1361 H 126.815 -1.61465 -2.67087 0
M  V30 1362 N 127.117 1.15442 -1.07289 0
M  V30 1363 C 128.064 2.20161 -0.692653 0
M  V30 1364 C 129.034 1.63073 0.31564 0
M  V30 1365 O 130.219 1.89725 0.202235 0
M  V30 1366 C 127.359 3.44967 -0.0959509 0
M  V30 1367 C 126.472 4.16256 -1.15564 0
M  V30 1368 C 125.607 5.28609 -0.524011 0
M  V30 1369 C 124.646 5.91715 -1.56653 0
M  V30 1370 N 123.783 6.9554 -0.957531 0
M  V30 1371 H 128.623 2.52037 -1.59002 0
M  V30 1372 H 126.16 1.2378 -0.794798 0
M  V30 1373 H 128.118 4.16341 0.267628 0
M  V30 1374 H 126.748 3.1361 0.764772 0
M  V30 1375 H 125.8 3.43385 -1.6368 0
M  V30 1376 H 127.112 4.59268 -1.94613 0
M  V30 1377 H 126.266 6.06604 -0.108032 0
M  V30 1378 H 125.005 4.86787 0.29825 0
M  V30 1379 H 124.01 5.12433 -1.9923 0
M  V30 1380 H 125.235 6.35614 -2.39107 0
M  V30 1381 H 123.181 6.55814 -0.156162 0
M  V30 1382 H 123.098 7.36977 -1.68526 0
M  V30 1383 H 124.366 7.77435 -0.567032 0
M  V30 1384 N 128.595 0.856903 1.32268 0
M  V30 1385 C 129.835 0.467705 1.98977 0
M  V30 1386 C 130.199 -0.959231 1.66321 0
M  V30 1387 O 131.4 -1.4531 2.26138 0
M  V30 1388 C 129.671 0.70256 3.50427 0
M  V30 1389 S 131.23 0.411269 4.36868 0
M  V30 1390 H 128.048 0.175121 0.689096 0
M  V30 1391 H 130.65 1.1101 1.60925 0
M  V30 1392 H 129.354 1.74012 3.71683 0
M  V30 1393 H 128.885 0.0466707 3.93372 0
M  V30 1394 H 130.9 -0.761799 4.90317 0
M  V30 1395 N 130.073 -1.45103 0.615059 0
M  V30 1396 C 131.021 -2.32331 -0.111791 0
M  V30 1397 C 132.015 -1.46409 -0.852102 0
M  V30 1398 O 133.221 -1.62849 -0.766821 0
M  V30 1399 H 129.596 -0.749993 -0.0549072 0
M  V30 1400 H 131.567 -2.91407 0.642225 0
M  V30 1401 C 130.316 -3.3015 -1.09071 0
M  V30 1402 H 129.639 -3.96265 -0.530485 0
M  V30 1403 H 131.079 -3.93898 -1.56908 0
M  V30 1404 C 129.538 -2.57875 -2.168 0
M  V30 1405 O 130.068 -2.36567 -3.24652 0
M  V30 1406 N 128.274 -2.17884 -1.92289 0
M  V30 1407 H 127.821 -2.35413 -1.04587 0
M  V30 1408 H 127.779 -1.6985 -2.64572 0
M  V30 1409 N 131.551 -0.354651 -1.53558 0
M  V30 1410 C 132.779 0.239515 -2.05509 0
M  V30 1411 C 133.194 1.4333 -1.2289 0
M  V30 1412 O 132.551 1.80538 -0.266899 0
M  V30 1413 C 132.602 0.643719 -3.55723 0
M  V30 1414 O 132.323 -0.502602 -4.35207 0
M  V30 1415 C 133.824 1.29743 -4.23889 0
M  V30 1416 H 131.044 0.0442697 -0.669538 0
M  V30 1417 H 133.588 -0.509856 -1.98042 0
M  V30 1418 H 131.743 1.34302 -3.63376 0
M  V30 1419 H 132.157 -0.178172 -5.24197 0
M  V30 1420 H 133.631 1.53091 -5.30346 0
M  V30 1421 H 134.108 2.25441 -3.76926 0
M  V30 1422 H 134.714 0.639865 -4.20459 0
M  V30 1423 N 133.029 1.57378 -0.0835403 0
M  V30 1424 C 134.306 1.85363 0.624507 0
M  V30 1425 C 134.686 0.978239 1.87066 0
M  V30 1426 O 134.034 0.0475908 2.2845 0
M  V30 1427 C 134.244 3.35795 0.950947 0
M  V30 1428 C 135.592 4.03581 1.31939 0
M  V30 1429 O 136.616 3.40609 1.04232 0
M  V30 1430 O 135.475 5.14672 1.83779 0
M  V30 1431 H 132.569 0.766162 0.311329 0
M  V30 1432 H 135.115 1.69307 -0.115362 0
M  V30 1433 H 133.887 3.91244 0.0663899 0
M  V30 1434 H 133.51 3.57154 1.74719 0
M  V30 1435 N 134.507 -0.190092 1.56449 0
M  V30 1436 C 135.737 -0.92443 1.84764 0
M  V30 1437 C 136.145 -1.77146 0.664529 0
M  V30 1438 O 135.488 -1.79812 -0.375957 0
M  V30 1439 C 135.55 -1.86651 3.07248 0
M  V30 1440 C 135.214 -1.20094 4.40938 0
M  V30 1441 C 136.211 -0.575445 5.16706 0
M  V30 1442 C 133.896 -1.2033 4.87674 0
M  V30 1443 C 135.89 0.0388111 6.37388 0
M  V30 1444 C 133.577 -0.585214 6.08291 0
M  V30 1445 C 134.575 0.0347578 6.82991 0
M  V30 1446 O 134.263 0.643147 8.01323 0
M  V30 1447 H 133.995 -0.274974 0.617548 0
M  V30 1448 H 136.549 -0.200788 2.04416 0
M  V30 1449 H 134.779 -2.62998 2.83494 0
M  V30 1450 H 136.468 -2.46907 3.22167 0
M  V30 1451 H 137.234 -0.565728 4.81689 0
M  V30 1452 H 133.113 -1.67526 4.29484 0
M  V30 1453 H 136.657 0.523329 6.95634 0
M  V30 1454 H 132.554 -0.592451 6.42775 0
M  V30 1455 H 133.322 0.540545 8.16713 0
M  V30 1456 N 135.985 -1.50799 -0.457987 0
M  V30 1457 C 137.21 -1.66496 -1.23668 0
M  V30 1458 C 137.635 -0.353288 -1.84752 0
M  V30 1459 O 136.993 0.684346 -1.67888 0
M  V30 1460 C 137.041 -2.76763 -2.3116 0
M  V30 1461 O 136.145 -2.38928 -3.36136 0
M  V30 1462 H 135.486 -0.555828 -0.363252 0
M  V30 1463 H 138.016 -1.9725 -0.543474 0
M  V30 1464 H 138.026 -3.00232 -2.76269 0
M  V30 1465 H 136.701 -3.71954 -1.86073 0
M  V30 1466 H 135.278 -2.25953 -2.96647 0
M  V30 1467 N 137.463 0.71206 -1.40597 0
M  V30 1468 C 138.74 1.46536 -1.29563 0
M  V30 1469 C 139.12 2.10931 0.0844217 0
M  V30 1470 O 138.468 2.00418 1.0975 0
M  V30 1471 C 138.678 2.49821 -2.43701 0
M  V30 1472 C 140.026 3.15551 -2.841 0
M  V30 1473 O 141.05 2.60142 -2.4332 0
M  V30 1474 O 139.909 4.15867 -3.54566 0
M  V30 1475 H 137.003 0.651801 -0.509004 0
M  V30 1476 H 139.549 0.743935 -1.52524 0
M  V30 1477 H 138.321 2.00778 -3.35863 0
M  V30 1478 H 137.944 3.29495 -2.22528 0
M  V30 1479 N 138.941 1.26152 0.944643 0
M  V30 1480 C 140.181 1.12708 1.70517 0
M  V30 1481 C 140.545 -0.324727 1.89234 0
M  V30 1482 O 141.746 -0.581211 2.62441 0
M  V30 1483 C 140.017 1.8713 3.04495 0
M  V30 1484 S 141.576 1.89698 3.95677 0
M  V30 1485 H 138.394 0.402665 0.585988 0
M  V30 1486 H 140.996 1.59821 1.12594 0
M  V30 1487 H 139.7 2.91833 2.88551 0
M  V30 1488 H 139.231 1.40444 3.67477 0
M  V30 1489 H 141.246 0.981198 4.86402 0
M  V30 1490 N 140.419 -1.14872 1.07899 0
M  V30 1491 C 141.668 -1.85135 0.800499 0
M  V30 1492 C 141.981 -1.83547 -0.676014 0
M  V30 1493 O 143.187 -2.49548 -1.06948 0
M  V30 1494 C 141.643 -3.3231 1.38197 0
M  V30 1495 C 141.251 -3.42329 2.8899 0
M  V30 1496 C 142.995 -4.0772 1.18174 0
M  V30 1497 C 140.902 -4.83684 3.403 0
M  V30 1498 H 139.832 -0.693563 0.29578 0
M  V30 1499 H 142.483 -1.29532 1.29976 0
M  V30 1500 H 140.865 -3.87618 0.810431 0
M  V30 1501 H 142.039 -2.97097 3.52236 0
M  V30 1502 H 140.354 -2.80369 3.07867 0
M  V30 1503 H 142.951 -5.12049 1.5398 0
M  V30 1504 H 143.294 -4.16124 0.12117 0
M  V30 1505 H 143.827 -3.58696 1.71994 0
M  V30 1506 H 140.566 -4.80465 4.45907 0
M  V30 1507 H 140.086 -5.29474 2.81811 0
M  V30 1508 H 141.765 -5.52558 3.36584 0
M  V30 1509 N 141.898 -0.863906 -1.31812 0
M  V30 1510 C 142.848 -0.286898 -2.26188 0
M  V30 1511 C 143.832 0.572577 -1.50367 0
M  V30 1512 O 145.024 0.420447 -1.71934 0
M  V30 1513 C 142.153 0.515849 -3.39402 0
M  V30 1514 C 141.239 -0.356531 -4.22599 0
M  V30 1515 N 141.63 -1.44716 -4.84656 0
M  V30 1516 C 139.928 -0.147898 -4.45755 0
M  V30 1517 C 140.629 -1.98462 -5.46798 0
M  V30 1518 N 139.605 -1.28247 -5.28255 0
M  V30 1519 H 143.407 -1.12055 -2.717 0
M  V30 1520 H 140.921 -0.711012 -1.46008 0
M  V30 1521 H 142.918 0.945701 -4.06032 0
M  V30 1522 H 141.578 1.34718 -2.95434 0
M  V30 1523 H 142.589 -1.83008 -4.84488 0
M  V30 1524 H 139.266 0.647973 -4.12441 0
M  V30 1525 H 140.656 -2.89932 -6.06126 0
M  V30 1526 N 143.376 1.44774 -0.622745 0
M  V30 1527 C 144.286 2.34433 0.0886031 0
M  V30 1528 C 145.302 1.52131 0.844529 0
M  V30 1529 O 146.478 1.84886 0.798691 0
M  V30 1530 C 143.543 3.29986 1.0635 0
M  V30 1531 C 142.604 4.28195 0.307873 0
M  V30 1532 C 141.837 5.19183 1.23633 0
M  V30 1533 O 142.06 5.13918 2.47476 0
M  V30 1534 O 140.994 5.97515 0.725189 0
M  V30 1535 H 144.82 2.96693 -0.648599 0
M  V30 1536 H 142.405 1.44408 -0.382957 0
M  V30 1537 H 144.287 3.88825 1.6246 0
M  V30 1538 H 142.962 2.70269 1.78146 0
M  V30 1539 H 141.869 3.72927 -0.296064 0
M  V30 1540 H 143.202 4.90808 -0.3699 0
M  V30 1541 N 144.854 0.36279 1.53368 0
M  V30 1542 C 145.817 -0.472679 2.24273 0
M  V30 1543 C 146.817 -1.012 1.24961 0
M  V30 1544 O 148.007 -0.898194 1.49259 0
M  V30 1545 C 145.139 -1.66039 2.97731 0
M  V30 1546 H 146.332 0.14773 2.99536 0
M  V30 1547 H 143.885 0.114434 1.55881 0
M  V30 1548 H 144.62 -2.31896 2.26704 0
M  V30 1549 H 144.405 -1.28066 3.70596 0
M  V30 1550 H 145.895 -2.25252 3.51641 0
M  V30 1551 N 146.332 -1.57332 0.0918853 0
M  V30 1552 C 147.581 -1.93412 -0.572249 0
M  V30 1553 C 147.894 -0.975515 -1.69538 0
M  V30 1554 O 149.1 -1.22991 -2.42045 0
M  V30 1555 C 147.556 -3.43648 -1.0693 0
M  V30 1556 C 147.164 -4.47994 0.0239049 0
M  V30 1557 C 148.908 -3.88695 -1.70635 0
M  V30 1558 C 146.815 -5.89381 -0.488319 0
M  V30 1559 H 145.745 -0.721939 -0.217532 0
M  V30 1560 H 148.396 -1.82735 0.167369 0
M  V30 1561 H 146.778 -3.49466 -1.8625 0
M  V30 1562 H 147.952 -4.53815 0.799277 0
M  V30 1563 H 146.267 -4.12536 0.565946 0
M  V30 1564 H 148.864 -4.91725 -2.10025 0
M  V30 1565 H 149.207 -3.27166 -2.57426 0
M  V30 1566 H 149.74 -3.85564 -0.979023 0
M  V30 1567 H 146.479 -6.54602 0.342906 0
M  V30 1568 H 145.999 -5.87037 -1.23077 0
M  V30 1569 H 147.678 -6.39863 -0.958317 0
M  V30 1570 N 147.81 0.181792 -1.56548 0
M  V30 1571 C 148.757 1.22521 -1.95595 0
M  V30 1572 C 149.727 1.4454 -0.818373 0
M  V30 1573 O 150.912 1.57454 -1.07763 0
M  V30 1574 C 148.052 2.56193 -2.31212 0
M  V30 1575 C 147.165 2.41641 -3.58097 0
M  V30 1576 C 146.3 3.68108 -3.82975 0
M  V30 1577 C 145.339 3.48445 -5.03242 0
M  V30 1578 N 144.476 4.66956 -5.24306 0
M  V30 1579 H 149.316 0.885226 -2.84548 0
M  V30 1580 H 146.853 0.425718 -1.40805 0
M  V30 1581 H 148.811 3.34088 -2.49882 0
M  V30 1582 H 147.441 2.88208 -1.45382 0
M  V30 1583 H 146.493 1.54976 -3.474 0
M  V30 1584 H 147.805 2.23052 -4.46149 0
M  V30 1585 H 146.959 4.54441 -4.01956 0
M  V30 1586 H 145.698 3.89666 -2.93278 0
M  V30 1587 H 144.703 2.60499 -4.8417 0
M  V30 1588 H 145.928 3.2832 -5.9446 0
M  V30 1589 H 143.874 4.88752 -4.37559 0
M  V30 1590 H 143.791 4.51242 -6.06561 0
M  V30 1591 H 145.059 5.54602 -5.47756 0
M  V30 1592 N 149.288 1.51039 0.449983 0
M  V30 1593 C 150.516 1.66869 1.2232 0
M  V30 1594 C 150.931 0.360727 1.85322 0
M  V30 1595 O 150.288 -0.659531 1.70166 0
M  V30 1596 C 150.339 2.77524 2.31652 0
M  V30 1597 O 150.06 4.03252 1.7123 0
M  V30 1598 C 151.561 3.04512 3.2216 0
M  V30 1599 H 148.781 0.560326 0.369155 0
M  V30 1600 H 151.325 1.97385 0.534719 0
M  V30 1601 H 149.48 2.49642 2.96239 0
M  V30 1602 H 149.894 4.64609 2.43389 0
M  V30 1603 H 151.368 3.85551 3.95038 0
M  V30 1604 H 151.845 2.16415 3.8218 0
M  V30 1605 H 152.451 3.34005 2.63288 0
M  V30 1606 N 150.766 -0.704594 1.40972 0
M  V30 1607 C 151.714 -1.83994 1.42299 0
M  V30 1608 C 152.708 -1.66684 0.302111 0
M  V30 1609 O 153.914 -1.73655 0.473697 0
M  V30 1610 H 150.289 -0.606171 0.44504 0
M  V30 1611 H 152.26 -1.79992 2.38003 0
M  V30 1612 C 151.009 -3.21946 1.31323 0
M  V30 1613 H 150.332 -3.35878 2.16855 0
M  V30 1614 H 151.772 -4.01491 1.36311 0
M  V30 1615 C 150.231 -3.36891 0.0245977 0
M  V30 1616 O 150.761 -3.90687 -0.934153 0
M  V30 1617 N 148.967 -2.90559 -0.0485243 0
M  V30 1618 H 148.514 -2.46968 0.732419 0
M  V30 1619 H 148.472 -3.00937 -0.910171 0
M  V30 1620 N 152.244 -1.26651 -0.937939 0
M  V30 1621 C 153.474 -1.15006 -1.71631 0
M  V30 1622 C 153.882 0.297026 -1.86854 0
M  V30 1623 O 153.225 1.21493 -1.37786 0
M  V30 1624 C 153.287 -1.74984 -3.14039 0
M  V30 1625 C 152.951 -3.24103 -3.2219 0
M  V30 1626 C 153.948 -4.20877 -3.05219 0
M  V30 1627 C 151.633 -3.64625 -3.45476 0
M  V30 1628 C 153.627 -5.56151 -3.11408 0
M  V30 1629 C 151.314 -5.00032 -3.513 0
M  V30 1630 C 152.312 -5.95604 -3.34282 0
M  V30 1631 O 152 -7.28545 -3.3982 0
M  V30 1632 H 151.732 -0.401183 -0.544085 0
M  V30 1633 H 154.286 -1.67832 -1.18413 0
M  V30 1634 H 152.516 -1.16624 -3.68695 0
M  V30 1635 H 154.205 -1.58199 -3.73802 0
M  V30 1636 H 154.971 -3.90908 -2.87081 0
M  V30 1637 H 150.85 -2.90718 -3.57777 0
M  V30 1638 H 154.394 -6.30727 -2.98043 0
M  V30 1639 H 150.291 -5.29659 -3.68959 0
M  V30 1640 H 151.059 -7.3686 -3.56343 0
M  V30 1641 N 153.722 1.14298 -1.08507 0
M  V30 1642 C 154.962 1.87016 -0.824894 0
M  V30 1643 C 155.326 1.81099 0.637735 0
M  V30 1644 O 156.527 2.48963 1.01345 0
M  V30 1645 C 154.798 3.31584 -1.33368 0
M  V30 1646 S 156.357 4.21903 -1.20596 0
M  V30 1647 H 153.175 0.645259 -0.2986 0
M  V30 1648 H 155.777 1.37822 -1.38656 0
M  V30 1649 H 154.481 3.33439 -2.39262 0
M  V30 1650 H 154.012 3.85836 -0.767734 0
M  V30 1651 H 156.027 4.95971 -0.150891 0
M  V30 1652 N 155.201 0.870884 1.31352 0
M  V30 1653 C 156.429 0.49677 2.00848 0
M  V30 1654 C 156.844 -0.910998 1.65367 0
M  V30 1655 O 156.201 -1.59696 0.883374 0
M  V30 1656 C 156.252 0.645308 3.55694 0
M  V30 1657 O 155.973 1.99764 3.89905 0
M  V30 1658 C 157.474 0.272326 4.42463 0
M  V30 1659 H 154.694 0.193462 0.642506 0
M  V30 1660 H 157.238 1.1723 1.67563 0
M  V30 1661 H 155.393 0.0173176 3.87396 0
M  V30 1662 H 155.807 2.00607 4.84621 0
M  V30 1663 H 157.281 0.427208 5.50344 0
M  V30 1664 H 157.758 -0.788587 4.32062 0
M  V30 1665 H 158.364 0.876054 4.1618 0
M  V30 1666 N 156.679 -1.44442 0.630414 0
M  V30 1667 C 157.626 -2.30678 -0.0749355 0
M  V30 1668 C 158.596 -1.4344 -0.837502 0
M  V30 1669 O 159.781 -1.72343 -0.818684 0
M  V30 1670 C 156.921 -3.28706 -1.05103 0
M  V30 1671 C 156.034 -4.31046 -0.286954 0
M  V30 1672 C 155.169 -5.16167 -1.2548 0
M  V30 1673 C 154.208 -6.10216 -0.479843 0
M  V30 1674 N 153.345 -6.88039 -1.39811 0
M  V30 1675 H 158.185 -2.90454 0.666386 0
M  V30 1676 H 155.722 -1.43107 0.340404 0
M  V30 1677 H 157.68 -3.84027 -1.63031 0
M  V30 1678 H 156.31 -2.70632 -1.75949 0
M  V30 1679 H 155.362 -3.78203 0.408243 0
M  V30 1680 H 156.674 -4.97794 0.316657 0
M  V30 1681 H 155.828 -5.76002 -1.90544 0
M  V30 1682 H 154.567 -4.49491 -1.89233 0
M  V30 1683 H 153.572 -5.49491 0.184295 0
M  V30 1684 H 154.797 -6.78928 0.152965 0
M  V30 1685 H 152.743 -6.24032 -2.02287 0
M  V30 1686 H 152.66 -7.51223 -0.848508 0
M  V30 1687 H 153.928 -7.52397 -2.03762 0
M  V30 1688 N 158.157 -0.370918 -1.53173 0
M  V30 1689 C 159.568 0.107139 -1.86392 0
M  V30 1690 C 159.919 1.47714 -1.29132 0
M  V30 1691 O 159.044 2.07464 -0.615439 0
M  V30 1692 C 159.639 0.201187 -3.38202 0
M  V30 1693 C 158.198 0.623507 -3.712 0
M  V30 1694 C 157.345 -0.225978 -2.76378 0
M  V30 1695 H 160.296 -0.58951 -1.47345 0
M  V30 1696 H 160.317 1.02377 -3.66468 0
M  V30 1697 H 159.829 -0.796058 -3.79848 0
M  V30 1698 H 157.93 1.62879 -3.35114 0
M  V30 1699 H 158.043 0.394414 -4.77474 0
M  V30 1700 H 156.407 0.305962 -2.52856 0
M  V30 1701 H 157.19 -1.22086 -3.20858 0
M  V30 1702 N 159.635 1.57281 -0.100228 0
M  V30 1703 C 160.567 2.11342 0.886972 0
M  V30 1704 C 161.58 1.05182 1.24261 0
M  V30 1705 O 162.769 1.32613 1.19483 0
M  V30 1706 C 159.869 2.5825 2.19454 0
M  V30 1707 C 159.042 3.88302 2.01346 0
M  V30 1708 C 158.101 4.21004 3.15661 0
M  V30 1709 O 157.127 4.9014 2.89398 0
M  V30 1710 N 158.329 3.76818 4.41575 0
M  V30 1711 H 161.094 2.96668 0.425216 0
M  V30 1712 H 158.655 1.61678 0.0847334 0
M  V30 1713 H 160.647 2.7717 2.94888 0
M  V30 1714 H 159.217 1.77907 2.57037 0
M  V30 1715 H 158.437 3.7848 1.10212 0
M  V30 1716 H 159.725 4.73375 1.8653 0
M  V30 1717 H 159.123 3.2102 4.65792 0
M  V30 1718 H 157.68 4.00882 5.13942 0
M  V30 1719 N 161.113 -0.173488 1.56642 0
M  V30 1720 C 162.06 -1.21482 1.96242 0
M  V30 1721 C 163.03 -1.44104 0.826027 0
M  V30 1722 O 164.215 -1.5688 1.08597 0
M  V30 1723 C 161.355 -2.54964 2.32567 0
M  V30 1724 C 160.468 -2.39739 3.59373 0
M  V30 1725 C 159.603 -3.66072 3.84921 0
M  V30 1726 C 158.642 -3.45771 5.05083 0
M  V30 1727 N 157.779 -4.64169 5.26775 0
M  V30 1728 H 162.619 -0.870123 2.85014 0
M  V30 1729 H 160.156 -0.418245 1.41029 0
M  V30 1730 H 162.114 -3.32758 2.5165 0
M  V30 1731 H 160.744 -2.87433 1.46908 0
M  V30 1732 H 159.796 -1.53131 3.48217 0
M  V30 1733 H 161.108 -2.20683 4.47326 0
M  V30 1734 H 160.262 -4.52303 4.0436 0
M  V30 1735 H 159.001 -3.88105 2.9534 0
M  V30 1736 H 158.006 -2.57927 4.85545 0
M  V30 1737 H 159.231 -3.25163 5.96193 0
M  V30 1738 H 157.177 -4.86425 4.40144 0
M  V30 1739 H 157.094 -4.48019 6.08946 0
M  V30 1740 H 158.362 -5.51689 5.5069 0
M  V30 1741 N 162.591 -1.51276 -0.441967 0
M  V30 1742 C 163.816 -1.67799 -1.21895 0
M  V30 1743 C 164.241 -0.372864 -1.84367 0
M  V30 1744 O 163.599 0.666501 -1.68604 0
M  V30 1745 C 163.647 -2.79199 -2.28211 0
M  V30 1746 O 162.751 -2.42479 -3.33583 0
M  V30 1747 H 162.092 -0.559649 -0.357336 0
M  V30 1748 H 164.622 -1.97815 -0.522522 0
M  V30 1749 H 164.632 -3.03146 -2.73069 0
M  V30 1750 H 163.307 -3.73906 -1.82118 0
M  V30 1751 H 161.884 -2.29087 -2.94234 0
M  V30 1752 N 164.069 0.697108 -1.41344 0
M  V30 1753 C 165.299 1.48377 -1.43763 0
M  V30 1754 C 165.707 1.89156 -0.0408726 0
M  V30 1755 O 165.05 1.57239 0.949812 0
M  V30 1756 C 165.112 2.7781 -2.2817 0
M  V30 1757 C 164.776 2.59244 -3.76353 0
M  V30 1758 C 165.773 2.25292 -4.68551 0
M  V30 1759 C 163.458 2.74933 -4.20378 0
M  V30 1760 C 165.452 2.07264 -6.02761 0
M  V30 1761 C 163.139 2.56521 -5.54653 0
M  V30 1762 C 164.137 2.22737 -6.4566 0
M  V30 1763 O 163.825 2.04485 -7.77458 0
M  V30 1764 H 163.557 0.463842 -0.491759 0
M  V30 1765 H 166.111 0.865934 -1.86255 0
M  V30 1766 H 164.341 3.41995 -1.8049 0
M  V30 1767 H 166.03 3.39608 -2.22309 0
M  V30 1768 H 166.796 2.12787 -4.35829 0
M  V30 1769 H 162.675 3.00213 -3.49848 0
M  V30 1770 H 166.219 1.80817 -6.73759 0
M  V30 1771 H 162.116 2.68616 -5.86955 0
M  V30 1772 H 162.884 2.1926 -7.88586 0
M  V30 1773 O 165.586 1.37986 0.839172 0
M  V30 1774 H 166.277 1.24844 1.481 0
M  V30 END ATOM
M  V30 BEGIN BOND
M  V30 END BOND
M  V30 END CTAB
M  END
$$$$
