drugbank_target|P16473 Thyrotropin receptor (DB00024)
 OpenBabel12092119333D

  0  0  0     0  0            999 V3000
M  V30 BEGIN CTAB
M  V30 COUNTS 12255 12397 0 0 0
M  V30 BEGIN ATOM
M  V30 1 H -0.908 1.98254 -0.117106 0
M  V30 2 N 0 1.576 0 0
M  V30 3 C 0.933 2.03868 1.02534 0
M  V30 4 C 1.911 0.928543 1.3348 0
M  V30 5 O 3.095 1.19667 1.45644 0
M  V30 6 C 0.222 2.43627 2.35294 0
M  V30 7 C -0.732 3.65373 2.2001 0
M  V30 8 S 0.101 5.13292 1.52614 0
M  V30 9 C 1.257 5.56322 2.86805 0
M  V30 10 H 1.49 2.90518 0.631377 0
M  V30 11 H -0.977 1.52953 0.210867 0
M  V30 12 H 0.981 2.67203 3.11629 0
M  V30 13 H -0.358 1.57376 2.7183 0
M  V30 14 H -1.165 3.90944 3.18086 0
M  V30 15 H -1.563 3.418 1.51819 0
M  V30 16 H 0.729 5.58782 3.83104 0
M  V30 17 H 1.672 6.56266 2.65933 0
M  V30 18 H 2.08 4.83886 2.90714 0
M  V30 19 N 1.4781 -0.272755 1.55222 0
M  V30 20 C 2.8941 -0.619959 1.47067 0
M  V30 21 C 3.0941 -1.895 0.684978 0
M  V30 22 O 2.1501 -2.51675 0.203931 0
M  V30 23 C 3.4631 -0.746693 2.91282 0
M  V30 24 C 5.0111 -0.840731 3.01497 0
M  V30 25 C 5.4861 -0.99924 4.46967 0
M  V30 26 N 6.9771 -1.06476 4.50796 0
M  V30 27 C 7.7121 -1.20621 5.6057 0
M  V30 28 N 7.2081 -1.31483 6.80209 0
M  V30 29 N 9.0011 -1.23733 5.48312 0
M  V30 30 H 1.1521 0.564606 2.04758 0
M  V30 31 H 3.4151 0.191177 0.928523 0
M  V30 32 H 3.1211 0.119753 3.51496 0
M  V30 33 H 2.9951 -1.6269 3.40311 0
M  V30 34 H 5.3821 -1.69764 2.41379 0
M  V30 35 H 5.4631 0.0640874 2.5572 0
M  V30 36 H 5.1071 -0.146984 5.07687 0
M  V30 37 H 5.0371 -1.91871 4.90401 0
M  V30 38 H 7.5281 -0.993196 3.64615 0
M  V30 39 H 7.8411 -1.42111 7.59621 0
M  V30 40 H 6.1861 -1.28487 6.8302 0
M  V30 41 H 9.3771 -1.14877 4.53785 0
M  V30 42 H 9.5501 -1.34412 6.33906 0
M  V30 43 N 2.9562 -1.48159 -0.537278 0
M  V30 44 C 4.3672 -1.49429 -1.11928 0
M  V30 45 C 4.7182 -0.26 -1.9447 0
M  V30 46 O 3.8432 0.633489 -2.0692 0
M  V30 47 C 4.4382 -2.70758 -2.03656 0
M  V30 48 C 2.9972 -2.74923 -2.57088 0
M  V30 49 C 2.1442 -2.42835 -1.3389 0
M  V30 50 H 5.0952 -1.55381 -0.322886 0
M  V30 51 H 5.1162 -2.48861 -2.87834 0
M  V30 52 H 4.6282 -3.60575 -1.43553 0
M  V30 53 H 2.7292 -1.89296 -3.20933 0
M  V30 54 H 2.8422 -3.76157 -2.9672 0
M  V30 55 H 1.2062 -1.93836 -1.65226 0
M  V30 56 H 1.9892 -3.34884 -0.755504 0
M  V30 57 N 4.4343 0.785586 -1.36625 0
M  V30 58 C 5.3973 1.87999 -1.31107 0
M  V30 59 C 6.3973 1.59316 -0.217959 0
M  V30 60 O 7.5873 1.67656 -0.472977 0
M  V30 61 C 4.7193 3.24861 -1.03334 0
M  V30 62 H 5.9123 1.94307 -2.2844 0
M  V30 63 H 3.4653 0.983813 -1.21453 0
M  V30 64 H 4.2003 3.24235 -0.0647432 0
M  V30 65 H 3.9853 3.4707 -1.82441 0
M  V30 66 H 5.4753 4.04929 -1.02088 0
M  V30 67 N 5.9124 1.20967 1.01018 0
M  V30 68 C 7.1894 0.93264 1.71934 0
M  V30 69 C 7.5694 -0.55692 2.03621 0
M  V30 70 O 6.9174 -1.52035 1.7058 0
M  V30 71 C 7.1274 1.81233 2.98254 0
M  V30 72 C 8.4754 2.05804 3.71389 0
M  V30 73 O 9.4994 1.78539 3.08225 0
M  V30 74 O 8.3584 2.51888 4.84989 0
M  V30 75 H 5.4524 0.349272 0.749625 0
M  V30 76 H 7.9984 1.31871 1.06808 0
M  V30 77 H 6.7704 2.82067 2.71208 0
M  V30 78 H 6.3934 1.42674 3.7112 0
M  V30 79 N 7.3905 -1.2043 1.01659 0
M  V30 80 C 8.3205 -2.25466 0.607226 0
M  V30 81 C 9.3015 -1.65853 -0.377716 0
M  V30 82 O 10.4865 -1.92409 -0.263149 0
M  V30 83 C 7.6165 -3.47256 -0.0552949 0
M  V30 84 C 6.5705 -4.19462 0.850632 0
M  V30 85 C 5.8965 -5.34673 0.0538859 0
M  V30 86 C 7.1965 -4.75603 2.15868 0
M  V30 87 H 8.8905 -2.59962 1.48526 0
M  V30 88 H 6.4365 -1.2496 0.715605 0
M  V30 89 H 8.3895 -4.19917 -0.353233 0
M  V30 90 H 7.1135 -3.11924 -0.968045 0
M  V30 91 H 5.7725 -3.48667 1.13257 0
M  V30 92 H 5.4205 -4.95585 -0.860514 0
M  V30 93 H 5.1205 -5.83913 0.657192 0
M  V30 94 H 6.6445 -6.10138 -0.237598 0
M  V30 95 H 8.0585 -5.40083 1.92311 0
M  V30 96 H 6.4555 -5.3528 2.71284 0
M  V30 97 H 7.5255 -3.94346 2.82169 0
M  V30 98 N 8.8686 -0.792821 -1.36206 0
M  V30 99 C 9.7986 -0.207853 -2.32573 0
M  V30 100 C 10.7796 0.659055 -1.56813 0
M  V30 101 O 11.9646 0.592176 -1.84951 0
M  V30 102 C 9.0946 0.655449 -3.41059 0
M  V30 103 C 8.0486 -0.111842 -4.27854 0
M  V30 104 C 7.3746 0.872274 -5.27537 0
M  V30 105 C 8.6746 -1.30299 -5.05786 0
M  V30 106 H 10.3686 -1.01294 -2.81744 0
M  V30 107 H 7.9146 -0.48854 -1.3546 0
M  V30 108 H 9.8676 1.07464 -4.07467 0
M  V30 109 H 8.5916 1.49328 -2.90463 0
M  V30 110 H 7.2506 -0.512053 -3.63006 0
M  V30 111 H 6.8986 1.70523 -4.73214 0
M  V30 112 H 6.5986 0.363291 -5.86476 0
M  V30 113 H 8.1226 1.28996 -5.96818 0
M  V30 114 H 9.5366 -0.959379 -5.65216 0
M  V30 115 H 7.9336 -1.7455 -5.74154 0
M  V30 116 H 9.0036 -2.09663 -4.37229 0
M  V30 117 N 10.3467 1.47872 -0.545128 0
M  V30 118 C 11.2787 2.27869 0.246621 0
M  V30 119 C 12.2917 1.36282 0.890561 0
M  V30 120 O 13.4807 1.61207 0.766449 0
M  V30 121 C 10.5807 3.10159 1.36582 0
M  V30 122 C 9.7537 4.29627 0.820954 0
M  V30 123 C 8.8127 4.93607 1.82314 0
M  V30 124 O 7.8387 5.52366 1.37406 0
M  V30 125 N 9.0407 4.87211 3.15603 0
M  V30 126 H 11.8057 2.96459 -0.439539 0
M  V30 127 H 9.3667 1.57367 -0.380421 0
M  V30 128 H 11.3587 3.49829 2.03474 0
M  V30 129 H 9.9287 2.43891 1.9554 0
M  V30 130 H 9.1487 3.94192 -0.0244032 0
M  V30 131 H 10.4367 5.06928 0.436063 0
M  V30 132 H 9.8347 4.40651 3.54744 0
M  V30 133 H 8.3917 5.30937 3.78087 0
M  V30 134 N 11.8248 0.280983 1.55075 0
M  V30 135 C 12.7548 -0.597469 2.25727 0
M  V30 136 C 13.7358 -1.15417 1.24952 0
M  V30 137 O 14.9208 -1.18722 1.53684 0
M  V30 138 C 12.0508 -1.7789 2.98283 0
M  V30 139 C 11.0048 -1.35347 4.06036 0
M  V30 140 C 10.3308 -2.61846 4.66198 0
M  V30 141 C 11.6308 -0.499354 5.19907 0
M  V30 142 H 13.3248 -0.00824265 2.99399 0
M  V30 143 H 10.8708 -0.0025244 1.44 0
M  V30 144 H 12.8238 -2.39937 3.46422 0
M  V30 145 H 11.5478 -2.39405 2.22155 0
M  V30 146 H 10.2068 -0.756156 3.58717 0
M  V30 147 H 9.8548 -3.21632 3.86732 0
M  V30 148 H 9.5548 -2.3409 5.38958 0
M  V30 149 H 11.0788 -3.24732 5.1709 0
M  V30 150 H 12.4928 -1.02498 5.64063 0
M  V30 151 H 10.8898 -0.316424 5.99265 0
M  V30 152 H 11.9598 0.480459 4.82514 0
M  V30 153 N 13.3029 -1.57598 0.00835791 0
M  V30 154 C 14.5489 -1.91211 -0.675732 0
M  V30 155 C 14.8819 -0.883139 -1.72958 0
M  V30 156 O 14.1569 0.097016 -1.94258 0
M  V30 157 C 14.4399 -3.35379 -1.31123 0
M  V30 158 C 14.2929 -4.48999 -0.268356 0
M  V30 159 C 15.6119 -3.7912 -2.23508 0
M  V30 160 H 12.7309 -0.695374 -0.244179 0
M  V30 161 H 15.3729 -1.89901 0.0613655 0
M  V30 162 H 13.5229 -3.36626 -1.93946 0
M  V30 163 H 15.1949 -4.59887 0.360844 0
M  V30 164 H 13.4379 -4.31873 0.408482 0
M  V30 165 H 14.1089 -5.46851 -0.752218 0
M  V30 166 H 16.5849 -3.79477 -1.70693 0
M  V30 167 H 15.4609 -4.80729 -2.64936 0
M  V30 168 H 15.7219 -3.13455 -3.11766 0
M  V30 169 N 14.781 0.264519 -1.55364 0
M  V30 170 C 15.711 1.33121 -1.91836 0
M  V30 171 C 16.692 1.51101 -0.781192 0
M  V30 172 O 17.877 1.64003 -1.04003 0
M  V30 173 C 15.007 2.68921 -2.19769 0
M  V30 174 C 13.961 2.65661 -3.35571 0
M  V30 175 C 13.287 4.05093 -3.49004 0
M  V30 176 C 14.587 2.24187 -4.71739 0
M  V30 177 H 16.281 1.02844 -2.81182 0
M  V30 178 H 13.827 0.493286 -1.35287 0
M  V30 179 H 15.78 3.43663 -2.43872 0
M  V30 180 H 14.504 3.00799 -1.27231 0
M  V30 181 H 13.163 1.93377 -3.1145 0
M  V30 182 H 12.811 4.34206 -2.53917 0
M  V30 183 H 12.511 4.03804 -4.26868 0
M  V30 184 H 14.035 4.81561 -3.75408 0
M  V30 185 H 15.449 2.88654 -4.9533 0
M  V30 186 H 13.846 2.34044 -5.52579 0
M  V30 187 H 14.916 1.19327 -4.69988 0
M  V30 188 N 16.2591 1.48442 0.529413 0
M  V30 189 C 17.1891 1.65902 1.64313 0
M  V30 190 C 18.1701 0.507897 1.6234 0
M  V30 191 O 19.3551 0.740503 1.79528 0
M  V30 192 C 16.4851 1.69911 3.02898 0
M  V30 193 C 15.4391 2.8453 3.19729 0
M  V30 194 C 14.7651 2.73629 4.59381 0
M  V30 195 C 16.0651 4.25821 3.02447 0
M  V30 196 H 17.7591 2.5914 1.49955 0
M  V30 197 H 15.3051 1.24709 0.719982 0
M  V30 198 H 17.2581 1.80715 3.80684 0
M  V30 199 H 15.9821 0.732524 3.18279 0
M  V30 200 H 14.6411 2.73283 2.44361 0
M  V30 201 H 14.2891 1.74938 4.71599 0
M  V30 202 H 13.9891 3.50541 4.71588 0
M  V30 203 H 15.5131 2.86401 5.39265 0
M  V30 204 H 16.9271 4.37898 3.70024 0
M  V30 205 H 15.3241 5.03735 3.26146 0
M  V30 206 H 16.3941 4.42244 1.98867 0
M  V30 207 N 17.7372 -0.778329 1.37039 0
M  V30 208 C 18.6672 -1.90546 1.34962 0
M  V30 209 C 19.6482 -1.68681 0.219274 0
M  V30 210 O 20.8332 -1.89634 0.418624 0
M  V30 211 C 17.9632 -3.27734 1.14925 0
M  V30 212 C 16.9172 -3.64147 2.24902 0
M  V30 213 C 16.2432 -4.99806 1.89996 0
M  V30 214 C 17.5432 -3.71579 3.67051 0
M  V30 215 H 19.2372 -1.92541 2.29277 0
M  V30 216 H 16.7832 -0.924948 1.10366 0
M  V30 217 H 18.7362 -4.06215 1.12104 0
M  V30 218 H 17.4602 -3.26154 0.170631 0
M  V30 219 H 16.1192 -2.8797 2.26868 0
M  V30 220 H 15.7672 -4.94759 0.906796 0
M  V30 221 H 15.4672 -5.25139 2.63634 0
M  V30 222 H 16.9912 -5.80694 1.88749 0
M  V30 223 H 18.4052 -4.40227 3.67251 0
M  V30 224 H 16.8022 -4.08405 4.39688 0
M  V30 225 H 17.8722 -2.72404 4.01154 0
M  V30 226 N 19.2153 -1.21501 -1.00376 0
M  V30 227 C 20.4923 -0.941745 -1.71437 0
M  V30 228 C 20.8723 0.546114 -2.03914 0
M  V30 229 O 20.2203 1.51128 -1.71384 0
M  V30 230 C 20.4303 -1.82812 -2.97289 0
M  V30 231 C 21.7783 -2.07771 -3.70292 0
M  V30 232 O 22.8023 -1.80171 -3.07273 0
M  V30 233 O 21.6613 -2.54456 -4.83647 0
M  V30 234 H 18.7553 -0.353243 -0.747762 0
M  V30 235 H 21.3013 -1.32436 -1.06108 0
M  V30 236 H 20.0733 -2.83501 -2.69709 0
M  V30 237 H 19.6963 -1.4464 -3.70358 0
M  V30 238 N 20.6934 1.19889 -1.02296 0
M  V30 239 C 21.6234 2.25141 -0.619174 0
M  V30 240 C 22.6044 1.66051 0.368915 0
M  V30 241 O 23.7894 1.92546 0.252941 0
M  V30 242 C 20.9194 3.4728 0.0368783 0
M  V30 243 C 19.8734 4.19005 -0.872865 0
M  V30 244 C 19.1994 5.34637 -0.0822402 0
M  V30 245 C 20.4994 4.74452 -2.18387 0
M  V30 246 H 22.1934 2.59171 -1.49903 0
M  V30 247 H 19.7394 1.24579 -0.722222 0
M  V30 248 H 21.6924 4.20098 0.330958 0
M  V30 249 H 20.4164 3.12433 0.95149 0
M  V30 250 H 19.0754 3.48061 -1.15105 0
M  V30 251 H 18.7234 4.96034 0.83422 0
M  V30 252 H 18.4234 5.83557 -0.688149 0
M  V30 253 H 19.9474 6.10255 0.205238 0
M  V30 254 H 21.3614 5.39055 -1.95172 0
M  V30 255 H 19.7584 5.33834 -2.74119 0
M  V30 256 H 20.8284 3.92844 -2.84257 0
M  V30 257 N 22.1715 0.800033 1.35784 0
M  V30 258 C 23.5825 0.439142 1.81462 0
M  V30 259 C 23.9335 -1.03813 1.66485 0
M  V30 260 O 23.0585 -1.80626 1.19177 0
M  V30 261 C 23.6535 0.790314 3.29453 0
M  V30 262 C 22.2125 0.482111 3.733 0
M  V30 263 C 21.3595 1.01938 2.57883 0
M  V30 264 H 24.3105 0.992254 1.23855 0
M  V30 265 H 24.3315 0.0853677 3.80404 0
M  V30 266 H 23.8435 1.86554 3.40322 0
M  V30 267 H 21.9445 -0.584652 3.67984 0
M  V30 268 H 22.0575 1.01015 4.6833 0
M  V30 269 H 20.4215 0.442043 2.50835 0
M  V30 270 H 21.2045 2.10059 2.71533 0
M  V30 271 N 23.6496 -1.47581 0.552962 0
M  V30 272 C 25.0656 -1.5818 0.212424 0
M  V30 273 C 25.2656 -1.55213 -1.28496 0
M  V30 274 O 24.3216 -1.45329 -2.06484 0
M  V30 275 C 25.6346 -2.88865 0.835318 0
M  V30 276 C 27.1826 -3.0244 0.806156 0
M  V30 277 C 27.6576 -4.35819 1.40804 0
M  V30 278 N 29.1486 -4.42444 1.37103 0
M  V30 279 C 29.8836 -5.44202 1.80641 0
M  V30 280 N 29.3796 -6.52795 2.32015 0
M  V30 281 N 31.1726 -5.35222 1.71738 0
M  V30 282 H 23.3236 -1.47753 1.52587 0
M  V30 283 H 25.5866 -0.702941 0.636064 0
M  V30 284 H 25.2926 -2.9676 1.88749 0
M  V30 285 H 25.1666 -3.7579 0.325848 0
M  V30 286 H 27.5536 -2.94144 -0.237317 0
M  V30 287 H 27.6346 -2.17068 1.35334 0
M  V30 288 H 27.2786 -4.44871 2.45056 0
M  V30 289 H 27.2086 -5.19916 0.836338 0
M  V30 290 H 29.6996 -3.6456 0.995202 0
M  V30 291 H 30.0126 -7.26609 2.63171 0
M  V30 292 H 28.3576 -6.53696 2.36023 0
M  V30 293 H 31.5486 -4.49284 1.31382 0
M  V30 294 H 31.7216 -6.14389 2.05987 0
M  V30 295 N 25.1277 -0.289203 -1.54924 0
M  V30 296 C 26.4047 0.376032 -1.91951 0
M  V30 297 C 26.7847 1.72622 -1.21511 0
M  V30 298 O 26.1327 2.25853 -0.346767 0
M  V30 299 C 26.3427 0.502378 -3.45365 0
M  V30 300 C 27.6907 0.778741 -4.17398 0
M  V30 301 O 28.7147 0.586647 -3.51336 0
M  V30 302 O 27.5737 1.14698 -5.34328 0
M  V30 303 H 24.6677 0.208167 -0.800372 0
M  V30 304 H 27.2137 -0.336394 -1.66332 0
M  V30 305 H 25.9857 -0.447255 -3.88736 0
M  V30 306 H 25.6087 1.26373 -3.76982 0
M  V30 307 N 26.6058 1.57591 -0.0167156 0
M  V30 308 C 27.5358 2.12496 0.967858 0
M  V30 309 C 28.5168 1.03807 1.34752 0
M  V30 310 O 29.7018 1.31577 1.42833 0
M  V30 311 C 26.8318 2.64194 2.25431 0
M  V30 312 C 25.7858 3.77559 2.01576 0
M  V30 313 C 25.1118 4.15636 3.36379 0
M  V30 314 C 26.4118 5.04151 1.36489 0
M  V30 315 H 28.1058 2.95013 0.510643 0
M  V30 316 H 25.6518 1.41915 0.244181 0
M  V30 317 H 27.6048 3.01236 2.94678 0
M  V30 318 H 26.3288 1.78821 2.73296 0
M  V30 319 H 24.9878 3.40937 1.34751 0
M  V30 320 H 24.6358 3.27263 3.81979 0
M  V30 321 H 24.3358 4.92022 3.21229 0
M  V30 322 H 25.8598 4.5525 4.06915 0
M  V30 323 H 27.2738 5.38857 1.95718 0
M  V30 324 H 25.6708 5.85453 1.31776 0
M  V30 325 H 26.7408 4.83733 0.336219 0
M  V30 326 N 28.0839 -0.256276 1.55502 0
M  V30 327 C 29.3319 -0.983672 1.76545 0
M  V30 328 C 29.6529 -1.86206 0.578982 0
M  V30 329 O 28.9229 -1.91656 -0.405577 0
M  V30 330 H 27.5029 -0.366191 0.651086 0
M  V30 331 H 30.1649 -0.276479 1.92929 0
M  V30 332 H 29.2609 -1.61087 2.67315 0
M  V30 333 N 29.562 -1.4872 -0.521534 0
M  V30 334 C 30.81 -1.56857 -1.27437 0
M  V30 335 C 31.131 -0.247982 -1.93417 0
M  V30 336 O 30.401 0.731151 -1.81744 0
M  V30 337 H 28.981 -0.577885 -0.473347 0
M  V30 338 H 31.643 -1.85233 -0.606205 0
M  V30 339 H 30.739 -2.35402 -2.0492 0
M  V30 340 N 31.0401 0.771051 -1.3745 0
M  V30 341 C 31.9731 1.89166 -1.27638 0
M  V30 342 C 32.9511 1.61842 -0.156782 0
M  V30 343 O 34.1351 1.85569 -0.331111 0
M  V30 344 C 31.2621 3.24405 -0.973621 0
M  V30 345 C 30.3081 3.70638 -2.1102 0
M  V30 346 S 31.1411 3.84228 -3.73 0
M  V30 347 C 32.2971 5.22313 -3.44876 0
M  V30 348 H 32.5301 1.972 -2.22485 0
M  V30 349 H 30.0631 0.932224 -1.23081 0
M  V30 350 H 32.0211 4.02514 -0.805766 0
M  V30 351 H 30.6821 3.14071 -0.0426279 0
M  V30 352 H 29.8751 4.68685 -1.85338 0
M  V30 353 H 29.4771 2.99632 -2.23822 0
M  V30 354 H 31.7691 6.07505 -2.99908 0
M  V30 355 H 32.7121 5.53008 -4.42253 0
M  V30 356 H 33.1201 4.90284 -2.79789 0
M  V30 357 N 32.5182 1.22032 0.997298 0
M  V30 358 C 33.7662 1.04016 1.73278 0
M  V30 359 C 34.0872 -0.426255 1.90284 0
M  V30 360 O 33.3572 -1.30694 1.45931 0
M  V30 361 H 31.9372 0.381897 0.642 0
M  V30 362 H 34.5992 1.5347 1.20137 0
M  V30 363 H 33.6952 1.51441 2.72896 0
M  V30 364 N 33.9963 -1.19345 1.0293 0
M  V30 365 C 35.2363 -1.90738 0.734727 0
M  V30 366 C 35.6003 -1.7785 -0.723414 0
M  V30 367 O 36.8013 -2.43844 -1.13108 0
M  V30 368 C 35.0723 -3.37569 1.17396 0
M  V30 369 S 36.6313 -4.27176 1.00329 0
M  V30 370 H 33.4493 -0.658771 0.267474 0
M  V30 371 H 36.0513 -1.4428 1.31922 0
M  V30 372 H 34.7553 -3.44475 2.23081 0
M  V30 373 H 34.2863 -3.8906 0.582772 0
M  V30 374 H 36.3013 -4.96126 -0.0859152 0
M  V30 375 N 35.4744 -0.807222 -1.35358 0
M  V30 376 C 36.6994 -0.399309 -2.0352 0
M  V30 377 C 37.1244 0.981986 -1.60433 0
M  V30 378 O 36.4824 1.63601 -0.781299 0
M  V30 379 C 36.5304 -0.491552 -3.57234 0
M  V30 380 O 35.6344 0.494754 -4.09421 0
M  V30 381 H 34.9754 -0.166682 -0.642739 0
M  V30 382 H 37.5054 -1.09328 -1.72941 0
M  V30 383 H 37.5154 -0.361588 -4.06395 0
M  V30 384 H 36.1904 -1.49907 -3.87944 0
M  V30 385 H 34.7674 0.324977 -3.71481 0
M  V30 386 N 36.9525 1.47285 -0.560781 0
M  V30 387 C 38.1775 2.07359 -0.0410566 0
M  V30 388 C 38.6025 1.41017 1.24483 0
M  V30 389 O 37.9605 0.486368 1.74654 0
M  V30 390 C 38.0085 3.6035 0.134123 0
M  V30 391 O 37.1125 3.94681 1.19587 0
M  V30 392 H 36.4535 0.661887 -0.0529291 0
M  V30 393 H 38.9835 1.89252 -0.777482 0
M  V30 394 H 38.9935 4.0652 0.347207 0
M  V30 395 H 37.6685 4.08034 -0.805047 0
M  V30 396 H 36.2455 3.60251 0.962987 0
M  V30 397 N 38.4306 0.297415 1.54768 0
M  V30 398 C 39.8416 -0.195947 1.85669 0
M  V30 399 C 40.1926 -1.53707 1.21937 0
M  V30 400 O 39.3176 -2.10164 0.515754 0
M  V30 401 C 39.9126 -0.362318 3.36857 0
M  V30 402 C 38.4716 -0.799901 3.67802 0
M  V30 403 C 37.6186 0.0938578 2.77141 0
M  V30 404 H 40.5696 0.518538 1.4999 0
M  V30 405 H 40.5906 -1.19745 3.61167 0
M  V30 406 H 40.1026 0.613921 3.83214 0
M  V30 407 H 38.2036 -1.78682 3.26961 0
M  V30 408 H 38.3166 -0.621773 4.75048 0
M  V30 409 H 36.6806 -0.426254 2.51108 0
M  V30 410 H 37.4636 1.06639 3.26318 0
M  V30 411 N 39.9087 -1.5758 0.0250728 0
M  V30 412 C 41.3197 -1.79476 -0.514323 0
M  V30 413 C 41.6707 -0.934956 -1.72491 0
M  V30 414 O 40.7957 -0.144245 -2.15919 0
M  V30 415 C 41.3907 -3.25503 -0.939842 0
M  V30 416 C 39.9497 -3.48408 -1.42438 0
M  V30 417 C 39.0967 -2.74583 -0.387201 0
M  V30 418 H 42.0477 -1.567 0.25113 0
M  V30 419 H 42.0687 -3.34992 -1.80445 0
M  V30 420 H 41.5807 -3.88056 -0.0585628 0
M  V30 421 H 39.6817 -2.91103 -2.32572 0
M  V30 422 H 39.7947 -4.57119 -1.43455 0
M  V30 423 H 38.1587 -2.39942 -0.854409 0
M  V30 424 H 38.9417 -3.39849 0.485543 0
M  V30 425 N 41.3868 0.248026 -1.55636 0
M  V30 426 C 42.6268 0.983592 -1.79178 0
M  V30 427 C 42.9908 1.82567 -0.594414 0
M  V30 428 O 44.1918 2.59292 -0.708583 0
M  V30 429 C 42.4628 1.82228 -3.07454 0
M  V30 430 S 44.0218 2.61709 -3.52213 0
M  V30 431 H 40.8398 0.330866 -0.629324 0
M  V30 432 H 43.4418 0.251562 -1.93875 0
M  V30 433 H 42.1458 1.19333 -3.92668 0
M  V30 434 H 41.6768 2.59708 -2.95492 0
M  V30 435 H 43.6918 3.84655 -3.13457 0
M  V30 436 N 42.8649 1.48995 0.513639 0
M  V30 437 C 43.7749 1.67443 1.64317 0
M  V30 438 C 44.7909 0.556947 1.64846 0
M  V30 439 O 45.9669 0.830082 1.83498 0
M  V30 440 C 43.0319 1.72515 3.00732 0
M  V30 441 C 42.0929 2.96009 3.1093 0
M  V30 442 C 41.3259 3.00829 4.40837 0
M  V30 443 O 41.5489 2.13594 5.28898 0
M  V30 444 O 40.4829 3.93168 4.55744 0
M  V30 445 H 44.3089 2.63106 1.51687 0
M  V30 446 H 41.8939 1.32588 0.688543 0
M  V30 447 H 43.7759 1.78277 3.81831 0
M  V30 448 H 42.4509 0.800278 3.13651 0
M  V30 449 H 41.3579 2.9577 2.29065 0
M  V30 450 H 42.6909 3.87934 3.02933 0
M  V30 451 N 44.343 -0.763751 1.37857 0
M  V30 452 C 45.583 -1.53551 1.34913 0
M  V30 453 C 45.947 -1.91895 -0.0635882 0
M  V30 454 O 47.148 -2.67916 -0.217825 0
M  V30 455 C 45.419 -2.76126 2.26912 0
M  V30 456 S 46.978 -3.66105 2.41893 0
M  V30 457 H 43.796 -0.52559 0.478828 0
M  V30 458 H 46.398 -0.897435 1.73685 0
M  V30 459 H 45.102 -2.4605 3.28463 0
M  V30 460 H 44.633 -3.44887 1.89253 0
M  V30 461 H 46.648 -4.68473 1.63545 0
M  V30 462 N 45.8211 -1.22559 -0.990812 0
M  V30 463 C 46.7711 -0.964807 -2.0658 0
M  V30 464 C 47.7551 0.0853472 -1.60673 0
M  V30 465 O 48.9471 -0.125443 -1.76555 0
M  V30 466 C 46.0761 -0.546707 -3.38919 0
M  V30 467 C 45.1621 -1.6317 -3.91454 0
M  V30 468 N 45.5531 -2.85985 -4.17189 0
M  V30 469 C 43.8511 -1.50387 -4.19881 0
M  V30 470 C 44.5521 -3.56159 -4.59919 0
M  V30 471 N 43.5281 -2.83637 -4.63736 0
M  V30 472 H 47.3301 -1.89769 -2.24421 0
M  V30 473 H 44.8441 -1.12343 -1.17273 0
M  V30 474 H 46.8411 -0.34119 -4.15502 0
M  V30 475 H 45.5011 0.379254 -3.22478 0
M  V30 476 H 46.5121 -3.22392 -4.05319 0
M  V30 477 H 43.1891 -0.644254 -4.12499 0
M  V30 478 H 44.5791 -4.6139 -4.88435 0
M  V30 479 N 47.2992 1.18797 -1.03562 0
M  V30 480 C 48.2312 2.21731 -0.580337 0
M  V30 481 C 49.2442 1.59051 0.347349 0
M  V30 482 O 50.4332 1.77929 0.142669 0
M  V30 483 C 47.5332 3.38459 0.172805 0
M  V30 484 C 46.7062 4.3072 -0.761496 0
M  V30 485 C 45.7652 5.26174 -0.0525547 0
M  V30 486 O 44.7912 5.65108 -0.681333 0
M  V30 487 N 45.9932 5.67624 1.21586 0
M  V30 488 H 48.7582 2.61417 -1.46565 0
M  V30 489 H 46.3192 1.33531 -0.915476 0
M  V30 490 H 48.3112 3.99335 0.656793 0
M  V30 491 H 46.8812 2.97507 0.959602 0
M  V30 492 H 46.1012 3.67525 -1.42544 0
M  V30 493 H 47.3892 4.89267 -1.39626 0
M  V30 494 H 46.7872 5.38038 1.74732 0
M  V30 495 H 45.3442 6.30721 1.64421 0
M  V30 496 N 48.7773 0.814389 1.34928 0
M  V30 497 C 49.6873 0.231978 2.3345 0
M  V30 498 C 50.7033 -0.629139 1.62228 0
M  V30 499 O 51.8793 -0.539052 1.94052 0
M  V30 500 C 48.9443 -0.603482 3.41407 0
M  V30 501 C 48.0053 0.279037 4.28392 0
M  V30 502 C 47.2383 -0.516643 5.31193 0
M  V30 503 O 47.4613 -1.75068 5.4287 0
M  V30 504 O 46.3953 0.0965652 6.01823 0
M  V30 505 H 50.2213 1.04721 2.85074 0
M  V30 506 H 47.8063 0.576343 1.37836 0
M  V30 507 H 49.6883 -1.07908 4.0735 0
M  V30 508 H 48.3633 -1.39618 2.92042 0
M  V30 509 H 47.2703 0.801948 3.65403 0
M  V30 510 H 48.6033 1.03588 4.81176 0
M  V30 511 N 50.2554 -1.46986 0.568584 0
M  V30 512 C 51.1654 -2.33942 -0.17555 0
M  V30 513 C 52.1814 -1.48891 -0.90041 0
M  V30 514 O 53.3574 -1.81794 -0.86676 0
M  V30 515 C 50.4224 -3.25811 -1.18524 0
M  V30 516 C 49.4834 -4.26757 -0.466582 0
M  V30 517 C 48.7164 -5.14236 -1.42817 0
M  V30 518 O 48.9394 -5.04379 -2.66379 0
M  V30 519 O 47.8734 -5.94412 -0.946453 0
M  V30 520 H 51.6994 -2.98896 0.538036 0
M  V30 521 H 49.2844 -1.4573 0.329097 0
M  V30 522 H 51.1664 -3.82527 -1.76779 0
M  V30 523 H 49.8414 -2.63471 -1.88055 0
M  V30 524 H 48.7484 -3.73769 0.157451 0
M  V30 525 H 50.0814 -4.91843 0.187485 0
M  V30 526 N 51.7335 -0.305618 -1.54608 0
M  V30 527 C 53.0105 0.355652 -1.92339 0
M  V30 528 C 53.3905 1.71324 -1.23335 0
M  V30 529 O 52.7385 2.25473 -0.370702 0
M  V30 530 C 52.9485 0.46572 -3.45879 0
M  V30 531 C 54.2965 0.734426 -4.182 0
M  V30 532 O 55.3205 0.54935 -3.51938 0
M  V30 533 O 54.1795 1.09024 -5.35515 0
M  V30 534 H 51.2735 0.199666 -0.802535 0
M  V30 535 H 53.8195 -0.354017 -1.65966 0
M  V30 536 H 52.5915 -0.488461 -3.88239 0
M  V30 537 H 52.2145 1.22367 -3.78301 0
M  V30 538 N 53.2116 1.57565 -0.0334293 0
M  V30 539 C 54.4586 1.91978 0.644272 0
M  V30 540 C 54.7866 0.910231 1.71887 0
M  V30 541 O 54.0416 -0.0801961 1.95536 0
M  V30 542 C 54.3406 3.33112 1.29504 0
M  V30 543 C 54.0066 4.49537 0.350388 0
M  V30 544 C 52.6686 4.81115 0.0903974 0
M  V30 545 C 55.0206 5.20347 -0.298032 0
M  V30 546 C 52.3486 5.8086 -0.825746 0
M  V30 547 C 54.7006 6.2107 -1.20226 0
M  V30 548 C 53.3646 6.51088 -1.4711 0
M  V30 549 H 52.6346 0.702496 0.235756 0
M  V30 550 H 55.2816 1.91259 -0.0961176 0
M  V30 551 H 53.5866 3.30113 2.11028 0
M  V30 552 H 55.2836 3.57011 1.82603 0
M  V30 553 H 51.8736 4.24883 0.563205 0
M  V30 554 H 56.0576 4.96178 -0.110234 0
M  V30 555 H 51.3136 6.02461 -1.04169 0
M  V30 556 H 55.4876 6.75057 -1.71086 0
M  V30 557 H 53.1146 7.28193 -2.18264 0
M  V30 558 N 54.6897 -0.239769 1.55765 0
M  V30 559 C 56.1057 -0.588624 1.48349 0
M  V30 560 C 56.3057 -1.88005 0.72502 0
M  V30 561 O 55.3617 -2.51186 0.257269 0
M  V30 562 C 56.6747 -0.68474 2.928 0
M  V30 563 C 58.2227 -0.77659 3.03213 0
M  V30 564 C 58.6977 -0.904207 4.48986 0
M  V30 565 N 60.1887 -0.968896 4.52953 0
M  V30 566 C 60.9237 -1.08703 5.63002 0
M  V30 567 N 60.4197 -1.17026 6.82845 0
M  V30 568 N 62.2127 -1.12074 5.50814 0
M  V30 569 H 54.3637 0.607911 2.03515 0
M  V30 570 H 56.6267 0.21083 0.924259 0
M  V30 571 H 56.3327 0.194284 3.51163 0
M  V30 572 H 56.2067 -1.55435 3.43686 0
M  V30 573 H 58.5937 -1.64606 2.44926 0
M  V30 574 H 58.6747 0.118315 2.55526 0
M  V30 575 H 58.3187 -0.0392633 5.07885 0
M  V30 576 H 58.2487 -1.81426 4.9436 0
M  V30 577 H 60.7397 -0.915633 3.6664 0
M  V30 578 H 61.0527 -1.25966 7.62465 0
M  V30 579 H 59.3977 -1.13971 6.85591 0
M  V30 580 H 62.5887 -1.05226 4.5612 0
M  V30 581 H 62.7617 -1.20936 6.36615 0
M  V30 582 N 56.1678 -1.49265 -0.50573 0
M  V30 583 C 57.4138 -1.58748 -1.26202 0
M  V30 584 C 57.7468 -0.271227 -1.92297 0
M  V30 585 O 57.0218 0.724831 -1.80489 0
M  V30 586 C 57.3048 -2.74332 -2.33268 0
M  V30 587 C 57.1578 -4.15737 -1.71705 0
M  V30 588 C 58.4768 -2.85576 -3.34865 0
M  V30 589 H 55.5958 -0.577826 -0.457478 0
M  V30 590 H 58.2378 -1.81532 -0.560897 0
M  V30 591 H 56.3878 -2.55036 -2.93068 0
M  V30 592 H 58.0598 -4.46537 -1.15769 0
M  V30 593 H 56.3028 -4.21605 -1.02135 0
M  V30 594 H 56.9738 -4.92477 -2.49341 0
M  V30 595 H 59.4498 -3.03127 -2.8505 0
M  V30 596 H 58.3258 -3.68135 -4.07146 0
M  V30 597 H 58.5868 -1.94732 -3.96903 0
M  V30 598 N 57.6459 0.756429 -1.3826 0
M  V30 599 C 58.8739 1.54565 -1.3754 0
M  V30 600 C 59.2889 1.88767 0.0355331 0
M  V30 601 O 58.6459 1.52572 1.0014 0
M  V30 602 C 58.6969 2.84654 -2.22833 0
M  V30 603 O 58.4179 2.51912 -3.5843 0
M  V30 604 C 59.9189 3.78807 -2.30261 0
M  V30 605 H 57.1389 0.478353 -0.470553 0
M  V30 606 H 59.6829 0.936381 -1.81803 0
M  V30 607 H 57.8379 3.41965 -1.8204 0
M  V30 608 H 58.2519 3.35325 -4.03308 0
M  V30 609 H 59.7259 4.67045 -2.94233 0
M  V30 610 H 60.2029 4.19038 -1.31545 0
M  V30 611 H 60.8089 3.2742 -2.71433 0
M  V30 612 N 59.124 1.23083 0.984299 0
M  V30 613 C 60.364 1.07226 1.74017 0
M  V30 614 C 60.728 -0.384766 1.88105 0
M  V30 615 O 61.929 -0.664411 2.60459 0
M  V30 616 C 60.2 1.77348 3.10294 0
M  V30 617 S 61.759 1.77014 4.01512 0
M  V30 618 H 58.577 0.383819 0.598502 0
M  V30 619 H 61.179 1.56158 1.17622 0
M  V30 620 H 59.883 2.82506 2.97689 0
M  V30 621 H 59.414 1.28682 3.71759 0
M  V30 622 H 61.429 0.825956 4.89277 0
M  V30 623 N 60.6021 -1.18246 1.0419 0
M  V30 624 C 61.5491 -2.2192 0.634037 0
M  V30 625 C 62.5191 -1.62179 -0.358765 0
M  V30 626 O 63.7041 -1.89122 -0.252466 0
M  V30 627 C 60.8441 -3.451 0.00445535 0
M  V30 628 C 59.9571 -4.19174 1.04487 0
M  V30 629 C 59.0921 -5.29813 0.383676 0
M  V30 630 C 58.1311 -5.9566 1.4091 0
M  V30 631 N 57.2681 -6.97834 0.772784 0
M  V30 632 H 62.1081 -2.56164 1.52263 0
M  V30 633 H 59.6451 -1.25843 0.761701 0
M  V30 634 H 61.6031 -4.15485 -0.377919 0
M  V30 635 H 60.2331 -3.11472 -0.847652 0
M  V30 636 H 59.2851 -3.47604 1.54518 0
M  V30 637 H 60.5971 -4.64267 1.82368 0
M  V30 638 H 59.7511 -6.06677 -0.0528366 0
M  V30 639 H 58.4901 -4.85825 -0.427208 0
M  V30 640 H 57.4951 -5.17535 1.85574 0
M  V30 641 H 58.7201 -6.4173 2.22171 0
M  V30 642 H 56.6661 -6.55998 -0.0177708 0
M  V30 643 H 56.5831 -7.41186 1.48928 0
M  V30 644 H 57.8511 -7.78665 0.36071 0
M  V30 645 N 62.0802 -0.821533 -1.34494 0
M  V30 646 C 63.3572 -0.33159 -1.92769 0
M  V30 647 C 63.7372 1.18088 -1.74981 0
M  V30 648 O 63.0852 1.98733 -1.12772 0
M  V30 649 C 63.2952 -0.759398 -3.40638 0
M  V30 650 C 64.6432 -0.757433 -4.1779 0
M  V30 651 O 65.6672 -0.70189 -3.49216 0
M  V30 652 O 64.5262 -0.829361 -5.4017 0
M  V30 653 H 61.6202 -0.0902502 -0.822061 0
M  V30 654 H 64.1662 -0.906231 -1.43477 0
M  V30 655 H 62.9382 -1.8012 -3.47379 0
M  V30 656 H 62.5612 -0.160378 -3.97276 0
M  V30 657 N 63.5583 1.46682 -0.576371 0
M  V30 658 C 64.8073 2.01619 -0.0572825 0
M  V30 659 C 65.1203 1.45417 1.30818 0
M  V30 660 O 66.3263 1.92133 1.91825 0
M  V30 661 C 64.7823 3.59863 -0.0518371 0
M  V30 662 C 64.3903 4.25059 -1.41523 0
M  V30 663 C 66.1343 4.2248 0.413639 0
M  V30 664 C 64.0413 5.75364 -1.36785 0
M  V30 665 H 62.9713 0.753794 -0.0176448 0
M  V30 666 H 65.6223 1.68481 -0.727076 0
M  V30 667 H 64.0043 3.90048 0.683994 0
M  V30 668 H 65.1783 4.06491 -2.17029 0
M  V30 669 H 63.4933 3.7451 -1.8202 0
M  V30 670 H 66.0903 5.3265 0.467779 0
M  V30 671 H 66.4333 3.90976 1.42982 0
M  V30 672 H 66.9663 3.96897 -0.267929 0
M  V30 673 H 63.7053 6.11518 -2.36063 0
M  V30 674 H 63.2253 5.96214 -0.654895 0
M  V30 675 H 64.9043 6.37955 -1.07805 0
M  V30 676 N 65.0364 0.313813 1.54444 0
M  V30 677 C 65.9684 -0.590425 2.21465 0
M  V30 678 C 66.9814 -1.08753 1.21147 0
M  V30 679 O 68.1704 -1.00278 1.4767 0
M  V30 680 C 65.2704 -1.82179 2.85769 0
M  V30 681 C 64.4434 -1.46502 4.12136 0
M  V30 682 C 63.5024 -2.55288 4.60124 0
M  V30 683 O 62.5284 -2.19842 5.25032 0
M  V30 684 N 63.7304 -3.86053 4.33525 0
M  V30 685 H 66.4954 -0.0166033 2.99695 0
M  V30 686 H 64.0564 0.136578 1.61323 0
M  V30 687 H 66.0484 -2.54328 3.14801 0
M  V30 688 H 64.6184 -2.30369 2.11303 0
M  V30 689 H 63.8384 -0.575595 3.89975 0
M  V30 690 H 65.1264 -1.20221 4.94393 0
M  V30 691 H 64.5244 -4.17654 3.81552 0
M  V30 692 H 63.0814 -4.54461 4.67235 0
M  V30 693 N 66.5145 -1.57545 0.0417849 0
M  V30 694 C 67.9305 -1.56467 -0.314704 0
M  V30 695 C 68.1305 -1.04859 -1.72066 0
M  V30 696 O 67.1865 -0.700983 -2.42575 0
M  V30 697 C 68.4995 -3.00317 -0.15174 0
M  V30 698 C 70.0475 -3.12201 -0.223553 0
M  V30 699 C 70.5225 -4.57913 -0.0892295 0
M  V30 700 N 72.0135 -4.6297 -0.145808 0
M  V30 701 C 72.7485 -5.73362 -0.0658459 0
M  V30 702 N 72.2445 -6.92769 0.0659282 0
M  V30 703 N 74.0375 -5.6197 -0.12075 0
M  V30 704 H 66.1885 -1.89416 0.961014 0
M  V30 705 H 68.4515 -0.871862 0.372237 0
M  V30 706 H 68.1575 -3.42073 0.817254 0
M  V30 707 H 68.0315 -3.65892 -0.916692 0
M  V30 708 H 70.4185 -2.70349 -1.18301 0
M  V30 709 H 70.4995 -2.49323 0.571994 0
M  V30 710 H 70.1435 -5.00448 0.866867 0
M  V30 711 H 70.0735 -5.18786 -0.903802 0
M  V30 712 H 72.5645 -3.7709 -0.247286 0
M  V30 713 H 72.8775 -7.72707 0.119905 0
M  V30 714 H 71.2225 -6.94927 0.100885 0
M  V30 715 H 74.4135 -4.67572 -0.222187 0
M  V30 716 H 74.5865 -6.47977 -0.0549735 0
M  V30 717 N 67.9926 0.231505 -1.5589 0
M  V30 718 C 69.2416 0.955346 -1.7764 0
M  V30 719 C 69.5546 1.85893 -0.608546 0
M  V30 720 O 70.7606 2.62067 -0.70943 0
M  V30 721 C 69.2166 1.74886 -3.14552 0
M  V30 722 C 68.8246 0.891915 -4.39032 0
M  V30 723 C 70.5686 2.46452 -3.45633 0
M  V30 724 C 68.4756 1.68221 -5.66971 0
M  V30 725 H 67.4056 0.360446 -0.662265 0
M  V30 726 H 70.0566 0.209516 -1.823 0
M  V30 727 H 68.4386 2.53723 -3.04041 0
M  V30 728 H 69.6126 0.144793 -4.60572 0
M  V30 729 H 67.9276 0.288863 -4.15397 0
M  V30 730 H 70.5246 3.06061 -4.38441 0
M  V30 731 H 70.8676 3.18841 -2.67668 0
M  V30 732 H 71.4006 1.74613 -3.57428 0
M  V30 733 H 68.1396 1.00178 -6.478 0
M  V30 734 H 67.6596 2.4042 -5.49507 0
M  V30 735 H 69.3386 2.24544 -6.06786 0
M  V30 736 N 69.4707 1.49531 0.497807 0
M  V30 737 C 70.8817 1.52344 1.07927 0
M  V30 738 C 71.2327 0.311469 1.93712 0
M  V30 739 O 70.3577 -0.578405 2.08527 0
M  V30 740 C 70.9527 2.76062 1.96405 0
M  V30 741 C 69.5117 2.81643 2.49709 0
M  V30 742 C 68.6587 2.46299 1.27404 0
M  V30 743 H 71.6097 1.56182 0.281576 0
M  V30 744 H 71.6307 2.56405 2.81135 0
M  V30 745 H 71.1427 3.64254 1.33943 0
M  V30 746 H 69.2437 1.97739 3.15801 0
M  V30 747 H 69.3567 3.83891 2.86643 0
M  V30 748 H 67.7207 1.98148 1.60029 0
M  V30 749 H 68.5037 3.36769 0.66645 0
M  V30 750 N 70.9488 -0.749086 1.3866 0
M  V30 751 C 72.1738 -1.54344 1.38538 0
M  V30 752 C 72.5988 -1.88088 -0.0216655 0
M  V30 753 O 71.9568 -1.50899 -1.00494 0
M  V30 754 C 72.0048 -2.8164 2.25192 0
M  V30 755 O 71.1088 -3.7698 1.67212 0
M  V30 756 H 70.4498 -0.466654 0.472367 0
M  V30 757 H 72.9798 -0.925355 1.82478 0
M  V30 758 H 72.9898 -3.30519 2.3921 0
M  V30 759 H 71.6648 -2.56411 3.27454 0
M  V30 760 H 70.2418 -3.35699 1.6236 0
M  V30 761 N 72.4269 -1.23603 -0.977757 0
M  V30 762 C 73.3569 -1.04401 -2.0886 0
M  V30 763 C 74.3379 0.0399052 -1.70053 0
M  V30 764 O 75.5229 -0.125246 -1.93796 0
M  V30 765 C 72.6529 -0.637269 -3.41403 0
M  V30 766 C 71.6069 -1.66883 -3.94124 0
M  V30 767 C 70.9329 -1.11745 -5.22893 0
M  V30 768 C 72.2329 -3.06247 -4.23096 0
M  V30 769 H 73.9269 -1.97316 -2.25182 0
M  V30 770 H 71.4729 -0.950096 -1.08209 0
M  V30 771 H 73.4259 -0.48998 -4.18542 0
M  V30 772 H 72.1499 0.327557 -3.24953 0
M  V30 773 H 70.8089 -1.80416 -3.19133 0
M  V30 774 H 70.4569 -0.143527 -5.02795 0
M  V30 775 H 70.1569 -1.80672 -5.59134 0
M  V30 776 H 71.6809 -0.982067 -6.02651 0
M  V30 777 H 73.0949 -2.96001 -4.90975 0
M  V30 778 H 71.4919 -3.72436 -4.70544 0
M  V30 779 H 72.5619 -3.55041 -3.30263 0
M  V30 780 N 73.905 1.17692 -1.04816 0
M  V30 781 C 75.316 1.69501 -0.782698 0
M  V30 782 C 75.667 1.83456 0.695577 0
M  V30 783 O 74.792 1.51942 1.54086 0
M  V30 784 C 75.387 3.07874 -1.41419 0
M  V30 785 C 73.946 3.56864 -1.19686 0
M  V30 786 C 73.093 2.3322 -1.50012 0
M  V30 787 H 76.044 1.02262 -1.2136 0
M  V30 788 H 76.065 3.71528 -0.821428 0
M  V30 789 H 75.577 2.97685 -2.49009 0
M  V30 790 H 73.678 3.72337 -0.140043 0
M  V30 791 H 73.791 4.39851 -1.89916 0
M  V30 792 H 72.155 2.37501 -0.920071 0
M  V30 793 H 72.938 2.25644 -2.58727 0
M  V30 794 N 75.3831 0.828654 1.34056 0
M  V30 795 C 76.7941 0.477534 1.8049 0
M  V30 796 C 77.1451 -1.00258 1.6865 0
M  V30 797 O 76.2701 -1.78057 1.22982 0
M  V30 798 C 76.8651 0.860018 3.27703 0
M  V30 799 C 75.4241 0.561185 3.72193 0
M  V30 800 C 74.5711 1.07385 2.55663 0
M  V30 801 H 77.5221 1.0183 1.21722 0
M  V30 802 H 77.5431 0.166038 3.80138 0
M  V30 803 H 77.0551 1.93731 3.36288 0
M  V30 804 H 75.1561 -0.506465 3.69142 0
M  V30 805 H 75.2691 1.10926 4.66082 0
M  V30 806 H 73.6331 0.495149 2.49841 0
M  V30 807 H 74.4161 2.15771 2.67016 0
M  V30 808 N 76.8612 -1.46375 0.584142 0
M  V30 809 C 78.0862 -2.07268 0.0740405 0
M  V30 810 C 78.5112 -1.42979 -1.22223 0
M  V30 811 O 77.8692 -0.514092 -1.73859 0
M  V30 812 C 77.9172 -3.60518 -0.0767769 0
M  V30 813 O 77.0212 -3.96533 -1.13292 0
M  V30 814 H 76.3622 -0.660961 0.0634524 0
M  V30 815 H 78.8922 -1.87991 0.807492 0
M  V30 816 H 78.9022 -4.07021 -0.282489 0
M  V30 817 H 77.5772 -4.06702 0.86986 0
M  V30 818 H 76.1542 -3.61738 -0.905553 0
M  V30 819 N 78.3393 -0.321999 -1.54275 0
M  V30 820 C 79.5673 0.283052 -2.04955 0
M  V30 821 C 79.9823 1.45904 -1.19823 0
M  V30 822 O 79.3393 1.81063 -0.228545 0
M  V30 823 C 79.3903 0.719028 -3.54277 0
M  V30 824 O 79.1113 -0.410175 -4.36176 0
M  V30 825 C 80.6123 1.38705 -4.21041 0
M  V30 826 H 77.8323 0.0584616 -0.668448 0
M  V30 827 H 80.3763 -0.467734 -1.99079 0
M  V30 828 H 78.5313 1.41979 -3.60445 0
M  V30 829 H 78.9453 -0.0669416 -5.24457 0
M  V30 830 H 80.4193 1.64306 -5.2698 0
M  V30 831 H 80.8963 2.33385 -3.72059 0
M  V30 832 H 81.5023 0.728906 -4.19007 0
M  V30 833 N 79.8174 1.5752 -0.0501392 0
M  V30 834 C 80.7494 2.08413 0.95376 0
M  V30 835 C 81.7624 1.01175 1.27544 0
M  V30 836 O 82.9514 1.28744 1.23641 0
M  V30 837 C 80.0514 2.51138 2.27559 0
M  V30 838 C 79.2244 3.817 2.13598 0
M  V30 839 C 78.2834 4.10749 3.28895 0
M  V30 840 O 77.3094 4.80685 3.04845 0
M  V30 841 N 78.5114 3.62579 4.5334 0
M  V30 842 H 81.2764 2.95165 0.519383 0
M  V30 843 H 78.8374 1.61327 0.136127 0
M  V30 844 H 80.8294 2.67648 3.03557 0
M  V30 845 H 79.3994 1.6964 2.62567 0
M  V30 846 H 78.6194 3.74782 1.22197 0
M  V30 847 H 79.9074 4.67201 2.01496 0
M  V30 848 H 79.3054 3.06039 4.75769 0
M  V30 849 H 77.8624 3.84329 5.26436 0
M  V30 850 N 81.2955 -0.223234 1.56011 0
M  V30 851 C 82.5235 -0.964812 1.83027 0
M  V30 852 C 82.9385 -1.78013 0.62904 0
M  V30 853 O 82.2955 -1.78008 -0.402414 0
M  V30 854 C 82.3465 -1.88373 3.08542 0
M  V30 855 O 82.0675 -1.10137 4.2403 0
M  V30 856 C 83.5685 -2.73934 3.48533 0
M  V30 857 H 80.7885 -0.282842 0.608475 0
M  V30 858 H 83.3325 -0.238971 2.03099 0
M  V30 859 H 81.4875 -2.56354 2.9045 0
M  V30 860 H 81.9015 -1.72501 4.95322 0
M  V30 861 H 83.3755 -3.34117 4.39397 0
M  V30 862 H 83.8525 -3.46244 2.70207 0
M  V30 863 H 84.4585 -2.11369 3.69057 0
M  V30 864 N 82.7736 -1.49793 -0.48987 0
M  V30 865 C 83.7036 -1.70201 -1.59856 0
M  V30 866 C 84.6846 -0.55076 -1.60937 0
M  V30 867 O 85.8696 -0.787841 -1.77501 0
M  V30 868 C 82.9996 -1.77882 -2.98287 0
M  V30 869 C 81.9536 -2.92907 -3.12073 0
M  V30 870 C 81.2796 -2.85712 -4.51965 0
M  V30 871 C 82.5796 -4.3369 -2.91051 0
M  V30 872 H 84.2736 -2.63025 -1.43032 0
M  V30 873 H 81.8196 -1.26574 -0.686664 0
M  V30 874 H 83.7726 -1.90744 -3.75759 0
M  V30 875 H 82.4966 -0.816653 -3.16225 0
M  V30 876 H 81.1556 -2.79665 -2.37029 0
M  V30 877 H 80.8036 -1.8738 -4.66795 0
M  V30 878 H 80.5036 -3.62921 -4.62128 0
M  V30 879 H 82.0276 -3.00598 -5.31482 0
M  V30 880 H 83.4416 -4.47555 -3.58284 0
M  V30 881 H 81.8386 -5.12205 -3.12675 0
M  V30 882 H 82.9086 -4.47362 -1.87071 0
M  V30 883 N 84.2517 0.741722 -1.39055 0
M  V30 884 C 85.1987 1.85566 -1.37237 0
M  V30 885 C 86.1687 1.64457 -0.233072 0
M  V30 886 O 87.3537 1.85957 -0.427147 0
M  V30 887 C 84.4937 3.23004 -1.215 0
M  V30 888 C 83.6067 3.55864 -2.44918 0
M  V30 889 C 82.7417 4.82669 -2.21821 0
M  V30 890 C 81.7807 5.08351 -3.40948 0
M  V30 891 N 80.9177 6.26356 -3.17211 0
M  V30 892 H 85.7577 1.86455 -2.32462 0
M  V30 893 H 83.2947 0.911176 -1.15482 0
M  V30 894 H 85.2527 4.02331 -1.10389 0
M  V30 895 H 83.8827 3.21411 -0.29908 0
M  V30 896 H 82.9347 2.7129 -2.66657 0
M  V30 897 H 84.2467 3.70765 -3.33668 0
M  V30 898 H 83.4007 5.69962 -2.07914 0
M  V30 899 H 82.1397 4.69929 -1.30454 0
M  V30 900 H 81.1447 4.19522 -3.55361 0
M  V30 901 H 82.3697 5.22981 -4.33207 0
M  V30 902 H 80.3157 6.14917 -2.28502 0
M  V30 903 H 80.2327 6.41813 -3.99515 0
M  V30 904 H 81.5007 7.16506 -3.06984 0
M  V30 905 N 85.7298 1.2412 0.971189 0
M  V30 906 C 86.6598 1.05508 2.08304 0
M  V30 907 C 87.6408 -0.0308864 1.70072 0
M  V30 908 O 88.8258 0.135521 1.93727 0
M  V30 909 C 85.9558 0.655365 3.4106 0
M  V30 910 C 84.9098 1.68971 3.93234 0
M  V30 911 C 84.2358 1.14516 5.22293 0
M  V30 912 C 85.5358 3.08487 4.21465 0
M  V30 913 H 87.2298 1.98507 2.24132 0
M  V30 914 H 84.7758 0.955821 1.07704 0
M  V30 915 H 86.7288 0.51217 4.18276 0
M  V30 916 H 85.4528 -0.31032 3.25122 0
M  V30 917 H 84.1118 1.82106 3.18171 0
M  V30 918 H 83.7598 0.170189 5.02712 0
M  V30 919 H 83.4598 1.83635 5.58168 0
M  V30 920 H 84.9838 1.01401 6.02121 0
M  V30 921 H 86.3978 2.98601 4.89398 0
M  V30 922 H 84.7948 3.74926 4.68562 0
M  V30 923 H 85.8648 3.56787 3.28376 0
M  V30 924 N 87.2079 -1.17134 1.05439 0
M  V30 925 C 88.4569 -1.86791 0.761049 0
M  V30 926 C 88.7699 -1.82072 -0.714795 0
M  V30 927 O 89.9759 -2.47223 -1.12218 0
M  V30 928 C 88.4319 -3.35166 1.31117 0
M  V30 929 C 88.0399 -3.48381 2.81664 0
M  V30 930 C 89.7839 -4.10134 1.09499 0
M  V30 931 C 87.6909 -4.90793 3.29964 0
M  V30 932 H 86.6209 -0.699681 0.281002 0
M  V30 933 H 89.2719 -1.3226 1.27199 0
M  V30 934 H 87.6539 -3.8925 0.72803 0
M  V30 935 H 88.8279 -3.04502 3.45855 0
M  V30 936 H 87.1429 -2.86836 3.01851 0
M  V30 937 H 89.7399 -5.152 1.43084 0
M  V30 938 H 90.0829 -4.16287 0.0328772 0
M  V30 939 H 90.6159 -3.62264 1.64346 0
M  V30 940 H 87.3549 -4.89816 4.35616 0
M  V30 941 H 86.8749 -5.35333 2.70516 0
M  V30 942 H 88.5539 -5.59573 3.24787 0
M  V30 943 N 88.686 -0.835752 -1.33615 0
M  V30 944 C 89.596 -0.269088 -2.33052 0
M  V30 945 C 90.612 0.603251 -1.63208 0
M  V30 946 O 91.788 0.508112 -1.94885 0
M  V30 947 C 88.853 0.549091 -3.42324 0
M  V30 948 C 87.914 -0.347156 -4.27894 0
M  V30 949 C 87.147 0.43207 -5.31948 0
M  V30 950 O 87.37 1.66409 -5.45586 0
M  V30 951 O 86.304 -0.192298 -6.01593 0
M  V30 952 H 90.13 -1.09243 -2.83372 0
M  V30 953 H 87.715 -0.598198 -1.36901 0
M  V30 954 H 89.597 1.01414 -4.09015 0
M  V30 955 H 88.272 1.34955 -2.94226 0
M  V30 956 H 87.179 -0.859979 -3.64081 0
M  V30 957 H 88.512 -1.1123 -4.79467 0
M  V30 958 N 90.1641 1.46063 -0.591896 0
M  V30 959 C 91.3921 2.06717 -0.0868936 0
M  V30 960 C 91.8071 1.43916 1.22203 0
M  V30 961 O 91.1641 0.547698 1.74088 0
M  V30 962 C 91.2151 3.6142 0.0758725 0
M  V30 963 O 90.9361 4.21874 -1.18126 0
M  V30 964 C 92.4371 4.39025 0.61416 0
M  V30 965 H 89.6571 0.668162 -0.0616518 0
M  V30 966 H 92.2011 1.8755 -0.815175 0
M  V30 967 H 90.3561 3.79983 0.754413 0
M  V30 968 H 90.7701 5.14861 -1.00092 0
M  V30 969 H 92.2441 5.4783 0.677193 0
M  V30 970 H 92.7211 4.07708 1.63312 0
M  V30 971 H 93.3271 4.2529 -0.0298142 0
M  V30 972 N 91.6422 0.330177 1.54103 0
M  V30 973 C 92.5922 -0.548456 2.21305 0
M  V30 974 C 93.5762 -1.07651 1.19583 0
M  V30 975 O 94.7682 -1.01243 1.45186 0
M  V30 976 C 91.8972 -1.70559 2.97934 0
M  V30 977 C 90.9832 -1.19212 4.07 0
M  V30 978 N 91.3742 -0.398831 5.04225 0
M  V30 979 C 89.6722 -1.47024 4.2107 0
M  V30 980 C 90.3732 -0.121761 5.81573 0
M  V30 981 N 89.3492 -0.709722 5.38947 0
M  V30 982 H 93.1512 0.0648483 2.93828 0
M  V30 983 H 90.6652 0.136363 1.61826 0
M  V30 984 H 92.6622 -2.34688 3.44568 0
M  V30 985 H 91.3222 -2.32231 2.26934 0
M  V30 986 H 92.3332 -0.0410869 5.17884 0
M  V30 987 H 89.0102 -2.09232 3.61287 0
M  V30 988 H 90.4002 0.517298 6.69906 0
M  V30 989 N 93.1203 -1.57491 0.0584922 0
M  V30 990 C 94.0503 -2.14988 -0.911178 0
M  V30 991 C 95.0313 -1.07343 -1.31952 0
M  V30 992 O 96.2163 -1.35318 -1.39294 0
M  V30 993 C 93.3463 -2.70078 -2.18347 0
M  V30 994 C 92.3003 -3.82771 -1.91495 0
M  V30 995 C 91.6263 -4.24408 -3.25241 0
M  V30 996 C 92.9263 -5.07592 -1.23075 0
M  V30 997 H 94.6203 -2.96263 -0.432246 0
M  V30 998 H 92.1663 -1.42512 -0.206469 0
M  V30 999 H 94.1193 -3.08943 -2.86587 0
M  V30 1000 H 92.8433 -1.86005 -2.68458 0
M  V30 1001 H 91.5023 -3.44389 -1.25664 0
M  V30 1002 H 91.1503 -3.37275 -3.73168 0
M  V30 1003 H 90.8503 -5.00366 -3.08071 0
M  V30 1004 H 92.3743 -4.65879 -3.94701 0
M  V30 1005 H 93.7883 -5.43857 -1.81362 0
M  V30 1006 H 92.1853 -5.88741 -1.16207 0
M  V30 1007 H 93.2553 -4.84454 -0.207847 0
M  V30 1008 N 94.5984 0.214957 -1.56127 0
M  V30 1009 C 96.0144 0.564948 -1.49267 0
M  V30 1010 C 96.2144 1.86827 -0.754838 0
M  V30 1011 O 95.2704 2.50745 -0.297198 0
M  V30 1012 C 96.5834 0.638071 -2.93852 0
M  V30 1013 C 98.1314 0.728253 -3.0441 0
M  V30 1014 C 98.6064 0.832663 -4.50367 0
M  V30 1015 N 100.097 0.896712 -4.54437 0
M  V30 1016 C 100.832 0.997324 -5.6466 0
M  V30 1017 N 100.328 1.06147 -6.8462 0
M  V30 1018 N 102.121 1.03297 -5.52527 0
M  V30 1019 H 94.2724 -0.640211 -2.02522 0
M  V30 1020 H 96.5354 -0.225507 -0.920788 0
M  V30 1021 H 96.2414 -0.250126 -3.50809 0
M  V30 1022 H 96.1154 1.49947 -3.46115 0
M  V30 1023 H 98.5024 1.60689 -2.47514 0
M  V30 1024 H 98.5834 -0.158952 -2.55306 0
M  V30 1025 H 98.2274 -0.0415417 -5.07883 0
M  V30 1026 H 98.1574 1.73538 -4.97184 0
M  V30 1027 H 100.648 0.857188 -3.6805 0
M  V30 1028 H 100.961 1.1382 -7.64372 0
M  V30 1029 H 99.3064 1.03049 -6.87318 0
M  V30 1030 H 102.497 0.979558 -4.57736 0
M  V30 1031 H 102.67 1.10793 -6.38458 0
M  V30 1032 N 96.0765 1.50051 0.48192 0
M  V30 1033 C 97.3045 1.64237 1.25832 0
M  V30 1034 C 97.7195 0.321336 1.86045 0
M  V30 1035 O 97.0765 -0.695478 1.68729 0
M  V30 1036 C 97.1275 2.72548 2.37487 0
M  V30 1037 O 96.8485 3.99529 1.79745 0
M  V30 1038 C 98.3495 2.9761 3.28547 0
M  V30 1039 H 95.5695 0.55237 0.380957 0
M  V30 1040 H 98.1135 1.96207 0.576467 0
M  V30 1041 H 96.2685 2.43303 3.01467 0
M  V30 1042 H 96.6825 4.59342 2.5319 0
M  V30 1043 H 98.1565 3.77084 4.03127 0
M  V30 1044 H 98.6335 2.0826 3.86684 0
M  V30 1045 H 99.2395 3.28345 2.70314 0
M  V30 1046 N 97.5546 -0.734337 1.39446 0
M  V30 1047 C 98.8036 -1.48937 1.36017 0
M  V30 1048 C 99.1166 -1.95557 -0.0409005 0
M  V30 1049 O 100.323 -2.70779 -0.19778 0
M  V30 1050 C 98.7786 -2.69125 2.38955 0
M  V30 1051 C 98.3866 -2.29452 3.8478 0
M  V30 1052 C 100.131 -3.46944 2.44603 0
M  V30 1053 C 98.0376 -3.46366 4.79358 0
M  V30 1054 H 96.9676 -0.559296 0.505672 0
M  V30 1055 H 99.6186 -0.800983 1.65095 0
M  V30 1056 H 98.0006 -3.40041 2.02948 0
M  V30 1057 H 99.1746 -1.66077 4.29831 0
M  V30 1058 H 97.4896 -1.64723 3.82433 0
M  V30 1059 H 100.087 -4.33907 3.12456 0
M  V30 1060 H 100.43 -3.89454 1.47076 0
M  V30 1061 H 100.963 -2.83056 2.79507 0
M  V30 1062 H 97.7016 -3.08905 5.78151 0
M  V30 1063 H 97.2216 -4.08719 4.38986 0
M  V30 1064 H 98.9006 -4.12691 4.98292 0
M  V30 1065 N 99.0327 -1.24633 -0.964593 0
M  V30 1066 C 100.444 -1.08045 -1.5226 0
M  V30 1067 C 100.795 0.347116 -1.93105 0
M  V30 1068 O 99.9197 1.23588 -1.77637 0
M  V30 1069 C 100.515 -1.95514 -2.76695 0
M  V30 1070 C 99.0737 -1.8314 -3.28841 0
M  V30 1071 C 98.2207 -1.90262 -2.01732 0
M  V30 1072 H 101.172 -1.38064 -0.782553 0
M  V30 1073 H 101.193 -1.48925 -3.50145 0
M  V30 1074 H 100.705 -2.99407 -2.46936 0
M  V30 1075 H 98.8057 -0.82092 -3.63444 0
M  V30 1076 H 98.9187 -2.67406 -3.97531 0
M  V30 1077 H 97.2827 -1.34027 -2.16584 0
M  V30 1078 H 98.0657 -2.9574 -1.74334 0
M  V30 1079 N 100.511 1.16574 -1.06058 0
M  V30 1080 C 101.736 1.91493 -0.796562 0
M  V30 1081 C 102.161 1.76773 0.642868 0
M  V30 1082 O 101.519 1.09142 1.44768 0
M  V30 1083 C 101.567 3.40293 -1.19303 0
M  V30 1084 O 100.671 4.11074 -0.330394 0
M  V30 1085 H 100.012 0.596678 -0.291326 0
M  V30 1086 H 102.542 1.47708 -1.41575 0
M  V30 1087 H 102.552 3.91057 -1.16356 0
M  V30 1088 H 101.227 3.50326 -2.24153 0
M  V30 1089 H 99.8038 3.70513 -0.421225 0
M  V30 1090 N 101.989 0.842826 1.3317 0
M  V30 1091 C 102.939 0.250877 2.26616 0
M  V30 1092 C 103.923 -0.596427 1.49437 0
M  V30 1093 O 105.115 -0.447747 1.71243 0
M  V30 1094 C 102.244 -0.569779 3.38539 0
M  V30 1095 C 101.33 0.289254 4.23112 0
M  V30 1096 N 101.721 1.36987 4.86897 0
M  V30 1097 C 100.019 0.0769631 4.45934 0
M  V30 1098 C 100.72 1.89737 5.49886 0
M  V30 1099 N 99.6959 1.19827 5.30229 0
M  V30 1100 H 103.498 1.07718 2.73448 0
M  V30 1101 H 101.012 0.687693 1.47121 0
M  V30 1102 H 103.009 -1.01018 4.04476 0
M  V30 1103 H 101.669 -1.39401 2.93253 0
M  V30 1104 H 102.68 1.75277 4.87338 0
M  V30 1105 H 99.3569 -0.713507 4.11358 0
M  V30 1106 H 100.747 2.80253 6.10662 0
M  V30 1107 N 103.467 -1.45747 0.599634 0
M  V30 1108 C 104.43 -2.28917 -0.113835 0
M  V30 1109 C 105.43 -1.3933 -0.802729 0
M  V30 1110 O 106.62 -1.61534 -0.652103 0
M  V30 1111 C 103.752 -3.20152 -1.17114 0
M  V30 1112 H 104.945 -2.93478 0.617289 0
M  V30 1113 H 102.498 -1.52137 0.358327 0
M  V30 1114 H 103.233 -2.60374 -1.93329 0
M  V30 1115 H 103.018 -3.86133 -0.681468 0
M  V30 1116 H 104.508 -3.82708 -1.67105 0
M  V30 1117 N 104.945 -0.338344 -1.53925 0
M  V30 1118 C 106.192 0.259758 -2.00827 0
M  V30 1119 C 106.52 1.50973 -1.22628 0
M  V30 1120 O 105.775 1.93379 -0.300509 0
M  V30 1121 C 106.074 0.62448 -3.51902 0
M  V30 1122 C 105.74 -0.528006 -4.47798 0
M  V30 1123 C 104.402 -0.844298 -4.73735 0
M  V30 1124 C 106.754 -1.30143 -5.0469 0
M  V30 1125 C 104.082 -1.93648 -5.53821 0
M  V30 1126 C 106.434 -2.38382 -5.85967 0
M  V30 1127 C 105.098 -2.70576 -6.10201 0
M  V30 1128 H 104.368 0.0950523 -0.734878 0
M  V30 1129 H 107.015 -0.465182 -1.85764 0
M  V30 1130 H 105.32 1.43006 -3.64769 0
M  V30 1131 H 107.017 1.09905 -3.85645 0
M  V30 1132 H 103.607 -0.271421 -4.2774 0
M  V30 1133 H 107.791 -1.07033 -4.84621 0
M  V30 1134 H 103.047 -2.19021 -5.70824 0
M  V30 1135 H 107.221 -2.98746 -6.29066 0
M  V30 1136 H 104.848 -3.55333 -6.72044 0
M  V30 1137 N 106.423 1.57458 -0.0668435 0
M  V30 1138 C 107.648 1.9804 0.616027 0
M  V30 1139 C 108.073 0.944771 1.62652 0
M  V30 1140 O 107.431 -0.0902094 1.81075 0
M  V30 1141 C 107.479 3.37665 1.26549 0
M  V30 1142 O 106.583 3.36701 2.38131 0
M  V30 1143 H 105.924 0.644719 0.158849 0
M  V30 1144 H 108.454 2.04121 -0.139891 0
M  V30 1145 H 108.464 3.7474 1.6135 0
M  V30 1146 H 107.139 4.12573 0.525016 0
M  V30 1147 H 105.716 3.1139 2.0516 0
M  V30 1148 N 107.901 -0.206675 1.56239 0
M  V30 1149 C 108.849 -1.27571 1.94495 0
M  V30 1150 C 109.843 -1.47737 0.828862 0
M  V30 1151 O 111.049 -1.48735 1.0138 0
M  V30 1152 H 107.424 -0.428029 0.6183 0
M  V30 1153 H 109.395 -0.925961 2.8367 0
M  V30 1154 C 108.144 -2.61568 2.29079 0
M  V30 1155 H 107.467 -2.46863 3.14482 0
M  V30 1156 H 108.907 -3.35144 2.5972 0
M  V30 1157 C 107.366 -3.17695 1.12123 0
M  V30 1158 O 107.896 -3.99801 0.390153 0
M  V30 1159 N 106.102 -2.76276 0.901097 0
M  V30 1160 H 105.649 -2.09613 1.49733 0
M  V30 1161 H 105.607 -3.1417 0.120319 0
M  V30 1162 N 109.379 -1.50304 -0.473955 0
M  V30 1163 C 110.309 -1.71886 -1.58042 0
M  V30 1164 C 111.29 -0.567799 -1.60344 0
M  V30 1165 O 112.475 -0.806623 -1.76656 0
M  V30 1166 C 109.605 -1.81036 -2.96384 0
M  V30 1167 C 108.559 -2.962 -3.08949 0
M  V30 1168 C 107.885 -2.9049 -4.48909 0
M  V30 1169 C 109.185 -4.36752 -2.86434 0
M  V30 1170 H 110.879 -2.64527 -1.40234 0
M  V30 1171 H 108.425 -1.27295 -0.673201 0
M  V30 1172 H 110.378 -1.94719 -3.73714 0
M  V30 1173 H 109.102 -0.850147 -3.15341 0
M  V30 1174 H 107.761 -2.82164 -2.3405 0
M  V30 1175 H 107.409 -1.92321 -4.64781 0
M  V30 1176 H 107.109 -3.67802 -4.58253 0
M  V30 1177 H 108.633 -3.06218 -5.28264 0
M  V30 1178 H 110.047 -4.5133 -3.53517 0
M  V30 1179 H 108.444 -5.15493 -3.07225 0
M  V30 1180 H 109.514 -4.49321 -1.82316 0
M  V30 1181 N 110.857 0.726932 -1.39834 0
M  V30 1182 C 112.268 1.30558 -1.3346 0
M  V30 1183 C 112.619 1.962 -0.00273003 0
M  V30 1184 O 111.744 1.96826 0.899371 0
M  V30 1185 C 112.339 2.37404 -2.41713 0
M  V30 1186 C 110.898 2.90921 -2.38835 0
M  V30 1187 C 110.045 1.64578 -2.2318 0
M  V30 1188 H 112.996 0.523862 -1.49804 0
M  V30 1189 H 113.017 3.17984 -2.08966 0
M  V30 1190 H 112.529 1.89599 -3.38635 0
M  V30 1191 H 110.63 3.42985 -1.45575 0
M  V30 1192 H 110.743 3.43487 -3.33997 0
M  V30 1193 H 109.107 1.89219 -1.70494 0
M  V30 1194 H 109.89 1.18814 -3.22084 0
M  V30 1195 N 112.336 1.25143 0.95797 0
M  V30 1196 C 113.284 1.05019 2.07542 0
M  V30 1197 C 114.278 -0.0178751 1.69391 0
M  V30 1198 O 115.484 0.137472 1.79474 0
M  V30 1199 H 111.859 0.32265 0.679265 0
M  V30 1200 H 113.83 1.99759 2.21673 0
M  V30 1201 C 112.579 0.682074 3.40944 0
M  V30 1202 H 111.902 1.49573 3.70767 0
M  V30 1203 H 113.342 0.580945 4.20001 0
M  V30 1204 C 111.801 -0.611608 3.31302 0
M  V30 1205 O 112.331 -1.65465 3.66038 0
M  V30 1206 N 110.537 -0.595982 2.84423 0
M  V30 1207 H 110.084 0.253192 2.56353 0
M  V30 1208 H 110.042 -1.46173 2.78354 0
M  V30 1209 N 113.814 -1.1601 1.06675 0
M  V30 1210 C 115.063 -1.85973 0.780818 0
M  V30 1211 C 115.376 -1.82819 -0.695444 0
M  V30 1212 O 116.582 -2.484 -1.09589 0
M  V30 1213 C 115.038 -3.33757 1.34665 0
M  V30 1214 C 114.646 -3.45374 2.85343 0
M  V30 1215 C 116.39 -4.0895 1.13843 0
M  V30 1216 C 114.297 -4.87266 3.35151 0
M  V30 1217 H 113.227 -0.696661 0.288407 0
M  V30 1218 H 115.878 -1.30903 1.28595 0
M  V30 1219 H 114.26 -3.88456 0.769274 0
M  V30 1220 H 115.434 -3.00816 3.49065 0
M  V30 1221 H 113.749 -2.83619 3.04876 0
M  V30 1222 H 116.346 -5.13654 1.4854 0
M  V30 1223 H 116.689 -4.16229 0.0770282 0
M  V30 1224 H 117.222 -3.605 1.68179 0
M  V30 1225 H 113.961 -4.85168 4.40786 0
M  V30 1226 H 113.481 -5.32433 2.76179 0
M  V30 1227 H 115.16 -5.56097 3.30704 0
M  V30 1228 N 115.292 -0.849877 -1.32721 0
M  V30 1229 C 116.517 -0.463856 -2.02146 0
M  V30 1230 C 116.942 0.930449 -1.63476 0
M  V30 1231 O 116.3 1.61033 -0.832952 0
M  V30 1232 C 116.348 -0.604955 -3.55489 0
M  V30 1233 O 115.452 0.36425 -4.10788 0
M  V30 1234 H 114.793 -0.187046 -0.637111 0
M  V30 1235 H 117.323 -1.14775 -1.69375 0
M  V30 1236 H 117.333 -0.490696 -4.05038 0
M  V30 1237 H 116.008 -1.62174 -3.82978 0
M  V30 1238 H 114.585 0.206628 -3.72327 0
M  V30 1239 N 116.77 1.45427 -0.607355 0
M  V30 1240 C 118.186 1.57283 -0.270985 0
M  V30 1241 C 118.386 1.59875 1.22647 0
M  V30 1242 O 117.442 1.52893 2.00948 0
M  V30 1243 C 118.755 2.85566 -0.941952 0
M  V30 1244 C 120.303 2.9924 -0.917849 0
M  V30 1245 C 120.778 4.30293 -1.56882 0
M  V30 1246 N 122.269 4.37051 -1.5343 0
M  V30 1247 C 123.004 5.37123 -2.00715 0
M  V30 1248 N 122.5 6.43734 -2.56084 0
M  V30 1249 N 124.293 5.28479 -1.91484 0
M  V30 1250 H 116.444 1.41988 -1.57966 0
M  V30 1251 H 118.707 0.67885 -0.661715 0
M  V30 1252 H 118.413 2.8955 -1.99633 0
M  V30 1253 H 118.287 3.74322 -0.465096 0
M  V30 1254 H 120.674 2.94822 0.127984 0
M  V30 1255 H 120.755 2.11895 -1.43297 0
M  V30 1256 H 120.399 4.35469 -2.61398 0
M  V30 1257 H 120.329 5.16454 -1.02873 0
M  V30 1258 H 122.82 3.60615 -1.12982 0
M  V30 1259 H 123.133 7.16341 -2.89958 0
M  V30 1260 H 121.478 6.44485 -2.60122 0
M  V30 1261 H 124.669 4.44098 -1.47967 0
M  V30 1262 H 124.842 6.0632 -2.28648 0
M  V30 1263 N 118.248 0.346503 1.53744 0
M  V30 1264 C 119.497 -0.250122 2.00143 0
M  V30 1265 C 119.81 -1.51418 1.23822 0
M  V30 1266 O 121.016 -2.18823 1.60713 0
M  V30 1267 C 119.472 -0.496252 3.56462 0
M  V30 1268 C 119.08 0.752077 4.41642 0
M  V30 1269 C 120.824 -1.05157 4.11269 0
M  V30 1270 C 118.731 0.476583 5.89477 0
M  V30 1271 H 117.661 -0.0972409 0.747703 0
M  V30 1272 H 120.312 0.46229 1.77581 0
M  V30 1273 H 118.694 -1.26944 3.75102 0
M  V30 1274 H 119.868 1.5266 4.34778 0
M  V30 1275 H 118.183 1.22925 3.97842 0
M  V30 1276 H 120.78 -1.27269 5.19333 0
M  V30 1277 H 121.123 -2.00799 3.64672 0
M  V30 1278 H 121.656 -0.339019 3.96353 0
M  V30 1279 H 118.395 1.4028 6.40314 0
M  V30 1280 H 117.915 -0.259794 5.99237 0
M  V30 1281 H 119.594 0.0949315 6.4693 0
M  V30 1282 N 119.726 -1.57421 0.075193 0
M  V30 1283 C 120.956 -1.97659 -0.601203 0
M  V30 1284 C 121.364 -0.952427 -1.63479 0
M  V30 1285 O 120.707 0.0688241 -1.83571 0
M  V30 1286 C 120.769 -3.34218 -1.32434 0
M  V30 1287 C 120.433 -4.5484 -0.443826 0
M  V30 1288 C 121.43 -5.19034 0.299969 0
M  V30 1289 C 119.115 -5.00952 -0.367709 0
M  V30 1290 C 121.109 -6.27695 1.10807 0
M  V30 1291 C 118.796 -6.09484 0.444058 0
M  V30 1292 C 119.794 -6.72719 1.18061 0
M  V30 1293 O 119.482 -7.79161 1.97898 0
M  V30 1294 H 119.214 -0.65494 -0.167422 0
M  V30 1295 H 121.768 -2.04886 0.145157 0
M  V30 1296 H 119.998 -3.23615 -2.11685 0
M  V30 1297 H 121.687 -3.59038 -1.89331 0
M  V30 1298 H 122.453 -4.84351 0.250776 0
M  V30 1299 H 118.332 -4.51509 -0.930638 0
M  V30 1300 H 121.876 -6.76982 1.68347 0
M  V30 1301 H 117.773 -6.43601 0.494803 0
M  V30 1302 H 118.541 -7.96055 1.90367 0
M  V30 1303 N 121.204 0.198386 -1.56346 0
M  V30 1304 C 122.45 0.920648 -1.80698 0
M  V30 1305 C 122.783 1.83045 -0.648697 0
M  V30 1306 O 122.058 1.91308 0.350925 0
M  V30 1307 C 122.341 1.73971 -3.15287 0
M  V30 1308 C 122.194 0.85485 -4.41602 0
M  V30 1309 C 123.513 2.71296 -3.46535 0
M  V30 1310 H 120.632 0.333261 -0.657348 0
M  V30 1311 H 123.274 0.188198 -1.89066 0
M  V30 1312 H 121.424 2.36416 -3.08285 0
M  V30 1313 H 123.096 0.245362 -4.60647 0
M  V30 1314 H 121.339 0.161398 -4.335 0
M  V30 1315 H 122.01 1.46286 -5.32264 0
M  V30 1316 H 124.486 2.18983 -3.53816 0
M  V30 1317 H 123.362 3.2569 -4.41834 0
M  V30 1318 H 123.623 3.5018 -2.69864 0
M  V30 1319 N 122.682 1.50554 0.465978 0
M  V30 1320 C 123.907 1.65838 1.24549 0
M  V30 1321 C 124.332 0.343486 1.84937 0
M  V30 1322 O 123.69 -0.69324 1.67523 0
M  V30 1323 C 123.738 2.75533 2.32624 0
M  V30 1324 O 122.842 2.37142 3.37398 0
M  V30 1325 H 122.183 0.553893 0.366194 0
M  V30 1326 H 124.713 1.96959 0.553927 0
M  V30 1327 H 124.723 2.98763 2.77857 0
M  V30 1328 H 123.398 3.70962 1.88043 0
M  V30 1329 H 121.975 2.24377 2.97841 0
M  V30 1330 N 124.16 -0.719506 1.40217 0
M  V30 1331 C 125.409 -1.47486 1.37589 0
M  V30 1332 C 125.722 -1.9559 -0.0201568 0
M  V30 1333 O 126.928 -2.70973 -0.169049 0
M  V30 1334 C 125.384 -2.66575 2.41796 0
M  V30 1335 C 124.992 -2.25358 3.87192 0
M  V30 1336 C 126.736 -3.4433 2.48269 0
M  V30 1337 C 124.643 -3.41262 4.83005 0
M  V30 1338 H 123.573 -0.553901 0.511576 0
M  V30 1339 H 126.224 -0.783427 1.65936 0
M  V30 1340 H 124.606 -3.3787 2.06543 0
M  V30 1341 H 125.78 -1.61509 4.31569 0
M  V30 1342 H 124.095 -1.60657 3.84159 0
M  V30 1343 H 126.692 -4.30569 3.17041 0
M  V30 1344 H 127.035 -3.87872 1.51198 0
M  V30 1345 H 127.568 -2.80076 2.82493 0
M  V30 1346 H 124.307 -3.02755 5.81394 0
M  V30 1347 H 123.827 -4.0404 4.43297 0
M  V30 1348 H 125.506 -4.07383 5.02641 0
M  V30 1349 N 125.638 -1.25649 -0.95132 0
M  V30 1350 C 126.915 -1.01361 -1.67288 0
M  V30 1351 C 127.295 0.459135 -2.06046 0
M  V30 1352 O 126.643 1.43723 -1.7764 0
M  V30 1353 C 126.853 -1.95256 -2.89268 0
M  V30 1354 C 128.201 -2.23289 -3.61147 0
M  V30 1355 O 129.225 -1.93041 -2.99355 0
M  V30 1356 O 128.084 -2.74741 -4.72419 0
M  V30 1357 H 125.178 -0.38464 -0.732107 0
M  V30 1358 H 127.724 -1.36817 -1.00395 0
M  V30 1359 H 126.496 -2.94685 -2.57442 0
M  V30 1360 H 126.119 -1.60218 -3.6389 0
M  V30 1361 N 127.117 1.15442 -1.07289 0
M  V30 1362 C 128.363 1.86489 -0.796846 0
M  V30 1363 C 128.696 1.82078 0.675371 0
M  V30 1364 O 127.971 1.24346 1.4956 0
M  V30 1365 C 128.254 3.35626 -1.30489 0
M  V30 1366 C 128.107 3.48673 -2.84161 0
M  V30 1367 C 129.426 4.30357 -0.920907 0
M  V30 1368 H 126.545 0.677144 -0.290939 0
M  V30 1369 H 129.187 1.35633 -1.33056 0
M  V30 1370 H 127.337 3.79068 -0.850883 0
M  V30 1371 H 129.009 3.14099 -3.37846 0
M  V30 1372 H 127.252 2.90253 -3.22391 0
M  V30 1373 H 127.923 4.53453 -3.14777 0
M  V30 1374 H 130.399 3.94871 -1.3121 0
M  V30 1375 H 129.275 5.33193 -1.30372 0
M  V30 1376 H 129.536 4.4176 0.173226 0
M  V30 1377 N 128.595 0.856903 1.32268 0
M  V30 1378 C 129.823 0.475439 2.01363 0
M  V30 1379 C 130.238 -0.928486 1.64392 0
M  V30 1380 O 129.595 -1.60624 0.866387 0
M  V30 1381 C 129.646 0.607545 3.56358 0
M  V30 1382 O 129.367 1.95617 3.92002 0
M  V30 1383 C 130.868 0.225382 4.42727 0
M  V30 1384 H 128.088 0.186636 0.644521 0
M  V30 1385 H 130.632 1.15446 1.68797 0
M  V30 1386 H 128.787 -0.0237719 3.87393 0
M  V30 1387 H 129.201 1.95455 4.86721 0
M  V30 1388 H 130.675 0.368813 5.50767 0
M  V30 1389 H 131.152 -0.834369 4.31202 0
M  V30 1390 H 131.758 0.831864 4.17085 0
M  V30 1391 N 130.073 -1.45103 0.615059 0
M  V30 1392 C 131.003 -2.33339 -0.0865619 0
M  V30 1393 C 131.984 -1.4727 -0.851209 0
M  V30 1394 O 133.169 -1.76026 -0.820281 0
M  V30 1395 C 130.299 -3.30095 -1.07956 0
M  V30 1396 C 129.253 -4.25858 -0.427628 0
M  V30 1397 C 128.579 -5.12361 -1.5294 0
M  V30 1398 C 129.879 -5.18165 0.655944 0
M  V30 1399 H 131.573 -2.92254 0.650224 0
M  V30 1400 H 129.119 -1.40532 0.314138 0
M  V30 1401 H 131.072 -3.90698 -1.57901 0
M  V30 1402 H 129.796 -2.69355 -1.84703 0
M  V30 1403 H 128.455 -3.66564 0.0510292 0
M  V30 1404 H 128.103 -4.47984 -2.28734 0
M  V30 1405 H 127.803 -5.77238 -1.09865 0
M  V30 1406 H 129.327 -5.75833 -2.03098 0
M  V30 1407 H 130.741 -5.72796 0.240257 0
M  V30 1408 H 129.138 -5.91559 1.00888 0
M  V30 1409 H 130.208 -4.60144 1.52957 0
M  V30 1410 N 131.551 -0.354651 -1.53558 0
M  V30 1411 C 132.483 0.5315 -2.22952 0
M  V30 1412 C 133.496 1.05503 -1.23988 0
M  V30 1413 O 134.685 0.963279 -1.50277 0
M  V30 1414 C 131.785 1.74538 -2.90499 0
M  V30 1415 C 130.958 1.35524 -4.15875 0
M  V30 1416 C 130.017 2.42999 -4.66731 0
M  V30 1417 O 129.043 2.05844 -5.30676 0
M  V30 1418 N 130.245 3.74423 -4.43608 0
M  V30 1419 H 133.01 -0.0628615 -2.99634 0
M  V30 1420 H 130.571 -0.179302 -1.60904 0
M  V30 1421 H 132.563 2.45892 -3.21433 0
M  V30 1422 H 131.133 2.24686 -2.17336 0
M  V30 1423 H 130.353 0.471998 -3.91364 0
M  V30 1424 H 131.641 1.07071 -4.97406 0
M  V30 1425 H 131.039 4.07391 -3.92491 0
M  V30 1426 H 129.596 4.41913 -4.7912 0
M  V30 1427 N 133.029 1.57378 -0.0835403 0
M  V30 1428 C 133.961 2.10389 0.909338 0
M  V30 1429 C 134.974 1.03858 1.25369 0
M  V30 1430 O 136.163 1.31338 1.20882 0
M  V30 1431 C 133.263 2.55908 2.2218 0
M  V30 1432 C 132.436 3.86145 2.05453 0
M  V30 1433 C 131.495 4.17633 3.20108 0
M  V30 1434 O 130.521 4.87043 2.94581 0
M  V30 1435 N 131.723 3.72113 4.45547 0
M  V30 1436 H 134.488 2.962 0.456657 0
M  V30 1437 H 132.049 1.61579 0.101877 0
M  V30 1438 H 134.041 2.74027 2.97811 0
M  V30 1439 H 132.611 1.75171 2.58909 0
M  V30 1440 H 131.831 3.7729 1.1422 0
M  V30 1441 H 133.119 4.7137 1.91541 0
M  V30 1442 H 132.517 3.16062 4.69171 0
M  V30 1443 H 131.074 3.95409 5.18165 0
M  V30 1444 N 134.507 -0.190092 1.56449 0
M  V30 1445 C 135.437 -1.23816 1.97969 0
M  V30 1446 C 136.418 -1.47201 0.852395 0
M  V30 1447 O 137.603 -1.58854 1.1171 0
M  V30 1448 C 134.733 -2.5813 2.3235 0
M  V30 1449 C 133.687 -2.49348 3.47864 0
M  V30 1450 C 133.013 -3.8798 3.67934 0
M  V30 1451 C 134.313 -2.01424 4.81898 0
M  V30 1452 H 136.007 -0.89311 2.85769 0
M  V30 1453 H 133.553 -0.428177 1.37487 0
M  V30 1454 H 135.506 -3.31637 2.59991 0
M  V30 1455 H 134.23 -2.94386 1.41438 0
M  V30 1456 H 132.889 -1.78297 3.20321 0
M  V30 1457 H 132.537 -4.21597 2.74344 0
M  V30 1458 H 132.237 -3.82978 4.45648 0
M  V30 1459 H 133.761 -4.63101 3.97957 0
M  V30 1460 H 135.175 -2.64693 5.08538 0
M  V30 1461 H 133.572 -2.07413 5.63116 0
M  V30 1462 H 134.642 -0.967677 4.75146 0
M  V30 1463 N 135.985 -1.50799 -0.457987 0
M  V30 1464 C 136.895 -1.73426 -1.57989 0
M  V30 1465 C 137.911 -0.617745 -1.62665 0
M  V30 1466 O 139.087 -0.897614 -1.80291 0
M  V30 1467 C 136.152 -1.83557 -2.94122 0
M  V30 1468 C 135.213 -3.07345 -2.99729 0
M  V30 1469 C 134.446 -3.16983 -4.29368 0
M  V30 1470 O 134.669 -2.33077 -5.20607 0
M  V30 1471 O 133.603 -4.09812 -4.40837 0
M  V30 1472 H 137.429 -2.68555 -1.41817 0
M  V30 1473 H 135.014 -1.35052 -0.638859 0
M  V30 1474 H 136.896 -1.92326 -3.74952 0
M  V30 1475 H 135.571 -0.916137 -3.10465 0
M  V30 1476 H 134.478 -3.04068 -2.1793 0
M  V30 1477 H 135.811 -3.9891 -2.88326 0
M  V30 1478 N 137.463 0.71206 -1.40597 0
M  V30 1479 C 138.688 1.50617 -1.42581 0
M  V30 1480 C 139.113 1.88079 -0.0282102 0
M  V30 1481 O 138.471 1.53511 0.964579 0
M  V30 1482 C 138.519 2.7557 -2.3258 0
M  V30 1483 O 137.623 3.72414 -1.77148 0
M  V30 1484 H 136.964 0.453966 -0.484573 0
M  V30 1485 H 139.494 0.876649 -1.84868 0
M  V30 1486 H 139.504 3.2406 -2.47889 0
M  V30 1487 H 138.179 2.47639 -3.34138 0
M  V30 1488 H 136.756 3.31276 -1.71204 0
M  V30 1489 N 138.941 1.26152 0.944643 0
M  V30 1490 C 139.891 1.04081 2.02857 0
M  V30 1491 C 140.875 -0.0256555 1.6088 0
M  V30 1492 O 142.067 0.190884 1.75968 0
M  V30 1493 C 139.196 0.672118 3.36656 0
M  V30 1494 C 138.282 1.77586 3.85128 0
M  V30 1495 N 138.673 3.01272 4.06287 0
M  V30 1496 C 136.971 1.65867 4.1401 0
M  V30 1497 C 137.672 3.72983 4.46384 0
M  V30 1498 N 136.648 3.00653 4.52889 0
M  V30 1499 H 140.45 1.97968 2.17223 0
M  V30 1500 H 137.964 1.16618 1.13022 0
M  V30 1501 H 139.961 0.495166 4.13949 0
M  V30 1502 H 138.621 -0.259307 3.23663 0
M  V30 1503 H 139.632 3.37213 3.93075 0
M  V30 1504 H 136.309 0.796907 4.09824 0
M  V30 1505 H 137.699 4.792 4.70975 0
M  V30 1506 N 140.419 -1.14872 1.07899 0
M  V30 1507 C 141.644 -1.90202 0.826926 0
M  V30 1508 C 142.069 -1.77774 -0.614664 0
M  V30 1509 O 141.427 -1.11431 -1.43013 0
M  V30 1510 C 141.475 -3.38352 1.24702 0
M  V30 1511 O 140.579 -4.10497 0.39575 0
M  V30 1512 H 139.92 -0.591968 0.300782 0
M  V30 1513 H 142.45 -1.45437 1.43907 0
M  V30 1514 H 142.46 -3.89156 1.22563 0
M  V30 1515 H 141.135 -3.46715 2.29698 0
M  V30 1516 H 139.712 -3.69796 0.480117 0
M  V30 1517 N 141.898 -0.863906 -1.31812 0
M  V30 1518 C 143.145 -0.471836 -1.96926 0
M  V30 1519 C 143.473 0.974578 -1.68322 0
M  V30 1520 O 142.728 1.7003 -0.968933 0
M  V30 1521 C 143.027 -0.668547 -3.51091 0
M  V30 1522 C 142.693 -2.08683 -3.99703 0
M  V30 1523 C 141.355 -2.47471 -4.12688 0
M  V30 1524 C 143.707 -3.01207 -4.25351 0
M  V30 1525 C 141.035 -3.78037 -4.4867 0
M  V30 1526 C 143.387 -4.31282 -4.62794 0
M  V30 1527 C 142.051 -4.69992 -4.73987 0
M  V30 1528 H 141.321 -0.172657 -0.720604 0
M  V30 1529 H 143.968 -1.09573 -1.57054 0
M  V30 1530 H 142.273 0.0385252 -3.91781 0
M  V30 1531 H 143.97 -0.345102 -3.99512 0
M  V30 1532 H 140.56 -1.77566 -3.90087 0
M  V30 1533 H 144.744 -2.72469 -4.14819 0
M  V30 1534 H 140 -4.078 -4.55532 0
M  V30 1535 H 144.174 -5.03031 -4.81594 0
M  V30 1536 H 141.801 -5.71207 -5.01624 0
M  V30 1537 N 143.376 1.44774 -0.622745 0
M  V30 1538 C 144.606 2.06187 -0.130532 0
M  V30 1539 C 145.014 1.46547 1.19669 0
M  V30 1540 O 144.357 0.579636 1.74316 0
M  V30 1541 C 144.419 3.59437 0.0674983 0
M  V30 1542 C 144.083 4.41496 -1.18026 0
M  V30 1543 C 145.08 4.75512 -2.102 0
M  V30 1544 C 142.765 4.82007 -1.41333 0
M  V30 1545 C 144.759 5.48912 -3.23998 0
M  V30 1546 C 142.446 5.55157 -2.55429 0
M  V30 1547 C 143.444 5.88528 -3.46589 0
M  V30 1548 O 143.132 6.60191 -4.58697 0
M  V30 1549 H 142.864 0.672045 -0.0730162 0
M  V30 1550 H 145.418 1.86768 -0.854802 0
M  V30 1551 H 143.648 3.77314 0.846825 0
M  V30 1552 H 145.337 4.02642 0.513209 0
M  V30 1553 H 146.103 4.4476 -1.93425 0
M  V30 1554 H 141.982 4.55457 -0.712709 0
M  V30 1555 H 145.526 5.74877 -3.95174 0
M  V30 1556 H 141.423 5.85324 -2.72151 0
M  V30 1557 H 142.191 6.78654 -4.57571 0
M  V30 1558 N 144.854 0.36279 1.53368 0
M  V30 1559 C 145.802 -0.500155 2.27159 0
M  V30 1560 C 146.796 -1.08575 1.3003 0
M  V30 1561 O 148.002 -1.02927 1.47668 0
M  V30 1562 H 144.377 -0.180009 0.730138 0
M  V30 1563 H 146.348 0.14401 2.98052 0
M  V30 1564 C 145.097 -1.62937 3.07159 0
M  V30 1565 H 144.42 -1.18806 3.8174 0
M  V30 1566 H 145.86 -2.20795 3.61975 0
M  V30 1567 C 144.319 -2.57007 2.17829 0
M  V30 1568 O 144.849 -3.59752 1.78721 0
M  V30 1569 N 143.055 -2.26131 1.82518 0
M  V30 1570 H 142.602 -1.42616 2.14519 0
M  V30 1571 H 142.56 -2.89327 1.23034 0
M  V30 1572 N 146.332 -1.57332 0.0918853 0
M  V30 1573 C 147.262 -2.16872 -0.865371 0
M  V30 1574 C 148.243 -1.10118 -1.29646 0
M  V30 1575 O 149.428 -1.38242 -1.36392 0
M  V30 1576 C 146.558 -2.74649 -2.12569 0
M  V30 1577 C 145.512 -3.86747 -1.83333 0
M  V30 1578 C 144.838 -4.31212 -3.16166 0
M  V30 1579 C 146.138 -5.10089 -1.1228 0
M  V30 1580 H 147.832 -2.97114 -0.369307 0
M  V30 1581 H 145.378 -1.42918 -0.176194 0
M  V30 1582 H 147.331 -3.14952 -2.7997 0
M  V30 1583 H 146.055 -1.91657 -2.64452 0
M  V30 1584 H 144.714 -3.46978 -1.18331 0
M  V30 1585 H 144.362 -3.45115 -3.6593 0
M  V30 1586 H 144.062 -5.06788 -2.97388 0
M  V30 1587 H 145.586 -4.74146 -3.84731 0
M  V30 1588 H 147 -5.47582 -1.69785 0
M  V30 1589 H 145.397 -5.91073 -1.03693 0
M  V30 1590 H 146.467 -4.84786 -0.105041 0
M  V30 1591 N 147.81 0.181792 -1.56548 0
M  V30 1592 C 149.035 0.920019 -1.85877 0
M  V30 1593 C 149.46 1.75494 -0.677021 0
M  V30 1594 O 148.818 1.77399 0.374056 0
M  V30 1595 C 148.866 1.78112 -3.13542 0
M  V30 1596 O 147.97 2.88152 -2.95029 0
M  V30 1597 H 147.311 0.258334 -0.611686 0
M  V30 1598 H 149.841 0.183092 -2.03779 0
M  V30 1599 H 149.851 2.18314 -3.44678 0
M  V30 1600 H 148.526 1.16777 -3.99169 0
M  V30 1601 H 147.103 2.51609 -2.75222 0
M  V30 1602 N 149.288 1.51039 0.449983 0
M  V30 1603 C 150.235 1.71439 1.54523 0
M  V30 1604 C 151.205 0.555871 1.56522 0
M  V30 1605 O 152.39 0.788871 1.73728 0
M  V30 1606 C 149.53 1.83384 2.92343 0
M  V30 1607 C 148.643 3.10873 2.9997 0
M  V30 1608 C 147.778 3.13488 4.28834 0
M  V30 1609 C 146.817 4.35343 4.30282 0
M  V30 1610 N 145.954 4.35579 5.5065 0
M  V30 1611 H 150.794 2.64934 1.36433 0
M  V30 1612 H 148.331 1.31312 0.662982 0
M  V30 1613 H 150.289 1.88291 3.72293 0
M  V30 1614 H 148.919 0.933086 3.0902 0
M  V30 1615 H 147.971 3.15336 2.12761 0
M  V30 1616 H 149.283 4.00814 2.96901 0
M  V30 1617 H 148.437 3.17241 5.17149 0
M  V30 1618 H 147.176 2.21414 4.34543 0
M  V30 1619 H 146.181 4.3178 3.40362 0
M  V30 1620 H 147.406 5.28668 4.26248 0
M  V30 1621 H 145.352 3.46369 5.57104 0
M  V30 1622 H 145.269 5.19313 5.49409 0
M  V30 1623 H 146.537 4.43507 6.41032 0
M  V30 1624 N 150.766 -0.704594 1.40972 0
M  V30 1625 C 152.012 -1.46675 1.40051 0
M  V30 1626 C 152.345 -1.94199 0.00641102 0
M  V30 1627 O 151.62 -1.68916 -0.964235 0
M  V30 1628 C 151.903 -2.68505 2.39952 0
M  V30 1629 C 151.756 -2.26805 3.88432 0
M  V30 1630 C 153.075 -3.70686 2.37233 0
M  V30 1631 H 150.194 -0.532015 0.510028 0
M  V30 1632 H 152.836 -0.803255 1.72185 0
M  V30 1633 H 150.986 -3.25114 2.1268 0
M  V30 1634 H 152.658 -1.75592 4.26574 0
M  V30 1635 H 150.901 -1.58685 4.03734 0
M  V30 1636 H 151.572 -3.14181 4.53866 0
M  V30 1637 H 154.048 -3.23731 2.61415 0
M  V30 1638 H 152.924 -4.53553 3.09162 0
M  V30 1639 H 153.185 -4.19754 1.38777 0
M  V30 1640 N 152.244 -1.26651 -0.937939 0
M  V30 1641 C 153.472 -1.15173 -1.7188 0
M  V30 1642 C 153.887 0.292668 -1.86518 0
M  V30 1643 O 153.244 1.20014 -1.37488 0
M  V30 1644 C 153.295 -1.81925 -3.12387 0
M  V30 1645 O 153.016 -3.2072 -2.98446 0
M  V30 1646 C 154.517 -1.76442 -4.06673 0
M  V30 1647 H 151.737 -0.400911 -0.538063 0
M  V30 1648 H 154.281 -1.67332 -1.1756 0
M  V30 1649 H 152.436 -1.33696 -3.63599 0
M  V30 1650 H 152.85 -3.53802 -3.872 0
M  V30 1651 H 154.324 -2.27781 -5.02812 0
M  V30 1652 H 154.801 -0.731608 -4.33064 0
M  V30 1653 H 155.407 -2.24238 -3.61382 0
M  V30 1654 N 153.722 1.14298 -1.08507 0
M  V30 1655 C 154.672 2.17449 -0.685569 0
M  V30 1656 C 155.656 1.58167 0.295315 0
M  V30 1657 O 156.848 1.76675 0.107172 0
M  V30 1658 C 153.977 3.43161 -0.0975318 0
M  V30 1659 C 153.063 4.09471 -1.10426 0
M  V30 1660 N 153.454 4.51089 -2.28806 0
M  V30 1661 C 151.752 4.35976 -0.940258 0
M  V30 1662 C 152.453 5.02654 -2.9277 0
M  V30 1663 N 151.429 4.96927 -2.20374 0
M  V30 1664 H 155.231 2.47369 -1.587 0
M  V30 1665 H 152.745 1.30992 -0.959936 0
M  V30 1666 H 154.742 4.16388 0.20664 0
M  V30 1667 H 153.402 3.14719 0.798872 0
M  V30 1668 H 154.413 4.44097 -2.66455 0
M  V30 1669 H 151.09 4.17386 -0.0977441 0
M  V30 1670 H 152.48 5.44723 -3.93352 0
M  V30 1671 N 155.201 0.870884 1.31352 0
M  V30 1672 C 156.45 0.478408 1.95944 0
M  V30 1673 C 156.763 -0.974493 1.69597 0
M  V30 1674 O 157.969 -1.47316 2.28058 0
M  V30 1675 C 156.425 0.804609 3.50791 0
M  V30 1676 C 156.033 2.27433 3.85977 0
M  V30 1677 C 157.777 0.480648 4.2177 0
M  V30 1678 C 155.684 2.5429 5.33939 0
M  V30 1679 H 154.614 0.175175 0.733369 0
M  V30 1680 H 157.265 1.06391 1.4951 0
M  V30 1681 H 155.647 0.148347 3.95722 0
M  V30 1682 H 156.821 2.97373 3.52002 0
M  V30 1683 H 155.136 2.56442 3.28065 0
M  V30 1684 H 157.733 0.658519 5.30629 0
M  V30 1685 H 158.076 -0.578979 4.12254 0
M  V30 1686 H 158.609 1.09349 3.82476 0
M  V30 1687 H 155.348 3.58939 5.48491 0
M  V30 1688 H 154.868 1.88945 5.69263 0
M  V30 1689 H 156.547 2.39066 6.01212 0
M  V30 1690 N 156.679 -1.44442 0.630414 0
M  V30 1691 C 157.589 -2.34476 -0.0761693 0
M  V30 1692 C 158.605 -1.52576 -0.836449 0
M  V30 1693 O 159.781 -1.85307 -0.788874 0
M  V30 1694 C 156.846 -3.30545 -1.04599 0
M  V30 1695 C 155.907 -4.28352 -0.28516 0
M  V30 1696 C 155.14 -5.19831 -1.20878 0
M  V30 1697 O 155.363 -5.15223 -2.44747 0
M  V30 1698 O 154.297 -5.97892 -0.693491 0
M  V30 1699 H 158.123 -2.96345 0.664324 0
M  V30 1700 H 155.708 -1.44203 0.39061 0
M  V30 1701 H 157.59 -3.89681 -1.60396 0
M  V30 1702 H 156.265 -2.7121 -1.76711 0
M  V30 1703 H 155.172 -3.72764 0.315837 0
M  V30 1704 H 156.505 -4.90605 0.395924 0
M  V30 1705 N 158.157 -0.370918 -1.53173 0
M  V30 1706 C 159.406 0.218249 -2.00516 0
M  V30 1707 C 159.719 1.49429 -1.26215 0
M  V30 1708 O 160.925 2.16239 -1.64174 0
M  V30 1709 C 159.381 0.43948 -3.57207 0
M  V30 1710 C 158.989 -0.822244 -4.4039 0
M  V30 1711 C 160.733 0.986012 -4.1289 0
M  V30 1712 C 158.64 -0.570304 -5.88644 0
M  V30 1713 H 157.57 0.0853333 -0.749156 0
M  V30 1714 H 160.221 -0.490483 -1.76823 0
M  V30 1715 H 158.603 1.20961 -3.77074 0
M  V30 1716 H 159.777 -1.59557 -4.32294 0
M  V30 1717 H 158.092 -1.29238 -3.95836 0
M  V30 1718 H 160.689 1.18991 -5.21292 0
M  V30 1719 H 161.032 1.94972 -3.6782 0
M  V30 1720 H 161.565 0.27592 -3.96842 0
M  V30 1721 H 158.304 -1.50449 -6.38001 0
M  V30 1722 H 157.824 0.164427 -5.99575 0
M  V30 1723 H 159.503 -0.19784 -6.46697 0
M  V30 1724 N 159.635 1.57281 -0.100228 0
M  V30 1725 C 161.051 1.57527 0.256416 0
M  V30 1726 C 161.251 1.11173 1.68056 0
M  V30 1727 O 160.307 0.79053 2.39806 0
M  V30 1728 C 161.62 3.00673 0.0401747 0
M  V30 1729 C 163.168 3.12815 0.107528 0
M  V30 1730 C 163.643 4.57929 -0.0807834 0
M  V30 1731 N 165.134 4.63193 -0.0261207 0
M  V30 1732 C 165.869 5.73212 -0.146999 0
M  V30 1733 N 165.365 6.92047 -0.322999 0
M  V30 1734 N 167.158 5.62031 -0.0879044 0
M  V30 1735 H 159.309 1.85718 -1.03065 0
M  V30 1736 H 161.572 0.857446 -0.404339 0
M  V30 1737 H 161.278 3.38804 -0.943649 0
M  V30 1738 H 161.152 3.69042 0.780262 0
M  V30 1739 H 163.539 2.74554 1.08186 0
M  V30 1740 H 163.62 2.47028 -0.664134 0
M  V30 1741 H 163.264 4.96886 -1.05201 0
M  V30 1742 H 163.194 5.21783 0.710635 0
M  V30 1743 H 165.685 3.77748 0.107161 0
M  V30 1744 H 165.998 7.7173 -0.406608 0
M  V30 1745 H 164.343 6.94074 -0.358733 0
M  V30 1746 H 167.534 4.68075 0.048498 0
M  V30 1747 H 167.707 6.47734 -0.185557 0
M  V30 1748 N 161.113 -0.173488 1.56642 0
M  V30 1749 C 162.061 -1.23417 1.97157 0
M  V30 1750 C 163.055 -1.45946 0.860013 0
M  V30 1751 O 164.261 -1.46551 1.04512 0
M  V30 1752 H 160.636 -0.414818 0.62724 0
M  V30 1753 H 162.607 -0.865582 2.8557 0
M  V30 1754 C 161.356 -2.5665 2.34576 0
M  V30 1755 H 160.679 -2.40137 3.19647 0
M  V30 1756 H 162.119 -3.2956 2.6677 0
M  V30 1757 C 160.578 -3.15245 1.18836 0
M  V30 1758 O 161.108 -3.98883 0.474869 0
M  V30 1759 N 159.314 -2.74303 0.959497 0
M  V30 1760 H 158.861 -2.0639 1.54146 0
M  V30 1761 H 158.819 -3.13844 0.186932 0
M  V30 1762 N 162.591 -1.51276 -0.441967 0
M  V30 1763 C 163.819 -1.67516 -1.21434 0
M  V30 1764 C 164.234 -0.37055 -1.85128 0
M  V30 1765 O 163.591 0.650498 -1.70513 0
M  V30 1766 C 163.642 -2.78748 -2.30177 0
M  V30 1767 O 163.363 -4.04154 -1.69089 0
M  V30 1768 C 164.864 -3.06217 -3.20541 0
M  V30 1769 H 162.084 -0.562276 -0.366178 0
M  V30 1770 H 164.628 -1.97666 -0.524244 0
M  V30 1771 H 162.783 -2.5121 -2.94911 0
M  V30 1772 H 163.197 -4.65894 -2.40922 0
M  V30 1773 H 164.671 -3.8764 -3.92987 0
M  V30 1774 H 165.148 -2.18439 -3.81026 0
M  V30 1775 H 165.754 -3.35397 -2.61513 0
M  V30 1776 N 164.069 0.697108 -1.41344 0
M  V30 1777 C 165.485 1.00751 -1.2378 0
M  V30 1778 C 165.685 2.01105 -0.126066 0
M  V30 1779 O 164.741 2.47295 0.51004 0
M  V30 1780 C 166.054 1.53359 -2.58653 0
M  V30 1781 C 167.602 1.6525 -2.65822 0
M  V30 1782 C 168.077 2.2126 -4.01009 0
M  V30 1783 N 169.568 2.28622 -4.02847 0
M  V30 1784 C 170.303 2.72984 -5.04249 0
M  V30 1785 N 169.799 3.16962 -6.16041 0
M  V30 1786 N 171.592 2.72534 -4.91611 0
M  V30 1787 H 163.743 0.0322662 -2.12375 0
M  V30 1788 H 166.006 0.0768853 -0.944877 0
M  V30 1789 H 165.712 0.870773 -3.4075 0
M  V30 1790 H 165.586 2.51597 -2.81032 0
M  V30 1791 H 167.973 2.30644 -1.84086 0
M  V30 1792 H 168.054 0.655614 -2.47256 0
M  V30 1793 H 167.698 1.56482 -4.83193 0
M  V30 1794 H 167.628 3.21698 -4.16915 0
M  V30 1795 H 170.119 1.97585 -3.22131 0
M  V30 1796 H 170.432 3.49434 -6.89287 0
M  V30 1797 H 168.777 3.14875 -6.1958 0
M  V30 1798 H 171.968 2.37525 -4.0336 0
M  V30 1799 H 172.141 3.06789 -5.70775 0
M  V30 1800 N 165.547 1.27147 0.931209 0
M  V30 1801 C 166.495 1.09398 2.05268 0
M  V30 1802 C 167.489 0.0180591 1.6939 0
M  V30 1803 O 168.695 0.17551 1.79142 0
M  V30 1804 H 165.07 0.336986 0.672268 0
M  V30 1805 H 167.041 2.04416 2.17386 0
M  V30 1806 C 165.79 0.75424 3.39421 0
M  V30 1807 H 165.113 1.57404 3.67511 0
M  V30 1808 H 166.553 0.669903 4.18674 0
M  V30 1809 C 165.012 -0.541197 3.32525 0
M  V30 1810 O 165.542 -1.57664 3.69466 0
M  V30 1811 N 163.748 -0.535517 2.85623 0
M  V30 1812 H 163.295 0.307511 2.55758 0
M  V30 1813 H 163.253 -1.40236 2.81392 0
M  V30 1814 N 167.025 -1.13721 1.09112 0
M  V30 1815 C 167.955 -2.21148 0.749385 0
M  V30 1816 C 168.936 -1.6792 -0.271475 0
M  V30 1817 O 170.121 -1.93693 -0.140251 0
M  V30 1818 C 167.251 -3.46905 0.165659 0
M  V30 1819 C 166.205 -4.13203 1.11567 0
M  V30 1820 C 165.531 -5.33248 0.393809 0
M  V30 1821 C 166.831 -4.60912 2.45678 0
M  V30 1822 H 168.525 -2.4999 1.64758 0
M  V30 1823 H 166.071 -1.20156 0.793626 0
M  V30 1824 H 168.024 -4.21313 -0.085466 0
M  V30 1825 H 166.748 -3.17449 -0.767714 0
M  V30 1826 H 165.407 -3.40758 1.35202 0
M  V30 1827 H 165.055 -5.00054 -0.543599 0
M  V30 1828 H 164.755 -5.78552 1.02721 0
M  V30 1829 H 166.279 -6.10413 0.150908 0
M  V30 1830 H 167.693 -5.26759 2.26269 0
M  V30 1831 H 166.09 -5.16944 3.04776 0
M  V30 1832 H 167.16 -3.75603 3.06677 0
M  V30 1833 N 168.503 -0.877838 -1.30888 0
M  V30 1834 C 169.731 -0.507414 -2.00581 0
M  V30 1835 C 170.146 0.902216 -1.65848 0
M  V30 1836 O 169.503 1.59225 -0.891831 0
M  V30 1837 C 169.554 -0.664162 -3.55347 0
M  V30 1838 O 169.275 -2.01829 -3.8884 0
M  V30 1839 C 170.776 -0.295787 -4.42312 0
M  V30 1840 H 167.996 -0.196866 -0.641471 0
M  V30 1841 H 170.54 -1.18117 -1.66939 0
M  V30 1842 H 168.695 -0.0378619 -3.87381 0
M  V30 1843 H 169.109 -2.03174 -4.8355 0
M  V30 1844 H 170.583 -0.456388 -5.5011 0
M  V30 1845 H 171.06 0.765663 -4.32475 0
M  V30 1846 H 171.666 -0.898113 -4.15709 0
M  V30 1847 N 169.982 1.44106 -0.638065 0
M  V30 1848 C 171.212 2.06037 -0.152394 0
M  V30 1849 C 171.62 1.47808 1.18108 0
M  V30 1850 O 170.963 0.598092 1.73691 0
M  V30 1851 C 171.025 3.59488 0.0293714 0
M  V30 1852 C 170.689 4.4022 -1.22702 0
M  V30 1853 C 171.686 4.73256 -2.15232 0
M  V30 1854 C 169.371 4.8048 -1.46437 0
M  V30 1855 C 171.365 5.45444 -3.29802 0
M  V30 1856 C 169.052 5.52417 -2.61303 0
M  V30 1857 C 170.05 5.84819 -3.52811 0
M  V30 1858 O 169.738 6.55289 -4.65673 0
M  V30 1859 H 169.47 0.671233 -0.0801401 0
M  V30 1860 H 172.024 1.85851 -0.874563 0
M  V30 1861 H 170.254 3.78191 0.806758 0
M  V30 1862 H 171.943 4.03164 0.470475 0
M  V30 1863 H 172.709 4.42684 -1.98131 0
M  V30 1864 H 168.588 4.54676 -0.760977 0
M  V30 1865 H 172.132 5.70653 -4.01249 0
M  V30 1866 H 168.029 5.82404 -2.78344 0
M  V30 1867 H 168.797 6.73762 -4.64744 0
M  V30 1868 N 171.46 0.379036 1.52974 0
M  V30 1869 C 172.709 -0.207612 2.00629 0
M  V30 1870 C 173.022 -1.48758 1.27006 0
M  V30 1871 O 174.228 -2.15365 1.65318 0
M  V30 1872 C 172.684 -0.42053 3.57435 0
M  V30 1873 C 172.292 0.845587 4.39948 0
M  V30 1874 C 174.036 -0.964102 4.13407 0
M  V30 1875 C 171.943 0.601513 5.88333 0
M  V30 1876 H 170.873 -0.0813591 0.749598 0
M  V30 1877 H 173.524 0.499853 1.76561 0
M  V30 1878 H 171.906 -1.18959 3.7771 0
M  V30 1879 H 173.08 1.61848 4.31442 0
M  V30 1880 H 171.395 1.31336 3.95145 0
M  V30 1881 H 173.992 -1.16225 5.21916 0
M  V30 1882 H 174.335 -1.93019 3.68849 0
M  V30 1883 H 174.868 -0.25487 3.96983 0
M  V30 1884 H 171.607 1.53831 6.37194 0
M  V30 1885 H 171.127 -0.132628 5.99653 0
M  V30 1886 H 172.806 0.232134 6.46583 0
M  V30 1887 N 172.938 -1.57226 0.108567 0
M  V30 1888 C 174.215 -1.86333 -0.594939 0
M  V30 1889 C 174.595 -1.00788 -1.85486 0
M  V30 1890 O 173.943 -0.0839293 -2.28346 0
M  V30 1891 C 174.153 -3.37265 -0.897405 0
M  V30 1892 C 175.501 -4.05629 -1.25501 0
M  V30 1893 O 176.525 -3.42224 -0.987998 0
M  V30 1894 O 175.384 -5.17531 -1.75567 0
M  V30 1895 H 172.478 -0.771018 -0.2991 0
M  V30 1896 H 175.024 -1.69102 0.142283 0
M  V30 1897 H 173.796 -3.913 -0.00413806 0
M  V30 1898 H 173.419 -3.59889 -1.69014 0
M  V30 1899 N 174.416 0.165178 -1.56732 0
M  V30 1900 C 175.827 0.727046 -1.71962 0
M  V30 1901 C 176.178 1.82508 -0.720078 0
M  V30 1902 O 175.303 2.16082 0.117242 0
M  V30 1903 C 175.898 1.32559 -3.11791 0
M  V30 1904 C 174.457 1.83422 -3.28684 0
M  V30 1905 C 173.604 0.715567 -2.67908 0
M  V30 1906 H 176.555 -0.0602896 -1.58585 0
M  V30 1907 H 176.576 2.19533 -3.10782 0
M  V30 1908 H 176.088 0.526195 -3.84516 0
M  V30 1909 H 174.189 2.65986 -2.60926 0
M  V30 1910 H 174.302 1.97543 -4.36478 0
M  V30 1911 H 172.666 1.13758 -2.27884 0
M  V30 1912 H 173.449 -0.0720836 -3.43224 0
M  V30 1913 N 175.894 1.51508 0.433938 0
M  V30 1914 C 177.171 1.54888 1.19453 0
M  V30 1915 C 177.551 0.315154 2.08734 0
M  V30 1916 O 176.899 -0.699558 2.17528 0
M  V30 1917 C 177.109 2.86467 1.99342 0
M  V30 1918 C 178.457 3.38545 2.56267 0
M  V30 1919 O 179.481 2.88041 2.0955 0
M  V30 1920 O 178.34 4.26675 3.41483 0
M  V30 1921 H 175.434 0.622863 0.544032 0
M  V30 1922 H 177.98 1.63823 0.442732 0
M  V30 1923 H 176.752 3.67718 1.33788 0
M  V30 1924 H 176.375 2.8071 2.8158 0
M  V30 1925 N 177.372 -0.689602 1.41712 0
M  V30 1926 C 178.335 -1.78521 1.43746 0
M  V30 1927 C 179.335 -1.57436 0.327191 0
M  V30 1928 O 180.525 -1.64 0.587348 0
M  V30 1929 C 177.657 -3.16971 1.25467 0
M  V30 1930 H 178.85 -1.78108 2.41283 0
M  V30 1931 H 176.403 -0.89781 1.27942 0
M  V30 1932 H 177.138 -3.23019 0.287948 0
M  V30 1933 H 176.923 -3.33678 2.05917 0
M  V30 1934 H 178.413 -3.96935 1.2974 0
M  V30 1935 N 178.85 -1.27639 -0.924453 0
M  V30 1936 C 179.78 -1.13166 -2.04244 0
M  V30 1937 C 180.761 -0.032256 -1.70069 0
M  V30 1938 O 181.946 -0.207328 -1.9309 0
M  V30 1939 C 179.076 -0.781496 -3.38393 0
M  V30 1940 C 178.03 -1.83449 -3.86692 0
M  V30 1941 C 177.356 -1.33822 -5.17683 0
M  V30 1942 C 178.656 -3.23917 -4.09726 0
M  V30 1943 H 180.35 -2.06689 -2.1661 0
M  V30 1944 H 177.896 -0.995136 -1.04082 0
M  V30 1945 H 179.849 -0.667057 -4.16087 0
M  V30 1946 H 178.573 0.189439 -3.2605 0
M  V30 1947 H 177.232 -1.93789 -3.11193 0
M  V30 1948 H 176.88 -0.35665 -5.01734 0
M  V30 1949 H 176.58 -2.04224 -5.50968 0
M  V30 1950 H 178.104 -1.23679 -5.97943 0
M  V30 1951 H 179.518 -3.16559 -4.77978 0
M  V30 1952 H 177.915 -3.92059 -4.54324 0
M  V30 1953 H 178.985 -3.68729 -3.14908 0
M  V30 1954 N 180.328 1.1314 -1.09713 0
M  V30 1955 C 181.275 2.18642 -0.739196 0
M  V30 1956 C 182.245 1.63706 0.280978 0
M  V30 1957 O 183.43 1.90111 0.161946 0
M  V30 1958 C 180.57 3.44685 -0.169102 0
M  V30 1959 C 179.683 4.13711 -1.24367 0
M  V30 1960 C 178.818 5.27379 -0.636019 0
M  V30 1961 C 177.857 5.88259 -1.69169 0
M  V30 1962 N 176.994 6.93352 -1.10485 0
M  V30 1963 H 181.834 2.48607 -1.64312 0
M  V30 1964 H 179.371 1.22066 -0.820875 0
M  V30 1965 H 181.329 4.16815 0.179256 0
M  V30 1966 H 179.959 3.15161 0.698079 0
M  V30 1967 H 179.011 3.39835 -1.70927 0
M  V30 1968 H 180.323 4.55037 -2.04311 0
M  V30 1969 H 179.477 6.06238 -0.236677 0
M  V30 1970 H 178.216 4.8731 0.194928 0
M  V30 1971 H 177.221 5.08092 -2.10055 0
M  V30 1972 H 178.446 6.30399 -2.52536 0
M  V30 1973 H 176.392 6.55335 -0.295234 0
M  V30 1974 H 176.309 7.33236 -1.84121 0
M  V30 1975 H 177.577 7.76057 -0.73181 0
M  V30 1976 N 181.806 0.884767 1.30421 0
M  V30 1977 C 182.716 0.355398 2.31892 0
M  V30 1978 C 183.732 -0.542261 1.65335 0
M  V30 1979 O 184.908 -0.435432 1.96637 0
M  V30 1980 C 181.973 -0.421661 3.44126 0
M  V30 1981 C 181.034 0.505727 4.26311 0
M  V30 1982 C 180.267 -0.234343 5.33185 0
M  V30 1983 O 180.49 -1.46045 5.51386 0
M  V30 1984 O 179.424 0.415443 6.00465 0
M  V30 1985 H 183.25 1.19685 2.79122 0
M  V30 1986 H 180.835 0.648596 1.34587 0
M  V30 1987 H 182.717 -0.861641 4.12497 0
M  V30 1988 H 181.392 -1.23942 2.99032 0
M  V30 1989 H 180.299 0.994513 3.60639 0
M  V30 1990 H 181.632 1.28948 4.75009 0
M  V30 1991 N 183.284 -1.43765 0.645699 0
M  V30 1992 C 184.214 -2.33471 -0.0370477 0
M  V30 1993 C 185.195 -1.49042 -0.819779 0
M  V30 1994 O 186.38 -1.77726 -0.782758 0
M  V30 1995 C 183.51 -3.32311 -1.0093 0
M  V30 1996 C 182.464 -4.2667 -0.337201 0
M  V30 1997 C 181.79 -5.1549 -1.42037 0
M  V30 1998 C 183.09 -5.16657 0.765706 0
M  V30 1999 H 184.784 -2.90809 0.712069 0
M  V30 2000 H 182.33 -1.39834 0.343876 0
M  V30 2001 H 184.283 -3.9396 -1.49578 0
M  V30 2002 H 183.007 -2.73213 -1.78948 0
M  V30 2003 H 181.666 -3.66374 0.128771 0
M  V30 2004 H 181.314 -4.52735 -2.1918 0
M  V30 2005 H 181.014 -5.79438 -0.975966 0
M  V30 2006 H 182.538 -5.80012 -1.90838 0
M  V30 2007 H 183.952 -5.72158 0.361702 0
M  V30 2008 H 182.349 -5.89286 1.13413 0
M  V30 2009 H 183.419 -4.56796 1.62683 0
M  V30 2010 N 184.763 -0.387143 -1.52771 0
M  V30 2011 C 186.174 0.0873634 -1.86495 0
M  V30 2012 C 186.525 1.46336 -1.30691 0
M  V30 2013 O 185.65 2.068 -0.637409 0
M  V30 2014 C 186.245 0.165305 -3.38396 0
M  V30 2015 C 184.804 0.584101 -3.7184 0
M  V30 2016 C 183.951 -0.255279 -2.76122 0
M  V30 2017 H 186.902 -0.605104 -1.46711 0
M  V30 2018 H 186.923 0.984848 -3.67534 0
M  V30 2019 H 186.435 -0.836301 -3.78982 0
M  V30 2020 H 184.536 1.59315 -3.36823 0
M  V30 2021 H 184.649 0.343749 -4.77865 0
M  V30 2022 H 183.013 0.279126 -2.53166 0
M  V30 2023 H 183.796 -1.25482 -3.19545 0
M  V30 2024 N 186.241 1.57166 -0.116904 0
M  V30 2025 C 187.171 2.18222 0.830759 0
M  V30 2026 C 188.152 1.12167 1.27877 0
M  V30 2027 O 189.337 1.40394 1.34176 0
M  V30 2028 C 186.467 2.77996 2.08172 0
M  V30 2029 C 185.421 3.89614 1.77157 0
M  V30 2030 C 184.747 4.36187 3.09265 0
M  V30 2031 C 186.047 5.1181 1.04151 0
M  V30 2032 H 187.741 2.97664 0.321992 0
M  V30 2033 H 185.287 1.4318 0.153434 0
M  V30 2034 H 187.24 3.19366 2.74924 0
M  V30 2035 H 185.964 1.9584 2.6137 0
M  V30 2036 H 184.623 3.48816 1.12796 0
M  V30 2037 H 184.271 3.50893 3.60393 0
M  V30 2038 H 183.971 5.11455 2.89288 0
M  V30 2039 H 185.495 4.80207 3.77139 0
M  V30 2040 H 186.909 5.50214 1.61052 0
M  V30 2041 H 185.306 5.92648 0.942762 0
M  V30 2042 H 186.376 4.84892 0.0279022 0
M  V30 2043 N 187.719 -0.156864 1.56817 0
M  V30 2044 C 188.649 -1.19589 2.00551 0
M  V30 2045 C 189.63 -1.4536 0.883426 0
M  V30 2046 O 190.815 -1.56449 1.15054 0
M  V30 2047 C 187.945 -2.53143 2.37773 0
M  V30 2048 C 186.899 -2.41913 3.53075 0
M  V30 2049 C 186.225 -3.80088 3.76081 0
M  V30 2050 C 187.525 -1.91157 4.86062 0
M  V30 2051 H 189.219 -0.832293 2.87599 0
M  V30 2052 H 186.765 -0.398918 1.38364 0
M  V30 2053 H 188.718 -3.26047 2.66967 0
M  V30 2054 H 187.442 -2.91319 1.4765 0
M  V30 2055 H 186.101 -1.71462 3.24031 0
M  V30 2056 H 185.749 -4.15683 2.83225 0
M  V30 2057 H 185.449 -3.73439 4.53671 0
M  V30 2058 H 186.973 -4.54556 4.0769 0
M  V30 2059 H 188.387 -2.53846 5.14038 0
M  V30 2060 H 186.784 -1.95422 5.67389 0
M  V30 2061 H 187.854 -0.866673 4.77092 0
M  V30 2062 N 189.197 -1.51736 -0.425897 0
M  V30 2063 C 190.144 -1.73875 -1.51776 0
M  V30 2064 C 191.114 -0.580702 -1.55618 0
M  V30 2065 O 192.299 -0.81641 -1.72451 0
M  V30 2066 C 189.439 -1.88012 -2.89388 0
M  V30 2067 C 188.552 -3.15606 -2.94986 0
M  V30 2068 C 187.687 -3.20271 -4.23793 0
M  V30 2069 C 186.726 -4.42134 -4.23302 0
M  V30 2070 N 185.863 -4.44284 -5.43651 0
M  V30 2071 H 190.703 -2.67071 -1.32201 0
M  V30 2072 H 188.24 -1.32351 -0.642008 0
M  V30 2073 H 190.198 -1.9419 -3.69251 0
M  V30 2074 H 188.828 -0.98213 -3.07496 0
M  V30 2075 H 187.88 -3.18681 -2.07717 0
M  V30 2076 H 189.192 -4.05486 -2.90486 0
M  V30 2077 H 188.346 -3.25428 -5.12036 0
M  V30 2078 H 187.085 -2.28299 -4.30965 0
M  V30 2079 H 186.09 -4.3714 -3.3345 0
M  V30 2080 H 187.315 -5.35382 -4.17783 0
M  V30 2081 H 185.261 -3.55188 -5.51523 0
M  V30 2082 H 185.178 -5.27988 -5.41078 0
M  V30 2083 H 186.446 -4.53649 -6.33895 0
M  V30 2084 N 190.675 0.682077 -1.42076 0
M  V30 2085 C 191.922 1.44215 -1.42156 0
M  V30 2086 C 192.25 1.94468 -0.0354186 0
M  V30 2087 O 191.505 1.70816 0.955002 0
M  V30 2088 C 191.804 2.66036 -2.38662 0
M  V30 2089 C 191.47 2.34366 -3.85206 0
M  V30 2090 C 190.132 2.25439 -4.25124 0
M  V30 2091 C 192.484 2.08513 -4.77673 0
M  V30 2092 C 189.812 1.88775 -5.55501 0
M  V30 2093 C 192.164 1.73354 -6.08384 0
M  V30 2094 C 190.828 1.62933 -6.47309 0
M  V30 2095 H 190.098 0.527718 -0.520187 0
M  V30 2096 H 192.745 0.778387 -1.74967 0
M  V30 2097 H 191.05 3.3741 -1.99152 0
M  V30 2098 H 192.747 3.24205 -2.35991 0
M  V30 2099 H 189.337 2.42213 -3.53597 0
M  V30 2100 H 193.521 2.14346 -4.47626 0
M  V30 2101 H 188.777 1.7927 -5.84527 0
M  V30 2102 H 192.951 1.52373 -6.79526 0
M  V30 2103 H 190.578 1.34292 -7.48244 0
M  V30 2104 N 192.153 1.28127 0.917671 0
M  V30 2105 C 193.083 1.14248 2.03641 0
M  V30 2106 C 194.064 0.0412748 1.7005 0
M  V30 2107 O 195.249 0.217566 1.92977 0
M  V30 2108 C 192.379 0.799431 3.37974 0
M  V30 2109 C 191.333 1.85497 3.85713 0
M  V30 2110 C 190.659 1.36565 5.16966 0
M  V30 2111 C 191.959 3.26085 4.08002 0
M  V30 2112 H 193.653 2.07835 2.15511 0
M  V30 2113 H 191.199 1.00064 1.03553 0
M  V30 2114 H 193.152 0.689114 4.15727 0
M  V30 2115 H 191.876 -0.172145 3.26146 0
M  V30 2116 H 190.535 1.95437 3.10161 0
M  V30 2117 H 190.183 0.383253 5.01538 0
M  V30 2118 H 189.883 2.07143 5.49878 0
M  V30 2119 H 191.407 1.26848 5.97279 0
M  V30 2120 H 192.821 3.19089 4.76293 0
M  V30 2121 H 191.218 3.94462 4.52238 0
M  V30 2122 H 192.288 3.70394 3.12948 0
M  V30 2123 N 193.631 -1.12557 1.10312 0
M  V30 2124 C 194.879 -1.83675 0.843091 0
M  V30 2125 C 195.2 -1.84435 -0.633131 0
M  V30 2126 O 194.47 -1.30657 -1.45964 0
M  V30 2127 H 193.05 -0.680138 0.308904 0
M  V30 2128 H 195.712 -1.36301 1.39313 0
M  V30 2129 H 194.808 -2.87908 1.2048 0
M  V30 2130 N 195.109 -0.891671 -1.2995 0
M  V30 2131 C 196.358 -0.509521 -1.95158 0
M  V30 2132 C 196.671 0.947388 -1.71125 0
M  V30 2133 O 197.877 1.43669 -2.30372 0
M  V30 2134 C 196.333 -0.860315 -3.49466 0
M  V30 2135 C 195.941 -2.33545 -3.8231 0
M  V30 2136 C 197.685 -0.547687 -4.20952 0
M  V30 2137 C 195.592 -2.62752 -5.29826 0
M  V30 2138 H 194.522 -0.18682 -0.730489 0
M  V30 2139 H 197.173 -1.08756 -1.47798 0
M  V30 2140 H 195.555 -0.211285 -3.95436 0
M  V30 2141 H 196.729 -3.02936 -3.47227 0
M  V30 2142 H 195.044 -2.61629 -3.23944 0
M  V30 2143 H 197.641 -0.742854 -5.29515 0
M  V30 2144 H 197.984 0.51332 -4.13123 0
M  V30 2145 H 198.517 -1.1542 -3.80688 0
M  V30 2146 H 195.256 -3.6762 -5.42712 0
M  V30 2147 H 194.776 -1.97977 -5.66185 0
M  V30 2148 H 196.455 -2.48601 -5.97333 0
M  V30 2149 N 196.587 1.43421 -0.653314 0
M  V30 2150 C 197.834 2.01812 -0.166745 0
M  V30 2151 C 198.162 1.51535 1.21931 0
M  V30 2152 O 197.417 0.698975 1.82792 0
M  V30 2153 C 197.716 3.57176 -0.126623 0
M  V30 2154 C 197.382 4.26798 -1.45444 0
M  V30 2155 C 196.044 4.45534 -1.81805 0
M  V30 2156 C 198.396 4.66225 -2.32989 0
M  V30 2157 C 195.724 5.00961 -3.05377 0
M  V30 2158 C 198.076 5.23021 -3.55853 0
M  V30 2159 C 196.74 5.39973 -3.9241 0
M  V30 2160 H 196.01 0.738484 -0.0610162 0
M  V30 2161 H 198.657 1.71896 -0.84404 0
M  V30 2162 H 196.962 3.86634 0.634123 0
M  V30 2163 H 198.659 4.00112 0.266723 0
M  V30 2164 H 195.249 4.12561 -1.16153 0
M  V30 2165 H 199.433 4.51443 -2.06187 0
M  V30 2166 H 194.689 5.12271 -3.3375 0
M  V30 2167 H 198.863 5.52518 -4.23907 0
M  V30 2168 H 196.49 5.82687 -4.88242 0
M  V30 2169 N 198.065 0.39524 1.52563 0
M  V30 2170 C 199.013 -0.451859 2.28169 0
M  V30 2171 C 200.007 -1.05792 1.32304 0
M  V30 2172 O 201.213 -0.997718 1.49818 0
M  V30 2173 H 197.588 -0.164481 0.733792 0
M  V30 2174 H 199.559 0.207199 2.9768 0
M  V30 2175 C 198.308 -1.56385 3.10546 0
M  V30 2176 H 197.631 -1.10682 3.84174 0
M  V30 2177 H 199.071 -2.13067 3.66577 0
M  V30 2178 C 197.53 -2.52328 2.23231 0
M  V30 2179 O 198.06 -3.5588 1.86312 0
M  V30 2180 N 196.266 -2.22209 1.87274 0
M  V30 2181 H 195.813 -1.38033 2.17496 0
M  V30 2182 H 195.771 -2.86652 1.29143 0
M  V30 2183 N 199.544 -1.57102 0.125237 0
M  V30 2184 C 200.772 -1.99761 -0.538797 0
M  V30 2185 C 201.187 -1.00503 -1.59827 0
M  V30 2186 O 200.544 0.00119474 -1.825 0
M  V30 2187 C 200.595 -3.42408 -1.15927 0
M  V30 2188 O 200.316 -4.37869 -0.142143 0
M  V30 2189 C 201.817 -4.00232 -1.90602 0
M  V30 2190 H 199.037 -0.655772 -0.14214 0
M  V30 2191 H 201.581 -2.03383 0.213413 0
M  V30 2192 H 199.736 -3.39706 -1.86223 0
M  V30 2193 H 200.15 -5.21128 -0.593775 0
M  V30 2194 H 201.624 -5.02105 -2.29335 0
M  V30 2195 H 202.101 -3.39721 -2.78363 0
M  V30 2196 H 202.707 -4.06499 -1.25055 0
M  V30 2197 N 201.022 0.148545 -1.56898 0
M  V30 2198 C 202.27 0.859717 -1.82902 0
M  V30 2199 C 202.591 1.81775 -0.70588 0
M  V30 2200 O 201.861 1.93994 0.272586 0
M  V30 2201 H 200.441 0.320469 -0.674766 0
M  V30 2202 H 203.103 0.142918 -1.94375 0
M  V30 2203 H 202.199 1.4229 -2.77777 0
M  V30 2204 N 202.5 1.5196 0.417844 0
M  V30 2205 C 203.43 1.77634 1.51554 0
M  V30 2206 C 204.411 0.626918 1.58126 0
M  V30 2207 O 205.596 0.871632 1.7354 0
M  V30 2208 C 202.726 1.91911 2.8946 0
M  V30 2209 C 201.68 3.07463 2.97743 0
M  V30 2210 C 201.006 3.06951 4.37819 0
M  V30 2211 C 202.306 4.47082 2.70027 0
M  V30 2212 H 204 2.6955 1.3032 0
M  V30 2213 H 201.546 1.29706 0.625492 0
M  V30 2214 H 203.499 2.08455 3.6623 0
M  V30 2215 H 202.223 0.966598 3.11969 0
M  V30 2216 H 200.882 2.90656 2.23416 0
M  V30 2217 H 200.53 2.09438 4.57323 0
M  V30 2218 H 200.23 3.84556 4.44286 0
M  V30 2219 H 201.754 3.25613 5.16535 0
M  V30 2220 H 203.168 4.6414 3.36522 0
M  V30 2221 H 201.565 5.2654 2.87881 0
M  V30 2222 H 202.635 4.55777 1.65514 0
M  V30 2223 N 203.978 -0.674533 1.42435 0
M  V30 2224 C 204.925 -1.78807 1.45934 0
M  V30 2225 C 205.895 -1.63157 0.311271 0
M  V30 2226 O 207.08 -1.83707 0.515383 0
M  V30 2227 C 204.22 -3.16839 1.36773 0
M  V30 2228 C 203.333 -3.43774 2.61617 0
M  V30 2229 C 202.468 -4.71536 2.44597 0
M  V30 2230 C 201.507 -4.91505 3.64814 0
M  V30 2231 N 200.644 -6.10508 3.46734 0
M  V30 2232 H 205.484 -1.75151 2.41093 0
M  V30 2233 H 203.021 -0.85504 1.19697 0
M  V30 2234 H 204.979 -3.96606 1.29459 0
M  V30 2235 H 203.609 -3.19619 0.452089 0
M  V30 2236 H 202.661 -2.58259 2.79297 0
M  V30 2237 H 203.973 -3.54423 3.50978 0
M  V30 2238 H 203.127 -5.59393 2.3487 0
M  V30 2239 H 201.866 -4.6317 1.52726 0
M  V30 2240 H 200.871 -4.0209 3.74972 0
M  V30 2241 H 202.096 -5.01716 4.57665 0
M  V30 2242 H 200.042 -6.03315 2.5758 0
M  V30 2243 H 199.959 -6.2202 4.29682 0
M  V30 2244 H 201.227 -7.01044 3.40819 0
M  V30 2245 N 205.456 -1.28612 -0.910864 0
M  V30 2246 C 206.389 -1.07109 -2.01502 0
M  V30 2247 C 207.367 0.013706 -1.62594 0
M  V30 2248 O 208.551 -0.134796 -1.88017 0
M  V30 2249 C 205.678 -0.628255 -3.32822 0
M  V30 2250 C 204.724 -1.71012 -3.90714 0
M  V30 2251 S 205.557 -3.30676 -4.21205 0
M  V30 2252 C 206.713 -2.88234 -5.55583 0
M  V30 2253 H 206.946 -2.00591 -2.19432 0
M  V30 2254 H 204.479 -1.12633 -1.05609 0
M  V30 2255 H 206.437 -0.37946 -4.08742 0
M  V30 2256 H 205.098 0.28678 -3.12788 0
M  V30 2257 H 204.291 -1.35195 -4.85529 0
M  V30 2258 H 203.893 -1.91186 -3.21441 0
M  V30 2259 H 206.185 -2.34584 -6.35591 0
M  V30 2260 H 207.128 -3.81857 -5.96314 0
M  V30 2261 H 207.536 -2.26862 -5.16908 0
M  V30 2262 N 206.934 1.1197 -1.10907 0
M  V30 2263 C 208.181 1.83588 -0.854507 0
M  V30 2264 C 208.509 1.84357 0.6199 0
M  V30 2265 O 207.764 1.28809 1.47332 0
M  V30 2266 C 208.063 3.30749 -1.35425 0
M  V30 2267 C 207.729 3.50146 -2.84093 0
M  V30 2268 C 206.391 3.55148 -3.2469 0
M  V30 2269 C 208.743 3.56857 -3.79872 0
M  V30 2270 C 206.071 3.6441 -4.59806 0
M  V30 2271 C 208.423 3.6765 -5.14797 0
M  V30 2272 C 207.087 3.7091 -5.54961 0
M  V30 2273 H 206.357 0.671795 -0.312686 0
M  V30 2274 H 209.004 1.32091 -1.38652 0
M  V30 2275 H 207.309 3.84703 -0.742361 0
M  V30 2276 H 209.006 3.8464 -1.1337 0
M  V30 2277 H 205.596 3.46919 -2.51685 0
M  V30 2278 H 209.78 3.52258 -3.49611 0
M  V30 2279 H 205.036 3.65208 -4.9034 0
M  V30 2280 H 209.21 3.71786 -5.88853 0
M  V30 2281 H 206.837 3.7784 -6.59652 0
M  V30 2282 N 208.412 0.89855 1.29475 0
M  V30 2283 C 209.823 0.572537 1.77705 0
M  V30 2284 C 210.174 -0.911778 1.73727 0
M  V30 2285 O 209.299 -1.71288 1.32247 0
M  V30 2286 C 209.894 1.03252 3.22683 0
M  V30 2287 C 208.453 0.757687 3.68695 0
M  V30 2288 C 207.6 1.20787 2.49612 0
M  V30 2289 H 210.551 1.08139 1.16153 0
M  V30 2290 H 210.572 0.367307 3.78723 0
M  V30 2291 H 210.084 2.11285 3.25546 0
M  V30 2292 H 208.185 -0.310079 3.71308 0
M  V30 2293 H 208.298 1.35476 4.59547 0
M  V30 2294 H 206.662 0.626888 2.46865 0
M  V30 2295 H 207.445 2.29622 2.55203 0
M  V30 2296 N 209.89 -1.43072 0.660911 0
M  V30 2297 C 211.167 -1.95307 0.107017 0
M  V30 2298 C 211.547 -1.60192 -1.37484 0
M  V30 2299 O 210.895 -0.890949 -2.10415 0
M  V30 2300 C 211.105 -3.47124 0.361402 0
M  V30 2301 C 212.453 -4.23738 0.270455 0
M  V30 2302 O 213.477 -3.54981 0.294382 0
M  V30 2303 O 212.336 -5.46131 0.200737 0
M  V30 2304 H 209.43 -0.826984 -0.00517729 0
M  V30 2305 H 211.976 -1.52972 0.734681 0
M  V30 2306 H 210.748 -3.65837 1.38848 0
M  V30 2307 H 210.371 -3.96475 -0.298953 0
M  V30 2308 N 211.368 -0.403325 -1.52352 0
M  V30 2309 C 212.298 0.416205 -2.29761 0
M  V30 2310 C 213.279 1.05123 -1.33728 0
M  V30 2311 O 214.464 1.06134 -1.62632 0
M  V30 2312 C 211.594 1.53624 -3.11475 0
M  V30 2313 C 210.548 1.02653 -4.15507 0
M  V30 2314 C 209.874 2.23971 -4.85532 0
M  V30 2315 C 211.174 0.08463 -5.22231 0
M  V30 2316 H 212.868 -0.229701 -2.98518 0
M  V30 2317 H 210.414 -0.111913 -1.43564 0
M  V30 2318 H 212.367 2.1165 -3.64393 0
M  V30 2319 H 211.091 2.20994 -2.40477 0
M  V30 2320 H 209.75 0.46871 -3.63591 0
M  V30 2321 H 209.398 2.89883 -4.11068 0
M  V30 2322 H 209.098 1.90521 -5.55856 0
M  V30 2323 H 210.622 2.82614 -5.41259 0
M  V30 2324 H 212.036 0.573509 -5.70424 0
M  V30 2325 H 210.433 -0.160783 -5.99885 0
M  V30 2326 H 211.503 -0.86237 -4.7717 0
M  V30 2327 N 212.846 1.57033 -0.133567 0
M  V30 2328 C 214.074 2.00044 0.528195 0
M  V30 2329 C 214.489 1.01349 1.59291 0
M  V30 2330 O 213.846 0.00848369 1.82498 0
M  V30 2331 C 213.897 3.43018 1.1411 0
M  V30 2332 O 213.618 4.37939 0.11892 0
M  V30 2333 C 215.119 4.01237 1.88477 0
M  V30 2334 H 212.339 0.656517 0.138661 0
M  V30 2335 H 214.883 2.03267 -0.224196 0
M  V30 2336 H 213.038 3.40688 1.84418 0
M  V30 2337 H 213.452 5.21436 0.56613 0
M  V30 2338 H 214.926 5.03314 2.26669 0
M  V30 2339 H 215.403 3.41193 2.76558 0
M  V30 2340 H 216.009 4.07156 1.22898 0
M  V30 2341 N 214.325 -0.140222 1.56975 0
M  V30 2342 C 215.272 -1.17292 1.98774 0
M  V30 2343 C 216.242 -1.4232 0.856408 0
M  V30 2344 O 217.427 -1.54541 1.119 0
M  V30 2345 C 214.567 -2.49973 2.37923 0
M  V30 2346 C 213.68 -2.32062 3.64378 0
M  V30 2347 C 212.815 -3.57825 3.926 0
M  V30 2348 C 211.854 -3.3498 5.12303 0
M  V30 2349 N 210.991 -4.52891 5.36502 0
M  V30 2350 H 215.831 -0.809472 2.86795 0
M  V30 2351 H 213.368 -0.388237 1.41884 0
M  V30 2352 H 215.326 -3.27346 2.58652 0
M  V30 2353 H 213.956 -2.84252 1.52972 0
M  V30 2354 H 213.008 -1.45711 3.51387 0
M  V30 2355 H 214.32 -2.11145 4.51906 0
M  V30 2356 H 213.474 -4.43624 4.13863 0
M  V30 2357 H 212.213 -3.81753 3.03506 0
M  V30 2358 H 211.218 -2.4757 4.90906 0
M  V30 2359 H 212.443 -3.12444 6.02956 0
M  V30 2360 H 210.389 -4.76979 4.50363 0
M  V30 2361 H 210.306 -4.35001 6.18312 0
M  V30 2362 H 211.574 -5.39884 5.62268 0
M  V30 2363 N 215.803 -1.52179 -0.40978 0
M  V30 2364 C 217.049 -1.66453 -1.15851 0
M  V30 2365 C 217.382 -0.392972 -1.90182 0
M  V30 2366 O 216.657 0.608579 -1.84734 0
M  V30 2367 C 216.94 -2.88612 -2.15349 0
M  V30 2368 C 216.793 -4.25815 -1.44918 0
M  V30 2369 C 218.112 -3.06294 -3.16026 0
M  V30 2370 H 215.231 -0.60575 -0.419805 0
M  V30 2371 H 217.873 -1.84732 -0.444314 0
M  V30 2372 H 216.023 -2.73158 -2.76255 0
M  V30 2373 H 217.695 -4.52995 -0.871365 0
M  V30 2374 H 215.938 -4.27247 -0.751159 0
M  V30 2375 H 216.609 -5.07337 -2.17516 0
M  V30 2376 H 219.085 -3.20641 -2.65195 0
M  V30 2377 H 217.961 -3.93283 -3.8291 0
M  V30 2378 H 218.222 -2.19579 -3.83715 0
M  V30 2379 N 217.281 0.66697 -1.42791 0
M  V30 2380 C 218.511 1.45294 -1.46878 0
M  V30 2381 C 218.919 1.89027 -0.0809861 0
M  V30 2382 O 218.262 1.59219 0.916246 0
M  V30 2383 C 218.324 2.72908 -2.34012 0
M  V30 2384 C 217.988 2.51203 -3.81767 0
M  V30 2385 C 218.985 2.15302 -4.73224 0
M  V30 2386 C 216.67 2.65954 -4.26115 0
M  V30 2387 C 218.664 1.94431 -6.07022 0
M  V30 2388 C 216.351 2.44699 -5.59969 0
M  V30 2389 C 217.349 2.08992 -6.5024 0
M  V30 2390 O 217.037 1.87948 -7.81621 0
M  V30 2391 H 216.769 0.453306 -0.501487 0
M  V30 2392 H 219.323 0.826232 -1.88049 0
M  V30 2393 H 217.553 3.38089 -1.87703 0
M  V30 2394 H 219.242 3.34816 -2.29462 0
M  V30 2395 H 220.008 2.03495 -4.40244 0
M  V30 2396 H 215.887 2.92724 -3.56137 0
M  V30 2397 H 219.431 1.66484 -6.77443 0
M  V30 2398 H 215.328 2.56105 -5.9252 0
M  V30 2399 H 216.096 2.02483 -7.93059 0
M  V30 2400 N 218.759 1.29093 0.90403 0
M  V30 2401 C 219.984 1.19809 1.69294 0
M  V30 2402 C 220.409 -0.238481 1.86582 0
M  V30 2403 O 219.767 -1.1723 1.383 0
M  V30 2404 C 219.815 1.91202 3.05736 0
M  V30 2405 O 218.919 1.22611 3.93752 0
M  V30 2406 H 218.26 0.415385 0.518027 0
M  V30 2407 H 220.79 1.70586 1.12967 0
M  V30 2408 H 220.8 1.99487 3.55906 0
M  V30 2409 H 219.475 2.95692 2.92471 0
M  V30 2410 H 218.052 1.22554 3.52186 0
M  V30 2411 N 220.237 -1.11381 1.11499 0
M  V30 2412 C 221.465 -1.86934 0.88675 0
M  V30 2413 C 221.88 -1.80195 -0.563476 0
M  V30 2414 O 221.237 -1.18367 -1.38908 0
M  V30 2415 C 221.288 -3.35722 1.34064 0
M  V30 2416 O 221.009 -3.4232 2.73401 0
M  V30 2417 C 222.51 -4.2818 1.14791 0
M  V30 2418 H 219.73 -0.591117 0.317523 0
M  V30 2419 H 222.274 -1.40865 1.48248 0
M  V30 2420 H 220.429 -3.79294 0.788355 0
M  V30 2421 H 220.843 -4.34971 2.93087 0
M  V30 2422 H 222.317 -5.30817 1.5145 0
M  V30 2423 H 222.794 -4.39113 0.0875279 0
M  V30 2424 H 223.4 -3.90402 1.68721 0
M  V30 2425 N 221.715 -0.905404 -1.28997 0
M  V30 2426 C 222.992 -0.453513 -1.9027 0
M  V30 2427 C 223.372 1.06721 -1.82137 0
M  V30 2428 O 222.72 1.91159 -1.25182 0
M  V30 2429 C 222.93 -0.974494 -3.35119 0
M  V30 2430 C 224.278 -1.0216 -4.12127 0
M  V30 2431 O 225.302 -0.922557 -3.44046 0
M  V30 2432 O 224.161 -1.17121 -5.33802 0
M  V30 2433 H 221.255 -0.142347 -0.814657 0
M  V30 2434 H 223.801 -0.995642 -1.37423 0
M  V30 2435 H 222.573 -2.01848 -3.35221 0
M  V30 2436 H 222.196 -0.412706 -3.95452 0
M  V30 2437 N 223.193 1.4272 -0.668489 0
M  V30 2438 C 224.442 2.00846 -0.185389 0
M  V30 2439 C 224.755 1.53442 1.21305 0
M  V30 2440 O 225.961 2.03944 1.79218 0
M  V30 2441 C 224.417 3.58805 -0.280591 0
M  V30 2442 C 224.025 4.15198 -1.68268 0
M  V30 2443 C 225.769 4.24255 0.14412 0
M  V30 2444 C 223.676 5.655 -1.73099 0
M  V30 2445 H 222.606 0.751145 -0.0655475 0
M  V30 2446 H 225.257 1.63516 -0.832752 0
M  V30 2447 H 223.639 3.93608 0.434553 0
M  V30 2448 H 224.813 3.91866 -2.42441 0
M  V30 2449 H 223.128 3.62176 -2.05469 0
M  V30 2450 H 225.725 5.34547 0.128086 0
M  V30 2451 H 226.068 3.99277 1.17827 0
M  V30 2452 H 226.601 3.94389 -0.519798 0
M  V30 2453 H 223.34 5.95268 -2.74475 0
M  V30 2454 H 222.86 5.90842 -1.03274 0
M  V30 2455 H 224.539 6.29808 -1.48158 0
M  V30 2456 N 224.671 0.411399 1.52136 0
M  V30 2457 C 225.918 -0.163645 2.01838 0
M  V30 2458 C 226.246 -1.4495 1.29691 0
M  V30 2459 O 225.501 -1.91725 0.392431 0
M  V30 2460 C 225.8 -0.455872 3.54481 0
M  V30 2461 C 225.466 0.741055 4.44769 0
M  V30 2462 C 224.128 1.06936 4.69167 0
M  V30 2463 C 226.48 1.54075 4.97906 0
M  V30 2464 C 223.808 2.19851 5.43951 0
M  V30 2465 C 226.16 2.66067 5.73926 0
M  V30 2466 C 224.824 2.99381 5.96596 0
M  V30 2467 H 224.094 -0.0598821 0.738576 0
M  V30 2468 H 226.741 0.553283 1.83333 0
M  V30 2469 H 225.046 -1.2544 3.71177 0
M  V30 2470 H 226.743 -0.913802 3.90449 0
M  V30 2471 H 223.333 0.475192 4.25958 0
M  V30 2472 H 227.517 1.30033 4.78963 0
M  V30 2473 H 222.773 2.46006 5.59724 0
M  V30 2474 H 226.947 3.28419 6.14096 0
M  V30 2475 H 224.574 3.86992 6.54325 0
M  V30 2476 N 226.149 -1.5696 0.141893 0
M  V30 2477 C 227.396 -1.9596 -0.510492 0
M  V30 2478 C 227.724 -1.02648 -1.65208 0
M  V30 2479 O 226.979 -0.0546947 -1.95624 0
M  V30 2480 C 227.278 -3.41242 -1.06249 0
M  V30 2481 C 226.944 -4.50882 -0.0398791 0
M  V30 2482 C 225.606 -4.80595 0.241247 0
M  V30 2483 C 227.958 -5.17058 0.65578 0
M  V30 2484 C 225.286 -5.73792 1.22393 0
M  V30 2485 C 227.638 -6.11313 1.62724 0
M  V30 2486 C 226.302 -6.39407 1.91612 0
M  V30 2487 H 225.572 -0.717068 -0.186802 0
M  V30 2488 H 228.219 -1.90142 0.227643 0
M  V30 2489 H 226.524 -3.43866 -1.87785 0
M  V30 2490 H 228.221 -3.68742 -1.57576 0
M  V30 2491 H 224.811 -4.27754 -0.269174 0
M  V30 2492 H 228.995 -4.94239 0.451779 0
M  V30 2493 H 224.251 -5.93853 1.45424 0
M  V30 2494 H 228.425 -6.61668 2.17183 0
M  V30 2495 H 226.052 -7.11427 2.6791 0
M  V30 2496 N 227.627 0.131896 -1.57047 0
M  V30 2497 C 228.876 0.84044 -1.83356 0
M  V30 2498 C 229.189 1.81646 -0.725535 0
M  V30 2499 O 230.395 2.57025 -0.874659 0
M  V30 2500 C 228.851 1.54528 -3.25037 0
M  V30 2501 C 228.459 0.610902 -4.43815 0
M  V30 2502 C 230.203 2.23972 -3.60606 0
M  V30 2503 C 228.11 1.31823 -5.76521 0
M  V30 2504 H 227.04 0.317599 -0.683847 0
M  V30 2505 H 229.691 0.0931561 -1.83263 0
M  V30 2506 H 228.073 2.33873 -3.19561 0
M  V30 2507 H 229.247 -0.148407 -4.60561 0
M  V30 2508 H 227.562 0.0241016 -4.16393 0
M  V30 2509 H 230.159 2.77558 -4.57018 0
M  V30 2510 H 230.502 3.01173 -2.87403 0
M  V30 2511 H 231.035 1.51529 -3.6781 0
M  V30 2512 H 227.774 0.587771 -6.52859 0
M  V30 2513 H 227.294 2.04987 -5.63685 0
M  V30 2514 H 228.973 1.855 -6.19838 0
M  V30 2515 N 229.106 1.52395 0.401703 0
M  V30 2516 C 230.036 1.79231 1.49661 0
M  V30 2517 C 231.017 0.643654 1.57452 0
M  V30 2518 O 232.202 0.889989 1.72606 0
M  V30 2519 C 229.332 1.94971 2.87409 0
M  V30 2520 C 228.286 3.10604 2.94465 0
M  V30 2521 C 227.612 3.11577 4.34538 0
M  V30 2522 C 228.912 4.49921 2.6527 0
M  V30 2523 H 230.606 2.70917 1.27454 0
M  V30 2524 H 228.152 1.30362 0.6117 0
M  V30 2525 H 230.105 2.12328 3.63999 0
M  V30 2526 H 228.829 0.999632 3.10926 0
M  V30 2527 H 227.488 2.93009 2.20321 0
M  V30 2528 H 227.136 2.14277 4.55076 0
M  V30 2529 H 226.836 3.89247 4.40183 0
M  V30 2530 H 228.36 3.31073 5.13053 0
M  V30 2531 H 229.774 4.67683 3.31581 0
M  V30 2532 H 228.171 5.29564 2.82281 0
M  V30 2533 H 229.241 4.57507 1.60671 0
M  V30 2534 N 230.584 -0.659388 1.43143 0
M  V30 2535 C 231.494 -1.80167 1.50256 0
M  V30 2536 C 232.51 -1.69571 0.390106 0
M  V30 2537 O 233.686 -1.90849 0.643319 0
M  V30 2538 C 230.751 -3.16409 1.41725 0
M  V30 2539 C 229.812 -3.38848 2.63591 0
M  V30 2540 C 229.045 -4.68591 2.55458 0
M  V30 2541 O 229.268 -5.47532 1.59891 0
M  V30 2542 O 228.202 -4.92614 3.45854 0
M  V30 2543 H 232.028 -1.77121 2.46702 0
M  V30 2544 H 229.613 -0.817092 1.25076 0
M  V30 2545 H 231.495 -3.9768 1.39387 0
M  V30 2546 H 230.17 -3.20059 0.484118 0
M  V30 2547 H 229.077 -2.57366 2.71502 0
M  V30 2548 H 230.41 -3.4004 3.55856 0
M  V30 2549 N 232.062 -1.29571 -0.897171 0
M  V30 2550 C 233.311 -1.1706 -1.64256 0
M  V30 2551 C 233.624 0.276476 -1.93636 0
M  V30 2552 O 234.83 0.52294 -2.66416 0
M  V30 2553 C 233.286 -2.0475 -2.95982 0
M  V30 2554 C 232.894 -3.54295 -2.74187 0
M  V30 2555 C 234.638 -2.0097 -3.73914 0
M  V30 2556 C 232.545 -4.34081 -4.01656 0
M  V30 2557 H 231.475 -0.43452 -0.616205 0
M  V30 2558 H 234.126 -1.54229 -0.994268 0
M  V30 2559 H 232.508 -1.60452 -3.62038 0
M  V30 2560 H 233.682 -4.06662 -2.1671 0
M  V30 2561 H 231.997 -3.59773 -2.09648 0
M  V30 2562 H 234.594 -2.57838 -4.68427 0
M  V30 2563 H 234.937 -0.990273 -4.0435 0
M  V30 2564 H 235.47 -2.43325 -3.14703 0
M  V30 2565 H 232.209 -5.36671 -3.76384 0
M  V30 2566 H 231.729 -3.86483 -4.58684 0
M  V30 2567 H 233.408 -4.44877 -4.69781 0
M  V30 2568 N 233.54 1.10788 -1.12088 0
M  V30 2569 C 234.768 1.86461 -0.896651 0
M  V30 2570 C 235.183 1.80492 0.553912 0
M  V30 2571 O 234.54 1.19102 1.38278 0
M  V30 2572 C 234.591 3.35006 -1.35843 0
M  V30 2573 O 234.312 3.40866 -2.75213 0
M  V30 2574 C 235.813 4.27565 -1.1706 0
M  V30 2575 H 233.033 0.589425 -0.320654 0
M  V30 2576 H 235.577 1.40076 -1.48993 0
M  V30 2577 H 233.732 3.7887 -0.808458 0
M  V30 2578 H 234.146 4.33411 -2.9539 0
M  V30 2579 H 235.62 5.30007 -1.54263 0
M  V30 2580 H 236.097 4.3906 -0.110814 0
M  V30 2581 H 236.703 3.89501 -1.70789 0
M  V30 2582 N 235.018 0.912232 1.28515 0
M  V30 2583 C 236.295 0.463597 1.90027 0
M  V30 2584 C 236.675 -1.05753 1.82701 0
M  V30 2585 O 236.023 -1.90492 1.26194 0
M  V30 2586 C 236.233 0.992253 3.34597 0
M  V30 2587 C 237.581 1.04344 4.11579 0
M  V30 2588 O 238.605 0.94079 3.43551 0
M  V30 2589 O 237.464 1.1995 5.33174 0
M  V30 2590 H 234.558 0.146666 0.813891 0
M  V30 2591 H 237.104 1.00292 1.36893 0
M  V30 2592 H 235.876 2.03623 3.34146 0
M  V30 2593 H 235.499 0.433672 3.95228 0
M  V30 2594 N 236.496 -1.42363 0.676048 0
M  V30 2595 C 237.444 -2.32596 -0.0131507 0
M  V30 2596 C 238.438 -1.49891 -0.789238 0
M  V30 2597 O 239.644 -1.65955 -0.697061 0
M  V30 2598 H 236.019 -0.751647 -0.0230481 0
M  V30 2599 H 237.99 -2.88421 0.765243 0
M  V30 2600 C 236.739 -3.34479 -0.949702 0
M  V30 2601 H 236.062 -3.98158 -0.361938 0
M  V30 2602 H 237.502 -4.00199 -1.4006 0
M  V30 2603 C 235.961 -2.66838 -2.05667 0
M  V30 2604 O 236.491 -2.50124 -3.14326 0
M  V30 2605 N 234.697 -2.25843 -1.82875 0
M  V30 2606 H 234.244 -2.39637 -0.945085 0
M  V30 2607 H 234.202 -1.80918 -2.5713 0
M  V30 2608 N 237.974 -0.419461 -1.51915 0
M  V30 2609 C 239.385 0.0477853 -1.86639 0
M  V30 2610 C 239.736 1.43531 -1.33766 0
M  V30 2611 O 238.861 2.05401 -0.68113 0
M  V30 2612 C 239.456 0.0934885 -3.38671 0
M  V30 2613 C 238.015 0.505097 -3.72996 0
M  V30 2614 C 237.162 -0.313792 -2.75519 0
M  V30 2615 H 240.113 -0.636088 -1.45395 0
M  V30 2616 H 240.134 0.906667 -3.6954 0
M  V30 2617 H 239.646 -0.916501 -3.77123 0
M  V30 2618 H 237.747 1.52135 -3.40126 0
M  V30 2619 H 237.86 0.242309 -4.78487 0
M  V30 2620 H 236.224 0.225363 -2.53701 0
M  V30 2621 H 237.007 -1.32232 -3.16812 0
M  V30 2622 N 239.452 1.56882 -0.150215 0
M  V30 2623 C 240.682 2.00302 0.506213 0
M  V30 2624 C 241.09 1.02934 1.58749 0
M  V30 2625 O 240.433 0.0188384 1.8369 0
M  V30 2626 C 240.495 3.40156 1.16337 0
M  V30 2627 C 240.159 4.56439 0.226311 0
M  V30 2628 C 241.156 5.17012 -0.547265 0
M  V30 2629 C 238.841 5.02136 0.128279 0
M  V30 2630 C 240.835 6.21693 -1.40629 0
M  V30 2631 C 238.522 6.06672 -0.734345 0
M  V30 2632 C 239.52 6.6632 -1.50023 0
M  V30 2633 O 239.208 7.68831 -2.34848 0
M  V30 2634 H 238.94 0.662182 0.135984 0
M  V30 2635 H 241.494 2.03961 -0.242746 0
M  V30 2636 H 239.724 3.33346 1.96004 0
M  V30 2637 H 241.413 3.67663 1.71985 0
M  V30 2638 H 242.179 4.82603 -0.48158 0
M  V30 2639 H 238.058 4.55435 0.714157 0
M  V30 2640 H 241.602 6.68179 -2.00455 0
M  V30 2641 H 237.499 6.40507 -0.801309 0
M  V30 2642 H 238.267 7.86065 -2.28131 0
M  V30 2643 N 240.93 -0.123565 1.57115 0
M  V30 2644 C 241.863 -1.18202 1.95201 0
M  V30 2645 C 242.841 -1.40349 0.821031 0
M  V30 2646 O 244.025 -1.54578 1.07879 0
M  V30 2647 C 241.152 -2.53671 2.24429 0
M  V30 2648 C 240.198 -2.4798 3.46999 0
M  V30 2649 S 241.031 -1.92389 4.99747 0
M  V30 2650 C 242.187 -3.2954 5.32123 0
M  V30 2651 H 242.42 -0.857212 2.84674 0
M  V30 2652 H 239.953 -0.33014 1.50829 0
M  V30 2653 H 241.911 -3.3162 2.41947 0
M  V30 2654 H 240.572 -2.83332 1.35579 0
M  V30 2655 H 239.765 -3.47758 3.64801 0
M  V30 2656 H 239.367 -1.7815 3.28844 0
M  V30 2657 H 241.659 -4.25736 5.27025 0
M  V30 2658 H 242.602 -3.16569 6.33395 0
M  V30 2659 H 243.01 -3.27758 4.59603 0
M  V30 2660 N 242.408 -1.52605 -0.393616 0
M  V30 2661 C 243.636 -1.71294 -1.16043 0
M  V30 2662 C 244.051 -0.429259 -1.83855 0
M  V30 2663 O 243.408 0.595921 -1.72496 0
M  V30 2664 C 243.459 -2.8593 -2.21193 0
M  V30 2665 O 243.18 -4.09329 -1.56146 0
M  V30 2666 C 244.681 -3.16259 -3.10636 0
M  V30 2667 H 241.901 -0.573641 -0.348104 0
M  V30 2668 H 244.445 -1.99234 -0.461092 0
M  V30 2669 H 242.6 -2.60465 -2.86769 0
M  V30 2670 H 243.014 -4.73323 -2.25978 0
M  V30 2671 H 244.488 -3.99946 -3.80456 0
M  V30 2672 H 244.965 -2.3045 -3.73884 0
M  V30 2673 H 245.571 -3.43547 -2.50711 0
M  V30 2674 N 243.887 0.651787 -1.4349 0
M  V30 2675 C 245.112 1.44434 -1.48841 0
M  V30 2676 C 245.537 1.8779 -0.107955 0
M  V30 2677 O 244.895 1.57464 0.898602 0
M  V30 2678 C 244.943 2.65458 -2.44059 0
M  V30 2679 O 244.047 3.64566 -1.92784 0
M  V30 2680 H 243.388 0.433005 -0.503391 0
M  V30 2681 H 245.918 0.797451 -1.88419 0
M  V30 2682 H 245.928 3.13255 -2.6141 0
M  V30 2683 H 244.603 2.33244 -3.4434 0
M  V30 2684 H 243.18 3.23716 -1.851 0
M  V30 2685 N 245.365 1.30045 0.890287 0
M  V30 2686 C 246.614 1.17929 1.63633 0
M  V30 2687 C 246.927 -0.266204 1.9378 0
M  V30 2688 O 248.133 -0.508804 2.6669 0
M  V30 2689 C 246.589 2.06317 2.94892 0
M  V30 2690 C 246.197 3.55745 2.72305 0
M  V30 2691 C 247.941 2.0295 3.72843 0
M  V30 2692 C 245.848 4.36205 3.99348 0
M  V30 2693 H 244.778 0.437782 0.613892 0
M  V30 2694 H 247.429 1.54754 0.986075 0
M  V30 2695 H 245.811 1.6237 3.61182 0
M  V30 2696 H 246.985 4.07805 2.1455 0
M  V30 2697 H 245.3 3.6088 2.07737 0
M  V30 2698 H 247.897 2.60319 4.67053 0
M  V30 2699 H 248.24 1.0117 4.0382 0
M  V30 2700 H 248.773 2.4499 3.13408 0
M  V30 2701 H 245.512 5.38659 3.73533 0
M  V30 2702 H 245.032 3.8891 4.56628 0
M  V30 2703 H 246.711 4.47362 4.67415 0
M  V30 2704 N 246.843 -1.10192 1.12674 0
M  V30 2705 C 248.254 -1.63707 0.897604 0
M  V30 2706 C 248.605 -1.87812 -0.567546 0
M  V30 2707 O 247.73 -1.62196 -1.43253 0
M  V30 2708 C 248.325 -2.974 1.62292 0
M  V30 2709 C 246.884 -3.47772 1.43986 0
M  V30 2710 C 246.031 -2.22332 1.65722 0
M  V30 2711 H 248.982 -0.936587 1.28116 0
M  V30 2712 H 249.003 -3.64986 1.07541 0
M  V30 2713 H 248.515 -2.79824 2.68924 0
M  V30 2714 H 246.616 -3.70487 0.396206 0
M  V30 2715 H 246.729 -4.25723 2.19765 0
M  V30 2716 H 245.093 -2.30599 1.08149 0
M  V30 2717 H 245.876 -2.07285 2.73657 0
M  V30 2718 N 248.321 -0.919034 -1.28029 0
M  V30 2719 C 249.567 -0.555757 -1.95036 0
M  V30 2720 C 249.9 0.899198 -1.72128 0
M  V30 2721 O 249.175 1.64023 -1.04531 0
M  V30 2722 C 249.458 -0.872024 -3.49382 0
M  V30 2723 C 249.311 -2.3801 -3.81669 0
M  V30 2724 C 250.63 -0.37185 -4.38526 0
M  V30 2725 H 247.749 -0.203386 -0.708381 0
M  V30 2726 H 250.391 -1.14924 -1.51303 0
M  V30 2727 H 248.541 -0.366946 -3.86763 0
M  V30 2728 H 250.213 -2.9562 -3.54128 0
M  V30 2729 H 248.456 -2.83289 -3.28526 0
M  V30 2730 H 249.127 -2.55192 -4.8947 0
M  V30 2731 H 251.603 -0.804602 -4.08247 0
M  V30 2732 H 250.479 -0.622173 -5.45362 0
M  V30 2733 H 250.74 0.727934 -4.36066 0
M  V30 2734 N 249.799 1.42003 -0.683588 0
M  V30 2735 C 250.747 2.326 0.000815408 0
M  V30 2736 C 251.741 1.50308 0.781278 0
M  V30 2737 O 252.947 1.66322 0.688251 0
M  V30 2738 H 249.322 0.751758 0.0190616 0
M  V30 2739 H 251.293 2.88011 -0.780528 0
M  V30 2740 C 250.042 3.34978 0.93195 0
M  V30 2741 H 249.365 3.98345 0.340817 0
M  V30 2742 H 250.805 4.00936 1.37936 0
M  V30 2743 C 249.264 2.67925 2.04249 0
M  V30 2744 O 249.794 2.51788 3.12995 0
M  V30 2745 N 248 2.2681 1.81675 0
M  V30 2746 H 247.547 2.40135 0.932363 0
M  V30 2747 H 247.505 1.8228 2.56167 0
M  V30 2748 N 251.277 0.427512 1.51691 0
M  V30 2749 C 252.24 -0.377132 2.26076 0
M  V30 2750 C 253.24 -0.958089 1.29141 0
M  V30 2751 O 254.43 -0.83408 1.52934 0
M  V30 2752 C 251.562 -1.53262 3.04506 0
M  V30 2753 H 252.755 0.27464 2.9864 0
M  V30 2754 H 250.308 0.180445 1.55255 0
M  V30 2755 H 251.043 -2.22072 2.36335 0
M  V30 2756 H 250.828 -1.12232 3.75694 0
M  V30 2757 H 252.318 -2.10135 3.60878 0
M  V30 2758 N 252.755 -1.56801 0.158532 0
M  V30 2759 C 254.002 -1.9649 -0.489679 0
M  V30 2760 C 254.33 -1.04394 -1.6411 0
M  V30 2761 O 253.585 -0.0754401 -1.95555 0
M  V30 2762 C 253.884 -3.4235 -1.02623 0
M  V30 2763 C 253.55 -4.50899 0.00794526 0
M  V30 2764 C 252.212 -4.80312 0.292207 0
M  V30 2765 C 254.564 -5.16333 0.710584 0
M  V30 2766 C 251.892 -5.72461 1.28472 0
M  V30 2767 C 254.244 -6.09553 1.69199 0
M  V30 2768 C 252.908 -6.37339 1.98383 0
M  V30 2769 H 252.178 -0.719009 -0.179186 0
M  V30 2770 H 254.825 -1.8989 0.247798 0
M  V30 2771 H 253.13 -3.45838 -1.84128 0
M  V30 2772 H 254.827 -3.70393 -1.53656 0
M  V30 2773 H 251.417 -4.28015 -0.22379 0
M  V30 2774 H 255.601 -4.93732 0.504174 0
M  V30 2775 H 250.857 -5.92278 1.51714 0
M  V30 2776 H 255.031 -6.59327 2.24189 0
M  V30 2777 H 252.658 -7.08546 2.7544 0
M  V30 2778 N 254.233 0.115231 -1.57178 0
M  V30 2779 C 255.165 1.16694 -1.97269 0
M  V30 2780 C 256.178 1.37445 -0.872502 0
M  V30 2781 O 257.367 1.36454 -1.15077 0
M  V30 2782 C 254.467 2.52627 -2.25905 0
M  V30 2783 C 253.64 2.52427 -3.57211 0
M  V30 2784 C 252.699 3.70134 -3.74016 0
M  V30 2785 O 251.725 3.53546 -4.46087 0
M  V30 2786 N 252.927 4.88844 -3.13068 0
M  V30 2787 H 255.692 0.82588 -2.88096 0
M  V30 2788 H 253.253 0.304461 -1.59011 0
M  V30 2789 H 255.245 3.29937 -2.34359 0
M  V30 2790 H 253.815 2.789 -1.41186 0
M  V30 2791 H 253.035 1.60805 -3.5991 0
M  V30 2792 H 254.323 2.49353 -4.43509 0
M  V30 2793 H 253.721 5.05225 -2.54489 0
M  V30 2794 H 252.278 5.63817 -3.27037 0
M  V30 2795 N 255.711 1.52812 0.385517 0
M  V30 2796 C 256.959 1.67694 1.12797 0
M  V30 2797 C 257.28 0.421115 1.90399 0
M  V30 2798 O 256.55 -0.564551 1.87589 0
M  V30 2799 H 255.13 0.618155 0.419396 0
M  V30 2800 H 257.792 1.89938 0.436972 0
M  V30 2801 H 256.888 2.52896 1.82894 0
M  V30 2802 N 257.189 -0.644168 1.43834 0
M  V30 2803 C 258.119 -1.76814 1.52509 0
M  V30 2804 C 259.1 -1.65823 0.379052 0
M  V30 2805 O 260.285 -1.84781 0.597466 0
M  V30 2806 C 257.415 -3.15288 1.4564 0
M  V30 2807 C 256.369 -3.41053 2.58586 0
M  V30 2808 C 255.695 -4.79421 2.36769 0
M  V30 2809 C 256.995 -3.34902 4.00797 0
M  V30 2810 H 258.689 -1.69812 2.46586 0
M  V30 2811 H 256.235 -0.815542 1.1868 0
M  V30 2812 H 258.188 -3.93681 1.50311 0
M  V30 2813 H 256.912 -3.23043 0.480725 0
M  V30 2814 H 255.571 -2.65035 2.53282 0
M  V30 2815 H 255.219 -4.83863 1.37424 0
M  V30 2816 H 254.919 -4.9762 3.12487 0
M  V30 2817 H 256.443 -5.6006 2.43238 0
M  V30 2818 H 257.857 -4.03218 4.07539 0
M  V30 2819 H 256.254 -3.64637 4.76613 0
M  V30 2820 H 257.324 -2.32928 4.25291 0
M  V30 2821 N 258.668 -1.30515 -0.883378 0
M  V30 2822 C 259.908 -1.20716 -1.64946 0
M  V30 2823 C 260.272 0.234072 -1.90568 0
M  V30 2824 O 261.473 0.455335 -2.64915 0
M  V30 2825 C 259.744 -2.01444 -2.9522 0
M  V30 2826 S 261.303 -2.0836 -3.86175 0
M  V30 2827 H 258.121 -0.430165 -0.566109 0
M  V30 2828 H 260.723 -1.65011 -1.04841 0
M  V30 2829 H 259.427 -3.05268 -2.74298 0
M  V30 2830 H 258.958 -1.57817 -3.60357 0
M  V30 2831 H 260.973 -1.21215 -4.81167 0
M  V30 2832 N 260.146 1.09593 -1.13257 0
M  V30 2833 C 261.094 2.18271 -0.803783 0
M  V30 2834 C 262.088 1.68054 0.213148 0
M  V30 2835 O 263.294 1.79862 0.0704699 0
M  V30 2836 H 259.669 0.711949 -0.242143 0
M  V30 2837 H 261.64 2.43235 -1.72856 0
M  V30 2838 C 260.389 3.46536 -0.28424 0
M  V30 2839 H 259.712 3.85545 -1.05807 0
M  V30 2840 H 261.152 4.23899 -0.0925945 0
M  V30 2841 C 259.611 3.22036 0.989684 0
M  V30 2842 O 260.141 3.44509 2.06584 0
M  V30 2843 N 258.347 2.7565 0.920086 0
M  V30 2844 H 257.894 2.57562 0.0442019 0
M  V30 2845 H 257.852 2.59635 1.77306 0
M  V30 2846 N 261.624 0.925811 1.2754 0
M  V30 2847 C 262.534 0.428993 2.30644 0
M  V30 2848 C 263.55 -0.489387 1.66976 0
M  V30 2849 O 264.726 -0.372653 1.97922 0
M  V30 2850 C 261.791 -0.311967 3.45294 0
M  V30 2851 C 260.852 0.641098 4.24486 0
M  V30 2852 C 260.085 -0.0645955 5.33661 0
M  V30 2853 O 260.308 -1.28429 5.55754 0
M  V30 2854 O 259.242 0.606265 5.98839 0
M  V30 2855 H 263.068 1.28504 2.75173 0
M  V30 2856 H 260.653 0.691086 1.32455 0
M  V30 2857 H 262.535 -0.729972 4.15029 0
M  V30 2858 H 261.21 -1.14365 3.02824 0
M  V30 2859 H 260.117 1.10874 3.57292 0
M  V30 2860 H 261.45 1.43995 4.70666 0
M  V30 2861 N 263.102 -1.41638 0.69111 0
M  V30 2862 C 264.33 -2.05628 0.22909 0
M  V30 2863 C 264.745 -1.51992 -1.11999 0
M  V30 2864 O 264.102 -0.666322 -1.69901 0
M  V30 2865 C 264.153 -3.61084 0.173283 0
M  V30 2866 O 263.874 -4.12735 1.46907 0
M  V30 2867 C 265.375 -4.42213 -0.310266 0
M  V30 2868 H 262.595 -0.662327 0.107534 0
M  V30 2869 H 265.139 -1.81489 0.942438 0
M  V30 2870 H 263.294 -3.84278 -0.490858 0
M  V30 2871 H 263.708 -5.06743 1.35322 0
M  V30 2872 H 265.182 -5.51194 -0.298196 0
M  V30 2873 H 265.659 -4.1799 -1.34838 0
M  V30 2874 H 266.265 -4.24074 0.322716 0
M  V30 2875 N 264.58 -0.43555 -1.51462 0
M  V30 2876 C 265.51 0.367376 -2.30592 0
M  V30 2877 C 266.491 1.02263 -1.35928 0
M  V30 2878 O 267.676 1.02661 -1.64847 0
M  V30 2879 C 264.806 1.46983 -3.14664 0
M  V30 2880 C 263.76 0.938161 -4.17591 0
M  V30 2881 C 263.086 2.13622 -4.90173 0
M  V30 2882 C 264.386 -0.0261621 -5.22293 0
M  V30 2883 H 266.08 -0.292969 -2.97963 0
M  V30 2884 H 263.626 -0.14234 -1.43295 0
M  V30 2885 H 265.579 2.03873 -3.688 0
M  V30 2886 H 264.303 2.15843 -2.4511 0
M  V30 2887 H 262.962 0.391481 -3.64504 0
M  V30 2888 H 262.61 2.81098 -4.17124 0
M  V30 2889 H 262.31 1.78688 -5.59772 0
M  V30 2890 H 263.834 2.7107 -5.47132 0
M  V30 2891 H 265.248 0.452384 -5.71512 0
M  V30 2892 H 263.645 -0.287992 -5.99409 0
M  V30 2893 H 264.715 -0.963391 -4.75233 0
M  V30 2894 N 266.058 1.56714 -0.166846 0
M  V30 2895 C 267.286 2.0112 0.485644 0
M  V30 2896 C 267.701 1.04705 1.57106 0
M  V30 2897 O 267.058 0.0471923 1.82439 0
M  V30 2898 C 267.109 3.45361 1.06808 0
M  V30 2899 O 266.83 4.38092 0.0259995 0
M  V30 2900 C 268.331 4.05145 1.79924 0
M  V30 2901 H 265.551 0.65931 0.124704 0
M  V30 2902 H 268.095 2.02746 -0.267262 0
M  V30 2903 H 266.25 3.44524 1.7715 0
M  V30 2904 H 266.664 5.22519 0.455398 0
M  V30 2905 H 268.138 5.08009 2.15942 0
M  V30 2906 H 268.615 3.46982 2.69258 0
M  V30 2907 H 269.221 4.09672 1.14234 0
M  V30 2908 N 267.536 -0.106894 1.57237 0
M  V30 2909 C 268.466 -1.13148 2.04254 0
M  V30 2910 C 269.447 -1.42476 0.929224 0
M  V30 2911 O 270.632 -1.52709 1.19973 0
M  V30 2912 C 267.762 -2.4545 2.45706 0
M  V30 2913 C 266.716 -2.30558 3.60592 0
M  V30 2914 C 266.042 -3.67931 3.87983 0
M  V30 2915 C 267.342 -1.75597 4.91897 0
M  V30 2916 H 269.036 -0.740374 2.90101 0
M  V30 2917 H 266.582 -0.354696 1.39563 0
M  V30 2918 H 268.535 -3.17389 2.77205 0
M  V30 2919 H 267.259 -2.86475 1.56843 0
M  V30 2920 H 265.918 -1.61067 3.29322 0
M  V30 2921 H 265.566 -4.06462 2.96306 0
M  V30 2922 H 265.266 -3.58817 4.65322 0
M  V30 2923 H 266.79 -4.41356 4.21945 0
M  V30 2924 H 268.204 -2.37364 5.21854 0
M  V30 2925 H 266.601 -1.77272 5.73319 0
M  V30 2926 H 267.671 -0.714451 4.79608 0
M  V30 2927 N 269.014 -1.53014 -0.377408 0
M  V30 2928 C 269.961 -1.78616 -1.46168 0
M  V30 2929 C 270.931 -0.629917 -1.53692 0
M  V30 2930 O 272.116 -0.870861 -1.69766 0
M  V30 2931 C 269.256 -1.97123 -2.8326 0
M  V30 2932 C 268.369 -3.24831 -2.84796 0
M  V30 2933 C 267.504 -3.33591 -4.13389 0
M  V30 2934 C 266.543 -4.55377 -4.09021 0
M  V30 2935 N 265.68 -4.61355 -5.29241 0
M  V30 2936 H 270.52 -2.71142 -1.23637 0
M  V30 2937 H 268.057 -1.34326 -0.599577 0
M  V30 2938 H 270.015 -2.05839 -3.62886 0
M  V30 2939 H 268.645 -1.07946 -3.04216 0
M  V30 2940 H 267.697 -3.25128 -1.97474 0
M  V30 2941 H 269.009 -4.14523 -2.77439 0
M  V30 2942 H 268.163 -3.41554 -5.01424 0
M  V30 2943 H 266.902 -2.41894 -4.23484 0
M  V30 2944 H 265.907 -4.47527 -3.19373 0
M  V30 2945 H 267.132 -5.48402 -4.00539 0
M  V30 2946 H 265.078 -3.72554 -5.39944 0
M  V30 2947 H 264.995 -5.44935 -5.24006 0
M  V30 2948 H 266.263 -4.73586 -6.19141 0
M  V30 2949 N 270.492 0.636531 -1.44174 0
M  V30 2950 C 271.422 1.76003 -1.53444 0
M  V30 2951 C 272.403 1.65619 -0.387841 0
M  V30 2952 O 273.588 1.84461 -0.607257 0
M  V30 2953 C 270.718 3.14511 -1.4731 0
M  V30 2954 C 269.672 3.39677 -2.60391 0
M  V30 2955 C 268.998 4.78159 -2.39308 0
M  V30 2956 C 270.298 3.32772 -4.02567 0
M  V30 2957 H 271.992 1.68501 -2.47483 0
M  V30 2958 H 269.538 0.809237 -1.19111 0
M  V30 2959 H 271.491 3.92878 -1.52397 0
M  V30 2960 H 270.215 3.22783 -0.49785 0
M  V30 2961 H 268.874 2.63688 -2.54684 0
M  V30 2962 H 268.522 4.83128 -1.39988 0
M  V30 2963 H 268.222 4.95956 -3.15122 0
M  V30 2964 H 269.746 5.58762 -2.46205 0
M  V30 2965 H 271.16 4.01051 -4.09672 0
M  V30 2966 H 269.557 3.62104 -4.7854 0
M  V30 2967 H 270.627 2.30669 -4.2652 0
M  V30 2968 N 271.97 1.30982 0.876444 0
M  V30 2969 C 273.2 1.23063 1.65949 0
M  V30 2970 C 273.608 -0.207537 1.88058 0
M  V30 2971 O 272.951 -1.14781 1.43426 0
M  V30 2972 C 273.013 1.89768 3.05333 0
M  V30 2973 C 272.677 3.39106 3.0636 0
M  V30 2974 C 273.674 4.3496 2.84791 0
M  V30 2975 C 271.359 3.80693 3.27686 0
M  V30 2976 C 273.353 5.70375 2.84519 0
M  V30 2977 C 271.04 5.16223 3.27043 0
M  V30 2978 C 272.038 6.10875 3.05485 0
M  V30 2979 O 271.726 7.43928 3.04674 0
M  V30 2980 H 271.458 0.426685 0.524324 0
M  V30 2981 H 274.012 1.7329 1.10271 0
M  V30 2982 H 272.242 1.34082 3.6271 0
M  V30 2983 H 273.931 1.75853 3.65829 0
M  V30 2984 H 274.697 4.0416 2.68103 0
M  V30 2985 H 270.576 3.07457 3.43499 0
M  V30 2986 H 274.12 6.44228 2.67611 0
M  V30 2987 H 270.017 5.4666 3.43269 0
M  V30 2988 H 270.785 7.53022 3.2078 0
M  V30 2989 N 273.449 -1.08991 1.13837 0
M  V30 2990 C 274.397 -2.17841 0.815347 0
M  V30 2991 C 275.391 -1.68164 -0.204233 0
M  V30 2992 O 276.597 -1.79897 -0.0609304 0
M  V30 2993 H 272.972 -0.710654 0.245915 0
M  V30 2994 H 274.943 -2.42315 1.74143 0
M  V30 2995 C 273.692 -3.46381 0.302614 0
M  V30 2996 H 273.015 -3.84979 1.0785 0
M  V30 2997 H 274.455 -4.23844 0.115074 0
M  V30 2998 C 272.914 -3.22556 -0.972591 0
M  V30 2999 O 273.444 -3.45599 -2.04754 0
M  V30 3000 N 271.65 -2.76134 -0.905455 0
M  V30 3001 H 271.197 -2.57582 -0.0305421 0
M  V30 3002 H 271.155 -2.60571 -1.75926 0
M  V30 3003 N 274.927 -0.932562 -1.27047 0
M  V30 3004 C 275.875 -0.42603 -2.28665 0
M  V30 3005 C 276.869 0.49219 -1.62092 0
M  V30 3006 O 278.075 0.371355 -1.76128 0
M  V30 3007 H 274.45 -0.119213 -0.742491 0
M  V30 3008 H 276.421 -1.29579 -2.68797 0
M  V30 3009 C 275.17 0.301426 -3.46391 0
M  V30 3010 H 274.493 -0.39595 -3.97834 0
M  V30 3011 H 275.933 0.6202 -4.1944 0
M  V30 3012 C 274.392 1.51616 -3.00856 0
M  V30 3013 O 274.922 2.61476 -3.04948 0
M  V30 3014 N 273.128 1.36969 -2.56296 0
M  V30 3015 H 272.675 0.475873 -2.53166 0
M  V30 3016 H 272.633 2.18368 -2.26192 0
M  V30 3017 N 276.405 1.4127 -0.698611 0
M  V30 3018 C 277.653 2.00782 -0.230409 0
M  V30 3019 C 277.974 1.5562 1.17505 0
M  V30 3020 O 277.244 0.78815 1.79346 0
M  V30 3021 H 275.824 0.742464 -0.0821944 0
M  V30 3022 H 278.486 1.72852 -0.90045 0
M  V30 3023 H 277.582 3.11095 -0.25021 0
M  V30 3024 N 277.883 0.443576 1.51229 0
M  V30 3025 C 279.13 -0.120796 2.02139 0
M  V30 3026 C 279.458 -1.42166 1.32736 0
M  V30 3027 O 278.713 -1.90849 0.43301 0
M  V30 3028 C 279.012 -0.380579 3.55368 0
M  V30 3029 C 278.678 0.83523 4.43097 0
M  V30 3030 C 277.34 1.16864 4.66794 0
M  V30 3031 C 279.692 1.64601 4.94526 0
M  V30 3032 C 277.02 2.31339 5.39165 0
M  V30 3033 C 279.372 2.78181 5.68153 0
M  V30 3034 C 278.036 3.11969 5.90112 0
M  V30 3035 H 277.306 -0.0442023 0.73968 0
M  V30 3036 H 279.953 0.592046 1.82118 0
M  V30 3037 H 278.258 -1.17538 3.73754 0
M  V30 3038 H 279.955 -0.830777 3.923 0
M  V30 3039 H 276.545 0.565437 4.24854 0
M  V30 3040 H 280.729 1.40163 4.76097 0
M  V30 3041 H 275.985 2.57823 5.5438 0
M  V30 3042 H 280.159 3.41371 6.06992 0
M  V30 3043 H 277.786 4.00784 6.45969 0
M  V30 3044 N 279.361 -1.56624 0.175154 0
M  V30 3045 C 280.589 -2.01374 -0.474971 0
M  V30 3046 C 281.004 -1.05537 -1.56548 0
M  V30 3047 O 280.361 -0.0568668 -1.82411 0
M  V30 3048 C 280.412 -3.45923 -1.04975 0
M  V30 3049 O 280.133 -4.381 -0.00276605 0
M  V30 3050 C 281.634 -4.06093 -1.77773 0
M  V30 3051 H 278.854 -0.659962 -0.121206 0
M  V30 3052 H 281.398 -2.02601 0.27801 0
M  V30 3053 H 279.553 -3.45458 -1.75321 0
M  V30 3054 H 279.967 -5.22753 -0.427681 0
M  V30 3055 H 281.441 -5.09147 -2.13245 0
M  V30 3056 H 281.918 -3.48405 -2.67414 0
M  V30 3057 H 282.524 -4.10272 -1.12059 0
M  V30 3058 N 280.839 0.0985539 -1.57292 0
M  V30 3059 C 282.064 0.820196 -1.90493 0
M  V30 3060 C 282.489 1.71658 -0.769094 0
M  V30 3061 O 281.847 1.79133 0.279495 0
M  V30 3062 C 281.895 1.61242 -3.22542 0
M  V30 3063 O 280.999 2.72108 -3.09888 0
M  V30 3064 H 280.34 0.225547 -0.62452 0
M  V30 3065 H 282.87 0.0748159 -2.04463 0
M  V30 3066 H 282.88 1.99737 -3.55766 0
M  V30 3067 H 281.555 0.954535 -4.04798 0
M  V30 3068 H 280.132 2.36667 -2.88172 0
M  V30 3069 N 282.317 1.53212 0.369288 0
M  V30 3070 C 283.563 1.69466 1.11397 0
M  V30 3071 C 283.896 0.443257 1.89074 0
M  V30 3072 O 283.171 -0.559386 1.86282 0
M  V30 3073 C 283.454 2.9422 2.07621 0
M  V30 3074 C 283.307 4.29508 1.33577 0
M  V30 3075 C 284.626 3.14565 3.07794 0
M  V30 3076 H 281.745 0.616667 0.403597 0
M  V30 3077 H 284.387 1.85845 0.395179 0
M  V30 3078 H 282.537 2.80387 2.68916 0
M  V30 3079 H 284.209 4.55147 0.750955 0
M  V30 3080 H 282.452 4.29088 0.637618 0
M  V30 3081 H 283.123 5.12926 2.03989 0
M  V30 3082 H 285.599 3.2756 2.56601 0
M  V30 3083 H 284.475 4.03297 3.72348 0
M  V30 3084 H 284.736 2.29675 3.77759 0
M  V30 3085 N 283.795 -0.628877 1.44509 0
M  V30 3086 C 284.727 -1.754 1.47538 0
M  V30 3087 C 285.74 -1.58575 0.368506 0
M  V30 3088 O 286.929 -1.66847 0.634376 0
M  V30 3089 C 284.029 -3.1315 1.29577 0
M  V30 3090 C 283.202 -3.56413 2.53551 0
M  V30 3091 C 282.261 -4.7305 2.30457 0
M  V30 3092 O 281.287 -4.81247 3.03957 0
M  V30 3093 N 282.489 -5.64903 1.3366 0
M  V30 3094 H 285.254 -1.73272 2.44534 0
M  V30 3095 H 282.815 -0.813512 1.39977 0
M  V30 3096 H 284.807 -3.88902 1.11971 0
M  V30 3097 H 283.377 -3.09908 0.409371 0
M  V30 3098 H 282.597 -2.70847 2.86419 0
M  V30 3099 H 283.885 -3.82071 3.36005 0
M  V30 3100 H 283.283 -5.60975 0.729604 0
M  V30 3101 H 281.84 -6.40275 1.22032 0
M  V30 3102 N 285.273 -1.31445 -0.869486 0
M  V30 3103 C 286.521 -1.20918 -1.61936 0
M  V30 3104 C 286.842 0.232683 -1.93607 0
M  V30 3105 O 286.112 1.15352 -1.58338 0
M  V30 3106 H 284.692 -0.44454 -0.600328 0
M  V30 3107 H 287.354 -1.64776 -1.0409 0
M  V30 3108 H 286.45 -1.78124 -2.56278 0
M  V30 3109 N 286.751 1.08385 -1.14413 0
M  V30 3110 C 287.981 1.8425 -0.934644 0
M  V30 3111 C 288.389 1.81907 0.520234 0
M  V30 3112 O 287.732 1.22126 1.37226 0
M  V30 3113 C 287.794 3.32853 -1.35828 0
M  V30 3114 C 287.458 3.5893 -2.82875 0
M  V30 3115 C 288.455 3.53756 -3.80989 0
M  V30 3116 C 286.14 3.86934 -3.20293 0
M  V30 3117 C 288.134 3.76216 -5.14529 0
M  V30 3118 C 285.821 4.09047 -4.54008 0
M  V30 3119 C 286.819 4.03682 -5.50936 0
M  V30 3120 O 286.507 4.25214 -6.82238 0
M  V30 3121 H 286.239 0.588502 -0.332628 0
M  V30 3122 H 288.793 1.37792 -1.52324 0
M  V30 3123 H 287.023 3.8007 -0.713019 0
M  V30 3124 H 288.712 3.90154 -1.11957 0
M  V30 3125 H 289.478 3.32135 -3.53428 0
M  V30 3126 H 285.357 3.9023 -2.45442 0
M  V30 3127 H 288.901 3.71943 -5.90173 0
M  V30 3128 H 284.798 4.30151 -4.8129 0
M  V30 3129 H 285.566 4.42619 -6.88499 0
M  V30 3130 N 288.23 0.939286 1.26551 0
M  V30 3131 C 289.193 0.451987 2.24699 0
M  V30 3132 C 290.193 -0.435869 1.5478 0
M  V30 3133 O 291.383 -0.235314 1.72603 0
M  V30 3134 C 288.515 -0.348801 3.39111 0
M  V30 3135 H 289.708 1.3193 2.69322 0
M  V30 3136 H 287.261 0.721072 1.38673 0
M  V30 3137 H 287.996 -1.23444 2.99887 0
M  V30 3138 H 287.781 0.287945 3.91041 0
M  V30 3139 H 289.271 -0.679726 4.12031 0
M  V30 3140 N 289.708 -1.40897 0.706093 0
M  V30 3141 C 290.955 -2.01054 0.241531 0
M  V30 3142 C 291.283 -1.55956 -1.16223 0
M  V30 3143 O 290.538 -0.766336 -1.80072 0
M  V30 3144 C 290.837 -3.5646 0.259099 0
M  V30 3145 C 290.503 -4.21106 1.61184 0
M  V30 3146 C 289.165 -4.38479 1.98216 0
M  V30 3147 C 291.517 -4.57256 2.50132 0
M  V30 3148 C 288.845 -4.89282 3.2376 0
M  V30 3149 C 291.197 -5.09454 3.7502 0
M  V30 3150 C 289.861 -5.25037 4.12181 0
M  V30 3151 H 289.131 -0.73571 0.0883825 0
M  V30 3152 H 291.778 -1.68645 0.907257 0
M  V30 3153 H 290.083 -3.88721 -0.490189 0
M  V30 3154 H 291.78 -4.00826 -0.11804 0
M  V30 3155 H 288.37 -4.07966 1.31384 0
M  V30 3156 H 292.554 -4.43479 2.228 0
M  V30 3157 H 287.81 -4.99531 3.52532 0
M  V30 3158 H 291.984 -5.36404 4.44121 0
M  V30 3159 H 289.611 -5.64164 5.09532 0
M  V30 3160 N 291.186 -0.45159 -1.50991 0
M  V30 3161 C 292.134 0.366864 -2.29689 0
M  V30 3162 C 293.128 1.00809 -1.36139 0
M  V30 3163 O 294.334 0.941427 -1.53418 0
M  V30 3164 H 290.709 0.137133 -0.739391 0
M  V30 3165 H 292.68 -0.317538 -2.96706 0
M  V30 3166 C 291.429 1.44751 -3.16137 0
M  V30 3167 H 290.752 0.963473 -3.88017 0
M  V30 3168 H 292.192 1.99315 -3.74232 0
M  V30 3169 C 290.651 2.43869 -2.32442 0
M  V30 3170 O 291.181 3.4872 -1.99392 0
M  V30 3171 N 289.387 2.15105 -1.95392 0
M  V30 3172 H 288.934 1.29866 -2.22469 0
M  V30 3173 H 288.892 2.81661 -1.39693 0
M  V30 3174 N 292.664 1.56529 -0.183458 0
M  V30 3175 C 293.912 1.96855 0.457452 0
M  V30 3176 C 294.233 1.07104 1.62953 0
M  V30 3177 O 293.503 0.139887 1.954 0
M  V30 3178 H 292.083 0.72693 0.171992 0
M  V30 3179 H 294.745 1.93056 -0.267476 0
M  V30 3180 H 293.841 3.01423 0.809368 0
M  V30 3181 N 294.142 -0.090211 1.57342 0
M  V30 3182 C 295.37 -0.806224 1.90546 0
M  V30 3183 C 295.785 -1.72041 0.777644 0
M  V30 3184 O 295.142 -1.80778 -0.250103 0
M  V30 3185 C 295.193 -1.61546 3.23396 0
M  V30 3186 O 294.914 -0.738043 4.31839 0
M  V30 3187 C 296.415 -2.4341 3.70495 0
M  V30 3188 H 293.635 -0.230256 0.630257 0
M  V30 3189 H 296.179 -0.0659843 2.04394 0
M  V30 3190 H 294.334 -2.30816 3.11131 0
M  V30 3191 H 294.748 -1.29901 5.08159 0
M  V30 3192 H 296.222 -2.95676 4.66133 0
M  V30 3193 H 296.699 -3.22098 2.98579 0
M  V30 3194 H 297.305 -1.79331 3.85643 0
M  V30 3195 N 295.62 -1.53406 -0.361157 0
M  V30 3196 C 296.567 -1.80156 -1.44265 0
M  V30 3197 C 297.537 -0.646183 -1.53015 0
M  V30 3198 O 298.722 -0.888818 -1.68833 0
M  V30 3199 C 295.862 -2.00116 -2.81154 0
M  V30 3200 C 294.975 -3.27833 -2.81335 0
M  V30 3201 C 294.11 -3.37957 -4.09828 0
M  V30 3202 C 293.149 -4.59689 -4.04168 0
M  V30 3203 N 292.286 -4.66942 -5.24318 0
M  V30 3204 H 297.126 -2.72438 -1.20754 0
M  V30 3205 H 294.663 -1.34954 -0.585296 0
M  V30 3206 H 296.621 -2.09677 -3.60682 0
M  V30 3207 H 295.251 -1.11167 -3.03054 0
M  V30 3208 H 294.303 -3.27204 -1.94014 0
M  V30 3209 H 295.615 -4.17442 -2.73027 0
M  V30 3210 H 294.769 -3.46853 -4.97773 0
M  V30 3211 H 293.508 -2.46372 -4.20894 0
M  V30 3212 H 292.513 -4.50889 -3.14609 0
M  V30 3213 H 293.738 -5.5262 -3.947 0
M  V30 3214 H 291.684 -3.7826 -5.35962 0
M  V30 3215 H 291.601 -5.50462 -5.18197 0
M  V30 3216 H 292.869 -4.80127 -6.14084 0
M  V30 3217 N 297.098 0.621204 -1.44841 0
M  V30 3218 C 298.028 1.74366 -1.55303 0
M  V30 3219 C 299.009 1.65199 -0.405385 0
M  V30 3220 O 300.194 1.83807 -0.626787 0
M  V30 3221 C 297.324 3.12931 -1.50637 0
M  V30 3222 C 296.278 3.36896 -2.63979 0
M  V30 3223 C 295.604 4.75594 -2.44366 0
M  V30 3224 C 296.904 3.28483 -4.06074 0
M  V30 3225 H 298.598 1.65867 -2.49256 0
M  V30 3226 H 296.144 0.796558 -1.19962 0
M  V30 3227 H 298.097 3.9124 -1.56555 0
M  V30 3228 H 296.821 3.22237 -0.532057 0
M  V30 3229 H 295.48 2.60972 -2.57467 0
M  V30 3230 H 295.128 4.81616 -1.45105 0
M  V30 3231 H 294.828 4.92586 -3.20364 0
M  V30 3232 H 296.352 5.5612 -2.52117 0
M  V30 3233 H 297.766 3.96684 -4.13902 0
M  V30 3234 H 296.163 3.57008 -4.82354 0
M  V30 3235 H 297.233 2.26133 -4.28943 0
M  V30 3236 N 298.576 1.31904 0.862503 0
M  V30 3237 C 299.853 1.12644 1.59908 0
M  V30 3238 C 300.233 -0.316104 2.0872 0
M  V30 3239 O 299.581 -1.31145 1.87118 0
M  V30 3240 C 299.791 2.1472 2.7513 0
M  V30 3241 C 301.139 2.47637 3.44907 0
M  V30 3242 O 302.163 2.13205 2.85346 0
M  V30 3243 O 301.022 3.06632 4.52371 0
M  V30 3244 H 298.116 0.43416 0.703871 0
M  V30 3245 H 300.662 1.43408 0.907314 0
M  V30 3246 H 299.434 3.1172 2.3653 0
M  V30 3247 H 299.057 1.84905 3.51989 0
M  V30 3248 N 300.054 -1.07777 1.14986 0
M  V30 3249 C 301.017 -2.13041 0.845358 0
M  V30 3250 C 302.017 -1.60071 -0.152931 0
M  V30 3251 O 303.207 -1.74033 0.0761879 0
M  V30 3252 C 300.339 -3.39896 0.261383 0
M  V30 3253 H 301.532 -2.41485 1.77834 0
M  V30 3254 H 299.085 -1.23595 0.956757 0
M  V30 3255 H 299.82 -3.17091 -0.68 0
M  V30 3256 H 299.605 -3.79642 0.980514 0
M  V30 3257 H 301.095 -4.17548 0.0657687 0
M  V30 3258 N 301.532 -0.945985 -1.26051 0
M  V30 3259 C 302.778 -0.597002 -1.93814 0
M  V30 3260 C 303.111 0.862484 -1.73997 0
M  V30 3261 O 302.386 1.61769 -1.07986 0
M  V30 3262 C 302.669 -0.945937 -3.47454 0
M  V30 3263 C 302.522 -2.46052 -3.76535 0
M  V30 3264 C 303.841 -0.464785 -4.37639 0
M  V30 3265 H 300.96 -0.218366 -0.703907 0
M  V30 3266 H 303.602 -1.18107 -1.48831 0
M  V30 3267 H 301.752 -0.448902 -3.85898 0
M  V30 3268 H 303.424 -3.03065 -3.47778 0
M  V30 3269 H 301.667 -2.90194 -3.22444 0
M  V30 3270 H 302.338 -2.65517 -4.83947 0
M  V30 3271 H 304.814 -0.891016 -4.06448 0
M  V30 3272 H 303.69 -0.737712 -5.4392 0
M  V30 3273 H 303.951 0.635274 -4.37512 0
M  V30 3274 N 303.011 1.40521 -0.713556 0
M  V30 3275 C 304.241 2.0494 -0.261395 0
M  V30 3276 C 304.649 1.53861 1.10107 0
M  V30 3277 O 303.992 0.689321 1.70276 0
M  V30 3278 C 304.054 3.59138 -0.161227 0
M  V30 3279 C 303.718 4.33096 -1.45865 0
M  V30 3280 C 304.715 4.61182 -2.40016 0
M  V30 3281 C 302.4 4.72043 -1.71701 0
M  V30 3282 C 304.394 5.27196 -3.58251 0
M  V30 3283 C 302.081 5.37789 -2.90218 0
M  V30 3284 C 303.079 5.65295 -3.83315 0
M  V30 3285 O 302.767 6.29683 -4.99754 0
M  V30 3286 H 302.499 0.666041 -0.115608 0
M  V30 3287 H 305.053 1.80954 -0.971849 0
M  V30 3288 H 303.283 3.81936 0.605153 0
M  V30 3289 H 304.972 4.05091 0.256105 0
M  V30 3290 H 305.738 4.31559 -2.21318 0
M  V30 3291 H 301.617 4.50003 -1.00092 0
M  V30 3292 H 305.161 5.48582 -4.30934 0
M  V30 3293 H 301.058 5.66831 -3.08825 0
M  V30 3294 H 301.826 6.4818 -4.99805 0
M  V30 3295 N 304.489 0.459591 1.5075 0
M  V30 3296 C 305.419 -0.330644 2.31147 0
M  V30 3297 C 306.4 -1.00087 1.37538 0
M  V30 3298 O 307.585 -1.00025 1.66459 0
M  V30 3299 C 304.715 -1.41958 3.16962 0
M  V30 3300 C 303.669 -0.871608 4.19031 0
M  V30 3301 C 302.995 -2.05797 4.9351 0
M  V30 3302 C 304.295 0.109251 5.22186 0
M  V30 3303 H 305.989 0.340336 2.97459 0
M  V30 3304 H 303.535 0.165119 1.4305 0
M  V30 3305 H 305.488 -1.9798 3.71997 0
M  V30 3306 H 304.212 -2.11917 2.48513 0
M  V30 3307 H 302.871 -0.333442 3.6508 0
M  V30 3308 H 302.519 -2.74427 4.21544 0
M  V30 3309 H 302.219 -1.6976 5.62544 0
M  V30 3310 H 303.743 -2.62331 5.51375 0
M  V30 3311 H 305.157 -0.361405 5.7216 0
M  V30 3312 H 303.554 0.383316 5.98875 0
M  V30 3313 H 304.624 1.03887 4.73641 0
M  V30 3314 N 305.967 -1.56429 0.191757 0
M  V30 3315 C 306.915 -2.20273 -0.747174 0
M  V30 3316 C 307.909 -1.17288 -1.22229 0
M  V30 3317 O 309.115 -1.35441 -1.18557 0
M  V30 3318 H 305.49 -0.705885 -0.259289 0
M  V30 3319 H 307.461 -2.97826 -0.184963 0
M  V30 3320 C 306.21 -2.87356 -1.95759 0
M  V30 3321 H 305.533 -3.66341 -1.60106 0
M  V30 3322 H 306.973 -3.3547 -2.59299 0
M  V30 3323 C 305.432 -1.88213 -2.79423 0
M  V30 3324 O 305.962 -1.38033 -3.7724 0
M  V30 3325 N 304.168 -1.56516 -2.44849 0
M  V30 3326 H 303.715 -1.97516 -1.65364 0
M  V30 3327 H 303.673 -0.904369 -3.01112 0
M  V30 3328 N 307.445 0.0818655 -1.57387 0
M  V30 3329 C 308.392 1.09834 -2.0299 0
M  V30 3330 C 309.362 1.39043 -0.908639 0
M  V30 3331 O 310.547 1.50282 -1.17559 0
M  V30 3332 C 307.687 2.40971 -2.47037 0
M  V30 3333 C 306.8 2.18379 -3.7274 0
M  V30 3334 C 305.935 3.43008 -4.0561 0
M  V30 3335 C 304.974 3.15736 -5.24383 0
M  V30 3336 N 304.111 4.32667 -5.52941 0
M  V30 3337 H 308.951 0.702472 -2.89602 0
M  V30 3338 H 306.488 0.33531 -1.43227 0
M  V30 3339 H 308.446 3.1752 -2.70623 0
M  V30 3340 H 307.076 2.78379 -1.63417 0
M  V30 3341 H 306.128 1.32569 -3.56552 0
M  V30 3342 H 307.44 1.94227 -4.59431 0
M  V30 3343 H 306.594 4.27958 -4.30043 0
M  V30 3344 H 305.333 3.70225 -3.17466 0
M  V30 3345 H 304.338 2.2918 -4.99757 0
M  V30 3346 H 305.563 2.8985 -6.14136 0
M  V30 3347 H 303.509 4.59935 -4.67756 0
M  V30 3348 H 303.426 4.11753 -6.34031 0
M  V30 3349 H 304.694 5.18644 -5.81918 0
M  V30 3350 N 308.923 1.53595 0.353017 0
M  V30 3351 C 309.871 1.81605 1.45335 0
M  V30 3352 C 310.865 0.685923 1.54892 0
M  V30 3353 O 312.071 0.869095 1.57628 0
M  V30 3354 H 308.446 0.575204 0.484401 0
M  V30 3355 H 310.417 2.73679 1.18921 0
M  V30 3356 C 309.166 2.03406 2.81995 0
M  V30 3357 H 308.489 2.89814 2.75405 0
M  V30 3358 H 309.929 2.26975 3.58132 0
M  V30 3359 C 308.388 0.816794 3.26849 0
M  V30 3360 O 308.918 0.0115856 4.01698 0
M  V30 3361 N 307.124 0.636682 2.8354 0
M  V30 3362 H 306.671 1.2931 2.22793 0
M  V30 3363 H 306.629 -0.176336 3.13905 0
M  V30 3364 N 310.401 -0.613514 1.45168 0
M  V30 3365 C 311.348 -1.72456 1.53387 0
M  V30 3366 C 312.318 -1.6169 0.380191 0
M  V30 3367 O 313.503 -1.81356 0.592836 0
M  V30 3368 C 310.643 -3.10753 1.50088 0
M  V30 3369 C 309.756 -3.32368 2.75963 0
M  V30 3370 C 308.891 -4.60737 2.64376 0
M  V30 3371 C 307.93 -4.7559 3.85332 0
M  V30 3372 N 307.067 -5.95253 3.72315 0
M  V30 3373 H 311.907 -1.64768 2.48305 0
M  V30 3374 H 309.444 -0.803503 1.23216 0
M  V30 3375 H 311.402 -3.90758 1.46164 0
M  V30 3376 H 310.032 -3.17413 0.587243 0
M  V30 3377 H 309.084 -2.4618 2.89999 0
M  V30 3378 H 310.396 -3.39218 3.65695 0
M  V30 3379 H 309.55 -5.48928 2.58385 0
M  V30 3380 H 308.289 -4.56275 1.72233 0
M  V30 3381 H 307.294 -3.85824 3.91688 0
M  V30 3382 H 308.519 -4.81854 4.78533 0
M  V30 3383 H 306.465 -5.91847 2.82937 0
M  V30 3384 H 306.382 -6.03236 4.55677 0
M  V30 3385 H 307.65 -6.85958 3.70246 0
M  V30 3386 N 311.879 -1.3236 -0.855495 0
M  V30 3387 C 313.109 -1.25688 -1.6397 0
M  V30 3388 C 313.517 0.177592 -1.88365 0
M  V30 3389 O 312.86 1.12485 -1.45234 0
M  V30 3390 C 312.922 -1.94602 -3.02275 0
M  V30 3391 C 312.586 -3.43937 -3.00926 0
M  V30 3392 C 313.583 -4.39435 -2.77835 0
M  V30 3393 C 311.268 -3.85858 -3.21588 0
M  V30 3394 C 313.262 -5.74829 -2.75409 0
M  V30 3395 C 310.949 -5.21361 -3.18789 0
M  V30 3396 C 311.947 -6.15658 -2.95727 0
M  V30 3397 O 311.635 -7.48681 -2.928 0
M  V30 3398 H 311.367 -0.434972 -0.51747 0
M  V30 3399 H 313.921 -1.75023 -1.075 0
M  V30 3400 H 312.151 -1.39836 -3.60531 0
M  V30 3401 H 313.84 -1.81651 -3.62985 0
M  V30 3402 H 314.606 -4.08374 -2.6164 0
M  V30 3403 H 310.485 -3.12883 -3.38564 0
M  V30 3404 H 314.029 -6.48404 -2.57328 0
M  V30 3405 H 309.926 -5.52052 -3.34528 0
M  V30 3406 H 310.694 -7.5803 -3.0876 0
M  V30 3407 N 313.357 1.07166 -1.15556 0
M  V30 3408 C 314.287 2.16403 -0.877046 0
M  V30 3409 C 315.268 1.69217 0.173111 0
M  V30 3410 O 316.453 1.94181 0.027084 0
M  V30 3411 C 313.583 3.45349 -0.367632 0
M  V30 3412 C 312.537 4.05995 -1.35468 0
M  V30 3413 C 311.863 5.30045 -0.704038 0
M  V30 3414 C 313.163 4.45804 -2.72132 0
M  V30 3415 H 314.857 2.39959 -1.79053 0
M  V30 3416 H 312.403 1.15325 -0.862331 0
M  V30 3417 H 314.356 4.21095 -0.160317 0
M  V30 3418 H 313.08 3.21385 0.581326 0
M  V30 3419 H 311.739 3.32296 -1.54839 0
M  V30 3420 H 311.387 5.02373 0.251128 0
M  V30 3421 H 311.087 5.71579 -1.36277 0
M  V30 3422 H 312.611 6.08495 -0.50654 0
M  V30 3423 H 314.025 5.12671 -2.56595 0
M  V30 3424 H 312.422 4.98296 -3.34397 0
M  V30 3425 H 313.492 3.57083 -3.28054 0
M  V30 3426 N 314.835 0.952656 1.25548 0
M  V30 3427 C 316.063 0.623496 1.97282 0
M  V30 3428 C 316.478 -0.803987 1.70826 0
M  V30 3429 O 315.835 -1.53755 0.983147 0
M  V30 3430 C 315.886 0.870209 3.5087 0
M  V30 3431 O 315.607 2.24156 3.76412 0
M  V30 3432 C 317.108 0.553164 4.39835 0
M  V30 3433 H 314.328 0.233931 0.628902 0
M  V30 3434 H 316.872 1.27649 1.59768 0
M  V30 3435 H 315.027 0.263652 3.86502 0
M  V30 3436 H 315.441 2.31021 4.70882 0
M  V30 3437 H 316.915 0.776342 5.46513 0
M  V30 3438 H 317.392 -0.512215 4.36203 0
M  V30 3439 H 317.998 1.13896 4.09766 0
M  V30 3440 N 316.313 -1.40141 0.720998 0
M  V30 3441 C 317.559 -2.01084 0.263231 0
M  V30 3442 C 317.892 -1.57052 -1.14229 0
M  V30 3443 O 317.167 -0.793027 -1.77599 0
M  V30 3444 C 317.45 -3.58401 0.349344 0
M  V30 3445 C 317.303 -4.12491 1.79363 0
M  V30 3446 C 318.622 -4.39231 -0.276351 0
M  V30 3447 H 315.741 -0.730572 0.0971228 0
M  V30 3448 H 318.383 -1.66543 0.914518 0
M  V30 3449 H 316.533 -3.87958 -0.205165 0
M  V30 3450 H 318.205 -3.93711 2.40394 0
M  V30 3451 H 316.448 -3.66576 2.31958 0
M  V30 3452 H 317.119 -5.21646 1.80524 0
M  V30 3453 H 319.595 -4.15637 0.196184 0
M  V30 3454 H 318.471 -5.48586 -0.185681 0
M  V30 3455 H 318.732 -4.20643 -1.36059 0
M  V30 3456 N 317.792 -0.46758 -1.50504 0
M  V30 3457 C 319.041 0.0902868 -2.01498 0
M  V30 3458 C 319.354 1.411 -1.35463 0
M  V30 3459 O 320.56 2.0536 -1.77594 0
M  V30 3460 C 319.016 0.21142 -3.59278 0
M  V30 3461 C 318.624 -1.10065 -4.34269 0
M  V30 3462 C 320.368 0.721433 -4.18325 0
M  V30 3463 C 318.275 -0.943505 -5.83825 0
M  V30 3464 H 317.205 0.037517 -0.753066 0
M  V30 3465 H 319.856 -0.601943 -1.73346 0
M  V30 3466 H 318.238 0.967352 -3.84003 0
M  V30 3467 H 319.412 -1.86726 -4.21272 0
M  V30 3468 H 317.727 -1.5415 -3.86816 0
M  V30 3469 H 320.324 0.85598 -5.27804 0
M  V30 3470 H 320.667 1.71186 -3.79475 0
M  V30 3471 H 321.2 0.0229843 -3.97793 0
M  V30 3472 H 317.939 -1.90719 -6.27141 0
M  V30 3473 H 317.459 -0.217213 -5.99407 0
M  V30 3474 H 319.138 -0.608715 -6.4413 0
M  V30 3475 N 319.27 1.56325 -0.20005 0
M  V30 3476 C 320.547 1.89484 0.48529 0
M  V30 3477 C 320.927 1.1143 1.79294 0
M  V30 3478 O 320.275 0.216919 2.27468 0
M  V30 3479 C 320.485 3.41923 0.699243 0
M  V30 3480 C 321.833 4.12256 1.01638 0
M  V30 3481 O 322.857 3.47402 0.786792 0
M  V30 3482 O 321.716 5.26887 1.45095 0
M  V30 3483 H 318.81 0.787144 0.253639 0
M  V30 3484 H 321.356 1.67985 -0.240633 0
M  V30 3485 H 320.128 3.90658 -0.224008 0
M  V30 3486 H 319.751 3.69131 1.47744 0
M  V30 3487 N 320.748 -0.0735177 1.57428 0
M  V30 3488 C 321.695 -1.08756 2.0357 0
M  V30 3489 C 322.665 -1.38559 0.916 0
M  V30 3490 O 323.85 -1.49656 1.18354 0
M  V30 3491 C 320.99 -2.39657 2.48311 0
M  V30 3492 C 320.103 -2.16399 3.73892 0
M  V30 3493 C 319.238 -3.40852 4.07423 0
M  V30 3494 C 318.277 -3.1295 5.2605 0
M  V30 3495 N 317.414 -4.29729 5.55228 0
M  V30 3496 H 322.254 -0.687104 2.8997 0
M  V30 3497 H 319.791 -0.327709 1.43403 0
M  V30 3498 H 321.749 -3.16081 2.72303 0
M  V30 3499 H 320.379 -2.77508 1.64891 0
M  V30 3500 H 319.431 -1.30676 3.57251 0
M  V30 3501 H 320.743 -1.91788 4.60455 0
M  V30 3502 H 319.897 -4.25671 4.32306 0
M  V30 3503 H 318.636 -3.68537 3.19425 0
M  V30 3504 H 317.641 -2.26526 5.00965 0
M  V30 3505 H 318.866 -2.86589 6.15665 0
M  V30 3506 H 316.812 -4.57448 4.70188 0
M  V30 3507 H 316.729 -4.08385 6.36206 0
M  V30 3508 H 317.997 -5.1555 5.84661 0
M  V30 3509 N 322.226 -1.5378 -0.344866 0
M  V30 3510 C 323.503 -1.61589 -1.10219 0
M  V30 3511 C 323.883 -0.436316 -2.06542 0
M  V30 3512 O 323.231 0.571543 -2.21237 0
M  V30 3513 C 323.441 -2.97602 -1.82301 0
M  V30 3514 C 324.789 -3.5291 -2.36093 0
M  V30 3515 O 325.813 -2.99768 -1.924 0
M  V30 3516 O 324.672 -4.45859 -3.16026 0
M  V30 3517 H 321.766 -0.653522 -0.506792 0
M  V30 3518 H 324.312 -1.66126 -0.346465 0
M  V30 3519 H 323.084 -3.74893 -1.12121 0
M  V30 3520 H 322.707 -2.9665 -2.64735 0
M  V30 3521 N 323.704 0.605807 -1.45491 0
M  V30 3522 C 324.667 1.69836 -1.5391 0
M  V30 3523 C 325.667 1.55261 -0.418424 0
M  V30 3524 O 326.857 1.60296 -0.681965 0
M  V30 3525 C 323.989 3.09117 -1.43734 0
M  V30 3526 H 325.182 1.63738 -2.51257 0
M  V30 3527 H 322.735 0.821689 -1.32959 0
M  V30 3528 H 323.47 3.20791 -0.475788 0
M  V30 3529 H 323.255 3.21104 -2.25021 0
M  V30 3530 H 324.745 3.88696 -1.52661 0
M  V30 3531 N 325.182 1.32811 0.848464 0
M  V30 3532 C 326.429 1.23724 1.60308 0
M  V30 3533 C 326.757 -0.1994 1.93475 0
M  V30 3534 O 326.012 -1.15406 1.5805 0
M  V30 3535 C 326.311 2.04831 2.92881 0
M  V30 3536 C 325.977 3.54125 2.79117 0
M  V30 3537 C 324.639 3.94829 2.7507 0
M  V30 3538 C 326.991 4.49036 2.64606 0
M  V30 3539 C 324.319 5.28675 2.544 0
M  V30 3540 C 326.671 5.83033 2.4547 0
M  V30 3541 C 325.335 6.22931 2.39819 0
M  V30 3542 H 324.605 0.452737 0.586609 0
M  V30 3543 H 327.252 1.64301 0.983743 0
M  V30 3544 H 325.557 1.57001 3.58968 0
M  V30 3545 H 327.254 1.95164 3.50303 0
M  V30 3546 H 323.844 3.21801 2.83094 0
M  V30 3547 H 328.028 4.18505 2.66772 0
M  V30 3548 H 323.284 5.58637 2.48465 0
M  V30 3549 H 327.458 6.56186 2.33222 0
M  V30 3550 H 325.085 7.26584 2.23562 0
M  V30 3551 N 326.66 -1.06551 1.16123 0
M  V30 3552 C 327.908 -1.78947 0.939267 0
M  V30 3553 C 328.229 -1.87532 -0.534476 0
M  V30 3554 O 327.499 -1.38211 -1.38833 0
M  V30 3555 H 326.079 -0.662807 0.344523 0
M  V30 3556 H 328.741 -1.28725 1.46342 0
M  V30 3557 H 327.837 -2.81117 1.35572 0
M  V30 3558 N 328.138 -0.959301 -1.25041 0
M  V30 3559 C 329.386 -0.615393 -1.92503 0
M  V30 3560 C 329.707 0.850969 -1.75452 0
M  V30 3561 O 328.977 1.60658 -1.12098 0
M  V30 3562 H 327.557 -0.224613 -0.712431 0
M  V30 3563 H 330.219 -1.21855 -1.5211 0
M  V30 3564 H 329.315 -0.848738 -3.00338 0
M  V30 3565 N 329.616 1.39756 -0.72842 0
M  V30 3566 C 330.862 2.00942 -0.273892 0
M  V30 3567 C 331.195 1.57656 1.13394 0
M  V30 3568 O 330.47 0.802434 1.77176 0
M  V30 3569 C 330.753 3.58211 -0.368346 0
M  V30 3570 C 330.606 4.11534 -1.81548 0
M  V30 3571 C 331.925 4.39372 0.253054 0
M  V30 3572 H 329.044 0.730047 -0.100996 0
M  V30 3573 H 331.686 1.66056 -0.923337 0
M  V30 3574 H 329.836 3.88061 0.184588 0
M  V30 3575 H 331.508 3.92431 -2.42478 0
M  V30 3576 H 329.751 3.65341 -2.33898 0
M  V30 3577 H 330.422 5.20682 -1.83288 0
M  V30 3578 H 332.898 4.15527 -0.218224 0
M  V30 3579 H 331.774 5.48677 0.156585 0
M  V30 3580 H 332.035 4.21358 1.33826 0
M  V30 3581 N 331.094 0.475555 1.50254 0
M  V30 3582 C 332.324 -0.0753399 2.06463 0
M  V30 3583 C 332.732 -1.33661 1.33908 0
M  V30 3584 O 332.075 -1.79219 0.403257 0
M  V30 3585 C 332.137 -0.424921 3.5698 0
M  V30 3586 C 331.801 0.734965 4.51051 0
M  V30 3587 C 332.798 1.61827 4.94073 0
M  V30 3588 C 330.483 0.926557 4.9368 0
M  V30 3589 C 332.477 2.67754 5.78434 0
M  V30 3590 C 330.164 1.98904 5.77824 0
M  V30 3591 C 331.162 2.8629 6.20103 0
M  V30 3592 O 330.85 3.90708 7.02568 0
M  V30 3593 H 330.582 0.00576308 0.675975 0
M  V30 3594 H 333.136 0.664662 1.94349 0
M  V30 3595 H 331.366 -1.21817 3.67012 0
M  V30 3596 H 333.055 -0.911422 3.95535 0
M  V30 3597 H 333.821 1.48196 4.61804 0
M  V30 3598 H 329.7 0.25584 4.6029 0
M  V30 3599 H 333.244 3.35992 6.11355 0
M  V30 3600 H 329.141 2.12541 6.09505 0
M  V30 3601 H 329.909 3.87751 7.20827 0
M  V30 3602 N 332.573 -1.56217 0.208337 0
M  V30 3603 C 333.798 -2.02782 -0.435222 0
M  V30 3604 C 334.223 -1.08738 -1.53485 0
M  V30 3605 O 333.581 -0.0731855 -1.81152 0
M  V30 3606 C 333.629 -3.47687 -0.956335 0
M  V30 3607 O 332.733 -3.56773 -2.06849 0
M  V30 3608 H 332.074 -0.656403 -0.100158 0
M  V30 3609 H 334.604 -2.02033 0.3231 0
M  V30 3610 H 334.614 -3.87745 -1.26955 0
M  V30 3611 H 333.289 -4.15624 -0.15143 0
M  V30 3612 H 331.866 -3.28597 -1.76292 0
M  V30 3613 N 334.051 0.0651679 -1.57465 0
M  V30 3614 C 335.299 0.761555 -1.87202 0
M  V30 3615 C 335.62 1.77778 -0.801243 0
M  V30 3616 O 334.89 1.95166 0.16937 0
M  V30 3617 H 333.47 0.284251 -0.690804 0
M  V30 3618 H 336.132 0.0396827 -1.9486 0
M  V30 3619 H 335.228 1.27365 -2.84929 0
M  V30 3620 N 335.529 1.53961 0.336706 0
M  V30 3621 C 336.94 1.62914 0.911925 0
M  V30 3622 C 337.291 0.514795 1.89326 0
M  V30 3623 O 336.416 -0.354395 2.13478 0
M  V30 3624 C 337.011 2.95304 1.66076 0
M  V30 3625 C 335.57 3.06496 2.18489 0
M  V30 3626 C 334.717 2.58403 1.00613 0
M  V30 3627 H 337.668 1.58285 0.114649 0
M  V30 3628 H 337.689 2.84727 2.5241 0
M  V30 3629 H 337.201 3.76387 0.946276 0
M  V30 3630 H 335.302 2.3006 2.93092 0
M  V30 3631 H 335.415 4.1208 2.44391 0
M  V30 3632 H 333.779 2.13977 1.38152 0
M  V30 3633 H 334.562 3.41932 0.306179 0
M  V30 3634 N 337.007 -0.598083 1.45811 0
M  V30 3635 C 338.232 -1.3881 1.54099 0
M  V30 3636 C 338.657 -1.8726 0.177578 0
M  V30 3637 O 338.015 -1.6069 -0.839541 0
M  V30 3638 C 338.063 -2.56217 2.53743 0
M  V30 3639 O 337.167 -3.5716 2.06182 0
M  V30 3640 H 336.508 -0.414024 0.519115 0
M  V30 3641 H 339.038 -0.726971 1.91249 0
M  V30 3642 H 339.048 -3.03337 2.72856 0
M  V30 3643 H 337.723 -2.20303 3.5276 0
M  V30 3644 H 336.3 -3.16624 1.96987 0
M  V30 3645 N 338.485 -1.33259 -0.841409 0
M  V30 3646 C 339.415 -1.25926 -1.96634 0
M  V30 3647 C 340.396 -0.140349 -1.6952 0
M  V30 3648 O 341.581 -0.329707 -1.91381 0
M  V30 3649 C 338.711 -0.99512 -3.32738 0
M  V30 3650 C 337.665 -2.0767 -3.74242 0
M  V30 3651 C 336.991 -1.66474 -5.08125 0
M  V30 3652 C 338.291 -3.49318 -3.88297 0
M  V30 3653 H 339.985 -2.20046 -2.03027 0
M  V30 3654 H 337.531 -1.05931 -0.975425 0
M  V30 3655 H 339.484 -0.930323 -4.11002 0
M  V30 3656 H 338.208 -0.0183004 -3.26595 0
M  V30 3657 H 336.867 -2.13187 -2.98239 0
M  V30 3658 H 336.515 -0.675012 -4.9845 0
M  V30 3659 H 336.215 -2.3885 -5.36865 0
M  V30 3660 H 337.739 -1.61455 -5.88867 0
M  V30 3661 H 339.153 -3.46316 -4.56879 0
M  V30 3662 H 337.55 -4.20158 -4.28471 0
M  V30 3663 H 338.62 -3.8801 -2.9082 0
M  V30 3664 N 339.963 1.05934 -1.16686 0
M  V30 3665 C 340.893 2.1546 -0.899949 0
M  V30 3666 C 341.874 1.69391 0.155154 0
M  V30 3667 O 343.059 1.94199 0.00648693 0
M  V30 3668 C 340.189 3.44939 -0.404241 0
M  V30 3669 C 339.143 4.04536 -1.39767 0
M  V30 3670 C 338.469 5.29268 -0.760216 0
M  V30 3671 C 339.769 4.42893 -2.76845 0
M  V30 3672 H 341.463 2.38046 -1.81588 0
M  V30 3673 H 339.009 1.14404 -0.874514 0
M  V30 3674 H 340.962 4.20901 -0.204971 0
M  V30 3675 H 339.686 3.21983 0.547206 0
M  V30 3676 H 338.345 3.30635 -1.58355 0
M  V30 3677 H 337.993 5.02611 0.197831 0
M  V30 3678 H 337.693 5.70101 -1.42332 0
M  V30 3679 H 339.217 6.07924 -0.57105 0
M  V30 3680 H 340.631 5.09921 -2.62019 0
M  V30 3681 H 339.028 4.94721 -3.39663 0
M  V30 3682 H 340.098 3.53584 -3.31823 0
M  V30 3683 N 341.441 0.965919 1.2453 0
M  V30 3684 C 342.718 0.543777 1.87889 0
M  V30 3685 C 343.098 -0.97909 1.87021 0
M  V30 3686 O 342.446 -1.84969 1.3416 0
M  V30 3687 C 342.656 1.13327 3.30088 0
M  V30 3688 C 344.004 1.21707 4.06783 0
M  V30 3689 O 345.028 1.08566 3.39252 0
M  V30 3690 O 343.887 1.42456 5.27606 0
M  V30 3691 H 340.981 0.181054 0.806938 0
M  V30 3692 H 343.527 1.06007 1.32516 0
M  V30 3693 H 342.299 2.17612 3.25209 0
M  V30 3694 H 341.922 0.600911 3.93033 0
M  V30 3695 N 342.919 -1.39368 0.735821 0
M  V30 3696 C 344.165 -2.00794 0.284544 0
M  V30 3697 C 344.498 -1.58255 -1.12557 0
M  V30 3698 O 343.773 -0.811819 -1.76748 0
M  V30 3699 C 344.056 -3.58011 0.387337 0
M  V30 3700 C 343.909 -4.10566 1.83728 0
M  V30 3701 C 345.228 -4.395 -0.22975 0
M  V30 3702 H 342.347 -0.729501 0.104866 0
M  V30 3703 H 344.989 -1.65564 0.93213 0
M  V30 3704 H 343.139 -3.88154 -0.164006 0
M  V30 3705 H 344.811 -3.91139 2.44556 0
M  V30 3706 H 343.054 -3.64095 2.35833 0
M  V30 3707 H 343.725 -5.19702 1.86047 0
M  V30 3708 H 346.201 -4.15406 0.240257 0
M  V30 3709 H 345.077 -5.48752 -0.127485 0
M  V30 3710 H 345.338 -4.22062 -1.3159 0
M  V30 3711 N 344.397 -0.483516 -1.5 0
M  V30 3712 C 345.622 0.0667119 -2.07293 0
M  V30 3713 C 346.047 1.3164 -1.3436 0
M  V30 3714 O 345.405 1.76945 -0.394987 0
M  V30 3715 C 345.453 0.321126 -3.59167 0
M  V30 3716 O 344.557 1.39927 -3.87936 0
M  V30 3717 H 343.898 -0.0184758 -0.663743 0
M  V30 3718 H 346.428 -0.678125 -1.93035 0
M  V30 3719 H 346.438 0.557906 -4.04168 0
M  V30 3720 H 345.113 -0.592007 -4.11665 0
M  V30 3721 H 343.69 1.14882 -3.54763 0
M  V30 3722 N 345.875 1.56104 -0.216619 0
M  V30 3723 C 346.807 2.17339 0.72776 0
M  V30 3724 C 347.82 1.14109 1.16116 0
M  V30 3725 O 349.009 1.4111 1.09317 0
M  V30 3726 C 346.109 2.73818 1.99693 0
M  V30 3727 C 345.282 4.02168 1.71988 0
M  V30 3728 C 344.341 4.43259 2.83562 0
M  V30 3729 O 343.367 5.10257 2.52244 0
M  V30 3730 N 344.569 4.08535 4.12407 0
M  V30 3731 H 347.334 2.99005 0.203983 0
M  V30 3732 H 344.895 1.61861 -0.0354289 0
M  V30 3733 H 346.887 2.9828 2.73516 0
M  V30 3734 H 345.457 1.96483 2.43132 0
M  V30 3735 H 344.677 3.85612 0.818337 0
M  V30 3736 H 345.965 4.85907 1.50903 0
M  V30 3737 H 345.363 3.54687 4.40696 0
M  V30 3738 H 343.92 4.37901 4.8279 0
M  V30 3739 N 347.353 -0.0568162 1.57498 0
M  V30 3740 C 348.581 -0.765626 1.92213 0
M  V30 3741 C 348.996 -1.70353 0.813961 0
M  V30 3742 O 348.353 -1.81268 -0.211701 0
M  V30 3743 C 348.404 -1.5465 3.2675 0
M  V30 3744 O 348.125 -0.646278 4.33307 0
M  V30 3745 C 349.626 -2.35497 3.75574 0
M  V30 3746 H 346.846 -0.216835 0.634999 0
M  V30 3747 H 349.39 -0.0226146 2.04487 0
M  V30 3748 H 347.545 -2.24165 3.15957 0
M  V30 3749 H 347.959 -1.19093 5.108 0
M  V30 3750 H 349.433 -2.85722 4.72299 0
M  V30 3751 H 349.91 -3.15692 3.05344 0
M  V30 3752 H 350.516 -1.7111 3.8936 0
M  V30 3753 N 348.832 -1.54138 -0.328536 0
M  V30 3754 C 350.057 -1.76378 -1.09112 0
M  V30 3755 C 350.482 -0.508596 -1.81094 0
M  V30 3756 O 349.84 0.539598 -1.73084 0
M  V30 3757 C 349.888 -2.95358 -2.06872 0
M  V30 3758 O 348.992 -2.66556 -3.14677 0
M  V30 3759 H 348.333 -0.584614 -0.314838 0
M  V30 3760 H 350.863 -2.01146 -0.374348 0
M  V30 3761 H 350.873 -3.22566 -2.4983 0
M  V30 3762 H 349.548 -3.86385 -1.5388 0
M  V30 3763 H 348.125 -2.50282 -2.7643 0
M  V30 3764 N 350.31 0.590341 -1.46126 0
M  V30 3765 C 351.556 1.35082 -1.51264 0
M  V30 3766 C 351.889 1.93534 -0.160711 0
M  V30 3767 O 351.164 1.76045 0.826956 0
M  V30 3768 C 351.447 2.48588 -2.6053 0
M  V30 3769 C 351.3 1.95221 -4.05227 0
M  V30 3770 C 352.619 3.50662 -2.6594 0
M  V30 3771 H 349.738 0.489803 -0.550692 0
M  V30 3772 H 352.38 0.663887 -1.78024 0
M  V30 3773 H 350.53 3.07186 -2.37843 0
M  V30 3774 H 352.202 1.41139 -4.39178 0
M  V30 3775 H 350.445 1.26101 -4.15068 0
M  V30 3776 H 351.116 2.77121 -4.77397 0
M  V30 3777 H 353.592 3.01934 -2.86313 0
M  V30 3778 H 352.468 4.27551 -3.44226 0
M  V30 3779 H 352.729 4.07399 -1.71694 0
M  V30 3780 N 351.788 1.33704 0.83433 0
M  V30 3781 C 353.016 1.28467 1.62185 0
M  V30 3782 C 353.431 -0.143526 1.88254 0
M  V30 3783 O 352.788 -1.08709 1.4659 0
M  V30 3784 C 352.839 2.06174 2.96942 0
M  V30 3785 O 352.56 3.43422 2.72016 0
M  V30 3786 C 354.061 2.08201 3.91366 0
M  V30 3787 H 351.281 0.4424 0.504503 0
M  V30 3788 H 353.825 1.76145 1.03891 0
M  V30 3789 H 351.98 1.62167 3.51825 0
M  V30 3790 H 352.394 3.83453 3.57861 0
M  V30 3791 H 353.868 2.67017 4.83121 0
M  V30 3792 H 354.345 1.07343 4.2588 0
M  V30 3793 H 354.951 2.52246 3.42421 0
M  V30 3794 N 353.266 -1.05314 1.17247 0
M  V30 3795 C 354.229 -2.112 0.890357 0
M  V30 3796 C 355.229 -1.60359 -0.118943 0
M  V30 3797 O 356.419 -1.73833 0.113086 0
M  V30 3798 C 353.551 -3.39266 0.333422 0
M  V30 3799 H 354.744 -2.37659 1.82916 0
M  V30 3800 H 352.297 -1.21538 0.982758 0
M  V30 3801 H 353.032 -3.18462 -0.612587 0
M  V30 3802 H 352.817 -3.77477 1.06082 0
M  V30 3803 H 354.307 -4.17315 0.154322 0
M  V30 3804 N 354.744 -0.972509 -1.24016 0
M  V30 3805 C 355.674 -0.525548 -2.27509 0
M  V30 3806 C 356.655 0.437262 -1.64384 0
M  V30 3807 O 357.84 0.332343 -1.91335 0
M  V30 3808 C 354.97 0.180448 -3.46831 0
M  V30 3809 C 353.924 -0.698859 -4.22256 0
M  V30 3810 C 353.25 0.138903 -5.3452 0
M  V30 3811 C 354.55 -1.98582 -4.83076 0
M  V30 3812 H 356.244 -1.39058 -2.65148 0
M  V30 3813 H 353.79 -0.67009 -1.27459 0
M  V30 3814 H 355.743 0.504387 -4.18371 0
M  V30 3815 H 354.467 1.07987 -3.08231 0
M  V30 3816 H 353.126 -1.00614 -3.52523 0
M  V30 3817 H 352.774 1.03862 -4.9216 0
M  V30 3818 H 352.474 -0.446259 -5.85903 0
M  V30 3819 H 353.998 0.457404 -6.08884 0
M  V30 3820 H 355.412 -1.72715 -5.46665 0
M  V30 3821 H 353.809 -2.5181 -5.44713 0
M  V30 3822 H 354.879 -2.67769 -4.04262 0
M  V30 3823 N 356.222 1.38976 -0.743202 0
M  V30 3824 C 357.633 1.83123 -0.363732 0
M  V30 3825 C 357.984 1.6205 1.10609 0
M  V30 3826 O 357.109 1.11606 1.854 0
M  V30 3827 C 357.704 3.32439 -0.653408 0
M  V30 3828 C 356.263 3.74974 -0.327338 0
M  V30 3829 C 355.41 2.61878 -0.911875 0
M  V30 3830 H 358.361 1.27852 -0.940191 0
M  V30 3831 H 358.382 3.80432 0.0720031 0
M  V30 3832 H 357.894 3.47745 -1.72323 0
M  V30 3833 H 355.995 3.65252 0.736314 0
M  V30 3834 H 356.108 4.72106 -0.815631 0
M  V30 3835 H 354.472 2.52448 -0.337944 0
M  V30 3836 H 355.255 2.79987 -1.98651 0
M  V30 3837 N 357.7 0.491464 1.49741 0
M  V30 3838 C 358.925 -0.0557177 2.07325 0
M  V30 3839 C 359.35 -1.30925 1.35056 0
M  V30 3840 O 358.708 -1.76733 0.404365 0
M  V30 3841 C 358.756 -0.302074 3.59333 0
M  V30 3842 O 357.86 -1.37868 3.88672 0
M  V30 3843 H 357.201 0.0219956 0.663636 0
M  V30 3844 H 359.731 0.688352 1.92673 0
M  V30 3845 H 359.741 -0.536464 4.04458 0
M  V30 3846 H 358.416 0.61383 4.11345 0
M  V30 3847 H 356.993 -1.12999 3.55367 0
M  V30 3848 N 359.178 -1.55987 0.224894 0
M  V30 3849 C 360.125 -2.20436 -0.68385 0
M  V30 3850 C 361.095 -1.16102 -1.18783 0
M  V30 3851 O 362.28 -1.4447 -1.24632 0
M  V30 3852 C 359.42 -2.89076 -1.88491 0
M  V30 3853 C 358.533 -4.08012 -1.41951 0
M  V30 3854 C 357.668 -4.64426 -2.5784 0
M  V30 3855 C 356.707 -5.75656 -2.08053 0
M  V30 3856 N 355.844 -6.26347 -3.17227 0
M  V30 3857 H 360.684 -2.97727 -0.12754 0
M  V30 3858 H 358.221 -1.47011 -0.0511978 0
M  V30 3859 H 360.179 -3.27059 -2.59014 0
M  V30 3860 H 358.809 -2.14298 -2.41405 0
M  V30 3861 H 357.861 -3.75492 -0.609095 0
M  V30 3862 H 359.173 -4.88375 -1.01447 0
M  V30 3863 H 358.327 -5.04869 -3.3644 0
M  V30 3864 H 357.066 -3.83233 -3.01635 0
M  V30 3865 H 356.071 -5.34712 -1.27916 0
M  V30 3866 H 357.296 -6.58686 -1.65255 0
M  V30 3867 H 355.242 -5.48067 -3.60497 0
M  V30 3868 H 355.159 -7.01843 -2.80986 0
M  V30 3869 H 356.427 -6.71447 -3.95953 0
M  V30 3870 N 360.656 0.0484629 -1.57525 0
M  V30 3871 C 361.904 0.741657 -1.88 0
M  V30 3872 C 362.225 1.76918 -0.820054 0
M  V30 3873 O 361.495 1.95335 0.148661 0
M  V30 3874 H 360.075 0.276908 -0.69378 0
M  V30 3875 H 362.737 0.019013 -1.94891 0
M  V30 3876 H 361.833 1.24336 -2.86264 0
M  V30 3877 N 362.134 1.5431 0.320358 0
M  V30 3878 C 363.064 1.86912 1.3995 0
M  V30 3879 C 364.045 0.726211 1.53819 0
M  V30 3880 O 365.23 0.980233 1.67646 0
M  V30 3881 C 362.36 2.09932 2.7667 0
M  V30 3882 C 361.314 3.25776 2.77586 0
M  V30 3883 C 360.64 3.34173 4.17412 0
M  V30 3884 C 361.94 4.6335 2.41048 0
M  V30 3885 H 363.634 2.77292 1.12914 0
M  V30 3886 H 361.18 1.33421 0.541738 0
M  V30 3887 H 363.133 2.31324 3.52232 0
M  V30 3888 H 361.857 1.16304 3.0519 0
M  V30 3889 H 360.516 3.04276 2.04479 0
M  V30 3890 H 360.164 2.38098 4.43078 0
M  V30 3891 H 359.864 4.12033 4.18931 0
M  V30 3892 H 361.388 3.57803 4.94782 0
M  V30 3893 H 362.802 4.84602 3.06324 0
M  V30 3894 H 361.199 5.43782 2.53813 0
M  V30 3895 H 362.269 4.65381 1.36193 0
M  V30 3896 N 363.613 -0.582584 1.46437 0
M  V30 3897 C 364.523 -1.71949 1.59595 0
M  V30 3898 C 365.539 -1.67264 0.479443 0
M  V30 3899 O 366.715 -1.87171 0.743579 0
M  V30 3900 C 363.78 -3.08452 1.58298 0
M  V30 3901 C 362.841 -3.244 2.81182 0
M  V30 3902 C 362.074 -4.54391 2.79937 0
M  V30 3903 O 362.297 -5.38287 1.8869 0
M  V30 3904 O 361.231 -4.73588 3.71481 0
M  V30 3905 H 365.057 -1.63795 2.55744 0
M  V30 3906 H 362.642 -0.749643 1.29231 0
M  V30 3907 H 364.524 -3.89732 1.60271 0
M  V30 3908 H 363.199 -3.17043 0.653094 0
M  V30 3909 H 362.106 -2.42613 2.84763 0
M  V30 3910 H 363.439 -3.20699 3.7338 0
M  V30 3911 N 365.091 -1.34144 -0.827227 0
M  V30 3912 C 366.041 -1.21923 -1.92663 0
M  V30 3913 C 367.025 -0.119294 -1.60457 0
M  V30 3914 O 368.217 -0.348539 -1.73534 0
M  V30 3915 C 365.346 -0.972492 -3.29238 0
M  V30 3916 C 364.432 -2.1154 -3.67576 0
M  V30 3917 N 364.823 -3.36627 -3.77512 0
M  V30 3918 C 363.121 -2.02468 -3.97395 0
M  V30 3919 C 363.822 -4.11658 -4.1099 0
M  V30 3920 N 362.798 -3.40207 -4.23981 0
M  V30 3921 H 366.6 -2.16721 -1.98517 0
M  V30 3922 H 364.114 -1.2632 -1.02064 0
M  V30 3923 H 366.111 -0.865847 -4.0781 0
M  V30 3924 H 364.771 -0.0331509 -3.24683 0
M  V30 3925 H 365.782 -3.71234 -3.61118 0
M  V30 3926 H 362.459 -1.16265 -4.00985 0
M  V30 3927 H 363.849 -5.19657 -4.25918 0
M  V30 3928 N 366.569 1.04691 -1.17803 0
M  V30 3929 C 367.499 2.14494 -0.92275 0
M  V30 3930 C 368.48 1.69546 0.137179 0
M  V30 3931 O 369.665 1.94195 -0.0141108 0
M  V30 3932 C 366.795 3.44491 -0.440803 0
M  V30 3933 C 365.749 4.03031 -1.4405 0
M  V30 3934 C 365.075 5.28432 -0.81631 0
M  V30 3935 C 366.375 4.39932 -2.81527 0
M  V30 3936 H 368.069 2.36107 -1.84103 0
M  V30 3937 H 365.615 1.1347 -0.886599 0
M  V30 3938 H 367.568 4.2066 -0.249602 0
M  V30 3939 H 366.292 3.22546 0.513025 0
M  V30 3940 H 364.951 3.28937 -1.61853 0
M  V30 3941 H 364.599 5.02792 0.144511 0
M  V30 3942 H 364.299 5.68559 -1.48371 0
M  V30 3943 H 365.823 6.07284 -0.635496 0
M  V30 3944 H 367.237 5.07113 -2.67412 0
M  V30 3945 H 365.634 4.9109 -3.44892 0
M  V30 3946 H 366.704 3.50045 -3.35554 0
M  V30 3947 N 368.047 0.979072 1.23499 0
M  V30 3948 C 368.994 0.517904 2.24914 0
M  V30 3949 C 369.964 -0.442525 1.60097 0
M  V30 3950 O 371.149 -0.350365 1.87556 0
M  V30 3951 C 368.289 -0.174813 3.44657 0
M  V30 3952 C 367.402 0.825721 4.24035 0
M  V30 3953 C 366.537 0.107946 5.3109 0
M  V30 3954 C 365.576 1.09778 6.02175 0
M  V30 3955 N 364.713 0.40925 7.00906 0
M  V30 3956 H 369.553 1.38751 2.63727 0
M  V30 3957 H 367.09 0.695303 1.2963 0
M  V30 3958 H 369.048 -0.593233 4.12961 0
M  V30 3959 H 367.678 -1.0083 3.06648 0
M  V30 3960 H 366.73 1.36253 3.55161 0
M  V30 3961 H 368.042 1.58005 4.73113 0
M  V30 3962 H 367.196 -0.367904 6.05583 0
M  V30 3963 H 365.935 -0.678994 4.8295 0
M  V30 3964 H 364.94 1.5844 5.26476 0
M  V30 3965 H 366.165 1.88536 6.52404 0
M  V30 3966 H 364.111 -0.358506 6.5502 0
M  V30 3967 H 364.028 1.10226 7.47921 0
M  V30 3968 H 365.296 -0.0442557 7.79487 0
M  V30 3969 N 369.525 -1.3858 0.750561 0
M  V30 3970 C 370.435 -2.34278 0.122825 0
M  V30 3971 C 371.451 -1.59116 -0.704131 0
M  V30 3972 O 372.627 -1.91326 -0.628987 0
M  V30 3973 C 369.692 -3.38221 -0.762086 0
M  V30 3974 C 368.753 -4.29227 0.078896 0
M  V30 3975 C 367.986 -5.28205 -0.763874 0
M  V30 3976 O 368.209 -5.34112 -2.00201 0
M  V30 3977 O 367.143 -6.01618 -0.18428 0
M  V30 3978 H 370.969 -2.89649 0.913088 0
M  V30 3979 H 368.554 -1.40374 0.511417 0
M  V30 3980 H 370.436 -4.01872 -1.26793 0
M  V30 3981 H 369.111 -2.85211 -1.5309 0
M  V30 3982 H 368.018 -3.68747 0.630621 0
M  V30 3983 H 369.351 -4.85484 0.810289 0
M  V30 3984 N 371.003 -0.499398 -1.49478 0
M  V30 3985 C 371.933 0.269244 -2.31943 0
M  V30 3986 C 372.914 0.964054 -1.40143 0
M  V30 3987 O 374.099 0.955767 -1.69052 0
M  V30 3988 C 371.229 1.33504 -3.20615 0
M  V30 3989 C 370.183 0.760202 -4.21195 0
M  V30 3990 C 369.509 1.9264 -4.98792 0
M  V30 3991 C 370.809 -0.247661 -5.21712 0
M  V30 3992 H 372.503 -0.419082 -2.96452 0
M  V30 3993 H 370.049 -0.202988 -1.42562 0
M  V30 3994 H 372.002 1.88048 -3.77115 0
M  V30 3995 H 370.726 2.05253 -2.54045 0
M  V30 3996 H 369.385 0.23653 -3.65836 0
M  V30 3997 H 369.033 2.63154 -4.28671 0
M  V30 3998 H 368.733 1.54785 -5.66847 0
M  V30 3999 H 370.257 2.4762 -5.58137 0
M  V30 4000 H 371.671 0.209579 -5.72917 0
M  V30 4001 H 370.068 -0.541962 -5.97648 0
M  V30 4002 H 371.138 -1.16409 -4.7072 0
M  V30 4003 N 372.481 1.55866 -0.233164 0
M  V30 4004 C 373.73 1.97779 0.39579 0
M  V30 4005 C 374.043 1.12419 1.60066 0
M  V30 4006 O 375.249 1.44283 2.29988 0
M  V30 4007 C 373.705 3.5188 0.755556 0
M  V30 4008 C 373.313 4.45959 -0.427152 0
M  V30 4009 C 375.057 4.02479 1.34946 0
M  V30 4010 C 372.964 5.91383 -0.0443043 0
M  V30 4011 H 371.894 0.738592 0.15165 0
M  V30 4012 H 374.545 1.80486 -0.331212 0
M  V30 4013 H 372.927 3.64816 1.5403 0
M  V30 4014 H 374.101 4.44776 -1.20462 0
M  V30 4015 H 372.416 4.05765 -0.935068 0
M  V30 4016 H 375.013 5.08637 1.649 0
M  V30 4017 H 375.356 3.49014 2.26925 0
M  V30 4018 H 375.889 3.92813 0.62791 0
M  V30 4019 H 372.628 6.48857 -0.930874 0
M  V30 4020 H 372.148 5.95734 0.697238 0
M  V30 4021 H 373.827 6.45893 0.378334 0
M  V30 4022 N 373.959 -0.0401083 1.57549 0
M  V30 4023 C 374.922 -1.02871 2.04817 0
M  V30 4024 C 375.922 -1.29708 0.950388 0
M  V30 4025 O 377.112 -1.24897 1.21435 0
M  V30 4026 C 374.244 -2.36443 2.45576 0
M  V30 4027 H 375.437 -0.620631 2.93408 0
M  V30 4028 H 372.99 -0.286667 1.53649 0
M  V30 4029 H 373.725 -2.82021 1.60108 0
M  V30 4030 H 373.51 -2.18296 3.25713 0
M  V30 4031 H 375 -3.07441 2.82612 0
M  V30 4032 N 375.437 -1.54477 -0.31217 0
M  V30 4033 C 376.853 -1.45442 -0.657185 0
M  V30 4034 C 377.053 -0.63653 -1.91182 0
M  V30 4035 O 376.109 -0.139815 -2.52113 0
M  V30 4036 C 377.422 -2.89287 -0.82058 0
M  V30 4037 C 378.97 -2.9926 -0.917188 0
M  V30 4038 C 379.445 -4.44279 -1.11267 0
M  V30 4039 N 380.936 -4.4794 -1.17914 0
M  V30 4040 C 381.671 -5.57318 -1.34848 0
M  V30 4041 N 381.167 -6.76642 -1.48752 0
M  V30 4042 N 382.96 -5.44986 -1.37647 0
M  V30 4043 H 375.111 -2.06129 0.512313 0
M  V30 4044 H 377.374 -0.933088 0.167485 0
M  V30 4045 H 377.08 -3.51687 0.0302604 0
M  V30 4046 H 376.954 -3.36061 -1.71298 0
M  V30 4047 H 379.341 -2.36981 -1.75852 0
M  V30 4048 H 379.422 -2.558 -0.00101257 0
M  V30 4049 H 379.066 -5.07149 -0.27614 0
M  V30 4050 H 378.996 -4.85359 -2.04289 0
M  V30 4051 H 381.487 -3.61969 -1.08567 0
M  V30 4052 H 381.8 -7.55758 -1.61397 0
M  V30 4053 H 380.145 -6.79529 -1.45828 0
M  V30 4054 H 383.336 -4.50715 -1.26388 0
M  V30 4055 H 383.509 -6.3028 -1.50501 0
M  V30 4056 N 376.915 0.57481 -1.46744 0
M  V30 4057 C 377.863 1.70435 -1.58286 0
M  V30 4058 C 378.857 1.63287 -0.450956 0
M  V30 4059 O 380.063 1.68685 -0.628121 0
M  V30 4060 H 376.438 0.56364 -0.497809 0
M  V30 4061 H 378.409 1.57833 -2.53242 0
M  V30 4062 C 377.158 3.08815 -1.59776 0
M  V30 4063 H 376.481 3.1499 -2.46214 0
M  V30 4064 H 377.921 3.87588 -1.71905 0
M  V30 4065 C 376.38 3.35301 -0.327812 0
M  V30 4066 O 376.91 3.97511 0.57861 0
M  V30 4067 N 375.116 2.89816 -0.213274 0
M  V30 4068 H 374.663 2.39371 -0.951798 0
M  V30 4069 H 374.621 3.0791 0.63553 0
M  V30 4070 N 378.394 1.34581 0.820102 0
M  V30 4071 C 379.622 1.3018 1.60813 0
M  V30 4072 C 380.037 -0.123551 1.88395 0
M  V30 4073 O 379.394 -1.07148 1.47735 0
M  V30 4074 C 379.445 2.09312 2.94739 0
M  V30 4075 O 379.166 3.46288 2.68358 0
M  V30 4076 C 380.667 2.1234 3.89136 0
M  V30 4077 H 377.887 0.447726 0.499782 0
M  V30 4078 H 380.431 1.77237 1.02017 0
M  V30 4079 H 378.586 1.65889 3.50085 0
M  V30 4080 H 379 3.87227 3.53774 0
M  V30 4081 H 380.474 2.72126 4.80262 0
M  V30 4082 H 380.951 1.11854 4.24718 0
M  V30 4083 H 381.557 2.55864 3.39726 0
M  V30 4084 N 379.872 -1.04064 1.18357 0
M  V30 4085 C 381.118 -1.77658 0.990412 0
M  V30 4086 C 381.473 -1.86446 -0.474944 0
M  V30 4087 O 380.766 -1.36153 -1.34807 0
M  V30 4088 C 380.96 -3.20634 1.57888 0
M  V30 4089 C 380.789 -3.25782 3.09994 0
M  V30 4090 C 379.559 -3.34411 3.7881 0
M  V30 4091 C 381.757 -3.13791 4.0748 0
M  V30 4092 N 379.739 -3.28809 5.18418 0
M  V30 4093 C 381.11 -3.15689 5.33611 0
M  V30 4094 C 383.165 -2.97833 3.98998 0
M  V30 4095 C 381.868 -3.03268 6.52243 0
M  V30 4096 C 383.894 -2.86759 5.17227 0
M  V30 4097 C 383.256 -2.893 6.4225 0
M  V30 4098 H 379.355 -0.661901 0.416427 0
M  V30 4099 H 381.939 -1.23968 1.50133 0
M  V30 4100 H 380.11 -3.7267 1.09414 0
M  V30 4101 H 381.842 -3.82525 1.32124 0
M  V30 4102 H 378.597 -3.40144 3.29543 0
M  V30 4103 H 379.021 -3.29448 5.91433 0
M  V30 4104 H 383.663 -2.94698 3.03171 0
M  V30 4105 H 381.381 -3.05156 7.48268 0
M  V30 4106 H 384.967 -2.75465 5.12455 0
M  V30 4107 H 383.847 -2.80818 7.32196 0
M  V30 4108 N 381.35 -0.985608 -1.22978 0
M  V30 4109 C 382.578 -0.675582 -1.95559 0
M  V30 4110 C 382.993 0.758413 -1.72897 0
M  V30 4111 O 382.35 1.51094 -1.02357 0
M  V30 4112 C 382.401 -0.96293 -3.48439 0
M  V30 4113 O 382.122 -2.34057 -3.70336 0
M  V30 4114 C 383.623 -0.669585 -4.38214 0
M  V30 4115 H 380.843 -0.250523 -0.622478 0
M  V30 4116 H 383.387 -1.3184 -1.56328 0
M  V30 4117 H 381.542 -0.366033 -3.85667 0
M  V30 4118 H 381.956 -2.43424 -4.64591 0
M  V30 4119 H 383.43 -0.920967 -5.44263 0
M  V30 4120 H 383.907 0.396383 -4.37408 0
M  V30 4121 H 384.513 -1.2472 -4.06602 0
M  V30 4122 N 382.828 1.3818 -0.7579 0
M  V30 4123 C 383.758 2.33027 -0.148597 0
M  V30 4124 C 384.739 1.55085 0.69875 0
M  V30 4125 O 385.924 1.83384 0.639053 0
M  V30 4126 C 383.054 3.3928 0.742034 0
M  V30 4127 C 382.008 4.28 -0.00291946 0
M  V30 4128 C 381.334 5.25146 1.00625 0
M  V30 4129 C 382.634 5.08938 -1.17385 0
M  V30 4130 H 384.328 2.84231 -0.940909 0
M  V30 4131 H 381.874 1.36659 -0.453908 0
M  V30 4132 H 383.827 4.046 1.17799 0
M  V30 4133 H 382.551 2.86569 1.56671 0
M  V30 4134 H 381.21 3.64192 -0.419504 0
M  V30 4135 H 380.858 4.68721 1.8251 0
M  V30 4136 H 380.558 5.85361 0.512428 0
M  V30 4137 H 382.082 5.93342 1.44143 0
M  V30 4138 H 383.496 5.67474 -0.815224 0
M  V30 4139 H 381.893 5.7841 -1.59882 0
M  V30 4140 H 382.963 4.42424 -1.98468 0
M  V30 4141 N 384.306 0.507319 1.49211 0
M  V30 4142 C 385.253 -0.267728 2.29242 0
M  V30 4143 C 386.223 -0.954609 1.35928 0
M  V30 4144 O 387.408 -0.960046 1.64887 0
M  V30 4145 C 384.548 -1.32243 3.18756 0
M  V30 4146 C 383.661 -0.64669 4.27132 0
M  V30 4147 C 382.796 -1.68238 5.03855 0
M  V30 4148 C 381.835 -0.98885 6.0406 0
M  V30 4149 N 380.972 -1.96903 6.73924 0
M  V30 4150 H 385.812 0.420968 2.95012 0
M  V30 4151 H 383.349 0.219443 1.45454 0
M  V30 4152 H 385.307 -1.94599 3.69036 0
M  V30 4153 H 383.937 -1.97981 2.54958 0
M  V30 4154 H 382.989 0.0902926 3.80293 0
M  V30 4155 H 384.301 -0.101058 4.98698 0
M  V30 4156 H 383.455 -2.38081 5.58034 0
M  V30 4157 H 382.194 -2.26187 4.32077 0
M  V30 4158 H 381.199 -0.276222 5.49106 0
M  V30 4159 H 382.424 -0.415767 6.77826 0
M  V30 4160 H 380.37 -2.53803 6.04913 0
M  V30 4161 H 380.287 -1.47423 7.41487 0
M  V30 4162 H 381.555 -2.66015 7.32705 0
M  V30 4163 N 385.784 -1.5574 0.241426 0
M  V30 4164 C 386.731 -2.21149 -0.660432 0
M  V30 4165 C 387.701 -1.17356 -1.17545 0
M  V30 4166 O 388.886 -1.45784 -1.23093 0
M  V30 4167 C 386.026 -2.91059 -1.85414 0
M  V30 4168 C 385.139 -4.09495 -1.37616 0
M  V30 4169 C 384.274 -4.67135 -2.529 0
M  V30 4170 C 383.313 -5.77831 -2.01936 0
M  V30 4171 N 382.45 -6.29677 -3.10566 0
M  V30 4172 H 387.29 -2.97845 -0.095955 0
M  V30 4173 H 384.827 -1.47057 -0.0356024 0
M  V30 4174 H 386.785 -3.29788 -2.5553 0
M  V30 4175 H 385.415 -2.16846 -2.39118 0
M  V30 4176 H 384.467 -3.76117 -0.569235 0
M  V30 4177 H 385.779 -4.89423 -0.962618 0
M  V30 4178 H 384.933 -5.08409 -3.31067 0
M  V30 4179 H 383.672 -3.86411 -2.97553 0
M  V30 4180 H 382.677 -5.36039 -1.22238 0
M  V30 4181 H 383.902 -6.60402 -1.58259 0
M  V30 4182 H 381.848 -5.5186 -3.54664 0
M  V30 4183 H 381.765 -7.04783 -2.73526 0
M  V30 4184 H 383.033 -6.75609 -3.88809 0
M  V30 4185 N 387.262 0.0317525 -1.57568 0
M  V30 4186 C 388.192 1.03274 -2.0942 0
M  V30 4187 C 389.173 1.3788 -0.996143 0
M  V30 4188 O 390.358 1.46811 -1.27122 0
M  V30 4189 C 387.488 2.33448 -2.57137 0
M  V30 4190 C 386.442 2.13091 -3.71182 0
M  V30 4191 C 385.768 3.49001 -4.05095 0
M  V30 4192 C 387.068 1.51928 -4.99715 0
M  V30 4193 H 388.762 0.60112 -2.93303 0
M  V30 4194 H 386.308 0.287705 -1.41097 0
M  V30 4195 H 388.261 3.03802 -2.92032 0
M  V30 4196 H 386.985 2.78665 -1.70333 0
M  V30 4197 H 385.644 1.45171 -3.36632 0
M  V30 4198 H 385.292 3.91862 -3.15362 0
M  V30 4199 H 384.992 3.36207 -4.81911 0
M  V30 4200 H 386.516 4.20721 -4.42522 0
M  V30 4201 H 387.93 2.12196 -5.32584 0
M  V30 4202 H 386.327 1.49716 -5.81124 0
M  V30 4203 H 387.397 0.484811 -4.8247 0
M  V30 4204 N 388.74 1.54641 0.303973 0
M  V30 4205 C 390.151 1.64811 0.877163 0
M  V30 4206 C 390.502 0.554838 1.88191 0
M  V30 4207 O 389.627 -0.309033 2.14182 0
M  V30 4208 C 390.222 2.9876 1.59775 0
M  V30 4209 C 388.781 3.11061 2.11938 0
M  V30 4210 C 387.928 2.60479 0.951097 0
M  V30 4211 H 390.879 1.58493 0.0810486 0
M  V30 4212 H 390.9 2.90017 2.46314 0
M  V30 4213 H 390.412 3.7831 0.866226 0
M  V30 4214 H 388.513 2.36225 2.88146 0
M  V30 4215 H 388.626 4.17171 2.35595 0
M  V30 4216 H 386.99 2.16859 1.33583 0
M  V30 4217 H 387.773 3.42504 0.233581 0
M  V30 4218 N 390.218 -0.567019 1.47046 0
M  V30 4219 C 391.148 -1.68482 1.61667 0
M  V30 4220 C 392.129 -1.6358 0.466418 0
M  V30 4221 O 393.314 -1.81354 0.694574 0
M  V30 4222 C 390.444 -3.07124 1.62148 0
M  V30 4223 C 389.398 -3.26867 2.76301 0
M  V30 4224 C 388.724 -4.66196 2.61849 0
M  V30 4225 C 390.024 -3.13186 4.17986 0
M  V30 4226 H 391.718 -1.56502 2.5524 0
M  V30 4227 H 389.264 -0.751486 1.22836 0
M  V30 4228 H 391.217 -3.8516 1.70968 0
M  V30 4229 H 389.941 -3.2004 0.651287 0
M  V30 4230 H 388.6 -2.51237 2.66975 0
M  V30 4231 H 388.248 -4.75898 1.62879 0
M  V30 4232 H 387.948 -4.80356 3.38425 0
M  V30 4233 H 389.472 -5.46379 2.72584 0
M  V30 4234 H 390.886 -3.81049 4.2834 0
M  V30 4235 H 389.283 -3.3886 4.95272 0
M  V30 4236 H 390.353 -2.10057 4.3704 0
M  V30 4237 N 391.696 -1.35014 -0.812953 0
M  V30 4238 C 392.921 -1.31187 -1.60639 0
M  V30 4239 C 393.346 0.109382 -1.87782 0
M  V30 4240 O 392.704 1.07424 -1.46047 0
M  V30 4241 C 392.752 -2.11809 -2.91838 0
M  V30 4242 O 391.856 -1.49444 -3.8437 0
M  V30 4243 H 391.197 -0.450084 -0.488181 0
M  V30 4244 H 393.727 -1.77963 -1.00947 0
M  V30 4245 H 393.737 -2.23531 -3.41318 0
M  V30 4246 H 392.412 -3.15137 -2.71407 0
M  V30 4247 H 390.989 -1.46524 -3.42907 0
M  V30 4248 N 393.175 1.03435 -1.18907 0
M  V30 4249 C 394.105 2.13503 -0.945448 0
M  V30 4250 C 395.086 1.69682 0.119189 0
M  V30 4251 O 396.271 1.94169 -0.034707 0
M  V30 4252 C 393.401 3.44004 -0.477316 0
M  V30 4253 C 392.355 4.0148 -1.48316 0
M  V30 4254 C 391.681 5.27537 -0.872311 0
M  V30 4255 C 392.981 4.36921 -2.86177 0
M  V30 4256 H 394.675 2.34141 -1.86597 0
M  V30 4257 H 392.221 1.12523 -0.898584 0
M  V30 4258 H 394.174 4.20372 -0.294204 0
M  V30 4259 H 392.898 3.23072 0.478786 0
M  V30 4260 H 391.557 3.27201 -1.65332 0
M  V30 4261 H 391.205 5.02917 0.0911752 0
M  V30 4262 H 390.905 5.66954 -1.54393 0
M  V30 4263 H 392.429 6.06576 -0.699871 0
M  V30 4264 H 393.843 5.04248 -2.72776 0
M  V30 4265 H 392.24 4.87405 -3.50081 0
M  V30 4266 H 393.31 3.46466 -3.39248 0
M  V30 4267 N 394.653 0.992116 1.22453 0
M  V30 4268 C 395.878 0.685644 1.95739 0
M  V30 4269 C 396.303 -0.743 1.72804 0
M  V30 4270 O 395.661 -1.50778 1.00676 0
M  V30 4271 C 395.709 0.996293 3.46564 0
M  V30 4272 O 394.813 0.0945512 4.12292 0
M  V30 4273 H 394.154 0.256694 0.612376 0
M  V30 4274 H 396.684 1.32888 1.5557 0
M  V30 4275 H 396.694 0.93781 3.97076 0
M  V30 4276 H 395.369 2.03733 3.62582 0
M  V30 4277 H 393.946 0.208451 3.72317 0
M  V30 4278 N 396.131 -1.37776 0.765217 0
M  V30 4279 C 397.378 -1.99849 0.326588 0
M  V30 4280 C 397.706 -1.60746 -1.09504 0
M  V30 4281 O 396.961 -0.84202 -1.76659 0
M  V30 4282 C 397.26 -3.5504 0.410053 0
M  V30 4283 C 396.926 -4.13891 1.78899 0
M  V30 4284 C 395.588 -4.29678 2.16635 0
M  V30 4285 C 397.94 -4.46236 2.69301 0
M  V30 4286 C 395.268 -4.7511 3.44221 0
M  V30 4287 C 397.62 -4.93089 3.9629 0
M  V30 4288 C 396.284 -5.07082 4.34078 0
M  V30 4289 H 395.554 -0.7313 0.119507 0
M  V30 4290 H 398.201 -1.64645 0.977968 0
M  V30 4291 H 396.506 -3.90451 -0.324878 0
M  V30 4292 H 398.203 -4.00966 0.0520699 0
M  V30 4293 H 394.793 -4.02026 1.48569 0
M  V30 4294 H 398.977 -4.3363 2.41409 0
M  V30 4295 H 394.233 -4.84129 3.73402 0
M  V30 4296 H 398.407 -5.17084 4.66472 0
M  V30 4297 H 396.034 -5.42046 5.33001 0
M  V30 4298 N 397.609 -0.515225 -1.4894 0
M  V30 4299 C 398.539 0.244628 -2.32215 0
M  V30 4300 C 399.52 0.949136 -1.41157 0
M  V30 4301 O 400.705 0.937783 -1.70057 0
M  V30 4302 C 397.835 1.30096 -3.22013 0
M  V30 4303 C 396.789 0.715486 -4.21977 0
M  V30 4304 C 396.115 1.87339 -5.00808 0
M  V30 4305 C 397.415 -0.302982 -5.2142 0
M  V30 4306 H 399.109 -0.450501 -2.95991 0
M  V30 4307 H 396.655 -0.218098 -1.42339 0
M  V30 4308 H 398.608 1.84037 -3.79089 0
M  V30 4309 H 397.332 2.02547 -2.56207 0
M  V30 4310 H 395.991 0.197715 -3.66066 0
M  V30 4311 H 395.639 2.58592 -4.31438 0
M  V30 4312 H 395.339 1.48764 -5.68457 0
M  V30 4313 H 396.863 2.41686 -5.60732 0
M  V30 4314 H 398.277 0.148802 -5.73107 0
M  V30 4315 H 396.674 -0.60532 -5.97039 0
M  V30 4316 H 397.744 -1.21395 -4.69459 0
M  V30 4317 N 399.087 1.5561 -0.249682 0
M  V30 4318 C 400.037 2.18157 0.662673 0
M  V30 4319 C 401.021 1.1383 1.13717 0
M  V30 4320 O 402.213 1.39731 1.08648 0
M  V30 4321 C 399.342 2.88672 1.85805 0
M  V30 4322 C 398.428 4.00258 1.40193 0
M  V30 4323 N 398.819 5.01473 0.660213 0
M  V30 4324 C 397.117 4.12864 1.68698 0
M  V30 4325 C 397.818 5.80155 0.423695 0
M  V30 4326 N 396.794 5.34533 0.988721 0
M  V30 4327 H 400.596 2.93769 0.0878688 0
M  V30 4328 H 398.11 1.62316 -0.0521183 0
M  V30 4329 H 400.107 3.31912 2.5227 0
M  V30 4330 H 398.767 2.14564 2.43705 0
M  V30 4331 H 399.778 5.16971 0.310047 0
M  V30 4332 H 396.455 3.4993 2.27717 0
M  V30 4333 H 397.845 6.71688 -0.168616 0
M  V30 4334 N 400.565 -0.0233959 1.57583 0
M  V30 4335 C 401.495 -1.02162 2.09965 0
M  V30 4336 C 402.476 -1.3735 1.00344 0
M  V30 4337 O 403.661 -1.46135 1.27899 0
M  V30 4338 C 400.791 -2.32081 2.58371 0
M  V30 4339 C 399.745 -2.1112 3.72307 0
M  V30 4340 C 399.071 -3.46848 4.06941 0
M  V30 4341 C 400.371 -1.49276 5.00514 0
M  V30 4342 H 402.065 -0.585557 2.93618 0
M  V30 4343 H 399.611 -0.280218 1.41247 0
M  V30 4344 H 401.564 -3.02249 2.93639 0
M  V30 4345 H 400.288 -2.77758 1.71808 0
M  V30 4346 H 398.947 -1.43384 3.37397 0
M  V30 4347 H 398.595 -3.90184 3.17436 0
M  V30 4348 H 398.295 -3.33646 4.83688 0
M  V30 4349 H 399.819 -4.18369 4.44747 0
M  V30 4350 H 401.233 -2.09368 5.33702 0
M  V30 4351 H 399.63 -1.46632 5.8191 0
M  V30 4352 H 400.7 -0.459217 4.82721 0
M  V30 4353 N 402.043 -1.548 -0.295768 0
M  V30 4354 C 403.271 -1.78327 -1.04914 0
M  V30 4355 C 403.686 -0.545316 -1.80753 0
M  V30 4356 O 403.043 0.485013 -1.75937 0
M  V30 4357 C 403.094 -2.99418 -2.02561 0
M  V30 4358 O 402.815 -4.18431 -1.29798 0
M  V30 4359 C 404.316 -3.35375 -2.89895 0
M  V30 4360 H 401.536 -0.594618 -0.310918 0
M  V30 4361 H 404.08 -2.01763 -0.333454 0
M  V30 4362 H 402.235 -2.78175 -2.69624 0
M  V30 4363 H 402.649 -4.86736 -1.95419 0
M  V30 4364 H 404.123 -4.23332 -3.54251 0
M  V30 4365 H 404.6 -2.53761 -3.58472 0
M  V30 4366 H 405.206 -3.58796 -2.28355 0
M  V30 4367 N 403.521 0.559213 -1.47345 0
M  V30 4368 C 404.937 0.884943 -1.32819 0
M  V30 4369 C 405.137 1.98988 -0.317173 0
M  V30 4370 O 404.193 2.51031 0.272011 0
M  V30 4371 C 405.506 1.28007 -2.72093 0
M  V30 4372 C 407.054 1.39161 -2.80363 0
M  V30 4373 C 407.529 1.82031 -4.20272 0
M  V30 4374 N 409.02 1.89185 -4.22804 0
M  V30 4375 C 409.755 2.2368 -5.27973 0
M  V30 4376 N 409.251 2.56802 -6.43447 0
M  V30 4377 N 411.044 2.24436 -5.15349 0
M  V30 4378 H 403.195 -0.170304 -2.11716 0
M  V30 4379 H 405.458 -0.0135247 -0.947904 0
M  V30 4380 H 405.164 0.542027 -3.47498 0
M  V30 4381 H 405.038 2.23665 -3.03733 0
M  V30 4382 H 407.425 2.12048 -2.05231 0
M  V30 4383 H 407.506 0.41696 -2.52379 0
M  V30 4384 H 407.15 1.09715 -4.95908 0
M  V30 4385 H 407.08 2.80495 -4.45679 0
M  V30 4386 H 409.571 1.65982 -3.39497 0
M  V30 4387 H 409.884 2.82144 -7.19454 0
M  V30 4388 H 408.229 2.54387 -6.46771 0
M  V30 4389 H 411.42 1.97998 -4.24163 0
M  V30 4390 H 411.593 2.50989 -5.97418 0
M  V30 4391 N 404.999 1.35443 0.805782 0
M  V30 4392 C 405.962 1.28301 1.89925 0
M  V30 4393 C 406.962 0.194285 1.59622 0
M  V30 4394 O 408.152 0.448036 1.6834 0
M  V30 4395 C 405.284 0.984997 3.2636 0
M  V30 4396 H 406.477 2.2553 1.97677 0
M  V30 4397 H 404.03 1.19979 1.00173 0
M  V30 4398 H 404.765 0.016603 3.24296 0
M  V30 4399 H 404.55 1.77269 3.4974 0
M  V30 4400 H 406.04 0.960651 4.064 0
M  V30 4401 N 406.477 -1.02803 1.19454 0
M  V30 4402 C 407.754 -1.73299 0.907013 0
M  V30 4403 C 408.134 -2.02772 -0.587086 0
M  V30 4404 O 407.482 -1.68304 -1.54551 0
M  V30 4405 C 407.692 -3.00912 1.76785 0
M  V30 4406 C 409.04 -3.74403 2.00268 0
M  V30 4407 O 410.064 -3.10841 1.73943 0
M  V30 4408 O 408.923 -4.88675 2.4466 0
M  V30 4409 H 406.017 -0.754727 0.338106 0
M  V30 4410 H 408.563 -1.08754 1.30271 0
M  V30 4411 H 407.335 -2.75366 2.7801 0
M  V30 4412 H 406.958 -3.73197 1.37149 0
M  V30 4413 N 407.956 -0.998596 -1.21925 0
M  V30 4414 C 408.886 -0.573688 -2.26343 0
M  V30 4415 C 409.867 0.402296 -1.65274 0
M  V30 4416 O 411.052 0.291683 -1.91997 0
M  V30 4417 C 408.182 0.106839 -3.47136 0
M  V30 4418 C 407.136 -0.788269 -4.20678 0
M  V30 4419 C 406.462 0.0254927 -5.34694 0
M  V30 4420 C 407.762 -2.08784 -4.78755 0
M  V30 4421 H 409.456 -1.44651 -2.62138 0
M  V30 4422 H 407.002 -0.696975 -1.26009 0
M  V30 4423 H 408.955 0.415531 -4.19346 0
M  V30 4424 H 407.679 1.01424 -3.10452 0
M  V30 4425 H 406.338 -1.08069 -3.50309 0
M  V30 4426 H 405.986 0.933989 -4.94253 0
M  V30 4427 H 405.686 -0.570437 -5.84825 0
M  V30 4428 H 407.21 0.328147 -6.09718 0
M  V30 4429 H 408.624 -1.84272 -5.42878 0
M  V30 4430 H 407.021 -2.63307 -5.39249 0
M  V30 4431 H 408.091 -2.76284 -3.98491 0
M  V30 4432 N 409.434 1.37368 -0.772513 0
M  V30 4433 C 410.659 2.0447 -0.347386 0
M  V30 4434 C 411.084 1.57882 1.0225 0
M  V30 4435 O 410.442 0.73941 1.65537 0
M  V30 4436 C 410.49 3.58369 -0.400479 0
M  V30 4437 O 409.594 4.0803 0.598789 0
M  V30 4438 H 408.935 0.646773 -0.15027 0
M  V30 4439 H 411.465 1.75667 -1.04892 0
M  V30 4440 H 411.475 4.07183 -0.258045 0
M  V30 4441 H 410.15 3.91633 -1.39986 0
M  V30 4442 H 408.727 3.70534 0.419411 0
M  V30 4443 N 410.912 0.523116 1.48665 0
M  V30 4444 C 412.142 -0.00961724 2.06598 0
M  V30 4445 C 412.55 -1.29333 1.38093 0
M  V30 4446 O 411.893 -1.77846 0.46007 0
M  V30 4447 C 411.955 -0.311135 3.58151 0
M  V30 4448 C 411.619 0.878092 4.48485 0
M  V30 4449 C 412.616 1.77464 4.88674 0
M  V30 4450 C 410.301 1.08315 4.90483 0
M  V30 4451 C 412.295 2.86021 5.69623 0
M  V30 4452 C 409.982 2.17187 5.71203 0
M  V30 4453 C 410.98 3.05873 6.10681 0
M  V30 4454 O 410.668 4.12862 6.89783 0
M  V30 4455 H 410.4 0.0272658 0.67545 0
M  V30 4456 H 412.954 0.726156 1.92136 0
M  V30 4457 H 411.184 -1.10079 3.70701 0
M  V30 4458 H 412.873 -0.785125 3.98234 0
M  V30 4459 H 413.639 1.62813 4.56855 0
M  V30 4460 H 409.518 0.402149 4.59243 0
M  V30 4461 H 413.062 3.55272 6.00356 0
M  V30 4462 H 408.959 2.31824 6.02435 0
M  V30 4463 H 409.727 4.10487 7.08126 0
M  V30 4464 N 412.39 -1.55475 0.257931 0
M  V30 4465 C 413.801 -1.8511 -0.243135 0
M  V30 4466 C 414.152 -1.17986 -1.5676 0
M  V30 4467 O 413.277 -0.462102 -2.11409 0
M  V30 4468 C 413.872 -3.35826 -0.447929 0
M  V30 4469 C 412.431 -3.65647 -0.893245 0
M  V30 4470 C 411.578 -2.7729 0.0232965 0
M  V30 4471 H 414.529 -1.51261 0.480199 0
M  V30 4472 H 414.55 -3.58002 -1.28898 0
M  V30 4473 H 414.062 -3.84652 0.516196 0
M  V30 4474 H 412.163 -3.22308 -1.86945 0
M  V30 4475 H 412.276 -4.73312 -0.742469 0
M  V30 4476 H 410.64 -2.49942 -0.490021 0
M  V30 4477 H 411.423 -3.28926 0.982994 0
M  V30 4478 N 413.868 0.0150385 -1.57593 0
M  V30 4479 C 415.093 0.718067 -1.94573 0
M  V30 4480 C 415.518 1.6734 -0.859005 0
M  V30 4481 O 414.876 1.80362 0.184147 0
M  V30 4482 C 414.924 1.43918 -3.30636 0
M  V30 4483 O 414.028 2.55299 -3.23876 0
M  V30 4484 H 413.369 0.192125 -0.635597 0
M  V30 4485 H 415.899 -0.0336708 -2.04572 0
M  V30 4486 H 415.909 1.80598 -3.65853 0
M  V30 4487 H 414.584 0.738619 -4.09289 0
M  V30 4488 H 413.161 2.21058 -3.00312 0
M  V30 4489 N 415.346 1.54954 0.287554 0
M  V30 4490 C 416.296 1.8322 1.357 0
M  V30 4491 C 417.28 0.690152 1.45347 0
M  V30 4492 O 418.472 0.951137 1.49273 0
M  V30 4493 C 415.601 2.09481 2.71979 0
M  V30 4494 C 414.687 3.29906 2.66502 0
M  V30 4495 N 415.078 4.50154 2.30641 0
M  V30 4496 C 413.376 3.32203 2.97585 0
M  V30 4497 C 414.077 5.32209 2.34794 0
M  V30 4498 N 413.053 4.70258 2.72688 0
M  V30 4499 H 416.855 2.73746 1.0696 0
M  V30 4500 H 414.369 1.54635 0.496167 0
M  V30 4501 H 416.366 2.27882 3.49107 0
M  V30 4502 H 415.026 1.2023 3.0162 0
M  V30 4503 H 416.037 4.76515 2.02865 0
M  V30 4504 H 412.714 2.53101 3.32034 0
M  V30 4505 H 414.104 6.38321 2.09753 0
M  V30 4506 N 416.824 -0.551391 1.4764 0
M  V30 4507 C 418.064 -1.31901 1.56145 0
M  V30 4508 C 418.428 -1.90724 0.221013 0
M  V30 4509 O 419.629 -2.6819 0.180945 0
M  V30 4510 C 417.9 -2.39517 2.65267 0
M  V30 4511 S 419.459 -3.26289 2.93395 0
M  V30 4512 H 416.277 -0.448965 0.551318 0
M  V30 4513 H 418.879 -0.630599 1.85051 0
M  V30 4514 H 417.583 -1.94747 3.6125 0
M  V30 4515 H 417.114 -3.13092 2.38195 0
M  V30 4516 H 419.129 -4.39122 2.31055 0
M  V30 4517 N 418.302 -1.35869 -0.798587 0
M  V30 4518 C 419.542 -1.30961 -1.56935 0
M  V30 4519 C 419.906 0.112404 -1.91671 0
M  V30 4520 O 421.107 0.285937 -2.67275 0
M  V30 4521 C 419.378 -2.19811 -2.81811 0
M  V30 4522 S 420.937 -2.32498 -3.72143 0
M  V30 4523 H 417.755 -0.465297 -0.537606 0
M  V30 4524 H 420.357 -1.71344 -0.941346 0
M  V30 4525 H 419.061 -3.22095 -2.54329 0
M  V30 4526 H 418.592 -1.80415 -3.49591 0
M  V30 4527 H 420.607 -1.5157 -4.72484 0
M  V30 4528 N 419.78 1.02168 -1.19998 0
M  V30 4529 C 420.743 2.08765 -0.94604 0
M  V30 4530 C 421.743 1.60618 0.0763846 0
M  V30 4531 O 422.933 1.73472 -0.159135 0
M  V30 4532 C 420.065 3.38262 -0.423255 0
M  V30 4533 H 421.258 2.32726 -1.89153 0
M  V30 4534 H 418.811 1.1889 -1.01464 0
M  V30 4535 H 419.546 3.19974 0.527938 0
M  V30 4536 H 419.331 3.74532 -1.16053 0
M  V30 4537 H 420.821 4.16759 -0.264911 0
M  V30 4538 N 421.258 1.00505 1.21394 0
M  V30 4539 C 422.505 0.687774 1.90462 0
M  V30 4540 C 422.833 -0.78147 1.7811 0
M  V30 4541 O 422.088 -1.58208 1.1519 0
M  V30 4542 C 422.387 1.0546 3.41486 0
M  V30 4543 C 422.053 2.51812 3.74034 0
M  V30 4544 C 420.715 2.91804 3.82628 0
M  V30 4545 C 423.067 3.46614 3.8924 0
M  V30 4546 C 420.395 4.2556 4.03876 0
M  V30 4547 C 422.747 4.80044 4.11995 0
M  V30 4548 C 421.411 5.19759 4.18816 0
M  V30 4549 H 420.681 0.251674 0.696951 0
M  V30 4550 H 423.328 1.26349 1.43903 0
M  V30 4551 H 421.633 0.397133 3.89782 0
M  V30 4552 H 423.33 0.786976 3.93202 0
M  V30 4553 H 419.92 2.1982 3.67936 0
M  V30 4554 H 424.104 3.16883 3.81967 0
M  V30 4555 H 419.36 4.55901 4.07387 0
M  V30 4556 H 423.534 5.53439 4.22704 0
M  V30 4557 H 421.161 6.23418 4.35033 0
M  V30 4558 N 422.737 -1.36956 0.779787 0
M  V30 4559 C 423.684 -2.30175 0.169697 0
M  V30 4560 C 424.654 -1.51501 -0.68094 0
M  V30 4561 O 425.839 -1.80042 -0.631629 0
M  V30 4562 C 422.979 -3.37985 -0.697131 0
M  V30 4563 C 422.092 -4.31661 0.170992 0
M  V30 4564 C 421.227 -5.2655 -0.701298 0
M  V30 4565 C 420.266 -6.11867 0.168869 0
M  V30 4566 N 419.403 -6.98973 -0.661855 0
M  V30 4567 H 424.243 -2.81767 0.970135 0
M  V30 4568 H 421.78 -1.38699 0.489994 0
M  V30 4569 H 423.738 -3.99128 -1.2146 0
M  V30 4570 H 422.368 -2.87739 -1.46309 0
M  V30 4571 H 421.42 -3.71756 0.80634 0
M  V30 4572 H 422.732 -4.91644 0.841875 0
M  V30 4573 H 421.886 -5.92937 -1.28494 0
M  V30 4574 H 420.625 -4.66998 -1.40584 0
M  V30 4575 H 419.63 -5.44452 0.764986 0
M  V30 4576 H 420.855 -6.73493 0.870863 0
M  V30 4577 H 418.801 -6.41941 -1.35086 0
M  V30 4578 H 418.718 -7.55984 -0.0484447 0
M  V30 4579 H 419.986 -7.6974 -1.22963 0
M  V30 4580 N 424.215 -0.530993 -1.48385 0
M  V30 4581 C 425.163 0.244595 -2.3131 0
M  V30 4582 C 426.157 0.93451 -1.41291 0
M  V30 4583 O 427.363 0.85878 -1.58193 0
M  V30 4584 H 423.738 0.0977472 -0.74562 0
M  V30 4585 H 425.709 -0.474369 -2.94605 0
M  V30 4586 C 424.458 1.2779 -3.23365 0
M  V30 4587 H 423.781 0.756439 -3.92579 0
M  V30 4588 H 425.221 1.79198 -3.84271 0
M  V30 4589 C 423.68 2.31205 -2.45042 0
M  V30 4590 O 424.21 3.37661 -2.17596 0
M  V30 4591 N 422.416 2.04446 -2.0652 0
M  V30 4592 H 421.963 1.17891 -2.2904 0
M  V30 4593 H 421.921 2.73861 -1.54427 0
M  V30 4594 N 425.693 1.55336 -0.266172 0
M  V30 4595 C 426.625 2.19544 0.658247 0
M  V30 4596 C 427.638 1.17746 1.12427 0
M  V30 4597 O 428.827 1.44517 1.04772 0
M  V30 4598 C 425.927 2.80032 1.9088 0
M  V30 4599 C 425.1 4.07436 1.59106 0
M  V30 4600 C 424.159 4.52056 2.69317 0
M  V30 4601 O 423.185 5.18023 2.35883 0
M  V30 4602 N 424.387 4.21448 3.99201 0
M  V30 4603 H 427.152 2.99503 0.108754 0
M  V30 4604 H 424.713 1.61667 -0.0869059 0
M  V30 4605 H 426.705 3.06831 2.63888 0
M  V30 4606 H 425.275 2.04119 2.36758 0
M  V30 4607 H 424.495 3.88021 0.695243 0
M  V30 4608 H 425.783 4.90462 1.35367 0
M  V30 4609 H 425.181 3.68528 4.29189 0
M  V30 4610 H 423.738 4.53039 4.68614 0
M  V30 4611 N 427.171 -0.0066808 1.57599 0
M  V30 4612 C 428.118 -1.00024 2.08 0
M  V30 4613 C 429.088 -1.34549 0.973943 0
M  V30 4614 O 430.273 -1.44502 1.24595 0
M  V30 4615 C 427.413 -2.2891 2.58252 0
M  V30 4616 C 426.526 -2.00346 3.82734 0
M  V30 4617 C 425.661 -3.23265 4.21513 0
M  V30 4618 C 424.7 -2.90357 5.3885 0
M  V30 4619 N 423.837 -4.05793 5.72954 0
M  V30 4620 H 428.677 -0.563499 2.92624 0
M  V30 4621 H 426.214 -0.266592 1.44664 0
M  V30 4622 H 428.172 -3.04247 2.85464 0
M  V30 4623 H 426.802 -2.70265 1.76512 0
M  V30 4624 H 425.854 -1.15406 3.62471 0
M  V30 4625 H 427.166 -1.72086 4.68175 0
M  V30 4626 H 426.32 -4.06953 4.49971 0
M  V30 4627 H 425.059 -3.54657 3.34768 0
M  V30 4628 H 424.064 -2.05075 5.10122 0
M  V30 4629 H 425.289 -2.60219 6.27266 0
M  V30 4630 H 423.235 -4.37094 4.89167 0
M  V30 4631 H 423.152 -3.81034 6.52954 0
M  V30 4632 H 424.42 -4.90289 6.06001 0
M  V30 4633 N 428.649 -1.55105 -0.279332 0
M  V30 4634 C 429.596 -1.8755 -1.34513 0
M  V30 4635 C 430.566 -0.726384 -1.49375 0
M  V30 4636 O 431.751 -0.977063 -1.63884 0
M  V30 4637 C 428.891 -2.14738 -2.70151 0
M  V30 4638 C 428.004 -3.42285 -2.63562 0
M  V30 4639 C 427.139 -3.59206 -3.91337 0
M  V30 4640 C 426.178 -4.80467 -3.79233 0
M  V30 4641 N 425.315 -4.94079 -4.98829 0
M  V30 4642 H 430.155 -2.78456 -1.06143 0
M  V30 4643 H 427.692 -1.37867 -0.512936 0
M  V30 4644 H 429.65 -2.28501 -3.49061 0
M  V30 4645 H 428.28 -1.27075 -2.96735 0
M  V30 4646 H 427.332 -3.37029 -1.76397 0
M  V30 4647 H 428.644 -4.31328 -2.50515 0
M  V30 4648 H 427.798 -3.72751 -4.78687 0
M  V30 4649 H 426.537 -2.68337 -4.07243 0
M  V30 4650 H 425.542 -4.66932 -2.90266 0
M  V30 4651 H 426.767 -5.72765 -3.64852 0
M  V30 4652 H 424.713 -4.06139 -5.15158 0
M  V30 4653 H 424.63 -5.77156 -4.8829 0
M  V30 4654 H 425.898 -5.12003 -5.8777 0
M  V30 4655 N 430.127 0.543554 -1.4793 0
M  V30 4656 C 431.376 1.29649 -1.54512 0
M  V30 4657 C 431.689 1.94382 -0.217973 0
M  V30 4658 O 432.895 2.71017 -0.161908 0
M  V30 4659 C 431.351 2.35175 -2.72435 0
M  V30 4660 C 430.959 1.76572 -4.11736 0
M  V30 4661 C 432.703 3.11564 -2.8832 0
M  V30 4662 C 430.61 2.79958 -5.20939 0
M  V30 4663 H 429.54 0.487541 -0.57517 0
M  V30 4664 H 432.191 0.575708 -1.74235 0
M  V30 4665 H 430.573 3.10229 -2.46118 0
M  V30 4666 H 431.747 1.07799 -4.48013 0
M  V30 4667 H 430.062 1.12722 -4.00852 0
M  V30 4668 H 432.659 3.88794 -3.67074 0
M  V30 4669 H 433.002 3.66594 -1.97268 0
M  V30 4670 H 433.535 2.43623 -3.14472 0
M  V30 4671 H 430.274 2.29766 -6.13912 0
M  V30 4672 H 429.794 3.47101 -4.89164 0
M  V30 4673 H 431.473 3.43198 -5.48474 0
M  V30 4674 N 431.605 1.3629 0.791371 0
M  V30 4675 C 433.021 1.16661 1.08914 0
M  V30 4676 C 433.221 -0.0106266 2.01497 0
M  V30 4677 O 432.277 -0.676596 2.43266 0
M  V30 4678 C 433.59 2.47656 1.70549 0
M  V30 4679 C 435.138 2.54002 1.82899 0
M  V30 4680 C 435.613 3.85078 2.47949 0
M  V30 4681 N 437.104 3.86413 2.5542 0
M  V30 4682 C 437.839 4.84572 3.06557 0
M  V30 4683 N 437.335 5.93124 3.58016 0
M  V30 4684 N 439.128 4.71994 3.05251 0
M  V30 4685 H 431.279 2.11668 0.176238 0
M  V30 4686 H 433.542 0.937486 0.140796 0
M  V30 4687 H 433.248 3.34059 1.09989 0
M  V30 4688 H 433.122 2.63319 2.70079 0
M  V30 4689 H 435.509 1.68018 2.42598 0
M  V30 4690 H 435.59 2.42239 0.821808 0
M  V30 4691 H 435.234 4.71467 1.88895 0
M  V30 4692 H 435.164 3.94135 3.49235 0
M  V30 4693 H 437.655 3.07988 2.18979 0
M  V30 4694 H 437.968 6.63999 3.95381 0
M  V30 4695 H 436.313 5.96796 3.56173 0
M  V30 4696 H 439.504 3.86321 2.64336 0
M  V30 4697 H 439.677 5.48653 3.44796 0
M  V30 4698 N 433.083 -1.0153 1.20538 0
M  V30 4699 C 434.331 -1.74803 1.01432 0
M  V30 4700 C 434.652 -1.8963 -0.454456 0
M  V30 4701 O 433.922 -1.43975 -1.32846 0
M  V30 4702 H 432.502 -0.647598 0.372324 0
M  V30 4703 H 435.164 -1.22402 1.5167 0
M  V30 4704 H 434.26 -2.75114 1.47373 0
M  V30 4705 N 434.561 -1.01147 -1.20859 0
M  V30 4706 C 435.81 -0.693214 -1.89413 0
M  V30 4707 C 436.123 0.779969 -1.79376 0
M  V30 4708 O 437.329 1.21057 -2.43017 0
M  V30 4709 C 435.785 -1.18949 -3.39675 0
M  V30 4710 C 435.393 -2.68921 -3.58309 0
M  V30 4711 C 437.137 -0.94642 -4.13815 0
M  V30 4712 C 435.044 -3.12056 -5.0237 0
M  V30 4713 H 433.974 -0.255595 -0.709357 0
M  V30 4714 H 436.625 -1.22349 -1.36759 0
M  V30 4715 H 435.007 -0.587228 -3.91622 0
M  V30 4716 H 436.181 -3.34652 -3.16772 0
M  V30 4717 H 434.496 -2.91314 -2.97532 0
M  V30 4718 H 437.093 -1.24417 -5.20023 0
M  V30 4719 H 437.436 0.117219 -4.16135 0
M  V30 4720 H 437.969 -1.5118 -3.67953 0
M  V30 4721 H 434.708 -4.17674 -5.05202 0
M  V30 4722 H 434.228 -2.51041 -5.44737 0
M  V30 4723 H 435.907 -3.04403 -5.70918 0
M  V30 4724 N 436.039 1.36541 -0.78704 0
M  V30 4725 C 436.969 2.32659 -0.197992 0
M  V30 4726 C 437.95 1.56533 0.665697 0
M  V30 4727 O 439.135 1.84698 0.60001 0
M  V30 4728 C 436.265 3.40778 0.669901 0
M  V30 4729 C 435.219 4.27897 -0.0937039 0
M  V30 4730 C 434.545 5.27163 0.894629 0
M  V30 4731 C 435.845 5.06334 -1.28154 0
M  V30 4732 H 437.539 2.82171 -1.00099 0
M  V30 4733 H 435.085 1.35665 -0.482793 0
M  V30 4734 H 437.038 4.07008 1.09191 0
M  V30 4735 H 435.762 2.89827 1.50558 0
M  V30 4736 H 434.421 3.6322 -0.49666 0
M  V30 4737 H 434.069 4.72486 1.72527 0
M  V30 4738 H 433.769 5.86317 0.388149 0
M  V30 4739 H 435.293 5.96266 1.31525 0
M  V30 4740 H 436.707 5.65617 -0.93541 0
M  V30 4741 H 435.104 5.74888 -1.72115 0
M  V30 4742 H 436.174 4.38114 -2.07807 0
M  V30 4743 N 437.518 0.538854 1.48102 0
M  V30 4744 C 438.428 -0.222648 2.33541 0
M  V30 4745 C 439.444 -0.930225 1.47047 0
M  V30 4746 O 440.62 -0.903211 1.80011 0
M  V30 4747 C 437.685 -1.25064 3.23357 0
M  V30 4748 C 436.746 -0.552469 4.2573 0
M  V30 4749 C 435.979 -1.53149 5.11254 0
M  V30 4750 O 436.202 -2.76487 4.9891 0
M  V30 4751 O 435.136 -1.06602 5.92385 0
M  V30 4752 H 438.962 0.477707 2.99919 0
M  V30 4753 H 436.547 0.299669 1.46364 0
M  V30 4754 H 438.429 -1.8445 3.78888 0
M  V30 4755 H 437.104 -1.93325 2.59629 0
M  V30 4756 H 436.011 0.082114 3.7401 0
M  V30 4757 H 437.344 0.0883526 4.92121 0
M  V30 4758 N 438.996 -1.55193 0.274407 0
M  V30 4759 C 440.221 -2.04446 -0.348824 0
M  V30 4760 C 440.646 -1.15149 -1.48735 0
M  V30 4761 O 440.004 -0.149952 -1.80679 0
M  V30 4762 C 440.052 -3.51431 -0.808009 0
M  V30 4763 O 439.156 -3.65225 -1.91531 0
M  V30 4764 H 438.497 -0.66006 -0.0722276 0
M  V30 4765 H 441.027 -2.00481 0.408498 0
M  V30 4766 H 441.037 -3.92781 -1.10395 0
M  V30 4767 H 439.712 -4.15892 0.0249865 0
M  V30 4768 H 438.289 -3.35778 -1.62196 0
M  V30 4769 N 440.474 -0.00167713 -1.576 0
M  V30 4770 C 441.404 0.988091 -2.11563 0
M  V30 4771 C 442.385 1.35736 -1.02517 0
M  V30 4772 O 443.57 1.44082 -1.30208 0
M  V30 4773 C 440.7 2.27941 -2.62031 0
M  V30 4774 C 439.654 2.0517 -3.75619 0
M  V30 4775 C 438.98 3.4033 -4.12407 0
M  V30 4776 C 440.28 1.41294 -5.02825 0
M  V30 4777 H 441.974 0.538771 -2.94513 0
M  V30 4778 H 439.52 0.257712 -1.41675 0
M  V30 4779 H 441.473 2.97539 -2.9841 0
M  V30 4780 H 440.197 2.74989 -1.76205 0
M  V30 4781 H 438.856 1.37998 -3.39635 0
M  V30 4782 H 438.504 3.85085 -3.23603 0
M  V30 4783 H 438.204 3.25909 -4.88935 0
M  V30 4784 H 439.728 4.1124 -4.51347 0
M  V30 4785 H 441.142 2.00851 -5.36965 0
M  V30 4786 H 439.539 1.37356 -5.84169 0
M  V30 4787 H 440.609 0.382362 -4.8339 0
M  V30 4788 N 441.952 1.55251 0.271103 0
M  V30 4789 C 442.885 1.83191 1.36075 0
M  V30 4790 C 443.863 0.685091 1.47463 0
M  V30 4791 O 445.047 0.928292 1.64058 0
M  V30 4792 C 442.174 1.99521 2.73696 0
M  V30 4793 C 441.22 3.22081 2.79582 0
M  V30 4794 S 442.053 4.79388 2.38636 0
M  V30 4795 C 443.209 4.98693 3.78228 0
M  V30 4796 H 443.442 2.75327 1.12171 0
M  V30 4797 H 440.975 1.47046 0.470833 0
M  V30 4798 H 442.933 2.09613 3.52948 0
M  V30 4799 H 441.594 1.0827 2.9485 0
M  V30 4800 H 440.787 3.304 3.80594 0
M  V30 4801 H 440.389 3.10589 2.08352 0
M  V30 4802 H 442.681 4.84551 4.73515 0
M  V30 4803 H 443.624 6.00738 3.7486 0
M  V30 4804 H 444.032 4.26665 3.69618 0
M  V30 4805 N 443.43 -0.535701 1.48216 0
M  V30 4806 C 444.67 -1.30238 1.57536 0
M  V30 4807 C 445.034 -1.90479 0.241229 0
M  V30 4808 O 446.235 -2.67983 0.20938 0
M  V30 4809 C 444.506 -2.3669 2.67792 0
M  V30 4810 S 446.065 -3.23159 2.9684 0
M  V30 4811 H 442.883 -0.443093 0.556048 0
M  V30 4812 H 445.485 -0.610937 1.85709 0
M  V30 4813 H 444.189 -1.90905 3.63296 0
M  V30 4814 H 443.72 -3.10548 2.41502 0
M  V30 4815 H 445.735 -4.36647 2.35699 0
M  V30 4816 N 444.908 -1.36708 -0.784132 0
M  V30 4817 C 445.856 -1.31533 -1.91838 0
M  V30 4818 C 446.85 -0.206205 -1.6814 0
M  V30 4819 O 448.056 -0.373519 -1.76082 0
M  V30 4820 H 444.431 -0.409613 -0.630651 0
M  V30 4821 H 446.402 -2.2731 -1.9332 0
M  V30 4822 C 445.151 -1.12679 -3.28936 0
M  V30 4823 H 444.474 -1.97274 -3.4774 0
M  V30 4824 H 445.914 -1.13106 -4.08636 0
M  V30 4825 C 444.373 0.168281 -3.36479 0
M  V30 4826 O 444.903 1.15625 -3.84699 0
M  V30 4827 N 443.109 0.214762 -2.89805 0
M  V30 4828 H 442.656 -0.589852 -2.50756 0
M  V30 4829 H 442.614 1.08094 -2.95234 0
M  V30 4830 N 446.386 1.0089 -1.21074 0
M  V30 4831 C 447.296 2.13039 -0.982425 0
M  V30 4832 C 448.312 1.73881 0.0642161 0
M  V30 4833 O 449.488 2.01012 -0.12496 0
M  V30 4834 C 446.553 3.42377 -0.545803 0
M  V30 4835 C 445.614 3.95731 -1.6642 0
M  V30 4836 C 444.847 5.18896 -1.24832 0
M  V30 4837 O 445.07 5.70273 -0.120265 0
M  V30 4838 O 444.004 5.65597 -2.05873 0
M  V30 4839 H 447.83 2.35175 -1.92163 0
M  V30 4840 H 445.415 1.1142 -0.995285 0
M  V30 4841 H 447.297 4.20244 -0.311912 0
M  V30 4842 H 445.972 3.21639 0.364727 0
M  V30 4843 H 444.879 3.19108 -1.95246 0
M  V30 4844 H 446.212 4.20872 -2.55201 0
M  V30 4845 N 447.864 1.01787 1.20321 0
M  V30 4846 C 449.089 0.727009 1.9424 0
M  V30 4847 C 449.514 -0.706179 1.74341 0
M  V30 4848 O 448.872 -1.48609 1.03852 0
M  V30 4849 C 448.92 1.06958 3.44372 0
M  V30 4850 O 448.024 0.181983 4.11998 0
M  V30 4851 H 447.365 0.269626 0.606793 0
M  V30 4852 H 449.895 1.36158 1.52716 0
M  V30 4853 H 449.905 1.02182 3.94997 0
M  V30 4854 H 448.58 2.11378 3.58179 0
M  V30 4855 H 447.157 0.287378 3.71791 0
M  V30 4856 N 449.342 -1.36122 0.79427 0
M  V30 4857 C 450.567 -2.03891 0.379871 0
M  V30 4858 C 450.992 -1.59488 -0.997251 0
M  V30 4859 O 450.35 -0.765652 -1.64339 0
M  V30 4860 C 450.398 -3.57687 0.457442 0
M  V30 4861 O 449.502 -4.08931 -0.5338 0
M  V30 4862 H 448.843 -0.6443 0.160541 0
M  V30 4863 H 451.373 -1.73976 1.07673 0
M  V30 4864 H 451.383 -4.06721 0.322792 0
M  V30 4865 H 450.058 -3.89357 1.46199 0
M  V30 4866 H 448.635 -3.71154 -0.360409 0
M  V30 4867 N 450.82 -0.546701 -1.47814 0
M  V30 4868 C 451.753 0.254472 -2.26777 0
M  V30 4869 C 452.731 0.929809 -1.33392 0
M  V30 4870 O 453.915 0.950889 -1.62759 0
M  V30 4871 C 451.042 1.36171 -3.10121 0
M  V30 4872 C 450.088 0.796038 -4.19005 0
M  V30 4873 S 450.921 -0.349191 -5.3436 0
M  V30 4874 C 452.077 0.760122 -6.21267 0
M  V30 4875 H 452.31 -0.415612 -2.94381 0
M  V30 4876 H 449.843 -0.332809 -1.5077 0
M  V30 4877 H 451.801 1.99588 -3.58713 0
M  V30 4878 H 450.462 2.00359 -2.41899 0
M  V30 4879 H 449.655 1.62719 -4.7701 0
M  V30 4880 H 449.257 0.238246 -3.7324 0
M  V30 4881 H 451.549 1.65479 -6.5698 0
M  V30 4882 H 452.492 0.217673 -7.07765 0
M  V30 4883 H 452.9 1.04806 -5.54685 0
M  V30 4884 N 452.299 1.55045 -0.282633 0
M  V30 4885 C 453.231 2.2023 0.634924 0
M  V30 4886 C 454.244 1.18931 1.11172 0
M  V30 4887 O 455.433 1.4562 1.03233 0
M  V30 4888 C 452.533 2.82041 1.87899 0
M  V30 4889 C 451.706 4.091 1.54776 0
M  V30 4890 C 450.765 4.54887 2.64507 0
M  V30 4891 O 449.791 5.20496 2.30375 0
M  V30 4892 N 450.993 4.25659 3.94709 0
M  V30 4893 H 453.758 2.99601 0.0769811 0
M  V30 4894 H 451.319 1.61565 -0.104048 0
M  V30 4895 H 453.311 3.09613 2.60619 0
M  V30 4896 H 451.881 2.06618 2.3458 0
M  V30 4897 H 451.101 3.88736 0.654049 0
M  V30 4898 H 452.389 4.9187 1.30158 0
M  V30 4899 H 451.787 3.7306 4.25256 0
M  V30 4900 H 450.344 4.57984 4.63782 0
M  V30 4901 N 453.777 0.010035 1.57597 0
M  V30 4902 C 455.002 -0.687021 1.95691 0
M  V30 4903 C 455.427 -1.65952 0.885519 0
M  V30 4904 O 454.785 -1.80633 -0.15543 0
M  V30 4905 C 454.833 -1.3864 3.32884 0
M  V30 4906 O 453.937 -2.50115 3.27897 0
M  V30 4907 H 453.278 -0.181989 0.638573 0
M  V30 4908 H 455.808 0.0662122 2.04493 0
M  V30 4909 H 455.818 -1.74754 3.6868 0
M  V30 4910 H 454.493 -0.673411 4.10412 0
M  V30 4911 H 453.07 -2.16253 3.03791 0
M  V30 4912 N 455.255 -1.55392 -0.262866 0
M  V30 4913 C 456.185 -1.91978 -1.32917 0
M  V30 4914 C 457.166 -0.7828 -1.51017 0
M  V30 4915 O 458.351 -1.04178 -1.63892 0
M  V30 4916 C 455.481 -2.20055 -2.68687 0
M  V30 4917 C 454.435 -3.35854 -2.65304 0
M  V30 4918 C 453.761 -3.49435 -4.04721 0
M  V30 4919 C 455.061 -4.71977 -2.23685 0
M  V30 4920 H 456.755 -2.81292 -1.02544 0
M  V30 4921 H 454.301 -1.3534 -0.491846 0
M  V30 4922 H 456.254 -2.44237 -3.43404 0
M  V30 4923 H 454.978 -1.27551 -3.00663 0
M  V30 4924 H 453.637 -3.11655 -1.93045 0
M  V30 4925 H 453.285 -2.54379 -4.33936 0
M  V30 4926 H 452.985 -4.27297 -4.0335 0
M  V30 4927 H 454.509 -3.7592 -4.81161 0
M  V30 4928 H 455.923 -4.95637 -2.88127 0
M  V30 4929 H 454.32 -5.52828 -2.33456 0
M  V30 4930 H 455.39 -4.70115 -1.18827 0
M  V30 4931 N 456.733 0.527833 -1.48498 0
M  V30 4932 C 458.149 0.856571 -1.34666 0
M  V30 4933 C 458.349 1.98271 -0.35931 0
M  V30 4934 O 457.405 2.51551 0.218703 0
M  V30 4935 C 458.718 1.22207 -2.74747 0
M  V30 4936 C 460.266 1.33183 -2.83251 0
M  V30 4937 C 460.741 1.73075 -4.24039 0
M  V30 4938 N 462.232 1.80174 -4.26722 0
M  V30 4939 C 462.967 2.1243 -5.32598 0
M  V30 4940 N 462.463 2.43096 -6.4875 0
M  V30 4941 N 464.256 2.13454 -5.19994 0
M  V30 4942 H 456.407 -0.215174 -2.11307 0
M  V30 4943 H 458.67 -0.0336281 -0.947403 0
M  V30 4944 H 458.376 0.468195 -3.4857 0
M  V30 4945 H 458.25 2.17173 -3.08409 0
M  V30 4946 H 460.637 2.07647 -2.09683 0
M  V30 4947 H 460.718 0.363333 -2.53206 0
M  V30 4948 H 460.362 0.991712 -4.98124 0
M  V30 4949 H 460.292 2.70979 -4.51529 0
M  V30 4950 H 462.783 1.58744 -3.42942 0
M  V30 4951 H 463.096 2.6682 -7.25277 0
M  V30 4952 H 461.441 2.40611 -6.52021 0
M  V30 4953 H 464.632 1.88956 -4.28268 0
M  V30 4954 H 464.805 2.38261 -6.02608 0
M  V30 4955 N 458.211 1.37122 0.776871 0
M  V30 4956 C 459.143 1.28342 1.89897 0
M  V30 4957 C 460.156 0.200277 1.61563 0
M  V30 4958 O 461.345 0.456012 1.72577 0
M  V30 4959 C 458.445 0.960427 3.25006 0
M  V30 4960 C 457.618 2.148 3.81025 0
M  V30 4961 C 456.677 1.79608 4.94598 0
M  V30 4962 O 455.703 2.51845 5.10454 0
M  V30 4963 N 456.905 0.737171 5.758 0
M  V30 4964 H 459.67 2.25027 1.97947 0
M  V30 4965 H 457.231 1.3068 0.955739 0
M  V30 4966 H 459.223 0.705942 3.98495 0
M  V30 4967 H 457.793 0.0823066 3.12492 0
M  V30 4968 H 457.013 2.56454 2.99374 0
M  V30 4969 H 458.301 2.9411 4.15183 0
M  V30 4970 H 457.699 0.137637 5.65533 0
M  V30 4971 H 456.256 0.542534 6.49538 0
M  V30 4972 N 459.689 -1.00246 1.21608 0
M  V30 4973 C 461.105 -1.26435 0.973975 0
M  V30 4974 C 461.305 -1.98642 -0.338143 0
M  V30 4975 O 460.361 -2.29026 -1.06317 0
M  V30 4976 C 461.674 -2.08551 2.16626 0
M  V30 4977 C 463.222 -2.21769 2.20879 0
M  V30 4978 C 463.697 -3.07267 3.39633 0
M  V30 4979 N 465.188 -3.14855 3.39736 0
M  V30 4980 C 465.923 -3.81274 4.28273 0
M  V30 4981 N 465.419 -4.497 5.27012 0
M  V30 4982 N 467.212 -3.7794 4.16074 0
M  V30 4983 H 459.363 -0.518089 2.05984 0
M  V30 4984 H 461.626 -0.291368 0.902113 0
M  V30 4985 H 461.332 -1.62847 3.11727 0
M  V30 4986 H 461.206 -3.09303 2.15897 0
M  V30 4987 H 463.593 -2.66691 1.26332 0
M  V30 4988 H 463.674 -1.20478 2.25652 0
M  V30 4989 H 463.318 -2.63047 4.34475 0
M  V30 4990 H 463.248 -4.08678 3.321 0
M  V30 4991 H 465.739 -2.66147 2.6828 0
M  V30 4992 H 466.052 -4.98092 5.90867 0
M  V30 4993 H 464.397 -4.48479 5.30935 0
M  V30 4994 H 467.588 -3.23638 3.38195 0
M  V30 4995 H 467.761 -4.29424 4.85282 0
M  V30 4996 N 461.167 -1.02423 -1.1978 0
M  V30 4997 C 462.114 -0.601023 -2.22837 0
M  V30 4998 C 463.084 0.382801 -1.61629 0
M  V30 4999 O 464.269 0.280514 -1.88727 0
M  V30 5000 C 461.409 0.0467755 -3.45068 0
M  V30 5001 C 460.522 -0.98253 -4.20678 0
M  V30 5002 C 459.657 -0.304982 -5.30324 0
M  V30 5003 C 458.696 -1.32052 -5.97686 0
M  V30 5004 N 457.833 -0.669105 -6.98904 0
M  V30 5005 H 462.673 -1.48444 -2.58396 0
M  V30 5006 H 460.21 -0.742936 -1.2696 0
M  V30 5007 H 462.168 0.439556 -4.14878 0
M  V30 5008 H 460.798 0.893796 -3.10179 0
M  V30 5009 H 459.85 -1.49341 -3.49859 0
M  V30 5010 H 461.162 -1.75455 -4.66923 0
M  V30 5011 H 460.316 0.142893 -6.06532 0
M  V30 5012 H 459.055 0.499283 -4.85138 0
M  V30 5013 H 458.06 -1.7787 -5.20233 0
M  V30 5014 H 459.285 -2.1262 -6.44957 0
M  V30 5015 H 457.231 0.115152 -6.55899 0
M  V30 5016 H 457.148 -1.37908 -7.43315 0
M  V30 5017 H 458.416 -0.245076 -7.79115 0
M  V30 5018 N 462.645 1.35699 -0.801477 0
M  V30 5019 C 463.87 2.03687 -0.390678 0
M  V30 5020 C 464.295 1.60015 0.988778 0
M  V30 5021 O 463.653 0.774357 1.63931 0
M  V30 5022 C 463.701 3.57439 -0.476404 0
M  V30 5023 O 462.805 4.09208 0.512106 0
M  V30 5024 H 462.146 0.64344 -0.163956 0
M  V30 5025 H 464.676 1.73403 -1.08594 0
M  V30 5026 H 464.686 4.06544 -0.344357 0
M  V30 5027 H 463.361 3.88576 -1.48262 0
M  V30 5028 H 461.938 3.7134 0.340721 0
M  V30 5029 N 464.123 0.554532 1.47522 0
M  V30 5030 C 465.369 0.0295227 2.02779 0
M  V30 5031 C 465.702 -1.31582 1.42828 0
M  V30 5032 O 464.977 -1.85561 0.582872 0
M  V30 5033 C 465.26 -0.0664057 3.60039 0
M  V30 5034 C 465.113 1.30585 4.30427 0
M  V30 5035 C 466.432 -0.781162 4.33112 0
M  V30 5036 H 463.551 0.0122027 0.736899 0
M  V30 5037 H 466.193 0.716305 1.7598 0
M  V30 5038 H 464.343 -0.651307 3.83002 0
M  V30 5039 H 466.015 1.93374 4.18813 0
M  V30 5040 H 464.258 1.88125 3.90886 0
M  V30 5041 H 464.929 1.19147 5.38988 0
M  V30 5042 H 467.405 -0.284565 4.15126 0
M  V30 5043 H 466.281 -0.817237 5.42782 0
M  V30 5044 H 466.542 -1.83672 4.0214 0
M  V30 5045 N 465.601 -1.54893 0.290851 0
M  V30 5046 C 466.549 -2.24579 -0.605576 0
M  V30 5047 C 467.543 -1.24824 -1.14522 0
M  V30 5048 O 468.749 -1.42706 -1.09704 0
M  V30 5049 H 465.124 -0.720946 -0.213872 0
M  V30 5050 H 467.095 -2.984 0.0048173 0
M  V30 5051 C 465.844 -2.99224 -1.77088 0
M  V30 5052 H 465.167 -3.75782 -1.36484 0
M  V30 5053 H 466.607 -3.51281 -2.3744 0
M  V30 5054 C 465.066 -2.05602 -2.66888 0
M  V30 5055 O 465.596 -1.61745 -3.67698 0
M  V30 5056 N 463.802 -1.71771 -2.34399 0
M  V30 5057 H 463.349 -2.07633 -1.52468 0
M  V30 5058 H 463.307 -1.09403 -2.94751 0
M  V30 5059 N 467.08 -0.0183926 -1.57589 0
M  V30 5060 C 468.043 0.951986 -2.08494 0
M  V30 5061 C 469.043 1.26092 -0.997874 0
M  V30 5062 O 470.233 1.20304 -1.25987 0
M  V30 5063 C 467.365 2.27165 -2.54182 0
M  V30 5064 H 468.558 0.511307 -2.95509 0
M  V30 5065 H 466.111 0.229444 -1.54607 0
M  V30 5066 H 466.846 2.75884 -1.70465 0
M  V30 5067 H 466.631 2.06057 -3.33591 0
M  V30 5068 H 468.121 2.9674 -2.93828 0
M  V30 5069 N 468.558 1.5553 0.254621 0
M  V30 5070 C 469.488 1.9268 1.31897 0
M  V30 5071 C 470.469 0.790797 1.506 0
M  V30 5072 O 471.654 1.05045 1.63337 0
M  V30 5073 C 468.784 2.21477 2.67517 0
M  V30 5074 C 467.738 3.37256 2.63519 0
M  V30 5075 C 467.064 3.51576 4.02862 0
M  V30 5076 C 468.364 4.73157 2.21179 0
M  V30 5077 H 470.058 2.81832 1.01051 0
M  V30 5078 H 467.604 1.35599 0.484662 0
M  V30 5079 H 469.557 2.46055 3.42104 0
M  V30 5080 H 468.281 1.29144 2.99982 0
M  V30 5081 H 466.94 3.12675 1.9139 0
M  V30 5082 H 466.588 2.56676 4.32581 0
M  V30 5083 H 466.288 4.2943 4.01078 0
M  V30 5084 H 467.812 3.78467 4.79161 0
M  V30 5085 H 469.226 4.97158 2.85494 0
M  V30 5086 H 467.623 5.54058 2.30521 0
M  V30 5087 H 468.693 4.70739 1.16332 0
M  V30 5088 N 470.036 -0.519951 1.48776 0
M  V30 5089 C 470.984 -1.64443 1.64503 0
M  V30 5090 C 471.978 -1.61501 0.511248 0
M  V30 5091 O 473.184 -1.66238 0.690294 0
M  V30 5092 H 469.559 -0.544776 0.518385 0
M  V30 5093 H 471.53 -1.48325 2.58925 0
M  V30 5094 C 470.279 -3.02673 1.71127 0
M  V30 5095 H 469.602 -3.05635 2.57735 0
M  V30 5096 H 471.042 -3.80941 1.86172 0
M  V30 5097 C 469.501 -3.33854 0.452032 0
M  V30 5098 O 470.031 -3.99385 -0.430678 0
M  V30 5099 N 468.237 -2.88825 0.32069 0
M  V30 5100 H 467.784 -2.35674 1.03998 0
M  V30 5101 H 467.742 -3.10056 -0.520814 0
M  V30 5102 N 471.514 -1.37532 -0.769588 0
M  V30 5103 C 472.739 -1.36231 -1.56384 0
M  V30 5104 C 473.164 0.0495849 -1.88035 0
M  V30 5105 O 472.522 1.02723 -1.49391 0
M  V30 5106 C 472.57 -2.20986 -2.84952 0
M  V30 5107 O 471.674 -1.61597 -3.79421 0
M  V30 5108 H 471.015 -0.465387 -0.473615 0
M  V30 5109 H 473.545 -1.81085 -0.952342 0
M  V30 5110 H 473.555 -2.34277 -3.34034 0
M  V30 5111 H 472.23 -3.23612 -2.61243 0
M  V30 5112 H 470.807 -1.57359 -3.38072 0
M  V30 5113 N 472.992 0.995999 -1.22138 0
M  V30 5114 C 474.403 1.54961 -1.04135 0
M  V30 5115 C 474.754 1.92159 0.396147 0
M  V30 5116 O 473.879 1.74435 1.28069 0
M  V30 5117 C 474.474 2.81581 -1.88408 0
M  V30 5118 C 473.033 3.33396 -1.74712 0
M  V30 5119 C 472.18 2.06509 -1.85066 0
M  V30 5120 H 475.131 0.817436 -1.36028 0
M  V30 5121 H 475.152 3.53822 -1.39966 0
M  V30 5122 H 474.664 2.54476 -2.93025 0
M  V30 5123 H 472.765 3.65416 -0.728159 0
M  V30 5124 H 472.878 4.04208 -2.57202 0
M  V30 5125 H 471.242 2.19925 -1.28472 0
M  V30 5126 H 472.025 1.81804 -2.91208 0
M  V30 5127 N 474.47 1.03057 1.19235 0
M  V30 5128 C 475.4 0.633497 2.24742 0
M  V30 5129 C 476.381 -0.358335 1.66283 0
M  V30 5130 O 477.566 -0.240676 1.92703 0
M  V30 5131 C 474.696 -0.0147648 3.47297 0
M  V30 5132 C 473.65 0.899527 4.18441 0
M  V30 5133 C 472.976 0.116281 5.34574 0
M  V30 5134 C 474.276 2.21404 4.73051 0
M  V30 5135 H 475.97 1.5155 2.58211 0
M  V30 5136 H 473.516 0.73014 1.24117 0
M  V30 5137 H 475.469 -0.304202 4.20301 0
M  V30 5138 H 474.193 -0.931577 3.13032 0
M  V30 5139 H 472.852 1.17319 3.47321 0
M  V30 5140 H 472.5 -0.802619 4.96555 0
M  V30 5141 H 472.2 0.725293 5.83107 0
M  V30 5142 H 473.724 -0.166376 6.10373 0
M  V30 5143 H 475.138 1.98601 5.37802 0
M  V30 5144 H 473.535 2.77512 5.32078 0
M  V30 5145 H 474.605 2.86752 3.91026 0
M  V30 5146 N 475.948 -1.35272 0.808662 0
M  V30 5147 C 476.898 -2.27181 0.193124 0
M  V30 5148 C 477.882 -1.47871 -0.634265 0
M  V30 5149 O 479.074 -1.70048 -0.491182 0
M  V30 5150 C 476.203 -3.36979 -0.655751 0
M  V30 5151 C 475.289 -4.23712 0.181481 0
M  V30 5152 N 475.68 -4.90225 1.24551 0
M  V30 5153 C 473.978 -4.45985 -0.0365493 0
M  V30 5154 C 474.679 -5.54537 1.75682 0
M  V30 5155 N 473.655 -5.33107 1.06294 0
M  V30 5156 H 477.457 -2.76101 1.00724 0
M  V30 5157 H 474.971 -1.48823 0.650029 0
M  V30 5158 H 476.968 -4.01774 -1.11279 0
M  V30 5159 H 475.628 -2.89611 -1.46819 0
M  V30 5160 H 476.639 -4.91641 1.62818 0
M  V30 5161 H 473.316 -4.09409 -0.817964 0
M  V30 5162 H 474.706 -6.17597 2.64621 0
M  V30 5163 N 477.426 -0.562348 -1.47226 0
M  V30 5164 C 478.358 0.220011 -2.28142 0
M  V30 5165 C 479.371 0.874596 -1.37312 0
M  V30 5166 O 480.56 0.747583 -1.62091 0
M  V30 5167 C 477.66 1.32953 -3.11732 0
M  V30 5168 C 476.833 0.770759 -4.30556 0
M  V30 5169 C 475.892 1.76541 -4.95701 0
M  V30 5170 O 474.918 1.3095 -5.53932 0
M  V30 5171 N 476.12 3.09896 -4.90861 0
M  V30 5172 H 478.885 -0.474107 -2.95926 0
M  V30 5173 H 476.446 -0.398761 -1.56912 0
M  V30 5174 H 478.438 1.99378 -3.5218 0
M  V30 5175 H 477.008 1.92681 -2.46156 0
M  V30 5176 H 476.228 -0.0704056 -3.94137 0
M  V30 5177 H 477.516 0.376872 -5.07402 0
M  V30 5178 H 476.914 3.49577 -4.44761 0
M  V30 5179 H 475.471 3.71865 -5.35313 0
M  V30 5180 N 478.904 1.54736 -0.299062 0
M  V30 5181 C 479.814 2.27127 0.587413 0
M  V30 5182 C 480.83 1.30575 1.15005 0
M  V30 5183 O 482.006 1.63554 1.17525 0
M  V30 5184 C 479.071 2.99645 1.74395 0
M  V30 5185 C 478.132 4.11731 1.21559 0
M  V30 5186 C 477.365 4.80781 2.317 0
M  V30 5187 O 477.588 4.4918 3.51558 0
M  V30 5188 O 476.522 5.68226 1.98501 0
M  V30 5189 H 480.348 3.037 0.000250109 0
M  V30 5190 H 477.933 1.49256 -0.0655919 0
M  V30 5191 H 479.815 3.45138 2.4178 0
M  V30 5192 H 478.49 2.25969 2.31775 0
M  V30 5193 H 477.397 3.70641 0.507514 0
M  V30 5194 H 478.73 4.87379 0.687233 0
M  V30 5195 N 480.382 0.0267497 1.57577 0
M  V30 5196 C 481.612 -0.6617 1.95717 0
M  V30 5197 C 482.02 -1.66331 0.901706 0
M  V30 5198 O 481.363 -1.83273 -0.125241 0
M  V30 5199 C 481.425 -1.42649 3.29987 0
M  V30 5200 C 481.089 -0.583482 4.5326 0
M  V30 5201 C 482.086 0.140221 5.19711 0
M  V30 5202 C 479.771 -0.521581 4.99585 0
M  V30 5203 C 481.765 0.914523 6.30805 0
M  V30 5204 C 479.452 0.256428 6.10562 0
M  V30 5205 C 480.45 0.973189 6.76031 0
M  V30 5206 O 480.138 1.73845 7.84878 0
M  V30 5207 H 479.87 -0.187483 0.649481 0
M  V30 5208 H 482.424 0.0820847 2.05236 0
M  V30 5209 H 480.654 -2.21536 3.16952 0
M  V30 5210 H 482.343 -2.00282 3.53047 0
M  V30 5211 H 483.109 0.101716 4.84893 0
M  V30 5212 H 478.988 -1.06904 4.48433 0
M  V30 5213 H 482.532 1.4745 6.81839 0
M  V30 5214 H 478.429 0.296657 6.44818 0
M  V30 5215 H 479.197 1.65797 8.01532 0
M  V30 5216 N 481.861 -1.55662 -0.24637 0
M  V30 5217 C 482.771 -1.93495 -1.32653 0
M  V30 5218 C 483.787 -0.835462 -1.5263 0
M  V30 5219 O 484.963 -1.1369 -1.66242 0
M  V30 5220 C 482.028 -2.22242 -2.66101 0
M  V30 5221 C 481.089 -3.45625 -2.54641 0
M  V30 5222 C 480.322 -3.72991 -3.81724 0
M  V30 5223 O 480.545 -3.02421 -4.8363 0
M  V30 5224 O 479.479 -4.66515 -3.80325 0
M  V30 5225 H 483.305 -2.85498 -1.03559 0
M  V30 5226 H 480.89 -1.42551 -0.44717 0
M  V30 5227 H 482.772 -2.42037 -3.44958 0
M  V30 5228 H 481.447 -1.33417 -2.94926 0
M  V30 5229 H 480.354 -3.31136 -1.74067 0
M  V30 5230 H 481.687 -4.34754 -2.3076 0
M  V30 5231 N 483.339 0.512053 -1.4905 0
M  V30 5232 C 484.249 1.64139 -1.67617 0
M  V30 5233 C 485.265 1.64786 -0.558701 0
M  V30 5234 O 486.441 1.8341 -0.832034 0
M  V30 5235 C 483.506 3.00548 -1.72835 0
M  V30 5236 C 482.567 3.10615 -2.96339 0
M  V30 5237 C 481.8 4.40517 -3.01298 0
M  V30 5238 O 482.023 5.28671 -2.14157 0
M  V30 5239 O 480.957 4.55325 -3.93653 0
M  V30 5240 H 484.783 1.51407 -2.63267 0
M  V30 5241 H 482.368 0.687131 -1.32661 0
M  V30 5242 H 484.25 3.81641 -1.78683 0
M  V30 5243 H 482.925 3.13566 -0.803616 0
M  V30 5244 H 481.832 2.2875 -2.96014 0
M  V30 5245 H 483.165 3.0252 -3.88256 0
M  V30 5246 N 484.817 1.37938 0.762283 0
M  V30 5247 C 485.765 1.34569 1.89721 0
M  V30 5248 C 486.759 0.232929 1.67791 0
M  V30 5249 O 487.965 0.401485 1.75465 0
M  V30 5250 H 484.34 0.419594 0.624055 0
M  V30 5251 H 486.311 2.30357 1.8968 0
M  V30 5252 C 485.06 1.17898 3.27101 0
M  V30 5253 H 484.383 2.02781 3.44558 0
M  V30 5254 H 485.823 1.19593 4.06784 0
M  V30 5255 C 484.282 -0.114728 3.36705 0
M  V30 5256 O 484.812 -1.0949 3.8649 0
M  V30 5257 N 483.018 -0.16863 2.9011 0
M  V30 5258 H 482.565 0.62967 2.49786 0
M  V30 5259 H 482.523 -1.03383 2.96916 0
M  V30 5260 N 486.295 -0.989507 1.22664 0
M  V30 5261 C 487.225 -2.09847 1.02404 0
M  V30 5262 C 488.206 -1.70007 -0.0561303 0
M  V30 5263 O 489.391 -1.93906 0.106748 0
M  V30 5264 C 486.521 -3.41996 0.604663 0
M  V30 5265 C 485.475 -3.95699 1.63115 0
M  V30 5266 C 484.801 -5.23936 1.0675 0
M  V30 5267 C 486.101 -4.25999 3.02196 0
M  V30 5268 H 487.795 -2.27054 1.95158 0
M  V30 5269 H 485.341 -1.09111 0.939727 0
M  V30 5270 H 487.294 -4.1899 0.45002 0
M  V30 5271 H 486.018 -3.24626 -0.35855 0
M  V30 5272 H 484.677 -3.2084 1.77362 0
M  V30 5273 H 484.325 -5.02909 0.0955422 0
M  V30 5274 H 484.025 -5.60833 1.75328 0
M  V30 5275 H 485.549 -6.0356 0.924516 0
M  V30 5276 H 486.963 -4.93777 2.91303 0
M  V30 5277 H 485.36 -4.74076 3.67929 0
M  V30 5278 H 486.43 -3.33636 3.51873 0
M  V30 5279 N 487.773 -1.03688 -1.18687 0
M  V30 5280 C 489.021 -0.736572 -1.88199 0
M  V30 5281 C 489.342 0.737665 -1.80509 0
M  V30 5282 O 488.612 1.53204 -1.22088 0
M  V30 5283 H 487.192 -0.269466 -0.696704 0
M  V30 5284 H 489.854 -1.31282 -1.44052 0
M  V30 5285 H 488.95 -1.03802 -2.94332 0
M  V30 5286 N 489.251 1.34841 -0.815825 0
M  V30 5287 C 490.528 1.92908 -0.323416 0
M  V30 5288 C 490.908 1.74479 1.18828 0
M  V30 5289 O 490.256 1.11928 1.99209 0
M  V30 5290 C 490.466 3.40957 -0.744952 0
M  V30 5291 C 491.814 4.18107 -0.739716 0
M  V30 5292 O 492.838 3.49511 -0.68708 0
M  V30 5293 O 491.697 5.40517 -0.806456 0
M  V30 5294 H 488.791 0.822436 -0.0867646 0
M  V30 5295 H 491.337 1.4386 -0.90014 0
M  V30 5296 H 490.109 3.4814 -1.78646 0
M  V30 5297 H 489.732 3.97341 -0.143535 0
M  V30 5298 N 490.729 0.570148 1.46925 0
M  V30 5299 C 491.954 0.0542592 2.07329 0
M  V30 5300 C 492.379 -1.23582 1.41806 0
M  V30 5301 O 491.737 -1.74341 0.497479 0
M  V30 5302 C 491.785 -0.111175 3.60429 0
M  V30 5303 O 490.889 -1.17071 3.95434 0
M  V30 5304 H 490.23 0.0571425 0.661537 0
M  V30 5305 H 492.76 0.789516 1.88753 0
M  V30 5306 H 492.77 -0.321315 4.06733 0
M  V30 5307 H 491.445 0.831012 4.07513 0
M  V30 5308 H 490.022 -0.940029 3.60857 0
M  V30 5309 N 492.207 -1.54576 0.307264 0
M  V30 5310 C 493.456 -1.99442 -0.300976 0
M  V30 5311 C 493.769 -1.19928 -1.5452 0
M  V30 5312 O 494.975 -1.55092 -2.22842 0
M  V30 5313 C 493.431 -3.55084 -0.586809 0
M  V30 5314 C 493.039 -4.43413 0.639438 0
M  V30 5315 C 494.783 -4.0846 -1.1559 0
M  V30 5316 C 492.69 -5.90499 0.326411 0
M  V30 5317 H 491.62 -0.744986 -0.116238 0
M  V30 5318 H 494.271 -1.787 0.416947 0
M  V30 5319 H 492.653 -3.71749 -1.36449 0
M  V30 5320 H 493.827 -4.38522 1.41545 0
M  V30 5321 H 492.142 -4.00842 1.1276 0
M  V30 5322 H 494.739 -5.15926 -1.40445 0
M  V30 5323 H 495.082 -3.59443 -2.10015 0
M  V30 5324 H 495.615 -3.95362 -0.439778 0
M  V30 5325 H 492.354 -6.43676 1.23939 0
M  V30 5326 H 491.874 -5.98382 -0.412212 0
M  V30 5327 H 493.553 -6.46962 -0.0697393 0
M  V30 5328 N 493.685 -0.035106 -1.57561 0
M  V30 5329 C 494.931 0.64318 -1.92331 0
M  V30 5330 C 495.264 1.71434 -0.912368 0
M  V30 5331 O 494.539 1.94395 0.0640303 0
M  V30 5332 C 494.822 1.25411 -3.37556 0
M  V30 5333 C 494.675 0.192109 -4.4939 0
M  V30 5334 C 495.994 2.17041 -3.82859 0
M  V30 5335 H 493.113 0.232341 -0.699419 0
M  V30 5336 H 495.755 -0.0935889 -1.89769 0
M  V30 5337 H 493.905 1.88205 -3.39869 0
M  V30 5338 H 495.577 -0.438849 -4.59208 0
M  V30 5339 H 493.82 -0.481725 -4.31117 0
M  V30 5340 H 494.491 0.659292 -5.48049 0
M  V30 5341 H 496.967 1.64228 -3.8232 0
M  V30 5342 H 495.843 2.56738 -4.85157 0
M  V30 5343 H 496.104 3.06401 -3.18702 0
M  V30 5344 N 495.163 1.55791 0.238111 0
M  V30 5345 C 496.411 1.77681 0.963001 0
M  V30 5346 C 496.732 0.600674 1.85518 0
M  V30 5347 O 496.002 -0.383182 1.92116 0
M  V30 5348 H 494.582 0.655315 0.358568 0
M  V30 5349 H 497.244 1.93239 0.253945 0
M  V30 5350 H 496.34 2.69177 1.57956 0
M  V30 5351 N 496.642 -0.504142 1.49319 0
M  V30 5352 C 497.872 -1.28071 1.62116 0
M  V30 5353 C 498.28 -1.86955 0.290566 0
M  V30 5354 O 497.623 -1.68415 -0.733616 0
M  V30 5355 C 497.685 -2.4521 2.62893 0
M  V30 5356 C 497.349 -2.07218 4.0732 0
M  V30 5357 C 498.346 -1.61375 4.94221 0
M  V30 5358 C 496.031 -2.16949 4.53033 0
M  V30 5359 C 498.025 -1.25763 6.2487 0
M  V30 5360 C 495.712 -1.80949 5.83696 0
M  V30 5361 C 496.71 -1.3543 6.69438 0
M  V30 5362 O 496.398 -0.99915 7.97667 0
M  V30 5363 H 496.13 -0.394763 0.54876 0
M  V30 5364 H 498.684 -0.612118 1.96067 0
M  V30 5365 H 496.914 -3.15134 2.24115 0
M  V30 5366 H 498.603 -3.0724 2.65252 0
M  V30 5367 H 499.369 -1.53306 4.60133 0
M  V30 5368 H 495.248 -2.5133 3.86463 0
M  V30 5369 H 498.792 -0.901631 6.91749 0
M  V30 5370 H 494.689 -1.88667 6.17313 0
M  V30 5371 H 495.457 -1.13089 8.1065 0
M  V30 5372 N 498.12 -1.38341 -0.754957 0
M  V30 5373 C 499.067 -1.3546 -1.86867 0
M  V30 5374 C 500.037 -0.217369 -1.64672 0
M  V30 5375 O 501.222 -0.409383 -1.86356 0
M  V30 5376 C 498.362 -1.18413 -3.24149 0
M  V30 5377 C 497.475 -2.41511 -3.58185 0
M  V30 5378 C 496.61 -2.17205 -4.84763 0
M  V30 5379 C 495.649 -3.36081 -5.11582 0
M  V30 5380 N 494.786 -3.11219 -6.29354 0
M  V30 5381 H 499.626 -2.30672 -1.88664 0
M  V30 5382 H 497.163 -1.14607 -0.922154 0
M  V30 5383 H 499.121 -1.06545 -4.03366 0
M  V30 5384 H 497.751 -0.268397 -3.21682 0
M  V30 5385 H 496.803 -2.64056 -2.73822 0
M  V30 5386 H 498.115 -3.30115 -3.73932 0
M  V30 5387 H 497.269 -2.02465 -5.7192 0
M  V30 5388 H 496.008 -1.25964 -4.71152 0
M  V30 5389 H 495.013 -3.51341 -4.22894 0
M  V30 5390 H 496.238 -4.28196 -5.27091 0
M  V30 5391 H 494.184 -2.22624 -6.17069 0
M  V30 5392 H 494.101 -3.93373 -6.45596 0
M  V30 5393 H 495.369 -3.00132 -7.19403 0
M  V30 5394 N 499.598 0.982988 -1.23187 0
M  V30 5395 C 500.508 2.10907 -1.02739 0
M  V30 5396 C 501.524 1.73979 0.0273188 0
M  V30 5397 O 502.7 2.00702 -0.16757 0
M  V30 5398 C 499.765 3.41142 -0.618304 0
M  V30 5399 C 498.826 3.92112 -1.74777 0
M  V30 5400 C 498.059 5.16131 -1.3581 0
M  V30 5401 O 498.282 5.6989 -0.241201 0
M  V30 5402 O 497.216 5.61103 -2.17824 0
M  V30 5403 H 501.042 2.31046 -1.97108 0
M  V30 5404 H 498.627 1.09284 -1.01869 0
M  V30 5405 H 500.509 4.19488 -0.400982 0
M  V30 5406 H 499.184 3.2234 0.296421 0
M  V30 5407 H 498.091 3.14895 -2.0197 0
M  V30 5408 H 499.424 4.15364 -2.64071 0
M  V30 5409 N 501.076 1.04316 1.18135 0
M  V30 5410 C 502.023 0.636398 2.21853 0
M  V30 5411 C 502.993 -0.357039 1.62217 0
M  V30 5412 O 504.178 -0.250453 1.89149 0
M  V30 5413 C 501.318 0.00812779 3.45099 0
M  V30 5414 C 500.431 1.04933 4.19062 0
M  V30 5415 C 499.566 0.389313 5.29771 0
M  V30 5416 C 498.605 1.41544 5.9551 0
M  V30 5417 N 497.742 0.78021 6.97751 0
M  V30 5418 H 502.582 1.52536 2.56002 0
M  V30 5419 H 500.119 0.76304 1.25762 0
M  V30 5420 H 502.077 -0.373497 4.15525 0
M  V30 5421 H 500.707 -0.844336 3.11562 0
M  V30 5422 H 499.759 1.54888 3.47439 0
M  V30 5423 H 501.071 1.82862 4.64072 0
M  V30 5424 H 500.225 -0.0463805 6.06682 0
M  V30 5425 H 498.964 -0.422038 4.8587 0
M  V30 5426 H 497.969 1.86124 5.17337 0
M  V30 5427 H 499.194 2.22854 6.41493 0
M  V30 5428 H 497.14 -0.0107899 6.55999 0
M  V30 5429 H 497.057 1.49716 7.41027 0
M  V30 5430 H 498.325 0.368996 7.78626 0
M  V30 5431 N 502.554 -1.34406 0.822964 0
M  V30 5432 C 503.779 -2.0304 0.423034 0
M  V30 5433 C 504.204 -1.61568 -0.963196 0
M  V30 5434 O 503.562 -0.800339 -1.62678 0
M  V30 5435 C 503.61 -3.56636 0.53321 0
M  V30 5436 O 502.714 -4.09971 -0.446939 0
M  V30 5437 H 502.055 -0.64075 0.174171 0
M  V30 5438 H 504.585 -1.71653 1.11339 0
M  V30 5439 H 504.595 -4.05945 0.408991 0
M  V30 5440 H 503.27 -3.86168 1.54425 0
M  V30 5441 H 501.847 -3.71835 -0.281601 0
M  V30 5442 N 504.032 -0.577932 -1.46621 0
M  V30 5443 C 504.979 0.158048 -2.30258 0
M  V30 5444 C 505.949 0.888669 -1.40328 0
M  V30 5445 O 507.134 0.880283 -1.6928 0
M  V30 5446 C 504.274 1.16884 -3.24703 0
M  V30 5447 C 503.387 0.442163 -4.29731 0
M  V30 5448 C 502.522 1.44007 -5.11308 0
M  V30 5449 C 501.561 0.69952 -6.0809 0
M  V30 5450 N 500.698 1.64525 -6.82551 0
M  V30 5451 H 505.538 -0.561242 -2.92667 0
M  V30 5452 H 503.075 -0.288591 -1.44241 0
M  V30 5453 H 505.033 1.7677 -3.779 0
M  V30 5454 H 503.663 1.85591 -2.64113 0
M  V30 5455 H 502.715 -0.271632 -3.79429 0
M  V30 5456 H 504.027 -0.136992 -4.98612 0
M  V30 5457 H 503.181 2.11186 -5.68758 0
M  V30 5458 H 501.92 2.05315 -4.42377 0
M  V30 5459 H 500.925 0.0139217 -5.49798 0
M  V30 5460 H 502.15 0.091894 -6.79038 0
M  V30 5461 H 500.096 2.24653 -6.16334 0
M  V30 5462 H 500.013 1.11878 -7.47676 0
M  V30 5463 H 501.281 2.30754 -7.44562 0
M  V30 5464 N 505.51 1.54411 -0.315457 0
M  V30 5465 C 506.757 2.00419 0.289543 0
M  V30 5466 C 507.085 1.20373 1.52776 0
M  V30 5467 O 506.34 0.271769 1.93804 0
M  V30 5468 C 506.639 3.50936 0.676652 0
M  V30 5469 C 506.305 4.48532 -0.461472 0
M  V30 5470 C 504.967 4.74936 -0.773879 0
M  V30 5471 C 507.319 5.06567 -1.22637 0
M  V30 5472 C 504.647 5.56634 -1.85405 0
M  V30 5473 C 506.999 5.89441 -2.29657 0
M  V30 5474 C 505.663 6.1415 -2.61488 0
M  V30 5475 H 504.933 0.733386 0.105951 0
M  V30 5476 H 507.58 1.86434 -0.437554 0
M  V30 5477 H 505.885 3.62606 1.48405 0
M  V30 5478 H 507.582 3.83971 1.15618 0
M  V30 5479 H 504.172 4.28096 -0.207893 0
M  V30 5480 H 508.356 4.86157 -0.998271 0
M  V30 5481 H 503.612 5.74012 -2.10523 0
M  V30 5482 H 507.786 6.33432 -2.89374 0
M  V30 5483 H 505.413 6.77245 -3.45317 0
M  V30 5484 N 506.988 0.0434614 1.5754 0
M  V30 5485 C 507.92 -0.962586 2.08007 0
M  V30 5486 C 508.933 -1.27972 1.00634 0
M  V30 5487 O 510.122 -1.24186 1.28219 0
M  V30 5488 C 507.222 -2.28621 2.50171 0
M  V30 5489 C 506.395 -2.15214 3.80791 0
M  V30 5490 C 505.454 -3.30633 4.09351 0
M  V30 5491 O 504.48 -3.0688 4.79388 0
M  V30 5492 N 505.682 -4.54873 3.60654 0
M  V30 5493 H 508.447 -0.531891 2.94942 0
M  V30 5494 H 506.008 -0.142965 1.61268 0
M  V30 5495 H 508 -3.04689 2.66359 0
M  V30 5496 H 506.57 -2.63283 1.68525 0
M  V30 5497 H 505.79 -1.23785 3.74261 0
M  V30 5498 H 507.078 -2.03475 4.66343 0
M  V30 5499 H 506.476 -4.77063 3.04019 0
M  V30 5500 H 505.033 -5.2806 3.82094 0
M  V30 5501 N 508.466 -1.55915 -0.229846 0
M  V30 5502 C 509.743 -1.6932 -0.979295 0
M  V30 5503 C 510.123 -0.588321 -2.02736 0
M  V30 5504 O 509.471 0.40586 -2.24867 0
M  V30 5505 C 509.681 -3.10305 -1.59724 0
M  V30 5506 C 511.029 -3.6945 -2.09264 0
M  V30 5507 O 512.053 -3.13214 -1.69633 0
M  V30 5508 O 510.912 -4.68072 -2.82082 0
M  V30 5509 H 508.006 -0.689314 -0.456919 0
M  V30 5510 H 510.552 -1.68238 -0.222283 0
M  V30 5511 H 509.324 -3.82177 -0.840039 0
M  V30 5512 H 508.947 -3.1547 -2.42001 0
M  V30 5513 N 509.944 0.496216 -1.49584 0
M  V30 5514 C 511.172 1.27394 -1.63029 0
M  V30 5515 C 511.587 1.86344 -0.303569 0
M  V30 5516 O 510.944 1.68057 0.711547 0
M  V30 5517 C 510.995 2.40077 -2.70269 0
M  V30 5518 O 510.716 1.83549 -3.97796 0
M  V30 5519 C 512.217 3.31372 -2.94462 0
M  V30 5520 H 509.437 0.386211 -0.54871 0
M  V30 5521 H 511.981 0.595163 -1.95648 0
M  V30 5522 H 510.136 3.03775 -2.40415 0
M  V30 5523 H 510.55 2.57561 -4.56905 0
M  V30 5524 H 512.024 4.06707 -3.73221 0
M  V30 5525 H 512.501 3.88654 -2.0456 0
M  V30 5526 H 513.107 2.73435 -3.25751 0
M  V30 5527 N 511.423 1.38739 0.74761 0
M  V30 5528 C 512.373 1.32948 1.85226 0
M  V30 5529 C 513.357 0.212642 1.59489 0
M  V30 5530 O 514.549 0.449121 1.71207 0
M  V30 5531 C 511.678 1.16279 3.23008 0
M  V30 5532 C 510.764 2.32611 3.54617 0
M  V30 5533 N 511.155 3.58065 3.57244 0
M  V30 5534 C 509.453 2.25293 3.84914 0
M  V30 5535 C 510.154 4.34919 3.8629 0
M  V30 5536 N 509.13 3.64348 4.03425 0
M  V30 5537 H 512.932 2.27927 1.85544 0
M  V30 5538 H 510.446 1.32056 0.945253 0
M  V30 5539 H 512.443 1.10214 4.02068 0
M  V30 5540 H 511.103 0.222394 3.23937 0
M  V30 5541 H 512.114 3.91656 3.3886 0
M  V30 5542 H 508.791 1.39446 3.93524 0
M  V30 5543 H 510.181 5.43605 3.94896 0
M  V30 5544 N 512.901 -0.976442 1.23707 0
M  V30 5545 C 513.849 -2.09078 1.01927 0
M  V30 5546 C 514.843 -1.69345 -0.0430193 0
M  V30 5547 O 516.049 -1.79659 0.110814 0
M  V30 5548 H 512.424 -0.68398 0.312531 0
M  V30 5549 H 514.395 -2.24614 1.96447 0
M  V30 5550 C 513.144 -3.41919 0.631385 0
M  V30 5551 H 512.467 -3.72946 1.44053 0
M  V30 5552 H 513.907 -4.20817 0.518532 0
M  V30 5553 C 512.366 -3.30357 -0.660723 0
M  V30 5554 O 512.896 -3.63542 -1.70881 0
M  V30 5555 N 511.102 -2.83507 -0.638139 0
M  V30 5556 H 510.649 -2.567 0.215108 0
M  V30 5557 H 510.607 -2.76153 -1.50289 0
M  V30 5558 N 514.379 -1.04941 -1.1758 0
M  V30 5559 C 515.327 -0.64204 -2.23563 0
M  V30 5560 C 516.321 0.335453 -1.66045 0
M  V30 5561 O 517.527 0.20179 -1.78865 0
M  V30 5562 H 513.902 -0.18944 -0.727748 0
M  V30 5563 H 515.873 -1.54609 -2.55223 0
M  V30 5564 C 514.622 -0.0301051 -3.47687 0
M  V30 5565 H 513.945 -0.773339 -3.92249 0
M  V30 5566 H 515.385 0.217592 -4.23441 0
M  V30 5567 C 513.844 1.2225 -3.13937 0
M  V30 5568 O 514.374 2.3122 -3.28482 0
M  V30 5569 N 512.58 1.11917 -2.68185 0
M  V30 5570 H 512.127 0.232403 -2.5655 0
M  V30 5571 H 512.085 1.95814 -2.45976 0
M  V30 5572 N 515.857 1.33968 -0.830081 0
M  V30 5573 C 516.82 2.27694 -0.26235 0
M  V30 5574 C 517.82 1.50589 0.563876 0
M  V30 5575 O 519.01 1.70028 0.378941 0
M  V30 5576 C 516.142 3.35002 0.63138 0
M  V30 5577 H 517.335 2.79419 -1.08928 0
M  V30 5578 H 514.888 1.44221 -0.602486 0
M  V30 5579 H 515.623 2.88504 1.48109 0
M  V30 5580 H 515.408 3.92079 0.0403276 0
M  V30 5581 H 516.898 4.04897 1.02217 0
M  V30 5582 N 517.335 0.585699 1.46312 0
M  V30 5583 C 518.285 -0.166813 2.27389 0
M  V30 5584 C 519.269 -0.859076 1.36047 0
M  V30 5585 O 520.461 -0.752678 1.60199 0
M  V30 5586 C 517.59 -1.17791 3.2246 0
M  V30 5587 C 516.676 -0.487605 4.21288 0
M  V30 5588 N 517.067 0.45849 5.03718 0
M  V30 5589 C 515.365 -0.737971 4.39852 0
M  V30 5590 C 516.066 0.862213 5.75275 0
M  V30 5591 N 515.042 0.210707 5.43191 0
M  V30 5592 H 518.844 0.560167 2.88512 0
M  V30 5593 H 516.358 0.407715 1.57199 0
M  V30 5594 H 518.355 -1.73122 3.79255 0
M  V30 5595 H 517.015 -1.90568 2.62896 0
M  V30 5596 H 518.026 0.834163 5.11138 0
M  V30 5597 H 514.703 -1.45209 3.91434 0
M  V30 5598 H 516.093 1.64128 6.51546 0
M  V30 5599 N 518.813 -1.54241 0.323641 0
M  V30 5600 C 520.043 -2.04687 -0.280464 0
M  V30 5601 C 520.451 -1.19939 -1.46326 0
M  V30 5602 O 519.794 -0.222872 -1.82343 0
M  V30 5603 C 519.856 -3.50978 -0.778123 0
M  V30 5604 C 519.52 -4.56127 0.282371 0
M  V30 5605 C 520.517 -5.07726 1.11847 0
M  V30 5606 C 518.202 -5.00451 0.430582 0
M  V30 5607 C 520.196 -6.02212 2.08851 0
M  V30 5608 C 517.883 -5.94752 1.40404 0
M  V30 5609 C 518.881 -6.45519 2.23147 0
M  V30 5610 O 518.569 -7.37968 3.1884 0
M  V30 5611 H 518.301 -0.673192 -0.0615473 0
M  V30 5612 H 520.855 -1.99999 0.467921 0
M  V30 5613 H 519.085 -3.53064 -1.57742 0
M  V30 5614 H 520.774 -3.84499 -1.30058 0
M  V30 5615 H 521.54 -4.74261 1.01496 0
M  V30 5616 H 517.419 -4.6055 -0.203569 0
M  V30 5617 H 520.963 -6.41761 2.73474 0
M  V30 5618 H 516.86 -6.27633 1.5082 0
M  V30 5619 H 517.628 -7.55841 3.14079 0
M  V30 5620 N 520.291 -0.0518155 -1.57515 0
M  V30 5621 C 521.521 0.63048 -1.96745 0
M  V30 5622 C 521.929 1.64875 -0.928054 0
M  V30 5623 O 521.272 1.83449 0.0960678 0
M  V30 5624 C 521.334 1.37381 -3.32215 0
M  V30 5625 C 520.998 0.511298 -4.54131 0
M  V30 5626 C 521.995 -0.222884 -5.19422 0
M  V30 5627 C 519.68 0.442035 -5.00351 0
M  V30 5628 C 521.674 -1.01476 -6.2927 0
M  V30 5629 C 519.361 -0.35353 -6.10077 0
M  V30 5630 C 520.359 -1.08062 -6.74397 0
M  V30 5631 O 520.047 -1.8631 -7.82013 0
M  V30 5632 H 519.779 0.177126 -0.652382 0
M  V30 5633 H 522.333 -0.114726 -2.05079 0
M  V30 5634 H 520.563 2.16466 -3.20436 0
M  V30 5635 H 522.252 1.9464 -3.56188 0
M  V30 5636 H 523.018 -0.178846 -4.8467 0
M  V30 5637 H 518.897 0.997562 -4.50077 0
M  V30 5638 H 522.441 -1.58279 -6.79407 0
M  V30 5639 H 518.338 -0.399205 -6.44264 0
M  V30 5640 H 519.106 -1.78528 -7.98793 0
M  V30 5641 N 521.769 1.56035 0.221574 0
M  V30 5642 C 523.015 1.79312 0.947372 0
M  V30 5643 C 523.348 0.621453 1.83988 0
M  V30 5644 O 522.623 -0.379287 1.90766 0
M  V30 5645 C 522.906 3.1267 1.78633 0
M  V30 5646 C 522.759 4.40284 0.920312 0
M  V30 5647 C 524.078 3.4247 2.7641 0
M  V30 5648 H 521.197 0.652328 0.342982 0
M  V30 5649 H 523.839 1.88765 0.216244 0
M  V30 5650 H 521.989 3.04741 2.40967 0
M  V30 5651 H 523.661 4.60232 0.313718 0
M  V30 5652 H 521.904 4.33212 0.225734 0
M  V30 5653 H 522.575 5.30033 1.54171 0
M  V30 5654 H 525.051 3.50526 2.24211 0
M  V30 5655 H 523.927 4.3695 3.32213 0
M  V30 5656 H 524.188 2.64635 3.54148 0
M  V30 5657 N 523.247 -0.488276 1.49845 0
M  V30 5658 C 524.494 -1.24157 1.59973 0
M  V30 5659 C 524.822 -1.92293 0.292182 0
M  V30 5660 O 524.077 -1.81942 -0.720813 0
M  V30 5661 C 524.376 -2.32152 2.71735 0
M  V30 5662 C 524.042 -1.81387 4.12807 0
M  V30 5663 C 522.704 -1.67262 4.51195 0
M  V30 5664 C 525.056 -1.43537 5.01045 0
M  V30 5665 C 522.384 -1.13685 5.7558 0
M  V30 5666 C 524.736 -0.914081 6.25961 0
M  V30 5667 C 523.4 -0.759327 6.63167 0
M  V30 5668 H 522.67 -0.454322 0.585383 0
M  V30 5669 H 525.317 -0.540261 1.83721 0
M  V30 5670 H 523.622 -3.08122 2.42008 0
M  V30 5671 H 525.319 -2.90164 2.76778 0
M  V30 5672 H 521.909 -1.93344 3.82513 0
M  V30 5673 H 526.093 -1.53292 4.72033 0
M  V30 5674 H 521.349 -1.00426 6.03096 0
M  V30 5675 H 525.523 -0.612066 6.93705 0
M  V30 5676 H 523.15 -0.342002 7.5943 0
M  V30 5677 N 524.725 -1.39134 -0.740242 0
M  V30 5678 C 525.972 -1.36071 -1.49969 0
M  V30 5679 C 526.3 0.0450245 -1.94448 0
M  V30 5680 O 525.555 1.02482 -1.66721 0
M  V30 5681 C 525.854 -2.27457 -2.75678 0
M  V30 5682 C 525.52 -3.75185 -2.50094 0
M  V30 5683 C 524.182 -4.15439 -2.42825 0
M  V30 5684 C 526.534 -4.68643 -2.28086 0
M  V30 5685 C 523.862 -5.4722 -2.11584 0
M  V30 5686 C 526.214 -6.00695 -1.98363 0
M  V30 5687 C 524.878 -6.40018 -1.8956 0
M  V30 5688 H 524.148 -0.497921 -0.548777 0
M  V30 5689 H 526.795 -1.71599 -0.85007 0
M  V30 5690 H 525.1 -1.8503 -3.45356 0
M  V30 5691 H 526.797 -2.22384 -3.33686 0
M  V30 5692 H 523.387 -3.43279 -2.56627 0
M  V30 5693 H 527.571 -4.3838 -2.32672 0
M  V30 5694 H 522.827 -5.76615 -2.03287 0
M  V30 5695 H 527.001 -6.72644 -1.80341 0
M  V30 5696 H 524.628 -7.42051 -1.65117 0
M  V30 5697 N 526.204 0.969867 -1.24223 0
M  V30 5698 C 527.114 2.09806 -1.0497 0
M  V30 5699 C 528.13 1.73998 0.00886455 0
M  V30 5700 O 529.306 2.00513 -0.188848 0
M  V30 5701 C 526.371 3.40467 -0.654452 0
M  V30 5702 C 525.432 3.90236 -1.78926 0
M  V30 5703 C 524.665 5.14662 -1.41277 0
M  V30 5704 O 524.888 5.69602 -0.301632 0
M  V30 5705 O 523.822 5.58761 -2.23763 0
M  V30 5706 H 527.648 2.28942 -1.99548 0
M  V30 5707 H 525.233 1.08197 -1.03023 0
M  V30 5708 H 527.115 4.19039 -0.445452 0
M  V30 5709 H 525.79 3.22636 0.262216 0
M  V30 5710 H 524.697 3.12735 -2.05299 0
M  V30 5711 H 526.03 4.1254 -2.68462 0
M  V30 5712 N 527.682 1.05563 1.17022 0
M  V30 5713 C 528.592 0.670758 2.24807 0
M  V30 5714 C 529.608 -0.309865 1.71219 0
M  V30 5715 O 530.784 -0.161025 2.00755 0
M  V30 5716 C 527.849 0.055337 3.46656 0
M  V30 5717 C 526.91 1.08688 4.15314 0
M  V30 5718 C 526.143 0.500736 5.31346 0
M  V30 5719 O 526.366 -0.688718 5.66227 0
M  V30 5720 O 525.3 1.23683 5.89055 0
M  V30 5721 H 529.126 1.56914 2.60023 0
M  V30 5722 H 526.711 0.827428 1.24395 0
M  V30 5723 H 528.593 -0.286492 4.20425 0
M  V30 5724 H 527.268 -0.816638 3.13229 0
M  V30 5725 H 526.175 1.48077 3.43546 0
M  V30 5726 H 527.508 1.93014 4.52777 0
M  V30 5727 N 529.16 -1.33526 0.837174 0
M  V30 5728 C 530.092 -2.28077 0.226579 0
M  V30 5729 C 531.105 -1.51666 -0.591717 0
M  V30 5730 O 532.294 -1.73511 -0.419064 0
M  V30 5731 C 529.394 -3.31597 -0.69978 0
M  V30 5732 C 528.567 -4.37329 0.0788067 0
M  V30 5733 C 527.626 -5.20526 -0.770637 0
M  V30 5734 O 526.652 -5.68811 -0.210453 0
M  V30 5735 N 527.854 -5.41639 -2.08825 0
M  V30 5736 H 530.619 -2.81115 1.03897 0
M  V30 5737 H 528.18 -1.46201 0.695476 0
M  V30 5738 H 530.172 -3.84158 -1.27298 0
M  V30 5739 H 528.742 -2.78848 -1.41288 0
M  V30 5740 H 527.962 -3.8529 0.833381 0
M  V30 5741 H 529.25 -5.05079 0.614238 0
M  V30 5742 H 528.648 -5.04108 -2.56693 0
M  V30 5743 H 527.205 -5.97263 -2.60998 0
M  V30 5744 N 530.638 -0.59345 -1.46 0
M  V30 5745 C 531.548 0.135817 -2.34207 0
M  V30 5746 C 532.564 0.875008 -1.50398 0
M  V30 5747 O 533.74 0.835778 -1.83239 0
M  V30 5748 C 530.805 1.12977 -3.27776 0
M  V30 5749 C 529.866 0.394081 -4.27487 0
M  V30 5750 C 529.099 1.34068 -5.16586 0
M  V30 5751 O 529.322 2.5778 -5.08828 0
M  V30 5752 O 528.256 0.845426 -5.95933 0
M  V30 5753 H 532.082 -0.588691 -2.9794 0
M  V30 5754 H 529.667 -0.353784 -1.45151 0
M  V30 5755 H 531.549 1.70261 -3.85473 0
M  V30 5756 H 530.224 1.83556 -2.66625 0
M  V30 5757 H 529.131 -0.220869 -3.73447 0
M  V30 5758 H 530.464 -0.270939 -4.91454 0
M  V30 5759 N 532.116 1.54067 -0.331816 0
M  V30 5760 C 533.393 1.92915 0.322955 0
M  V30 5761 C 533.773 1.26225 1.69205 0
M  V30 5762 O 533.121 0.408919 2.24811 0
M  V30 5763 C 533.331 3.46619 0.406946 0
M  V30 5764 C 534.679 4.19386 0.663339 0
M  V30 5765 O 535.703 3.5282 0.489536 0
M  V30 5766 O 534.562 5.37288 0.999193 0
M  V30 5767 H 531.656 0.805808 0.186016 0
M  V30 5768 H 534.202 1.65342 -0.382135 0
M  V30 5769 H 532.974 3.87354 -0.554287 0
M  V30 5770 H 532.597 3.80324 1.15929 0
M  V30 5771 N 533.594 0.0601682 1.57485 0
M  V30 5772 C 534.504 -0.926121 2.15546 0
M  V30 5773 C 535.52 -1.33532 1.11558 0
M  V30 5774 O 536.696 -1.4104 1.4377 0
M  V30 5775 C 533.761 -2.17952 2.69625 0
M  V30 5776 C 532.822 -1.82783 3.88444 0
M  V30 5777 C 532.055 -3.02148 4.39935 0
M  V30 5778 O 532.278 -4.15803 3.90466 0
M  V30 5779 O 531.212 -2.82639 5.31412 0
M  V30 5780 H 535.038 -0.462289 3.00161 0
M  V30 5781 H 532.623 -0.162246 1.48516 0
M  V30 5782 H 534.505 -2.91474 3.04337 0
M  V30 5783 H 533.18 -2.63456 1.88077 0
M  V30 5784 H 532.087 -1.06549 3.58606 0
M  V30 5785 H 533.42 -1.42072 4.7125 0
M  V30 5786 N 535.072 -1.5615 -0.213296 0
M  V30 5787 C 536.321 -1.78743 -0.93455 0
M  V30 5788 C 536.634 -0.630199 -1.8517 0
M  V30 5789 O 537.84 -0.739966 -2.61222 0
M  V30 5790 C 536.296 -3.16571 -1.71203 0
M  V30 5791 C 535.904 -4.40043 -0.840617 0
M  V30 5792 C 537.648 -3.48485 -2.42401 0
M  V30 5793 C 535.555 -5.68895 -1.61592 0
M  V30 5794 H 534.485 -0.666426 -0.352692 0
M  V30 5795 H 537.136 -1.82532 -0.188227 0
M  V30 5796 H 535.518 -3.06981 -2.50157 0
M  V30 5797 H 536.692 -4.6071 -0.0910326 0
M  V30 5798 H 535.007 -4.15706 -0.240365 0
M  V30 5799 H 537.604 -4.41983 -3.00924 0
M  V30 5800 H 537.947 -2.71371 -3.15695 0
M  V30 5801 H 538.48 -3.59442 -1.7043 0
M  V30 5802 H 535.219 -6.48925 -0.926106 0
M  V30 5803 H 534.739 -5.52275 -2.33991 0
M  V30 5804 H 536.418 -6.09365 -2.17447 0
M  V30 5805 N 536.55 0.480323 -1.50102 0
M  V30 5806 C 537.799 1.22979 -1.59872 0
M  V30 5807 C 538.112 1.93282 -0.30022 0
M  V30 5808 O 539.318 2.70086 -0.276709 0
M  V30 5809 C 537.774 2.23408 -2.82164 0
M  V30 5810 C 537.382 1.5895 -4.18854 0
M  V30 5811 C 539.126 2.99055 -3.01275 0
M  V30 5812 C 537.033 2.57611 -5.32344 0
M  V30 5813 H 535.963 0.462707 -0.59533 0
M  V30 5814 H 538.614 0.501291 -1.7652 0
M  V30 5815 H 536.996 2.99511 -2.59055 0
M  V30 5816 H 538.17 0.887 -4.52182 0
M  V30 5817 H 536.485 0.956191 -4.05273 0
M  V30 5818 H 539.082 3.72876 -3.83233 0
M  V30 5819 H 539.425 3.57897 -2.12639 0
M  V30 5820 H 539.958 2.30066 -3.24522 0
M  V30 5821 H 536.697 2.03521 -6.23105 0
M  V30 5822 H 536.217 3.26041 -5.03445 0
M  V30 5823 H 537.896 3.19627 -5.62537 0
M  V30 5824 N 538.028 1.39524 0.732853 0
M  V30 5825 C 539.276 1.36594 1.48951 0
M  V30 5826 C 539.597 -0.0367507 1.94965 0
M  V30 5827 O 538.867 -0.988391 1.69138 0
M  V30 5828 H 537.447 0.502673 0.552566 0
M  V30 5829 H 540.109 1.74411 0.869869 0
M  V30 5830 H 539.205 2.03 2.3706 0
M  V30 5831 N 539.506 -0.963266 1.24736 0
M  V30 5832 C 540.753 -1.7068 1.0897 0
M  V30 5833 C 541.081 -1.90934 -0.370751 0
M  V30 5834 O 540.336 -1.47155 -1.29011 0
M  V30 5835 C 540.635 -3.09944 1.7796 0
M  V30 5836 C 540.301 -3.09518 3.27887 0
M  V30 5837 C 538.963 -3.09109 3.68789 0
M  V30 5838 C 541.315 -3.03509 4.23712 0
M  V30 5839 C 538.643 -3.00429 5.03944 0
M  V30 5840 C 540.995 -2.96371 5.5888 0
M  V30 5841 C 539.659 -2.94293 5.99123 0
M  V30 5842 H 538.929 -0.624564 0.398749 0
M  V30 5843 H 541.576 -1.12603 1.54896 0
M  V30 5844 H 539.881 -3.71513 1.2444 0
M  V30 5845 H 541.578 -3.66278 1.63222 0
M  V30 5846 H 538.168 -3.10603 2.95337 0
M  V30 5847 H 542.352 -3.0295 3.93109 0
M  V30 5848 H 537.608 -2.97183 5.34314 0
M  V30 5849 H 541.782 -2.90681 6.32833 0
M  V30 5850 H 539.409 -2.87322 7.03811 0
M  V30 5851 N 540.985 -1.06182 -1.16461 0
M  V30 5852 C 542.233 -0.776326 -1.86595 0
M  V30 5853 C 542.554 0.69921 -1.82033 0
M  V30 5854 O 541.824 1.50579 -1.2531 0
M  V30 5855 H 540.404 -0.284184 -0.690832 0
M  V30 5856 H 543.066 -1.34308 -1.41235 0
M  V30 5857 H 542.162 -1.10022 -2.92064 0
M  V30 5858 N 542.463 1.3308 -0.844243 0
M  V30 5859 C 543.395 2.27954 -0.238671 0
M  V30 5860 C 544.408 1.51978 0.583665 0
M  V30 5861 O 545.597 1.73731 0.409857 0
M  V30 5862 C 542.697 3.31963 0.682185 0
M  V30 5863 C 541.87 4.37281 -0.101998 0
M  V30 5864 C 540.929 5.20928 0.743022 0
M  V30 5865 O 539.955 5.68914 0.180285 0
M  V30 5866 N 541.157 5.42738 2.0595 0
M  V30 5867 H 543.922 2.8056 -1.05386 0
M  V30 5868 H 541.483 1.4583 -0.70322 0
M  V30 5869 H 543.475 3.84828 1.25259 0
M  V30 5870 H 542.045 2.79594 1.39808 0
M  V30 5871 H 541.265 3.84843 -0.853802 0
M  V30 5872 H 542.553 5.04746 -0.641015 0
M  V30 5873 H 541.951 5.05463 2.54016 0
M  V30 5874 H 540.508 5.98639 2.57827 0
M  V30 5875 N 543.941 0.601185 1.45683 0
M  V30 5876 C 544.851 -0.123395 2.34275 0
M  V30 5877 C 545.867 -0.86702 1.5086 0
M  V30 5878 O 547.043 -0.826049 1.8368 0
M  V30 5879 C 544.108 -1.11237 3.2837 0
M  V30 5880 C 543.169 -0.371405 4.2769 0
M  V30 5881 C 542.402 -1.31327 5.1729 0
M  V30 5882 O 542.625 -2.55078 5.10188 0
M  V30 5883 O 541.559 -0.813811 5.96373 0
M  V30 5884 H 545.385 0.604483 2.97623 0
M  V30 5885 H 542.97 0.361477 1.44961 0
M  V30 5886 H 544.852 -1.68214 3.8637 0
M  V30 5887 H 543.527 -1.82139 2.67595 0
M  V30 5888 H 542.434 0.24067 3.73325 0
M  V30 5889 H 543.767 0.296998 4.91303 0
M  V30 5890 N 545.419 -1.53889 0.339982 0
M  V30 5891 C 546.349 -2.27843 -0.510856 0
M  V30 5892 C 547.33 -1.29267 -1.10563 0
M  V30 5893 O 548.515 -1.58104 -1.12768 0
M  V30 5894 C 545.645 -3.04857 -1.66372 0
M  V30 5895 C 544.599 -4.10907 -1.19746 0
M  V30 5896 C 543.925 -4.75855 -2.43857 0
M  V30 5897 C 545.225 -5.21435 -0.300501 0
M  V30 5898 H 546.919 -2.99212 0.106067 0
M  V30 5899 H 544.465 -1.43904 0.0524533 0
M  V30 5900 H 546.418 -3.5533 -2.26537 0
M  V30 5901 H 545.142 -2.31133 -2.30749 0
M  V30 5902 H 543.801 -3.61342 -0.618654 0
M  V30 5903 H 543.449 -3.9873 -3.06633 0
M  V30 5904 H 543.149 -5.47502 -2.13343 0
M  V30 5905 H 544.673 -5.2911 -3.04754 0
M  V30 5906 H 546.087 -5.67565 -0.80889 0
M  V30 5907 H 544.484 -6.00036 -0.0874076 0
M  V30 5908 H 545.554 -4.80328 0.664321 0
M  V30 5909 N 546.897 -0.0685191 -1.57451 0
M  V30 5910 C 547.844 0.899861 -2.12535 0
M  V30 5911 C 548.814 1.29749 -1.03703 0
M  V30 5912 O 549.999 1.38392 -1.31348 0
M  V30 5913 C 547.139 2.16328 -2.6888 0
M  V30 5914 C 546.252 1.81857 -3.91857 0
M  V30 5915 C 545.387 3.02786 -4.36457 0
M  V30 5916 C 544.426 2.64317 -5.5209 0
M  V30 5917 N 543.563 3.77994 -5.91663 0
M  V30 5918 H 548.403 0.423243 -2.94979 0
M  V30 5919 H 545.94 0.197268 -1.45771 0
M  V30 5920 H 547.898 2.90281 -2.99655 0
M  V30 5921 H 546.528 2.61536 -1.89206 0
M  V30 5922 H 545.58 0.979808 -3.67565 0
M  V30 5923 H 546.892 1.49553 -4.75852 0
M  V30 5924 H 546.046 3.85021 -4.68875 0
M  V30 5925 H 544.785 3.38281 -3.51308 0
M  V30 5926 H 543.79 1.80503 -5.19325 0
M  V30 5927 H 545.015 2.29995 -6.38967 0
M  V30 5928 H 542.961 4.13258 -5.09464 0
M  V30 5929 H 542.878 3.49447 -6.7039 0
M  V30 5930 H 544.146 4.60818 -6.28703 0
M  V30 5931 N 548.375 1.56261 0.205012 0
M  V30 5932 C 549.323 1.94631 1.27364 0
M  V30 5933 C 550.317 0.830434 1.47649 0
M  V30 5934 O 551.523 1.01538 1.48627 0
M  V30 5935 H 547.898 0.618755 0.427371 0
M  V30 5936 H 549.869 2.83768 0.922941 0
M  V30 5937 C 548.618 2.29358 2.61324 0
M  V30 5938 H 547.941 3.14744 2.46528 0
M  V30 5939 H 549.381 2.60076 3.34868 0
M  V30 5940 C 547.84 1.12461 3.17575 0
M  V30 5941 O 548.37 0.394407 3.99759 0
M  V30 5942 N 546.576 0.904036 2.7618 0
M  V30 5943 H 546.123 1.49956 2.09454 0
M  V30 5944 H 546.081 0.123662 3.14157 0
M  V30 5945 N 549.853 -0.472356 1.50355 0
M  V30 5946 C 551.264 -1.05326 1.54154 0
M  V30 5947 C 551.615 -1.93155 0.344303 0
M  V30 5948 O 550.74 -2.09479 -0.542928 0
M  V30 5949 C 551.335 -1.91691 2.79356 0
M  V30 5950 C 549.894 -2.44892 2.8584 0
M  V30 5951 C 549.041 -1.23205 2.48426 0
M  V30 5952 H 551.992 -0.255027 1.56637 0
M  V30 5953 H 552.013 -2.76742 2.6114 0
M  V30 5954 H 551.525 -1.27741 3.66475 0
M  V30 5955 H 549.626 -3.12399 2.0307 0
M  V30 5956 H 549.739 -2.80086 3.88701 0
M  V30 5957 H 548.103 -1.56643 2.00836 0
M  V30 5958 H 548.886 -0.609194 3.37852 0
M  V30 5959 N 551.331 -1.39911 -0.725443 0
M  V30 5960 C 552.263 -1.35301 -1.85003 0
M  V30 5961 C 553.276 -0.260102 -1.60709 0
M  V30 5962 O 554.465 -0.519749 -1.70766 0
M  V30 5963 C 551.565 -1.08039 -3.21218 0
M  V30 5964 C 550.738 -2.28793 -3.7279 0
M  V30 5965 C 549.797 -1.97841 -4.87591 0
M  V30 5966 O 548.823 -2.70616 -5.00755 0
M  V30 5967 N 550.025 -0.950367 -5.72668 0
M  V30 5968 H 552.79 -2.32218 -1.89459 0
M  V30 5969 H 550.351 -1.34137 -0.90658 0
M  V30 5970 H 552.343 -0.853354 -3.95601 0
M  V30 5971 H 550.913 -0.198229 -3.11971 0
M  V30 5972 H 550.133 -2.67388 -2.8965 0
M  V30 5973 H 551.421 -3.09317 -4.03981 0
M  V30 5974 H 550.819 -0.347436 -5.64632 0
M  V30 5975 H 549.376 -0.783232 -6.47077 0
M  V30 5976 N 552.809 0.956637 -1.25245 0
M  V30 5977 C 553.719 2.0868 -1.0719 0
M  V30 5978 C 554.735 1.73997 -0.00959074 0
M  V30 5979 O 555.911 2.00301 -0.210104 0
M  V30 5980 C 552.976 3.39754 -0.690526 0
M  V30 5981 C 552.037 3.88316 -1.83055 0
M  V30 5982 C 551.27 5.13134 -1.46728 0
M  V30 5983 O 551.493 5.6925 -0.362029 0
M  V30 5984 O 550.427 5.56356 -2.29677 0
M  V30 5985 H 554.253 2.26813 -2.01965 0
M  V30 5986 H 551.838 1.07098 -1.04165 0
M  V30 5987 H 553.72 4.18543 -0.489871 0
M  V30 5988 H 552.395 3.22896 0.227981 0
M  V30 5989 H 551.302 3.1054 -2.08604 0
M  V30 5990 H 552.635 4.09669 -2.72822 0
M  V30 5991 N 554.287 1.06798 1.15896 0
M  V30 5992 C 555.197 0.694564 2.24083 0
M  V30 5993 C 556.213 -0.291687 1.71538 0
M  V30 5994 O 557.389 -0.139723 2.00915 0
M  V30 5995 C 554.454 0.0921014 3.46578 0
M  V30 5996 C 553.515 1.13087 4.14137 0
M  V30 5997 C 552.748 0.557064 5.30785 0
M  V30 5998 O 552.971 -0.628623 5.66925 0
M  V30 5999 O 551.905 1.29924 5.8771 0
M  V30 6000 H 555.731 1.59663 2.58344 0
M  V30 6001 H 553.316 0.840575 1.2351 0
M  V30 6002 H 555.198 -0.241884 4.20705 0
M  V30 6003 H 553.873 -0.78337 3.14078 0
M  V30 6004 H 552.78 1.51712 3.41957 0
M  V30 6005 H 554.113 1.97805 4.50704 0
M  V30 6006 N 555.766 -1.3263 0.851289 0
M  V30 6007 C 556.994 -2.01563 0.466899 0
M  V30 6008 C 557.409 -1.63996 -0.935447 0
M  V30 6009 O 556.766 -0.85957 -1.6099 0
M  V30 6010 C 556.817 -3.56613 0.592433 0
M  V30 6011 O 556.538 -3.92828 1.93954 0
M  V30 6012 C 558.039 -4.42818 0.206612 0
M  V30 6013 H 555.259 -0.645307 0.183902 0
M  V30 6014 H 557.803 -1.69285 1.1473 0
M  V30 6015 H 555.958 -3.87379 -0.0401936 0
M  V30 6016 H 556.372 -4.87545 1.9339 0
M  V30 6017 H 557.846 -5.50918 0.345462 0
M  V30 6018 H 558.323 -4.30844 -0.85264 0
M  V30 6019 H 558.929 -4.17434 0.814176 0
M  V30 6020 N 557.244 -0.608902 -1.45362 0
M  V30 6021 C 558.174 0.0964526 -2.33301 0
M  V30 6022 C 559.155 0.857444 -1.46908 0
M  V30 6023 O 560.34 0.827735 -1.75676 0
M  V30 6024 C 557.47 1.09354 -3.29635 0
M  V30 6025 C 556.424 0.445676 -4.25673 0
M  V30 6026 C 555.75 1.5511 -5.11708 0
M  V30 6027 C 557.05 -0.633972 -5.18438 0
M  V30 6028 H 558.744 -0.637829 -2.92527 0
M  V30 6029 H 556.29 -0.308178 -1.40664 0
M  V30 6030 H 558.243 1.59556 -3.90025 0
M  V30 6031 H 556.967 1.85843 -2.6857 0
M  V30 6032 H 555.626 -0.0354897 -3.66583 0
M  V30 6033 H 555.274 2.30631 -4.4701 0
M  V30 6034 H 554.974 1.12311 -5.76767 0
M  V30 6035 H 556.498 2.05537 -5.74967 0
M  V30 6036 H 557.912 -0.215974 -5.72893 0
M  V30 6037 H 556.309 -0.983789 -5.91981 0
M  V30 6038 H 557.379 -1.51005 -4.60788 0
M  V30 6039 N 558.722 1.53707 -0.348139 0
M  V30 6040 C 559.654 2.22725 0.540946 0
M  V30 6041 C 560.667 1.2354 1.06027 0
M  V30 6042 O 561.856 1.49867 0.96964 0
M  V30 6043 C 558.956 2.89756 1.75768 0
M  V30 6044 C 558.129 4.15297 1.37285 0
M  V30 6045 C 557.188 4.65697 2.44976 0
M  V30 6046 O 556.214 5.29798 2.08092 0
M  V30 6047 N 557.416 4.42017 3.763 0
M  V30 6048 H 560.181 2.99658 -0.0501592 0
M  V30 6049 H 557.742 1.60979 -0.17248 0
M  V30 6050 H 559.734 3.20388 2.47252 0
M  V30 6051 H 558.304 2.16382 2.25605 0
M  V30 6052 H 557.524 3.9116 0.488584 0
M  V30 6053 H 558.812 4.96948 1.09179 0
M  V30 6054 H 558.21 3.9076 4.09051 0
M  V30 6055 H 556.767 4.77242 4.4394 0
M  V30 6056 N 560.2 0.0768682 1.57412 0
M  V30 6057 C 561.163 -0.873949 2.11884 0
M  V30 6058 C 562.163 -1.22301 1.04398 0
M  V30 6059 O 563.353 -1.15545 1.30365 0
M  V30 6060 C 560.485 -2.17575 2.62438 0
M  V30 6061 H 561.678 -0.401278 2.97203 0
M  V30 6062 H 559.231 -0.171904 1.55352 0
M  V30 6063 H 559.966 -2.69368 1.80587 0
M  V30 6064 H 559.751 -1.93534 3.41009 0
M  V30 6065 H 561.241 -2.85631 3.04639 0
M  V30 6066 N 561.678 -1.56367 -0.196722 0
M  V30 6067 C 562.925 -1.80529 -0.917366 0
M  V30 6068 C 563.253 -0.649817 -1.83324 0
M  V30 6069 O 562.508 0.36451 -1.92275 0
M  V30 6070 C 562.807 -3.10663 -1.767 0
M  V30 6071 C 562.473 -4.3962 -1.00225 0
M  V30 6072 C 561.135 -4.74653 -0.791095 0
M  V30 6073 C 563.487 -5.1913 -0.464035 0
M  V30 6074 C 560.815 -5.86692 -0.0302155 0
M  V30 6075 C 563.167 -6.31964 0.283625 0
M  V30 6076 C 561.831 -6.65581 0.505813 0
M  V30 6077 H 561.101 -0.660602 -0.335688 0
M  V30 6078 H 563.748 -1.90615 -0.183844 0
M  V30 6079 H 562.053 -2.95807 -2.56915 0
M  V30 6080 H 563.75 -3.26563 -2.32718 0
M  V30 6081 H 560.34 -4.12127 -1.17684 0
M  V30 6082 H 564.524 -4.9248 -0.614575 0
M  V30 6083 H 559.78 -6.11211 0.151917 0
M  V30 6084 H 563.954 -6.92791 0.708057 0
M  V30 6085 H 561.581 -7.52239 1.0973 0
M  V30 6086 N 563.156 0.464375 -1.50603 0
M  V30 6087 C 564.433 1.22549 -1.5245 0
M  V30 6088 C 564.813 2.09327 -0.273035 0
M  V30 6089 O 564.161 2.16074 0.743242 0
M  V30 6090 C 564.371 2.05074 -2.82393 0
M  V30 6091 C 565.719 2.63036 -3.33313 0
M  V30 6092 O 566.743 2.1531 -2.8376 0
M  V30 6093 O 565.602 3.5001 -4.19709 0
M  V30 6094 H 562.696 0.556471 -0.611775 0
M  V30 6095 H 565.242 0.475648 -1.62898 0
M  V30 6096 H 564.014 1.41169 -3.64948 0
M  V30 6097 H 563.637 2.87179 -2.7498 0
M  V30 6098 N 564.634 1.40294 0.718013 0
M  V30 6099 C 565.859 1.41941 1.5122 0
M  V30 6100 C 566.284 0.0202371 1.88089 0
M  V30 6101 O 565.642 -0.971078 1.53101 0
M  V30 6102 C 565.69 2.3141 2.76554 0
M  V30 6103 O 564.794 1.75567 3.73162 0
M  V30 6104 H 564.135 0.482644 0.456016 0
M  V30 6105 H 566.665 1.84494 0.884478 0
M  V30 6106 H 566.675 2.46513 3.25108 0
M  V30 6107 H 565.35 3.33085 2.49053 0
M  V30 6108 H 563.927 1.69798 3.31999 0
M  V30 6109 N 566.112 -0.949982 1.2575 0
M  V30 6110 C 567.062 -2.03297 1.03221 0
M  V30 6111 C 568.046 -1.60867 -0.0324751 0
M  V30 6112 O 569.238 -1.76047 0.183423 0
M  V30 6113 C 566.367 -3.36938 0.657841 0
M  V30 6114 C 565.453 -3.85878 1.75952 0
M  V30 6115 N 565.844 -4.0756 2.99547 0
M  V30 6116 C 564.142 -4.14709 1.64111 0
M  V30 6117 C 564.843 -4.47961 3.71087 0
M  V30 6118 N 563.819 -4.5416 2.98731 0
M  V30 6119 H 567.621 -2.1806 1.97045 0
M  V30 6120 H 565.135 -1.13516 1.16138 0
M  V30 6121 H 567.132 -4.14155 0.477614 0
M  V30 6122 H 565.792 -3.2355 -0.273025 0
M  V30 6123 H 566.803 -3.94501 3.35544 0
M  V30 6124 H 563.48 -4.10158 0.779527 0
M  V30 6125 H 564.87 -4.73002 4.77199 0
M  V30 6126 N 567.59 -1.07411 -1.15328 0
M  V30 6127 C 568.82 -0.817595 -1.89734 0
M  V30 6128 C 569.228 0.63297 -1.78298 0
M  V30 6129 O 568.571 1.44594 -1.13306 0
M  V30 6130 C 568.633 -1.14748 -3.40695 0
M  V30 6131 C 568.297 -2.59876 -3.75917 0
M  V30 6132 C 569.294 -3.58122 -3.76888 0
M  V30 6133 C 566.979 -2.95469 -4.06206 0
M  V30 6134 C 568.973 -4.89996 -4.07655 0
M  V30 6135 C 566.66 -4.2754 -4.36638 0
M  V30 6136 C 567.658 -5.24614 -4.37344 0
M  V30 6137 O 567.346 -6.54312 -4.67045 0
M  V30 6138 H 567.078 -0.295175 -0.608151 0
M  V30 6139 H 569.632 -1.43409 -1.47048 0
M  V30 6140 H 567.862 -0.47395 -3.83785 0
M  V30 6141 H 569.551 -0.873397 -3.96392 0
M  V30 6142 H 570.317 -3.31966 -3.53587 0
M  V30 6143 H 566.196 -2.20558 -4.04815 0
M  V30 6144 H 569.74 -5.65759 -4.08121 0
M  V30 6145 H 565.637 -4.53449 -4.59407 0
M  V30 6146 H 566.405 -6.59473 -4.84807 0
M  V30 6147 N 569.068 1.32177 -0.85831 0
M  V30 6148 C 570.345 1.91781 -0.384624 0
M  V30 6149 C 570.725 1.78171 1.13217 0
M  V30 6150 O 570.073 1.18209 1.95548 0
M  V30 6151 C 570.283 3.38414 -0.853047 0
M  V30 6152 C 571.631 4.15542 -0.872359 0
M  V30 6153 O 572.655 3.47148 -0.797926 0
M  V30 6154 O 571.514 5.37678 -0.978009 0
M  V30 6155 H 568.608 0.819259 -0.112886 0
M  V30 6156 H 571.154 1.40923 -0.945453 0
M  V30 6157 H 569.926 3.4228 -1.89632 0
M  V30 6158 H 569.549 3.96683 -0.269874 0
M  V30 6159 N 570.547 0.616602 1.45037 0
M  V30 6160 C 571.777 0.121791 2.06241 0
M  V30 6161 C 572.185 -1.20289 1.46038 0
M  V30 6162 O 571.528 -1.7456 0.572242 0
M  V30 6163 C 571.59 -0.0827345 3.59405 0
M  V30 6164 C 571.254 1.16153 4.41993 0
M  V30 6165 C 572.251 2.08183 4.76399 0
M  V30 6166 C 569.936 1.39288 4.82601 0
M  V30 6167 C 571.93 3.21668 5.5028 0
M  V30 6168 C 569.617 2.53073 5.56235 0
M  V30 6169 C 570.615 3.44091 5.89992 0
M  V30 6170 O 570.303 4.55894 6.6213 0
M  V30 6171 H 570.035 0.0701667 0.672349 0
M  V30 6172 H 572.589 0.846877 1.87129 0
M  V30 6173 H 570.819 -0.862812 3.76952 0
M  V30 6174 H 572.508 -0.530273 4.02421 0
M  V30 6175 H 573.274 1.91538 4.45576 0
M  V30 6176 H 569.153 0.693396 4.55755 0
M  V30 6177 H 572.697 3.92733 5.76547 0
M  V30 6178 H 568.594 2.69667 5.86472 0
M  V30 6179 H 569.362 4.5469 6.80587 0
M  V30 6180 N 572.025 -1.5352 0.356285 0
M  V30 6181 C 573.253 -2.05534 -0.237328 0
M  V30 6182 C 573.668 -1.23043 -1.43199 0
M  V30 6183 O 573.025 -0.268821 -1.80509 0
M  V30 6184 C 573.076 -3.55791 -0.639933 0
M  V30 6185 O 572.797 -4.35154 0.507233 0
M  V30 6186 C 574.298 -4.24027 -1.29292 0
M  V30 6187 H 571.518 -0.669585 -0.0435572 0
M  V30 6188 H 574.062 -1.97988 0.511963 0
M  V30 6189 H 572.217 -3.63518 -1.33915 0
M  V30 6190 H 572.631 -5.24178 0.18375 0
M  V30 6191 H 574.105 -5.30509 -1.52527 0
M  V30 6192 H 574.582 -3.77166 -2.25039 0
M  V30 6193 H 575.188 -4.20527 -0.63539 0
M  V30 6194 N 573.503 -0.0852151 -1.57369 0
M  V30 6195 C 574.752 0.580443 -1.93168 0
M  V30 6196 C 575.065 1.6995 -0.968319 0
M  V30 6197 O 576.271 2.42564 -1.21963 0
M  V30 6198 C 574.727 1.08386 -3.43192 0
M  V30 6199 C 574.335 -0.00491388 -4.48 0
M  V30 6200 C 576.079 1.72281 -3.87968 0
M  V30 6201 C 573.986 0.513299 -5.89168 0
M  V30 6202 H 572.916 0.22059 -0.72101 0
M  V30 6203 H 575.567 -0.159621 -1.82804 0
M  V30 6204 H 573.949 1.8773 -3.48674 0
M  V30 6205 H 575.123 -0.780032 -4.5415 0
M  V30 6206 H 573.438 -0.548453 -4.12772 0
M  V30 6207 H 576.035 2.12108 -4.9083 0
M  V30 6208 H 576.378 2.58811 -3.26071 0
M  V30 6209 H 576.911 0.995359 -3.85146 0
M  V30 6210 H 573.65 -0.315153 -6.54742 0
M  V30 6211 H 573.17 1.25564 -5.8651 0
M  V30 6212 H 574.849 0.985433 -6.39451 0
M  V30 6213 N 574.981 1.5647 0.188427 0
M  V30 6214 C 576.221 1.82803 0.914469 0
M  V30 6215 C 576.585 0.663681 1.80165 0
M  V30 6216 O 577.786 0.807059 2.56398 0
M  V30 6217 C 576.057 3.14187 1.70357 0
M  V30 6218 S 577.616 3.61947 2.48072 0
M  V30 6219 H 574.434 0.641497 0.306599 0
M  V30 6220 H 577.036 1.94694 0.177361 0
M  V30 6221 H 575.74 3.96937 1.04255 0
M  V30 6222 H 575.271 3.05192 2.48237 0
M  V30 6223 H 577.286 3.27913 3.72407 0
M  V30 6224 N 576.459 -0.456382 1.50847 0
M  V30 6225 C 577.707 -1.20497 1.62249 0
M  V30 6226 C 578.028 -1.92156 0.331839 0
M  V30 6227 O 577.298 -1.84751 -0.651443 0
M  V30 6228 H 575.878 -0.447775 0.597918 0
M  V30 6229 H 578.54 -0.525099 1.87693 0
M  V30 6230 H 577.636 -1.94492 2.44089 0
M  V30 6231 N 577.937 -1.40673 -0.710563 0
M  V30 6232 C 579.214 -1.29718 -1.46398 0
M  V30 6233 C 579.594 0.082177 -2.1094 0
M  V30 6234 O 578.942 1.09536 -2.00534 0
M  V30 6235 C 579.152 -2.43967 -2.49562 0
M  V30 6236 C 580.5 -2.84436 -3.15248 0
M  V30 6237 O 581.524 -2.43597 -2.59883 0
M  V30 6238 O 580.383 -3.55008 -4.1549 0
M  V30 6239 H 577.477 -0.509697 -0.651258 0
M  V30 6240 H 580.023 -1.52603 -0.742312 0
M  V30 6241 H 578.795 -3.36076 -2.0042 0
M  V30 6242 H 578.418 -2.22879 -3.29258 0
M  V30 6243 N 579.415 0.9433 -1.26252 0
M  V30 6244 C 580.64 1.72898 -1.14547 0
M  V30 6245 C 581.065 1.85761 0.295743 0
M  V30 6246 O 580.423 1.3463 1.21427 0
M  V30 6247 C 580.471 3.11471 -1.8171 0
M  V30 6248 O 579.575 3.97336 -1.10445 0
M  V30 6249 H 578.916 0.530555 -0.399259 0
M  V30 6250 H 581.446 1.18159 -1.67032 0
M  V30 6251 H 581.456 3.61872 -1.88449 0
M  V30 6252 H 580.131 3.01425 -2.86558 0
M  V30 6253 H 578.708 3.55788 -1.11666 0
M  V30 6254 N 580.893 1.08022 1.14757 0
M  V30 6255 C 581.803 0.718292 2.23333 0
M  V30 6256 C 582.819 -0.273477 1.71837 0
M  V30 6257 O 583.995 -0.118406 2.01052 0
M  V30 6258 C 581.06 0.128855 3.4646 0
M  V30 6259 C 580.121 1.17473 4.12915 0
M  V30 6260 C 579.354 0.61333 5.30164 0
M  V30 6261 O 579.577 -0.568458 5.6756 0
M  V30 6262 O 578.511 1.3615 5.86299 0
M  V30 6263 H 582.337 1.62394 2.56636 0
M  V30 6264 H 579.922 0.853628 1.22611 0
M  V30 6265 H 581.804 -0.197249 4.20938 0
M  V30 6266 H 580.479 -0.750014 3.14891 0
M  V30 6267 H 579.386 1.5533 3.40328 0
M  V30 6268 H 580.719 2.02574 4.48581 0
M  V30 6269 N 582.371 -1.3172 0.865308 0
M  V30 6270 C 583.648 -1.91574 0.394789 0
M  V30 6271 C 584.028 -1.78769 -1.12271 0
M  V30 6272 O 583.376 -1.19245 -1.94918 0
M  V30 6273 C 583.586 -3.37957 0.870982 0
M  V30 6274 C 584.934 -4.15073 0.894384 0
M  V30 6275 O 585.958 -3.4672 0.816325 0
M  V30 6276 O 584.817 -5.37151 1.00651 0
M  V30 6277 H 581.911 -0.818649 0.117229 0
M  V30 6278 H 584.457 -1.4042 0.952913 0
M  V30 6279 H 583.229 -3.41269 1.91444 0
M  V30 6280 H 582.852 -3.96534 0.290907 0
M  V30 6281 N 583.85 -0.624285 -1.44708 0
M  V30 6282 C 584.783 0.133905 -2.27807 0
M  V30 6283 C 585.76 0.857794 -1.38133 0
M  V30 6284 O 586.945 0.863277 -1.6757 0
M  V30 6285 C 584.072 1.19541 -3.16903 0
M  V30 6286 C 583.118 0.572813 -4.22636 0
M  V30 6287 S 583.951 -0.631953 -5.31758 0
M  V30 6288 C 585.106 0.429733 -6.24423 0
M  V30 6289 H 585.34 -0.571072 -2.91764 0
M  V30 6290 H 582.873 -0.412261 -1.48794 0
M  V30 6291 H 584.831 1.80293 -3.68788 0
M  V30 6292 H 583.492 1.87255 -2.5218 0
M  V30 6293 H 582.685 1.37205 -4.84965 0
M  V30 6294 H 582.287 0.0400641 -3.73979 0
M  V30 6295 H 584.579 1.30421 -6.64828 0
M  V30 6296 H 585.522 -0.157804 -7.07924 0
M  V30 6297 H 585.93 0.75256 -5.59461 0
M  V30 6298 N 585.328 1.53329 -0.364422 0
M  V30 6299 C 586.574 2.01537 0.225969 0
M  V30 6300 C 586.907 1.25128 1.48515 0
M  V30 6301 O 586.182 0.344653 1.91422 0
M  V30 6302 C 586.465 3.56339 0.519092 0
M  V30 6303 C 586.318 4.43441 -0.753639 0
M  V30 6304 C 587.637 4.19833 1.32015 0
M  V30 6305 H 584.756 0.732573 0.0806548 0
M  V30 6306 H 587.398 1.83597 -0.489084 0
M  V30 6307 H 585.548 3.71756 1.12825 0
M  V30 6308 H 587.22 4.39823 -1.39116 0
M  V30 6309 H 585.463 4.11457 -1.37424 0
M  V30 6310 H 586.134 5.49699 -0.503517 0
M  V30 6311 H 588.61 4.08242 0.804859 0
M  V30 6312 H 587.486 5.28177 1.49399 0
M  V30 6313 H 587.747 3.75821 2.32832 0
M  V30 6314 N 586.806 0.0935595 1.57322 0
M  V30 6315 C 588.046 -0.573901 1.96178 0
M  V30 6316 C 588.41 -1.65445 0.97426 0
M  V30 6317 O 589.611 -2.37901 1.25126 0
M  V30 6318 C 587.882 -1.11612 3.39526 0
M  V30 6319 S 589.441 -1.79566 4.00377 0
M  V30 6320 H 586.259 -0.187315 0.685882 0
M  V30 6321 H 588.861 0.172597 1.94737 0
M  V30 6322 H 587.565 -0.31815 4.09165 0
M  V30 6323 H 587.096 -1.89848 3.4456 0
M  V30 6324 H 589.111 -3.07978 3.89056 0
M  V30 6325 N 588.284 -1.56567 -0.180126 0
M  V30 6326 C 589.512 -1.85618 -0.913972 0
M  V30 6327 C 589.927 -0.677892 -1.7621 0
M  V30 6328 O 589.284 0.353171 -1.7905 0
M  V30 6329 C 589.335 -3.13619 -1.79793 0
M  V30 6330 O 589.056 -4.26906 -0.98402 0
M  V30 6331 C 590.557 -3.55954 -2.64219 0
M  V30 6332 H 587.777 -0.616043 -0.265954 0
M  V30 6333 H 590.321 -2.03681 -0.182872 0
M  V30 6334 H 588.476 -2.97409 -2.48247 0
M  V30 6335 H 588.89 -4.9989 -1.58776 0
M  V30 6336 H 590.364 -4.48444 -3.21873 0
M  V30 6337 H 590.841 -2.79653 -3.38661 0
M  V30 6338 H 591.447 -3.74746 -2.01111 0
M  V30 6339 N 589.762 0.448376 -1.51087 0
M  V30 6340 C 591.173 1.0286 -1.5581 0
M  V30 6341 C 591.524 1.92583 -0.374989 0
M  V30 6342 O 590.649 2.10316 0.509533 0
M  V30 6343 C 591.244 1.87223 -2.8237 0
M  V30 6344 C 589.803 2.40314 -2.897 0
M  V30 6345 C 588.95 1.19238 -2.50355 0
M  V30 6346 H 591.901 0.230075 -1.57023 0
M  V30 6347 H 591.922 2.72553 -2.6551 0
M  V30 6348 H 591.434 1.21894 -3.68461 0
M  V30 6349 H 589.535 3.09129 -2.08014 0
M  V30 6350 H 589.648 2.73866 -3.93108 0
M  V30 6351 H 588.012 1.53428 -2.03303 0
M  V30 6352 H 588.795 0.555367 -3.38778 0
M  V30 6353 N 591.24 1.41047 0.703093 0
M  V30 6354 C 592.187 1.42302 1.81711 0
M  V30 6355 C 593.157 0.278336 1.63751 0
M  V30 6356 O 594.342 0.478266 1.84709 0
M  V30 6357 C 591.482 1.30362 3.19531 0
M  V30 6358 C 590.595 2.54638 3.48975 0
M  V30 6359 C 589.73 2.35047 4.76368 0
M  V30 6360 C 588.769 3.54837 4.98756 0
M  V30 6361 N 587.906 3.34363 6.1737 0
M  V30 6362 H 592.746 2.37516 1.79973 0
M  V30 6363 H 590.283 1.1795 0.878983 0
M  V30 6364 H 592.241 1.21443 3.99134 0
M  V30 6365 H 590.871 0.387602 3.20464 0
M  V30 6366 H 589.923 2.74037 2.63833 0
M  V30 6367 H 591.235 3.43766 3.61423 0
M  V30 6368 H 590.389 2.23552 5.64012 0
M  V30 6369 H 589.128 1.43363 4.66153 0
M  V30 6370 H 588.133 3.66795 4.09563 0
M  V30 6371 H 589.358 4.47464 5.10835 0
M  V30 6372 H 587.304 2.45373 6.08382 0
M  V30 6373 H 587.221 4.17063 6.30551 0
M  V30 6374 H 588.489 3.26626 7.07768 0
M  V30 6375 N 592.718 -0.936591 1.26751 0
M  V30 6376 C 593.943 -1.72288 1.15462 0
M  V30 6377 C 594.368 -1.85915 -0.285887 0
M  V30 6378 O 593.726 -1.35272 -1.20711 0
M  V30 6379 C 593.774 -3.10503 1.83359 0
M  V30 6380 O 592.878 -3.96745 1.1255 0
M  V30 6381 H 592.219 -0.52843 0.402067 0
M  V30 6382 H 594.749 -1.17271 1.67656 0
M  V30 6383 H 594.759 -3.60867 1.90365 0
M  V30 6384 H 593.434 -2.99901 2.88153 0
M  V30 6385 H 592.011 -3.55191 1.13551 0
M  V30 6386 N 594.196 -1.08629 -1.14182 0
M  V30 6387 C 595.473 -0.73002 -1.81466 0
M  V30 6388 C 595.853 0.785996 -1.95922 0
M  V30 6389 O 595.201 1.70535 -1.52086 0
M  V30 6390 C 595.411 -1.45957 -3.17014 0
M  V30 6391 C 596.759 -1.62008 -3.92477 0
M  V30 6392 O 597.783 -1.42141 -3.26611 0
M  V30 6393 O 596.642 -1.94806 -5.106 0
M  V30 6394 H 593.736 -0.261307 -0.784632 0
M  V30 6395 H 596.282 -1.188 -1.2118 0
M  V30 6396 H 595.054 -2.49221 -3.01669 0
M  V30 6397 H 594.677 -0.993222 -3.84995 0
M  V30 6398 N 595.674 1.31259 -0.872281 0
M  V30 6399 C 596.584 2.32221 -0.333255 0
M  V30 6400 C 597.6 1.6481 0.558013 0
M  V30 6401 O 598.776 1.96212 0.454175 0
M  V30 6402 C 595.841 3.43708 0.454479 0
M  V30 6403 C 594.902 4.26774 -0.465024 0
M  V30 6404 C 594.135 5.32937 0.28521 0
M  V30 6405 O 594.358 5.49968 1.513 0
M  V30 6406 O 593.292 6.00834 -0.358126 0
M  V30 6407 H 597.118 2.80252 -1.17016 0
M  V30 6408 H 594.703 1.352 -0.635724 0
M  V30 6409 H 596.585 4.11656 0.900963 0
M  V30 6410 H 595.26 2.97836 1.26789 0
M  V30 6411 H 594.167 3.61571 -0.960055 0
M  V30 6412 H 595.5 4.76217 -1.2441 0
M  V30 6413 N 597.152 0.631951 1.44375 0
M  V30 6414 C 598.399 0.136767 2.02038 0
M  V30 6415 C 598.727 -1.24168 1.49709 0
M  V30 6416 O 597.982 -1.83809 0.671763 0
M  V30 6417 C 598.281 0.0735861 3.57324 0
M  V30 6418 C 597.947 1.39092 4.28911 0
M  V30 6419 C 596.609 1.75171 4.48184 0
M  V30 6420 C 598.961 2.26042 4.69632 0
M  V30 6421 C 596.289 2.97907 5.05439 0
M  V30 6422 C 598.641 3.4805 5.28246 0
M  V30 6423 C 597.305 3.84351 5.45738 0
M  V30 6424 H 596.575 0.0500466 0.739308 0
M  V30 6425 H 599.222 0.818429 1.7313 0
M  V30 6426 H 597.527 -0.691449 3.8565 0
M  V30 6427 H 599.224 -0.326091 3.99672 0
M  V30 6428 H 595.814 1.10015 4.1424 0
M  V30 6429 H 599.998 1.99463 4.54454 0
M  V30 6430 H 595.254 3.26108 5.17169 0
M  V30 6431 H 599.428 4.15658 5.5875 0
M  V30 6432 H 597.055 4.79538 5.8987 0
M  V30 6433 N 598.631 -1.53133 0.372548 0
M  V30 6434 C 599.579 -2.27473 -0.485681 0
M  V30 6435 C 600.573 -1.30719 -1.07745 0
M  V30 6436 O 601.779 -1.48321 -1.01985 0
M  V30 6437 H 598.154 -0.731269 -0.175356 0
M  V30 6438 H 600.125 -2.97955 0.162986 0
M  V30 6439 C 598.874 -3.08191 -1.60978 0
M  V30 6440 H 598.197 -3.82488 -1.16373 0
M  V30 6441 H 599.637 -3.63373 -2.18485 0
M  V30 6442 C 598.096 -2.19461 -2.55614 0
M  V30 6443 O 598.626 -1.81008 -3.58607 0
M  V30 6444 N 596.832 -1.83955 -2.24965 0
M  V30 6445 H 596.379 -2.15423 -1.41247 0
M  V30 6446 H 596.337 -1.24874 -2.88538 0
M  V30 6447 N 600.109 -0.101901 -1.5727 0
M  V30 6448 C 601.52 0.426173 -1.81771 0
M  V30 6449 C 601.871 1.67725 -1.01797 0
M  V30 6450 O 600.996 2.14958 -0.249386 0
M  V30 6451 C 601.591 0.779962 -3.297 0
M  V30 6452 C 600.15 1.25275 -3.54941 0
M  V30 6453 C 599.297 0.252814 -2.76145 0
M  V30 6454 H 602.248 -0.32726 -1.55289 0
M  V30 6455 H 602.269 1.63891 -3.43395 0
M  V30 6456 H 601.781 -0.130778 -3.8788 0
M  V30 6457 H 599.882 2.18097 -3.021 0
M  V30 6458 H 599.995 1.20988 -4.63572 0
M  V30 6459 H 598.359 0.736362 -2.43823 0
M  V30 6460 H 599.142 -0.650724 -3.37076 0
M  V30 6461 N 601.587 1.56661 0.17182 0
M  V30 6462 C 602.827 1.83762 0.895029 0
M  V30 6463 C 603.191 0.682752 1.79451 0
M  V30 6464 O 604.392 0.834208 2.55528 0
M  V30 6465 C 602.663 3.15976 1.67015 0
M  V30 6466 S 604.222 3.64558 2.44219 0
M  V30 6467 H 601.04 0.644713 0.299778 0
M  V30 6468 H 603.642 1.94871 0.156701 0
M  V30 6469 H 602.346 3.98021 1.00039 0
M  V30 6470 H 601.877 3.07807 2.44986 0
M  V30 6471 H 603.892 3.31845 3.68909 0
M  V30 6472 N 603.065 -0.440357 1.51323 0
M  V30 6473 C 603.975 -1.55955 1.75258 0
M  V30 6474 C 604.991 -1.61933 0.636687 0
M  V30 6475 O 606.167 -1.79231 0.918593 0
M  V30 6476 C 603.232 -2.9196 1.86977 0
M  V30 6477 C 602.293 -2.96122 3.10822 0
M  V30 6478 C 601.526 -4.2564 3.21973 0
M  V30 6479 O 601.749 -5.17851 2.39137 0
M  V30 6480 O 600.683 -4.36025 4.14929 0
M  V30 6481 H 604.509 -1.38673 2.70191 0
M  V30 6482 H 602.094 -0.623055 1.35788 0
M  V30 6483 H 603.976 -3.72682 1.96688 0
M  V30 6484 H 602.651 -3.09375 0.952307 0
M  V30 6485 H 601.558 -2.14366 3.06591 0
M  V30 6486 H 602.891 -2.83651 4.02247 0
M  V30 6487 N 604.543 -1.41418 -0.695603 0
M  V30 6488 C 605.82 -1.31264 -1.45014 0
M  V30 6489 C 606.2 0.0597994 -2.11015 0
M  V30 6490 O 605.548 1.07403 -2.01685 0
M  V30 6491 C 605.758 -2.466 -2.4696 0
M  V30 6492 C 607.106 -2.87763 -3.12214 0
M  V30 6493 O 608.13 -2.46339 -2.57285 0
M  V30 6494 O 606.989 -3.59395 -4.11701 0
M  V30 6495 H 604.083 -0.516576 -0.645816 0
M  V30 6496 H 606.629 -1.53382 -0.726084 0
M  V30 6497 H 605.401 -3.38183 -1.96845 0
M  V30 6498 H 605.024 -2.26358 -3.26876 0
M  V30 6499 N 606.021 0.929856 -1.27246 0
M  V30 6500 C 607.27 1.67182 -1.12842 0
M  V30 6501 C 607.583 1.9287 0.325666 0
M  V30 6502 O 608.789 2.64999 0.590572 0
M  V30 6503 C 607.245 3.01097 -1.97151 0
M  V30 6504 C 606.853 2.83115 -3.47203 0
M  V30 6505 C 608.597 3.78907 -1.91389 0
M  V30 6506 C 606.504 4.12573 -4.23719 0
M  V30 6507 H 605.434 0.627064 -0.418697 0
M  V30 6508 H 608.085 1.0332 -1.51649 0
M  V30 6509 H 606.467 3.66004 -1.51186 0
M  V30 6510 H 607.641 2.26989 -4.01015 0
M  V30 6511 H 605.956 2.18736 -3.54321 0
M  V30 6512 H 608.553 4.74837 -2.45834 0
M  V30 6513 H 608.896 4.0674 -0.887047 0
M  V30 6514 H 609.429 3.20794 -2.35237 0
M  V30 6515 H 606.168 3.8992 -5.26918 0
M  V30 6516 H 605.688 4.68371 -3.74685 0
M  V30 6517 H 607.367 4.8095 -4.32777 0
M  V30 6518 N 607.499 1.09233 1.13605 0
M  V30 6519 C 608.432 0.6739 2.18023 0
M  V30 6520 C 609.41 -0.318603 1.59448 0
M  V30 6521 O 610.594 -0.220452 1.87206 0
M  V30 6522 C 607.721 -0.00751458 3.38699 0
M  V30 6523 C 606.767 0.946481 4.15865 0
M  V30 6524 S 607.6 2.45753 4.75779 0
M  V30 6525 C 608.756 1.78846 5.99804 0
M  V30 6526 H 608.989 1.55846 2.53178 0
M  V30 6527 H 606.522 0.908118 1.2487 0
M  V30 6528 H 608.48 -0.394368 4.08601 0
M  V30 6529 H 607.141 -0.868693 3.01849 0
M  V30 6530 H 606.334 0.416742 5.02274 0
M  V30 6531 H 605.936 1.27464 3.51609 0
M  V30 6532 H 608.228 1.11135 6.68323 0
M  V30 6533 H 609.171 2.63163 6.57382 0
M  V30 6534 H 609.579 1.25823 5.50299 0
M  V30 6535 N 608.977 -1.30795 0.87923 0
M  V30 6536 C 610.225 -1.95974 0.493809 0
M  V30 6537 C 610.546 -1.69787 -0.959021 0
M  V30 6538 O 609.816 -1.01832 -1.67353 0
M  V30 6539 H 608.396 -0.725083 0.179622 0
M  V30 6540 H 611.058 -1.59432 1.12105 0
M  V30 6541 H 610.154 -3.05058 0.659263 0
M  V30 6542 N 610.455 -0.639598 -1.44038 0
M  V30 6543 C 611.685 -0.154586 -2.06021 0
M  V30 6544 C 612.093 1.17951 -1.47933 0
M  V30 6545 O 611.436 1.73627 -0.59994 0
M  V30 6546 C 611.498 0.0255459 -3.59491 0
M  V30 6547 C 611.162 -1.2317 -4.40089 0
M  V30 6548 C 612.159 -2.15735 -4.73027 0
M  V30 6549 C 609.844 -1.46949 -4.80324 0
M  V30 6550 C 611.838 -3.30382 -5.45093 0
M  V30 6551 C 609.525 -2.61891 -5.52138 0
M  V30 6552 C 610.523 -3.53433 -5.84443 0
M  V30 6553 O 610.211 -4.6637 -6.54793 0
M  V30 6554 H 609.943 -0.0808543 -0.671147 0
M  V30 6555 H 612.497 -0.876541 -1.85758 0
M  V30 6556 H 610.727 0.802733 -3.78276 0
M  V30 6557 H 612.416 0.466184 -4.03214 0
M  V30 6558 H 613.182 -1.98602 -4.42473 0
M  V30 6559 H 609.061 -0.765815 -4.54595 0
M  V30 6560 H 612.605 -4.01856 -5.70226 0
M  V30 6561 H 608.502 -2.78964 -5.82108 0
M  V30 6562 H 609.27 -4.6546 -6.73267 0
M  V30 6563 N 611.933 1.52934 -0.380664 0
M  V30 6564 C 612.88 2.26197 0.458641 0
M  V30 6565 C 613.85 1.27462 1.06502 0
M  V30 6566 O 615.035 1.56274 1.09467 0
M  V30 6567 C 612.175 3.06571 1.58456 0
M  V30 6568 C 611.288 4.20222 1.00189 0
M  V30 6569 C 610.423 4.88007 2.09815 0
M  V30 6570 C 609.462 5.93665 1.49092 0
M  V30 6571 N 608.599 6.55081 2.52613 0
M  V30 6572 H 613.439 2.975 -0.172595 0
M  V30 6573 H 610.976 1.4678 -0.0969426 0
M  V30 6574 H 612.934 3.51455 2.24801 0
M  V30 6575 H 611.564 2.37494 2.18624 0
M  V30 6576 H 610.616 3.79714 0.228292 0
M  V30 6577 H 611.928 4.96102 0.518064 0
M  V30 6578 H 611.082 5.36151 2.83948 0
M  V30 6579 H 609.821 4.11632 2.61555 0
M  V30 6580 H 608.826 5.44868 0.7348 0
M  V30 6581 H 610.051 6.71969 0.981582 0
M  V30 6582 H 607.997 5.8155 3.03538 0
M  V30 6583 H 607.914 7.26548 2.08961 0
M  V30 6584 H 609.182 7.07871 3.26402 0
M  V30 6585 N 613.412 0.11024 1.57214 0
M  V30 6586 C 614.659 -0.54987 1.94891 0
M  V30 6587 C 614.987 -1.67243 0.992984 0
M  V30 6588 O 614.242 -1.95694 0.0152703 0
M  V30 6589 C 614.541 -1.13102 3.39032 0
M  V30 6590 C 614.207 -0.130713 4.5071 0
M  V30 6591 C 612.869 0.14437 4.80983 0
M  V30 6592 C 615.221 0.551472 5.18274 0
M  V30 6593 C 612.549 1.10807 5.76141 0
M  V30 6594 C 614.901 1.50375 6.14467 0
M  V30 6595 C 613.565 1.78691 6.43138 0
M  V30 6596 H 612.835 -0.201212 0.713158 0
M  V30 6597 H 615.482 0.189288 1.90562 0
M  V30 6598 H 613.787 -1.94675 3.40013 0
M  V30 6599 H 615.484 -1.64973 3.65493 0
M  V30 6600 H 612.074 -0.355301 4.27125 0
M  V30 6601 H 616.258 0.35211 4.95049 0
M  V30 6602 H 611.514 1.3343 5.96663 0
M  V30 6603 H 615.688 2.03808 6.65909 0
M  V30 6604 H 613.315 2.53522 7.1668 0
M  V30 6605 N 614.89 -1.56749 -0.16351 0
M  V30 6606 C 615.82 -2.00042 -1.20438 0
M  V30 6607 C 616.801 -0.877256 -1.45733 0
M  V30 6608 O 617.986 -1.1439 -1.56935 0
M  V30 6609 C 615.116 -2.36697 -2.54149 0
M  V30 6610 C 614.07 -3.52046 -2.43408 0
M  V30 6611 C 613.396 -3.74466 -3.81679 0
M  V30 6612 C 614.696 -4.85247 -1.93216 0
M  V30 6613 H 616.39 -2.87244 -0.844477 0
M  V30 6614 H 613.936 -1.38194 -0.40478 0
M  V30 6615 H 615.889 -2.65582 -3.27176 0
M  V30 6616 H 614.613 -1.46414 -2.91943 0
M  V30 6617 H 613.272 -3.23301 -1.72834 0
M  V30 6618 H 612.92 -2.81461 -4.1688 0
M  V30 6619 H 612.62 -4.52084 -3.75359 0
M  V30 6620 H 614.144 -4.0576 -4.5628 0
M  V30 6621 H 615.558 -5.12957 -2.56023 0
M  V30 6622 H 613.955 -5.66556 -1.97825 0
M  V30 6623 H 615.025 -4.7672 -0.88689 0
M  V30 6624 N 616.368 0.432326 -1.51554 0
M  V30 6625 C 617.784 0.769195 -1.39841 0
M  V30 6626 C 617.984 1.95584 -0.484675 0
M  V30 6627 O 617.04 2.52433 0.0582829 0
M  V30 6628 C 618.353 1.04487 -2.81963 0
M  V30 6629 C 619.901 1.149 -2.91148 0
M  V30 6630 C 620.376 1.45758 -4.34187 0
M  V30 6631 N 621.867 1.52671 -4.37317 0
M  V30 6632 C 622.602 1.78129 -5.4503 0
M  V30 6633 N 622.098 2.01345 -6.62897 0
M  V30 6634 N 623.891 1.79953 -5.32516 0
M  V30 6635 H 616.042 -0.349122 -2.09511 0
M  V30 6636 H 618.305 -0.0938113 -0.943347 0
M  V30 6637 H 618.011 0.24557 -3.50842 0
M  V30 6638 H 617.885 1.97119 -3.21596 0
M  V30 6639 H 620.272 1.93891 -2.22464 0
M  V30 6640 H 620.353 0.201568 -2.55005 0
M  V30 6641 H 619.997 0.672917 -5.03423 0
M  V30 6642 H 619.927 2.41715 -4.67848 0
M  V30 6643 H 622.418 1.36612 -3.52343 0
M  V30 6644 H 622.731 2.20155 -7.40778 0
M  V30 6645 H 621.076 1.98657 -6.66003 0
M  V30 6646 H 624.267 1.61337 -4.39418 0
M  V30 6647 H 624.44 1.99455 -6.1654 0
M  V30 6648 N 617.846 1.41785 0.688094 0
M  V30 6649 C 619.095 1.4084 1.44385 0
M  V30 6650 C 619.408 0.0234166 1.95586 0
M  V30 6651 O 620.614 -0.108647 2.71283 0
M  V30 6652 C 619.07 2.47675 2.61123 0
M  V30 6653 C 618.678 3.92116 2.16677 0
M  V30 6654 C 620.422 2.55877 3.38714 0
M  V30 6655 C 618.329 4.90487 3.30419 0
M  V30 6656 H 617.259 0.523787 0.542368 0
M  V30 6657 H 619.91 1.6764 0.74627 0
M  V30 6658 H 618.292 2.14018 3.33185 0
M  V30 6659 H 619.466 4.35059 1.51856 0
M  V30 6660 H 617.781 3.87642 1.5206 0
M  V30 6661 H 620.378 3.26553 4.234 0
M  V30 6662 H 620.721 1.59801 3.84408 0
M  V30 6663 H 621.254 2.88662 2.73714 0
M  V30 6664 H 617.993 5.87994 2.89729 0
M  V30 6665 H 617.513 4.52187 3.94065 0
M  V30 6666 H 619.192 5.11591 3.96085 0
M  V30 6667 N 619.324 -0.923095 1.27737 0
M  V30 6668 C 620.57 -1.67375 1.14514 0
M  V30 6669 C 620.903 -1.91751 -0.307424 0
M  V30 6670 O 620.178 -1.51119 -1.22447 0
M  V30 6671 C 620.461 -3.03745 1.9342 0
M  V30 6672 C 620.314 -2.86581 3.46686 0
M  V30 6673 C 621.633 -4.04144 1.74228 0
M  V30 6674 H 618.752 -0.607427 0.417374 0
M  V30 6675 H 621.394 -1.07089 1.56946 0
M  V30 6676 H 619.544 -3.55204 1.5736 0
M  V30 6677 H 621.216 -2.42203 3.92601 0
M  V30 6678 H 619.459 -2.21829 3.72793 0
M  V30 6679 H 620.13 -3.83381 3.97143 0
M  V30 6680 H 622.606 -3.61712 2.05678 0
M  V30 6681 H 621.482 -4.97543 2.31824 0
M  V30 6682 H 621.743 -4.36661 0.691373 0
M  V30 6683 N 620.802 -1.09834 -1.13024 0
M  V30 6684 C 622.048 -0.83819 -1.84668 0
M  V30 6685 C 622.381 0.634645 -1.83537 0
M  V30 6686 O 621.656 1.46753 -1.27647 0
M  V30 6687 C 621.939 -1.37933 -3.32636 0
M  V30 6688 C 621.792 -2.91857 -3.42257 0
M  V30 6689 C 623.111 -1.01654 -4.28199 0
M  V30 6690 H 620.23 -0.30595 -0.670495 0
M  V30 6691 H 622.872 -1.36044 -1.32635 0
M  V30 6692 H 621.022 -0.935111 -3.77078 0
M  V30 6693 H 622.694 -3.44759 -3.06495 0
M  V30 6694 H 620.937 -3.28776 -2.83 0
M  V30 6695 H 621.608 -3.24799 -4.46329 0
M  V30 6696 H 624.084 -1.39973 -3.9185 0
M  V30 6697 H 622.96 -1.42217 -5.30156 0
M  V30 6698 H 623.221 0.0747794 -4.42037 0
M  V30 6699 N 622.28 1.30327 -0.886154 0
M  V30 6700 C 623.526 1.96764 -0.515312 0
M  V30 6701 C 623.881 1.68675 0.925552 0
M  V30 6702 O 623.174 0.981693 1.6454 0
M  V30 6703 C 623.368 3.49906 -0.728042 0
M  V30 6704 C 623.197 3.92881 -2.18803 0
M  V30 6705 C 621.967 4.18424 -2.83284 0
M  V30 6706 C 624.165 4.05617 -3.16195 0
M  V30 6707 N 622.147 4.47867 -4.19867 0
M  V30 6708 C 623.518 4.38957 -4.37855 0
M  V30 6709 C 625.573 3.88047 -3.11968 0
M  V30 6710 C 624.276 4.56559 -5.55829 0
M  V30 6711 C 626.302 4.06851 -4.29215 0
M  V30 6712 C 625.664 4.40538 -5.49641 0
M  V30 6713 H 621.763 0.74493 -0.237916 0
M  V30 6714 H 624.347 1.57536 -1.14414 0
M  V30 6715 H 622.518 3.88187 -0.128696 0
M  V30 6716 H 624.25 4.03401 -0.323983 0
M  V30 6717 H 621.005 4.1167 -2.34146 0
M  V30 6718 H 621.429 4.66721 -4.90408 0
M  V30 6719 H 626.071 3.61078 -2.19961 0
M  V30 6720 H 623.789 4.8237 -6.4834 0
M  V30 6721 H 627.375 3.94724 -4.27416 0
M  V30 6722 H 626.255 4.54789 -6.38856 0
M  V30 6723 N 623.758 0.647228 1.43697 0
M  V30 6724 C 625.005 0.158188 2.01881 0
M  V30 6725 C 625.333 -1.22573 1.51017 0
M  V30 6726 O 624.588 -1.83086 0.69122 0
M  V30 6727 C 624.887 0.111481 3.57226 0
M  V30 6728 C 624.553 1.43633 4.27411 0
M  V30 6729 C 623.215 1.79915 4.463 0
M  V30 6730 C 625.567 2.31011 4.67208 0
M  V30 6731 C 622.895 3.03251 5.02251 0
M  V30 6732 C 625.247 3.53633 5.24525 0
M  V30 6733 C 623.911 3.90118 5.41631 0
M  V30 6734 H 623.181 0.0578851 0.738736 0
M  V30 6735 H 625.828 0.836746 1.72252 0
M  V30 6736 H 624.133 -0.650507 3.86362 0
M  V30 6737 H 625.83 -0.283682 3.99995 0
M  V30 6738 H 622.42 1.14403 4.1305 0
M  V30 6739 H 626.604 2.04272 4.52313 0
M  V30 6740 H 621.86 3.31575 5.13681 0
M  V30 6741 H 626.034 4.21561 5.5431 0
M  V30 6742 H 623.661 4.85768 5.84751 0
M  V30 6743 N 625.236 -1.5273 0.388769 0
M  V30 6744 C 626.482 -2.01871 -0.193877 0
M  V30 6745 C 626.815 -1.27475 -1.46505 0
M  V30 6746 O 626.09 -0.375063 -1.90849 0
M  V30 6747 C 626.373 -3.5712 -0.462336 0
M  V30 6748 C 626.226 -4.42186 0.824091 0
M  V30 6749 C 627.545 -4.21881 -1.25319 0
M  V30 6750 H 624.664 -0.733764 -0.0689899 0
M  V30 6751 H 627.306 -1.82796 0.518231 0
M  V30 6752 H 625.456 -3.73504 -1.06896 0
M  V30 6753 H 627.128 -4.37554 1.46096 0
M  V30 6754 H 625.371 -4.09219 1.43952 0
M  V30 6755 H 626.042 -5.48828 0.590905 0
M  V30 6756 H 628.518 -4.0947 -0.73981 0
M  V30 6757 H 627.394 -5.30487 -1.40977 0
M  V30 6758 H 627.655 -3.79478 -2.26824 0
M  V30 6759 N 626.714 -0.118576 -1.57153 0
M  V30 6760 C 627.939 0.550582 -1.99958 0
M  V30 6761 C 628.364 1.59458 -0.997736 0
M  V30 6762 O 627.722 1.81274 0.0306269 0
M  V30 6763 C 627.77 1.15379 -3.41643 0
M  V30 6764 O 626.874 2.26932 -3.44348 0
M  V30 6765 H 626.215 0.137567 -0.649593 0
M  V30 6766 H 628.745 -0.206926 -2.03551 0
M  V30 6767 H 628.755 1.48942 -3.79843 0
M  V30 6768 H 627.43 0.389087 -4.14076 0
M  V30 6769 H 626.007 1.94812 -3.17967 0
M  V30 6770 N 628.193 1.56834 0.155195 0
M  V30 6771 C 629.123 2.00678 1.19376 0
M  V30 6772 C 630.104 0.884973 1.45266 0
M  V30 6773 O 631.289 1.1522 1.56326 0
M  V30 6774 C 628.419 2.38042 2.5289 0
M  V30 6775 C 627.373 3.53332 2.41538 0
M  V30 6776 C 626.699 3.76485 3.79688 0
M  V30 6777 C 627.999 4.86265 1.9064 0
M  V30 6778 H 629.693 2.87688 0.829232 0
M  V30 6779 H 627.239 1.38407 0.397445 0
M  V30 6780 H 629.192 2.67314 3.25763 0
M  V30 6781 H 627.916 1.4796 2.91162 0
M  V30 6782 H 626.575 3.24213 1.71117 0
M  V30 6783 H 626.223 2.83667 4.15382 0
M  V30 6784 H 625.923 4.54068 3.72956 0
M  V30 6785 H 627.447 4.08174 4.54122 0
M  V30 6786 H 628.861 5.14308 2.53299 0
M  V30 6787 H 627.258 5.67597 1.94818 0
M  V30 6788 H 628.328 4.77184 0.861596 0
M  V30 6789 N 629.671 -0.424282 1.51781 0
M  V30 6790 C 630.601 -1.52305 1.7699 0
M  V30 6791 C 631.582 -1.5839 0.620209 0
M  V30 6792 O 632.767 -1.73908 0.864268 0
M  V30 6793 C 629.897 -2.90271 1.90683 0
M  V30 6794 C 628.851 -2.99043 3.06198 0
M  V30 6795 C 628.177 -4.39116 3.05092 0
M  V30 6796 C 629.477 -2.7192 4.45934 0
M  V30 6797 H 631.171 -1.31461 2.68995 0
M  V30 6798 H 628.717 -0.630985 1.29439 0
M  V30 6799 H 630.67 -3.6711 2.06901 0
M  V30 6800 H 629.394 -3.12376 0.953365 0
M  V30 6801 H 628.053 -2.24646 2.89706 0
M  V30 6802 H 627.701 -4.58207 2.07498 0
M  V30 6803 H 627.401 -4.45912 3.82669 0
M  V30 6804 H 628.925 -5.17911 3.2342 0
M  V30 6805 H 630.339 -3.38487 4.62709 0
M  V30 6806 H 628.736 -2.90111 5.25315 0
M  V30 6807 H 629.806 -1.67445 4.55072 0
M  V30 6808 N 631.149 -1.42148 -0.680565 0
M  V30 6809 C 632.112 -1.4488 -1.77602 0
M  V30 6810 C 633.112 -0.337209 -1.57224 0
M  V30 6811 O 634.302 -0.597778 -1.63622 0
M  V30 6812 C 631.434 -1.27483 -3.16166 0
M  V30 6813 H 632.627 -2.42412 -1.76568 0
M  V30 6814 H 630.18 -1.28511 -0.889645 0
M  V30 6815 H 630.915 -0.30851 -3.22829 0
M  V30 6816 H 630.7 -2.08037 -3.3236 0
M  V30 6817 H 632.19 -1.32265 -3.96101 0
M  V30 6818 N 632.627 0.916307 -1.28225 0
M  V30 6819 C 633.557 2.0352 -1.14464 0
M  V30 6820 C 634.538 1.70045 -0.0430844 0
M  V30 6821 O 635.723 1.92954 -0.219619 0
M  V30 6822 C 632.853 3.37889 -0.803027 0
M  V30 6823 C 631.807 3.85516 -1.85908 0
M  V30 6824 C 631.133 5.1682 -1.37116 0
M  V30 6825 C 632.433 4.07655 -3.26519 0
M  V30 6826 H 634.127 2.1529 -2.08064 0
M  V30 6827 H 631.673 1.03446 -1.00174 0
M  V30 6828 H 633.626 4.15654 -0.693537 0
M  V30 6829 H 632.35 3.26164 0.168674 0
M  V30 6830 H 631.009 3.09953 -1.95767 0
M  V30 6831 H 630.657 5.01497 -0.38859 0
M  V30 6832 H 630.357 5.49657 -2.07728 0
M  V30 6833 H 631.881 5.97143 -1.27484 0
M  V30 6834 H 633.295 4.75953 -3.19596 0
M  V30 6835 H 631.692 4.51818 -3.94943 0
M  V30 6836 H 632.762 3.12553 -3.70727 0
M  V30 6837 N 634.105 1.10431 1.1244 0
M  V30 6838 C 635.035 0.775143 2.20258 0
M  V30 6839 C 636.016 -0.25186 1.68225 0
M  V30 6840 O 637.201 -0.117637 1.93843 0
M  V30 6841 C 634.331 0.206133 3.46688 0
M  V30 6842 C 633.285 1.16382 4.11873 0
M  V30 6843 C 632.611 0.456014 5.32752 0
M  V30 6844 C 633.911 2.5104 4.58013 0
M  V30 6845 H 635.605 1.67665 2.4805 0
M  V30 6846 H 633.151 0.807595 1.19222 0
M  V30 6847 H 635.104 -0.036291 4.21384 0
M  V30 6848 H 633.828 -0.730614 3.18323 0
M  V30 6849 H 632.487 1.39169 3.39157 0
M  V30 6850 H 632.135 -0.485203 5.00654 0
M  V30 6851 H 631.835 1.09466 5.77314 0
M  V30 6852 H 633.359 0.222135 6.10196 0
M  V30 6853 H 634.773 2.32401 5.24083 0
M  V30 6854 H 633.17 3.10789 5.13352 0
M  V30 6855 H 634.24 3.11039 3.71998 0
M  V30 6856 N 635.583 -1.29855 0.893053 0
M  V30 6857 C 636.831 -1.9544 0.514566 0
M  V30 6858 C 637.152 -1.70795 -0.940959 0
M  V30 6859 O 636.422 -1.03601 -1.66264 0
M  V30 6860 H 635.002 -0.723137 0.187302 0
M  V30 6861 H 637.664 -1.58234 1.13789 0
M  V30 6862 H 636.76 -3.04341 0.691581 0
M  V30 6863 N 637.061 -0.65484 -1.43351 0
M  V30 6864 C 638.009 0.0476784 -2.32551 0
M  V30 6865 C 639.003 0.811403 -1.48703 0
M  V30 6866 O 640.209 0.721621 -1.64902 0
M  V30 6867 H 636.584 0.0342038 -0.751222 0
M  V30 6868 H 638.555 -0.722342 -2.89525 0
M  V30 6869 C 637.304 0.999251 -3.33032 0
M  V30 6870 H 636.627 0.421005 -3.97577 0
M  V30 6871 H 638.067 1.45986 -3.98076 0
M  V30 6872 C 636.526 2.09606 -2.63756 0
M  V30 6873 O 637.056 3.18004 -2.4543 0
M  V30 6874 N 635.262 1.86207 -2.23103 0
M  V30 6875 H 634.809 0.980555 -2.38208 0
M  V30 6876 H 634.767 2.59787 -1.77081 0
M  V30 6877 N 638.539 1.52521 -0.396863 0
M  V30 6878 C 639.785 2.01971 0.183169 0
M  V30 6879 C 640.118 1.2825 1.45827 0
M  V30 6880 O 639.393 0.385179 1.90648 0
M  V30 6881 C 639.676 3.5736 0.443391 0
M  V30 6882 C 639.529 4.41743 -0.84753 0
M  V30 6883 C 640.848 4.22539 1.2308 0
M  V30 6884 H 637.967 0.734119 0.0650976 0
M  V30 6885 H 640.609 1.82519 -0.527918 0
M  V30 6886 H 638.759 3.74066 1.04914 0
M  V30 6887 H 640.431 4.36773 -1.48414 0
M  V30 6888 H 638.674 4.0845 -1.4612 0
M  V30 6889 H 639.345 5.48507 -0.620003 0
M  V30 6890 H 641.821 4.09857 0.718084 0
M  V30 6891 H 640.697 5.31227 1.38162 0
M  V30 6892 H 640.958 3.80675 2.24808 0
M  V30 6893 N 640.017 0.126909 1.57088 0
M  V30 6894 C 641.264 -0.529168 1.95464 0
M  V30 6895 C 641.592 -1.6618 1.01067 0
M  V30 6896 O 640.847 -1.95667 0.0360254 0
M  V30 6897 C 641.146 -1.095 3.40212 0
M  V30 6898 C 640.812 -0.0829015 4.50824 0
M  V30 6899 C 639.474 0.195377 4.80803 0
M  V30 6900 C 641.826 0.606411 5.1766 0
M  V30 6901 C 639.154 1.16912 5.74933 0
M  V30 6902 C 641.506 1.56884 6.12838 0
M  V30 6903 C 640.17 1.85502 6.41206 0
M  V30 6904 H 639.44 -0.193636 0.715252 0
M  V30 6905 H 642.087 0.209489 1.90351 0
M  V30 6906 H 640.392 -1.91058 3.42059 0
M  V30 6907 H 642.089 -1.61087 3.67222 0
M  V30 6908 H 638.679 -0.309979 4.27478 0
M  V30 6909 H 642.863 0.404597 4.94648 0
M  V30 6910 H 638.119 1.3975 5.95214 0
M  V30 6911 H 642.293 2.10859 6.6371 0
M  V30 6912 H 639.92 2.61109 7.13951 0
M  V30 6913 N 641.495 -1.56914 -0.146875 0
M  V30 6914 C 642.741 -1.83628 -0.860741 0
M  V30 6915 C 643.074 -0.708528 -1.80813 0
M  V30 6916 O 642.349 0.287838 -1.92358 0
M  V30 6917 C 642.632 -3.20836 -1.63511 0
M  V30 6918 C 642.485 -4.44174 -0.709199 0
M  V30 6919 C 643.804 -3.55268 -2.59756 0
M  V30 6920 H 640.923 -0.667949 -0.311468 0
M  V30 6921 H 643.565 -1.89582 -0.125936 0
M  V30 6922 H 641.715 -3.15891 -2.26153 0
M  V30 6923 H 643.387 -4.61205 -0.0937781 0
M  V30 6924 H 641.63 -4.33796 -0.0187856 0
M  V30 6925 H 642.301 -5.36785 -1.28707 0
M  V30 6926 H 644.777 -3.60824 -2.07232 0
M  V30 6927 H 643.653 -4.52303 -3.10987 0
M  V30 6928 H 643.914 -2.81231 -3.41118 0
M  V30 6929 N 642.974 0.416227 -1.52004 0
M  V30 6930 C 643.904 1.51365 -1.77795 0
M  V30 6931 C 644.885 1.58059 -0.628601 0
M  V30 6932 O 646.07 1.73447 -0.873478 0
M  V30 6933 C 643.2 2.89256 -1.92219 0
M  V30 6934 C 642.154 2.97415 -3.0778 0
M  V30 6935 C 641.48 4.37492 -3.07417 0
M  V30 6936 C 642.78 2.69551 -4.47369 0
M  V30 6937 H 644.474 1.30033 -2.69688 0
M  V30 6938 H 642.02 0.624112 -1.29772 0
M  V30 6939 H 643.973 3.66008 -2.08845 0
M  V30 6940 H 642.697 3.11866 -0.969917 0
M  V30 6941 H 641.356 2.23107 -2.90893 0
M  V30 6942 H 641.004 4.571 -2.09925 0
M  V30 6943 H 640.704 4.43877 -3.85029 0
M  V30 6944 H 642.228 5.16188 -3.26162 0
M  V30 6945 H 643.642 3.36028 -4.64497 0
M  V30 6946 H 642.039 2.87321 -5.26846 0
M  V30 6947 H 643.109 1.65029 -4.55953 0
M  V30 6948 N 644.452 1.42507 0.673017 0
M  V30 6949 C 645.382 1.48916 1.79851 0
M  V30 6950 C 646.363 0.345566 1.66553 0
M  V30 6951 O 647.548 0.560116 1.85947 0
M  V30 6952 C 644.678 1.39258 3.18158 0
M  V30 6953 C 643.632 2.51662 3.46194 0
M  V30 6954 C 642.958 2.27062 4.84094 0
M  V30 6955 C 644.258 3.93968 3.42909 0
M  V30 6956 H 645.952 2.43114 1.74745 0
M  V30 6957 H 643.498 1.17013 0.839288 0
M  V30 6958 H 645.451 1.42349 3.96629 0
M  V30 6959 H 644.175 0.415542 3.23946 0
M  V30 6960 H 642.834 2.47891 2.70084 0
M  V30 6961 H 642.482 1.27648 4.86534 0
M  V30 6962 H 642.182 3.02398 5.03815 0
M  V30 6963 H 643.706 2.31905 5.64847 0
M  V30 6964 H 645.12 3.99332 4.11347 0
M  V30 6965 H 643.517 4.6917 3.74165 0
M  V30 6966 H 644.587 4.20512 2.41449 0
M  V30 6967 N 645.93 -0.909495 1.28709 0
M  V30 6968 C 647.179 -1.65365 1.15487 0
M  V30 6969 C 647.492 -1.93364 -0.294941 0
M  V30 6970 O 648.698 -2.65905 -0.548338 0
M  V30 6971 C 647.154 -2.97923 2.01916 0
M  V30 6972 C 646.762 -2.77556 3.51663 0
M  V30 6973 C 648.506 -3.75814 1.97393 0
M  V30 6974 C 646.413 -4.0578 4.30229 0
M  V30 6975 H 645.343 -0.620323 0.42862 0
M  V30 6976 H 647.994 -1.00894 1.53273 0
M  V30 6977 H 646.376 -3.63552 1.5699 0
M  V30 6978 H 647.55 -2.2058 4.04575 0
M  V30 6979 H 645.865 -2.13072 3.57756 0
M  V30 6980 H 648.462 -4.70866 2.53357 0
M  V30 6981 H 648.805 -4.05277 0.951643 0
M  V30 6982 H 649.338 -3.1701 2.40311 0
M  V30 6983 H 646.077 -3.81488 5.33055 0
M  V30 6984 H 645.597 -4.62351 3.82089 0
M  V30 6985 H 647.276 -4.74004 4.40374 0
M  V30 6986 N 647.408 -1.11026 -1.11852 0
M  V30 6987 C 648.338 -0.786812 -2.19844 0
M  V30 6988 C 649.319 0.242935 -1.68356 0
M  V30 6989 O 650.504 0.107355 -1.93903 0
M  V30 6990 C 647.634 -0.224516 -3.46574 0
M  V30 6991 C 646.588 -1.18564 -4.1125 0
M  V30 6992 C 645.914 -0.484261 -5.32503 0
M  V30 6993 C 647.214 -2.53465 -4.56676 0
M  V30 6994 H 648.908 -1.68978 -2.47158 0
M  V30 6995 H 646.454 -0.813906 -1.18792 0
M  V30 6996 H 648.407 0.0139435 -4.21398 0
M  V30 6997 H 647.131 0.713722 -3.18706 0
M  V30 6998 H 645.79 -1.40966 -3.38414 0
M  V30 6999 H 645.438 0.458646 -5.00905 0
M  V30 7000 H 645.138 -1.12526 -5.76725 0
M  V30 7001 H 646.662 -0.254492 -6.10069 0
M  V30 7002 H 648.076 -2.35177 -5.22843 0
M  V30 7003 H 646.473 -3.13507 -5.11697 0
M  V30 7004 H 647.543 -3.13008 -3.70343 0
M  V30 7005 N 648.886 1.2938 -0.899927 0
M  V30 7006 C 649.816 2.30144 -0.39446 0
M  V30 7007 C 650.797 1.61611 0.530639 0
M  V30 7008 O 651.982 1.89119 0.441319 0
M  V30 7009 C 649.112 3.45229 0.37868 0
M  V30 7010 C 648.066 4.25564 -0.456012 0
M  V30 7011 C 647.392 5.32848 0.444637 0
M  V30 7012 C 648.692 4.93651 -1.70605 0
M  V30 7013 H 650.386 2.72673 -1.23653 0
M  V30 7014 H 647.932 1.31086 -0.596034 0
M  V30 7015 H 649.885 4.14797 0.743037 0
M  V30 7016 H 648.609 3.01545 1.25453 0
M  V30 7017 H 647.268 3.57704 -0.802704 0
M  V30 7018 H 646.916 4.85408 1.31863 0
M  V30 7019 H 646.616 5.87497 -0.110154 0
M  V30 7020 H 648.14 6.05268 0.805182 0
M  V30 7021 H 649.554 5.55655 -1.41141 0
M  V30 7022 H 647.951 5.58233 -2.20217 0
M  V30 7023 H 649.021 4.18926 -2.4419 0
M  V30 7024 N 650.364 0.662433 1.43002 0
M  V30 7025 C 651.592 0.187615 2.06048 0
M  V30 7026 C 652.007 -1.15039 1.49705 0
M  V30 7027 O 651.364 -1.71209 0.631956 0
M  V30 7028 C 651.415 0.100498 3.6136 0
M  V30 7029 O 651.136 1.38562 4.15611 0
M  V30 7030 C 652.637 -0.399298 4.41498 0
M  V30 7031 H 649.857 0.0941675 0.664359 0
M  V30 7032 H 652.401 0.905681 1.83351 0
M  V30 7033 H 650.556 -0.568181 3.83211 0
M  V30 7034 H 650.97 1.25084 5.09366 0
M  V30 7035 H 652.444 -0.409187 5.50481 0
M  V30 7036 H 652.921 -1.43232 4.15188 0
M  V30 7037 H 653.527 0.23721 4.24638 0
M  V30 7038 N 651.842 -1.52309 0.404946 0
M  V30 7039 C 653.067 -2.06666 -0.1743 0
M  V30 7040 C 653.492 -1.27341 -1.38441 0
M  V30 7041 O 652.85 -0.302539 -1.78758 0
M  V30 7042 C 652.898 -3.57014 -0.507262 0
M  V30 7043 O 652.002 -3.80144 -1.59889 0
M  V30 7044 H 651.343 -0.663807 -0.0160273 0
M  V30 7045 H 653.873 -1.96297 0.576937 0
M  V30 7046 H 653.883 -4.00724 -0.767098 0
M  V30 7047 H 652.558 -4.14184 0.377368 0
M  V30 7048 H 651.135 -3.48316 -1.33155 0
M  V30 7049 N 653.32 -0.135238 -1.57019 0
M  V30 7050 C 654.27 0.820408 -2.12728 0
M  V30 7051 C 655.254 1.21735 -1.05211 0
M  V30 7052 O 656.446 1.18574 -1.31413 0
M  V30 7053 C 653.575 2.06414 -2.74314 0
M  V30 7054 C 652.661 1.69083 -3.88937 0
M  V30 7055 N 653.052 1.0251 -4.95303 0
M  V30 7056 C 651.35 1.98434 -3.99425 0
M  V30 7057 C 652.051 0.846749 -5.75504 0
M  V30 7058 N 651.027 1.3769 -5.25873 0
M  V30 7059 H 654.829 0.302426 -2.9234 0
M  V30 7060 H 652.343 0.0667009 -1.62263 0
M  V30 7061 H 654.34 2.75863 -3.12579 0
M  V30 7062 H 653 2.58741 -1.96171 0
M  V30 7063 H 654.011 0.687207 -5.1332 0
M  V30 7064 H 650.688 2.52693 -3.32344 0
M  V30 7065 H 652.078 0.322949 -6.71123 0
M  V30 7066 N 654.798 1.5699 0.138552 0
M  V30 7067 C 656.028 1.87704 0.863184 0
M  V30 7068 C 656.436 0.722411 1.74865 0
M  V30 7069 O 655.779 -0.316636 1.80951 0
M  V30 7070 C 655.841 3.13219 1.76449 0
M  V30 7071 C 655.505 4.44648 1.05532 0
M  V30 7072 C 656.502 5.18318 0.405252 0
M  V30 7073 C 654.187 4.91367 1.04231 0
M  V30 7074 C 656.181 6.36916 -0.24835 0
M  V30 7075 C 653.868 6.09887 0.384904 0
M  V30 7076 C 654.866 6.82508 -0.259292 0
M  V30 7077 O 654.554 7.98775 -0.906258 0
M  V30 7078 H 654.286 0.626255 0.254521 0
M  V30 7079 H 656.84 2.04966 0.133472 0
M  V30 7080 H 655.07 2.91988 2.53535 0
M  V30 7081 H 656.759 3.30111 2.36181 0
M  V30 7082 H 657.525 4.83289 0.407053 0
M  V30 7083 H 653.404 4.34759 1.53315 0
M  V30 7084 H 656.948 6.93538 -0.751755 0
M  V30 7085 H 652.845 6.44376 0.380799 0
M  V30 7086 H 653.613 8.14494 -0.80877 0
M  V30 7087 N 656.276 -0.40816 1.52223 0
M  V30 7088 C 657.223 -1.49737 1.75635 0
M  V30 7089 C 658.193 -1.5493 0.598824 0
M  V30 7090 O 659.378 -1.71487 0.83648 0
M  V30 7091 C 656.518 -2.87174 1.91376 0
M  V30 7092 C 655.631 -2.91283 3.19027 0
M  V30 7093 C 654.766 -4.20026 3.25195 0
M  V30 7094 C 653.805 -4.18113 4.47044 0
M  V30 7095 N 652.942 -5.38429 4.50598 0
M  V30 7096 H 657.782 -1.29075 2.68596 0
M  V30 7097 H 655.319 -0.626518 1.33091 0
M  V30 7098 H 657.277 -3.66959 1.98486 0
M  V30 7099 H 655.907 -3.06329 1.01795 0
M  V30 7100 H 654.959 -2.03984 3.21084 0
M  V30 7101 H 656.271 -2.85734 4.08849 0
M  V30 7102 H 655.425 -5.08204 3.31382 0
M  V30 7103 H 654.164 -4.28271 2.33313 0
M  V30 7104 H 653.169 -3.28325 4.41002 0
M  V30 7105 H 654.394 -4.11507 5.40221 0
M  V30 7106 H 652.34 -5.4734 3.616 0
M  V30 7107 H 652.257 -5.34879 5.34266 0
M  V30 7108 H 653.525 -6.28557 4.61016 0
M  V30 7109 N 657.755 -1.42862 -0.66545 0
M  V30 7110 C 658.685 -1.49867 -1.79059 0
M  V30 7111 C 659.666 -0.354394 -1.66367 0
M  V30 7112 O 660.851 -0.569969 -1.85647 0
M  V30 7113 C 657.981 -1.40943 -3.17415 0
M  V30 7114 C 656.935 -2.53495 -3.44854 0
M  V30 7115 C 656.261 -2.29626 -4.82883 0
M  V30 7116 C 657.561 -3.95781 -3.40815 0
M  V30 7117 H 659.255 -2.44037 -1.73453 0
M  V30 7118 H 656.801 -1.17456 -0.833071 0
M  V30 7119 H 658.754 -1.4445 -3.95869 0
M  V30 7120 H 657.478 -0.432716 -3.23721 0
M  V30 7121 H 656.137 -2.4932 -2.68766 0
M  V30 7122 H 655.785 -1.30226 -4.8585 0
M  V30 7123 H 655.485 -3.05065 -5.02204 0
M  V30 7124 H 657.009 -2.34897 -5.63609 0
M  V30 7125 H 658.423 -4.01508 -4.09224 0
M  V30 7126 H 656.82 -4.71148 -3.71672 0
M  V30 7127 H 657.89 -4.21786 -2.39216 0
M  V30 7128 N 659.233 0.902656 -1.29189 0
M  V30 7129 C 660.181 2.0278 -1.13943 0
M  V30 7130 C 661.175 1.69308 -0.055787 0
M  V30 7131 O 662.381 1.78707 -0.215371 0
M  V30 7132 H 658.756 0.664595 -0.351877 0
M  V30 7133 H 660.727 2.12778 -2.09208 0
M  V30 7134 C 659.476 3.37657 -0.82966 0
M  V30 7135 H 658.799 3.63913 -1.65551 0
M  V30 7136 H 660.239 4.17078 -0.762998 0
M  V30 7137 C 658.698 3.33648 0.466991 0
M  V30 7138 O 659.228 3.72886 1.49395 0
M  V30 7139 N 657.434 2.86745 0.471761 0
M  V30 7140 H 656.981 2.55009 -0.364406 0
M  V30 7141 H 656.939 2.84446 1.33933 0
M  V30 7142 N 660.711 1.11618 1.11262 0
M  V30 7143 C 661.957 0.867463 1.83311 0
M  V30 7144 C 662.29 -0.605366 1.84524 0
M  V30 7145 O 661.565 -1.44704 1.29965 0
M  V30 7146 C 661.848 1.43207 3.30399 0
M  V30 7147 C 661.701 2.97265 3.3757 0
M  V30 7148 C 663.02 1.08454 4.26528 0
M  V30 7149 H 660.139 0.316578 0.665543 0
M  V30 7150 H 662.781 1.38137 1.30454 0
M  V30 7151 H 660.931 0.994982 3.75543 0
M  V30 7152 H 662.603 3.49591 3.00971 0
M  V30 7153 H 660.846 3.33237 2.77733 0
M  V30 7154 H 661.517 3.31859 4.41105 0
M  V30 7155 H 663.993 1.4619 3.89574 0
M  V30 7156 H 662.869 1.50633 5.27826 0
M  V30 7157 H 663.13 -0.00444568 4.421 0
M  V30 7158 N 662.189 -1.289 0.906776 0
M  V30 7159 C 663.6 -1.77336 0.58384 0
M  V30 7160 C 663.951 -1.74304 -0.900697 0
M  V30 7161 O 663.076 -1.33335 -1.70443 0
M  V30 7162 C 663.671 -3.22019 1.05304 0
M  V30 7163 C 662.23 -3.68205 0.781148 0
M  V30 7164 C 661.377 -2.48837 1.22373 0
M  V30 7165 H 664.328 -1.15462 1.08877 0
M  V30 7166 H 664.349 -3.78481 0.391414 0
M  V30 7167 H 663.861 -3.24194 2.13353 0
M  V30 7168 H 661.962 -3.71497 -0.28643 0
M  V30 7169 H 662.075 -4.58675 1.384 0
M  V30 7170 H 660.439 -2.46461 0.642594 0
M  V30 7171 H 661.222 -2.53736 2.31242 0
M  V30 7172 N 663.667 -0.670007 -1.42649 0
M  V30 7173 C 665.083 -0.33911 -1.55956 0
M  V30 7174 C 665.283 1.1558 -1.65056 0
M  V30 7175 O 664.339 1.94111 -1.61485 0
M  V30 7176 C 665.652 -1.06522 -2.812 0
M  V30 7177 C 667.2 -1.04708 -2.94966 0
M  V30 7178 C 667.675 -1.75442 -4.23065 0
M  V30 7179 N 669.166 -1.72286 -4.29967 0
M  V30 7180 C 669.901 -2.23877 -5.27889 0
M  V30 7181 N 669.397 -2.83829 -6.31991 0
M  V30 7182 N 671.19 -2.14279 -5.19654 0
M  V30 7183 H 663.341 -1.6399 -1.34986 0
M  V30 7184 H 665.604 -0.690603 -0.649439 0
M  V30 7185 H 665.31 -2.12033 -2.80597 0
M  V30 7186 H 665.184 -0.627398 -3.71946 0
M  V30 7187 H 667.571 -0.000315966 -2.951 0
M  V30 7188 H 667.652 -1.52374 -2.05465 0
M  V30 7189 H 667.296 -2.80084 -4.23693 0
M  V30 7190 H 667.226 -1.25229 -5.11493 0
M  V30 7191 H 669.717 -1.28554 -3.55362 0
M  V30 7192 H 670.03 -3.20827 -7.03057 0
M  V30 7193 H 668.375 -2.87896 -6.32567 0
M  V30 7194 H 671.566 -1.67135 -4.37245 0
M  V30 7195 H 671.739 -2.54792 -5.95806 0
M  V30 7196 N 665.145 1.52092 -0.413018 0
M  V30 7197 C 666.392 2.01855 0.161497 0
M  V30 7198 C 666.72 1.29845 1.44812 0
M  V30 7199 O 665.975 0.394471 1.91683 0
M  V30 7200 C 666.274 3.54529 0.4521 0
M  V30 7201 C 665.94 4.4469 -0.745788 0
M  V30 7202 C 664.602 4.69053 -1.07435 0
M  V30 7203 C 666.954 4.97742 -1.54604 0
M  V30 7204 C 664.282 5.43717 -2.20429 0
M  V30 7205 C 666.634 5.73642 -2.66678 0
M  V30 7206 C 665.298 5.96277 -3.00016 0
M  V30 7207 H 664.568 0.73864 0.0590961 0
M  V30 7208 H 667.215 1.83274 -0.555234 0
M  V30 7209 H 665.52 3.7131 1.25045 0
M  V30 7210 H 667.217 3.90546 0.909647 0
M  V30 7211 H 663.807 4.25907 -0.479725 0
M  V30 7212 H 667.991 4.78824 -1.30543 0
M  V30 7213 H 663.247 5.59462 -2.46602 0
M  V30 7214 H 667.421 6.13746 -3.29072 0
M  V30 7215 H 665.048 6.53913 -3.87688 0
M  V30 7216 N 666.623 0.143563 1.56945 0
M  V30 7217 C 667.553 -0.7936 2.196 0
M  V30 7218 C 668.534 -1.25955 1.14321 0
M  V30 7219 O 669.719 -1.31773 1.42651 0
M  V30 7220 C 666.849 -2.03424 2.81489 0
M  V30 7221 C 665.803 -1.70519 3.92565 0
M  V30 7222 C 665.129 -3.01817 4.41373 0
M  V30 7223 C 666.429 -0.95449 5.13504 0
M  V30 7224 H 668.123 -0.271423 2.98167 0
M  V30 7225 H 665.669 -0.12911 1.4342 0
M  V30 7226 H 667.622 -2.69463 3.23987 0
M  V30 7227 H 666.346 -2.58008 2.00248 0
M  V30 7228 H 665.005 -1.06859 3.5068 0
M  V30 7229 H 664.653 -3.54386 3.56959 0
M  V30 7230 H 664.353 -2.80565 5.16292 0
M  V30 7231 H 665.877 -3.68934 4.86539 0
M  V30 7232 H 667.291 -1.5169 5.52868 0
M  V30 7233 H 665.688 -0.842035 5.94163 0
M  V30 7234 H 666.758 0.0544033 4.84869 0
M  V30 7235 N 668.101 -1.57061 -0.130224 0
M  V30 7236 C 669.034 -1.94698 -1.19029 0
M  V30 7237 C 670.012 -0.815074 -1.40696 0
M  V30 7238 O 671.196 -1.07223 -1.55034 0
M  V30 7239 C 668.323 -2.23352 -2.5462 0
M  V30 7240 C 667.369 -3.45945 -2.49448 0
M  V30 7241 S 668.202 -4.98927 -1.94505 0
M  V30 7242 C 669.358 -5.30721 -3.31792 0
M  V30 7243 H 669.591 -2.84308 -0.869272 0
M  V30 7244 H 667.124 -1.50688 -0.336531 0
M  V30 7245 H 669.082 -2.40539 -3.32643 0
M  V30 7246 H 667.743 -1.34376 -2.83905 0
M  V30 7247 H 666.936 -3.63324 -3.49302 0
M  V30 7248 H 666.538 -3.28086 -1.79543 0
M  V30 7249 H 668.83 -5.25215 -4.27966 0
M  V30 7250 H 669.773 -6.32048 -3.19251 0
M  V30 7251 H 670.181 -4.5821 -3.29703 0
M  V30 7252 N 669.579 0.400081 -1.52437 0
M  V30 7253 C 670.819 1.15526 -1.68622 0
M  V30 7254 C 671.183 1.87533 -0.411744 0
M  V30 7255 O 672.384 2.6501 -0.449804 0
M  V30 7256 C 670.655 2.11618 -2.88015 0
M  V30 7257 S 672.214 2.95121 -3.24729 0
M  V30 7258 H 669.032 0.39123 -0.593683 0
M  V30 7259 H 671.634 0.441255 -1.90455 0
M  V30 7260 H 670.338 1.5742 -3.79008 0
M  V30 7261 H 669.869 2.87544 -2.68481 0
M  V30 7262 H 671.884 4.13653 -2.74055 0
M  V30 7263 N 671.057 1.43213 0.657864 0
M  V30 7264 C 672.005 1.48271 1.79216 0
M  V30 7265 C 672.999 0.35675 1.65601 0
M  V30 7266 O 674.205 0.530535 1.72004 0
M  V30 7267 H 670.58 0.464729 0.591211 0
M  V30 7268 H 672.551 2.43792 1.7207 0
M  V30 7269 C 671.3 1.41837 3.17455 0
M  V30 7270 H 670.623 2.27781 3.28567 0
M  V30 7271 H 672.063 1.49438 3.96793 0
M  V30 7272 C 670.522 0.135347 3.36628 0
M  V30 7273 O 671.052 -0.805199 3.93547 0
M  V30 7274 N 669.258 0.0470316 2.90562 0
M  V30 7275 H 668.805 0.813221 2.44427 0
M  V30 7276 H 668.763 -0.810737 3.03767 0
M  V30 7277 N 672.536 -0.895792 1.29666 0
M  V30 7278 C 673.466 -2.01673 1.17688 0
M  V30 7279 C 674.447 -1.69955 0.0701317 0
M  V30 7280 O 675.632 -1.9258 0.250289 0
M  V30 7281 C 672.762 -3.36568 0.856681 0
M  V30 7282 C 671.716 -3.82509 1.92017 0
M  V30 7283 C 671.042 -5.14574 1.4532 0
M  V30 7284 C 672.342 -4.02409 3.32963 0
M  V30 7285 H 674.036 -2.11953 2.11463 0
M  V30 7286 H 671.582 -1.01839 1.01807 0
M  V30 7287 H 673.535 -4.14498 0.759577 0
M  V30 7288 H 672.259 -3.26391 -0.116763 0
M  V30 7289 H 670.918 -3.068 2.00673 0
M  V30 7290 H 670.566 -5.00815 0.468325 0
M  V30 7291 H 670.266 -5.46283 2.16447 0
M  V30 7292 H 671.79 -5.9504 1.36968 0
M  V30 7293 H 673.204 -4.70808 3.27127 0
M  V30 7294 H 671.601 -4.45478 4.02082 0
M  V30 7295 H 672.671 -3.06616 3.75652 0
M  V30 7296 N 674.014 -1.12206 -1.10668 0
M  V30 7297 C 674.977 -0.790867 -2.15123 0
M  V30 7298 C 675.977 0.193618 -1.5963 0
M  V30 7299 O 677.167 -0.0318728 -1.74171 0
M  V30 7300 C 674.299 -0.174797 -3.40452 0
M  V30 7301 H 675.492 -1.7163 -2.45933 0
M  V30 7302 H 673.045 -0.924993 -1.2599 0
M  V30 7303 H 673.78 0.760478 -3.15257 0
M  V30 7304 H 673.565 -0.88358 -3.82015 0
M  V30 7305 H 675.055 0.0405162 -4.1758 0
M  V30 7306 N 675.492 1.28418 -0.913599 0
M  V30 7307 C 676.739 1.94981 -0.546674 0
M  V30 7308 C 677.067 1.7192 0.909606 0
M  V30 7309 O 676.322 1.03314 1.66207 0
M  V30 7310 C 676.621 3.48283 -0.802099 0
M  V30 7311 C 676.287 3.91444 -2.2379 0
M  V30 7312 C 674.949 4.02939 -2.63046 0
M  V30 7313 C 677.301 4.13542 -3.17227 0
M  V30 7314 C 674.629 4.3391 -3.94891 0
M  V30 7315 C 676.981 4.45992 -4.48636 0
M  V30 7316 C 675.645 4.55698 -4.87746 0
M  V30 7317 H 674.915 0.713487 -0.200042 0
M  V30 7318 H 677.562 1.52756 -1.15489 0
M  V30 7319 H 675.867 3.91643 -0.111076 0
M  V30 7320 H 677.564 3.97903 -0.497375 0
M  V30 7321 H 674.154 3.83024 -1.9233 0
M  V30 7322 H 678.338 4.04114 -2.88107 0
M  V30 7323 H 673.594 4.39631 -4.24894 0
M  V30 7324 H 677.768 4.62038 -5.21051 0
M  V30 7325 H 675.395 4.79451 -5.89942 0
M  V30 7326 N 676.97 0.677563 1.42291 0
M  V30 7327 C 677.933 0.0101085 2.29198 0
M  V30 7328 C 678.933 -0.726219 1.43467 0
M  V30 7329 O 680.123 -0.563807 1.64824 0
M  V30 7330 C 677.255 -0.996316 3.26016 0
M  V30 7331 H 678.448 0.775071 2.89711 0
M  V30 7332 H 676.001 0.440065 1.49977 0
M  V30 7333 H 676.736 -1.78967 2.70446 0
M  V30 7334 H 676.521 -0.471687 3.89253 0
M  V30 7335 H 678.011 -1.46167 3.91184 0
M  V30 7336 N 678.448 -1.51871 0.421078 0
M  V30 7337 C 679.725 -1.9447 -0.20993 0
M  V30 7338 C 680.105 -1.35875 -1.61558 0
M  V30 7339 O 679.453 -0.539294 -2.22045 0
M  V30 7340 C 679.663 -3.48402 -0.204165 0
M  V30 7341 C 681.011 -4.2254 -0.417696 0
M  V30 7342 O 682.035 -3.55074 -0.282999 0
M  V30 7343 O 680.894 -5.422 -0.684239 0
M  V30 7344 H 677.988 -0.815283 -0.138718 0
M  V30 7345 H 680.534 -1.62832 0.477884 0
M  V30 7346 H 679.306 -3.83464 0.779183 0
M  V30 7347 H 678.929 -3.86436 -0.935576 0
M  V30 7348 N 679.926 -0.151884 -1.56866 0
M  V30 7349 C 681.173 0.498004 -1.96281 0
M  V30 7350 C 681.501 1.64551 -1.03698 0
M  V30 7351 O 680.756 1.95585 -0.0671497 0
M  V30 7352 C 681.055 1.04074 -3.41911 0
M  V30 7353 C 680.721 0.0111688 -4.50899 0
M  V30 7354 C 679.383 -0.271844 -4.80432 0
M  V30 7355 C 681.735 -0.68869 -5.1663 0
M  V30 7356 C 679.063 -1.26044 -5.73001 0
M  V30 7357 C 681.415 -1.66613 -6.10264 0
M  V30 7358 C 680.079 -1.9568 -6.38174 0
M  V30 7359 H 679.349 0.182233 -0.718242 0
M  V30 7360 H 681.996 -0.239746 -1.89993 0
M  V30 7361 H 680.301 1.85592 -3.45055 0
M  V30 7362 H 681.998 1.55224 -3.69738 0
M  V30 7363 H 678.588 0.241932 -4.27917 0
M  V30 7364 H 682.772 -0.48324 -4.93942 0
M  V30 7365 H 678.028 -1.49202 -5.92915 0
M  V30 7366 H 682.202 -2.21392 -6.60272 0
M  V30 7367 H 679.829 -2.72434 -7.09707 0
M  V30 7368 N 681.404 1.57128 0.121893 0
M  V30 7369 C 682.644 1.86517 0.836113 0
M  V30 7370 C 683.008 0.739497 1.77188 0
M  V30 7371 O 684.209 0.91508 2.52744 0
M  V30 7372 C 682.48 3.21129 1.56878 0
M  V30 7373 S 684.039 3.72143 2.32497 0
M  V30 7374 H 680.857 0.653923 0.279115 0
M  V30 7375 H 683.459 1.95271 0.0946254 0
M  V30 7376 H 682.163 4.01002 0.873255 0
M  V30 7377 H 681.694 3.15446 2.35069 0
M  V30 7378 H 683.709 3.43413 3.58164 0
M  V30 7379 N 682.882 -0.391992 1.52647 0
M  V30 7380 C 683.815 -1.50019 1.71958 0
M  V30 7381 C 684.793 -1.5238 0.567365 0
M  V30 7382 O 685.977 -1.70831 0.796806 0
M  V30 7383 C 683.104 -2.88496 1.77447 0
M  V30 7384 C 682.15 -3.03974 2.99169 0
M  V30 7385 S 682.983 -2.75487 4.59203 0
M  V30 7386 C 684.139 -4.16163 4.67503 0
M  V30 7387 H 684.372 -1.33413 2.65685 0
M  V30 7388 H 681.905 -0.584674 1.42902 0
M  V30 7389 H 683.863 -3.68296 1.81296 0
M  V30 7390 H 682.524 -3.02431 0.848188 0
M  V30 7391 H 681.717 -4.05328 2.99542 0
M  V30 7392 H 681.319 -2.32062 2.93297 0
M  V30 7393 H 683.611 -5.10048 4.45934 0
M  V30 7394 H 684.554 -4.20806 5.69498 0
M  V30 7395 H 684.962 -4.01933 3.96371 0
M  V30 7396 N 684.36 -1.4356 -0.65026 0
M  V30 7397 C 685.608 -1.45046 -1.40734 0
M  V30 7398 C 685.929 -0.0769822 -1.94848 0
M  V30 7399 O 685.199 0.888098 -1.74613 0
M  V30 7400 H 683.779 -0.534034 -0.522318 0
M  V30 7401 H 686.441 -1.79186 -0.766703 0
M  V30 7402 H 685.537 -2.16476 -2.24822 0
M  V30 7403 N 685.838 0.888903 -1.30139 0
M  V30 7404 C 686.771 1.99655 -1.10514 0
M  V30 7405 C 687.749 1.62594 -0.0138934 0
M  V30 7406 O 688.933 1.87762 -0.166689 0
M  V30 7407 C 686.06 3.31708 -0.684655 0
M  V30 7408 C 685.106 3.87755 -1.77619 0
M  V30 7409 S 685.939 4.15532 -3.37777 0
M  V30 7410 C 687.095 5.5061 -2.97622 0
M  V30 7411 H 687.328 2.15996 -2.04287 0
M  V30 7412 H 684.861 1.03682 -1.14409 0
M  V30 7413 H 686.819 4.08039 -0.448782 0
M  V30 7414 H 685.48 3.1323 0.233648 0
M  V30 7415 H 684.673 4.83164 -1.43417 0
M  V30 7416 H 684.275 3.18149 -1.96614 0
M  V30 7417 H 686.567 6.31518 -2.45338 0
M  V30 7418 H 687.51 5.89747 -3.91924 0
M  V30 7419 H 687.918 5.12983 -2.35603 0
M  V30 7420 N 687.317 1.12792 1.10072 0
M  V30 7421 C 688.547 0.907189 1.85617 0
M  V30 7422 C 688.955 -0.547181 1.81115 0
M  V30 7423 O 688.298 -1.39024 1.20075 0
M  V30 7424 C 688.36 1.30872 3.34832 0
M  V30 7425 C 688.024 2.77516 3.6309 0
M  V30 7426 C 689.021 3.75696 3.59373 0
M  V30 7427 C 686.706 3.14513 3.91646 0
M  V30 7428 C 688.7 5.08888 3.83812 0
M  V30 7429 C 686.387 4.47886 4.15742 0
M  V30 7430 C 687.385 5.44882 4.11816 0
M  V30 7431 O 687.073 6.7585 4.35295 0
M  V30 7432 H 686.805 0.323855 0.593375 0
M  V30 7433 H 689.359 1.50262 1.40038 0
M  V30 7434 H 687.589 0.656518 3.81086 0
M  V30 7435 H 689.278 1.06153 3.91773 0
M  V30 7436 H 690.044 3.48458 3.37345 0
M  V30 7437 H 685.923 2.39622 3.93831 0
M  V30 7438 H 689.467 5.84586 3.80663 0
M  V30 7439 H 685.364 4.74851 4.37249 0
M  V30 7440 H 686.132 6.81853 4.52791 0
M  V30 7441 N 688.795 -1.27931 0.920396 0
M  V30 7442 C 689.725 -2.29487 0.431024 0
M  V30 7443 C 690.706 -1.62435 -0.504861 0
M  V30 7444 O 691.891 -1.89797 -0.411176 0
M  V30 7445 C 689.021 -3.45788 -0.323709 0
M  V30 7446 C 687.975 -4.24784 0.523658 0
M  V30 7447 C 687.301 -5.33488 -0.359809 0
M  V30 7448 C 688.601 -4.90874 1.78437 0
M  V30 7449 H 690.295 -2.70671 1.27975 0
M  V30 7450 H 687.841 -1.30121 0.616813 0
M  V30 7451 H 689.794 -4.15927 -0.676952 0
M  V30 7452 H 688.518 -3.03502 -1.2064 0
M  V30 7453 H 687.177 -3.56382 0.85951 0
M  V30 7454 H 686.825 -4.87445 -1.24124 0
M  V30 7455 H 686.525 -5.87247 0.203605 0
M  V30 7456 H 688.049 -6.06472 -0.708787 0
M  V30 7457 H 689.463 -5.53339 1.49963 0
M  V30 7458 H 687.86 -5.54659 2.29071 0
M  V30 7459 H 688.93 -4.14988 2.50824 0
M  V30 7460 N 690.273 -0.685099 -1.4193 0
M  V30 7461 C 691.203 -0.0273506 -2.33484 0
M  V30 7462 C 692.184 0.778366 -1.51246 0
M  V30 7463 O 693.369 0.733449 -1.79817 0
M  V30 7464 C 690.499 0.917272 -3.34968 0
M  V30 7465 C 689.453 0.21941 -4.27437 0
M  V30 7466 C 688.779 1.27768 -5.1921 0
M  V30 7467 C 690.079 -0.907894 -5.14349 0
M  V30 7468 H 691.773 -0.791994 -2.88735 0
M  V30 7469 H 689.319 -0.382308 -1.38832 0
M  V30 7470 H 691.272 1.38657 -3.97935 0
M  V30 7471 H 689.996 1.71346 -2.78043 0
M  V30 7472 H 688.655 -0.229757 -3.65879 0
M  V30 7473 H 688.303 2.06612 -4.58607 0
M  V30 7474 H 688.003 0.815803 -5.81909 0
M  V30 7475 H 689.527 1.7477 -5.85054 0
M  V30 7476 H 690.941 -0.519348 -5.70943 0
M  V30 7477 H 689.338 -1.2962 -5.85934 0
M  V30 7478 H 690.408 -1.75218 -4.52136 0
M  V30 7479 N 691.751 1.51645 -0.429126 0
M  V30 7480 C 692.681 2.30434 0.377148 0
M  V30 7481 C 693.662 1.35493 1.02838 0
M  V30 7482 O 694.847 1.6441 1.03359 0
M  V30 7483 C 691.977 3.14038 1.48315 0
M  V30 7484 C 690.931 4.1719 0.955855 0
M  V30 7485 C 690.257 4.89263 2.15698 0
M  V30 7486 C 691.557 5.223 -0.00402136 0
M  V30 7487 H 693.251 2.98085 -0.280336 0
M  V30 7488 H 690.797 1.43354 -0.136265 0
M  V30 7489 H 692.75 3.67933 2.05435 0
M  V30 7490 H 691.474 2.44193 2.16881 0
M  V30 7491 H 690.133 3.64335 0.406929 0
M  V30 7492 H 689.781 4.15929 2.82864 0
M  V30 7493 H 689.481 5.59009 1.81059 0
M  V30 7494 H 691.005 5.45978 2.73387 0
M  V30 7495 H 692.419 5.71315 0.476607 0
M  V30 7496 H 690.816 5.99525 -0.26258 0
M  V30 7497 H 691.886 4.75638 -0.943236 0
M  V30 7498 N 693.229 0.160201 1.56784 0
M  V30 7499 C 694.478 -0.487619 1.95717 0
M  V30 7500 C 694.791 -1.65136 1.0483 0
M  V30 7501 O 695.997 -2.36468 1.33398 0
M  V30 7502 C 694.453 -0.91888 3.47972 0
M  V30 7503 C 694.061 0.218655 4.47466 0
M  V30 7504 C 695.805 -1.53575 3.95746 0
M  V30 7505 C 693.712 -0.231614 5.90946 0
M  V30 7506 H 692.642 -0.185939 0.730714 0
M  V30 7507 H 695.293 0.246657 1.81835 0
M  V30 7508 H 693.675 -1.70881 3.57234 0
M  V30 7509 H 694.849 0.995825 4.49911 0
M  V30 7510 H 693.164 0.744767 4.09685 0
M  V30 7511 H 695.761 -1.88448 5.00391 0
M  V30 7512 H 696.104 -2.42959 3.38048 0
M  V30 7513 H 696.637 -0.810467 3.89456 0
M  V30 7514 H 693.376 0.62718 6.52493 0
M  V30 7515 H 692.896 -0.974379 5.91833 0
M  V30 7516 H 694.575 -0.67922 6.43425 0
M  V30 7517 N 694.707 -1.5719 -0.113559 0
M  V30 7518 C 695.67 -1.99796 -1.12314 0
M  V30 7519 C 696.67 -0.888847 -1.34001 0
M  V30 7520 O 697.86 -1.15476 -1.30426 0
M  V30 7521 C 694.992 -2.34279 -2.47641 0
M  V30 7522 H 696.185 -2.90193 -0.756825 0
M  V30 7523 H 693.738 -1.52144 -0.358029 0
M  V30 7524 H 694.473 -1.46778 -2.89183 0
M  V30 7525 H 694.258 -3.15175 -2.33253 0
M  V30 7526 H 695.748 -2.67963 -3.2029 0
M  V30 7527 N 696.185 0.383891 -1.52853 0
M  V30 7528 C 697.41 1.154 -1.7233 0
M  V30 7529 C 697.835 1.82809 -0.44298 0
M  V30 7530 O 697.193 1.71026 0.601645 0
M  V30 7531 C 697.241 2.17386 -2.87708 0
M  V30 7532 O 696.345 3.24082 -2.55038 0
M  V30 7533 H 695.686 0.335709 -0.572883 0
M  V30 7534 H 698.216 0.44662 -1.99666 0
M  V30 7535 H 698.226 2.61296 -3.1335 0
M  V30 7536 H 696.901 1.6771 -3.80587 0
M  V30 7537 H 695.478 2.85273 -2.40153 0
M  V30 7538 N 697.663 1.43903 0.642637 0
M  V30 7539 C 698.909 1.46296 1.40447 0
M  V30 7540 C 699.242 0.0908361 1.93987 0
M  V30 7541 O 698.517 -0.889884 1.72949 0
M  V30 7542 C 698.8 2.51399 2.57819 0
M  V30 7543 C 698.653 3.97926 2.09702 0
M  V30 7544 C 699.972 2.53125 3.60022 0
M  V30 7545 H 697.091 0.532676 0.509338 0
M  V30 7546 H 699.733 1.75515 0.727635 0
M  V30 7547 H 697.883 2.26614 3.1556 0
M  V30 7548 H 699.555 4.33804 1.5688 0
M  V30 7549 H 697.798 4.10252 1.40982 0
M  V30 7550 H 698.469 4.67096 2.94152 0
M  V30 7551 H 700.945 2.75242 3.12059 0
M  V30 7552 H 699.821 3.28589 4.39682 0
M  V30 7553 H 700.082 1.56895 4.13324 0
M  V30 7554 N 699.141 -0.881989 1.30609 0
M  V30 7555 C 700.418 -1.61563 1.10258 0
M  V30 7556 C 700.798 -2.08228 -0.347053 0
M  V30 7557 O 700.146 -1.85151 -1.33908 0
M  V30 7558 C 700.356 -2.78287 2.10612 0
M  V30 7559 C 701.704 -3.48545 2.4249 0
M  V30 7560 O 702.728 -2.88479 2.08945 0
M  V30 7561 O 701.587 -4.56873 2.99883 0
M  V30 7562 H 698.681 -0.710238 0.423663 0
M  V30 7563 H 701.227 -0.928503 1.42045 0
M  V30 7564 H 699.999 -2.41131 3.08174 0
M  V30 7565 H 699.622 -3.54695 1.79659 0
M  V30 7566 N 700.619 -1.13374 -1.09472 0
M  V30 7567 C 701.549 -0.833268 -2.18126 0
M  V30 7568 C 702.53 0.207169 -1.68834 0
M  V30 7569 O 703.715 0.0662012 -1.94087 0
M  V30 7570 C 700.845 -0.297979 -3.46019 0
M  V30 7571 C 699.799 -1.27261 -4.08642 0
M  V30 7572 C 699.125 -0.597104 -5.31356 0
M  V30 7573 C 700.425 -2.63095 -4.51197 0
M  V30 7574 H 702.119 -1.74182 -2.43518 0
M  V30 7575 H 699.665 -0.838921 -1.17039 0
M  V30 7576 H 701.618 -0.0754444 -4.21332 0
M  V30 7577 H 700.342 0.645959 -3.20148 0
M  V30 7578 H 699.001 -1.48113 -3.35348 0
M  V30 7579 H 698.649 0.352293 -5.01765 0
M  V30 7580 H 698.349 -1.24734 -5.74208 0
M  V30 7581 H 699.873 -0.38384 -6.09392 0
M  V30 7582 H 701.287 -2.46214 -5.17737 0
M  V30 7583 H 699.684 -3.2429 -5.04932 0
M  V30 7584 H 700.754 -3.20793 -3.6362 0
M  V30 7585 N 702.098 1.27442 -0.927168 0
M  V30 7586 C 703.328 1.9821 -0.582775 0
M  V30 7587 C 703.736 1.69361 0.843406 0
M  V30 7588 O 703.079 0.950381 1.57205 0
M  V30 7589 C 703.141 3.52048 -0.728165 0
M  V30 7590 C 702.805 4.04518 -2.12637 0
M  V30 7591 C 703.802 4.17332 -3.10048 0
M  V30 7592 C 701.487 4.38879 -2.44317 0
M  V30 7593 C 703.481 4.6378 -4.37249 0
M  V30 7594 C 701.168 4.85018 -3.71753 0
M  V30 7595 C 702.166 4.97428 -4.68033 0
M  V30 7596 O 701.854 5.42556 -5.93202 0
M  V30 7597 H 701.586 0.639314 -0.219667 0
M  V30 7598 H 704.14 1.63272 -1.24626 0
M  V30 7599 H 702.37 3.86699 -0.00758143 0
M  V30 7600 H 704.059 4.04033 -0.388906 0
M  V30 7601 H 704.825 3.91046 -2.86894 0
M  V30 7602 H 700.704 4.28462 -1.70121 0
M  V30 7603 H 704.248 4.73382 -5.12402 0
M  V30 7604 H 700.145 5.10746 -3.94726 0
M  V30 7605 H 700.913 5.60811 -5.96182 0
M  V30 7606 N 703.576 0.692616 1.41565 0
M  V30 7607 C 704.804 0.231279 2.05603 0
M  V30 7608 C 705.219 -1.11837 1.52111 0
M  V30 7609 O 704.576 -1.6983 0.66813 0
M  V30 7610 C 704.627 0.177125 3.61066 0
M  V30 7611 O 704.348 1.47346 4.12578 0
M  V30 7612 C 705.849 -0.30556 4.42246 0
M  V30 7613 H 703.069 0.108238 0.662213 0
M  V30 7614 H 705.613 0.944369 1.81389 0
M  V30 7615 H 703.768 -0.486769 3.8433 0
M  V30 7616 H 704.182 1.35861 5.06599 0
M  V30 7617 H 705.656 -0.29233 5.51225 0
M  V30 7618 H 706.133 -1.34393 4.18133 0
M  V30 7619 H 706.739 0.327229 4.24039 0
M  V30 7620 N 705.054 -1.51416 0.437162 0
M  V30 7621 C 706.004 -2.24599 -0.392311 0
M  V30 7622 C 706.988 -1.2682 -0.990221 0
M  V30 7623 O 708.18 -1.51912 -0.908391 0
M  V30 7624 C 705.309 -3.09134 -1.49301 0
M  V30 7625 C 704.395 -4.14342 -0.904503 0
M  V30 7626 N 704.786 -5.0578 -0.0451511 0
M  V30 7627 C 703.084 -4.30323 -1.1721 0
M  V30 7628 C 703.785 -5.81 0.285344 0
M  V30 7629 N 702.761 -5.42591 -0.330993 0
M  V30 7630 H 706.563 -2.92655 0.270221 0
M  V30 7631 H 704.077 -1.60476 0.249226 0
M  V30 7632 H 706.074 -3.6014 -2.10011 0
M  V30 7633 H 704.734 -2.42622 -2.15788 0
M  V30 7634 H 705.745 -5.16903 0.321271 0
M  V30 7635 H 702.422 -3.75037 -1.83448 0
M  V30 7636 H 703.812 -6.64646 0.984626 0
M  V30 7637 N 706.532 -0.168513 -1.56696 0
M  V30 7638 C 707.757 0.486688 -2.01609 0
M  V30 7639 C 708.182 1.56203 -1.04796 0
M  V30 7640 O 707.54 1.8128 -0.0270596 0
M  V30 7641 C 707.588 1.04451 -3.45141 0
M  V30 7642 O 706.692 2.15862 -3.51393 0
M  V30 7643 H 706.033 0.116831 -0.653641 0
M  V30 7644 H 708.563 -0.271579 -2.0279 0
M  V30 7645 H 708.573 1.36782 -3.84389 0
M  V30 7646 H 707.248 0.257155 -4.15104 0
M  V30 7647 H 705.825 1.84597 -3.24004 0
M  V30 7648 N 708.01 1.57248 0.105221 0
M  V30 7649 C 708.92 2.04653 1.14693 0
M  V30 7650 C 709.936 0.969488 1.44489 0
M  V30 7651 O 711.112 1.28196 1.55331 0
M  V30 7652 C 708.177 2.45297 2.45011 0
M  V30 7653 C 707.238 3.67148 2.22489 0
M  V30 7654 C 706.471 4.05844 3.46592 0
M  V30 7655 O 706.694 3.44736 4.54437 0
M  V30 7656 O 705.628 4.98862 3.36779 0
M  V30 7657 H 709.454 2.93663 0.774336 0
M  V30 7658 H 707.039 1.45998 0.31701 0
M  V30 7659 H 708.921 2.72112 3.21766 0
M  V30 7660 H 707.596 1.59429 2.81717 0
M  V30 7661 H 706.503 3.45463 1.43547 0
M  V30 7662 H 707.836 4.53764 1.9068 0
M  V30 7663 N 709.488 -0.375779 1.53054 0
M  V30 7664 C 710.718 -1.1387 1.72386 0
M  V30 7665 C 711.126 -1.8382 0.447966 0
M  V30 7666 O 710.469 -1.74027 -0.588244 0
M  V30 7667 C 710.531 -2.22047 2.82728 0
M  V30 7668 C 710.195 -1.71951 4.23417 0
M  V30 7669 C 711.192 -1.18909 5.06119 0
M  V30 7670 C 708.877 -1.77773 4.69789 0
M  V30 7671 C 710.871 -0.723529 6.3328 0
M  V30 7672 C 708.558 -1.30829 5.96931 0
M  V30 7673 C 709.556 -0.782077 6.78508 0
M  V30 7674 O 709.244 -0.319529 8.03265 0
M  V30 7675 H 708.976 -0.346835 0.580242 0
M  V30 7676 H 711.53 -0.443748 2.00549 0
M  V30 7677 H 709.76 -2.95006 2.50017 0
M  V30 7678 H 711.449 -2.83654 2.90336 0
M  V30 7679 H 712.215 -1.13758 4.7147 0
M  V30 7680 H 708.094 -2.17673 4.06373 0
M  V30 7681 H 711.638 -0.312126 6.96901 0
M  V30 7682 H 707.535 -1.3567 6.31081 0
M  V30 7683 H 708.303 -0.439796 8.17318 0
M  V30 7684 N 710.966 -1.44241 -0.634997 0
M  V30 7685 C 712.196 -1.50078 -1.41987 0
M  V30 7686 C 712.604 -0.123072 -1.88799 0
M  V30 7687 O 711.947 0.880552 -1.6122 0
M  V30 7688 C 712.009 -2.40033 -2.67628 0
M  V30 7689 C 711.673 -3.87268 -2.42637 0
M  V30 7690 C 712.67 -4.77902 -2.04708 0
M  V30 7691 C 710.355 -4.31933 -2.56396 0
M  V30 7692 C 712.349 -6.11202 -1.80862 0
M  V30 7693 C 710.036 -5.65281 -2.32164 0
M  V30 7694 C 711.034 -6.54734 -1.94455 0
M  V30 7695 O 710.722 -7.85613 -1.7049 0
M  V30 7696 H 710.454 -0.51146 -0.442023 0
M  V30 7697 H 713.008 -1.89843 -0.784138 0
M  V30 7698 H 711.238 -1.95188 -3.33824 0
M  V30 7699 H 712.927 -2.36863 -3.29622 0
M  V30 7700 H 713.693 -4.44668 -1.93638 0
M  V30 7701 H 709.572 -3.62569 -2.84719 0
M  V30 7702 H 713.116 -6.80983 -1.51353 0
M  V30 7703 H 709.013 -5.98078 -2.42843 0
M  V30 7704 H 709.781 -7.97373 -1.84767 0
M  V30 7705 N 712.444 0.87505 -1.31075 0
M  V30 7706 C 713.392 2.00317 -1.18219 0
M  V30 7707 C 714.386 1.69152 -0.0916872 0
M  V30 7708 O 715.592 1.7821 -0.253229 0
M  V30 7709 H 711.967 0.656981 -0.365895 0
M  V30 7710 H 713.938 2.08293 -2.13674 0
M  V30 7711 C 712.687 3.35821 -0.901095 0
M  V30 7712 H 712.01 3.6032 -1.73233 0
M  V30 7713 H 713.45 4.15366 -0.851295 0
M  V30 7714 C 711.909 3.34563 0.396114 0
M  V30 7715 O 712.439 3.75971 1.41452 0
M  V30 7716 N 710.645 2.87681 0.410832 0
M  V30 7717 H 710.192 2.54179 -0.418415 0
M  V30 7718 H 710.15 2.87223 1.27869 0
M  V30 7719 N 713.922 1.13953 1.08869 0
M  V30 7720 C 714.872 0.790812 2.13846 0
M  V30 7721 C 715.856 -0.217819 1.59419 0
M  V30 7722 O 717.048 -0.0208723 1.76988 0
M  V30 7723 C 714.177 0.26479 3.42277 0
M  V30 7724 C 713.263 1.30267 4.03598 0
M  V30 7725 N 713.654 2.50535 4.39393 0
M  V30 7726 C 711.952 1.15178 4.30871 0
M  V30 7727 C 712.653 3.16938 4.87776 0
M  V30 7728 N 711.629 2.44349 4.85587 0
M  V30 7729 H 715.431 1.70577 2.39334 0
M  V30 7730 H 712.945 1.02268 1.26154 0
M  V30 7731 H 714.942 -0.00330398 4.169 0
M  V30 7732 H 713.602 -0.644419 3.18241 0
M  V30 7733 H 714.613 2.87798 4.30572 0
M  V30 7734 H 711.29 0.301204 4.16412 0
M  V30 7735 H 712.68 4.19453 5.2489 0
M  V30 7736 N 715.4 -1.26948 0.933913 0
M  V30 7737 C 716.363 -2.24889 0.442457 0
M  V30 7738 C 717.363 -1.54594 -0.442426 0
M  V30 7739 O 718.553 -1.72502 -0.242629 0
M  V30 7740 C 715.685 -3.3896 -0.363173 0
M  V30 7741 H 716.878 -2.69879 1.30787 0
M  V30 7742 H 714.431 -1.38978 0.715187 0
M  V30 7743 H 715.166 -2.99361 -1.24714 0
M  V30 7744 H 714.951 -3.9116 0.271366 0
M  V30 7745 H 716.441 -4.11739 -0.697186 0
M  V30 7746 N 716.879 -0.700114 -1.41195 0
M  V30 7747 C 718.128 -0.230082 -2.00383 0
M  V30 7748 C 718.441 1.17857 -1.56106 0
M  V30 7749 O 719.647 1.74631 -2.07885 0
M  V30 7750 C 718.103 -0.360447 -3.5809 0
M  V30 7751 C 717.711 -1.77475 -4.11347 0
M  V30 7752 C 719.455 0.0495799 -4.24471 0
M  V30 7753 C 717.362 -1.85653 -5.61504 0
M  V30 7754 H 716.292 -0.0822633 -0.749499 0
M  V30 7755 H 718.943 -0.868969 -1.6162 0
M  V30 7756 H 717.325 0.346768 -3.94479 0
M  V30 7757 H 718.499 -2.51109 -3.86369 0
M  V30 7758 H 716.814 -2.13486 -3.57509 0
M  V30 7759 H 719.411 0.00898219 -5.34699 0
M  V30 7760 H 719.754 1.08904 -4.01803 0
M  V30 7761 H 720.287 -0.607521 -3.93134 0
M  V30 7762 H 717.026 -2.87667 -5.89006 0
M  V30 7763 H 716.546 -1.1641 -5.88395 0
M  V30 7764 H 718.225 -1.62151 -6.26351 0
M  V30 7765 N 718.357 1.51182 -0.445186 0
M  V30 7766 C 719.634 1.9478 0.178965 0
M  V30 7767 C 720.014 1.38428 1.59376 0
M  V30 7768 O 719.362 0.574552 2.21159 0
M  V30 7769 C 719.572 3.48683 0.148711 0
M  V30 7770 C 720.92 4.23152 0.35042 0
M  V30 7771 O 721.944 3.55479 0.226474 0
M  V30 7772 O 720.803 5.4322 0.597893 0
M  V30 7773 H 717.897 0.817387 0.12573 0
M  V30 7774 H 720.443 1.62051 -0.503729 0
M  V30 7775 H 719.215 3.82176 -0.84009 0
M  V30 7776 H 718.838 3.87875 0.873979 0
M  V30 7777 N 719.835 0.176821 1.56605 0
M  V30 7778 C 721.081 -0.460868 1.9811 0
M  V30 7779 C 721.436 -1.60488 1.06119 0
M  V30 7780 O 720.729 -1.91329 0.101939 0
M  V30 7781 C 720.923 -0.986208 3.43524 0
M  V30 7782 C 720.752 0.105368 4.49577 0
M  V30 7783 C 719.522 0.556883 5.02222 0
M  V30 7784 C 721.72 0.907756 5.06226 0
M  V30 7785 N 719.702 1.62819 5.91915 0
M  V30 7786 C 721.073 1.82887 5.92412 0
M  V30 7787 C 723.128 0.952221 4.8871 0
M  V30 7788 C 721.831 2.7907 6.62957 0
M  V30 7789 C 723.857 1.90202 5.5998 0
M  V30 7790 C 723.219 2.8106 6.45898 0
M  V30 7791 H 719.318 -0.136589 0.769979 0
M  V30 7792 H 721.902 0.278307 1.92701 0
M  V30 7793 H 720.073 -1.69489 3.49468 0
M  V30 7794 H 721.805 -1.59298 3.7203 0
M  V30 7795 H 718.56 0.153575 4.73351 0
M  V30 7796 H 718.984 2.1645 6.41466 0
M  V30 7797 H 723.626 0.263794 4.21976 0
M  V30 7798 H 721.344 3.48898 7.28901 0
M  V30 7799 H 724.93 1.9426 5.48411 0
M  V30 7800 H 723.81 3.53357 7.00077 0
M  V30 7801 N 721.313 -1.57302 -0.09688 0
M  V30 7802 C 722.245 -1.98618 -1.14384 0
M  V30 7803 C 723.258 -0.888483 -1.36418 0
M  V30 7804 O 724.447 -1.16661 -1.35101 0
M  V30 7805 C 721.547 -2.28838 -2.49973 0
M  V30 7806 C 720.72 -3.60132 -2.48241 0
M  V30 7807 C 719.779 -3.7831 -3.65743 0
M  V30 7808 O 718.805 -4.50183 -3.48316 0
M  V30 7809 N 720.007 -3.18752 -4.85157 0
M  V30 7810 H 722.772 -2.8904 -0.792202 0
M  V30 7811 H 720.333 -1.59356 -0.285883 0
M  V30 7812 H 722.325 -2.38193 -3.27179 0
M  V30 7813 H 720.895 -1.44431 -2.77233 0
M  V30 7814 H 720.115 -3.61763 -1.56593 0
M  V30 7815 H 721.403 -4.46389 -2.4416 0
M  V30 7816 H 720.801 -2.60368 -5.0222 0
M  V30 7817 H 719.358 -3.33595 -5.59962 0
M  V30 7818 N 722.791 0.367657 -1.53252 0
M  V30 7819 C 724.019 1.13119 -1.73239 0
M  V30 7820 C 724.434 1.831 -0.460404 0
M  V30 7821 O 723.791 1.73483 0.566557 0
M  V30 7822 C 723.842 2.16308 -2.89643 0
M  V30 7823 O 723.563 1.49175 -4.1192 0
M  V30 7824 C 725.064 3.05224 -3.21486 0
M  V30 7825 H 722.284 0.338318 -0.579467 0
M  V30 7826 H 724.828 0.42721 -1.99988 0
M  V30 7827 H 722.983 2.82307 -2.65295 0
M  V30 7828 H 723.397 2.17912 -4.7709 0
M  V30 7829 H 724.871 3.73613 -4.06346 0
M  V30 7830 H 725.348 3.69919 -2.36763 0
M  V30 7831 H 725.954 2.44843 -3.47753 0
M  V30 7832 N 724.269 1.44576 0.627338 0
M  V30 7833 C 725.517 1.47267 1.38408 0
M  V30 7834 C 725.838 0.107971 1.94701 0
M  V30 7835 O 725.108 -0.860206 1.76004 0
M  V30 7836 H 723.688 0.542276 0.513756 0
M  V30 7837 H 726.35 1.80383 0.738099 0
M  V30 7838 H 725.446 2.20025 2.21349 0
M  V30 7839 N 725.747 -0.868086 1.31537 0
M  V30 7840 C 727.158 -1.437 1.19195 0
M  V30 7841 C 727.509 -1.95169 -0.200842 0
M  V30 7842 O 726.634 -1.86432 -1.09872 0
M  V30 7843 C 727.229 -2.612 2.15778 0
M  V30 7844 C 725.788 -3.1413 2.07363 0
M  V30 7845 C 724.935 -1.86845 2.049 0
M  V30 7846 H 727.886 -0.676457 1.43561 0
M  V30 7847 H 727.907 -3.37948 1.74847 0
M  V30 7848 H 727.419 -2.23709 3.17137 0
M  V30 7849 H 725.52 -3.56238 1.09204 0
M  V30 7850 H 725.633 -3.76285 2.96557 0
M  V30 7851 H 723.997 -2.05886 1.49943 0
M  V30 7852 H 724.78 -1.51589 3.08019 0
M  V30 7853 N 727.225 -1.14528 -1.08264 0
M  V30 7854 C 728.473 -0.912599 -1.80322 0
M  V30 7855 C 728.794 0.562256 -1.86718 0
M  V30 7856 O 728.064 1.40869 -1.36135 0
M  V30 7857 H 726.644 -0.334645 -0.667849 0
M  V30 7858 H 729.306 -1.44415 -1.30883 0
M  V30 7859 H 728.402 -1.31384 -2.83098 0
M  V30 7860 N 728.703 1.26451 -0.940633 0
M  V30 7861 C 729.943 1.95537 -0.595381 0
M  V30 7862 C 730.307 1.72175 0.849683 0
M  V30 7863 O 731.508 2.3506 1.30384 0
M  V30 7864 C 729.779 3.45151 -0.927669 0
M  V30 7865 S 731.338 4.33295 -0.69288 0
M  V30 7866 H 728.156 0.676331 -0.219311 0
M  V30 7867 H 730.758 1.53411 -1.21183 0
M  V30 7868 H 729.462 3.59654 -1.9768 0
M  V30 7869 H 728.993 3.92247 -0.300921 0
M  V30 7870 H 731.008 4.94217 0.443175 0
M  V30 7871 N 730.181 0.707592 1.40822 0
M  V30 7872 C 731.129 0.0386643 2.32568 0
M  V30 7873 C 732.123 -0.755653 1.51612 0
M  V30 7874 O 733.329 -0.659921 1.67467 0
M  V30 7875 H 729.704 -0.00629912 0.751974 0
M  V30 7876 H 731.675 0.8293 2.86645 0
M  V30 7877 C 730.424 -0.87496 3.36511 0
M  V30 7878 H 729.747 -0.273157 3.98866 0
M  V30 7879 H 731.187 -1.31111 4.03219 0
M  V30 7880 C 729.646 -1.99672 2.71353 0
M  V30 7881 O 730.176 -3.08676 2.57064 0
M  V30 7882 N 728.382 -1.77799 2.29861 0
M  V30 7883 H 727.929 -0.89147 2.41683 0
M  V30 7884 H 727.887 -2.53036 1.86601 0
M  V30 7885 N 731.66 -1.50943 0.453197 0
M  V30 7886 C 732.888 -2.06628 -0.106135 0
M  V30 7887 C 733.303 -1.31901 -1.35084 0
M  V30 7888 O 732.66 -0.383074 -1.78434 0
M  V30 7889 C 732.711 -3.5914 -0.412368 0
M  V30 7890 O 732.432 -4.31047 0.782948 0
M  V30 7891 C 733.933 -4.31391 -1.02064 0
M  V30 7892 H 731.153 -0.670999 -0.000885896 0
M  V30 7893 H 733.697 -1.94331 0.63684 0
M  V30 7894 H 731.852 -3.71299 -1.10526 0
M  V30 7895 H 732.266 -5.21948 0.516736 0
M  V30 7896 H 733.74 -5.39135 -1.1848 0
M  V30 7897 H 734.217 -3.90714 -2.00598 0
M  V30 7898 H 734.823 -4.23716 -0.366664 0
M  V30 7899 N 733.138 -0.185124 -1.56509 0
M  V30 7900 C 734.101 0.72591 -2.17401 0
M  V30 7901 C 735.101 1.14819 -1.12575 0
M  V30 7902 O 736.291 1.0629 -1.38015 0
M  V30 7903 C 733.423 1.98979 -2.76803 0
M  V30 7904 H 734.616 0.195588 -2.99262 0
M  V30 7905 H 732.169 0.0644772 -1.56167 0
M  V30 7906 H 732.904 2.56287 -1.98714 0
M  V30 7907 H 732.689 1.69583 -3.53531 0
M  V30 7908 H 734.179 2.63966 -3.23592 0
M  V30 7909 N 734.616 1.57351 0.0885366 0
M  V30 7910 C 735.864 1.86051 0.789262 0
M  V30 7911 C 736.185 0.774763 1.78948 0
M  V30 7912 O 735.455 -0.198324 1.94894 0
M  V30 7913 H 734.035 0.686508 0.294475 0
M  V30 7914 H 736.697 1.94779 0.0686055 0
M  V30 7915 H 735.793 2.83007 1.31581 0
M  V30 7916 N 736.094 -0.359525 1.53444 0
M  V30 7917 C 737.341 -1.10152 1.6992 0
M  V30 7918 C 737.669 -1.89125 0.4541 0
M  V30 7919 O 736.924 -1.87396 -0.564023 0
M  V30 7920 C 737.223 -2.08287 2.90433 0
M  V30 7921 C 736.889 -1.45749 4.26694 0
M  V30 7922 C 735.551 -1.28421 4.63747 0
M  V30 7923 C 737.903 -1.00557 5.11408 0
M  V30 7924 C 735.231 -0.644951 5.83144 0
M  V30 7925 C 737.583 -0.380288 6.31456 0
M  V30 7926 C 736.247 -0.194557 6.67216 0
M  V30 7927 H 735.517 -0.403076 0.621781 0
M  V30 7928 H 738.164 -0.382612 1.87639 0
M  V30 7929 H 736.469 -2.86503 2.67251 0
M  V30 7930 H 738.166 -2.65662 3.00374 0
M  V30 7931 H 734.756 -1.6023 3.97523 0
M  V30 7932 H 738.94 -1.12735 4.83326 0
M  V30 7933 H 734.196 -0.48952 6.09437 0
M  V30 7934 H 738.37 -0.0219455 6.96397 0
M  V30 7935 H 735.997 0.30285 7.59597 0
M  V30 7936 N 737.572 -1.44907 -0.619662 0
M  V30 7937 C 738.819 -1.48292 -1.37898 0
M  V30 7938 C 739.147 -0.119933 -1.9413 0
M  V30 7939 O 738.402 0.879834 -1.74807 0
M  V30 7940 C 738.701 -2.50002 -2.55409 0
M  V30 7941 C 738.367 -3.95031 -2.17397 0
M  V30 7942 C 737.029 -4.34524 -2.06743 0
M  V30 7943 C 739.381 -4.86287 -1.87548 0
M  V30 7944 C 736.709 -5.63183 -1.64445 0
M  V30 7945 C 739.061 -6.15346 -1.4674 0
M  V30 7946 C 737.725 -6.53781 -1.34636 0
M  V30 7947 H 736.995 -0.542638 -0.504603 0
M  V30 7948 H 739.642 -1.78186 -0.701581 0
M  V30 7949 H 737.947 -2.13634 -3.28433 0
M  V30 7950 H 739.644 -2.49864 -3.13639 0
M  V30 7951 H 736.234 -3.63793 -2.26611 0
M  V30 7952 H 740.418 -4.56522 -1.94682 0
M  V30 7953 H 735.674 -5.91769 -1.53687 0
M  V30 7954 H 739.848 -6.85508 -1.22685 0
M  V30 7955 H 737.475 -7.53375 -1.01634 0
M  V30 7956 N 739.05 0.861098 -1.31996 0
M  V30 7957 C 740.278 1.6474 -1.25173 0
M  V30 7958 C 740.693 1.87926 0.181425 0
M  V30 7959 O 740.05 1.4437 1.1164 0
M  V30 7960 C 740.101 3.01036 -2.0015 0
M  V30 7961 O 739.822 2.7888 -3.37872 0
M  V30 7962 C 741.323 3.95481 -2.00273 0
M  V30 7963 H 738.543 0.513314 -0.432146 0
M  V30 7964 H 741.087 1.07419 -1.74016 0
M  V30 7965 H 739.242 3.55021 -1.55046 0
M  V30 7966 H 739.656 3.65514 -3.76165 0
M  V30 7967 H 741.13 4.88403 -2.57229 0
M  V30 7968 H 741.607 4.27957 -0.987407 0
M  V30 7969 H 742.213 3.47433 -2.45296 0
M  V30 7970 N 740.528 1.15101 1.07655 0
M  V30 7971 C 741.774 0.925343 1.80458 0
M  V30 7972 C 742.107 -0.546354 1.86356 0
M  V30 7973 O 741.382 -1.40496 1.34503 0
M  V30 7974 C 741.665 1.53646 3.25676 0
M  V30 7975 C 741.518 3.07854 3.27942 0
M  V30 7976 C 742.837 1.21968 4.22861 0
M  V30 7977 H 739.956 0.337592 0.655134 0
M  V30 7978 H 742.598 1.42217 1.25993 0
M  V30 7979 H 740.748 1.11395 3.72187 0
M  V30 7980 H 742.42 3.58989 2.89697 0
M  V30 7981 H 740.663 3.41904 2.66991 0
M  V30 7982 H 741.334 3.45725 4.30324 0
M  V30 7983 H 743.81 1.5851 3.84726 0
M  V30 7984 H 742.686 1.67349 5.22767 0
M  V30 7985 H 742.947 0.136207 4.4189 0
M  V30 7986 N 742.006 -1.2595 0.947325 0
M  V30 7987 C 743.253 -1.93463 0.598178 0
M  V30 7988 C 743.581 -1.74271 -0.863705 0
M  V30 7989 O 742.836 -1.07684 -1.63409 0
M  V30 7990 C 743.135 -3.46034 0.894158 0
M  V30 7991 C 742.801 -3.85373 2.3409 0
M  V30 7992 C 741.463 -3.95823 2.73637 0
M  V30 7993 C 743.815 -4.04986 3.2808 0
M  V30 7994 C 741.143 -4.23288 4.06257 0
M  V30 7995 C 743.495 -4.3394 4.60303 0
M  V30 7996 C 742.159 -4.42606 4.99656 0
M  V30 7997 H 741.429 -0.707933 0.218889 0
M  V30 7998 H 744.076 -1.4964 1.19499 0
M  V30 7999 H 742.381 -3.9121 0.214874 0
M  V30 8000 H 744.078 -3.96445 0.602698 0
M  V30 8001 H 740.668 -3.7779 2.02417 0
M  V30 8002 H 744.852 -3.96333 2.9872 0
M  V30 8003 H 740.108 -4.28211 4.36401 0
M  V30 8004 H 744.282 -4.48061 5.33118 0
M  V30 8005 H 741.909 -4.63641 6.02446 0
M  V30 8006 N 743.484 -0.715051 -1.40445 0
M  V30 8007 C 744.447 -0.0708726 -2.2909 0
M  V30 8008 C 745.447 0.687926 -1.45342 0
M  V30 8009 O 746.637 0.519908 -1.66261 0
M  V30 8010 C 743.769 0.909528 -3.28543 0
M  V30 8011 H 744.962 -0.851611 -2.87555 0
M  V30 8012 H 742.515 -0.479674 -1.48758 0
M  V30 8013 H 743.25 1.71734 -2.75096 0
M  V30 8014 H 743.035 0.368318 -3.90366 0
M  V30 8015 H 744.525 1.35744 -3.94922 0
M  V30 8016 N 744.962 1.50701 -0.461195 0
M  V30 8017 C 746.187 2.07171 0.0974773 0
M  V30 8018 C 746.612 1.32391 1.3362 0
M  V30 8019 O 745.97 0.368676 1.77512 0
M  V30 8020 C 746.018 3.58651 0.374409 0
M  V30 8021 O 745.122 3.85816 1.4567 0
M  V30 8022 H 744.463 0.663944 -0.00862047 0
M  V30 8023 H 746.993 1.94021 -0.649394 0
M  V30 8024 H 747.003 4.03295 0.617843 0
M  V30 8025 H 745.678 4.12498 -0.530829 0
M  V30 8026 H 744.255 3.53018 1.20136 0
M  V30 8027 N 746.441 0.193421 1.56409 0
M  V30 8028 C 747.351 -0.740112 2.2262 0
M  V30 8029 C 748.367 -1.23597 1.22474 0
M  V30 8030 O 749.543 -1.28348 1.55206 0
M  V30 8031 C 746.608 -1.94317 2.87127 0
M  V30 8032 C 745.669 -1.49205 4.02538 0
M  V30 8033 C 744.902 -2.63776 4.63959 0
M  V30 8034 O 745.125 -3.81215 4.24301 0
M  V30 8035 O 744.059 -2.36585 5.53454 0
M  V30 8036 H 747.885 -0.206238 3.02999 0
M  V30 8037 H 745.47 -0.0357938 1.49357 0
M  V30 8038 H 747.352 -2.64633 3.27944 0
M  V30 8039 H 746.027 -2.46568 2.09728 0
M  V30 8040 H 744.934 -0.757738 3.66346 0
M  V30 8041 H 746.267 -1.01622 4.81595 0
M  V30 8042 N 747.919 -1.57396 -0.0801906 0
M  V30 8043 C 748.849 -2.06145 -1.09665 0
M  V30 8044 C 749.83 -0.953273 -1.40878 0
M  V30 8045 O 751.015 -1.22548 -1.50651 0
M  V30 8046 C 748.145 -2.49836 -2.41245 0
M  V30 8047 C 747.099 -3.64454 -2.24405 0
M  V30 8048 C 746.425 -3.94172 -3.61293 0
M  V30 8049 C 747.725 -4.94807 -1.67223 0
M  V30 8050 H 749.419 -2.91316 -0.691028 0
M  V30 8051 H 746.965 -1.40145 -0.330957 0
M  V30 8052 H 748.918 -2.82552 -3.12638 0
M  V30 8053 H 747.642 -1.61683 -2.83771 0
M  V30 8054 H 746.301 -3.32008 -1.55454 0
M  V30 8055 H 745.949 -3.03163 -4.01374 0
M  V30 8056 H 745.649 -4.71345 -3.50867 0
M  V30 8057 H 747.173 -4.29376 -4.3413 0
M  V30 8058 H 748.587 -5.25807 -2.28472 0
M  V30 8059 H 746.984 -5.76245 -1.67515 0
M  V30 8060 H 748.054 -4.80751 -0.632944 0
M  V30 8061 N 749.397 0.351382 -1.53633 0
M  V30 8062 C 750.622 1.11718 -1.74739 0
M  V30 8063 C 751.047 1.81829 -0.481657 0
M  V30 8064 O 750.405 1.72264 0.565233 0
M  V30 8065 C 750.453 2.11234 -2.92254 0
M  V30 8066 O 749.557 3.186 -2.61855 0
M  V30 8067 H 748.898 0.323482 -0.579875 0
M  V30 8068 H 751.428 0.404167 -2.00568 0
M  V30 8069 H 751.438 2.54591 -3.18822 0
M  V30 8070 H 750.113 1.59599 -3.84058 0
M  V30 8071 H 748.69 2.80115 -2.4615 0
M  V30 8072 N 750.875 1.45233 0.611969 0
M  V30 8073 C 752.121 1.49242 1.37312 0
M  V30 8074 C 752.454 0.131963 1.93751 0
M  V30 8075 O 751.729 -0.852999 1.74798 0
M  V30 8076 C 752.012 2.56811 2.52428 0
M  V30 8077 C 751.865 4.02284 2.01215 0
M  V30 8078 C 753.184 2.60705 3.54572 0
M  V30 8079 H 750.303 0.54336 0.497925 0
M  V30 8080 H 752.945 1.77019 0.690242 0
M  V30 8081 H 751.095 2.33256 3.10683 0
M  V30 8082 H 752.767 4.37035 1.47643 0
M  V30 8083 H 751.01 4.1315 1.32248 0
M  V30 8084 H 751.681 4.7323 2.84178 0
M  V30 8085 H 754.157 2.81799 3.06151 0
M  V30 8086 H 753.033 3.37841 4.32614 0
M  V30 8087 H 753.294 1.65627 4.09903 0
M  V30 8088 N 752.353 -0.854086 1.3245 0
M  V30 8089 C 753.583 -1.63836 1.25862 0
M  V30 8090 C 753.991 -1.88383 -0.175588 0
M  V30 8091 O 753.334 -1.45353 -1.1233 0
M  V30 8092 C 753.396 -3.02068 1.94923 0
M  V30 8093 C 753.06 -3.0056 3.44257 0
M  V30 8094 C 754.057 -2.77368 4.39731 0
M  V30 8095 C 751.742 -3.21177 3.862 0
M  V30 8096 C 753.736 -2.74797 5.75122 0
M  V30 8097 C 751.423 -3.18234 5.217 0
M  V30 8098 C 752.421 -2.95072 6.15972 0
M  V30 8099 O 752.109 -2.92003 7.48992 0
M  V30 8100 H 751.841 -0.517007 0.435523 0
M  V30 8101 H 754.395 -1.07314 1.75137 0
M  V30 8102 H 752.625 -3.60382 1.40219 0
M  V30 8103 H 754.314 -3.62791 1.82037 0
M  V30 8104 H 755.08 -2.61205 4.08653 0
M  V30 8105 H 750.959 -3.38231 3.13243 0
M  V30 8106 H 754.503 -2.56638 6.48678 0
M  V30 8107 H 750.4 -3.33941 5.52407 0
M  V30 8108 H 751.168 -3.07953 7.58358 0
M  V30 8109 N 753.831 -1.1567 -1.07043 0
M  V30 8110 C 755.059 -0.957471 -1.83412 0
M  V30 8111 C 755.474 0.494271 -1.82215 0
M  V30 8112 O 754.831 1.34288 -1.23584 0
M  V30 8113 C 754.882 -1.46784 -3.30359 0
M  V30 8114 O 754.603 -2.86271 -3.31633 0
M  V30 8115 C 756.104 -1.31054 -4.23485 0
M  V30 8116 H 753.324 -0.33986 -0.578564 0
M  V30 8117 H 755.868 -1.53518 -1.35102 0
M  V30 8118 H 754.023 -0.932586 -3.76007 0
M  V30 8119 H 754.437 -3.0948 -4.23465 0
M  V30 8120 H 755.911 -1.71605 -5.24648 0
M  V30 8121 H 756.388 -0.255107 -4.38458 0
M  V30 8122 H 756.994 -1.83503 -3.83676 0
M  V30 8123 N 755.309 1.25446 -0.953992 0
M  V30 8124 C 756.239 2.28264 -0.491717 0
M  V30 8125 C 757.22 1.63717 0.461617 0
M  V30 8126 O 758.405 1.90821 0.36071 0
M  V30 8127 C 755.535 3.46525 0.231915 0
M  V30 8128 C 754.489 4.23247 -0.636098 0
M  V30 8129 C 753.815 5.34254 0.218238 0
M  V30 8130 C 755.115 4.85971 -1.91389 0
M  V30 8131 H 756.809 2.67183 -1.35106 0
M  V30 8132 H 754.355 1.2844 -0.651095 0
M  V30 8133 H 756.308 4.17576 0.566439 0
M  V30 8134 H 755.032 3.06594 1.12551 0
M  V30 8135 H 753.691 3.53978 -0.953696 0
M  V30 8136 H 753.339 4.90564 1.11156 0
M  V30 8137 H 753.039 5.86501 -0.359232 0
M  V30 8138 H 754.563 6.08138 0.547743 0
M  V30 8139 H 755.977 5.49168 -1.64581 0
M  V30 8140 H 754.374 5.48391 -2.43696 0
M  V30 8141 H 755.444 4.08192 -2.61738 0
M  V30 8142 N 756.787 0.722489 1.40064 0
M  V30 8143 C 758.015 0.274838 2.05066 0
M  V30 8144 C 758.43 -1.08586 1.54449 0
M  V30 8145 O 757.787 -1.68375 0.704003 0
M  V30 8146 C 757.838 0.253673 3.60609 0
M  V30 8147 O 757.559 1.56064 4.0936 0
M  V30 8148 C 759.06 -0.211684 4.42794 0
M  V30 8149 H 756.28 0.12226 0.659768 0
M  V30 8150 H 758.824 0.982632 1.79345 0
M  V30 8151 H 756.979 -0.405137 3.85276 0
M  V30 8152 H 757.393 1.46576 5.03603 0
M  V30 8153 H 758.867 -0.175341 5.51721 0
M  V30 8154 H 759.344 -1.25493 4.2089 0
M  V30 8155 H 759.95 0.4171 4.2325 0
M  V30 8156 N 758.265 -1.50454 0.469181 0
M  V30 8157 C 759.511 -2.02615 -0.0865971 0
M  V30 8158 C 759.844 -1.35062 -1.39542 0
M  V30 8159 O 759.119 -0.475701 -1.88593 0
M  V30 8160 C 759.402 -3.59068 -0.272385 0
M  V30 8161 C 759.255 -4.37196 1.05733 0
M  V30 8162 C 760.574 -4.2793 -1.0278 0
M  V30 8163 H 757.693 -0.736389 -0.0299977 0
M  V30 8164 H 760.335 -1.79792 0.614399 0
M  V30 8165 H 758.485 -3.78646 -0.869471 0
M  V30 8166 H 760.157 -4.29195 1.69084 0
M  V30 8167 H 758.4 -4.01013 1.65442 0
M  V30 8168 H 759.071 -5.44924 0.880997 0
M  V30 8169 H 761.547 -4.12816 -0.521718 0
M  V30 8170 H 760.423 -5.37214 -1.12659 0
M  V30 8171 H 760.684 -3.90968 -2.0639 0
M  V30 8172 N 759.743 -0.201713 -1.56304 0
M  V30 8173 C 760.992 0.435557 -1.96941 0
M  V30 8174 C 761.305 1.62299 -1.09172 0
M  V30 8175 O 762.511 2.32849 -1.3962 0
M  V30 8176 C 760.967 0.826298 -3.50286 0
M  V30 8177 C 760.575 -0.337216 -4.46729 0
M  V30 8178 C 762.319 1.43028 -3.99679 0
M  V30 8179 C 760.226 0.0748539 -5.91353 0
M  V30 8180 H 759.156 0.1665 -0.735387 0
M  V30 8181 H 761.807 -0.294781 -1.81117 0
M  V30 8182 H 760.189 1.61349 -3.61639 0
M  V30 8183 H 761.363 -1.11476 -4.47113 0
M  V30 8184 H 759.678 -0.853126 -4.07567 0
M  V30 8185 H 762.275 1.75115 -5.05212 0
M  V30 8186 H 762.618 2.33911 -3.44371 0
M  V30 8187 H 763.151 0.706924 -3.91468 0
M  V30 8188 H 759.89 -0.799957 -6.506 0
M  V30 8189 H 759.41 0.817122 -5.94208 0
M  V30 8190 H 761.089 0.508389 -6.45 0
M  V30 8191 N 761.222 1.57436 0.0718424 0
M  V30 8192 C 762.45 1.91474 0.783932 0
M  V30 8193 C 762.865 0.797669 1.71122 0
M  V30 8194 O 762.222 -0.228989 1.81058 0
M  V30 8195 C 762.273 3.25259 1.57761 0
M  V30 8196 O 761.994 4.3267 0.687596 0
M  V30 8197 C 763.495 3.7331 2.3907 0
M  V30 8198 H 760.715 0.632901 0.222885 0
M  V30 8199 H 763.259 2.04457 0.0421262 0
M  V30 8200 H 761.414 3.13804 2.27169 0
M  V30 8201 H 761.828 5.09641 1.23962 0
M  V30 8202 H 763.302 4.69551 2.90216 0
M  V30 8203 H 763.779 3.02318 3.18591 0
M  V30 8204 H 764.385 3.8771 1.74818 0
M  V30 8205 N 762.7 -0.34323 1.53817 0
M  V30 8206 C 763.63 -1.42709 1.84814 0
M  V30 8207 C 764.611 -1.5488 0.703297 0
M  V30 8208 O 765.796 -1.69082 0.955237 0
M  V30 8209 C 762.926 -2.79756 2.05801 0
M  V30 8210 C 761.88 -2.82392 3.21619 0
M  V30 8211 C 761.206 -4.22326 3.2794 0
M  V30 8212 C 762.506 -2.479 4.59721 0
M  V30 8213 H 764.2 -1.17018 2.75585 0
M  V30 8214 H 761.746 -0.561485 1.32602 0
M  V30 8215 H 763.699 -3.55627 2.26069 0
M  V30 8216 H 762.423 -3.06883 1.11761 0
M  V30 8217 H 761.082 -2.08974 3.01207 0
M  V30 8218 H 760.73 -4.46564 2.31494 0
M  V30 8219 H 760.43 -4.25001 4.05768 0
M  V30 8220 H 761.954 -5.00039 3.50419 0
M  V30 8221 H 763.368 -3.13484 4.80001 0
M  V30 8222 H 761.765 -2.61857 5.39954 0
M  V30 8223 H 762.835 -1.43087 4.63308 0
M  V30 8224 N 764.178 -1.45556 -0.604258 0
M  V30 8225 C 765.088 -1.57025 -1.74299 0
M  V30 8226 C 766.104 -0.45456 -1.67958 0
M  V30 8227 O 767.28 -0.715711 -1.88254 0
M  V30 8228 C 764.345 -1.53702 -3.10768 0
M  V30 8229 C 763.406 -2.76335 -3.28538 0
M  V30 8230 C 762.639 -2.73161 -4.58496 0
M  V30 8231 O 762.862 -1.80678 -5.41028 0
M  V30 8232 O 761.796 -3.64409 -4.79051 0
M  V30 8233 H 765.622 -2.53284 -1.67573 0
M  V30 8234 H 763.207 -1.28104 -0.768745 0
M  V30 8235 H 765.089 -1.54468 -3.92068 0
M  V30 8236 H 763.764 -0.605957 -3.17978 0
M  V30 8237 H 762.671 -2.8113 -2.46813 0
M  V30 8238 H 764.004 -3.68578 -3.26207 0
M  V30 8239 N 765.656 0.84705 -1.32902 0
M  V30 8240 C 767.072 1.13645 -1.12058 0
M  V30 8241 C 767.272 2.01281 0.093937 0
M  V30 8242 O 766.328 2.4026 0.776608 0
M  V30 8243 C 767.641 1.80644 -2.40392 0
M  V30 8244 C 769.189 1.93246 -2.46221 0
M  V30 8245 C 769.664 2.6366 -3.74496 0
M  V30 8246 N 771.155 2.71179 -3.75521 0
M  V30 8247 C 771.89 3.26332 -4.71482 0
M  V30 8248 N 771.386 3.82236 -5.77813 0
M  V30 8249 N 773.179 3.24507 -4.58968 0
M  V30 8250 H 765.33 0.263612 -2.10758 0
M  V30 8251 H 767.593 0.17944 -0.930863 0
M  V30 8252 H 767.299 1.23708 -3.29225 0
M  V30 8253 H 767.173 2.80736 -2.51926 0
M  V30 8254 H 769.56 2.49338 -1.57843 0
M  V30 8255 H 769.641 0.921272 -2.38634 0
M  V30 8256 H 769.285 2.08229 -4.63253 0
M  V30 8257 H 769.215 3.65234 -3.79357 0
M  V30 8258 H 771.706 2.31527 -2.9867 0
M  V30 8259 H 772.019 4.22499 -6.47082 0
M  V30 8260 H 770.364 3.80546 -5.81558 0
M  V30 8261 H 773.555 2.80085 -3.7506 0
M  V30 8262 H 773.728 3.67188 -5.33926 0
M  V30 8263 N 767.134 1.16236 1.06428 0
M  V30 8264 C 768.38 0.954417 1.79617 0
M  V30 8265 C 768.735 -0.512411 1.85451 0
M  V30 8266 O 768.028 -1.37523 1.33409 0
M  V30 8267 C 768.222 1.51396 3.2375 0
M  V30 8268 C 768.051 3.03367 3.31962 0
M  V30 8269 C 766.821 3.71996 3.41975 0
M  V30 8270 C 769.019 4.01075 3.21937 0
M  V30 8271 N 767.001 5.11688 3.39187 0
M  V30 8272 C 768.372 5.27142 3.26376 0
M  V30 8273 C 770.427 3.92917 3.05812 0
M  V30 8274 C 769.13 6.46 3.16348 0
M  V30 8275 C 771.156 5.11344 2.97121 0
M  V30 8276 C 770.518 6.36291 3.02181 0
M  V30 8277 H 766.617 0.403007 0.670156 0
M  V30 8278 H 769.201 1.47605 1.26968 0
M  V30 8279 H 767.372 1.01883 3.74799 0
M  V30 8280 H 769.104 1.2439 3.85109 0
M  V30 8281 H 765.859 3.22623 3.46715 0
M  V30 8282 H 766.283 5.84676 3.41297 0
M  V30 8283 H 770.925 2.97172 3.00746 0
M  V30 8284 H 768.643 7.41968 3.2017 0
M  V30 8285 H 772.229 5.06801 2.85734 0
M  V30 8286 H 771.109 7.26389 2.95513 0
M  V30 8287 N 768.612 -1.24939 0.960631 0
M  V30 8288 C 769.842 -1.96595 0.635123 0
M  V30 8289 C 770.25 -1.71538 -0.798206 0
M  V30 8290 O 769.593 -0.991727 -1.5463 0
M  V30 8291 C 769.655 -3.49994 0.821248 0
M  V30 8292 C 769.319 -3.98738 2.23287 0
M  V30 8293 C 770.316 -4.08965 3.21004 0
M  V30 8294 C 768.001 -4.32247 2.55867 0
M  V30 8295 C 769.995 -4.52025 4.49391 0
M  V30 8296 C 767.682 -4.74991 3.84482 0
M  V30 8297 C 768.68 -4.84844 4.81056 0
M  V30 8298 O 768.368 -5.26638 6.07378 0
M  V30 8299 H 768.1 -0.633265 0.23654 0
M  V30 8300 H 770.654 -1.5991 1.28911 0
M  V30 8301 H 768.884 -3.86543 0.110105 0
M  V30 8302 H 770.573 -4.02859 0.495892 0
M  V30 8303 H 771.339 -3.83302 2.97161 0
M  V30 8304 H 767.218 -4.23801 1.81421 0
M  V30 8305 H 770.762 -4.5963 5.24773 0
M  V30 8306 H 766.659 -5.00101 4.08129 0
M  V30 8307 H 767.427 -5.44807 6.10842 0
M  V30 8308 N 770.09 -0.729906 -1.39679 0
M  V30 8309 C 771.053 -0.0951668 -2.29002 0
M  V30 8310 C 772.053 0.672471 -1.46063 0
M  V30 8311 O 773.243 0.502245 -1.66803 0
M  V30 8312 C 770.375 0.874631 -3.29489 0
M  V30 8313 H 771.568 -0.882062 -2.86635 0
M  V30 8314 H 769.121 -0.495424 -1.4824 0
M  V30 8315 H 769.856 1.68807 -2.76902 0
M  V30 8316 H 769.641 0.326893 -3.90735 0
M  V30 8317 H 771.131 1.31548 -3.96339 0
M  V30 8318 N 771.568 1.50203 -0.477153 0
M  V30 8319 C 772.817 2.01551 0.0774548 0
M  V30 8320 C 773.13 1.36359 1.40234 0
M  V30 8321 O 774.336 1.78898 2.04225 0
M  V30 8322 C 772.792 3.59406 0.188539 0
M  V30 8323 C 772.4 4.3356 -1.12828 0
M  V30 8324 C 774.144 4.18776 0.694782 0
M  V30 8325 C 772.051 5.83213 -0.98066 0
M  V30 8326 H 770.981 0.75329 0.0327212 0
M  V30 8327 H 773.632 1.72959 -0.612969 0
M  V30 8328 H 772.014 3.84611 0.942881 0
M  V30 8329 H 773.188 4.20074 -1.89405 0
M  V30 8330 H 771.503 3.85827 -1.5661 0
M  V30 8331 H 774.1 5.28338 0.822356 0
M  V30 8332 H 774.443 3.80557 1.68766 0
M  V30 8333 H 774.976 3.978 -0.00234519 0
M  V30 8334 H 771.715 6.25914 -1.94709 0
M  V30 8335 H 771.235 5.99256 -0.255375 0
M  V30 8336 H 772.914 6.4373 -0.649717 0
M  V30 8337 N 773.046 0.209999 1.56195 0
M  V30 8338 C 774.274 -0.429996 2.02382 0
M  V30 8339 C 774.689 -1.54159 1.08998 0
M  V30 8340 O 774.046 -1.82239 0.0974856 0
M  V30 8341 C 774.097 -0.972433 3.48175 0
M  V30 8342 O 773.818 0.0948231 4.37997 0
M  V30 8343 C 775.319 -1.68683 4.09952 0
M  V30 8344 H 772.539 -0.106475 0.662498 0
M  V30 8345 H 775.083 0.323072 2.01932 0
M  V30 8346 H 773.238 -1.67582 3.49278 0
M  V30 8347 H 773.652 -0.31113 5.23576 0
M  V30 8348 H 775.126 -2.01851 5.13771 0
M  V30 8349 H 775.603 -2.59587 3.54276 0
M  V30 8350 H 776.209 -1.02893 4.12666 0
M  V30 8351 N 774.524 -1.57472 -0.0634922 0
M  V30 8352 C 775.771 -1.87654 -0.761066 0
M  V30 8353 C 776.099 -0.802847 -1.77157 0
M  V30 8354 O 775.354 0.200244 -1.94673 0
M  V30 8355 C 775.653 -3.24521 -1.49736 0
M  V30 8356 C 775.319 -4.46532 -0.626065 0
M  V30 8357 C 773.981 -4.7965 -0.385978 0
M  V30 8358 C 776.333 -5.21195 -0.0224001 0
M  V30 8359 C 773.661 -5.84837 0.467118 0
M  V30 8360 C 776.013 -6.27286 0.818198 0
M  V30 8361 C 774.677 -6.58899 1.06808 0
M  V30 8362 H 773.947 -0.686675 -0.278494 0
M  V30 8363 H 776.594 -1.91488 -0.0216348 0
M  V30 8364 H 774.899 -3.16516 -2.30921 0
M  V30 8365 H 776.596 -3.45111 -2.04204 0
M  V30 8366 H 773.186 -4.20618 -0.823325 0
M  V30 8367 H 777.37 -4.95917 -0.194985 0
M  V30 8368 H 772.626 -6.07725 0.669375 0
M  V30 8369 H 776.8 -6.84298 1.29265 0
M  V30 8370 H 774.427 -7.40233 1.73088 0
M  V30 8371 N 776.003 0.335068 -1.53997 0
M  V30 8372 C 776.966 1.39481 -1.81872 0
M  V30 8373 C 777.966 1.4524 -0.690078 0
M  V30 8374 O 779.156 1.45467 -0.958377 0
M  V30 8375 C 776.288 2.78329 -1.9684 0
M  V30 8376 H 777.481 1.16024 -2.76547 0
M  V30 8377 H 775.034 0.569926 -1.45539 0
M  V30 8378 H 775.769 3.07058 -1.04337 0
M  V30 8379 H 775.554 2.75544 -2.78958 0
M  V30 8380 H 777.044 3.55016 -2.19894 0
M  V30 8381 N 777.481 1.45874 0.596531 0
M  V30 8382 C 778.414 1.49889 1.72071 0
M  V30 8383 C 779.392 0.354224 1.58695 0
M  V30 8384 O 780.576 0.556355 1.80103 0
M  V30 8385 C 777.703 1.3644 3.10003 0
M  V30 8386 C 776.749 2.54913 3.41938 0
M  V30 8387 S 777.582 4.17336 3.35545 0
M  V30 8388 C 778.738 4.06372 4.76039 0
M  V30 8389 H 778.971 2.45005 1.68404 0
M  V30 8390 H 776.504 1.33592 0.77412 0
M  V30 8391 H 778.462 1.29368 3.89582 0
M  V30 8392 H 777.123 0.427762 3.11174 0
M  V30 8393 H 776.316 2.41458 4.42396 0
M  V30 8394 H 775.918 2.58904 2.69898 0
M  V30 8395 H 778.21 3.72199 5.66105 0
M  V30 8396 H 779.153 5.0678 4.9455 0
M  V30 8397 H 779.561 3.37846 4.52239 0
M  V30 8398 N 778.959 -0.83999 1.33349 0
M  V30 8399 C 780.375 -1.13049 1.12659 0
M  V30 8400 C 780.575 -2.01328 -0.0832613 0
M  V30 8401 O 779.631 -2.40669 -0.763856 0
M  V30 8402 C 780.944 -1.79366 2.41347 0
M  V30 8403 C 782.492 -1.91937 2.47243 0
M  V30 8404 C 782.967 -2.6167 3.75889 0
M  V30 8405 N 784.458 -2.69184 3.76954 0
M  V30 8406 C 785.193 -3.23827 4.73206 0
M  V30 8407 N 784.689 -3.79166 5.79832 0
M  V30 8408 N 786.482 -3.22068 4.60683 0
M  V30 8409 H 778.633 -0.252432 2.10895 0
M  V30 8410 H 780.896 -0.174501 0.931801 0
M  V30 8411 H 780.602 -1.2196 3.29877 0
M  V30 8412 H 780.476 -2.79396 2.53412 0
M  V30 8413 H 782.863 -2.48498 1.59163 0
M  V30 8414 H 782.944 -0.908604 2.39119 0
M  V30 8415 H 782.588 -2.05769 4.64351 0
M  V30 8416 H 782.518 -3.63217 3.81289 0
M  V30 8417 H 785.009 -2.2994 2.99893 0
M  V30 8418 H 785.322 -4.19061 6.49313 0
M  V30 8419 H 783.667 -3.77457 5.83568 0
M  V30 8420 H 786.858 -2.78092 3.7654 0
M  V30 8421 H 787.031 -3.64351 5.35866 0
M  V30 8422 N 780.437 -1.16799 -1.0581 0
M  V30 8423 C 781.367 -0.902241 -2.15364 0
M  V30 8424 C 782.348 0.153351 -1.69407 0
M  V30 8425 O 783.533 0.00442032 -1.94199 0
M  V30 8426 C 780.663 -0.407911 -3.44896 0
M  V30 8427 C 779.617 -1.40197 -4.04387 0
M  V30 8428 C 778.943 -0.765848 -5.29187 0
M  V30 8429 C 780.243 -2.77316 -4.42598 0
M  V30 8430 H 781.937 -1.81841 -2.37853 0
M  V30 8431 H 779.483 -0.875731 -1.14311 0
M  V30 8432 H 781.436 -0.20945 -4.20879 0
M  V30 8433 H 780.16 0.54378 -3.22041 0
M  V30 8434 H 778.819 -1.58707 -3.30466 0
M  V30 8435 H 778.467 0.192482 -5.02632 0
M  V30 8436 H 778.167 -1.42939 -5.69949 0
M  V30 8437 H 779.691 -0.577519 -6.07863 0
M  V30 8438 H 781.105 -2.62561 -5.09642 0
M  V30 8439 H 779.502 -3.4019 -4.94359 0
M  V30 8440 H 780.572 -3.32199 -3.53231 0
M  V30 8441 N 781.915 1.24427 -0.967243 0
M  V30 8442 C 783.192 1.87831 -0.545776 0
M  V30 8443 C 783.572 1.87126 0.977099 0
M  V30 8444 O 782.92 1.34357 1.84826 0
M  V30 8445 C 783.13 3.29967 -1.13679 0
M  V30 8446 C 784.478 4.06654 -1.22139 0
M  V30 8447 O 785.502 3.39136 -1.08926 0
M  V30 8448 O 784.361 5.27455 -1.43017 0
M  V30 8449 H 781.455 0.806745 -0.181912 0
M  V30 8450 H 784.001 1.32403 -1.06148 0
M  V30 8451 H 782.773 3.24977 -2.17958 0
M  V30 8452 H 782.396 3.92969 -0.605093 0
M  V30 8453 N 783.393 0.737304 1.3929 0
M  V30 8454 C 784.809 0.413132 1.5416 0
M  V30 8455 C 785.009 -1.07574 1.70382 0
M  V30 8456 O 784.065 -1.86185 1.70562 0
M  V30 8457 C 785.378 1.19817 2.75798 0
M  V30 8458 C 786.926 1.18662 2.89635 0
M  V30 8459 C 787.401 1.95427 4.14213 0
M  V30 8460 N 788.892 1.92605 4.21257 0
M  V30 8461 C 789.627 2.48808 5.16606 0
M  V30 8462 N 789.123 3.13659 6.1773 0
M  V30 8463 N 790.916 2.38829 5.08839 0
M  V30 8464 H 783.067 1.70243 1.27008 0
M  V30 8465 H 785.33 0.720802 0.61575 0
M  V30 8466 H 785.036 2.25179 2.70161 0
M  V30 8467 H 784.91 0.804144 3.68529 0
M  V30 8468 H 787.297 0.141112 2.94762 0
M  V30 8469 H 787.378 1.62003 1.97961 0
M  V30 8470 H 787.022 2.9998 4.09847 0
M  V30 8471 H 786.952 1.4949 5.04936 0
M  V30 8472 H 789.443 1.45362 3.48824 0
M  V30 8473 H 789.756 3.54006 6.8695 0
M  V30 8474 H 788.101 3.17749 6.1811 0
M  V30 8475 H 791.292 1.87806 4.28773 0
M  V30 8476 H 791.465 2.82929 5.82971 0
M  V30 8477 N 784.871 -1.49948 0.485112 0
M  V30 8478 C 785.818 -2.28819 -0.301729 0
M  V30 8479 C 786.788 -1.34496 -0.974683 0
M  V30 8480 O 787.973 -1.63444 -0.984418 0
M  V30 8481 C 785.113 -3.16758 -1.36961 0
M  V30 8482 C 784.226 -4.26125 -0.710027 0
M  V30 8483 C 783.361 -5.01302 -1.75699 0
M  V30 8484 C 782.4 -6.02525 -1.07841 0
M  V30 8485 N 781.537 -6.70927 -2.06886 0
M  V30 8486 H 786.377 -2.95604 0.377127 0
M  V30 8487 H 783.914 -1.45764 0.197826 0
M  V30 8488 H 785.872 -3.66106 -2.00056 0
M  V30 8489 H 784.502 -2.51991 -2.01744 0
M  V30 8490 H 783.554 -3.80385 0.0338278 0
M  V30 8491 H 784.866 -4.98493 -0.175079 0
M  V30 8492 H 784.02 -5.54438 -2.46339 0
M  V30 8493 H 782.759 -4.28672 -2.32577 0
M  V30 8494 H 781.764 -5.48635 -0.357706 0
M  V30 8495 H 782.989 -6.77134 -0.516345 0
M  V30 8496 H 780.935 -6.01079 -2.62755 0
M  V30 8497 H 780.852 -7.39216 -1.58414 0
M  V30 8498 H 782.12 -7.28675 -2.76863 0
M  V30 8499 N 786.349 -0.21828 -1.56081 0
M  V30 8500 C 787.598 0.414644 -1.97392 0
M  V30 8501 C 787.911 1.61132 -1.10887 0
M  V30 8502 O 789.117 2.31355 -1.42082 0
M  V30 8503 C 787.573 0.789099 -3.51143 0
M  V30 8504 C 787.181 -0.384578 -4.46346 0
M  V30 8505 C 788.925 1.38781 -4.01173 0
M  V30 8506 C 786.832 0.0121288 -5.91399 0
M  V30 8507 H 785.762 0.158691 -0.737111 0
M  V30 8508 H 788.413 -0.313974 -1.80794 0
M  V30 8509 H 786.795 1.57505 -3.6333 0
M  V30 8510 H 787.969 -1.16212 -4.45905 0
M  V30 8511 H 786.284 -0.896306 -4.06639 0
M  V30 8512 H 788.881 1.69746 -5.07041 0
M  V30 8513 H 789.224 2.30245 -3.46833 0
M  V30 8514 H 789.757 0.665364 -3.92196 0
M  V30 8515 H 786.496 -0.868917 -6.49715 0
M  V30 8516 H 786.016 0.754053 -5.95041 0
M  V30 8517 H 787.695 0.439949 -6.45502 0
M  V30 8518 N 787.827 1.57504 0.0551401 0
M  V30 8519 C 789.243 1.54236 0.410292 0
M  V30 8520 C 789.443 0.940839 1.78187 0
M  V30 8521 O 788.499 0.550541 2.46425 0
M  V30 8522 C 789.812 2.98816 0.336064 0
M  V30 8523 C 791.36 3.10236 0.415047 0
M  V30 8524 C 791.835 4.56499 0.37055 0
M  V30 8525 N 793.326 4.61199 0.43013 0
M  V30 8526 C 794.061 5.71873 0.418179 0
M  V30 8527 N 793.557 6.91864 0.360056 0
M  V30 8528 N 795.35 5.60165 0.465977 0
M  V30 8529 H 787.501 1.94965 -0.842759 0
M  V30 8530 H 789.764 0.893096 -0.317937 0
M  V30 8531 H 789.47 3.4645 -0.605429 0
M  V30 8532 H 789.344 3.59564 1.13988 0
M  V30 8533 H 791.731 2.62566 1.34697 0
M  V30 8534 H 791.812 2.52367 -0.417648 0
M  V30 8535 H 791.456 5.0483 -0.557592 0
M  V30 8536 H 791.386 5.12249 1.221 0
M  V30 8537 H 793.877 3.74857 0.478623 0
M  V30 8538 H 794.19 7.71983 0.35532 0
M  V30 8539 H 792.535 6.94233 0.326492 0
M  V30 8540 H 795.726 4.65322 0.509194 0
M  V30 8541 H 795.899 6.46413 0.453194 0
M  V30 8542 N 789.305 -0.326896 1.54172 0
M  V30 8543 C 790.235 -1.40741 1.86317 0
M  V30 8544 C 791.216 -1.54125 0.719684 0
M  V30 8545 O 792.401 -1.6806 0.973117 0
M  V30 8546 C 789.531 -2.77557 2.08757 0
M  V30 8547 C 788.485 -2.78965 3.24596 0
M  V30 8548 C 787.811 -4.18824 3.32401 0
M  V30 8549 C 789.111 -2.4301 4.62324 0
M  V30 8550 H 790.805 -1.14088 2.76811 0
M  V30 8551 H 788.351 -0.547389 1.3319 0
M  V30 8552 H 790.304 -3.53209 2.29829 0
M  V30 8553 H 789.028 -3.0568 1.15009 0
M  V30 8554 H 787.687 -2.05767 3.03406 0
M  V30 8555 H 787.335 -4.44083 2.36218 0
M  V30 8556 H 787.035 -4.20673 4.10253 0
M  V30 8557 H 788.559 -4.96294 3.55703 0
M  V30 8558 H 789.973 -3.08375 4.83299 0
M  V30 8559 H 788.37 -2.56116 5.42701 0
M  V30 8560 H 789.44 -1.38165 4.64799 0
M  V30 8561 N 790.784 -1.46188 -0.588786 0
M  V30 8562 C 792.2 -1.31009 -0.911524 0
M  V30 8563 C 792.4 -0.277017 -1.99587 0
M  V30 8564 O 791.456 0.322532 -2.50432 0
M  V30 8565 C 792.769 -2.69459 -1.33463 0
M  V30 8566 C 794.317 -2.77502 -1.44782 0
M  V30 8567 C 794.792 -4.1652 -1.90461 0
M  V30 8568 N 796.283 -4.18907 -1.97665 0
M  V30 8569 C 797.018 -5.23359 -2.34271 0
M  V30 8570 N 796.514 -6.38143 -2.69714 0
M  V30 8571 N 798.307 -5.10723 -2.34774 0
M  V30 8572 H 790.458 -2.12016 0.127614 0
M  V30 8573 H 792.721 -0.947984 -0.00557599 0
M  V30 8574 H 792.427 -3.46336 -0.611929 0
M  V30 8575 H 792.301 -2.99165 -2.2974 0
M  V30 8576 H 794.688 -2.00917 -2.1614 0
M  V30 8577 H 794.769 -2.51488 -0.467724 0
M  V30 8578 H 794.413 -4.93597 -1.19684 0
M  V30 8579 H 794.343 -4.39937 -2.89418 0
M  V30 8580 H 796.834 -3.36084 -1.72789 0
M  V30 8581 H 797.147 -7.13624 -2.96582 0
M  V30 8582 H 795.492 -6.41514 -2.67366 0
M  V30 8583 H 798.683 -4.20088 -2.06503 0
M  V30 8584 H 798.856 -5.9224 -2.62975 0
M  V30 8585 N 792.262 0.832906 -1.33792 0
M  V30 8586 C 793.212 1.93178 -1.21105 0
M  V30 8587 C 794.196 1.60506 -0.112491 0
M  V30 8588 O 795.388 1.73681 -0.341179 0
M  V30 8589 C 792.517 3.29647 -0.958526 0
M  V30 8590 C 791.603 3.68469 -2.0998 0
M  V30 8591 N 791.994 3.78936 -3.35024 0
M  V30 8592 C 790.292 3.98249 -2.00782 0
M  V30 8593 C 790.993 4.12731 -4.09912 0
M  V30 8594 N 789.969 4.25419 -3.38407 0
M  V30 8595 H 793.771 1.99434 -2.15878 0
M  V30 8596 H 791.285 1.02598 -1.25886 0
M  V30 8597 H 793.282 4.08173 -0.848552 0
M  V30 8598 H 791.942 3.24694 -0.019387 0
M  V30 8599 H 792.953 3.62688 -3.69699 0
M  V30 8600 H 789.63 4.01474 -1.14564 0
M  V30 8601 H 791.02 4.28117 -5.17847 0
M  V30 8602 N 793.74 1.17359 1.05189 0
M  V30 8603 C 794.703 0.892604 2.11105 0
M  V30 8604 C 795.703 -0.117236 1.60372 0
M  V30 8605 O 796.893 0.114936 1.7382 0
M  V30 8606 C 794.025 0.337032 3.3923 0
M  V30 8607 H 795.218 1.83169 2.37464 0
M  V30 8608 H 792.771 0.984051 1.21434 0
M  V30 8609 H 793.506 -0.609198 3.18527 0
M  V30 8610 H 793.291 1.06484 3.77364 0
M  V30 8611 H 794.781 0.158763 4.17298 0
M  V30 8612 N 795.218 -1.23913 0.973828 0
M  V30 8613 C 796.458 -1.93889 0.647015 0
M  V30 8614 C 796.822 -1.74368 -0.803735 0
M  V30 8615 O 798.023 -2.38435 -1.24106 0
M  V30 8616 C 796.294 -3.4257 1.01885 0
M  V30 8617 S 797.853 -4.31306 0.807517 0
M  V30 8618 H 794.671 -0.670279 0.237165 0
M  V30 8619 H 797.273 -1.50144 1.25208 0
M  V30 8620 H 795.977 -3.54286 2.07146 0
M  V30 8621 H 795.508 -3.91312 0.404812 0
M  V30 8622 H 797.523 -4.95218 -0.311986 0
M  V30 8623 N 796.696 -0.74468 -1.38897 0
M  V30 8624 C 797.659 -0.11945 -2.28889 0
M  V30 8625 C 798.659 0.656942 -1.46768 0
M  V30 8626 O 799.849 0.484525 -1.67326 0
M  V30 8627 C 796.981 0.839635 -3.30398 0
M  V30 8628 H 798.174 -0.912414 -2.85683 0
M  V30 8629 H 795.727 -0.511119 -1.47707 0
M  V30 8630 H 796.462 1.6586 -2.78677 0
M  V30 8631 H 796.247 0.285432 -3.9106 0
M  V30 8632 H 797.737 1.27337 -3.97712 0
M  V30 8633 N 798.174 1.49689 -0.493057 0
M  V30 8634 C 799.423 2.01622 0.0560733 0
M  V30 8635 C 799.736 1.37838 1.3878 0
M  V30 8636 O 800.942 1.81054 2.02316 0
M  V30 8637 C 799.398 3.59586 0.150409 0
M  V30 8638 C 799.006 4.32338 -1.1742 0
M  V30 8639 C 800.75 4.19489 0.650327 0
M  V30 8640 C 798.657 5.8214 -1.04246 0
M  V30 8641 H 797.587 0.753594 0.0247297 0
M  V30 8642 H 800.238 1.723 -0.631279 0
M  V30 8643 H 798.62 3.8559 0.902035 0
M  V30 8644 H 799.794 4.18042 -1.9385 0
M  V30 8645 H 798.109 3.84144 -1.60694 0
M  V30 8646 H 800.706 5.29181 0.766272 0
M  V30 8647 H 801.049 3.82326 1.6472 0
M  V30 8648 H 801.582 3.97775 -0.0445371 0
M  V30 8649 H 798.321 6.23814 -2.01336 0
M  V30 8650 H 797.841 5.98952 -0.31892 0
M  V30 8651 H 799.52 6.43004 -0.717957 0
M  V30 8652 N 799.652 0.226554 1.55963 0
M  V30 8653 C 800.585 -0.721625 2.1649 0
M  V30 8654 C 801.563 -1.18745 1.11078 0
M  V30 8655 O 802.747 -1.26929 1.3936 0
M  V30 8656 C 799.874 -1.97828 2.74921 0
M  V30 8657 C 798.92 -1.65202 3.93206 0
M  V30 8658 S 799.753 -0.772419 5.299 0
M  V30 8659 C 800.909 -2.03853 5.91773 0
M  V30 8660 H 801.142 -0.207192 2.96577 0
M  V30 8661 H 798.675 0.0111976 1.54396 0
M  V30 8662 H 800.633 -2.69982 3.09225 0
M  V30 8663 H 799.294 -2.46384 1.94817 0
M  V30 8664 H 798.487 -2.58583 4.32609 0
M  V30 8665 H 798.089 -1.01108 3.60074 0
M  V30 8666 H 800.381 -2.98799 6.08051 0
M  V30 8667 H 801.324 -1.68831 6.87678 0
M  V30 8668 H 801.732 -2.18134 5.20651 0
M  V30 8669 N 801.13 -1.57531 -0.0467866 0
M  V30 8670 C 802.376 -1.8873 -0.742218 0
M  V30 8671 C 802.709 -0.822084 -1.75941 0
M  V30 8672 O 801.984 0.164922 -1.938 0
M  V30 8673 C 802.267 -3.30586 -1.42776 0
M  V30 8674 C 802.12 -4.47785 -0.425285 0
M  V30 8675 C 803.439 -3.71068 -2.36636 0
M  V30 8676 H 800.558 -0.686406 -0.268359 0
M  V30 8677 H 803.2 -1.89999 -0.00511341 0
M  V30 8678 H 801.35 -3.29634 -2.05605 0
M  V30 8679 H 803.022 -4.60867 0.199721 0
M  V30 8680 H 801.265 -4.33037 0.25713 0
M  V30 8681 H 801.936 -5.43884 -0.943086 0
M  V30 8682 H 804.412 -3.73273 -1.83866 0
M  V30 8683 H 803.288 -4.71165 -2.81593 0
M  V30 8684 H 803.549 -3.02355 -3.22542 0
M  V30 8685 N 802.608 0.318715 -1.54344 0
M  V30 8686 C 803.856 1.054 -1.72439 0
M  V30 8687 C 804.177 1.88388 -0.503495 0
M  V30 8688 O 803.447 1.89866 0.48246 0
M  V30 8689 H 802.027 0.392124 -0.635805 0
M  V30 8690 H 804.689 0.35398 -1.91659 0
M  V30 8691 H 803.785 1.71726 -2.60608 0
M  V30 8692 N 804.086 1.46499 0.581025 0
M  V30 8693 C 805.334 1.51596 1.33653 0
M  V30 8694 C 805.655 0.169859 1.94259 0
M  V30 8695 O 804.925 -0.803776 1.78651 0
M  V30 8696 H 803.505 0.558346 0.496244 0
M  V30 8697 H 806.167 1.8264 0.680338 0
M  V30 8698 H 805.263 2.26956 2.14237 0
M  V30 8699 N 805.565 -0.825799 1.34232 0
M  V30 8700 C 806.811 -1.58379 1.27623 0
M  V30 8701 C 807.166 -1.91789 -0.15323 0
M  V30 8702 O 806.459 -1.56965 -1.09875 0
M  V30 8703 C 806.653 -2.89362 2.09772 0
M  V30 8704 C 806.482 -2.68747 3.60562 0
M  V30 8705 C 805.252 -2.6563 4.29848 0
M  V30 8706 C 807.45 -2.40463 4.54623 0
M  V30 8707 N 805.432 -2.3653 5.66504 0
M  V30 8708 C 806.803 -2.21032 5.79262 0
M  V30 8709 C 808.858 -2.26168 4.43568 0
M  V30 8710 C 807.561 -1.88754 6.94093 0
M  V30 8711 C 809.587 -1.95284 5.58228 0
M  V30 8712 C 808.949 -1.76674 6.81884 0
M  V30 8713 H 805.048 -0.582062 0.522234 0
M  V30 8714 H 807.632 -0.968308 1.68914 0
M  V30 8715 H 805.803 -3.48838 1.70783 0
M  V30 8716 H 807.535 -3.54716 1.94831 0
M  V30 8717 H 804.29 -2.79601 3.82257 0
M  V30 8718 H 804.714 -2.24827 6.38578 0
M  V30 8719 H 809.356 -2.39262 3.48588 0
M  V30 8720 H 807.074 -1.74397 7.89057 0
M  V30 8721 H 810.66 -1.84959 5.51617 0
M  V30 8722 H 809.54 -1.53123 7.69105 0
M  V30 8723 N 807.043 -1.17915 -1.04565 0
M  V30 8724 C 808.289 -0.972863 -1.77942 0
M  V30 8725 C 808.622 0.496753 -1.87739 0
M  V30 8726 O 807.897 1.3688 -1.38181 0
M  V30 8727 C 808.18 -1.62227 -3.21488 0
M  V30 8728 C 808.033 -3.16441 -3.19664 0
M  V30 8729 C 809.352 -1.33137 -4.19479 0
M  V30 8730 H 806.471 -0.354843 -0.645953 0
M  V30 8731 H 809.113 -1.45508 -1.22178 0
M  V30 8732 H 807.263 -1.21224 -3.69103 0
M  V30 8733 H 808.935 -3.66544 -2.80077 0
M  V30 8734 H 807.178 -3.48863 -2.57832 0
M  V30 8735 H 807.849 -3.57012 -4.21006 0
M  V30 8736 H 810.325 -1.68654 -3.80388 0
M  V30 8737 H 809.201 -1.81151 -5.18146 0
M  V30 8738 H 809.462 -0.253319 -4.41374 0
M  V30 8739 N 808.521 1.23394 -0.980386 0
M  V30 8740 C 809.761 1.93543 -0.657288 0
M  V30 8741 C 810.125 1.74791 0.794477 0
M  V30 8742 O 811.326 2.39089 1.2284 0
M  V30 8743 C 809.597 3.42025 -1.03701 0
M  V30 8744 S 811.156 4.30871 -0.830379 0
M  V30 8745 H 807.974 0.669012 -0.240717 0
M  V30 8746 H 810.576 1.49478 -1.26002 0
M  V30 8747 H 809.28 3.53183 -2.09022 0
M  V30 8748 H 808.811 3.91091 -0.425559 0
M  V30 8749 H 810.826 4.95377 0.285719 0
M  V30 8750 N 809.999 0.752036 1.385 0
M  V30 8751 C 811.239 0.312408 2.01998 0
M  V30 8752 C 811.603 -1.085 1.58404 0
M  V30 8753 O 812.804 -1.62365 2.14222 0
M  V30 8754 C 811.075 0.429423 3.54811 0
M  V30 8755 S 812.634 0.0721487 4.38741 0
M  V30 8756 H 809.452 0.1213 0.700576 0
M  V30 8757 H 812.054 0.982312 1.69029 0
M  V30 8758 H 810.758 1.44743 3.84028 0
M  V30 8759 H 810.289 -0.257716 3.92555 0
M  V30 8760 H 812.304 -1.13875 4.82957 0
M  V30 8761 N 811.477 -1.49425 0.500989 0
M  V30 8762 C 812.724 -2.02453 -0.0435355 0
M  V30 8763 C 813.052 -1.38067 -1.36995 0
M  V30 8764 O 812.307 -0.505557 -1.89057 0
M  V30 8765 C 812.606 -3.56562 -0.24463 0
M  V30 8766 C 812.272 -4.39585 1.00379 0
M  V30 8767 C 810.934 -4.61992 1.346 0
M  V30 8768 C 813.286 -4.87881 1.83361 0
M  V30 8769 C 810.614 -5.2994 2.51755 0
M  V30 8770 C 812.966 -5.57119 2.99669 0
M  V30 8771 C 811.63 -5.77771 3.3427 0
M  V30 8772 H 810.9 -0.740829 -0.0159308 0
M  V30 8773 H 813.547 -1.79725 0.661143 0
M  V30 8774 H 811.852 -3.77969 -1.03183 0
M  V30 8775 H 813.549 -3.95185 -0.6804 0
M  V30 8776 H 810.139 -4.22385 0.727225 0
M  V30 8777 H 814.323 -4.70398 1.58237 0
M  V30 8778 H 809.579 -5.44133 2.788 0
M  V30 8779 H 813.753 -5.93516 3.64296 0
M  V30 8780 H 811.38 -6.30197 4.25154 0
M  V30 8781 N 812.955 -0.234822 -1.55841 0
M  V30 8782 C 813.885 0.664217 -2.23854 0
M  V30 8783 C 814.866 1.19076 -1.2147 0
M  V30 8784 O 816.051 1.23232 -1.50091 0
M  V30 8785 C 813.181 1.86666 -2.9287 0
M  V30 8786 C 812.135 1.47341 -4.01839 0
M  V30 8787 C 811.461 2.75571 -4.58219 0
M  V30 8788 C 812.761 0.653479 -5.18196 0
M  V30 8789 H 814.455 0.0971213 -2.99242 0
M  V30 8790 H 812.001 0.0452724 -1.43929 0
M  V30 8791 H 813.954 2.50116 -3.39146 0
M  V30 8792 H 812.678 2.45894 -2.1495 0
M  V30 8793 H 811.337 0.862314 -3.56314 0
M  V30 8794 H 810.985 3.32971 -3.77014 0
M  V30 8795 H 810.685 2.49987 -5.31771 0
M  V30 8796 H 812.209 3.39939 -5.07221 0
M  V30 8797 H 813.623 1.19198 -5.60771 0
M  V30 8798 H 812.02 0.494188 -5.98062 0
M  V30 8799 H 813.09 -0.337004 -4.83728 0
M  V30 8800 N 814.433 1.57553 0.0384317 0
M  V30 8801 C 815.363 2.0898 1.04161 0
M  V30 8802 C 816.344 0.99029 1.38301 0
M  V30 8803 O 817.529 1.26499 1.47349 0
M  V30 8804 C 814.659 2.56145 2.34536 0
M  V30 8805 C 813.613 3.70275 2.14663 0
M  V30 8806 C 812.939 4.03612 3.50715 0
M  V30 8807 C 814.239 4.99067 1.54045 0
M  V30 8808 H 815.933 2.93046 0.613548 0
M  V30 8809 H 813.479 1.40973 0.293684 0
M  V30 8810 H 815.432 2.90741 3.05037 0
M  V30 8811 H 814.156 1.6915 2.79385 0
M  V30 8812 H 812.815 3.36013 1.46597 0
M  V30 8813 H 812.463 3.13698 3.93195 0
M  V30 8814 H 812.163 4.80482 3.38247 0
M  V30 8815 H 813.687 4.40735 4.22593 0
M  V30 8816 H 815.101 5.3168 2.14451 0
M  V30 8817 H 813.498 5.80484 1.52178 0
M  V30 8818 H 814.568 4.8226 0.505259 0
M  V30 8819 N 815.911 -0.310526 1.54511 0
M  V30 8820 C 816.874 -1.3657 1.84068 0
M  V30 8821 C 817.874 -1.44123 0.713097 0
M  V30 8822 O 819.064 -1.43924 0.981399 0
M  V30 8823 C 816.196 -2.75162 2.01243 0
M  V30 8824 H 817.389 -1.1161 2.78358 0
M  V30 8825 H 814.942 -0.546699 1.46427 0
M  V30 8826 H 815.677 -3.05359 1.09208 0
M  V30 8827 H 815.462 -2.71071 2.83307 0
M  V30 8828 H 816.952 -3.51473 2.25514 0
M  V30 8829 N 817.389 -1.46805 -0.573248 0
M  V30 8830 C 818.319 -1.60951 -1.69165 0
M  V30 8831 C 819.3 -0.45948 -1.63777 0
M  V30 8832 O 820.485 -0.68688 -1.81647 0
M  V30 8833 C 817.615 -1.60844 -3.07809 0
M  V30 8834 C 816.569 -2.74913 -3.28035 0
M  V30 8835 C 815.895 -2.59871 -4.67302 0
M  V30 8836 C 817.195 -4.16654 -3.14955 0
M  V30 8837 H 818.889 -2.54574 -1.57582 0
M  V30 8838 H 816.435 -1.22516 -0.756686 0
M  V30 8839 H 818.388 -1.69334 -3.85881 0
M  V30 8840 H 817.112 -0.637714 -3.20314 0
M  V30 8841 H 815.771 -2.65908 -2.52366 0
M  V30 8842 H 815.419 -1.60861 -4.76585 0
M  V30 8843 H 815.119 -3.36386 -4.81786 0
M  V30 8844 H 816.643 -2.70265 -5.4753 0
M  V30 8845 H 818.057 -4.26721 -3.82861 0
M  V30 8846 H 816.454 -4.93831 -3.40956 0
M  V30 8847 H 817.524 -4.36146 -2.11908 0
M  V30 8848 N 818.867 0.818669 -1.34668 0
M  V30 8849 C 819.797 1.94468 -1.29245 0
M  V30 8850 C 820.778 1.69257 -0.169101 0
M  V30 8851 O 821.963 1.90794 -0.362143 0
M  V30 8852 C 819.093 3.31001 -1.05145 0
M  V30 8853 C 818.047 3.70663 -2.13992 0
M  V30 8854 C 817.373 5.05226 -1.75074 0
M  V30 8855 C 818.673 3.82312 -3.55858 0
M  V30 8856 H 820.367 1.99263 -2.2346 0
M  V30 8857 H 817.913 0.957304 -1.07572 0
M  V30 8858 H 819.866 4.09364 -0.999949 0
M  V30 8859 H 818.59 3.26517 -0.0737312 0
M  V30 8860 H 817.249 2.94578 -2.18219 0
M  V30 8861 H 816.897 4.97233 -0.759518 0
M  V30 8862 H 816.597 5.32734 -2.47928 0
M  V30 8863 H 818.121 5.86042 -1.71427 0
M  V30 8864 H 819.535 4.50935 -3.5402 0
M  V30 8865 H 817.932 4.21278 -4.2737 0
M  V30 8866 H 819.002 2.84193 -3.9289 0
M  V30 8867 N 820.346 1.18468 1.03938 0
M  V30 8868 C 821.757 0.984808 1.58614 0
M  V30 8869 C 822.108 -0.465165 1.90606 0
M  V30 8870 O 821.233 -1.34274 1.69704 0
M  V30 8871 C 821.828 1.78135 2.8819 0
M  V30 8872 C 820.387 1.62579 3.39478 0
M  V30 8873 C 819.534 1.77501 2.13046 0
M  V30 8874 H 822.485 1.32993 0.865944 0
M  V30 8875 H 822.506 1.27119 3.58638 0
M  V30 8876 H 822.018 2.83661 2.64874 0
M  V30 8877 H 820.119 0.59595 3.67803 0
M  V30 8878 H 820.232 2.42463 4.13217 0
M  V30 8879 H 818.596 1.2046 2.24414 0
M  V30 8880 H 819.379 2.84464 1.92185 0
M  V30 8881 N 821.824 -1.22873 0.986916 0
M  V30 8882 C 822.754 -2.2688 0.552064 0
M  V30 8883 C 823.735 -1.64883 -0.418048 0
M  V30 8884 O 824.92 -1.9171 -0.30999 0
M  V30 8885 C 822.05 -3.47018 -0.139959 0
M  V30 8886 C 821.004 -4.21411 0.748091 0
M  V30 8887 C 820.33 -5.34645 -0.0765132 0
M  V30 8888 C 821.63 -4.80726 2.04206 0
M  V30 8889 H 823.324 -2.63507 1.42143 0
M  V30 8890 H 820.87 -1.26668 0.68492 0
M  V30 8891 H 822.823 -4.18931 -0.455527 0
M  V30 8892 H 821.547 -3.0947 -1.04382 0
M  V30 8893 H 820.206 -3.51325 1.04721 0
M  V30 8894 H 819.854 -4.93339 -0.981109 0
M  V30 8895 H 819.554 -5.85342 0.514606 0
M  V30 8896 H 821.078 -6.09377 -0.386313 0
M  V30 8897 H 822.492 -5.44612 1.79083 0
M  V30 8898 H 820.889 -5.41737 2.5815 0
M  V30 8899 H 821.959 -4.01109 2.72469 0
M  V30 8900 N 823.302 -0.75937 -1.38099 0
M  V30 8901 C 824.548 -0.318584 -2.00282 0
M  V30 8902 C 824.881 1.09854 -1.60143 0
M  V30 8903 O 824.156 1.75344 -0.841702 0
M  V30 8904 C 824.439 -0.448047 -3.57302 0
M  V30 8905 C 824.292 -1.9067 -4.07388 0
M  V30 8906 C 825.611 0.155119 -4.39827 0
M  V30 8907 H 822.73 -0.117233 -0.727616 0
M  V30 8908 H 825.372 -0.960097 -1.63958 0
M  V30 8909 H 823.522 0.0981003 -3.88376 0
M  V30 8910 H 825.194 -2.5116 -3.86932 0
M  V30 8911 H 823.437 -2.41979 -3.6004 0
M  V30 8912 H 824.108 -1.94841 -5.1647 0
M  V30 8913 H 826.584 -0.31073 -4.14938 0
M  V30 8914 H 825.46 0.0343264 -5.48889 0
M  V30 8915 H 825.721 1.24407 -4.24235 0
M  V30 8916 N 824.78 1.49157 -0.508906 0
M  V30 8917 C 826.028 2.02073 0.0327335 0
M  V30 8918 C 826.349 1.39012 1.3675 0
M  V30 8919 O 825.619 0.548153 1.88075 0
M  V30 8920 H 824.199 0.746848 0.0150864 0
M  V30 8921 H 826.861 1.83097 -0.667946 0
M  V30 8922 H 825.957 3.11707 0.1566 0
M  V30 8923 N 826.258 0.243083 1.55714 0
M  V30 8924 C 827.507 -0.383188 1.98027 0
M  V30 8925 C 827.82 -1.59347 1.13436 0
M  V30 8926 O 829.026 -2.29065 1.45745 0
M  V30 8927 C 827.482 -0.733135 3.52354 0
M  V30 8928 C 827.09 0.455539 4.45678 0
M  V30 8929 C 828.834 -1.32381 4.03331 0
M  V30 8930 C 826.741 0.0819591 5.91343 0
M  V30 8931 H 825.671 -0.146944 0.739543 0
M  V30 8932 H 828.322 0.342697 1.80272 0
M  V30 8933 H 826.704 -1.51704 3.65789 0
M  V30 8934 H 827.878 1.23291 4.44 0
M  V30 8935 H 826.193 0.960886 4.05162 0
M  V30 8936 H 828.79 -1.61658 5.09677 0
M  V30 8937 H 829.133 -2.24698 3.50452 0
M  V30 8938 H 829.666 -0.602885 3.93205 0
M  V30 8939 H 826.405 0.972171 6.48251 0
M  V30 8940 H 825.925 -0.659291 5.96166 0
M  V30 8941 H 827.604 -0.3372 6.46121 0
M  V30 8942 N 827.736 -1.57571 -0.0300757 0
M  V30 8943 C 828.961 -1.93879 -0.736601 0
M  V30 8944 C 829.386 -0.842998 -1.68152 0
M  V30 8945 O 828.744 0.20135 -1.80178 0
M  V30 8946 C 828.792 -3.29247 -1.47066 0
M  V30 8947 O 827.896 -3.21426 -2.58378 0
M  V30 8948 H 827.237 -0.633735 -0.198181 0
M  V30 8949 H 829.767 -2.04595 0.0141485 0
M  V30 8950 H 829.777 -3.64113 -1.84081 0
M  V30 8951 H 828.452 -4.08565 -0.77764 0
M  V30 8952 H 827.029 -2.98189 -2.23914 0
M  V30 8953 N 829.214 0.302327 -1.54673 0
M  V30 8954 C 830.439 1.06103 -1.78205 0
M  V30 8955 C 830.864 1.80204 -0.53926 0
M  V30 8956 O 830.222 1.73975 0.510142 0
M  V30 8957 C 830.27 2.01829 -2.98827 0
M  V30 8958 O 829.374 3.10108 -2.71858 0
M  V30 8959 H 828.715 0.30487 -0.589873 0
M  V30 8960 H 831.245 0.340153 -2.01753 0
M  V30 8961 H 831.255 2.44319 -3.2676 0
M  V30 8962 H 829.93 1.473 -3.88942 0
M  V30 8963 H 828.507 2.72142 -2.54937 0
M  V30 8964 N 830.692 1.47107 0.565454 0
M  V30 8965 C 831.922 1.56681 1.34664 0
M  V30 8966 C 832.33 0.213011 1.87997 0
M  V30 8967 O 831.673 -0.802629 1.65238 0
M  V30 8968 C 831.735 2.52528 2.55871 0
M  V30 8969 C 831.399 3.98403 2.23883 0
M  V30 8970 C 832.396 4.87125 1.81673 0
M  V30 8971 C 830.081 4.43674 2.35496 0
M  V30 8972 C 832.075 6.19135 1.51494 0
M  V30 8973 C 829.762 5.75714 2.0493 0
M  V30 8974 C 830.76 6.63266 1.62996 0
M  V30 8975 O 830.448 7.92853 1.32813 0
M  V30 8976 H 830.18 0.531967 0.417117 0
M  V30 8977 H 832.734 1.93368 0.692669 0
M  V30 8978 H 830.964 2.10893 3.24131 0
M  V30 8979 H 832.653 2.5232 3.17945 0
M  V30 8980 H 833.419 4.534 1.72201 0
M  V30 8981 H 829.298 3.7574 2.67096 0
M  V30 8982 H 832.842 6.87429 1.1869 0
M  V30 8983 H 828.739 6.08983 2.14031 0
M  V30 8984 H 829.507 8.0528 1.46513 0
M  V30 8985 N 832.17 -0.811516 1.35101 0
M  V30 8986 C 833.133 -1.90467 1.27495 0
M  V30 8987 C 834.133 -1.59703 0.187516 0
M  V30 8988 O 835.323 -1.68528 0.440896 0
M  V30 8989 C 832.455 -3.26774 0.971154 0
M  V30 8990 H 833.648 -1.98631 2.2469 0
M  V30 8991 H 831.201 -1.00681 1.19553 0
M  V30 8992 H 831.936 -3.243 0.0028557 0
M  V30 8993 H 831.721 -3.50488 1.75785 0
M  V30 8994 H 833.211 -4.06804 0.943414 0
M  V30 8995 N 833.648 -1.19017 -1.03309 0
M  V30 8996 C 834.595 -0.924088 -2.11493 0
M  V30 8997 C 835.565 0.139464 -1.65513 0
M  V30 8998 O 836.75 -0.00178761 -1.908 0
M  V30 8999 C 833.89 -0.464255 -3.41963 0
M  V30 9000 C 833.003 -1.5941 -4.01513 0
M  V30 9001 C 832.138 -1.08622 -5.19976 0
M  V30 9002 C 831.177 -2.19024 -5.71572 0
M  V30 9003 N 830.314 -1.69575 -6.81314 0
M  V30 9004 H 835.154 -1.85039 -2.33591 0
M  V30 9005 H 832.691 -0.922593 -1.14572 0
M  V30 9006 H 834.649 -0.179078 -4.16815 0
M  V30 9007 H 833.279 0.425062 -3.19989 0
M  V30 9008 H 832.331 -1.99458 -3.23915 0
M  V30 9009 H 833.643 -2.42604 -4.35826 0
M  V30 9010 H 832.797 -0.756022 -6.01971 0
M  V30 9011 H 831.536 -0.223955 -4.87186 0
M  V30 9012 H 830.541 -2.5288 -4.88193 0
M  V30 9013 H 831.766 -3.05699 -6.06403 0
M  V30 9014 H 829.712 -0.856494 -6.50385 0
M  V30 9015 H 829.629 -2.46361 -7.14732 0
M  V30 9016 H 830.897 -1.39505 -7.66915 0
M  V30 9017 N 835.127 1.22348 -0.993418 0
M  V30 9018 C 836.373 1.91393 -0.67056 0
M  V30 9019 C 836.706 1.77163 0.795428 0
M  V30 9020 O 835.981 1.14084 1.57528 0
M  V30 9021 C 836.264 3.43589 -1.0779 0
M  V30 9022 C 836.117 3.66867 -2.60248 0
M  V30 9023 C 837.436 4.35545 -0.631527 0
M  V30 9024 H 834.555 0.695057 -0.24508 0
M  V30 9025 H 837.197 1.44213 -1.23703 0
M  V30 9026 H 835.347 3.83903 -0.595902 0
M  V30 9027 H 837.019 3.35954 -3.16121 0
M  V30 9028 H 835.262 3.1113 -3.02293 0
M  V30 9029 H 835.933 4.73457 -2.838 0
M  V30 9030 H 838.409 4.0275 -1.04554 0
M  V30 9031 H 837.285 5.40707 -0.944831 0
M  V30 9032 H 837.546 4.39618 0.467779 0
M  V30 9033 N 836.605 0.766683 1.37694 0
M  V30 9034 C 837.83 0.338715 2.04615 0
M  V30 9035 C 838.255 -1.02918 1.57447 0
M  V30 9036 O 837.613 -1.65849 0.732386 0
M  V30 9037 C 837.661 0.385284 3.58536 0
M  V30 9038 O 836.765 -0.616081 4.07772 0
M  V30 9039 H 836.106 0.147527 0.647404 0
M  V30 9040 H 838.636 1.04146 1.7611 0
M  V30 9041 H 838.646 0.240782 4.07289 0
M  V30 9042 H 837.321 1.38325 3.92223 0
M  V30 9043 H 835.898 -0.435115 3.70353 0
M  V30 9044 N 838.083 -1.48885 0.516809 0
M  V30 9045 C 839.332 -2.01686 -0.0239899 0
M  V30 9046 C 839.645 -1.40029 -1.3657 0
M  V30 9047 O 840.851 -1.84249 -1.9941 0
M  V30 9048 C 839.307 -3.59779 -0.0931825 0
M  V30 9049 C 838.915 -4.30416 1.24283 0
M  V30 9050 C 840.659 -4.20471 -0.583507 0
M  V30 9051 C 838.566 -5.80408 1.13494 0
M  V30 9052 H 837.496 -0.753892 -0.0127376 0
M  V30 9053 H 840.147 -1.71273 0.65861 0
M  V30 9054 H 838.529 -3.86976 -0.840577 0
M  V30 9055 H 839.703 -4.14905 2.00476 0
M  V30 9056 H 838.018 -3.81539 1.66785 0
M  V30 9057 H 840.615 -5.30333 -0.681987 0
M  V30 9058 H 840.958 -3.84898 -1.58617 0
M  V30 9059 H 841.491 -3.97654 0.107814 0
M  V30 9060 H 838.23 -6.20532 2.11235 0
M  V30 9061 H 837.75 -5.98368 0.414167 0
M  V30 9062 H 839.429 -6.41781 0.820162 0
M  V30 9063 N 839.561 -0.251338 -1.55583 0
M  V30 9064 C 840.801 0.373651 -2.00956 0
M  V30 9065 C 841.165 1.54806 -1.13574 0
M  V30 9066 O 842.366 2.24108 -1.48422 0
M  V30 9067 C 840.637 0.768919 -3.49031 0
M  V30 9068 S 842.196 1.38381 -4.16409 0
M  V30 9069 H 839.014 0.117371 -0.701245 0
M  V30 9070 H 841.616 -0.367611 -1.92013 0
M  V30 9071 H 840.32 -0.0950492 -4.1029 0
M  V30 9072 H 839.851 1.54225 -3.61909 0
M  V30 9073 H 841.866 2.6728 -4.18062 0
M  V30 9074 N 841.039 1.57585 0.0217189 0
M  V30 9075 C 841.969 2.10073 1.01939 0
M  V30 9076 C 842.95 1.0049 1.37243 0
M  V30 9077 O 844.135 1.28055 1.45999 0
M  V30 9078 C 841.265 2.58618 2.31806 0
M  V30 9079 C 840.219 3.72531 2.10724 0
M  V30 9080 C 839.545 4.07309 3.46415 0
M  V30 9081 C 840.845 5.00672 1.48743 0
M  V30 9082 H 842.539 2.9368 0.582432 0
M  V30 9083 H 840.085 1.41277 0.278715 0
M  V30 9084 H 842.038 2.9396 3.01936 0
M  V30 9085 H 840.762 1.72104 2.77575 0
M  V30 9086 H 839.421 3.37549 1.43025 0
M  V30 9087 H 839.069 3.17851 3.89846 0
M  V30 9088 H 838.769 4.84042 3.33132 0
M  V30 9089 H 840.293 4.45192 4.17895 0
M  V30 9090 H 841.707 5.33925 2.088 0
M  V30 9091 H 840.104 5.82065 1.46013 0
M  V30 9092 H 841.174 4.82769 0.45408 0
M  V30 9093 N 842.517 -0.29412 1.54831 0
M  V30 9094 C 843.928 -0.866651 1.65366 0
M  V30 9095 C 844.279 -1.87834 0.56681 0
M  V30 9096 O 843.404 -2.14374 -0.295389 0
M  V30 9097 C 843.999 -1.57869 2.99771 0
M  V30 9098 C 842.558 -2.09954 3.12404 0
M  V30 9099 C 841.705 -0.934492 2.6108 0
M  V30 9100 H 844.656 -0.0709551 1.58541 0
M  V30 9101 H 844.677 -2.44462 2.91579 0
M  V30 9102 H 844.189 -0.84212 3.78853 0
M  V30 9103 H 842.29 -2.86637 2.38055 0
M  V30 9104 H 842.403 -2.32934 4.18663 0
M  V30 9105 H 840.767 -1.32199 2.17705 0
M  V30 9106 H 841.55 -0.211768 3.42646 0
M  V30 9107 N 843.995 -1.47404 -0.557645 0
M  V30 9108 C 844.928 -1.54399 -1.68036 0
M  V30 9109 C 845.906 -0.396175 -1.577 0
M  V30 9110 O 847.09 -0.603911 -1.78564 0
M  V30 9111 C 844.217 -1.44611 -3.06277 0
M  V30 9112 C 843.263 -2.63889 -3.35059 0
M  V30 9113 S 844.096 -4.26086 -3.24362 0
M  V30 9114 C 845.252 -4.1885 -4.65097 0
M  V30 9115 H 845.485 -2.49384 -1.61849 0
M  V30 9116 H 843.018 -1.35597 -0.738429 0
M  V30 9117 H 844.976 -1.39651 -3.86015 0
M  V30 9118 H 843.637 -0.510114 -3.0993 0
M  V30 9119 H 842.83 -2.53103 -4.35838 0
M  V30 9120 H 842.432 -2.65969 -2.62938 0
M  V30 9121 H 844.724 -3.87077 -5.56037 0
M  V30 9122 H 845.667 -5.19714 -4.8094 0
M  V30 9123 H 846.075 -3.49717 -4.43123 0
M  V30 9124 N 845.473 0.80434 -1.35529 0
M  V30 9125 C 846.75 1.5486 -1.1949 0
M  V30 9126 C 847.13 2.09897 0.22506 0
M  V30 9127 O 846.478 1.92643 1.22886 0
M  V30 9128 C 846.688 2.65535 -2.26478 0
M  V30 9129 C 848.036 3.33814 -2.62399 0
M  V30 9130 O 849.06 2.75807 -2.25409 0
M  V30 9131 O 847.919 4.38612 -3.26009 0
M  V30 9132 H 845.013 0.68433 -0.464351 0
M  V30 9133 H 847.559 0.844107 -1.47217 0
M  V30 9134 H 846.331 2.22754 -3.21709 0
M  V30 9135 H 845.954 3.43617 -2.00033 0
M  V30 9136 N 846.951 1.19563 1.02676 0
M  V30 9137 C 848.179 1.02488 1.79732 0
M  V30 9138 C 848.594 -0.426302 1.83924 0
M  V30 9139 O 847.951 -1.29609 1.28483 0
M  V30 9140 C 848.002 1.58944 3.24683 0
M  V30 9141 O 847.723 2.98382 3.2078 0
M  V30 9142 C 849.224 1.46681 4.1833 0
M  V30 9143 H 846.444 0.361098 0.565552 0
M  V30 9144 H 848.988 1.58426 1.29311 0
M  V30 9145 H 847.143 1.0715 3.72287 0
M  V30 9146 H 847.557 3.24983 4.11687 0
M  V30 9147 H 849.031 1.90959 5.17918 0
M  V30 9148 H 849.508 0.417663 4.3721 0
M  V30 9149 H 850.114 1.97616 3.76601 0
M  V30 9150 N 848.429 -1.21819 0.999893 0
M  V30 9151 C 849.339 -2.27691 0.565159 0
M  V30 9152 C 850.355 -1.69587 -0.389398 0
M  V30 9153 O 851.531 -1.99786 -0.254499 0
M  V30 9154 C 848.596 -3.46537 -0.106432 0
M  V30 9155 C 847.657 -4.19932 0.891964 0
M  V30 9156 C 846.89 -5.33103 0.252327 0
M  V30 9157 O 847.113 -5.62398 -0.952103 0
M  V30 9158 O 846.047 -5.94184 0.960698 0
M  V30 9159 H 849.873 -2.67059 1.44613 0
M  V30 9160 H 847.458 -1.28119 0.768499 0
M  V30 9161 H 849.34 -4.18631 -0.482301 0
M  V30 9162 H 848.015 -3.09079 -0.961865 0
M  V30 9163 H 846.922 -3.5008 1.3189 0
M  V30 9164 H 848.255 -4.61287 1.71682 0
M  V30 9165 N 849.908 -0.773975 -1.37286 0
M  V30 9166 C 851.136 -0.350758 -2.03905 0
M  V30 9167 C 851.551 1.02779 -1.58373 0
M  V30 9168 O 850.908 1.65646 -0.766009 0
M  V30 9169 C 850.959 -0.387335 -3.59419 0
M  V30 9170 O 850.68 -1.7115 -4.03286 0
M  V30 9171 C 852.181 0.047198 -4.43275 0
M  V30 9172 H 849.401 -0.146663 -0.654775 0
M  V30 9173 H 851.945 -1.04852 -1.75574 0
M  V30 9174 H 850.1 0.261865 -3.86514 0
M  V30 9175 H 850.514 -1.65166 -4.97816 0
M  V30 9176 H 851.988 -0.0295474 -5.51992 0
M  V30 9177 H 852.465 1.09786 -4.25257 0
M  V30 9178 H 853.071 -0.573899 -4.2141 0
M  V30 9179 N 851.386 1.48609 -0.524698 0
M  V30 9180 C 852.797 1.86516 -0.0828846 0
M  V30 9181 C 853.148 1.43478 1.33822 0
M  V30 9182 O 852.273 0.823139 2.00133 0
M  V30 9183 C 852.868 3.38495 -0.143639 0
M  V30 9184 C 851.427 3.75615 0.242951 0
M  V30 9185 C 850.574 2.72649 -0.505747 0
M  V30 9186 H 853.525 1.40589 -0.736233 0
M  V30 9187 H 853.546 3.74977 0.645955 0
M  V30 9188 H 853.058 3.69789 -1.17805 0
M  V30 9189 H 851.159 3.49935 1.27971 0
M  V30 9190 H 851.272 4.7901 -0.0929834 0
M  V30 9191 H 849.636 2.54656 0.0473482 0
M  V30 9192 H 850.419 3.06786 -1.54069 0
M  V30 9193 N 852.864 0.259585 1.55447 0
M  V30 9194 C 853.794 -0.62852 2.24882 0
M  V30 9195 C 854.775 -1.17128 1.23349 0
M  V30 9196 O 855.96 -1.20829 1.52033 0
M  V30 9197 C 853.09 -1.81983 2.95803 0
M  V30 9198 C 852.044 -1.40929 4.04132 0
M  V30 9199 C 851.37 -2.68246 4.62545 0
M  V30 9200 C 852.67 -0.570956 5.1917 0
M  V30 9201 H 854.364 -0.0495021 2.99359 0
M  V30 9202 H 851.91 -0.0223688 1.43983 0
M  V30 9203 H 853.863 -2.44689 3.43082 0
M  V30 9204 H 852.587 -2.42444 2.18835 0
M  V30 9205 H 851.246 -0.805519 3.57641 0
M  V30 9206 H 850.894 -3.26931 3.82263 0
M  V30 9207 H 850.594 -2.41495 5.35681 0
M  V30 9208 H 852.118 -3.31827 5.12565 0
M  V30 9209 H 853.532 -1.10262 5.62597 0
M  V30 9210 H 851.929 -0.398979 5.98772 0
M  V30 9211 H 852.999 0.413918 4.8313 0
M  V30 9212 N 854.342 -1.57594 -0.0133615 0
M  V30 9213 C 855.305 -2.06534 -0.993799 0
M  V30 9214 C 856.305 -0.972267 -1.28077 0
M  V30 9215 O 857.495 -1.23537 -1.22818 0
M  V30 9216 C 854.627 -2.49554 -2.3224 0
M  V30 9217 H 855.82 -2.94419 -0.570741 0
M  V30 9218 H 853.373 -1.54113 -0.260546 0
M  V30 9219 H 854.108 -1.64872 -2.79263 0
M  V30 9220 H 853.893 -3.29371 -2.12737 0
M  V30 9221 H 855.383 -2.8779 -3.026 0
M  V30 9222 N 855.82 0.285905 -1.54985 0
M  V30 9223 C 856.75 1.35752 -1.89983 0
M  V30 9224 C 857.731 1.52163 -0.760295 0
M  V30 9225 O 858.916 1.65421 -1.01733 0
M  V30 9226 C 856.046 2.71925 -2.16042 0
M  V30 9227 C 855 2.70261 -3.31878 0
M  V30 9228 C 854.326 4.09864 -3.43388 0
M  V30 9229 C 855.626 2.30667 -4.68604 0
M  V30 9230 H 857.32 1.06709 -2.79738 0
M  V30 9231 H 854.866 0.511884 -1.34595 0
M  V30 9232 H 856.819 3.46992 -2.39113 0
M  V30 9233 H 855.543 3.02523 -1.23074 0
M  V30 9234 H 854.202 1.97651 -3.08755 0
M  V30 9235 H 853.85 4.37664 -2.47909 0
M  V30 9236 H 853.55 4.09648 -4.21262 0
M  V30 9237 H 855.074 4.86689 -3.68736 0
M  V30 9238 H 856.488 2.95453 -4.91305 0
M  V30 9239 H 854.885 2.41637 -5.49301 0
M  V30 9240 H 855.955 1.25793 -4.68299 0
M  V30 9241 N 857.298 1.47698 0.54982 0
M  V30 9242 C 858.261 1.60282 1.63837 0
M  V30 9243 C 859.261 0.477394 1.5355 0
M  V30 9244 O 860.451 0.742665 1.57576 0
M  V30 9245 C 857.583 1.55431 3.03404 0
M  V30 9246 H 858.776 2.57325 1.54026 0
M  V30 9247 H 856.329 1.35999 0.770329 0
M  V30 9248 H 857.064 0.597912 3.1874 0
M  V30 9249 H 856.849 2.37116 3.12279 0
M  V30 9250 H 858.339 1.6739 3.82584 0
M  V30 9251 N 858.776 -0.797141 1.35954 0
M  V30 9252 C 860.006 -1.5835 1.32698 0
M  V30 9253 C 860.414 -1.88959 -0.0955298 0
M  V30 9254 O 859.757 -1.49987 -1.06064 0
M  V30 9255 C 859.819 -2.93529 2.0756 0
M  V30 9256 C 859.483 -2.85688 3.56695 0
M  V30 9257 C 860.48 -2.58467 4.51099 0
M  V30 9258 C 858.165 -3.04508 3.99475 0
M  V30 9259 C 860.159 -2.50157 5.8626 0
M  V30 9260 C 857.846 -2.9582 5.34728 0
M  V30 9261 C 858.844 -2.68681 6.27933 0
M  V30 9262 O 858.532 -2.59973 7.60703 0
M  V30 9263 H 858.264 -0.49807 0.457059 0
M  V30 9264 H 860.818 -0.997889 1.79531 0
M  V30 9265 H 859.048 -3.54111 1.55378 0
M  V30 9266 H 860.737 -3.54744 1.9726 0
M  V30 9267 H 861.503 -2.43638 4.19363 0
M  V30 9268 H 857.382 -3.24641 3.27306 0
M  V30 9269 H 860.926 -2.28894 6.58979 0
M  V30 9270 H 856.823 -3.10211 5.66074 0
M  V30 9271 H 857.591 -2.75511 7.70737 0
M  V30 9272 N 860.254 -1.20106 -1.0204 0
M  V30 9273 C 861.503 -1.00316 -1.74985 0
M  V30 9274 C 861.816 0.465814 -1.89972 0
M  V30 9275 O 863.022 0.782749 -2.59972 0
M  V30 9276 C 861.478 -1.74608 -3.14706 0
M  V30 9277 C 861.086 -3.25573 -3.07744 0
M  V30 9278 C 862.83 -1.63172 -3.91887 0
M  V30 9279 C 860.737 -3.92419 -4.42449 0
M  V30 9280 H 859.667 -0.371728 -0.655999 0
M  V30 9281 H 862.318 -1.43688 -1.14131 0
M  V30 9282 H 860.7 -1.24021 -3.76078 0
M  V30 9283 H 861.874 -3.83345 -2.55702 0
M  V30 9284 H 860.189 -3.3738 -2.44057 0
M  V30 9285 H 862.786 -2.10457 -4.9154 0
M  V30 9286 H 863.129 -0.58728 -4.12137 0
M  V30 9287 H 863.662 -2.11152 -3.37135 0
M  V30 9288 H 860.401 -4.96998 -4.27403 0
M  V30 9289 H 859.921 -3.39436 -4.94513 0
M  V30 9290 H 861.6 -3.96453 -5.11306 0
M  V30 9291 N 861.732 1.21287 -1.00634 0
M  V30 9292 C 862.978 1.90671 -0.690822 0
M  V30 9293 C 863.311 1.77996 0.776592 0
M  V30 9294 O 862.586 1.15748 1.5631 0
M  V30 9295 C 862.869 3.42426 -1.11428 0
M  V30 9296 C 862.722 3.64086 -2.64124 0
M  V30 9297 C 864.041 4.34851 -0.677686 0
M  V30 9298 H 861.16 0.692419 -0.252439 0
M  V30 9299 H 863.802 1.42893 -1.25226 0
M  V30 9300 H 861.952 3.83249 -0.636586 0
M  V30 9301 H 863.624 3.32582 -3.19667 0
M  V30 9302 H 861.867 3.07906 -3.05576 0
M  V30 9303 H 862.538 4.7042 -2.88806 0
M  V30 9304 H 865.014 4.01619 -1.0882 0
M  V30 9305 H 863.89 5.39675 -1.00213 0
M  V30 9306 H 864.151 4.4009 0.421125 0
M  V30 9307 N 863.21 0.781244 1.36873 0
M  V30 9308 C 864.457 0.349889 1.99454 0
M  V30 9309 C 864.785 -1.07621 1.62013 0
M  V30 9310 O 864.04 -1.75665 0.86258 0
M  V30 9311 C 864.339 0.45146 3.54537 0
M  V30 9312 C 864.005 1.83718 4.11775 0
M  V30 9313 C 862.667 2.21634 4.2712 0
M  V30 9314 C 865.019 2.7449 4.43063 0
M  V30 9315 C 862.347 3.49742 4.7106 0
M  V30 9316 C 864.699 4.02017 4.88431 0
M  V30 9317 C 863.363 4.39967 5.01982 0
M  V30 9318 H 862.633 0.128033 0.729855 0
M  V30 9319 H 865.28 0.997117 1.63493 0
M  V30 9320 H 863.585 -0.279288 3.90803 0
M  V30 9321 H 865.282 0.0988609 4.00878 0
M  V30 9322 H 861.872 1.53251 4.00265 0
M  V30 9323 H 866.056 2.46453 4.30783 0
M  V30 9324 H 861.312 3.79026 4.79738 0
M  V30 9325 H 865.486 4.72475 5.11605 0
M  V30 9326 H 863.113 5.39291 5.35788 0
M  V30 9327 N 864.689 -1.48329 0.532571 0
M  V30 9328 C 865.935 -2.028 -0.000583219 0
M  V30 9329 C 866.268 -1.40858 -1.33688 0
M  V30 9330 O 865.543 -0.555261 -1.86406 0
M  V30 9331 C 865.826 -3.59901 -0.119846 0
M  V30 9332 C 865.679 -4.32318 1.2418 0
M  V30 9333 C 866.998 -4.31904 -0.845372 0
M  V30 9334 H 864.117 -0.736999 0.00126205 0
M  V30 9335 H 866.759 -1.77024 0.690102 0
M  V30 9336 H 864.909 -3.81993 -0.708092 0
M  V30 9337 H 866.581 -4.21637 1.87136 0
M  V30 9338 H 864.824 -3.93635 1.82301 0
M  V30 9339 H 865.495 -5.40697 1.11132 0
M  V30 9340 H 867.971 -4.14658 -0.346159 0
M  V30 9341 H 866.847 -5.41509 -0.897723 0
M  V30 9342 H 867.108 -3.99369 -1.89622 0
M  V30 9343 N 866.167 -0.267825 -1.55308 0
M  V30 9344 C 867.097 0.616585 -2.25212 0
M  V30 9345 C 868.078 1.16472 -1.23969 0
M  V30 9346 O 869.263 1.20021 -1.52672 0
M  V30 9347 C 866.393 1.80412 -2.96764 0
M  V30 9348 C 865.347 1.38784 -4.04874 0
M  V30 9349 C 864.673 2.65789 -4.63961 0
M  V30 9350 C 865.973 0.543415 -5.19465 0
M  V30 9351 H 867.667 0.0336257 -2.99381 0
M  V30 9352 H 865.213 0.0147328 -1.43992 0
M  V30 9353 H 867.166 2.42866 -3.44375 0
M  V30 9354 H 865.89 2.4128 -2.20118 0
M  V30 9355 H 864.549 0.786541 -3.58063 0
M  V30 9356 H 864.197 3.24899 -3.83992 0
M  V30 9357 H 863.897 2.38651 -5.36954 0
M  V30 9358 H 865.421 3.29104 -5.14318 0
M  V30 9359 H 866.835 1.07277 -5.63174 0
M  V30 9360 H 865.232 0.367219 -5.98975 0
M  V30 9361 H 866.302 -0.439534 -4.82904 0
M  V30 9362 N 867.645 1.57599 0.00500368 0
M  V30 9363 C 868.873 1.94626 0.702016 0
M  V30 9364 C 869.288 0.86953 1.67585 0
M  V30 9365 O 868.645 -0.15199 1.81866 0
M  V30 9366 C 868.696 3.31658 1.43824 0
M  V30 9367 O 868.417 4.35197 0.503467 0
M  V30 9368 C 869.918 3.83114 2.23021 0
M  V30 9369 H 867.138 0.641785 0.195841 0
M  V30 9370 H 869.682 2.04451 -0.0446287 0
M  V30 9371 H 867.837 3.23156 2.13655 0
M  V30 9372 H 868.251 5.1444 1.02235 0
M  V30 9373 H 869.725 4.81438 2.7004 0
M  V30 9374 H 870.202 3.15559 3.05482 0
M  V30 9375 H 870.808 3.94775 1.58216 0
M  V30 9376 N 869.123 -0.277682 1.55134 0
M  V30 9377 C 870.053 -1.34742 1.90701 0
M  V30 9378 C 871.034 -1.51757 0.768354 0
M  V30 9379 O 872.219 -1.64879 1.02609 0
M  V30 9380 C 869.349 -2.70775 2.17481 0
M  V30 9381 C 868.303 -2.68497 3.33307 0
M  V30 9382 C 867.629 -4.08037 3.45557 0
M  V30 9383 C 868.929 -2.28178 4.69821 0
M  V30 9384 H 870.623 -1.05224 2.803 0
M  V30 9385 H 868.169 -0.504738 1.34864 0
M  V30 9386 H 870.122 -3.45719 2.40949 0
M  V30 9387 H 868.846 -3.01867 1.24676 0
M  V30 9388 H 867.505 -1.9601 3.09799 0
M  V30 9389 H 867.153 -4.36344 2.50226 0
M  V30 9390 H 866.853 -4.07409 4.23429 0
M  V30 9391 H 868.377 -4.84726 3.71312 0
M  V30 9392 H 869.791 -2.92843 4.92865 0
M  V30 9393 H 868.188 -2.3872 5.50575 0
M  V30 9394 H 869.258 -1.23308 4.6896 0
M  V30 9395 N 870.601 -1.47988 -0.541979 0
M  V30 9396 C 871.549 -1.62044 -1.66867 0
M  V30 9397 C 872.543 -0.487217 -1.62242 0
M  V30 9398 O 873.749 -0.66554 -1.67244 0
M  V30 9399 H 870.124 -0.51024 -0.552412 0
M  V30 9400 H 872.095 -2.56695 -1.52153 0
M  V30 9401 C 870.844 -1.66615 -3.0518 0
M  V30 9402 H 870.167 -2.5317 -3.09427 0
M  V30 9403 H 871.607 -1.80496 -3.83663 0
M  V30 9404 C 870.066 -0.402421 -3.34488 0
M  V30 9405 O 870.596 0.48992 -3.98701 0
M  V30 9406 N 868.802 -0.277778 -2.89269 0
M  V30 9407 H 868.349 -1.00488 -2.37192 0
M  V30 9408 H 868.307 0.566784 -3.09249 0
M  V30 9409 N 872.079 0.78992 -1.36375 0
M  V30 9410 C 873.328 1.54296 -1.29906 0
M  V30 9411 C 873.641 1.95234 0.119651 0
M  V30 9412 O 874.847 2.69762 0.306708 0
M  V30 9413 C 873.303 2.78533 -2.27919 0
M  V30 9414 C 872.911 2.44767 -3.75224 0
M  V30 9415 C 874.655 3.56516 -2.30427 0
M  V30 9416 C 872.562 3.65397 -4.65015 0
M  V30 9417 H 871.492 0.579214 -0.482729 0
M  V30 9418 H 874.143 0.866845 -1.61735 0
M  V30 9419 H 872.525 3.47941 -1.89084 0
M  V30 9420 H 873.699 1.83259 -4.22792 0
M  V30 9421 H 872.014 1.79996 -3.75487 0
M  V30 9422 H 874.611 4.46143 -2.94722 0
M  V30 9423 H 874.954 3.95063 -1.31266 0
M  V30 9424 H 875.487 2.94087 -2.67876 0
M  V30 9425 H 872.226 3.31946 -5.65236 0
M  V30 9426 H 871.746 4.26072 -4.22164 0
M  V30 9427 H 873.425 4.32431 -4.81261 0
M  V30 9428 N 873.557 1.20646 1.01402 0
M  V30 9429 C 874.803 1.0197 1.753 0
M  V30 9430 C 875.136 -0.446803 1.8899 0
M  V30 9431 O 874.411 -1.33169 1.41762 0
M  V30 9432 C 874.694 1.70693 3.17074 0
M  V30 9433 C 874.547 3.24805 3.11162 0
M  V30 9434 C 875.866 1.44212 4.15802 0
M  V30 9435 H 872.985 0.371844 0.636318 0
M  V30 9436 H 875.627 1.48696 1.18277 0
M  V30 9437 H 873.777 1.30968 3.65759 0
M  V30 9438 H 875.449 3.73841 2.70261 0
M  V30 9439 H 873.692 3.55576 2.48492 0
M  V30 9440 H 874.363 3.68049 4.11393 0
M  V30 9441 H 876.839 1.7868 3.75783 0
M  V30 9442 H 875.715 1.94825 5.13161 0
M  V30 9443 H 875.976 0.370252 4.40547 0
M  V30 9444 N 875.035 -1.20752 1.01276 0
M  V30 9445 C 875.998 -2.2162 0.584583 0
M  V30 9446 C 876.998 -1.57094 -0.343215 0
M  V30 9447 O 878.188 -1.73696 -0.132433 0
M  V30 9448 C 875.32 -3.40583 -0.146872 0
M  V30 9449 H 876.513 -2.61015 1.47686 0
M  V30 9450 H 874.066 -1.34148 0.802123 0
M  V30 9451 H 874.801 -3.06686 -1.05424 0
M  V30 9452 H 874.586 -3.88642 0.51958 0
M  V30 9453 H 876.076 -4.15339 -0.433924 0
M  V30 9454 N 876.513 -0.788492 -1.36457 0
M  V30 9455 C 877.76 -0.360461 -1.99266 0
M  V30 9456 C 878.088 1.0676 -1.62581 0
M  V30 9457 O 877.343 1.75205 -0.871884 0
M  V30 9458 C 877.642 -0.470255 -3.54293 0
M  V30 9459 C 877.308 -1.85899 -4.10795 0
M  V30 9460 C 875.97 -2.23896 -4.25939 0
M  V30 9461 C 878.322 -2.76836 -4.41601 0
M  V30 9462 C 875.65 -3.52235 -4.69199 0
M  V30 9463 C 878.002 -4.04602 -4.86292 0
M  V30 9464 C 876.666 -4.42623 -4.99641 0
M  V30 9465 H 875.936 -0.131902 -0.729166 0
M  V30 9466 H 878.583 -1.00577 -1.62962 0
M  V30 9467 H 876.888 0.258559 -3.90946 0
M  V30 9468 H 878.585 -0.120119 -4.0082 0
M  V30 9469 H 875.175 -1.55372 -3.99447 0
M  V30 9470 H 879.359 -2.48735 -4.2947 0
M  V30 9471 H 874.615 -3.81565 -4.77722 0
M  V30 9472 H 878.789 -4.75182 -5.09092 0
M  V30 9473 H 876.416 -5.42125 -5.32921 0
M  V30 9474 N 877.991 1.48044 -0.54043 0
M  V30 9475 C 879.237 2.02797 -0.0101718 0
M  V30 9476 C 879.57 1.41565 1.32939 0
M  V30 9477 O 878.845 0.565139 1.86109 0
M  V30 9478 C 879.128 3.59959 0.100758 0
M  V30 9479 C 878.981 4.31654 -1.26471 0
M  V30 9480 C 880.3 4.32347 0.822455 0
M  V30 9481 H 877.419 0.736982 -0.00517052 0
M  V30 9482 H 880.061 1.76656 -0.69948 0
M  V30 9483 H 878.211 3.82363 0.687824 0
M  V30 9484 H 879.883 4.20639 -1.89369 0
M  V30 9485 H 878.126 3.92663 -1.84386 0
M  V30 9486 H 878.797 5.401 -1.13998 0
M  V30 9487 H 881.273 4.14835 0.324164 0
M  V30 9488 H 880.149 5.41978 0.868993 0
M  V30 9489 H 880.41 4.00369 1.87501 0
M  V30 9490 N 879.47 0.276058 1.55163 0
M  V30 9491 C 880.719 -0.341098 1.98795 0
M  V30 9492 C 881.032 -1.56905 1.16791 0
M  V30 9493 O 882.238 -2.25922 1.50571 0
M  V30 9494 C 880.694 -0.658231 3.5383 0
M  V30 9495 C 880.302 0.549972 4.44611 0
M  V30 9496 C 882.046 -1.23796 4.06048 0
M  V30 9497 C 879.953 0.207373 5.91036 0
M  V30 9498 H 878.883 -0.131224 0.742493 0
M  V30 9499 H 881.534 0.380858 1.79504 0
M  V30 9500 H 879.916 -1.43911 3.68925 0
M  V30 9501 H 881.09 1.32681 4.41285 0
M  V30 9502 H 879.405 1.04661 4.03032 0
M  V30 9503 H 882.002 -1.50811 5.12991 0
M  V30 9504 H 882.345 -2.17214 3.55139 0
M  V30 9505 H 882.878 -0.519345 3.94395 0
M  V30 9506 H 879.617 1.10946 6.46043 0
M  V30 9507 H 879.137 -0.532687 5.9743 0
M  V30 9508 H 880.816 -0.200072 6.46691 0
M  V30 9509 N 880.948 -1.576 0.00335426 0
M  V30 9510 C 882.194 -1.90996 -0.681799 0
M  V30 9511 C 882.527 -0.877643 -1.73237 0
M  V30 9512 O 881.802 0.103183 -1.94226 0
M  V30 9513 C 882.085 -3.34961 -1.32187 0
M  V30 9514 C 881.938 -4.48911 -0.28261 0
M  V30 9515 C 883.257 -3.78408 -2.24711 0
M  V30 9516 H 880.376 -0.694596 -0.246386 0
M  V30 9517 H 883.018 -1.89919 0.055336 0
M  V30 9518 H 881.168 -3.36008 -1.95014 0
M  V30 9519 H 882.84 -4.59999 0.346241 0
M  V30 9520 H 881.083 -4.32 0.394768 0
M  V30 9521 H 881.754 -5.46609 -0.769576 0
M  V30 9522 H 884.23 -3.78934 -1.71897 0
M  V30 9523 H 883.106 -4.79885 -2.66461 0
M  V30 9524 H 883.367 -3.12464 -3.1276 0
M  V30 9525 N 882.426 0.269451 -1.5528 0
M  V30 9526 C 883.666 1.00819 -1.77806 0
M  V30 9527 C 884.03 1.83369 -0.569198 0
M  V30 9528 O 885.231 2.60244 -0.672783 0
M  V30 9529 C 883.502 1.86447 -3.04913 0
M  V30 9530 S 885.061 2.66538 -3.48573 0
M  V30 9531 H 881.879 0.339508 -0.624704 0
M  V30 9532 H 884.481 0.278256 -1.9351 0
M  V30 9533 H 883.185 1.24733 -3.90986 0
M  V30 9534 H 882.716 2.63755 -2.91885 0
M  V30 9535 H 884.731 3.88938 -3.08126 0
M  V30 9536 N 883.904 1.48273 0.534124 0
M  V30 9537 C 885.144 1.57674 1.3007 0
M  V30 9538 C 885.508 0.243256 1.90453 0
M  V30 9539 O 886.709 0.212231 2.67961 0
M  V30 9540 C 884.98 2.68044 2.36405 0
M  V30 9541 S 886.539 2.97183 3.22843 0
M  V30 9542 H 883.357 0.55652 0.442501 0
M  V30 9543 H 885.959 1.85774 0.60896 0
M  V30 9544 H 884.663 3.63498 1.90518 0
M  V30 9545 H 884.194 2.41833 3.10291 0
M  V30 9546 H 886.209 2.36164 4.36396 0
M  V30 9547 N 885.382 -0.782676 1.36792 0
M  V30 9548 C 886.622 -1.55396 1.32784 0
M  V30 9549 C 886.986 -1.91789 -0.0900272 0
M  V30 9550 O 888.187 -2.6759 -0.254725 0
M  V30 9551 C 886.458 -2.79227 2.23085 0
M  V30 9552 S 888.017 -3.69404 2.36825 0
M  V30 9553 H 884.835 -0.532139 0.471539 0
M  V30 9554 H 887.437 -0.921285 1.72431 0
M  V30 9555 H 886.141 -2.50553 3.25041 0
M  V30 9556 H 885.672 -3.47462 1.84482 0
M  V30 9557 H 887.687 -4.70683 1.57074 0
M  V30 9558 N 886.86 -1.21182 -1.00761 0
M  V30 9559 C 888.09 -1.05182 -1.77821 0
M  V30 9560 C 888.498 0.401527 -1.8489 0
M  V30 9561 O 887.841 1.29042 -1.30743 0
M  V30 9562 C 887.903 -1.57066 -3.23374 0
M  V30 9563 C 887.567 -3.05491 -3.39889 0
M  V30 9564 C 888.564 -4.03065 -3.28381 0
M  V30 9565 C 886.249 -3.44641 -3.65415 0
M  V30 9566 C 888.243 -5.37778 -3.4216 0
M  V30 9567 C 885.93 -4.79507 -3.78836 0
M  V30 9568 C 886.928 -5.75884 -3.67214 0
M  V30 9569 O 886.616 -7.08304 -3.80212 0
M  V30 9570 H 886.348 -0.369983 -0.565763 0
M  V30 9571 H 888.902 -1.60914 -1.27655 0
M  V30 9572 H 887.132 -0.957273 -3.74664 0
M  V30 9573 H 888.821 -1.36949 -3.82099 0
M  V30 9574 H 889.587 -3.74163 -3.08588 0
M  V30 9575 H 885.466 -2.7016 -3.73544 0
M  V30 9576 H 889.01 -6.12987 -3.33005 0
M  V30 9577 H 884.907 -5.08096 -3.98132 0
M  V30 9578 H 885.675 -7.15677 -3.97175 0
M  V30 9579 N 888.338 1.20213 -1.01915 0
M  V30 9580 C 889.584 1.89928 -0.711007 0
M  V30 9581 C 889.917 1.7881 0.75767 0
M  V30 9582 O 889.192 1.17399 1.55073 0
M  V30 9583 C 889.475 3.41225 -1.15053 0
M  V30 9584 C 889.328 3.61264 -2.67971 0
M  V30 9585 C 890.647 4.34108 -0.72377 0
M  V30 9586 H 887.766 0.689702 -0.259768 0
M  V30 9587 H 890.408 1.41557 -1.26734 0
M  V30 9588 H 888.558 3.82552 -0.677199 0
M  V30 9589 H 890.23 3.29173 -3.23176 0
M  V30 9590 H 888.473 3.04647 -3.08824 0
M  V30 9591 H 889.144 4.67331 -2.93779 0
M  V30 9592 H 891.62 4.00442 -1.13073 0
M  V30 9593 H 890.496 5.38581 -1.05931 0
M  V30 9594 H 890.757 4.40512 0.374424 0
M  V30 9595 N 889.816 0.795718 1.36037 0
M  V30 9596 C 890.763 0.196548 2.29962 0
M  V30 9597 C 891.733 -0.663213 1.52285 0
M  V30 9598 O 892.918 -0.610574 1.80767 0
M  V30 9599 C 890.058 -0.657639 3.38776 0
M  V30 9600 C 889.171 0.221358 4.31433 0
M  V30 9601 C 888.306 -0.6398 5.27333 0
M  V30 9602 C 887.345 0.240265 6.11628 0
M  V30 9603 N 886.482 -0.580237 6.99698 0
M  V30 9604 H 891.322 1.00295 2.80615 0
M  V30 9605 H 888.859 0.506147 1.38118 0
M  V30 9606 H 890.817 -1.16793 4.00519 0
M  V30 9607 H 889.447 -1.42941 2.89426 0
M  V30 9608 H 888.499 0.84967 3.70789 0
M  V30 9609 H 889.811 0.899195 4.90628 0
M  V30 9610 H 888.965 -1.21566 5.94396 0
M  V30 9611 H 887.704 -1.35124 4.68607 0
M  V30 9612 H 886.709 0.828474 5.43522 0
M  V30 9613 H 887.934 0.949403 6.72431 0
M  V30 9614 H 885.88 -1.27585 6.43473 0
M  V30 9615 H 885.797 0.0397853 7.5599 0
M  V30 9616 H 887.065 -1.13972 7.71123 0
M  V30 9617 N 891.294 -1.47756 0.548274 0
M  V30 9618 C 892.543 -2.01691 0.0187961 0
M  V30 9619 C 892.856 -1.42894 -1.33569 0
M  V30 9620 O 894.062 -1.88438 -1.95457 0
M  V30 9621 C 892.518 -3.59896 -0.016847 0
M  V30 9622 C 892.126 -4.27683 1.33385 0
M  V30 9623 C 893.87 -4.21614 -0.494188 0
M  V30 9624 C 891.777 -5.7787 1.2578 0
M  V30 9625 H 890.707 -0.753993 0.00325648 0
M  V30 9626 H 893.358 -1.69838 0.694792 0
M  V30 9627 H 891.74 -3.88672 -0.758304 0
M  V30 9628 H 892.914 -4.10559 2.09232 0
M  V30 9629 H 891.229 -3.77915 1.7484 0
M  V30 9630 H 893.826 -5.3166 -0.569342 0
M  V30 9631 H 894.169 -3.88176 -1.50417 0
M  V30 9632 H 894.702 -3.97336 0.192138 0
M  V30 9633 H 891.441 -6.15912 2.2435 0
M  V30 9634 H 890.961 -5.97355 0.540997 0
M  V30 9635 H 892.64 -6.39897 0.956109 0
M  V30 9636 N 892.772 -0.284283 -1.55015 0
M  V30 9637 C 894.002 0.332465 -2.03907 0
M  V30 9638 C 894.41 1.49331 -1.16177 0
M  V30 9639 O 893.753 1.82851 -0.176395 0
M  V30 9640 C 893.815 0.867193 -3.48884 0
M  V30 9641 C 893.479 -0.166198 -4.56698 0
M  V30 9642 C 894.476 -0.988898 -5.10408 0
M  V30 9643 C 892.161 -0.303081 -5.01385 0
M  V30 9644 C 894.155 -1.93458 -6.07333 0
M  V30 9645 C 891.842 -1.25223 -5.98133 0
M  V30 9646 C 892.84 -2.06647 -6.50988 0
M  V30 9647 O 892.528 -2.99955 -7.45843 0
M  V30 9648 H 892.26 0.0786597 -0.671408 0
M  V30 9649 H 894.814 -0.416871 -2.01125 0
M  V30 9650 H 893.044 1.66676 -3.48935 0
M  V30 9651 H 894.733 1.39802 -3.81065 0
M  V30 9652 H 895.499 -0.89393 -4.76691 0
M  V30 9653 H 891.378 0.320711 -4.59883 0
M  V30 9654 H 894.922 -2.57053 -6.48513 0
M  V30 9655 H 890.819 -1.34798 -6.31268 0
M  V30 9656 H 891.587 -2.94742 -7.6359 0
M  V30 9657 N 894.251 1.57596 -0.0117121 0
M  V30 9658 C 895.5 1.9025 0.669921 0
M  V30 9659 C 895.813 0.887986 1.74282 0
M  V30 9660 O 897.019 1.10516 2.47989 0
M  V30 9661 C 895.475 3.37762 1.24277 0
M  V30 9662 C 895.083 4.47535 0.204076 0
M  V30 9663 C 896.827 3.79509 1.90192 0
M  V30 9664 C 894.734 5.86132 0.787577 0
M  V30 9665 H 893.664 0.709935 0.253984 0
M  V30 9666 H 896.315 1.8335 -0.0741718 0
M  V30 9667 H 894.697 3.39537 2.03791 0
M  V30 9668 H 895.871 4.57294 -0.56733 0
M  V30 9669 H 894.186 4.14881 -0.355305 0
M  V30 9670 H 896.783 4.80402 2.34773 0
M  V30 9671 H 897.126 3.13643 2.7374 0
M  V30 9672 H 897.659 3.80084 1.17394 0
M  V30 9673 H 894.398 6.55499 -0.00938418 0
M  V30 9674 H 893.918 5.80014 1.52787 0
M  V30 9675 H 895.597 6.34158 1.28265 0
M  V30 9676 N 895.729 -0.261212 1.5542 0
M  V30 9677 C 896.957 -1.00916 1.8062 0
M  V30 9678 C 897.372 -1.79494 0.585444 0
M  V30 9679 O 896.729 -1.76974 -0.445702 0
M  V30 9680 C 896.78 -1.95841 3.03856 0
M  V30 9681 O 896.501 -1.20445 4.21218 0
M  V30 9682 C 898.002 -2.82352 3.41749 0
M  V30 9683 H 895.222 -0.297596 0.601397 0
M  V30 9684 H 897.766 -0.288427 2.02456 0
M  V30 9685 H 895.921 -2.63361 2.84112 0
M  V30 9686 H 896.335 -1.84528 4.90968 0
M  V30 9687 H 897.809 -3.44733 4.31118 0
M  V30 9688 H 898.286 -3.5273 2.61683 0
M  V30 9689 H 898.892 -2.20306 3.63793 0
M  V30 9690 N 897.207 -1.48554 -0.526253 0
M  V30 9691 C 898.453 -1.56994 -1.28378 0
M  V30 9692 C 898.786 -0.244701 -1.92652 0
M  V30 9693 O 898.061 0.749636 -1.79473 0
M  V30 9694 C 898.344 -2.71092 -2.37026 0
M  V30 9695 C 898.197 -4.13331 -1.77418 0
M  V30 9696 C 899.516 -2.80934 -3.38769 0
M  V30 9697 H 896.635 -0.571466 -0.465398 0
M  V30 9698 H 899.277 -1.80742 -0.585861 0
M  V30 9699 H 897.427 -2.50973 -2.96555 0
M  V30 9700 H 899.099 -4.44899 -1.21912 0
M  V30 9701 H 897.342 -4.20158 -1.07936 0
M  V30 9702 H 898.013 -4.88994 -2.56104 0
M  V30 9703 H 900.489 -2.9917 -2.892 0
M  V30 9704 H 899.365 -3.62489 -4.12181 0
M  V30 9705 H 899.626 -1.89244 -3.99549 0
M  V30 9706 N 898.685 0.775411 -1.37205 0
M  V30 9707 C 900.101 1.07546 -1.17924 0
M  V30 9708 C 900.301 2.01496 -0.0128897 0
M  V30 9709 O 899.357 2.44039 0.64816 0
M  V30 9710 C 900.67 1.67647 -2.49629 0
M  V30 9711 C 902.218 1.79923 -2.56119 0
M  V30 9712 C 902.693 2.43438 -3.87946 0
M  V30 9713 N 904.184 2.50893 -3.89368 0
M  V30 9714 C 904.919 3.00881 -4.88117 0
M  V30 9715 N 904.415 3.5107 -5.97262 0
M  V30 9716 N 906.208 2.99722 -4.75524 0
M  V30 9717 H 898.359 0.151524 -2.11859 0
M  V30 9718 H 900.622 0.129845 -0.939066 0
M  V30 9719 H 900.328 1.06082 -3.3532 0
M  V30 9720 H 900.202 2.66988 -2.66453 0
M  V30 9721 H 902.589 2.40621 -1.70838 0
M  V30 9722 H 902.67 0.793482 -2.43182 0
M  V30 9723 H 902.314 1.8338 -4.73639 0
M  V30 9724 H 902.244 3.44611 -3.98184 0
M  V30 9725 H 904.735 2.1537 -3.10522 0
M  V30 9726 H 905.048 3.87604 -6.68568 0
M  V30 9727 H 903.393 3.49184 -6.00912 0
M  V30 9728 H 906.584 2.5981 -3.8938 0
M  V30 9729 H 906.757 3.38369 -5.52639 0
M  V30 9730 N 900.163 1.21714 1.00117 0
M  V30 9731 C 901.111 0.976937 2.11089 0
M  V30 9732 C 902.105 -0.0771295 1.69224 0
M  V30 9733 O 903.311 0.0745945 1.79845 0
M  V30 9734 H 899.686 0.298687 0.690138 0
M  V30 9735 H 901.657 1.91881 2.28526 0
M  V30 9736 C 900.406 0.562369 3.43122 0
M  V30 9737 H 899.729 1.36509 3.75773 0
M  V30 9738 H 901.169 0.433642 4.21777 0
M  V30 9739 C 899.628 -0.727148 3.28959 0
M  V30 9740 O 900.158 -1.78171 3.60025 0
M  V30 9741 N 898.364 -0.695129 2.82164 0
M  V30 9742 H 897.911 0.163346 2.57082 0
M  V30 9743 H 897.869 -1.55822 2.73069 0
M  V30 9744 N 901.641 -1.19671 1.02551 0
M  V30 9745 C 903.052 -1.70964 0.750208 0
M  V30 9746 C 903.403 -1.82095 -0.730461 0
M  V30 9747 O 902.528 -1.48974 -1.56958 0
M  V30 9748 C 903.123 -3.10516 1.35518 0
M  V30 9749 C 901.682 -3.59083 1.12854 0
M  V30 9750 C 900.829 -2.36041 1.45534 0
M  V30 9751 H 903.78 -1.04559 1.19386 0
M  V30 9752 H 903.801 -3.73028 0.750378 0
M  V30 9753 H 903.313 -3.02383 2.43282 0
M  V30 9754 H 901.414 -3.72536 0.0689627 0
M  V30 9755 H 901.527 -4.43395 1.81488 0
M  V30 9756 H 899.891 -2.39214 0.87458 0
M  V30 9757 H 900.674 -2.3054 2.54374 0
M  V30 9758 N 903.119 -0.802921 -1.35613 0
M  V30 9759 C 904.051 -0.168461 -2.2858 0
M  V30 9760 C 905.064 0.630123 -1.50111 0
M  V30 9761 O 906.253 0.463086 -1.72388 0
M  V30 9762 C 903.353 0.783943 -3.29708 0
M  V30 9763 C 902.526 0.0325165 -4.37388 0
M  V30 9764 C 901.585 0.902859 -5.18396 0
M  V30 9765 O 900.611 0.355144 -5.68091 0
M  V30 9766 N 901.813 2.22542 -5.36149 0
M  V30 9767 H 904.578 -0.96709 -2.83668 0
M  V30 9768 H 902.139 -0.658043 -1.47924 0
M  V30 9769 H 904.131 1.37034 -3.80794 0
M  V30 9770 H 902.701 1.48339 -2.75162 0
M  V30 9771 H 901.921 -0.735057 -3.87286 0
M  V30 9772 H 903.209 -0.485499 -5.06478 0
M  V30 9773 H 902.607 2.69439 -4.97412 0
M  V30 9774 H 901.164 2.76113 -5.90428 0
M  V30 9775 N 904.597 1.47463 -0.556102 0
M  V30 9776 C 905.827 2.06568 -0.0364056 0
M  V30 9777 C 906.235 1.40939 1.26225 0
M  V30 9778 O 905.578 0.499572 1.76777 0
M  V30 9779 C 905.64 3.58755 0.231278 0
M  V30 9780 C 905.304 4.46417 -0.977776 0
M  V30 9781 C 906.301 4.846 -1.88305 0
M  V30 9782 C 903.986 4.87948 -1.19214 0
M  V30 9783 C 905.98 5.63111 -2.98639 0
M  V30 9784 C 903.667 5.66224 -2.29857 0
M  V30 9785 C 904.665 6.03716 -3.194 0
M  V30 9786 O 904.353 6.80415 -4.28125 0
M  V30 9787 H 904.085 0.674675 -0.042305 0
M  V30 9788 H 906.639 1.9047 -0.768775 0
M  V30 9789 H 904.869 3.73061 1.01794 0
M  V30 9790 H 906.558 3.99884 0.696221 0
M  V30 9791 H 907.324 4.53115 -1.72949 0
M  V30 9792 H 903.203 4.58233 -0.504347 0
M  V30 9793 H 906.747 5.92293 -3.68557 0
M  V30 9794 H 902.644 5.97121 -2.45186 0
M  V30 9795 H 903.412 6.98807 -4.26159 0
M  V30 9796 N 906.075 0.2925 1.54862 0
M  V30 9797 C 907.023 -0.603186 2.24643 0
M  V30 9798 C 908.017 -1.1439 1.24946 0
M  V30 9799 O 909.223 -1.09552 1.42823 0
M  V30 9800 H 905.598 -0.213105 0.721173 0
M  V30 9801 H 907.569 0.00799278 2.98399 0
M  V30 9802 C 906.318 -1.76769 2.99413 0
M  V30 9803 H 905.641 -1.36084 3.75927 0
M  V30 9804 H 907.081 -2.37066 3.51533 0
M  V30 9805 C 905.54 -2.66669 2.05886 0
M  V30 9806 O 906.07 -3.67525 1.62136 0
M  V30 9807 N 904.276 -2.34216 1.7202 0
M  V30 9808 H 903.823 -1.52246 2.07795 0
M  V30 9809 H 903.781 -2.94635 1.09717 0
M  V30 9810 N 907.553 -1.57587 0.0200696 0
M  V30 9811 C 908.964 -1.79312 -0.520019 0
M  V30 9812 C 909.315 -0.929475 -1.72787 0
M  V30 9813 O 908.44 -0.137389 -2.15963 0
M  V30 9814 C 909.035 -3.25203 -0.950172 0
M  V30 9815 C 907.594 -3.47954 -1.43543 0
M  V30 9816 C 906.741 -2.74459 -0.395917 0
M  V30 9817 H 909.692 -1.56779 0.246153 0
M  V30 9818 H 909.713 -3.34418 -1.81508 0
M  V30 9819 H 909.225 -3.88035 -0.070883 0
M  V30 9820 H 907.326 -2.90363 -2.33495 0
M  V30 9821 H 907.439 -4.56661 -1.44905 0
M  V30 9822 H 905.803 -2.39669 -0.862022 0
M  V30 9823 H 906.586 -3.40001 0.47475 0
M  V30 9824 N 909.032 0.252966 -1.55557 0
M  V30 9825 C 910.28 0.979912 -1.76754 0
M  V30 9826 C 910.601 1.86083 -0.582944 0
M  V30 9827 O 909.871 1.91742 0.401497 0
M  V30 9828 H 908.451 0.364805 -0.651864 0
M  V30 9829 H 911.113 0.272372 -1.92987 0
M  V30 9830 H 910.209 1.60518 -2.67657 0
M  V30 9831 N 910.51 1.48831 0.518367 0
M  V30 9832 C 911.787 1.47933 1.27966 0
M  V30 9833 C 912.167 0.197393 2.10175 0
M  V30 9834 O 911.515 -0.820656 2.13255 0
M  V30 9835 C 911.725 2.74816 2.15121 0
M  V30 9836 C 913.073 3.23613 2.74881 0
M  V30 9837 O 914.097 2.75814 2.254 0
M  V30 9838 O 912.956 4.06818 3.64913 0
M  V30 9839 H 910.05 0.591316 0.578164 0
M  V30 9840 H 912.596 1.61077 0.534065 0
M  V30 9841 H 911.368 3.59621 1.54234 0
M  V30 9842 H 910.991 2.64449 2.96905 0
M  V30 9843 N 911.988 -0.768124 1.37614 0
M  V30 9844 C 912.935 -1.88151 1.33671 0
M  V30 9845 C 913.905 -1.64871 0.201645 0
M  V30 9846 O 915.09 -1.86739 0.391582 0
M  V30 9847 C 912.23 -3.25264 1.15314 0
M  V30 9848 C 911.343 -3.60473 2.38082 0
M  V30 9849 C 910.478 -4.86814 2.12569 0
M  V30 9850 C 909.517 -5.14765 3.31184 0
M  V30 9851 N 908.654 -6.32295 3.052 0
M  V30 9852 H 913.494 -1.90857 2.28862 0
M  V30 9853 H 911.031 -0.933048 1.13722 0
M  V30 9854 H 912.989 -4.04364 1.02691 0
M  V30 9855 H 911.619 -3.21924 0.237689 0
M  V30 9856 H 910.671 -2.7633 2.61431 0
M  V30 9857 H 911.983 -3.77065 3.26532 0
M  V30 9858 H 911.137 -5.73826 1.96999 0
M  V30 9859 H 909.876 -4.72333 1.21462 0
M  V30 9860 H 908.881 -4.26227 3.4729 0
M  V30 9861 H 910.106 -5.31153 4.23147 0
M  V30 9862 H 908.052 -6.19166 2.16726 0
M  V30 9863 H 907.969 -6.4932 3.87195 0
M  V30 9864 H 909.237 -7.22234 2.93254 0
M  V30 9865 N 913.466 -1.22244 -0.994698 0
M  V30 9866 C 914.743 -0.954459 -1.70732 0
M  V30 9867 C 915.123 0.530945 -2.04314 0
M  V30 9868 O 914.471 1.49851 -1.72502 0
M  V30 9869 C 914.681 -1.85016 -2.95922 0
M  V30 9870 C 916.029 -2.10517 -3.68738 0
M  V30 9871 O 917.053 -1.82449 -3.05926 0
M  V30 9872 O 915.912 -2.58044 -4.81742 0
M  V30 9873 H 913.006 -0.35879 -0.745116 0
M  V30 9874 H 915.552 -1.33221 -1.0512 0
M  V30 9875 H 914.324 -2.85498 -2.67594 0
M  V30 9876 H 913.947 -1.47388 -3.69273 0
M  V30 9877 N 914.944 1.19125 -1.03184 0
M  V30 9878 C 916.172 1.92838 -0.74975 0
M  V30 9879 C 916.587 1.75667 0.691851 0
M  V30 9880 O 915.944 1.0805 1.47076 0
M  V30 9881 C 915.995 3.44509 -1.09525 0
M  V30 9882 O 915.716 3.6113 -2.48025 0
M  V30 9883 C 917.217 4.35338 -0.836397 0
M  V30 9884 H 914.437 0.61246 -0.274105 0
M  V30 9885 H 916.981 1.5118 -1.37712 0
M  V30 9886 H 915.136 3.83988 -0.513006 0
M  V30 9887 H 915.55 4.54959 -2.60984 0
M  V30 9888 H 917.024 5.4035 -1.12808 0
M  V30 9889 H 917.501 4.38602 0.229102 0
M  V30 9890 H 918.107 4.01544 -1.40152 0
M  V30 9891 N 916.422 0.810101 1.35185 0
M  V30 9892 C 917.369 0.220927 2.2974 0
M  V30 9893 C 918.339 -0.647024 1.5298 0
M  V30 9894 O 919.524 -0.591367 1.81404 0
M  V30 9895 C 916.664 -0.62167 3.39454 0
M  V30 9896 C 915.777 0.267104 4.31173 0
M  V30 9897 C 914.912 -0.583833 5.27982 0
M  V30 9898 C 913.951 0.305123 6.11339 0
M  V30 9899 N 913.088 -0.505992 7.00274 0
M  V30 9900 H 917.928 1.03266 2.79536 0
M  V30 9901 H 915.465 0.520768 1.37573 0
M  V30 9902 H 917.423 -1.12539 4.01735 0
M  V30 9903 H 916.053 -1.39863 2.90926 0
M  V30 9904 H 915.105 0.88895 3.69867 0
M  V30 9905 H 916.417 0.951182 4.89647 0
M  V30 9906 H 915.571 -1.15254 5.95652 0
M  V30 9907 H 914.31 -1.30146 4.70014 0
M  V30 9908 H 913.315 0.886075 5.42613 0
M  V30 9909 H 914.54 1.02067 6.71386 0
M  V30 9910 H 912.486 -1.20753 6.4479 0
M  V30 9911 H 912.403 0.119966 7.55905 0
M  V30 9912 H 913.671 -1.05787 7.72288 0
M  V30 9913 N 917.9 -1.47166 0.563914 0
M  V30 9914 C 919.149 -2.0166 0.0401871 0
M  V30 9915 C 919.462 -1.44303 -1.32046 0
M  V30 9916 O 920.668 -1.905 -1.93448 0
M  V30 9917 C 919.124 -3.59894 0.0213257 0
M  V30 9918 C 918.732 -4.26244 1.37914 0
M  V30 9919 C 920.476 -4.22114 -0.449442 0
M  V30 9920 C 918.383 -5.76503 1.31902 0
M  V30 9921 H 917.313 -0.753916 0.0112534 0
M  V30 9922 H 919.964 -1.69091 0.712766 0
M  V30 9923 H 918.346 -3.89454 -0.717038 0
M  V30 9924 H 919.52 -4.08317 2.13574 0
M  V30 9925 H 917.835 -3.76039 1.78839 0
M  V30 9926 H 920.432 -5.32234 -0.51292 0
M  V30 9927 H 920.775 -3.89749 -1.46291 0
M  V30 9928 H 921.308 -3.9711 0.23427 0
M  V30 9929 H 918.047 -6.13498 2.3087 0
M  V30 9930 H 917.567 -5.96748 0.604324 0
M  V30 9931 H 919.246 -6.38846 1.02392 0
M  V30 9932 N 919.378 -0.300708 -1.54705 0
M  V30 9933 C 920.341 0.562648 -2.22187 0
M  V30 9934 C 921.341 1.06152 -1.20782 0
M  V30 9935 O 922.531 0.957596 -1.45519 0
M  V30 9936 C 919.663 1.77899 -2.908 0
M  V30 9937 H 920.856 -0.0269361 -2.99888 0
M  V30 9938 H 918.409 -0.0515412 -1.56215 0
M  V30 9939 H 919.144 2.40841 -2.17177 0
M  V30 9940 H 918.929 1.42892 -3.65136 0
M  V30 9941 H 920.419 2.39236 -3.42281 0
M  V30 9942 N 920.856 1.57574 -0.0284266 0
M  V30 9943 C 921.803 2.10176 0.953658 0
M  V30 9944 C 922.773 1.00367 1.32347 0
M  V30 9945 O 923.958 1.27783 1.4169 0
M  V30 9946 C 921.098 2.63287 2.231 0
M  V30 9947 C 920.211 3.87102 1.91771 0
M  V30 9948 C 919.346 4.28609 3.13795 0
M  V30 9949 C 918.385 5.45184 2.78282 0
M  V30 9950 N 917.522 5.81851 3.92929 0
M  V30 9951 H 922.362 2.93806 0.498176 0
M  V30 9952 H 919.899 1.45222 0.234302 0
M  V30 9953 H 921.857 2.9217 2.97813 0
M  V30 9954 H 920.487 1.82489 2.66266 0
M  V30 9955 H 919.539 3.64952 1.07303 0
M  V30 9956 H 920.851 4.71892 1.61615 0
M  V30 9957 H 920.005 4.58925 3.96829 0
M  V30 9958 H 918.744 3.42585 3.47112 0
M  V30 9959 H 917.749 5.14563 1.93661 0
M  V30 9960 H 918.974 6.32907 2.46182 0
M  V30 9961 H 916.92 4.98782 4.2609 0
M  V30 9962 H 916.837 6.6128 3.66395 0
M  V30 9963 H 918.105 6.16772 4.76669 0
M  V30 9964 N 922.334 -0.244713 1.55689 0
M  V30 9965 C 923.75 -0.593331 1.48161 0
M  V30 9966 C 923.95 -1.88234 0.719047 0
M  V30 9967 O 923.006 -2.51266 0.249292 0
M  V30 9968 C 924.319 -0.694032 2.92581 0
M  V30 9969 C 925.867 -0.786213 3.02965 0
M  V30 9970 C 926.342 -0.918457 4.48696 0
M  V30 9971 N 927.833 -0.983272 4.52643 0
M  V30 9972 C 928.568 -1.1049 5.62654 0
M  V30 9973 N 928.064 -1.19193 6.8247 0
M  V30 9974 N 929.857 -1.13823 5.50455 0
M  V30 9975 H 922.008 0.601446 2.03707 0
M  V30 9976 H 924.271 0.207894 0.924924 0
M  V30 9977 H 923.977 0.183133 3.51223 0
M  V30 9978 H 923.851 -1.56525 3.4319 0
M  V30 9979 H 926.238 -1.65383 2.44402 0
M  V30 9980 H 926.319 0.110202 2.55563 0
M  V30 9981 H 925.963 -0.0553881 5.0787 0
M  V30 9982 H 925.893 -1.82994 4.93782 0
M  V30 9983 H 928.384 -0.927269 3.66347 0
M  V30 9984 H 928.697 -1.28387 7.62061 0
M  V30 9985 H 927.042 -1.16147 6.85226 0
M  V30 9986 H 930.233 -1.06673 4.55783 0
M  V30 9987 H 930.406 -1.22957 6.36228 0
M  V30 9988 N 923.813 -1.49104 -0.510467 0
M  V30 9989 C 924.746 -1.59667 -1.63039 0
M  V30 9990 C 925.724 -0.446145 -1.5636 0
M  V30 9991 O 926.908 -0.660414 -1.76552 0
M  V30 9992 C 924.035 -1.54282 -3.01521 0
M  V30 9993 C 923.081 -2.74415 -3.26494 0
M  V30 9994 S 923.914 -4.3619 -3.10643 0
M  V30 9995 C 925.07 -4.33435 -4.51536 0
M  V30 9996 H 925.303 -2.54407 -1.53833 0
M  V30 9997 H 922.836 -1.37878 -0.694916 0
M  V30 9998 H 924.794 -1.51861 -3.81377 0
M  V30 9999 H 923.455 -0.608458 -3.0815 0
M  V30 10000 H 922.648 -2.66841 -4.27565 0
M  V30 10001 H 922.25 -2.74199 -2.54344 0
M  V30 10002 H 924.542 -4.04571 -5.43441 0
M  V30 10003 H 925.485 -5.34752 -4.64162 0
M  V30 10004 H 925.893 -3.63638 -4.31773 0
M  V30 10005 N 925.291 0.760815 -1.38019 0
M  V30 10006 C 926.254 1.85604 -1.34476 0
M  V30 10007 C 927.254 1.58897 -0.24666 0
M  V30 10008 O 928.444 1.66776 -0.50314 0
M  V30 10009 C 925.576 3.22945 -1.09176 0
M  V30 10010 H 926.769 1.90155 -2.31908 0
M  V30 10011 H 924.322 0.961746 -1.23208 0
M  V30 10012 H 925.057 3.24066 -0.123216 0
M  V30 10013 H 924.842 3.43723 -1.88672 0
M  V30 10014 H 926.332 4.03022 -1.09375 0
M  V30 10015 N 926.769 1.22769 0.988202 0
M  V30 10016 C 928.015 1.05665 1.73097 0
M  V30 10017 C 928.348 -0.406615 1.89895 0
M  V30 10018 O 927.623 -1.30132 1.44554 0
M  V30 10019 C 927.906 1.77381 3.13382 0
M  V30 10020 C 927.759 3.31332 3.04203 0
M  V30 10021 C 929.078 1.52999 4.12649 0
M  V30 10022 H 926.197 0.385258 0.628288 0
M  V30 10023 H 928.839 1.51171 1.15097 0
M  V30 10024 H 926.989 1.38696 3.62899 0
M  V30 10025 H 928.661 3.79489 2.6227 0
M  V30 10026 H 926.904 3.60767 2.40894 0
M  V30 10027 H 927.575 3.76692 4.03493 0
M  V30 10028 H 930.051 1.86611 3.71908 0
M  V30 10029 H 928.927 2.05666 5.08913 0
M  V30 10030 H 929.188 0.463615 4.39662 0
M  V30 10031 N 928.247 -1.18576 1.03814 0
M  V30 10032 C 929.177 -2.24334 0.647795 0
M  V30 10033 C 930.158 -1.66508 -0.34774 0
M  V30 10034 O 931.343 -1.92852 -0.228401 0
M  V30 10035 C 928.473 -3.47299 0.00734922 0
M  V30 10036 C 927.427 -4.17859 0.926152 0
M  V30 10037 C 926.753 -5.34489 0.150317 0
M  V30 10038 C 928.053 -4.71632 2.24411 0
M  V30 10039 H 929.747 -2.57241 1.53191 0
M  V30 10040 H 927.293 -1.23649 0.738028 0
M  V30 10041 H 929.246 -4.20486 -0.277434 0
M  V30 10042 H 927.97 -3.13619 -0.911626 0
M  V30 10043 H 926.629 -3.46567 1.19528 0
M  V30 10044 H 926.277 -4.97056 -0.770985 0
M  V30 10045 H 925.977 -5.82633 0.762407 0
M  V30 10046 H 927.501 -6.10467 -0.127508 0
M  V30 10047 H 928.915 -5.36526 2.02021 0
M  V30 10048 H 927.312 -5.303 2.80894 0
M  V30 10049 H 928.382 -3.89192 2.89236 0
M  V30 10050 N 929.725 -0.817259 -1.34754 0
M  V30 10051 C 930.974 -0.39908 -1.97713 0
M  V30 10052 C 931.287 1.04203 -1.65533 0
M  V30 10053 O 932.493 1.56384 -2.21937 0
M  V30 10054 C 930.949 -0.662634 -3.53747 0
M  V30 10055 C 930.557 -2.11699 -3.94826 0
M  V30 10056 C 932.301 -0.31034 -4.23364 0
M  V30 10057 C 930.208 -2.32573 -5.4375 0
M  V30 10058 H 929.138 -0.145488 -0.739831 0
M  V30 10059 H 931.789 -1.00282 -1.53674 0
M  V30 10060 H 930.171 0.0111972 -3.95998 0
M  V30 10061 H 931.345 -2.82951 -3.63697 0
M  V30 10062 H 929.66 -2.43017 -3.3813 0
M  V30 10063 H 932.257 -0.44421 -5.32852 0
M  V30 10064 H 932.6 0.744594 -4.09587 0
M  V30 10065 H 933.133 -0.938518 -3.8657 0
M  V30 10066 H 929.872 -3.36551 -5.62507 0
M  V30 10067 H 929.392 -1.65858 -5.76412 0
M  V30 10068 H 931.071 -2.14651 -6.10356 0
M  V30 10069 N 931.203 1.46865 -0.571711 0
M  V30 10070 C 932.45 2.0243 -0.0531071 0
M  V30 10071 C 932.778 1.44446 1.30252 0
M  V30 10072 O 932.033 0.595182 1.8643 0
M  V30 10073 C 932.332 3.57323 0.0742311 0
M  V30 10074 C 931.998 4.34295 -1.21237 0
M  V30 10075 C 930.66 4.55044 -1.56489 0
M  V30 10076 C 933.012 4.78577 -2.0643 0
M  V30 10077 C 930.34 5.17325 -2.76752 0
M  V30 10078 C 932.692 5.42186 -3.25909 0
M  V30 10079 C 931.356 5.61165 -3.61456 0
M  V30 10080 H 930.626 0.740745 -0.0194333 0
M  V30 10081 H 933.273 1.76366 -0.74614 0
M  V30 10082 H 931.578 3.82461 0.850325 0
M  V30 10083 H 933.275 3.97982 0.491077 0
M  V30 10084 H 929.865 4.18435 -0.927922 0
M  V30 10085 H 934.049 4.62313 -1.80501 0
M  V30 10086 H 929.305 5.30211 -3.04444 0
M  V30 10087 H 933.479 5.75459 -3.92198 0
M  V30 10088 H 931.106 6.09195 -4.54737 0
M  V30 10089 N 932.681 0.308908 1.54543 0
M  V30 10090 C 933.909 -0.300418 2.04707 0
M  V30 10091 C 934.324 -1.46915 1.18581 0
M  V30 10092 O 933.681 -1.81251 0.213186 0
M  V30 10093 C 933.732 -0.749038 3.53655 0
M  V30 10094 O 933.453 0.373181 4.36508 0
M  V30 10095 C 934.954 -1.4227 4.1985 0
M  V30 10096 H 932.174 -0.0641267 0.667929 0
M  V30 10097 H 934.718 0.450839 1.99469 0
M  V30 10098 H 932.873 -1.4503 3.59228 0
M  V30 10099 H 933.287 0.0224752 5.24495 0
M  V30 10100 H 934.761 -1.68768 5.25568 0
M  V30 10101 H 935.238 -2.36531 3.70067 0
M  V30 10102 H 935.844 -0.764404 4.18374 0
M  V30 10103 N 934.159 -1.57557 0.0367827 0
M  V30 10104 C 935.436 -1.83427 -0.679261 0
M  V30 10105 C 935.816 -0.922274 -1.89888 0
M  V30 10106 O 935.164 0.02025 -2.28491 0
M  V30 10107 C 935.374 -3.32823 -1.05022 0
M  V30 10108 C 936.722 -3.99486 -1.43861 0
M  V30 10109 O 937.746 -3.37364 -1.14297 0
M  V30 10110 O 936.605 -5.0899 -1.98977 0
M  V30 10111 H 933.699 -0.756581 -0.333936 0
M  V30 10112 H 936.245 -1.69575 0.0650494 0
M  V30 10113 H 935.017 -3.90874 -0.182509 0
M  V30 10114 H 934.64 -3.5181 -1.85244 0
M  V30 10115 N 935.637 0.236453 -1.55816 0
M  V30 10116 C 936.884 0.963012 -1.78136 0
M  V30 10117 C 937.212 1.84918 -0.602952 0
M  V30 10118 O 936.467 1.91285 0.413325 0
M  V30 10119 C 936.766 1.84549 -3.06066 0
M  V30 10120 C 936.432 1.11381 -4.36927 0
M  V30 10121 C 935.094 0.911635 -4.72486 0
M  V30 10122 C 937.446 0.596 -5.17781 0
M  V30 10123 C 934.774 0.179515 -5.86425 0
M  V30 10124 C 937.126 -0.122702 -6.32481 0
M  V30 10125 C 935.79 -0.336263 -6.66652 0
M  V30 10126 H 935.06 0.352391 -0.651845 0
M  V30 10127 H 937.707 0.232295 -1.90086 0
M  V30 10128 H 936.012 2.6436 -2.89173 0
M  V30 10129 H 937.709 2.40953 -3.20535 0
M  V30 10130 H 934.299 1.28134 -4.08998 0
M  V30 10131 H 938.483 0.73971 -4.90757 0
M  V30 10132 H 933.739 0.00368224 -6.114 0
M  V30 10133 H 937.913 -0.531516 -6.94369 0
M  V30 10134 H 935.54 -0.905507 -7.54788 0
M  V30 10135 N 937.115 1.49373 0.502552 0
M  V30 10136 C 938.364 1.58028 1.25339 0
M  V30 10137 C 938.677 0.271494 1.93707 0
M  V30 10138 O 939.883 0.236584 2.70467 0
M  V30 10139 C 938.339 2.78817 2.27572 0
M  V30 10140 C 937.947 4.16448 1.65151 0
M  V30 10141 C 939.691 2.96802 3.03494 0
M  V30 10142 C 937.598 5.28461 2.65486 0
M  V30 10143 H 936.528 0.588396 0.471494 0
M  V30 10144 H 939.179 1.75756 0.52744 0
M  V30 10145 H 937.561 2.5458 3.03323 0
M  V30 10146 H 938.735 4.50816 0.954029 0
M  V30 10147 H 937.05 4.03809 1.01625 0
M  V30 10148 H 939.647 3.77656 3.78524 0
M  V30 10149 H 939.99 2.07303 3.61014 0
M  V30 10150 H 940.523 3.21071 2.34858 0
M  V30 10151 H 937.262 6.20015 2.12749 0
M  V30 10152 H 936.782 4.9855 3.33479 0
M  V30 10153 H 938.461 5.5773 3.27943 0
M  V30 10154 N 938.594 -0.753485 1.38421 0
M  V30 10155 C 939.834 -1.52544 1.3605 0
M  V30 10156 C 940.198 -1.91937 -0.0493257 0
M  V30 10157 O 941.399 -2.6807 -0.197908 0
M  V30 10158 C 939.67 -2.74432 2.28958 0
M  V30 10159 S 941.229 -3.64297 2.44607 0
M  V30 10160 H 938.047 -0.522017 0.48272 0
M  V30 10161 H 940.649 -0.884503 1.74347 0
M  V30 10162 H 939.353 -2.43602 3.30282 0
M  V30 10163 H 938.884 -3.43471 1.91811 0
M  V30 10164 H 940.899 -4.67245 1.67022 0
M  V30 10165 N 940.072 -1.23292 -0.981677 0
M  V30 10166 C 941.005 -0.956198 -2.07201 0
M  V30 10167 C 941.983 0.105027 -1.6226 0
M  V30 10168 O 943.167 -0.0289582 -1.88478 0
M  V30 10169 C 940.294 -0.44029 -3.35826 0
M  V30 10170 C 939.34 -1.48792 -3.99704 0
M  V30 10171 S 940.173 -3.06491 -4.39117 0
M  V30 10172 C 941.329 -2.56567 -5.70898 0
M  V30 10173 H 941.562 -1.87947 -2.30355 0
M  V30 10174 H 939.095 -1.06522 -1.1177 0
M  V30 10175 H 941.053 -0.149237 -4.10229 0
M  V30 10176 H 939.714 0.462045 -3.10683 0
M  V30 10177 H 938.907 -1.07706 -4.92357 0
M  V30 10178 H 938.509 -1.72826 -3.31673 0
M  V30 10179 H 940.801 -1.98508 -6.47766 0
M  V30 10180 H 941.744 -3.47755 -6.16824 0
M  V30 10181 H 942.152 -1.97465 -5.28836 0
M  V30 10182 N 941.55 1.18024 -1.04442 0
M  V30 10183 C 942.513 2.19992 -0.643136 0
M  V30 10184 C 943.513 1.57949 0.301444 0
M  V30 10185 O 944.703 1.73986 0.0863341 0
M  V30 10186 C 941.835 3.40853 0.0565208 0
M  V30 10187 H 943.028 2.57008 -1.54554 0
M  V30 10188 H 940.581 1.31974 -0.837408 0
M  V30 10189 H 941.316 3.09373 0.972553 0
M  V30 10190 H 941.101 3.87128 -0.622439 0
M  V30 10191 H 942.591 4.16344 0.323652 0
M  V30 10192 N 943.028 0.824394 1.34319 0
M  V30 10193 C 944.439 0.471802 1.8064 0
M  V30 10194 C 944.79 -1.00793 1.6833 0
M  V30 10195 O 943.915 -1.78447 1.22416 0
M  V30 10196 C 944.51 0.849609 3.27974 0
M  V30 10197 C 943.069 0.549365 3.72369 0
M  V30 10198 C 942.216 1.06573 2.56003 0
M  V30 10199 H 945.167 1.01443 1.22045 0
M  V30 10200 H 945.188 0.153968 3.80188 0
M  V30 10201 H 944.7 1.92663 3.36902 0
M  V30 10202 H 942.801 -0.518182 3.68979 0
M  V30 10203 H 942.914 1.09446 4.66432 0
M  V30 10204 H 941.278 0.487214 2.49997 0
M  V30 10205 H 942.061 2.14923 2.677 0
M  V30 10206 N 944.506 -1.46559 0.579492 0
M  V30 10207 C 945.755 -2.01606 0.0615735 0
M  V30 10208 C 946.068 -1.45695 -1.30508 0
M  V30 10209 O 947.274 -1.92541 -1.91416 0
M  V30 10210 C 945.73 -3.59851 0.059496 0
M  V30 10211 C 945.338 -4.24757 1.42427 0
M  V30 10212 C 947.082 -4.22567 -0.404646 0
M  V30 10213 C 944.989 -5.75072 1.38009 0
M  V30 10214 H 943.919 -0.753754 0.0192491 0
M  V30 10215 H 946.57 -1.68326 0.73066 0
M  V30 10216 H 944.952 -3.90193 -0.675691 0
M  V30 10217 H 946.126 -4.06029 2.17893 0
M  V30 10218 H 944.441 -3.74121 1.82817 0
M  V30 10219 H 947.038 -5.32748 -0.456441 0
M  V30 10220 H 947.381 -3.91279 -1.42149 0
M  V30 10221 H 947.914 -3.96839 0.276376 0
M  V30 10222 H 944.653 -6.11014 2.37364 0
M  V30 10223 H 944.173 -5.96073 0.667583 0
M  V30 10224 H 945.852 -6.37724 1.09163 0
M  V30 10225 N 945.984 -0.3171 -1.54377 0
M  V30 10226 C 947.209 0.292311 -2.0533 0
M  V30 10227 C 947.634 1.45503 -1.19207 0
M  V30 10228 O 946.992 1.80197 -0.199721 0
M  V30 10229 C 947.04 0.710787 -3.53525 0
M  V30 10230 O 946.144 1.81387 -3.70368 0
M  V30 10231 H 945.485 0.0539976 -0.661801 0
M  V30 10232 H 948.015 -0.463629 -1.99278 0
M  V30 10233 H 948.025 0.995216 -3.95676 0
M  V30 10234 H 946.7 -0.139668 -4.15665 0
M  V30 10235 H 945.277 1.52875 -3.40123 0
M  V30 10236 N 947.462 1.57535 -0.0451378 0
M  V30 10237 C 948.709 1.92451 0.629987 0
M  V30 10238 C 949.037 0.92298 1.71206 0
M  V30 10239 O 948.292 -0.0656626 1.9559 0
M  V30 10240 C 948.591 3.34065 1.27024 0
M  V30 10241 C 948.257 4.49785 0.316971 0
M  V30 10242 C 946.919 4.81169 0.0546406 0
M  V30 10243 C 949.271 5.20111 -0.336693 0
M  V30 10244 C 946.599 5.8023 -0.86889 0
M  V30 10245 C 948.951 6.2016 -1.24838 0
M  V30 10246 C 947.615 6.49976 -1.51944 0
M  V30 10247 H 946.885 0.704228 0.230529 0
M  V30 10248 H 949.532 1.91182 -0.110328 0
M  V30 10249 H 947.837 3.31672 2.08568 0
M  V30 10250 H 949.534 3.58359 1.79945 0
M  V30 10251 H 946.124 4.2529 0.531614 0
M  V30 10252 H 950.308 4.96082 -0.147105 0
M  V30 10253 H 945.564 6.0167 -1.08643 0
M  V30 10254 H 949.738 6.73767 -1.76098 0
M  V30 10255 H 947.365 7.26551 -2.2367 0
M  V30 10256 N 948.94 -0.228186 1.55939 0
M  V30 10257 C 950.17 -0.969211 1.82455 0
M  V30 10258 C 950.578 -1.78714 0.621133 0
M  V30 10259 O 949.921 -1.78841 -0.419694 0
M  V30 10260 C 949.983 -1.94088 3.02605 0
M  V30 10261 C 949.647 -1.30811 4.37878 0
M  V30 10262 C 950.644 -0.701275 5.15149 0
M  V30 10263 C 948.329 -1.32187 4.84595 0
M  V30 10264 C 950.323 -0.116631 6.37293 0
M  V30 10265 C 948.01 -0.733375 6.06683 0
M  V30 10266 C 949.008 -0.131804 6.82873 0
M  V30 10267 O 948.696 0.447549 8.02653 0
M  V30 10268 H 948.428 -0.289951 0.610659 0
M  V30 10269 H 950.982 -0.250576 2.03866 0
M  V30 10270 H 949.212 -2.69833 2.76996 0
M  V30 10271 H 950.901 -2.5469 3.1605 0
M  V30 10272 H 951.667 -0.683022 4.80166 0
M  V30 10273 H 947.546 -1.77949 4.25271 0
M  V30 10274 H 951.09 0.353539 6.96704 0
M  V30 10275 H 946.987 -0.749019 6.4114 0
M  V30 10276 H 947.755 0.341224 8.17788 0
M  V30 10277 N 950.418 -1.49637 -0.494624 0
M  V30 10278 C 951.381 -1.66252 -1.57775 0
M  V30 10279 C 952.381 -0.534054 -1.51672 0
M  V30 10280 O 953.571 -0.800637 -1.54711 0
M  V30 10281 C 950.703 -1.66584 -2.97426 0
M  V30 10282 H 951.896 -2.62864 -1.4437 0
M  V30 10283 H 949.449 -1.38764 -0.719323 0
M  V30 10284 H 950.184 -0.715798 -3.16302 0
M  V30 10285 H 949.969 -2.48543 -3.03264 0
M  V30 10286 H 951.459 -1.81474 -3.76108 0
M  V30 10287 N 951.896 0.746133 -1.38819 0
M  V30 10288 C 952.826 1.87344 -1.39372 0
M  V30 10289 C 953.807 1.68123 -0.258583 0
M  V30 10290 O 954.992 1.88606 -0.462769 0
M  V30 10291 C 952.122 3.24962 -1.22543 0
M  V30 10292 C 951.076 3.58799 -2.33339 0
M  V30 10293 C 950.402 4.95235 -2.01609 0
M  V30 10294 C 951.702 3.62911 -3.75624 0
M  V30 10295 H 953.396 1.87138 -2.33709 0
M  V30 10296 H 950.942 0.898937 -1.12495 0
M  V30 10297 H 952.895 4.03488 -1.21554 0
M  V30 10298 H 951.619 3.25667 -0.246707 0
M  V30 10299 H 950.278 2.82596 -2.33527 0
M  V30 10300 H 949.926 4.92508 -1.02202 0
M  V30 10301 H 949.626 5.18843 -2.75819 0
M  V30 10302 H 951.15 5.76131 -2.02251 0
M  V30 10303 H 952.564 4.31535 -3.77426 0
M  V30 10304 H 950.961 3.98031 -4.491 0
M  V30 10305 H 952.031 2.62967 -4.07402 0
M  V30 10306 N 953.375 1.23811 0.975125 0
M  V30 10307 C 954.6 1.10109 1.75757 0
M  V30 10308 C 955.025 -0.342922 1.84948 0
M  V30 10309 O 954.383 -1.24814 1.31496 0
M  V30 10310 C 954.431 1.73724 3.15994 0
M  V30 10311 O 953.535 1.00297 4.00018 0
M  V30 10312 H 952.876 0.385627 0.540544 0
M  V30 10313 H 955.406 1.63971 1.22372 0
M  V30 10314 H 955.416 1.79178 3.6655 0
M  V30 10315 H 954.091 2.78794 3.0862 0
M  V30 10316 H 952.668 1.02575 3.58515 0
M  V30 10317 N 954.853 -1.17469 1.05066 0
M  V30 10318 C 955.816 -2.19648 0.654793 0
M  V30 10319 C 956.816 -1.58107 -0.293063 0
M  V30 10320 O 958.006 -1.74029 -0.077106 0
M  V30 10321 C 955.138 -3.40878 -0.0384437 0
M  V30 10322 H 956.331 -2.56184 1.55915 0
M  V30 10323 H 953.884 -1.31528 0.844396 0
M  V30 10324 H 954.619 -3.09885 -0.956133 0
M  V30 10325 H 954.404 -3.86792 0.642961 0
M  V30 10326 H 955.894 -4.1651 -0.301568 0
M  V30 10327 N 956.331 -0.831506 -1.3388 0
M  V30 10328 C 957.58 -0.420028 -1.97278 0
M  V30 10329 C 957.893 1.02441 -1.66629 0
M  V30 10330 O 959.099 1.54021 -2.23584 0
M  V30 10331 C 957.555 -0.700116 -3.53025 0
M  V30 10332 C 957.163 -2.15874 -3.92559 0
M  V30 10333 C 958.907 -0.355226 -4.23011 0
M  V30 10334 C 956.814 -2.38327 -5.41252 0
M  V30 10335 H 955.744 -0.153326 -0.738246 0
M  V30 10336 H 958.395 -1.01906 -1.52602 0
M  V30 10337 H 956.777 -0.0308044 -3.95988 0
M  V30 10338 H 957.951 -2.86792 -3.60675 0
M  V30 10339 H 956.266 -2.4659 -3.35533 0
M  V30 10340 H 958.863 -0.500701 -5.32351 0
M  V30 10341 H 959.206 0.70111 -4.10354 0
M  V30 10342 H 959.739 -0.979466 -3.85553 0
M  V30 10343 H 956.478 -3.42498 -5.58906 0
M  V30 10344 H 955.998 -1.71962 -5.74621 0
M  V30 10345 H 957.677 -2.21113 -6.08045 0
M  V30 10346 N 957.809 1.4625 -0.587256 0
M  V30 10347 C 958.739 2.33132 0.131076 0
M  V30 10348 C 959.72 1.45619 0.879158 0
M  V30 10349 O 960.905 1.74428 0.853723 0
M  V30 10350 C 958.035 3.27975 1.14236 0
M  V30 10351 C 956.989 4.24965 0.508819 0
M  V30 10352 C 956.315 5.09349 1.62689 0
M  V30 10353 C 957.615 5.19322 -0.55694 0
M  V30 10354 H 959.309 2.93442 -0.594333 0
M  V30 10355 H 956.855 1.41106 -0.287263 0
M  V30 10356 H 958.808 3.87614 1.65328 0
M  V30 10357 H 957.532 2.65781 1.8981 0
M  V30 10358 H 956.191 3.66595 0.0189337 0
M  V30 10359 H 955.839 4.43537 2.37242 0
M  V30 10360 H 955.539 5.75036 1.20861 0
M  V30 10361 H 957.063 5.71852 2.14049 0
M  V30 10362 H 958.477 5.73151 -0.130903 0
M  V30 10363 H 956.874 5.93376 -0.895801 0
M  V30 10364 H 957.944 4.62979 -1.44148 0
M  V30 10365 N 959.287 0.325282 1.54207 0
M  V30 10366 C 960.235 -0.5554 2.25872 0
M  V30 10367 C 961.229 -1.11714 1.27344 0
M  V30 10368 O 962.435 -1.06498 1.45115 0
M  V30 10369 H 958.81 -0.19776 0.725531 0
M  V30 10370 H 960.781 0.0712858 2.98315 0
M  V30 10371 C 959.53 -1.70379 3.03095 0
M  V30 10372 H 958.853 -1.2808 3.78729 0
M  V30 10373 H 960.293 -2.29556 3.56483 0
M  V30 10374 C 958.752 -2.62242 2.11496 0
M  V30 10375 O 959.282 -3.64003 1.69895 0
M  V30 10376 N 957.488 -2.30515 1.7695 0
M  V30 10377 H 957.035 -1.47805 2.10978 0
M  V30 10378 H 956.993 -2.92241 1.15942 0
M  V30 10379 N 960.765 -1.57509 0.0534917 0
M  V30 10380 C 961.712 -2.11667 -0.920101 0
M  V30 10381 C 962.682 -1.0246 -1.30733 0
M  V30 10382 O 963.867 -1.30021 -1.39639 0
M  V30 10383 C 961.007 -2.66803 -2.18883 0
M  V30 10384 C 960.12 -3.90104 -1.85588 0
M  V30 10385 C 959.255 -4.33547 -3.06937 0
M  V30 10386 C 958.294 -5.49542 -2.69573 0
M  V30 10387 N 957.431 -5.88029 -3.83623 0
M  V30 10388 H 962.271 -2.94562 -0.451371 0
M  V30 10389 H 959.808 -1.45576 -0.211168 0
M  V30 10390 H 961.766 -2.96871 -2.93127 0
M  V30 10391 H 960.396 -1.86702 -2.63329 0
M  V30 10392 H 959.448 -3.66613 -1.01484 0
M  V30 10393 H 960.76 -4.74404 -1.54087 0
M  V30 10394 H 959.914 -4.6518 -3.89477 0
M  V30 10395 H 958.653 -3.48064 -3.41618 0
M  V30 10396 H 957.658 -5.17579 -1.8545 0
M  V30 10397 H 958.883 -6.36743 -2.36082 0
M  V30 10398 H 956.829 -5.05498 -4.181 0
M  V30 10399 H 956.746 -6.67025 -3.55828 0
M  V30 10400 H 958.014 -6.24277 -4.66796 0
M  V30 10401 N 962.243 0.219913 -1.56058 0
M  V30 10402 C 963.654 0.786766 -1.69313 0
M  V30 10403 C 964.005 1.84916 -0.655782 0
M  V30 10404 O 963.13 2.1554 0.192772 0
M  V30 10405 C 963.725 1.43387 -3.06962 0
M  V30 10406 C 962.284 1.94809 -3.22066 0
M  V30 10407 C 961.431 0.808863 -2.65241 0
M  V30 10408 H 964.382 -0.00476777 -1.58699 0
M  V30 10409 H 964.403 2.30272 -3.02911 0
M  V30 10410 H 963.915 0.660405 -3.8244 0
M  V30 10411 H 962.016 2.74952 -2.5146 0
M  V30 10412 H 962.129 2.12694 -4.293 0
M  V30 10413 H 960.493 1.21661 -2.23765 0
M  V30 10414 H 961.276 0.0480458 -3.43266 0
M  V30 10415 N 963.721 1.49897 0.486681 0
M  V30 10416 C 964.651 1.7054 1.59494 0
M  V30 10417 C 965.632 0.554184 1.60819 0
M  V30 10418 O 966.817 0.791617 1.77333 0
M  V30 10419 C 963.947 1.78517 2.97908 0
M  V30 10420 C 962.901 2.93571 3.11449 0
M  V30 10421 C 962.227 2.86674 4.51356 0
M  V30 10422 C 963.527 4.34308 2.90127 0
M  V30 10423 H 965.221 2.63329 1.42472 0
M  V30 10424 H 962.767 1.2672 0.683969 0
M  V30 10425 H 964.72 1.91544 3.75352 0
M  V30 10426 H 963.444 0.823381 3.16051 0
M  V30 10427 H 962.103 2.80169 2.36433 0
M  V30 10428 H 961.751 1.88373 4.66395 0
M  V30 10429 H 961.451 3.63903 4.61355 0
M  V30 10430 H 962.975 3.01728 5.30841 0
M  V30 10431 H 964.389 4.48317 3.57331 0
M  V30 10432 H 962.786 5.12869 3.11585 0
M  V30 10433 H 963.856 4.47759 1.86119 0
M  V30 10434 N 965.199 -0.738761 1.39212 0
M  V30 10435 C 966.448 -1.49368 1.35543 0
M  V30 10436 C 966.761 -1.95543 -0.0471091 0
M  V30 10437 O 967.967 -2.70714 -0.206376 0
M  V30 10438 C 966.423 -2.69882 2.381 0
M  V30 10439 C 966.031 -2.30672 3.8405 0
M  V30 10440 C 967.775 -3.47718 2.435 0
M  V30 10441 C 965.682 -3.47886 4.78256 0
M  V30 10442 H 964.612 -0.560898 0.503894 0
M  V30 10443 H 967.263 -0.806221 1.6484 0
M  V30 10444 H 965.645 -3.40684 2.01867 0
M  V30 10445 H 966.819 -1.67441 4.29302 0
M  V30 10446 H 965.134 -1.65936 3.81909 0
M  V30 10447 H 967.731 -4.34897 3.11077 0
M  V30 10448 H 968.074 -3.89919 1.45838 0
M  V30 10449 H 968.607 -2.83942 2.78606 0
M  V30 10450 H 965.346 -3.10739 5.77167 0
M  V30 10451 H 964.866 -4.10111 4.37686 0
M  V30 10452 H 966.545 -4.14271 4.96979 0
M  V30 10453 N 966.677 -1.24326 -0.968545 0
M  V30 10454 C 967.905 -1.10947 -1.74638 0
M  V30 10455 C 968.32 0.338064 -1.85749 0
M  V30 10456 O 967.677 1.23331 -1.3452 0
M  V30 10457 C 967.728 -1.74254 -3.1673 0
M  V30 10458 O 967.449 -3.13347 -3.06178 0
M  V30 10459 C 968.95 -1.66473 -4.10855 0
M  V30 10460 H 966.17 -0.38767 -0.547679 0
M  V30 10461 H 968.714 -1.64415 -1.21605 0
M  V30 10462 H 966.869 -1.2479 -3.66751 0
M  V30 10463 H 967.283 -3.44255 -3.95713 0
M  V30 10464 H 968.757 -2.15452 -5.08217 0
M  V30 10465 H 969.234 -0.625785 -4.34719 0
M  V30 10466 H 969.84 -2.15359 -3.66743 0
M  V30 10467 N 968.156 1.1691 -1.05688 0
M  V30 10468 C 969.402 1.8757 -0.771071 0
M  V30 10469 C 969.735 1.8113 0.700399 0
M  V30 10470 O 969.01 1.22273 1.5126 0
M  V30 10471 C 969.293 3.37392 -1.25851 0
M  V30 10472 C 969.146 3.52556 -2.79329 0
M  V30 10473 C 970.465 4.31585 -0.861512 0
M  V30 10474 H 967.584 0.681089 -0.281579 0
M  V30 10475 H 970.226 1.37453 -1.31174 0
M  V30 10476 H 968.376 3.80204 -0.798563 0
M  V30 10477 H 970.048 3.18725 -3.33485 0
M  V30 10478 H 968.291 2.94668 -3.1836 0
M  V30 10479 H 968.962 4.57748 -3.08498 0
M  V30 10480 H 971.438 3.96642 -1.25756 0
M  V30 10481 H 970.314 5.34939 -1.23012 0
M  V30 10482 H 970.575 4.4148 0.234089 0
M  V30 10483 N 969.634 0.838594 1.33437 0
M  V30 10484 C 970.859 0.446701 2.02532 0
M  V30 10485 C 971.284 -0.944275 1.62681 0
M  V30 10486 O 970.642 -1.61733 0.81927 0
M  V30 10487 C 970.69 0.574794 3.55989 0
M  V30 10488 O 969.794 -0.399063 4.10465 0
M  V30 10489 H 969.135 0.181637 0.638674 0
M  V30 10490 H 971.665 1.13335 1.70342 0
M  V30 10491 H 971.675 0.456339 4.0544 0
M  V30 10492 H 970.35 1.58921 3.8434 0
M  V30 10493 H 968.927 -0.238187 3.72139 0
M  V30 10494 N 971.112 -1.45937 0.595003 0
M  V30 10495 C 972.06 -2.32155 -0.143798 0
M  V30 10496 C 973.054 -1.45221 -0.872198 0
M  V30 10497 O 974.26 -1.61777 -0.789191 0
M  V30 10498 H 970.635 -0.749165 -0.0652377 0
M  V30 10499 H 972.606 -2.92264 0.602005 0
M  V30 10500 C 971.355 -3.28615 -1.13611 0
M  V30 10501 H 970.678 -3.95496 -0.585044 0
M  V30 10502 H 972.118 -3.91699 -1.62321 0
M  V30 10503 C 970.577 -2.54863 -2.20333 0
M  V30 10504 O 971.107 -2.32071 -3.27881 0
M  V30 10505 N 969.313 -2.15213 -1.95274 0
M  V30 10506 H 968.86 -2.33949 -1.07822 0
M  V30 10507 H 968.818 -1.66188 -2.66888 0
M  V30 10508 N 972.59 -0.333456 -1.54032 0
M  V30 10509 C 973.815 0.270517 -2.05628 0
M  V30 10510 C 974.24 1.44231 -1.20744 0
M  V30 10511 O 973.598 1.79975 -0.218822 0
M  V30 10512 C 973.646 0.673251 -3.54259 0
M  V30 10513 O 972.75 1.77448 -3.72271 0
M  V30 10514 H 972.091 0.0469753 -0.662336 0
M  V30 10515 H 974.621 -0.484739 -1.98775 0
M  V30 10516 H 974.631 0.953194 -3.96709 0
M  V30 10517 H 973.306 -0.183747 -4.15494 0
M  V30 10518 H 971.883 1.49259 -3.41725 0
M  V30 10519 N 974.068 1.57479 -0.061844 0
M  V30 10520 C 975.015 2.12152 0.908862 0
M  V30 10521 C 975.985 1.03152 1.30188 0
M  V30 10522 O 977.17 1.3076 1.38948 0
M  V30 10523 C 974.31 2.6796 2.17465 0
M  V30 10524 C 973.423 3.91083 1.83517 0
M  V30 10525 C 972.558 4.35169 3.04633 0
M  V30 10526 C 971.597 5.50964 2.66655 0
M  V30 10527 N 970.734 5.90055 3.80499 0
M  V30 10528 H 975.574 2.94797 0.435743 0
M  V30 10529 H 973.111 1.45686 0.203445 0
M  V30 10530 H 975.069 2.98421 2.91548 0
M  V30 10531 H 973.699 1.88096 2.62335 0
M  V30 10532 H 972.751 3.67146 0.995381 0
M  V30 10533 H 974.063 4.75214 1.51569 0
M  V30 10534 H 973.217 4.67239 3.87005 0
M  V30 10535 H 971.956 3.49871 3.39767 0
M  V30 10536 H 970.961 5.18556 1.82703 0
M  V30 10537 H 972.186 6.37986 2.32702 0
M  V30 10538 H 970.132 5.07708 4.15414 0
M  V30 10539 H 970.049 6.68903 3.52285 0
M  V30 10540 H 971.317 6.26744 4.63479 0
M  V30 10541 N 975.546 -0.211634 1.56173 0
M  V30 10542 C 976.795 -0.932647 1.78842 0
M  V30 10543 C 977.108 -1.85103 0.63217 0
M  V30 10544 O 978.314 -2.61143 0.742746 0
M  V30 10545 C 976.77 -1.70866 3.16753 0
M  V30 10546 C 976.378 -0.835934 4.40132 0
M  V30 10547 C 978.122 -2.4203 3.48743 0
M  V30 10548 C 976.029 -1.60987 5.69067 0
M  V30 10549 H 974.959 -0.351983 0.666801 0
M  V30 10550 H 977.61 -0.186284 1.82552 0
M  V30 10551 H 975.992 -2.4983 3.07247 0
M  V30 10552 H 977.166 -0.0861298 4.60719 0
M  V30 10553 H 975.481 -0.235941 4.15731 0
M  V30 10554 H 978.078 -3.00453 4.42303 0
M  V30 10555 H 978.421 -3.15406 2.71707 0
M  V30 10556 H 978.954 -1.70048 3.59623 0
M  V30 10557 H 975.693 -0.9192 6.49023 0
M  V30 10558 H 975.213 -2.33403 5.52524 0
M  V30 10559 H 976.892 -2.16798 6.09596 0
M  V30 10560 N 977.024 -1.50153 -0.478725 0
M  V30 10561 C 977.954 -1.71384 -1.58587 0
M  V30 10562 C 978.935 -0.562705 -1.60523 0
M  V30 10563 O 980.12 -0.80101 -1.76911 0
M  V30 10564 C 977.25 -1.80094 -2.96957 0
M  V30 10565 C 976.204 -2.95218 -3.09888 0
M  V30 10566 C 975.53 -2.89063 -4.49829 0
M  V30 10567 C 976.83 -4.35841 -2.8782 0
M  V30 10568 H 978.524 -2.64081 -1.41073 0
M  V30 10569 H 976.07 -1.27081 -0.677239 0
M  V30 10570 H 978.023 -1.93531 -3.74331 0
M  V30 10571 H 976.747 -0.840131 -3.1561 0
M  V30 10572 H 975.406 -2.81419 -2.34944 0
M  V30 10573 H 975.054 -1.90844 -4.6539 0
M  V30 10574 H 974.754 -3.66345 -4.59418 0
M  V30 10575 H 976.278 -3.04539 -5.29234 0
M  V30 10576 H 977.692 -4.50205 -3.54948 0
M  V30 10577 H 976.089 -5.14515 -3.0886 0
M  V30 10578 H 977.159 -4.48739 -1.83742 0
M  V30 10579 N 978.502 0.731368 -1.39602 0
M  V30 10580 C 979.432 1.85855 -1.41351 0
M  V30 10581 C 980.413 1.67839 -0.2764 0
M  V30 10582 O 981.598 1.88104 -0.482747 0
M  V30 10583 C 978.728 3.23644 -1.25983 0
M  V30 10584 C 977.682 3.56304 -2.37132 0
M  V30 10585 C 977.008 4.93069 -2.0685 0
M  V30 10586 C 978.308 3.58906 -3.79452 0
M  V30 10587 H 980.002 1.84648 -2.3568 0
M  V30 10588 H 977.548 0.886955 -1.13442 0
M  V30 10589 H 979.501 4.02176 -1.25826 0
M  V30 10590 H 978.225 3.25387 -0.281234 0
M  V30 10591 H 976.884 2.80104 -2.36511 0
M  V30 10592 H 976.532 4.91396 -1.0742 0
M  V30 10593 H 976.232 5.15888 -2.81306 0
M  V30 10594 H 977.756 5.73953 -2.0835 0
M  V30 10595 H 979.17 4.27508 -3.81982 0
M  V30 10596 H 977.567 3.93246 -4.53297 0
M  V30 10597 H 978.637 2.58631 -4.10168 0
M  V30 10598 N 979.98 1.24838 0.961938 0
M  V30 10599 C 981.226 1.09313 1.70817 0
M  V30 10600 C 981.559 -0.366244 1.90715 0
M  V30 10601 O 980.834 -1.27036 1.47282 0
M  V30 10602 C 981.117 1.83988 3.09549 0
M  V30 10603 C 980.97 3.3771 2.97106 0
M  V30 10604 C 982.289 1.61718 4.09311 0
M  V30 10605 H 979.408 0.398498 0.619974 0
M  V30 10606 H 982.05 1.53579 1.11864 0
M  V30 10607 H 980.2 1.46363 3.59875 0
M  V30 10608 H 981.872 3.84967 2.54161 0
M  V30 10609 H 980.115 3.65795 2.33187 0
M  V30 10610 H 980.786 3.85166 3.95412 0
M  V30 10611 H 983.262 1.94458 3.67866 0
M  V30 10612 H 982.138 2.16415 5.04436 0
M  V30 10613 H 982.399 0.55677 4.3858 0
M  V30 10614 N 981.458 -1.16348 1.06306 0
M  V30 10615 C 982.388 -2.2291 0.695234 0
M  V30 10616 C 983.369 -1.67208 -0.312343 0
M  V30 10617 O 984.554 -1.93293 -0.187442 0
M  V30 10618 C 981.684 -3.47205 0.0810149 0
M  V30 10619 C 980.638 -4.15801 1.01458 0
M  V30 10620 C 979.964 -5.3405 0.263656 0
M  V30 10621 C 981.264 -4.66766 2.34365 0
M  V30 10622 H 982.958 -2.53934 1.58613 0
M  V30 10623 H 980.504 -1.22056 0.76409 0
M  V30 10624 H 982.457 -4.2098 -0.18818 0
M  V30 10625 H 981.181 -3.15482 -0.844897 0
M  V30 10626 H 979.84 -3.43954 1.26852 0
M  V30 10627 H 979.488 -4.9858 -0.665378 0
M  V30 10628 H 979.188 -5.80885 0.88582 0
M  V30 10629 H 980.712 -6.106 0.00200994 0
M  V30 10630 H 982.126 -5.3212 2.13356 0
M  V30 10631 H 980.523 -5.24223 2.9208 0
M  V30 10632 H 981.593 -3.82969 2.97426 0
M  V30 10633 N 982.937 -0.845659 -1.3299 0
M  V30 10634 C 984.184 -0.444653 -1.97558 0
M  V30 10635 C 984.512 0.997682 -1.66963 0
M  V30 10636 O 983.767 1.71349 -0.94541 0
M  V30 10637 C 984.066 -0.6201 -3.51979 0
M  V30 10638 C 983.732 -2.03155 -4.02541 0
M  V30 10639 C 982.394 -2.4176 -4.16059 0
M  V30 10640 C 984.746 -2.95317 -4.29462 0
M  V30 10641 C 982.074 -3.71818 -4.53837 0
M  V30 10642 C 984.426 -4.24863 -4.68694 0
M  V30 10643 C 983.09 -4.63416 -4.80419 0
M  V30 10644 H 982.36 -0.16271 -0.722915 0
M  V30 10645 H 985.007 -1.07399 -1.58549 0
M  V30 10646 H 983.312 0.092513 -3.91691 0
M  V30 10647 H 985.009 -0.290012 -3.9995 0
M  V30 10648 H 981.599 -1.72174 -3.92497 0
M  V30 10649 H 985.783 -2.66726 -4.18534 0
M  V30 10650 H 981.039 -4.01484 -4.61108 0
M  V30 10651 H 985.213 -4.96347 -4.8848 0
M  V30 10652 H 982.84 -5.6424 -5.09448 0
M  V30 10653 N 984.415 1.45619 -0.602734 0
M  V30 10654 C 985.645 2.06348 -0.102105 0
M  V30 10655 C 986.053 1.44884 1.21677 0
M  V30 10656 O 985.396 0.555559 1.75098 0
M  V30 10657 C 985.458 3.59309 0.117026 0
M  V30 10658 C 985.122 4.43081 -1.11931 0
M  V30 10659 C 986.119 4.78364 -2.03627 0
M  V30 10660 C 983.804 4.83908 -1.34677 0
M  V30 10661 C 985.798 5.53325 -3.16403 0
M  V30 10662 C 983.485 5.58624 -2.47754 0
M  V30 10663 C 984.483 5.93249 -3.38445 0
M  V30 10664 O 984.171 6.6645 -4.49555 0
M  V30 10665 H 983.903 0.672988 -0.0637478 0
M  V30 10666 H 986.457 1.87928 -0.828983 0
M  V30 10667 H 984.687 3.76111 0.898742 0
M  V30 10668 H 986.376 4.01897 0.568649 0
M  V30 10669 H 987.142 4.47384 -1.87277 0
M  V30 10670 H 983.021 4.56396 -0.649875 0
M  V30 10671 H 986.565 5.80268 -3.87214 0
M  V30 10672 H 982.462 5.89019 -2.64059 0
M  V30 10673 H 983.23 6.84895 -4.48175 0
M  V30 10674 N 985.893 0.34162 1.53853 0
M  V30 10675 C 987.304 -0.14269 1.86154 0
M  V30 10676 C 987.655 -1.50151 1.2629 0
M  V30 10677 O 986.78 -2.08601 0.575735 0
M  V30 10678 C 987.375 -0.265691 3.37757 0
M  V30 10679 C 985.934 -0.694231 3.69942 0
M  V30 10680 C 985.081 0.173195 2.76759 0
M  V30 10681 H 988.032 0.561284 1.48443 0
M  V30 10682 H 988.053 -1.09352 3.64448 0
M  V30 10683 H 987.565 0.723424 3.81298 0
M  V30 10684 H 985.666 -1.69244 3.31945 0
M  V30 10685 H 985.779 -0.485461 4.76634 0
M  V30 10686 H 984.143 -0.35416 2.52226 0
M  V30 10687 H 984.926 1.15941 3.23129 0
M  V30 10688 N 987.371 -1.57444 0.0701946 0
M  V30 10689 C 988.301 -2.15659 -0.895176 0
M  V30 10690 C 989.282 -1.08321 -1.31151 0
M  V30 10691 O 990.467 -1.36349 -1.38284 0
M  V30 10692 C 987.597 -2.71693 -2.16334 0
M  V30 10693 C 986.551 -3.84183 -1.88645 0
M  V30 10694 C 985.877 -4.26814 -3.22078 0
M  V30 10695 C 987.177 -5.08493 -1.19299 0
M  V30 10696 H 988.871 -2.96576 -0.410217 0
M  V30 10697 H 986.417 -1.42662 -0.195872 0
M  V30 10698 H 988.37 -3.11064 -2.84284 0
M  V30 10699 H 987.094 -1.87994 -2.67069 0
M  V30 10700 H 985.753 -3.45314 -1.23101 0
M  V30 10701 H 985.401 -3.40039 -3.70651 0
M  V30 10702 H 985.101 -5.02642 -3.04344 0
M  V30 10703 H 986.625 -4.68799 -3.91228 0
M  V30 10704 H 988.039 -5.4519 -1.77316 0
M  V30 10705 H 986.436 -5.89588 -1.11828 0
M  V30 10706 H 987.506 -4.84595 -0.171839 0
M  V30 10707 N 988.849 0.203349 -1.56283 0
M  V30 10708 C 989.797 1.27157 -1.94766 0
M  V30 10709 C 990.791 1.4756 -0.832005 0
M  V30 10710 O 991.997 1.48519 -1.01696 0
M  V30 10711 H 988.372 0.426712 -0.61921 0
M  V30 10712 H 990.343 0.919921 -2.83866 0
M  V30 10713 C 989.092 2.6108 -2.29636 0
M  V30 10714 H 988.415 2.46193 -3.15006 0
M  V30 10715 H 989.855 3.34591 -2.60433 0
M  V30 10716 C 988.314 3.17456 -1.12799 0
M  V30 10717 O 988.844 3.99717 -0.398661 0
M  V30 10718 N 987.05 2.76084 -0.906975 0
M  V30 10719 H 986.597 2.09294 -1.50179 0
M  V30 10720 H 986.555 3.14143 -0.127005 0
M  V30 10721 N 990.327 1.50405 0.470755 0
M  V30 10722 C 991.552 1.65442 1.25075 0
M  V30 10723 C 991.977 0.337612 1.85045 0
M  V30 10724 O 991.335 -0.698555 1.67302 0
M  V30 10725 C 991.383 2.74793 2.33498 0
M  V30 10726 O 990.487 2.36069 3.3815 0
M  V30 10727 H 989.828 0.552728 0.367951 0
M  V30 10728 H 992.358 1.96782 0.560177 0
M  V30 10729 H 992.368 2.97879 2.78804 0
M  V30 10730 H 991.043 3.70363 1.8922 0
M  V30 10731 H 989.62 2.2343 2.98552 0
M  V30 10732 N 991.805 -0.723954 1.39988 0
M  V30 10733 C 993.045 -1.49624 1.39255 0
M  V30 10734 C 993.409 -1.91998 -0.00860198 0
M  V30 10735 O 994.61 -2.6843 -0.141002 0
M  V30 10736 C 992.881 -2.69514 2.34728 0
M  V30 10737 S 994.44 -3.59027 2.5228 0
M  V30 10738 H 991.258 -0.511661 0.493685 0
M  V30 10739 H 993.86 -0.847322 1.76184 0
M  V30 10740 H 992.564 -2.36541 3.35375 0
M  V30 10741 H 992.095 -3.39325 1.99053 0
M  V30 10742 H 994.11 -4.63597 1.76896 0
M  V30 10743 N 993.283 -1.25346 -0.955304 0
M  V30 10744 C 994.246 -1.05754 -2.03344 0
M  V30 10745 C 995.246 -0.0105743 -1.60797 0
M  V30 10746 O 996.436 -0.252699 -1.72357 0
M  V30 10747 C 993.568 -0.605536 -3.35479 0
M  V30 10748 H 994.761 -2.01459 -2.22158 0
M  V30 10749 H 992.314 -1.07744 -1.1323 0
M  V30 10750 H 993.049 0.354154 -3.2236 0
M  V30 10751 H 992.834 -1.36134 -3.67709 0
M  V30 10752 H 994.324 -0.489867 -4.14717 0
M  V30 10753 N 994.761 1.15782 -1.06922 0
M  V30 10754 C 995.709 2.22441 -0.679893 0
M  V30 10755 C 996.703 1.66591 0.307221 0
M  V30 10756 O 997.909 1.79182 0.171402 0
M  V30 10757 H 994.284 0.724427 -0.201765 0
M  V30 10758 H 996.255 2.52562 -1.58918 0
M  V30 10759 C 995.004 3.47586 -0.0891142 0
M  V30 10760 H 994.327 3.9088 -0.839805 0
M  V30 10761 H 995.767 4.2375 0.14569 0
M  V30 10762 C 994.226 3.15967 1.16903 0
M  V30 10763 O 994.756 3.32359 2.25611 0
M  V30 10764 N 992.962 2.70046 1.07349 0
M  V30 10765 H 992.509 2.56907 0.188825 0
M  V30 10766 H 992.467 2.49264 1.91611 0
M  V30 10767 N 996.239 0.8527 1.3254 0
M  V30 10768 C 997.65 0.510012 1.79599 0
M  V30 10769 C 998.001 -0.972002 1.70431 0
M  V30 10770 O 997.126 -1.7581 1.26173 0
M  V30 10771 C 997.721 0.918986 3.26098 0
M  V30 10772 C 996.28 0.628227 3.7112 0
M  V30 10773 C 995.427 1.11979 2.53685 0
M  V30 10774 H 998.378 1.04009 1.19866 0
M  V30 10775 H 998.399 0.234577 3.79776 0
M  V30 10776 H 997.911 1.99765 3.32739 0
M  V30 10777 H 996.012 -0.4398 3.69995 0
M  V30 10778 H 996.125 1.19315 4.64005 0
M  V30 10779 H 994.489 0.540133 2.48907 0
M  V30 10780 H 995.272 2.20552 2.63081 0
M  V30 10781 N 997.718 -1.45297 0.610449 0
M  V30 10782 C 998.965 -2.02218 0.106759 0
M  V30 10783 C 999.293 -1.47849 -1.26376 0
M  V30 10784 O 998.548 -0.644402 -1.84786 0
M  V30 10785 C 998.847 -3.57394 0.0205329 0
M  V30 10786 C 998.513 -4.30928 1.32709 0
M  V30 10787 C 997.175 -4.50735 1.68498 0
M  V30 10788 C 999.527 -4.72936 2.19046 0
M  V30 10789 C 996.855 -5.09806 2.90371 0
M  V30 10790 C 999.207 -5.33355 3.40169 0
M  V30 10791 C 997.871 -5.51384 3.76207 0
M  V30 10792 H 997.141 -0.739969 0.039066 0
M  V30 10793 H 999.788 -1.74326 0.792638 0
M  V30 10794 H 998.093 -3.84581 -0.748623 0
M  V30 10795 H 999.79 -3.99144 -0.385386 0
M  V30 10796 H 996.38 -4.15827 1.03854 0
M  V30 10797 H 1000.56 -4.57365 1.92695 0
M  V30 10798 H 995.82 -5.21953 3.18395 0
M  V30 10799 H 999.994 -5.64859 4.07318 0
M  V30 10800 H 997.621 -5.96924 4.70729 0
M  V30 10801 N 999.196 -0.349774 -1.5367 0
M  V30 10802 C 1000.13 0.496338 -2.28164 0
M  V30 10803 C 1001.11 1.09737 -1.29968 0
M  V30 10804 O 1002.29 1.11759 -1.58819 0
M  V30 10805 C 999.422 1.64428 -3.0591 0
M  V30 10806 C 998.376 1.17127 -4.11661 0
M  V30 10807 C 997.702 2.40822 -4.77398 0
M  V30 10808 C 999.002 0.267293 -5.21616 0
M  V30 10809 H 1000.7 -0.125117 -2.99138 0
M  V30 10810 H 998.242 -0.0616152 -1.43868 0
M  V30 10811 H 1000.19 2.2427 -3.56765 0
M  V30 10812 H 998.919 2.29272 -2.32598 0
M  V30 10813 H 997.578 0.595634 -3.61729 0
M  V30 10814 H 997.226 3.04088 -4.00674 0
M  V30 10815 H 996.926 2.09852 -5.48849 0
M  V30 10816 H 998.45 3.01378 -5.3104 0
M  V30 10817 H 999.864 0.772734 -5.68068 0
M  V30 10818 H 998.261 0.0491991 -6.0008 0
M  V30 10819 H 999.331 -0.694892 -4.79895 0
M  V30 10820 N 1000.67 1.57404 -0.0785433 0
M  V30 10821 C 1001.9 1.97787 0.596995 0
M  V30 10822 C 1002.31 0.955904 1.63276 0
M  V30 10823 O 1001.65 -0.0649169 1.83585 0
M  V30 10824 C 1001.72 3.34499 1.31723 0
M  V30 10825 C 1001.38 4.54933 0.434144 0
M  V30 10826 C 1002.38 5.18969 -0.311015 0
M  V30 10827 C 1000.06 5.01029 0.357046 0
M  V30 10828 C 1002.06 6.27457 -1.12142 0
M  V30 10829 C 999.744 6.09389 -0.457029 0
M  V30 10830 C 1000.74 6.72466 -1.19493 0
M  V30 10831 O 1000.43 7.78738 -1.99556 0
M  V30 10832 H 1000.16 0.655294 0.166028 0
M  V30 10833 H 1002.72 2.04855 -0.149517 0
M  V30 10834 H 1000.95 3.24064 2.10996 0
M  V30 10835 H 1002.63 3.5944 1.88567 0
M  V30 10836 H 1003.4 4.84297 -0.261084 0
M  V30 10837 H 999.28 4.51706 0.921026 0
M  V30 10838 H 1002.82 6.76622 -1.69788 0
M  V30 10839 H 998.721 6.43494 -0.508499 0
M  V30 10840 H 999.489 7.95648 -1.9206 0
M  V30 10841 N 1002.15 -0.195058 1.56388 0
M  V30 10842 C 1003.11 -1.2254 1.93692 0
M  V30 10843 C 1004.11 -1.38437 0.81804 0
M  V30 10844 O 1005.3 -1.36248 1.08545 0
M  V30 10845 C 1002.44 -2.59476 2.21099 0
M  V30 10846 H 1003.63 -0.906544 2.8587 0
M  V30 10847 H 1001.18 -0.436577 1.50079 0
M  V30 10848 H 1001.92 -2.96417 1.31558 0
M  V30 10849 H 1001.7 -2.4931 3.02634 0
M  V30 10850 H 1003.19 -3.33777 2.50964 0
M  V30 10851 N 1003.63 -1.50653 -0.462772 0
M  V30 10852 C 1004.88 -1.61296 -1.21105 0
M  V30 10853 C 1005.19 -0.322757 -1.92919 0
M  V30 10854 O 1006.4 -0.308211 -2.69745 0
M  V30 10855 C 1004.85 -2.84752 -2.201 0
M  V30 10856 C 1004.46 -4.20681 -1.54051 0
M  V30 10857 C 1006.21 -3.04744 -2.95518 0
M  V30 10858 C 1004.11 -5.35314 -2.51381 0
M  V30 10859 H 1003.04 -0.60069 -0.455728 0
M  V30 10860 H 1005.69 -1.77093 -0.480656 0
M  V30 10861 H 1004.08 -2.62532 -2.96467 0
M  V30 10862 H 1005.25 -4.53187 -0.834168 0
M  V30 10863 H 1003.56 -4.06361 -0.908828 0
M  V30 10864 H 1006.16 -3.87559 -3.68378 0
M  V30 10865 H 1006.5 -2.16802 -3.55391 0
M  V30 10866 H 1007.04 -3.27185 -2.26263 0
M  V30 10867 H 1003.78 -6.25437 -1.96235 0
M  V30 10868 H 1003.3 -5.07216 -3.20144 0
M  V30 10869 H 1004.98 -5.66229 -3.1304 0
M  V30 10870 N 1005.11 0.71652 -1.4037 0
M  V30 10871 C 1006.36 1.47638 -1.38597 0
M  V30 10872 C 1006.68 1.94496 0.0120141 0
M  V30 10873 O 1005.94 1.68437 0.996373 0
M  V30 10874 C 1006.24 2.71777 -2.32103 0
M  V30 10875 C 1005.9 2.43689 -3.79376 0
M  V30 10876 C 1004.57 2.35739 -4.195 0
M  V30 10877 C 1006.92 2.20099 -4.72447 0
M  V30 10878 C 1004.25 2.02265 -5.50732 0
M  V30 10879 C 1006.6 1.88138 -6.03976 0
M  V30 10880 C 1005.26 1.78669 -6.43143 0
M  V30 10881 H 1004.53 0.540246 -0.507163 0
M  V30 10882 H 1007.18 0.820822 -1.73017 0
M  V30 10883 H 1005.48 3.42166 -1.90865 0
M  V30 10884 H 1007.18 3.29864 -2.28015 0
M  V30 10885 H 1003.77 2.50763 -3.47585 0
M  V30 10886 H 1007.95 2.25198 -4.42266 0
M  V30 10887 H 1003.21 1.93471 -5.79982 0
M  V30 10888 H 1007.38 1.68898 -6.75608 0
M  V30 10889 H 1005.01 1.52498 -7.44747 0
M  V30 10890 N 1006.59 1.25851 0.948643 0
M  V30 10891 C 1007.81 1.13711 1.72851 0
M  V30 10892 C 1008.23 -0.308471 1.86263 0
M  V30 10893 O 1007.59 -1.21175 1.36465 0
M  V30 10894 C 1007.64 1.79271 3.13918 0
M  V30 10895 O 1007.36 3.18179 3.01154 0
M  V30 10896 C 1008.86 1.72988 4.08154 0
M  V30 10897 H 1006.08 0.396334 0.541443 0
M  V30 10898 H 1008.62 1.66329 1.18974 0
M  V30 10899 H 1006.78 1.30609 3.64719 0
M  V30 10900 H 1007.19 3.50507 3.90186 0
M  V30 10901 H 1008.67 2.2351 5.04725 0
M  V30 10902 H 1009.14 0.694866 4.33668 0
M  V30 10903 H 1009.75 2.21166 3.63271 0
M  V30 10904 N 1008.06 -1.15214 1.07534 0
M  V30 10905 C 1009.01 -2.20013 0.697337 0
M  V30 10906 C 1009.98 -1.6314 -0.312168 0
M  V30 10907 O 1011.17 -1.89768 -0.198196 0
M  V30 10908 C 1008.31 -3.44945 0.103293 0
M  V30 10909 C 1007.42 -4.16009 1.1645 0
M  V30 10910 C 1006.55 -5.28496 0.535261 0
M  V30 10911 C 1005.59 -5.9138 1.57912 0
M  V30 10912 N 1004.73 -6.95335 0.972332 0
M  V30 10913 H 1009.57 -2.51698 1.59538 0
M  V30 10914 H 1007.11 -1.2361 0.797431 0
M  V30 10915 H 1009.07 -4.16397 -0.258766 0
M  V30 10916 H 1007.7 -3.13772 -0.758096 0
M  V30 10917 H 1006.75 -3.43035 1.64411 0
M  V30 10918 H 1008.06 -4.58853 1.9559 0
M  V30 10919 H 1007.21 -6.06579 0.120942 0
M  V30 10920 H 1005.95 -4.8685 -0.287889 0
M  V30 10921 H 1004.96 -5.12008 2.0032 0
M  V30 10922 H 1006.18 -6.35103 2.40459 0
M  V30 10923 H 1004.13 -6.55779 0.170119 0
M  V30 10924 H 1004.05 -7.36616 1.70095 0
M  V30 10925 H 1005.31 -7.77312 0.583577 0
M  V30 10926 N 1009.54 -0.859717 -1.32086 0
M  V30 10927 C 1010.51 -0.313005 -2.27053 0
M  V30 10928 C 1011.51 0.530191 -1.51808 0
M  V30 10929 O 1012.7 0.340972 -1.7083 0
M  V30 10930 C 1009.83 0.5566 -3.36325 0
M  V30 10931 H 1011.02 -1.15125 -2.76923 0
M  V30 10932 H 1008.57 -0.634463 -1.42843 0
M  V30 10933 H 1009.31 1.41645 -2.91731 0
M  V30 10934 H 1009.09 -0.0470197 -3.92072 0
M  V30 10935 H 1010.58 0.931725 -4.07073 0
M  V30 10936 N 1011.02 1.44971 -0.618145 0
M  V30 10937 C 1012.27 2.02159 -0.117482 0
M  V30 10938 C 1012.6 1.48517 1.2559 0
M  V30 10939 O 1011.85 0.654192 1.84442 0
M  V30 10940 C 1012.15 3.57378 -0.0394861 0
M  V30 10941 C 1011.82 4.30218 -1.34993 0
M  V30 10942 C 1010.48 4.49835 -1.70886 0
M  V30 10943 C 1012.83 4.71768 -2.21551 0
M  V30 10944 C 1010.16 5.08258 -2.9307 0
M  V30 10945 C 1012.51 5.31543 -3.42993 0
M  V30 10946 C 1011.17 5.49381 -3.79126 0
M  V30 10947 H 1010.44 0.739752 -0.0429897 0
M  V30 10948 H 1013.09 1.73903 -0.801871 0
M  V30 10949 H 1011.4 3.84973 0.728217 0
M  V30 10950 H 1013.09 3.99343 0.364213 0
M  V30 10951 H 1009.68 4.15271 -1.06057 0
M  V30 10952 H 1013.87 4.56336 -1.95117 0
M  V30 10953 H 1009.12 5.20257 -3.21158 0
M  V30 10954 H 1013.3 5.62691 -4.10308 0
M  V30 10955 H 1010.92 5.94419 -4.73888 0
M  V30 10956 N 1012.5 0.357919 1.53482 0
M  V30 10957 C 1013.43 -0.526753 2.23065 0
M  V30 10958 C 1014.44 -1.05239 1.24212 0
M  V30 10959 O 1015.63 -0.960078 1.50482 0
M  V30 10960 C 1012.73 -1.73919 2.9087 0
M  V30 10961 C 1011.91 -1.34638 4.16163 0
M  V30 10962 C 1010.96 -2.42005 4.67247 0
M  V30 10963 O 1009.99 -2.04714 5.31113 0
M  V30 10964 N 1011.19 -3.73478 4.44404 0
M  V30 10965 H 1013.96 0.0692386 2.9962 0
M  V30 10966 H 1011.52 0.182726 1.60866 0
M  V30 10967 H 1013.51 -2.45207 3.21956 0
M  V30 10968 H 1012.08 -2.24223 2.17814 0
M  V30 10969 H 1011.3 -0.463667 3.91464 0
M  V30 10970 H 1012.59 -1.06012 4.97633 0
M  V30 10971 H 1011.99 -4.06555 3.93357 0
M  V30 10972 H 1010.54 -4.40893 4.80059 0
M  V30 10973 N 1013.98 -1.5736 0.0868897 0
M  V30 10974 C 1015.39 -1.57304 -0.269762 0
M  V30 10975 C 1015.59 -1.09745 -1.68992 0
M  V30 10976 O 1014.65 -0.77017 -2.40468 0
M  V30 10977 C 1015.96 -3.00628 -0.0656646 0
M  V30 10978 C 1017.51 -3.12713 -0.134045 0
M  V30 10979 C 1017.98 -4.57981 0.0419569 0
M  V30 10980 N 1019.48 -4.63198 -0.0131501 0
M  V30 10981 C 1020.21 -5.73316 0.0983964 0
M  V30 10982 N 1019.71 -6.92296 0.264315 0
M  V30 10983 N 1021.5 -5.62086 0.0402517 0
M  V30 10984 H 1013.65 -1.86585 1.01487 0
M  V30 10985 H 1015.91 -0.860843 0.397055 0
M  V30 10986 H 1015.62 -3.39592 0.914891 0
M  V30 10987 H 1015.49 -3.68367 -0.811522 0
M  V30 10988 H 1017.88 -2.73627 -1.1051 0
M  V30 10989 H 1017.96 -2.47582 0.643167 0
M  V30 10990 H 1017.61 -4.9776 1.00984 0
M  V30 10991 H 1017.54 -5.21162 -0.754847 0
M  V30 10992 H 1020.03 -3.77644 -0.139183 0
M  V30 10993 H 1020.34 -7.72047 0.341165 0
M  V30 10994 H 1018.68 -6.94353 0.299876 0
M  V30 10995 H 1021.88 -4.68017 -0.0881801 0
M  V30 10996 H 1022.05 -6.47868 0.130635 0
M  V30 10997 N 1015.45 0.186762 -1.56489 0
M  V30 10998 C 1016.73 0.932229 -1.71956 0
M  V30 10999 C 1017.11 2.01037 -0.644006 0
M  V30 11000 O 1016.46 2.259 0.343694 0
M  V30 11001 C 1016.67 1.51106 -3.14592 0
M  V30 11002 C 1018.02 1.98997 -3.75081 0
M  V30 11003 O 1019.04 1.60931 -3.17773 0
M  V30 11004 O 1017.9 2.69067 -4.75673 0
M  V30 11005 H 1014.99 0.437736 -0.701652 0
M  V30 11006 H 1017.54 0.175803 -1.68787 0
M  V30 11007 H 1016.31 0.734327 -3.84348 0
M  V30 11008 H 1015.94 2.33209 -3.22024 0
M  V30 11009 N 1016.93 1.50896 0.454776 0
M  V30 11010 C 1018.18 1.6294 1.20741 0
M  V30 11011 C 1018.51 0.336339 1.91265 0
M  V30 11012 O 1017.79 -0.663153 1.82846 0
M  V30 11013 C 1018.07 2.82092 2.23822 0
M  V30 11014 C 1017.92 4.21326 1.57495 0
M  V30 11015 C 1019.24 2.96777 3.24979 0
M  V30 11016 H 1016.36 0.59302 0.437603 0
M  V30 11017 H 1019 1.83331 0.498959 0
M  V30 11018 H 1017.15 2.64837 2.84243 0
M  V30 11019 H 1018.82 4.50209 1.00546 0
M  V30 11020 H 1017.07 4.24829 0.877664 0
M  V30 11021 H 1017.74 5.00656 2.32482 0
M  V30 11022 H 1020.21 3.12627 2.74597 0
M  V30 11023 H 1019.09 3.81742 3.94416 0
M  V30 11024 H 1019.35 2.08091 3.90065 0
M  V30 11025 N 1018.41 -0.709066 1.40748 0
M  V30 11026 C 1019.66 -1.46901 1.39378 0
M  V30 11027 C 1019.99 -1.945 -0.0016993 0
M  V30 11028 O 1019.24 -1.68963 -0.987426 0
M  V30 11029 C 1019.54 -2.70543 2.33541 0
M  V30 11030 C 1019.21 -2.41674 3.80663 0
M  V30 11031 C 1017.87 -2.33511 4.20745 0
M  V30 11032 C 1020.22 -2.1759 4.73607 0
M  V30 11033 C 1017.55 -1.99342 5.51797 0
M  V30 11034 C 1019.9 -1.84933 6.04965 0
M  V30 11035 C 1018.56 -1.75256 6.44082 0
M  V30 11036 H 1017.83 -0.537549 0.510021 0
M  V30 11037 H 1020.48 -0.811635 1.7345 0
M  V30 11038 H 1018.79 -3.41149 1.92677 0
M  V30 11039 H 1020.48 -3.2865 2.29761 0
M  V30 11040 H 1017.07 -2.48917 3.4891 0
M  V30 11041 H 1021.26 -2.22849 4.43454 0
M  V30 11042 H 1016.51 -1.90392 5.81 0
M  V30 11043 H 1020.69 -1.65313 6.76494 0
M  V30 11044 H 1018.31 -1.48547 7.45545 0
M  V30 11045 N 1019.89 -1.26353 -0.941956 0
M  V30 11046 C 1021.14 -1.11241 -1.68251 0
M  V30 11047 C 1021.45 0.344055 -1.9255 0
M  V30 11048 O 1022.66 0.615832 -2.64423 0
M  V30 11049 C 1021.11 -1.94269 -3.02965 0
M  V30 11050 C 1020.72 -3.44485 -2.86415 0
M  V30 11051 C 1022.47 -1.87764 -3.80716 0
M  V30 11052 C 1020.37 -4.19763 -4.16597 0
M  V30 11053 H 1019.3 -0.412694 -0.63103 0
M  V30 11054 H 1021.95 -1.50656 -1.04762 0
M  V30 11055 H 1020.34 -1.47687 -3.6743 0
M  V30 11056 H 1021.51 -3.9883 -2.30805 0
M  V30 11057 H 1019.82 -3.52218 -2.22107 0
M  V30 11058 H 1022.42 -2.41292 -4.77161 0
M  V30 11059 H 1022.76 -0.848195 -4.07568 0
M  V30 11060 H 1023.3 -2.32165 -3.23024 0
M  V30 11061 H 1020.04 -5.23173 -3.9493 0
M  V30 11062 H 1019.56 -3.70198 -4.71925 0
M  V30 11063 H 1021.24 -4.28168 -4.85058 0
M  V30 11064 N 1021.37 1.14642 -1.08144 0
M  V30 11065 C 1022.3 2.21775 -0.730609 0
M  V30 11066 C 1023.28 1.67683 0.285702 0
M  V30 11067 O 1024.46 1.93567 0.156667 0
M  V30 11068 C 1021.59 3.47033 -0.136242 0
M  V30 11069 C 1020.55 4.14134 -1.0806 0
M  V30 11070 C 1019.87 5.33563 -0.348585 0
M  V30 11071 C 1021.17 4.62978 -2.41761 0
M  V30 11072 H 1022.87 2.51378 -1.62633 0
M  V30 11073 H 1020.41 1.20825 -0.783411 0
M  V30 11074 H 1022.37 4.21226 0.121182 0
M  V30 11075 H 1021.09 3.16786 0.7946 0
M  V30 11076 H 1019.75 3.41892 -1.32308 0
M  V30 11077 H 1019.4 4.99575 0.585974 0
M  V30 11078 H 1019.1 5.79402 -0.978122 0
M  V30 11079 H 1020.62 6.10519 -0.0991508 0
M  V30 11080 H 1022.04 5.28659 -2.21795 0
M  V30 11081 H 1020.43 5.1951 -3.00383 0
M  V30 11082 H 1021.5 3.78189 -3.03482 0
M  V30 11083 N 1022.85 0.866709 1.31628 0
M  V30 11084 C 1023.78 0.335762 2.31073 0
M  V30 11085 C 1024.76 -0.571597 1.60209 0
M  V30 11086 O 1025.94 -0.489306 1.87935 0
M  V30 11087 C 1023.07 -0.466416 3.44154 0
M  V30 11088 C 1022.03 0.347561 4.26586 0
M  V30 11089 C 1021.35 -0.5801 5.31544 0
M  V30 11090 C 1022.65 1.57986 4.97833 0
M  V30 11091 H 1024.35 1.16673 2.75731 0
M  V30 11092 H 1021.89 0.56248 1.3256 0
M  V30 11093 H 1023.84 -0.84836 4.12772 0
M  V30 11094 H 1022.57 -1.33086 2.98254 0
M  V30 11095 H 1021.23 0.71141 3.59631 0
M  V30 11096 H 1020.88 -1.44174 4.81895 0
M  V30 11097 H 1020.58 -0.0393965 5.87587 0
M  V30 11098 H 1022.1 -0.958958 6.03023 0
M  V30 11099 H 1023.51 1.26954 5.59067 0
M  V30 11100 H 1021.91 2.05939 5.63657 0
M  V30 11101 H 1022.98 2.3345 4.25005 0
M  V30 11102 N 1024.32 -1.44642 0.625825 0
M  V30 11103 C 1025.55 -2.06971 0.133373 0
M  V30 11104 C 1025.97 -1.46421 -1.18078 0
M  V30 11105 O 1025.33 -0.563676 -1.72315 0
M  V30 11106 C 1025.38 -3.6059 0.0265097 0
M  V30 11107 O 1024.48 -3.99615 -1.01889 0
M  V30 11108 H 1023.82 -0.658873 0.0823568 0
M  V30 11109 H 1026.35 -1.85601 0.861002 0
M  V30 11110 H 1026.36 -4.07663 -0.1658 0
M  V30 11111 H 1025.04 -4.04043 0.985986 0
M  V30 11112 H 1023.62 -3.64183 -0.801577 0
M  V30 11113 N 1025.8 -0.366053 -1.5329 0
M  V30 11114 C 1026.75 0.480205 -2.25749 0
M  V30 11115 C 1027.72 1.07713 -1.2644 0
M  V30 11116 O 1028.9 1.10953 -1.55222 0
M  V30 11117 C 1026.04 1.61374 -3.05045 0
M  V30 11118 C 1025.16 1.04194 -4.19246 0
M  V30 11119 C 1024.29 2.14462 -4.85983 0
M  V30 11120 C 1023.33 1.5475 -5.92215 0
M  V30 11121 N 1022.47 2.58852 -6.52641 0
M  V30 11122 H 1027.31 -0.144199 -2.97651 0
M  V30 11123 H 1024.84 -0.0829321 -1.46866 0
M  V30 11124 H 1026.8 2.28144 -3.49294 0
M  V30 11125 H 1025.43 2.2088 -2.35397 0
M  V30 11126 H 1024.48 0.264514 -3.79479 0
M  V30 11127 H 1025.8 0.565379 -4.95585 0
M  V30 11128 H 1024.95 2.89051 -5.33418 0
M  V30 11129 H 1023.69 2.6547 -4.09117 0
M  V30 11130 H 1022.69 0.786759 -5.44142 0
M  V30 11131 H 1023.92 1.04566 -6.71001 0
M  V30 11132 H 1021.87 3.09073 -5.78627 0
M  V30 11133 H 1021.78 2.15884 -7.24521 0
M  V30 11134 H 1023.05 3.33142 -7.04724 0
M  V30 11135 N 1027.28 1.57312 -0.0952337 0
M  V30 11136 C 1028.53 1.94358 0.568442 0
M  V30 11137 C 1028.85 0.97698 1.68182 0
M  V30 11138 O 1028.11 -0.00340398 1.957 0
M  V30 11139 C 1028.41 3.37937 1.16332 0
M  V30 11140 C 1028.07 4.50565 0.173715 0
M  V30 11141 C 1026.74 4.81099 -0.0984673 0
M  V30 11142 C 1029.09 5.18777 -0.501992 0
M  V30 11143 C 1026.42 5.77172 -1.05305 0
M  V30 11144 C 1028.77 6.15874 -1.44505 0
M  V30 11145 C 1027.43 6.44813 -1.72546 0
M  V30 11146 H 1026.7 0.711206 0.208007 0
M  V30 11147 H 1029.35 1.90734 -0.171096 0
M  V30 11148 H 1027.65 3.3814 1.97911 0
M  V30 11149 H 1029.35 3.63902 1.68453 0
M  V30 11150 H 1025.94 4.26766 0.396042 0
M  V30 11151 H 1030.13 4.95363 -0.304855 0
M  V30 11152 H 1025.38 5.97909 -1.2773 0
M  V30 11153 H 1029.56 6.67824 -1.97444 0
M  V30 11154 H 1027.18 7.19067 -2.46671 0
M  V30 11155 N 1028.76 -0.17846 1.56586 0
M  V30 11156 C 1030.01 -0.894464 1.81228 0
M  V30 11157 C 1030.33 -1.83089 0.671062 0
M  V30 11158 O 1029.6 -1.93439 -0.309557 0
M  V30 11159 H 1028.18 -0.333288 0.668527 0
M  V30 11160 H 1030.84 -0.179986 1.94067 0
M  V30 11161 H 1029.93 -1.47565 2.75011 0
M  V30 11162 N 1030.24 -1.51135 -0.446768 0
M  V30 11163 C 1031.48 -1.62571 -1.19388 0
M  V30 11164 C 1031.8 -0.3432 -1.92566 0
M  V30 11165 O 1033 -0.336804 -2.69403 0
M  V30 11166 C 1031.46 -2.87071 -2.17068 0
M  V30 11167 C 1031.07 -4.22291 -1.49581 0
M  V30 11168 C 1032.81 -3.07862 -2.9227 0
M  V30 11169 C 1030.72 -5.3795 -2.45689 0
M  V30 11170 H 1029.65 -0.60549 -0.449331 0
M  V30 11171 H 1032.3 -1.77593 -0.461846 0
M  V30 11172 H 1030.68 -2.65662 -2.93666 0
M  V30 11173 H 1031.86 -4.54046 -0.786054 0
M  V30 11174 H 1030.17 -4.07302 -0.865677 0
M  V30 11175 H 1032.77 -3.91444 -3.64246 0
M  V30 11176 H 1033.11 -2.20559 -3.53072 0
M  V30 11177 H 1033.64 -3.29566 -2.2278 0
M  V30 11178 H 1030.38 -6.27484 -1.89591 0
M  V30 11179 H 1029.9 -5.10583 -3.14746 0
M  V30 11180 H 1031.58 -5.69517 -3.07017 0
M  V30 11181 N 1031.71 0.701592 -1.41122 0
M  V30 11182 C 1032.95 1.4739 -1.41618 0
M  V30 11183 C 1033.32 1.91987 -0.0219443 0
M  V30 11184 O 1034.52 2.6862 0.0982793 0
M  V30 11185 C 1032.79 2.65745 -2.38986 0
M  V30 11186 S 1034.35 3.54968 -2.5796 0
M  V30 11187 H 1031.17 0.503742 -0.501762 0
M  V30 11188 H 1033.77 0.819186 -1.77509 0
M  V30 11189 H 1032.47 2.31176 -3.39096 0
M  V30 11190 H 1032 3.36115 -2.04426 0
M  V30 11191 H 1034.02 4.60724 -1.84249 0
M  V30 11192 N 1033.19 1.2685 0.935242 0
M  V30 11193 C 1034.14 1.08923 2.03481 0
M  V30 11194 C 1035.11 -0.00749786 1.66098 0
M  V30 11195 O 1036.29 0.153401 1.90182 0
M  V30 11196 C 1033.43 0.734529 3.37192 0
M  V30 11197 C 1032.55 1.90812 3.87576 0
M  V30 11198 C 1031.68 1.49599 5.097 0
M  V30 11199 C 1030.72 2.63752 5.5236 0
M  V30 11200 N 1029.86 2.23179 6.65684 0
M  V30 11201 H 1034.7 2.03016 2.18148 0
M  V30 11202 H 1032.23 1.01072 1.06878 0
M  V30 11203 H 1034.19 0.509734 4.14074 0
M  V30 11204 H 1032.82 -0.169438 3.22355 0
M  V30 11205 H 1031.87 2.24567 3.0704 0
M  V30 11206 H 1033.19 2.7647 4.1517 0
M  V30 11207 H 1032.34 1.23199 5.9406 0
M  V30 11208 H 1031.08 0.61039 4.83865 0
M  V30 11209 H 1030.08 2.90874 4.66554 0
M  V30 11210 H 1031.31 3.5292 5.80193 0
M  V30 11211 H 1029.26 1.37061 6.41522 0
M  V30 11212 H 1029.17 3.02379 6.92895 0
M  V30 11213 H 1030.44 2.00007 7.53404 0
M  V30 11214 N 1034.67 -1.14067 1.0875 0
M  V30 11215 C 1036.09 -1.37173 0.815823 0
M  V30 11216 C 1036.29 -1.93175 -0.573215 0
M  V30 11217 O 1035.34 -2.14672 -1.32937 0
M  V30 11218 C 1036.66 -2.32955 1.90138 0
M  V30 11219 C 1038.2 -2.46586 1.9278 0
M  V30 11220 C 1038.68 -3.4567 3.0046 0
M  V30 11221 N 1040.17 -3.53216 2.99655 0
M  V30 11222 C 1040.9 -4.29743 3.79616 0
M  V30 11223 N 1040.4 -5.09484 4.69466 0
M  V30 11224 N 1042.19 -4.24975 3.67903 0
M  V30 11225 H 1034.34 -0.760648 1.98313 0
M  V30 11226 H 1036.61 -0.397135 0.860807 0
M  V30 11227 H 1036.31 -1.98949 2.90021 0
M  V30 11228 H 1036.19 -3.32897 1.77368 0
M  V30 11229 H 1038.57 -2.79882 0.935404 0
M  V30 11230 H 1038.66 -1.46593 2.09629 0
M  V30 11231 H 1038.3 -3.13106 3.99909 0
M  V30 11232 H 1038.23 -4.45452 2.80856 0
M  V30 11233 H 1040.72 -2.96314 2.34535 0
M  V30 11234 H 1041.03 -5.65163 5.27077 0
M  V30 11235 H 1039.38 -5.08741 4.73506 0
M  V30 11236 H 1042.57 -3.61751 2.97075 0
M  V30 11237 H 1042.74 -4.84364 4.30459 0
M  V30 11238 N 1036.15 -0.873678 -1.31166 0
M  V30 11239 C 1037.08 -0.289389 -2.27366 0
M  V30 11240 C 1038.09 0.549667 -1.5324 0
M  V30 11241 O 1039.28 0.371056 -1.74601 0
M  V30 11242 C 1036.38 0.60807 -3.334 0
M  V30 11243 C 1035.56 -0.199379 -4.36945 0
M  V30 11244 C 1034.61 0.626798 -5.22454 0
M  V30 11245 O 1033.64 0.0535121 -5.69175 0
M  V30 11246 N 1034.84 1.93809 -5.47191 0
M  V30 11247 H 1037.61 -1.1161 -2.78143 0
M  V30 11248 H 1035.17 -0.735529 -1.44228 0
M  V30 11249 H 1037.16 1.16656 -3.87522 0
M  V30 11250 H 1035.73 1.33545 -2.82638 0
M  V30 11251 H 1034.95 -0.939316 -3.82845 0
M  V30 11252 H 1036.24 -0.75329 -5.03193 0
M  V30 11253 H 1035.64 2.42693 -5.10995 0
M  V30 11254 H 1034.19 2.44428 -6.04234 0
M  V30 11255 N 1037.63 1.44308 -0.633487 0
M  V30 11256 C 1038.59 2.2912 0.060376 0
M  V30 11257 C 1039.59 1.41166 0.769992 0
M  V30 11258 O 1040.78 1.63012 0.614224 0
M  V30 11259 C 1037.91 3.22798 1.0961 0
M  V30 11260 H 1039.1 2.91958 -0.685617 0
M  V30 11261 H 1036.66 1.51259 -0.393738 0
M  V30 11262 H 1037.39 2.64815 1.87199 0
M  V30 11263 H 1037.18 3.87618 0.591161 0
M  V30 11264 H 1038.67 3.86504 1.58127 0
M  V30 11265 N 1039.1 0.374177 1.53094 0
M  V30 11266 C 1040.04 -0.503065 2.23611 0
M  V30 11267 C 1041.05 -1.03915 1.25321 0
M  V30 11268 O 1042.24 -0.944064 1.51492 0
M  V30 11269 C 1039.34 -1.70825 2.92698 0
M  V30 11270 C 1038.51 -1.30217 4.17567 0
M  V30 11271 C 1037.57 -2.37036 4.69788 0
M  V30 11272 O 1036.6 -1.99069 5.33254 0
M  V30 11273 N 1037.8 -3.68743 4.4834 0
M  V30 11274 H 1040.56 0.101013 2.9953 0
M  V30 11275 H 1038.12 0.199778 1.60663 0
M  V30 11276 H 1040.12 -2.41779 3.24538 0
M  V30 11277 H 1038.69 -2.219 2.2018 0
M  V30 11278 H 1037.91 -0.422121 3.91933 0
M  V30 11279 H 1039.19 -1.00728 4.9873 0
M  V30 11280 H 1038.59 -4.0236 3.97647 0
M  V30 11281 H 1037.15 -4.35776 4.84709 0
M  V30 11282 N 1040.58 -1.57259 0.103575 0
M  V30 11283 C 1041.55 -2.13337 -0.837859 0
M  V30 11284 C 1042.55 -1.06459 -1.20512 0
M  V30 11285 O 1043.74 -1.32307 -1.13316 0
M  V30 11286 C 1040.87 -2.66093 -2.13089 0
M  V30 11287 H 1042.06 -2.97842 -0.350775 0
M  V30 11288 H 1039.61 -1.55621 -0.145511 0
M  V30 11289 H 1040.35 -1.85133 -2.66264 0
M  V30 11290 H 1040.13 -3.44244 -1.87719 0
M  V30 11291 H 1041.62 -3.09443 -2.80419 0
M  V30 11292 N 1042.06 0.170153 -1.56679 0
M  V30 11293 C 1043.29 0.900826 -1.85927 0
M  V30 11294 C 1043.7 1.76285 -0.687033 0
M  V30 11295 O 1043.04 1.80276 0.353029 0
M  V30 11296 C 1043.1 1.82723 -3.096 0
M  V30 11297 C 1042.77 1.14469 -4.42432 0
M  V30 11298 C 1043.76 0.509598 -5.17396 0
M  V30 11299 C 1041.45 1.1411 -4.89167 0
M  V30 11300 C 1043.44 -0.119976 -6.37287 0
M  V30 11301 C 1041.13 0.507703 -6.08987 0
M  V30 11302 C 1042.13 -0.121731 -6.82892 0
M  V30 11303 O 1041.82 -0.74514 -8.00439 0
M  V30 11304 H 1041.55 0.267087 -0.621 0
M  V30 11305 H 1044.1 0.17474 -2.04655 0
M  V30 11306 H 1042.33 2.59367 -2.8682 0
M  V30 11307 H 1044.02 2.42784 -3.25285 0
M  V30 11308 H 1044.79 0.504341 -4.82371 0
M  V30 11309 H 1040.67 1.62043 -4.31582 0
M  V30 11310 H 1044.21 -0.611872 -6.94911 0
M  V30 11311 H 1040.11 0.510548 -6.43478 0
M  V30 11312 H 1040.88 -0.644506 -8.15959 0
M  V30 11313 N 1043.54 1.5137 0.438746 0
M  V30 11314 C 1044.95 1.39514 0.775116 0
M  V30 11315 C 1045.15 0.47638 1.95788 0
M  V30 11316 O 1044.21 -0.0689832 2.52406 0
M  V30 11317 C 1045.52 2.81517 1.05681 0
M  V30 11318 C 1047.07 2.90658 1.16133 0
M  V30 11319 C 1047.55 4.33566 1.47597 0
M  V30 11320 N 1049.04 4.36665 1.54524 0
M  V30 11321 C 1049.77 5.4427 1.80438 0
M  V30 11322 N 1049.27 6.62037 2.04154 0
M  V30 11323 N 1051.06 5.31749 1.82208 0
M  V30 11324 H 1043.21 2.09657 -0.340237 0
M  V30 11325 H 1045.48 0.943736 -0.0898115 0
M  V30 11326 H 1045.18 3.50734 0.260441 0
M  V30 11327 H 1045.06 3.20757 1.98481 0
M  V30 11328 H 1047.44 2.2164 1.94833 0
M  V30 11329 H 1047.52 2.54917 0.212376 0
M  V30 11330 H 1047.17 5.03133 0.694251 0
M  V30 11331 H 1047.1 4.66819 2.43696 0
M  V30 11332 H 1049.59 3.51761 1.38105 0
M  V30 11333 H 1049.9 7.39838 2.23293 0
M  V30 11334 H 1048.25 6.65155 2.01479 0
M  V30 11335 H 1051.44 4.3873 1.63198 0
M  V30 11336 H 1051.61 6.15689 2.02067 0
M  V30 11337 N 1045.02 -0.694098 1.41492 0
M  V30 11338 C 1046.26 -1.45127 1.4065 0
M  V30 11339 C 1046.59 -1.94993 0.0170289 0
M  V30 11340 O 1045.86 -1.71799 -0.941372 0
M  V30 11341 H 1044.44 -0.538493 0.51772 0
M  V30 11342 H 1047.1 -0.821441 1.76744 0
M  V30 11343 H 1046.19 -2.31372 2.0946 0
M  V30 11344 N 1046.49 -1.27344 -0.928501 0
M  V30 11345 C 1047.43 -1.05797 -2.03322 0
M  V30 11346 C 1048.44 -0.0143086 -1.62794 0
M  V30 11347 O 1049.63 -0.25578 -1.76658 0
M  V30 11348 C 1046.73 -0.582673 -3.33853 0
M  V30 11349 C 1045.9 -1.69844 -4.03078 0
M  V30 11350 C 1044.96 -1.21902 -5.11885 0
M  V30 11351 O 1043.99 -1.91853 -5.35893 0
M  V30 11352 N 1045.19 -0.0742392 -5.80453 0
M  V30 11353 H 1047.95 -2.00928 -2.22369 0
M  V30 11354 H 1045.51 -1.189 -1.09883 0
M  V30 11355 H 1047.51 -0.245862 -4.03952 0
M  V30 11356 H 1046.08 0.27539 -3.11385 0
M  V30 11357 H 1045.3 -2.20557 -3.26723 0
M  V30 11358 H 1046.58 -2.4473 -4.46077 0
M  V30 11359 H 1045.98 0.509631 -5.634 0
M  V30 11360 H 1044.54 0.203399 -6.51483 0
M  V30 11361 N 1047.97 1.13488 -1.09353 0
M  V30 11362 C 1049.39 1.36739 -0.823086 0
M  V30 11363 C 1049.59 1.93476 0.562963 0
M  V30 11364 O 1048.64 2.15374 1.31796 0
M  V30 11365 C 1049.96 2.31943 -1.91371 0
M  V30 11366 C 1051.51 2.4556 -1.94085 0
M  V30 11367 C 1051.98 3.44072 -3.02289 0
M  V30 11368 N 1053.47 3.51622 -3.01524 0
M  V30 11369 C 1054.21 4.27724 -3.8189 0
M  V30 11370 N 1053.7 5.06987 -4.72161 0
M  V30 11371 N 1055.5 4.23018 -3.70152 0
M  V30 11372 H 1047.65 0.75012 -1.98713 0
M  V30 11373 H 1049.91 0.392564 -0.862901 0
M  V30 11374 H 1049.62 1.97408 -2.91072 0
M  V30 11375 H 1049.49 3.31952 -1.79131 0
M  V30 11376 H 1051.88 2.79382 -0.950234 0
M  V30 11377 H 1051.96 1.45479 -2.10403 0
M  V30 11378 H 1051.6 3.10981 -4.01564 0
M  V30 11379 H 1051.53 4.43956 -2.83214 0
M  V30 11380 H 1054.02 2.95066 -2.36103 0
M  V30 11381 H 1054.34 5.6236 -5.30067 0
M  V30 11382 H 1052.68 5.06222 -4.76197 0
M  V30 11383 H 1055.87 3.60171 -2.98989 0
M  V30 11384 H 1056.04 4.82075 -4.33022 0
M  V30 11385 N 1049.45 0.880621 1.30701 0
M  V30 11386 C 1050.7 0.497611 1.966 0
M  V30 11387 C 1051.03 -0.949901 1.69383 0
M  V30 11388 O 1050.31 -1.67054 0.996152 0
M  V30 11389 C 1050.59 0.767919 3.51817 0
M  V30 11390 C 1050.44 2.26574 3.88567 0
M  V30 11391 C 1051.76 0.241502 4.39437 0
M  V30 11392 H 1048.88 0.182267 0.714106 0
M  V30 11393 H 1051.52 1.10382 1.54648 0
M  V30 11394 H 1049.67 0.251967 3.87682 0
M  V30 11395 H 1051.34 2.84977 3.62748 0
M  V30 11396 H 1049.59 2.73411 3.36792 0
M  V30 11397 H 1050.26 2.40549 4.9683 0
M  V30 11398 H 1052.73 0.683051 4.10455 0
M  V30 11399 H 1051.61 0.459997 5.46969 0
M  V30 11400 H 1051.87 -0.857068 4.33713 0
M  V30 11401 N 1050.93 -1.4397 0.641131 0
M  V30 11402 C 1052.34 -1.85267 0.230838 0
M  V30 11403 C 1052.69 -1.53659 -1.21998 0
M  V30 11404 O 1051.82 -0.979572 -1.92959 0
M  V30 11405 C 1052.41 -3.36284 0.412171 0
M  V30 11406 C 1050.97 -3.76358 0.0563004 0
M  V30 11407 C 1050.12 -2.67768 0.720809 0
M  V30 11408 H 1053.07 -1.34294 0.845624 0
M  V30 11409 H 1053.09 -3.78924 -0.345936 0
M  V30 11410 H 1052.6 -3.59258 1.46818 0
M  V30 11411 H 1050.7 -3.58997 -0.997582 0
M  V30 11412 H 1050.82 -4.76756 0.473335 0
M  V30 11413 H 1049.18 -2.54227 0.155164 0
M  V30 11414 H 1049.96 -2.93573 1.77961 0
M  V30 11415 N 1052.41 -0.382291 -1.52893 0
M  V30 11416 C 1053.82 0.0932841 -1.86467 0
M  V30 11417 C 1054.17 1.4675 -1.30226 0
M  V30 11418 O 1053.29 2.07001 -0.63084 0
M  V30 11419 C 1053.89 0.176048 -3.38342 0
M  V30 11420 C 1052.45 0.595904 -3.71653 0
M  V30 11421 C 1051.6 -0.246511 -2.76202 0
M  V30 11422 H 1054.55 -0.600443 -1.46903 0
M  V30 11423 H 1054.57 0.996512 -3.67219 0
M  V30 11424 H 1054.08 -0.824264 -3.79246 0
M  V30 11425 H 1052.18 1.60384 -3.36315 0
M  V30 11426 H 1052.29 0.358919 -4.77754 0
M  V30 11427 H 1050.66 0.287162 -2.53076 0
M  V30 11428 H 1051.44 -1.24467 -3.19942 0
M  V30 11429 N 1053.89 1.57202 -0.111913 0
M  V30 11430 C 1054.83 2.14936 0.840908 0
M  V30 11431 C 1055.8 1.07242 1.2684 0
M  V30 11432 O 1056.99 1.35114 1.34718 0
M  V30 11433 C 1054.13 2.74743 2.0883 0
M  V30 11434 C 1053.24 3.96723 1.70982 0
M  V30 11435 C 1052.38 4.4464 2.90634 0
M  V30 11436 C 1051.41 5.59169 2.48992 0
M  V30 11437 N 1050.55 6.01862 3.61534 0
M  V30 11438 H 1055.39 2.96034 0.341735 0
M  V30 11439 H 1052.93 1.4626 0.156993 0
M  V30 11440 H 1054.89 3.07546 2.81907 0
M  V30 11441 H 1053.52 1.96346 2.56218 0
M  V30 11442 H 1052.57 3.70127 0.878072 0
M  V30 11443 H 1053.88 4.79795 1.36373 0
M  V30 11444 H 1053.03 4.79315 3.71944 0
M  V30 11445 H 1051.77 3.60503 3.28464 0
M  V30 11446 H 1050.78 5.24106 1.66113 0
M  V30 11447 H 1052 6.45067 2.12287 0
M  V30 11448 H 1049.95 5.20667 3.99051 0
M  V30 11449 H 1049.87 6.79772 3.30827 0
M  V30 11450 H 1051.13 6.41172 4.43305 0
M  V30 11451 N 1055.36 -0.161842 1.56767 0
M  V30 11452 C 1056.31 -1.21948 1.98069 0
M  V30 11453 C 1057.31 -1.45303 0.870835 0
M  V30 11454 O 1058.51 -1.45771 1.05598 0
M  V30 11455 H 1054.89 -0.410145 0.630306 0
M  V30 11456 H 1056.86 -0.844336 2.86205 0
M  V30 11457 C 1055.61 -2.549 2.36477 0
M  V30 11458 H 1054.93 -2.37755 3.21423 0
M  V30 11459 H 1056.37 -3.27568 2.69212 0
M  V30 11460 C 1054.83 -3.14353 1.21176 0
M  V30 11461 O 1055.36 -3.98519 0.504499 0
M  V30 11462 N 1053.56 -2.73582 0.979855 0
M  V30 11463 H 1053.11 -2.05239 1.55675 0
M  V30 11464 H 1053.07 -3.13696 0.21025 0
M  V30 11465 N 1056.84 -1.516 -0.430713 0
M  V30 11466 C 1058.07 -1.687 -1.20644 0
M  V30 11467 C 1058.49 -0.386555 -1.84085 0
M  V30 11468 O 1057.85 0.653952 -1.69095 0
M  V30 11469 C 1057.9 -2.80887 -2.2613 0
M  V30 11470 O 1057 -2.44952 -3.31772 0
M  V30 11471 H 1056.34 -0.562289 -0.353167 0
M  V30 11472 H 1058.87 -1.98198 -0.507807 0
M  V30 11473 H 1058.88 -3.05167 -2.70809 0
M  V30 11474 H 1057.56 -3.75249 -1.79334 0
M  V30 11475 H 1056.13 -2.31267 -2.92523 0
M  V30 11476 N 1058.32 0.686584 -1.41858 0
M  V30 11477 C 1059.55 1.47519 -1.45072 0
M  V30 11478 C 1059.96 1.88709 -0.0585868 0
M  V30 11479 O 1059.32 1.57373 0.924116 0
M  V30 11480 C 1059.37 2.73195 -2.36742 0
M  V30 11481 O 1059.09 2.33736 -3.70539 0
M  V30 11482 C 1060.59 3.66861 -2.48854 0
M  V30 11483 H 1057.81 0.454307 -0.493808 0
M  V30 11484 H 1060.36 0.844612 -1.86243 0
M  V30 11485 H 1058.51 3.32468 -1.98856 0
M  V30 11486 H 1058.93 3.14809 -4.19518 0
M  V30 11487 H 1060.4 4.51801 -3.17143 0
M  V30 11488 H 1060.88 4.11961 -1.52265 0
M  V30 11489 H 1061.48 3.13486 -2.87414 0
M  V30 11490 N 1059.8 1.27835 0.921735 0
M  V30 11491 C 1061.07 1.05238 1.64877 0
M  V30 11492 C 1061.45 -0.410921 2.07062 0
M  V30 11493 O 1060.8 -1.39538 1.80946 0
M  V30 11494 C 1061.01 2.01955 2.84632 0
M  V30 11495 C 1062.36 2.31657 3.55837 0
M  V30 11496 O 1063.38 1.99975 2.94768 0
M  V30 11497 O 1062.24 2.85692 4.65878 0
M  V30 11498 H 1059.34 0.401622 0.72293 0
M  V30 11499 H 1061.88 1.39123 0.971744 0
M  V30 11500 H 1060.66 3.00614 2.50494 0
M  V30 11501 H 1060.28 1.68667 3.60052 0
M  V30 11502 N 1061.28 -1.12907 1.09954 0
M  V30 11503 C 1062.52 -1.83661 0.833761 0
M  V30 11504 C 1062.84 -1.84736 -0.642798 0
M  V30 11505 O 1064.04 -2.51437 -1.0243 0
M  V30 11506 C 1062.5 -3.29763 1.44168 0
M  V30 11507 C 1062.11 -3.3706 2.95118 0
M  V30 11508 C 1063.85 -4.05522 1.25509 0
M  V30 11509 C 1061.76 -4.77467 3.48969 0
M  V30 11510 H 1060.69 -0.688115 0.308242 0
M  V30 11511 H 1063.34 -1.27166 1.32291 0
M  V30 11512 H 1061.72 -3.86094 0.880215 0
M  V30 11513 H 1062.9 -2.90695 3.57537 0
M  V30 11514 H 1061.21 -2.7477 3.12874 0
M  V30 11515 H 1063.81 -5.09188 1.63191 0
M  V30 11516 H 1064.15 -4.15837 0.196208 0
M  V30 11517 H 1064.68 -3.55536 1.78435 0
M  V30 11518 H 1061.42 -4.72344 4.54501 0
M  V30 11519 H 1060.94 -5.24305 2.91315 0
M  V30 11520 H 1062.62 -5.46397 3.46495 0
M  V30 11521 N 1062.75 -0.88754 -1.30232 0
M  V30 11522 C 1063.69 -0.313488 -2.27046 0
M  V30 11523 C 1064.7 0.533383 -1.53814 0
M  V30 11524 O 1065.89 0.352516 -1.74984 0
M  V30 11525 C 1062.99 0.572674 -3.34026 0
M  V30 11526 C 1062.16 -0.245712 -4.36709 0
M  V30 11527 C 1061.22 0.57135 -5.23089 0
M  V30 11528 O 1060.25 -0.00685948 -5.692 0
M  V30 11529 N 1061.45 1.87994 -5.49216 0
M  V30 11530 H 1064.21 -1.14553 -2.76943 0
M  V30 11531 H 1061.77 -0.750785 -1.43439 0
M  V30 11532 H 1063.77 1.12539 -3.88738 0
M  V30 11533 H 1062.34 1.3054 -2.84039 0
M  V30 11534 H 1061.56 -0.979869 -3.81827 0
M  V30 11535 H 1062.84 -0.806618 -5.02366 0
M  V30 11536 H 1062.24 2.3726 -5.13541 0
M  V30 11537 H 1060.8 2.38005 -6.06792 0
M  V30 11538 N 1064.23 1.43628 -0.648757 0
M  V30 11539 C 1065.48 2.02163 -0.160574 0
M  V30 11540 C 1065.81 1.51037 1.22072 0
M  V30 11541 O 1065.09 0.701633 1.81404 0
M  V30 11542 C 1065.37 3.59715 -0.166528 0
M  V30 11543 C 1065.22 4.21083 -1.58142 0
M  V30 11544 C 1066.54 4.37256 0.499485 0
M  V30 11545 H 1063.66 0.734568 -0.0598238 0
M  V30 11546 H 1066.3 1.70981 -0.828592 0
M  V30 11547 H 1064.45 3.86411 0.402302 0
M  V30 11548 H 1066.12 4.05433 -2.2005 0
M  V30 11549 H 1064.37 3.77904 -2.13005 0
M  V30 11550 H 1065.04 5.30156 -1.53748 0
M  V30 11551 H 1067.51 4.16097 0.0155561 0
M  V30 11552 H 1066.39 5.4693 0.464574 0
M  V30 11553 H 1066.65 4.13175 1.57286 0
M  V30 11554 N 1065.71 0.390394 1.52688 0
M  V30 11555 C 1066.64 -0.479319 2.24132 0
M  V30 11556 C 1067.66 -1.0258 1.26416 0
M  V30 11557 O 1068.84 -0.927943 1.52484 0
M  V30 11558 C 1065.94 -1.67711 2.94493 0
M  V30 11559 C 1065.12 -1.2578 4.18925 0
M  V30 11560 C 1064.18 -2.3204 4.72275 0
M  V30 11561 O 1063.2 -1.93402 5.35336 0
M  V30 11562 N 1064.4 -3.63967 4.52226 0
M  V30 11563 H 1067.17 0.132777 2.99406 0
M  V30 11564 H 1064.73 0.216807 1.60442 0
M  V30 11565 H 1066.72 -2.38323 3.27084 0
M  V30 11566 H 1065.29 -2.19552 2.22521 0
M  V30 11567 H 1064.51 -0.380528 3.92359 0
M  V30 11568 H 1065.8 -0.954329 4.9977 0
M  V30 11569 H 1065.2 -3.98119 4.01892 0
M  V30 11570 H 1063.76 -4.30611 4.89303 0
M  V30 11571 N 1067.19 -1.57141 0.120249 0
M  V30 11572 C 1068.14 -2.15379 -0.829497 0
M  V30 11573 C 1069.11 -1.07913 -1.2627 0
M  V30 11574 O 1070.29 -1.35827 -1.33999 0
M  V30 11575 C 1067.43 -2.75847 -2.0737 0
M  V30 11576 C 1066.54 -3.97624 -1.68875 0
M  V30 11577 C 1065.68 -4.46175 -2.88272 0
M  V30 11578 C 1064.72 -5.60481 -2.46023 0
M  V30 11579 N 1063.85 -6.0377 -3.58337 0
M  V30 11580 H 1068.69 -2.96211 -0.326031 0
M  V30 11581 H 1066.23 -1.46341 -0.149235 0
M  V30 11582 H 1068.19 -3.09037 -2.80272 0
M  V30 11583 H 1066.82 -1.97703 -2.55174 0
M  V30 11584 H 1065.87 -3.70588 -0.858431 0
M  V30 11585 H 1067.18 -4.80512 -1.33827 0
M  V30 11586 H 1066.34 -4.8128 -3.69397 0
M  V30 11587 H 1065.08 -3.6224 -3.26548 0
M  V30 11588 H 1064.08 -5.24979 -1.63331 0
M  V30 11589 H 1065.31 -6.46184 -2.08863 0
M  V30 11590 H 1063.25 -5.22776 -3.96284 0
M  V30 11591 H 1063.17 -6.81517 -3.27217 0
M  V30 11592 H 1064.44 -6.43514 -4.39898 0
M  V30 11593 N 1068.67 0.153526 -1.5685 0
M  V30 11594 C 1069.91 0.868517 -1.83261 0
M  V30 11595 C 1070.25 1.81112 -0.700857 0
M  V30 11596 O 1069.52 1.92235 0.295989 0
M  V30 11597 C 1069.8 1.6487 -3.2014 0
M  V30 11598 C 1069.66 0.728021 -4.43869 0
M  V30 11599 C 1070.98 2.61259 -3.54163 0
M  V30 11600 H 1068.09 0.314297 -0.666623 0
M  V30 11601 H 1070.74 0.133971 -1.89527 0
M  V30 11602 H 1068.89 2.2749 -3.1493 0
M  V30 11603 H 1070.56 0.113328 -4.61161 0
M  V30 11604 H 1068.8 0.0371744 -4.33784 0
M  V30 11605 H 1069.47 1.30981 -5.36235 0
M  V30 11606 H 1071.95 2.0876 -3.59942 0
M  V30 11607 H 1070.82 3.12902 -4.50981 0
M  V30 11608 H 1071.09 3.42307 -2.79782 0
M  V30 11609 N 1070.14 1.51827 0.422667 0
M  V30 11610 C 1071.37 1.69049 1.1929 0
M  V30 11611 C 1071.79 0.394095 1.84641 0
M  V30 11612 O 1071.14 -0.628731 1.71328 0
M  V30 11613 C 1071.2 2.81657 2.26609 0
M  V30 11614 O 1070.92 4.06275 1.63929 0
M  V30 11615 C 1072.42 3.10274 3.16615 0
M  V30 11616 H 1069.64 0.566894 0.358988 0
M  V30 11617 H 1072.18 1.98318 0.499029 0
M  V30 11618 H 1070.34 2.54945 2.91688 0
M  V30 11619 H 1070.75 4.68924 2.3497 0
M  V30 11620 H 1072.22 3.92613 3.88019 0
M  V30 11621 H 1072.7 2.23273 3.78214 0
M  V30 11622 H 1073.31 3.387 2.57221 0
M  V30 11623 N 1071.62 -0.679052 1.4222 0
M  V30 11624 C 1072.57 -1.78522 1.41824 0
M  V30 11625 C 1073.56 -1.58262 0.290179 0
M  V30 11626 O 1074.75 -1.68813 0.532092 0
M  V30 11627 C 1071.88 -3.16952 1.31895 0
M  V30 11628 C 1070.96 -3.42849 2.4963 0
M  V30 11629 N 1071.35 -3.39354 3.75063 0
M  V30 11630 C 1069.65 -3.73468 2.43799 0
M  V30 11631 C 1070.35 -3.64617 4.53243 0
M  V30 11632 N 1069.33 -3.85174 3.83591 0
M  V30 11633 H 1073.13 -1.74206 2.36705 0
M  V30 11634 H 1070.65 -0.879719 1.36509 0
M  V30 11635 H 1072.64 -3.96214 1.29693 0
M  V30 11636 H 1071.3 -3.22467 0.380127 0
M  V30 11637 H 1072.31 -3.19354 4.07718 0
M  V30 11638 H 1068.99 -3.86254 1.58474 0
M  V30 11639 H 1070.38 -3.67912 5.62219 0
M  V30 11640 N 1073.1 -1.28322 -0.914942 0
M  V30 11641 C 1074.38 -1.06111 -1.64316 0
M  V30 11642 C 1074.76 0.399934 -2.07277 0
M  V30 11643 O 1074.11 1.38577 -1.81683 0
M  V30 11644 C 1074.32 -2.03461 -2.83557 0
M  V30 11645 C 1075.66 -2.33541 -3.54604 0
M  V30 11646 O 1076.69 -2.01536 -2.93704 0
M  V30 11647 O 1075.55 -2.88158 -4.64357 0
M  V30 11648 H 1072.64 -0.405451 -0.72079 0
M  V30 11649 H 1075.19 -1.39636 -0.964352 0
M  V30 11650 H 1073.96 -3.01938 -2.48896 0
M  V30 11651 H 1073.58 -1.70574 -3.59152 0
M  V30 11652 N 1074.58 1.12322 -1.10551 0
M  V30 11653 C 1075.51 2.17221 -0.699299 0
M  V30 11654 C 1076.49 1.59809 0.299973 0
M  V30 11655 O 1077.67 1.87451 0.198589 0
M  V30 11656 C 1074.8 3.38685 -0.0320136 0
M  V30 11657 C 1073.85 4.14732 -0.99495 0
M  V30 11658 S 1074.68 4.72879 -2.51288 0
M  V30 11659 C 1075.84 5.97676 -1.85834 0
M  V30 11660 H 1076.07 2.51342 -1.5879 0
M  V30 11661 H 1073.6 1.23802 -0.92263 0
M  V30 11662 H 1075.56 4.09034 0.346656 0
M  V30 11663 H 1074.22 3.02842 0.833407 0
M  V30 11664 H 1073.41 5.01754 -0.475331 0
M  V30 11665 H 1073.02 3.50098 -1.31559 0
M  V30 11666 H 1075.31 6.6698 -1.18927 0
M  V30 11667 H 1076.25 6.54266 -2.70817 0
M  V30 11668 H 1076.66 5.48793 -1.32237 0
M  V30 11669 N 1076.06 0.894434 1.2976 0
M  V30 11670 C 1077.47 0.589778 1.48303 0
M  V30 11671 C 1077.67 -0.870085 1.81746 0
M  V30 11672 O 1076.73 -1.65065 1.91076 0
M  V30 11673 C 1078.04 1.51107 2.59975 0
M  V30 11674 C 1079.59 1.51571 2.73853 0
M  V30 11675 C 1080.06 2.42316 3.88648 0
M  V30 11676 N 1081.56 2.40333 3.95973 0
M  V30 11677 C 1082.29 3.07254 4.84131 0
M  V30 11678 N 1081.79 3.83435 5.77018 0
M  V30 11679 N 1083.58 2.96438 4.77578 0
M  V30 11680 H 1075.73 1.83871 1.06327 0
M  V30 11681 H 1077.99 0.78758 0.527657 0
M  V30 11682 H 1077.7 2.55097 2.42112 0
M  V30 11683 H 1077.57 1.22767 3.56662 0
M  V30 11684 H 1079.96 0.483277 2.91116 0
M  V30 11685 H 1080.04 1.83946 1.77757 0
M  V30 11686 H 1079.69 3.4565 3.72141 0
M  V30 11687 H 1079.62 2.07252 4.84101 0
M  V30 11688 H 1082.11 1.84979 3.29532 0
M  V30 11689 H 1082.42 4.31565 6.4107 0
M  V30 11690 H 1080.76 3.87542 5.7692 0
M  V30 11691 H 1083.96 2.36442 4.03996 0
M  V30 11692 H 1084.13 3.48867 5.46073 0
M  V30 11693 N 1077.53 -1.43282 0.656365 0
M  V30 11694 C 1078.47 -2.29087 -0.0720378 0
M  V30 11695 C 1079.48 -1.4268 -0.783982 0
M  V30 11696 O 1080.67 -1.66585 -0.641213 0
M  V30 11697 C 1077.77 -3.19676 -1.12519 0
M  V30 11698 C 1076.94 -4.34638 -0.490756 0
M  V30 11699 C 1076 -5.06079 -1.44121 0
M  V30 11700 O 1075.03 -5.6124 -0.948595 0
M  V30 11701 N 1076.23 -5.09872 -2.77509 0
M  V30 11702 H 1078.99 -2.92241 0.664456 0
M  V30 11703 H 1076.55 -1.54006 0.499383 0
M  V30 11704 H 1078.55 -3.64334 -1.76189 0
M  V30 11705 H 1077.12 -2.581 -1.76362 0
M  V30 11706 H 1076.34 -3.92857 0.3251 0
M  V30 11707 H 1077.62 -5.08777 -0.0480061 0
M  V30 11708 H 1077.02 -4.66433 -3.20088 0
M  V30 11709 H 1075.58 -5.58237 -3.36474 0
M  V30 11710 N 1079.01 -0.398486 -1.52479 0
M  V30 11711 C 1080.26 0.180394 -2.01293 0
M  V30 11712 C 1080.58 1.46548 -1.28641 0
M  V30 11713 O 1079.85 1.91579 -0.409173 0
M  V30 11714 H 1078.43 0.0696528 -0.743746 0
M  V30 11715 H 1081.09 -0.532285 -1.87491 0
M  V30 11716 H 1080.19 0.38409 -3.09728 0
M  V30 11717 N 1080.49 1.57075 -0.12858 0
M  V30 11718 C 1081.42 2.18833 0.814519 0
M  V30 11719 C 1082.4 1.13114 1.2704 0
M  V30 11720 O 1083.59 1.41387 1.33129 0
M  V30 11721 C 1080.72 2.79535 2.06101 0
M  V30 11722 C 1079.67 3.9092 1.74257 0
M  V30 11723 C 1079 4.38473 3.06015 0
M  V30 11724 C 1080.3 5.1257 1.00345 0
M  V30 11725 H 1081.99 2.97895 0.299862 0
M  V30 11726 H 1079.54 1.4329 0.14279 0
M  V30 11727 H 1081.49 3.21401 2.72543 0
M  V30 11728 H 1080.21 1.97777 2.59907 0
M  V30 11729 H 1078.87 3.49645 1.102 0
M  V30 11730 H 1078.52 3.53561 3.57776 0
M  V30 11731 H 1078.22 5.13591 2.85479 0
M  V30 11732 H 1079.75 4.82997 3.7356 0
M  V30 11733 H 1081.16 5.51395 1.56959 0
M  V30 11734 H 1079.56 5.93333 0.898693 0
M  V30 11735 H 1080.63 4.84899 -0.0081335 0
M  V30 11736 N 1081.97 -0.145205 1.5693 0
M  V30 11737 C 1082.92 -1.18446 1.94819 0
M  V30 11738 C 1083.9 -1.38456 0.819684 0
M  V30 11739 O 1085.1 -1.39988 1.08316 0
M  V30 11740 C 1082.22 -2.51766 2.33385 0
M  V30 11741 C 1081.31 -2.35341 3.5281 0
M  V30 11742 N 1081.7 -1.88676 4.69292 0
M  V30 11743 C 1080 -2.66087 3.5793 0
M  V30 11744 C 1080.7 -1.85337 5.51385 0
M  V30 11745 N 1079.68 -2.28717 4.93142 0
M  V30 11746 H 1083.48 -0.815785 2.82351 0
M  V30 11747 H 1080.99 -0.353242 1.58512 0
M  V30 11748 H 1082.99 -3.26897 2.58735 0
M  V30 11749 H 1081.65 -2.89414 1.47206 0
M  V30 11750 H 1082.66 -1.58614 4.93013 0
M  V30 11751 H 1079.34 -3.07597 2.82294 0
M  V30 11752 H 1080.73 -1.50734 6.54774 0
M  V30 11753 N 1083.45 -1.52049 -0.414609 0
M  V30 11754 C 1084.4 -1.75603 -1.52533 0
M  V30 11755 C 1085.39 -0.622965 -1.57529 0
M  V30 11756 O 1086.6 -0.804886 -1.61002 0
M  V30 11757 H 1082.97 -0.555222 -0.507181 0
M  V30 11758 H 1084.94 -2.68666 -1.2985 0
M  V30 11759 C 1083.69 -1.9188 -2.89961 0
M  V30 11760 H 1083.01 -2.78483 -2.86857 0
M  V30 11761 H 1084.45 -2.12363 -3.66985 0
M  V30 11762 C 1082.91 -0.684453 -3.29874 0
M  V30 11763 O 1083.44 0.150256 -4.01419 0
M  V30 11764 N 1081.65 -0.521936 -2.85874 0
M  V30 11765 H 1081.2 -1.20229 -2.27822 0
M  V30 11766 H 1081.15 0.302655 -3.1294 0
M  V30 11767 N 1084.93 0.6715 -1.42579 0
M  V30 11768 C 1085.86 1.79625 -1.40749 0
M  V30 11769 C 1086.84 1.6032 -0.271312 0
M  V30 11770 O 1088.02 1.82749 -0.46205 0
M  V30 11771 C 1085.15 3.16672 -1.20153 0
M  V30 11772 C 1084.19 3.54718 -2.36807 0
M  V30 11773 S 1085.03 3.56771 -3.99343 0
M  V30 11774 C 1086.18 4.96505 -3.81095 0
M  V30 11775 H 1086.42 1.80903 -2.35926 0
M  V30 11776 H 1083.95 0.842469 -1.2939 0
M  V30 11777 H 1085.91 3.95776 -1.08956 0
M  V30 11778 H 1084.57 3.12976 -0.265545 0
M  V30 11779 H 1083.76 4.54341 -2.18152 0
M  V30 11780 H 1083.36 2.82982 -2.44535 0
M  V30 11781 H 1085.65 5.84674 -3.4229 0
M  V30 11782 H 1086.6 5.20207 -4.80406 0
M  V30 11783 H 1087.01 4.69178 -3.13898 0
M  V30 11784 N 1086.4 1.28806 0.908124 0
M  V30 11785 C 1087.31 1.15079 2.04436 0
M  V30 11786 C 1088.33 0.076012 1.73834 0
M  V30 11787 O 1089.51 0.286421 1.99353 0
M  V30 11788 C 1086.57 0.819733 3.3687 0
M  V30 11789 C 1085.63 1.97746 3.81045 0
M  V30 11790 C 1084.86 1.66211 5.07158 0
M  V30 11791 O 1085.09 0.579092 5.67453 0
M  V30 11792 O 1084.02 2.5075 5.47182 0
M  V30 11793 H 1087.85 2.10477 2.18937 0
M  V30 11794 H 1085.43 1.08177 1.03044 0
M  V30 11795 H 1087.31 0.649304 4.16368 0
M  V30 11796 H 1085.99 -0.10454 3.23531 0
M  V30 11797 H 1084.9 2.20308 3.02349 0
M  V30 11798 H 1086.23 2.88264 3.98955 0
M  V30 11799 N 1087.88 -1.11734 1.11145 0
M  V30 11800 C 1089.16 -1.79795 0.770261 0
M  V30 11801 C 1089.54 -1.97624 -0.742158 0
M  V30 11802 O 1088.89 -1.55847 -1.67105 0
M  V30 11803 C 1089.1 -3.13684 1.52982 0
M  V30 11804 C 1090.44 -3.88771 1.70711 0
M  V30 11805 O 1091.47 -3.23363 1.49381 0
M  V30 11806 O 1090.33 -5.06134 2.06132 0
M  V30 11807 H 1087.42 -0.778617 0.27872 0
M  V30 11808 H 1089.97 -1.18504 1.2147 0
M  V30 11809 H 1088.74 -2.96043 2.55879 0
M  V30 11810 H 1088.36 -3.82687 1.07873 0
M  V30 11811 N 1089.36 -0.901303 -1.29284 0
M  V30 11812 C 1090.61 -0.528826 -1.95784 0
M  V30 11813 C 1090.94 0.922833 -1.70873 0
M  V30 11814 O 1090.21 1.65448 -1.0226 0
M  V30 11815 C 1090.5 -0.823793 -3.50551 0
M  V30 11816 C 1090.35 -2.32727 -3.84913 0
M  V30 11817 C 1091.67 -0.311382 -4.38997 0
M  V30 11818 H 1088.79 -0.193604 -0.711116 0
M  V30 11819 H 1091.43 -1.12828 -1.52872 0
M  V30 11820 H 1089.58 -0.313612 -3.87232 0
M  V30 11821 H 1091.25 -2.90712 -3.58168 0
M  V30 11822 H 1089.49 -2.78735 -3.32399 0
M  V30 11823 H 1090.17 -2.48423 -4.9294 0
M  V30 11824 H 1092.64 -0.748265 -4.09317 0
M  V30 11825 H 1091.52 -0.546957 -5.46168 0
M  V30 11826 H 1091.78 0.787959 -4.35021 0
M  V30 11827 N 1090.84 1.42931 -0.663954 0
M  V30 11828 C 1092.07 2.05729 -0.189532 0
M  V30 11829 C 1092.48 1.49914 1.15423 0
M  V30 11830 O 1091.82 0.629324 1.72584 0
M  V30 11831 C 1091.88 3.59482 -0.0354748 0
M  V30 11832 C 1091.54 4.37935 -1.30622 0
M  V30 11833 C 1092.54 4.69297 -2.23733 0
M  V30 11834 C 1090.23 4.77761 -1.5508 0
M  V30 11835 C 1092.22 5.39407 -3.39586 0
M  V30 11836 C 1089.91 5.47613 -2.71224 0
M  V30 11837 C 1090.91 5.7836 -3.63302 0
M  V30 11838 O 1090.59 6.46783 -4.77417 0
M  V30 11839 H 1090.33 0.669678 -0.0922342 0
M  V30 11840 H 1092.88 1.84243 -0.907943 0
M  V30 11841 H 1091.11 3.79584 0.738412 0
M  V30 11842 H 1092.8 4.03947 0.397679 0
M  V30 11843 H 1093.56 4.39038 -2.06084 0
M  V30 11844 H 1089.44 4.53229 -0.842863 0
M  V30 11845 H 1092.99 5.63323 -4.11476 0
M  V30 11846 H 1088.88 5.77289 -2.88804 0
M  V30 11847 H 1089.65 6.6527 -4.76821 0
M  V30 11848 N 1092.32 0.406567 1.52266 0
M  V30 11849 C 1093.23 -0.4271 2.30679 0
M  V30 11850 C 1094.24 -1.0559 1.383 0
M  V30 11851 O 1095.42 -1.05797 1.71374 0
M  V30 11852 C 1092.48 -1.53008 3.1111 0
M  V30 11853 C 1091.54 -0.924604 4.19225 0
M  V30 11854 C 1090.78 -1.97502 4.95811 0
M  V30 11855 O 1091 -3.19277 4.72671 0
M  V30 11856 O 1089.93 -1.58268 5.80719 0
M  V30 11857 H 1093.76 0.212187 3.02958 0
M  V30 11858 H 1091.34 0.169835 1.48432 0
M  V30 11859 H 1093.23 -2.17046 3.61205 0
M  V30 11860 H 1091.9 -2.15401 2.41628 0
M  V30 11861 H 1090.81 -0.247009 3.73284 0
M  V30 11862 H 1092.14 -0.34463 4.90992 0
M  V30 11863 N 1093.79 -1.57004 0.136909 0
M  V30 11864 C 1094.72 -2.19262 -0.802902 0
M  V30 11865 C 1095.71 -1.13786 -1.26439 0
M  V30 11866 O 1096.89 -1.42091 -1.32377 0
M  V30 11867 C 1094.02 -2.80624 -2.04615 0
M  V30 11868 C 1092.97 -3.91839 -1.72181 0
M  V30 11869 C 1092.3 -4.4009 -3.03686 0
M  V30 11870 C 1093.6 -5.13095 -0.976249 0
M  V30 11871 H 1095.29 -2.98049 -0.28406 0
M  V30 11872 H 1092.84 -1.43364 -0.135189 0
M  V30 11873 H 1094.79 -3.22842 -2.70834 0
M  V30 11874 H 1093.52 -1.99153 -2.58855 0
M  V30 11875 H 1092.18 -3.50224 -1.08344 0
M  V30 11876 H 1091.82 -3.55454 -3.55896 0
M  V30 11877 H 1091.52 -5.15098 -2.82751 0
M  V30 11878 H 1093.05 -4.84971 -3.70993 0
M  V30 11879 H 1094.46 -5.5222 -1.54033 0
M  V30 11880 H 1092.86 -5.93801 -0.867214 0
M  V30 11881 H 1093.93 -4.84888 0.0338488 0
M  V30 11882 N 1095.27 0.136881 -1.57004 0
M  V30 11883 C 1096.52 0.846257 -1.83088 0
M  V30 11884 C 1096.83 1.81876 -0.719765 0
M  V30 11885 O 1098.04 2.57302 -0.866494 0
M  V30 11886 C 1096.5 1.55559 -3.24545 0
M  V30 11887 C 1096.1 0.624989 -4.43619 0
M  V30 11888 C 1097.85 2.25115 -3.59893 0
M  V30 11889 C 1095.76 1.33653 -5.761 0
M  V30 11890 H 1094.69 0.319768 -0.682836 0
M  V30 11891 H 1097.34 0.0989741 -1.83233 0
M  V30 11892 H 1095.72 2.34887 -3.18817 0
M  V30 11893 H 1096.89 -0.133783 -4.60606 0
M  V30 11894 H 1095.21 0.0373216 -4.16383 0
M  V30 11895 H 1097.8 2.79008 -4.56134 0
M  V30 11896 H 1098.15 3.02084 -2.86446 0
M  V30 11897 H 1098.68 1.52696 -3.67327 0
M  V30 11898 H 1095.42 0.608495 -6.5267 0
M  V30 11899 H 1094.94 2.06776 -5.63031 0
M  V30 11900 H 1096.62 1.87467 -6.19246 0
M  V30 11901 N 1096.75 1.52266 0.40654 0
M  V30 11902 C 1097.66 1.78688 1.52012 0
M  V30 11903 C 1098.68 0.6726 1.60475 0
M  V30 11904 O 1099.85 0.95829 1.77141 0
M  V30 11905 C 1096.92 1.93434 2.87722 0
M  V30 11906 C 1095.98 3.17341 2.89125 0
M  V30 11907 C 1095.21 3.31374 4.18362 0
M  V30 11908 O 1095.43 2.50613 5.12396 0
M  V30 11909 O 1094.37 4.24539 4.26674 0
M  V30 11910 H 1098.19 2.73213 1.3262 0
M  V30 11911 H 1095.78 1.37142 0.592653 0
M  V30 11912 H 1097.66 2.04941 3.68208 0
M  V30 11913 H 1096.34 1.02099 3.07177 0
M  V30 11914 H 1095.24 3.1129 2.07483 0
M  V30 11915 H 1096.58 4.08466 2.7462 0
M  V30 11916 N 1098.23 -0.663929 1.42933 0
M  V30 11917 C 1099.18 -1.79843 1.4751 0
M  V30 11918 C 1100.17 -1.65751 0.349727 0
M  V30 11919 O 1101.38 -1.72227 0.523239 0
M  V30 11920 H 1097.75 -0.593176 0.462219 0
M  V30 11921 H 1099.72 -1.73102 2.4306 0
M  V30 11922 C 1098.47 -3.18053 1.4049 0
M  V30 11923 H 1097.79 -3.29529 2.26386 0
M  V30 11924 H 1099.23 -3.97423 1.47754 0
M  V30 11925 C 1097.69 -3.36682 0.121076 0
M  V30 11926 O 1098.22 -3.93202 -0.821874 0
M  V30 11927 N 1096.43 -2.90579 0.0347141 0
M  V30 11928 H 1095.98 -2.44769 0.802852 0
M  V30 11929 H 1095.93 -3.03421 -0.823607 0
M  V30 11930 N 1099.71 -1.29285 -0.901281 0
M  V30 11931 C 1100.93 -1.20169 -1.69039 0
M  V30 11932 C 1101.36 0.234509 -1.86632 0
M  V30 11933 O 1100.71 1.16935 -1.38549 0
M  V30 11934 C 1100.76 -1.91852 -3.05328 0
M  V30 11935 O 1099.87 -1.23448 -3.9349 0
M  V30 11936 H 1099.21 -0.416486 -0.517141 0
M  V30 11937 H 1101.74 -1.70826 -1.12603 0
M  V30 11938 H 1101.75 -2.00244 -3.5548 0
M  V30 11939 H 1100.42 -2.96313 -2.91841 0
M  V30 11940 H 1099 -1.23303 -3.51924 0
M  V30 11941 N 1101.18 1.11143 -1.11736 0
M  V30 11942 C 1102.13 2.15396 -0.747566 0
M  V30 11943 C 1103.12 1.58948 0.249894 0
M  V30 11944 O 1104.31 1.7691 0.0565267 0
M  V30 11945 C 1101.44 3.42741 -0.195776 0
M  V30 11946 C 1100.53 4.06141 -1.22109 0
M  V30 11947 N 1100.92 4.44351 -2.41631 0
M  V30 11948 C 1099.21 4.33104 -1.06474 0
M  V30 11949 C 1099.92 4.94062 -3.07046 0
M  V30 11950 N 1098.89 4.90411 -2.34516 0
M  V30 11951 H 1102.69 2.42722 -1.6572 0
M  V30 11952 H 1100.21 1.28189 -0.997059 0
M  V30 11953 H 1102.2 4.16809 0.0872984 0
M  V30 11954 H 1100.86 3.16878 0.708406 0
M  V30 11955 H 1101.88 4.36283 -2.79065 0
M  V30 11956 H 1098.55 4.16934 -0.217246 0
M  V30 11957 H 1099.94 5.33234 -4.08792 0
M  V30 11958 N 1102.66 0.908147 1.28804 0
M  V30 11959 C 1103.59 0.409106 2.29888 0
M  V30 11960 C 1104.57 -0.520338 1.61946 0
M  V30 11961 O 1105.76 -0.429268 1.89396 0
M  V30 11962 C 1102.89 -0.35669 3.45463 0
M  V30 11963 C 1101.84 0.4831 4.25265 0
M  V30 11964 C 1101.17 -0.4107 5.3312 0
M  V30 11965 C 1102.47 1.73744 4.92555 0
M  V30 11966 H 1104.16 1.25386 2.7188 0
M  V30 11967 H 1101.71 0.604368 1.30703 0
M  V30 11968 H 1103.66 -0.71661 4.15262 0
M  V30 11969 H 1102.39 -1.2353 3.02337 0
M  V30 11970 H 1101.04 0.825464 3.57186 0
M  V30 11971 H 1100.69 -1.28769 4.86238 0
M  V30 11972 H 1100.39 0.14756 5.87415 0
M  V30 11973 H 1101.92 -0.766626 6.05768 0
M  V30 11974 H 1103.33 1.44676 5.54745 0
M  V30 11975 H 1101.73 2.23767 5.5682 0
M  V30 11976 H 1102.8 2.46853 4.17363 0
M  V30 11977 N 1104.14 -1.42577 0.671525 0
M  V30 11978 C 1105.37 -2.05924 0.200731 0
M  V30 11979 C 1105.78 -1.50434 -1.14083 0
M  V30 11980 O 1105.14 -0.642845 -1.70803 0
M  V30 11981 C 1105.19 -3.61289 0.123505 0
M  V30 11982 O 1104.91 -4.1472 1.41205 0
M  V30 11983 C 1106.41 -4.41743 -0.371178 0
M  V30 11984 H 1103.63 -0.663746 0.0983958 0
M  V30 11985 H 1106.18 -1.82771 0.917338 0
M  V30 11986 H 1104.33 -3.83565 -0.543769 0
M  V30 11987 H 1104.75 -5.0856 1.28325 0
M  V30 11988 H 1106.22 -5.50731 -0.374128 0
M  V30 11989 H 1106.7 -4.16092 -1.40585 0
M  V30 11990 H 1107.3 -4.24478 0.264244 0
M  V30 11991 N 1105.62 -0.414636 -1.52048 0
M  V30 11992 C 1107.03 0.0537107 -1.86623 0
M  V30 11993 C 1107.38 1.43955 -1.3331 0
M  V30 11994 O 1106.51 2.05616 -0.674606 0
M  V30 11995 C 1107.1 0.104241 -3.3864 0
M  V30 11996 C 1105.66 0.516936 -3.72833 0
M  V30 11997 C 1104.81 -0.305042 -2.75617 0
M  V30 11998 H 1107.76 -0.631469 -1.45596 0
M  V30 11999 H 1107.78 0.918395 -3.6925 0
M  V30 12000 H 1107.29 -0.904523 -3.77412 0
M  V30 12001 H 1105.39 1.53214 -3.39641 0
M  V30 12002 H 1105.5 0.2575 -4.78408 0
M  V30 12003 H 1103.87 0.233416 -2.53628 0
M  V30 12004 H 1104.65 -1.31226 -3.1723 0
M  V30 12005 N 1107.1 1.56929 -0.145233 0
M  V30 12006 C 1108.04 2.16671 0.795128 0
M  V30 12007 C 1109.01 1.09908 1.24537 0
M  V30 12008 O 1110.2 1.37941 1.31821 0
M  V30 12009 C 1107.34 2.79111 2.02956 0
M  V30 12010 C 1106.45 4.00261 1.62528 0
M  V30 12011 C 1105.59 4.50705 2.81137 0
M  V30 12012 C 1104.63 5.64324 2.37075 0
M  V30 12013 N 1103.76 6.09395 3.48687 0
M  V30 12014 H 1108.6 2.96692 0.278865 0
M  V30 12015 H 1106.14 1.4656 0.125934 0
M  V30 12016 H 1108.1 3.13456 2.7532 0
M  V30 12017 H 1106.73 2.01737 2.51996 0
M  V30 12018 H 1105.78 3.71906 0.799365 0
M  V30 12019 H 1107.09 4.8258 1.26166 0
M  V30 12020 H 1106.25 4.87096 3.61693 0
M  V30 12021 H 1104.98 3.67389 3.20744 0
M  V30 12022 H 1103.99 5.27511 1.54958 0
M  V30 12023 H 1105.21 6.49425 1.98556 0
M  V30 12024 H 1103.16 5.29014 3.87917 0
M  V30 12025 H 1103.08 6.86636 3.16333 0
M  V30 12026 H 1104.35 6.50431 4.29605 0
M  V30 12027 N 1108.58 -0.128553 1.57075 0
M  V30 12028 C 1109.52 -1.15812 1.9964 0
M  V30 12029 C 1110.49 -1.41679 0.86696 0
M  V30 12030 O 1111.68 -1.53705 1.13046 0
M  V30 12031 C 1108.82 -2.48198 2.39774 0
M  V30 12032 C 1107.93 -2.29348 3.66092 0
M  V30 12033 C 1107.07 -3.54898 3.95248 0
M  V30 12034 C 1106.1 -3.31164 5.14779 0
M  V30 12035 N 1105.24 -4.48891 5.39853 0
M  V30 12036 H 1110.08 -0.788136 2.87389 0
M  V30 12037 H 1107.62 -0.377682 1.42169 0
M  V30 12038 H 1109.58 -3.25414 2.61077 0
M  V30 12039 H 1108.21 -2.83108 1.5508 0
M  V30 12040 H 1107.26 -1.43095 3.5246 0
M  V30 12041 H 1108.57 -2.07781 4.53463 0
M  V30 12042 H 1107.72 -4.40536 4.17148 0
M  V30 12043 H 1106.46 -3.79487 3.06335 0
M  V30 12044 H 1105.47 -2.43915 4.92733 0
M  V30 12045 H 1106.69 -3.07954 6.05261 0
M  V30 12046 H 1104.64 -4.73619 4.53895 0
M  V30 12047 H 1104.56 -4.30394 6.21528 0
M  V30 12048 H 1105.82 -5.35691 5.66265 0
M  V30 12049 N 1110.05 -1.5248 -0.398459 0
M  V30 12050 C 1110.99 -1.72826 -1.50545 0
M  V30 12051 C 1112 -0.608683 -1.50993 0
M  V30 12052 O 1113.19 -0.88413 -1.55066 0
M  V30 12053 C 1110.29 -1.76327 -2.89417 0
M  V30 12054 C 1109.46 -3.05491 -3.1304 0
M  V30 12055 C 1108.52 -3.00663 -4.31843 0
M  V30 12056 O 1107.55 -3.74548 -4.28605 0
M  V30 12057 N 1108.75 -2.19191 -5.37527 0
M  V30 12058 H 1111.51 -2.68333 -1.33482 0
M  V30 12059 H 1109.07 -1.5085 -0.587875 0
M  V30 12060 H 1111.07 -1.70616 -3.66977 0
M  V30 12061 H 1109.64 -0.882476 -2.99885 0
M  V30 12062 H 1108.86 -3.24767 -2.23428 0
M  V30 12063 H 1110.14 -3.90915 -3.25673 0
M  V30 12064 H 1109.54 -1.58613 -5.43009 0
M  V30 12065 H 1108.1 -2.19328 -6.1379 0
M  V30 12066 N 1111.53 0.65634 -1.43283 0
M  V30 12067 C 1112.78 1.41347 -1.44449 0
M  V30 12068 C 1113.1 1.94879 -0.0687217 0
M  V30 12069 O 1112.37 1.74235 0.895492 0
M  V30 12070 H 1110.95 0.524578 -0.531815 0
M  V30 12071 H 1113.61 0.774292 -1.7886 0
M  V30 12072 H 1112.71 2.25737 -2.15521 0
M  V30 12073 N 1113.01 1.29761 0.894412 0
M  V30 12074 C 1113.94 1.1115 2.00445 0
M  V30 12075 C 1114.95 0.0574655 1.62699 0
M  V30 12076 O 1116.14 0.302528 1.75918 0
M  V30 12077 C 1113.24 0.670984 3.32191 0
M  V30 12078 C 1112.42 1.80471 3.98433 0
M  V30 12079 C 1111.48 1.35431 5.08473 0
M  V30 12080 O 1110.5 2.05994 5.30618 0
M  V30 12081 N 1111.7 0.22811 5.80052 0
M  V30 12082 H 1114.47 2.06753 2.16964 0
M  V30 12083 H 1112.03 1.21772 1.06692 0
M  V30 12084 H 1114.02 0.352877 4.03159 0
M  V30 12085 H 1112.59 -0.192735 3.12005 0
M  V30 12086 H 1111.81 2.29142 3.20761 0
M  V30 12087 H 1113.1 2.56471 4.39431 0
M  V30 12088 H 1112.5 -0.360076 5.64553 0
M  V30 12089 H 1111.05 -0.0305985 6.51793 0
M  V30 12090 N 1114.49 -1.10549 1.12324 0
M  V30 12091 C 1115.74 -1.81851 0.872531 0
M  V30 12092 C 1116.05 -1.86058 -0.603468 0
M  V30 12093 O 1117.26 -2.53553 -0.970736 0
M  V30 12094 C 1115.71 -3.26631 1.51131 0
M  V30 12095 C 1115.32 -3.30725 3.02201 0
M  V30 12096 C 1117.06 -4.02768 1.34082 0
M  V30 12097 C 1114.97 -4.69957 3.59018 0
M  V30 12098 H 1113.9 -0.681422 0.322769 0
M  V30 12099 H 1116.55 -1.24332 1.34959 0
M  V30 12100 H 1114.93 -3.8414 0.961913 0
M  V30 12101 H 1116.11 -2.83046 3.63623 0
M  V30 12102 H 1114.42 -2.68072 3.18632 0
M  V30 12103 H 1117.02 -5.05612 1.73955 0
M  V30 12104 H 1117.36 -4.15328 0.284369 0
M  V30 12105 H 1117.9 -3.51671 1.85937 0
M  V30 12106 H 1114.63 -4.62597 4.64418 0
M  V30 12107 H 1114.15 -5.18008 3.02371 0
M  V30 12108 H 1115.83 -5.38925 3.58007 0
M  V30 12109 N 1115.97 -0.914965 -1.28321 0
M  V30 12110 C 1117.19 -0.564023 -1.99583 0
M  V30 12111 C 1117.62 0.847821 -1.6791 0
M  V30 12112 O 1116.97 1.56682 -0.912171 0
M  V30 12113 C 1117.02 -0.781368 -3.52033 0
M  V30 12114 O 1116.13 0.159072 -4.12093 0
M  V30 12115 H 1115.47 -0.218565 -0.626997 0
M  V30 12116 H 1118 -1.23074 -1.63444 0
M  V30 12117 H 1118.01 -0.691946 -4.0209 0
M  V30 12118 H 1116.68 -1.81059 -3.7442 0
M  V30 12119 H 1115.26 0.0208145 -3.72894 0
M  V30 12120 N 1117.44 1.42219 -0.679077 0
M  V30 12121 C 1118.35 2.346 -0.00345919 0
M  V30 12122 C 1119.37 1.55327 0.784181 0
M  V30 12123 O 1120.55 1.87878 0.725524 0
M  V30 12124 C 1117.61 3.33905 0.933194 0
M  V30 12125 C 1116.67 4.29073 0.139607 0
M  V30 12126 C 1115.9 5.23634 1.03165 0
M  V30 12127 O 1116.13 5.23234 2.27119 0
M  V30 12128 O 1115.06 5.99901 0.490159 0
M  V30 12129 H 1118.89 2.9392 -0.764525 0
M  V30 12130 H 1116.47 1.42794 -0.439329 0
M  V30 12131 H 1118.35 3.949 1.47077 0
M  V30 12132 H 1117.03 2.77052 1.67404 0
M  V30 12133 H 1115.94 3.71478 -0.442177 0
M  V30 12134 H 1117.27 4.88979 -0.562214 0
M  V30 12135 N 1118.92 0.422693 1.51826 0
M  V30 12136 C 1119.83 -0.40261 2.31119 0
M  V30 12137 C 1120.85 -1.04117 1.39412 0
M  V30 12138 O 1122.02 -1.03973 1.72486 0
M  V30 12139 C 1119.09 -1.49699 3.12716 0
M  V30 12140 C 1118.15 -0.880088 4.20182 0
M  V30 12141 C 1117.38 -1.92232 4.97878 0
M  V30 12142 O 1117.61 -3.14246 4.76031 0
M  V30 12143 O 1116.54 -1.521 5.82365 0
M  V30 12144 H 1120.37 0.244308 3.02716 0
M  V30 12145 H 1117.95 0.185569 1.48243 0
M  V30 12146 H 1119.83 -2.13202 3.63487 0
M  V30 12147 H 1118.51 -2.12826 2.43899 0
M  V30 12148 H 1117.41 -0.207404 3.73525 0
M  V30 12149 H 1118.75 -0.292535 4.9133 0
M  V30 12150 N 1120.4 -1.5685 0.153553 0
M  V30 12151 C 1121.63 -2.0041 -0.501949 0
M  V30 12152 C 1122.04 -1.03272 -1.58529 0
M  V30 12153 O 1121.38 -0.0227479 -1.83686 0
M  V30 12154 C 1121.44 -3.40402 -1.15613 0
M  V30 12155 C 1121.11 -4.56486 -0.216596 0
M  V30 12156 C 1122.1 -5.16894 0.558267 0
M  V30 12157 C 1119.79 -5.02162 -0.117592 0
M  V30 12158 C 1121.78 -6.21392 1.41951 0
M  V30 12159 C 1119.47 -6.06514 0.747255 0
M  V30 12160 C 1120.47 -6.65999 1.51441 0
M  V30 12161 O 1120.16 -7.6833 2.36483 0
M  V30 12162 H 1119.89 -0.66247 -0.134574 0
M  V30 12163 H 1122.44 -2.03908 0.247086 0
M  V30 12164 H 1120.67 -3.33762 -1.95294 0
M  V30 12165 H 1122.36 -3.68028 -1.71202 0
M  V30 12166 H 1123.13 -4.825 0.491851 0
M  V30 12167 H 1119.01 -4.55586 -0.704462 0
M  V30 12168 H 1122.55 -6.67751 2.01877 0
M  V30 12169 H 1118.45 -6.40335 0.81494 0
M  V30 12170 H 1119.21 -7.85578 2.29803 0
M  V30 12171 N 1121.88 0.120221 -1.57141 0
M  V30 12172 C 1122.81 1.17787 -1.95452 0
M  V30 12173 C 1123.79 1.40174 -0.824016 0
M  V30 12174 O 1124.97 1.54348 -1.08208 0
M  V30 12175 C 1122.1 2.53193 -2.24969 0
M  V30 12176 C 1121.15 2.47241 -3.47526 0
M  V30 12177 S 1121.98 1.91325 -5.00155 0
M  V30 12178 C 1123.13 3.28406 -5.32823 0
M  V30 12179 H 1123.37 0.851152 -2.84856 0
M  V30 12180 H 1120.9 0.326929 -1.50899 0
M  V30 12181 H 1122.86 3.31104 -2.42652 0
M  V30 12182 H 1121.52 2.83043 -1.36181 0
M  V30 12183 H 1120.71 3.46981 -3.65541 0
M  V30 12184 H 1120.31 1.7745 -3.29223 0
M  V30 12185 H 1122.61 4.24613 -5.2793 0
M  V30 12186 H 1123.55 3.1522 -6.34068 0
M  V30 12187 H 1123.96 3.26779 -4.603 0
M  V30 12188 N 1123.36 1.52689 0.390367 0
M  V30 12189 C 1124.29 1.73622 1.49626 0
M  V30 12190 C 1125.3 0.616682 1.50668 0
M  V30 12191 O 1126.49 0.892341 1.54595 0
M  V30 12192 C 1123.59 1.77859 2.88477 0
M  V30 12193 C 1122.76 3.07146 3.11416 0
M  V30 12194 C 1121.82 3.02949 4.30242 0
M  V30 12195 O 1120.85 3.76816 4.26613 0
M  V30 12196 N 1122.05 2.22039 5.36357 0
M  V30 12197 H 1124.82 2.69037 1.32057 0
M  V30 12198 H 1122.38 1.51159 0.579867 0
M  V30 12199 H 1124.37 1.72559 3.66067 0
M  V30 12200 H 1122.94 0.898367 2.99413 0
M  V30 12201 H 1122.16 3.25947 2.21703 0
M  V30 12202 H 1123.45 3.92637 3.23595 0
M  V30 12203 H 1122.84 1.6149 5.4216 0
M  V30 12204 H 1121.4 2.2258 6.12619 0
M  V30 12205 N 1124.83 -0.648732 1.43629 0
M  V30 12206 C 1126.06 -1.4362 1.48932 0
M  V30 12207 C 1126.48 -1.88487 0.108599 0
M  V30 12208 O 1125.83 -1.59768 -0.882066 0
M  V30 12209 C 1125.89 -2.66822 2.43903 0
M  V30 12210 O 1125.61 -2.2383 3.76606 0
M  V30 12211 C 1127.11 -3.60134 2.58493 0
M  V30 12212 H 1124.33 -0.441055 0.505679 0
M  V30 12213 H 1126.87 -0.794936 1.88417 0
M  V30 12214 H 1125.03 -3.27079 2.07601 0
M  V30 12215 H 1125.44 -3.03575 4.27718 0
M  V30 12216 H 1126.91 -4.43234 3.29011 0
M  V30 12217 H 1127.39 -4.07779 1.63134 0
M  V30 12218 H 1128 -3.05756 2.95624 0
M  V30 12219 N 1126.31 -1.30234 -0.887518 0
M  V30 12220 C 1127.56 -1.19086 -1.64153 0
M  V30 12221 C 1127.89 0.254428 -1.92526 0
M  V30 12222 O 1127.17 1.18233 -1.54438 0
M  V30 12223 C 1127.45 -2.01723 -2.98295 0
M  V30 12224 C 1127.3 -3.54458 -2.76911 0
M  V30 12225 C 1128.62 -1.85307 -3.99186 0
M  V30 12226 H 1125.74 -0.433967 -0.595686 0
M  V30 12227 H 1128.38 -1.59839 -1.0272 0
M  V30 12228 H 1126.53 -1.67096 -3.5073 0
M  V30 12229 H 1128.2 -3.99131 -2.31284 0
M  V30 12230 H 1126.45 -3.78768 -2.11464 0
M  V30 12231 H 1127.12 -4.07565 -3.72283 0
M  V30 12232 H 1129.59 -2.15575 -3.55903 0
M  V30 12233 H 1128.47 -2.45456 -4.90961 0
M  V30 12234 H 1128.73 -0.811528 -4.34588 0
M  V30 12235 N 1127.79 1.09952 -1.12909 0
M  V30 12236 C 1128.72 2.18477 -0.824014 0
M  V30 12237 C 1129.7 1.68744 0.214324 0
M  V30 12238 O 1130.89 1.94057 0.0744281 0
M  V30 12239 C 1128.02 3.46143 -0.283308 0
M  V30 12240 C 1126.97 4.09178 -1.25528 0
M  V30 12241 C 1126.3 5.31604 -0.574574 0
M  V30 12242 C 1127.6 4.52308 -2.6118 0
M  V30 12243 H 1129.29 2.44254 -1.73148 0
M  V30 12244 H 1126.84 1.17394 -0.833952 0
M  V30 12245 H 1128.79 4.21361 -0.057583 0
M  V30 12246 H 1127.51 3.19872 0.659525 0
M  V30 12247 H 1126.17 3.35973 -1.4669 0
M  V30 12248 H 1125.82 5.01611 0.37356 0
M  V30 12249 H 1125.52 5.74732 -1.22299 0
M  V30 12250 H 1127.04 6.0955 -0.358004 0
M  V30 12251 H 1128.46 5.18776 -2.44017 0
M  V30 12252 H 1126.86 5.06302 -3.22147 0
M  V30 12253 H 1127.93 3.64977 -3.19249 0
M  V30 12254 O 1129.31 1.05328 1.22427 0
M  V30 12255 H 1130 0.730081 1.79414 0
M  V30 END ATOM
M  V30 BEGIN BOND
M  V30 END BOND
M  V30 END CTAB
M  END
$$$$
