drugbank_target|P29034 Protein S100-A2 (DB00768; DB01373; DB01593; DB09130; DB14487; DB14533; DB14548)
 OpenBabel12092120353D

  0  0  0     0  0            999 V3000
M  V30 BEGIN CTAB
M  V30 COUNTS 1536 1549 0 0 0
M  V30 BEGIN ATOM
M  V30 1 H -0.908 1.98254 -0.117106 0
M  V30 2 N 0 1.576 0 0
M  V30 3 C 0.933 2.03868 1.02534 0
M  V30 4 C 1.911 0.928543 1.3348 0
M  V30 5 O 3.095 1.19667 1.45644 0
M  V30 6 C 0.222 2.43627 2.35294 0
M  V30 7 C -0.732 3.65373 2.2001 0
M  V30 8 S 0.101 5.13292 1.52614 0
M  V30 9 C 1.257 5.56322 2.86805 0
M  V30 10 H 1.49 2.90518 0.631377 0
M  V30 11 H -0.977 1.52953 0.210867 0
M  V30 12 H 0.981 2.67203 3.11629 0
M  V30 13 H -0.358 1.57376 2.7183 0
M  V30 14 H -1.165 3.90944 3.18086 0
M  V30 15 H -1.563 3.418 1.51819 0
M  V30 16 H 0.729 5.58782 3.83104 0
M  V30 17 H 1.672 6.56266 2.65933 0
M  V30 18 H 2.08 4.83886 2.90714 0
M  V30 19 N 1.4781 -0.272755 1.55222 0
M  V30 20 C 2.4111 -1.3627 1.83046 0
M  V30 21 C 3.3891 -1.47536 0.683521 0
M  V30 22 O 4.5731 -1.64157 0.926545 0
M  V30 23 C 1.7001 -2.73908 1.99229 0
M  V30 24 C 0.7461 -2.79925 3.21783 0
M  V30 25 S 1.5791 -2.39146 4.79134 0
M  V30 26 C 2.7351 -3.78758 4.9829 0
M  V30 27 H 2.9681 -1.12464 2.75207 0
M  V30 28 H 0.5011 -0.472398 1.46996 0
M  V30 29 H 2.4591 -3.53171 2.09238 0
M  V30 30 H 1.1201 -2.94965 1.07956 0
M  V30 31 H 0.3131 -3.80946 3.29994 0
M  V30 32 H -0.0849 -2.08683 3.10367 0
M  V30 33 H 2.2071 -4.7403 4.84047 0
M  V30 34 H 3.1501 -3.75499 6.00338 0
M  V30 35 H 3.5581 -3.70072 4.26271 0
M  V30 36 N 2.9562 -1.48159 -0.537278 0
M  V30 37 C 4.1962 -1.57397 -1.30405 0
M  V30 38 C 4.5602 -0.239202 -1.90504 0
M  V30 39 O 5.7612 -0.206528 -2.68005 0
M  V30 40 C 4.0322 -2.6754 -2.36974 0
M  V30 41 S 5.5912 -2.96496 -3.23475 0
M  V30 42 H 2.4092 -0.555577 -0.443684 0
M  V30 43 H 5.0112 -1.85644 -0.612912 0
M  V30 44 H 3.7152 -3.63092 -1.91291 0
M  V30 45 H 3.2462 -2.41172 -3.10805 0
M  V30 46 H 5.2612 -2.35234 -4.36897 0
M  V30 47 N 4.4343 0.785586 -1.36625 0
M  V30 48 C 5.6593 1.57963 -1.34397 0
M  V30 49 C 6.0843 1.87964 0.071526 0
M  V30 50 O 5.4423 1.48182 1.0446 0
M  V30 51 C 5.4903 2.87511 -2.17646 0
M  V30 52 O 4.5943 3.81281 -1.57158 0
M  V30 53 H 3.9353 0.479014 -0.459828 0
M  V30 54 H 6.4653 0.973411 -1.79961 0
M  V30 55 H 6.4753 3.36745 -2.30362 0
M  V30 56 H 5.1503 2.65002 -3.20541 0
M  V30 57 H 3.7273 3.39885 -1.53403 0
M  V30 58 N 5.9124 1.20967 1.01018 0
M  V30 59 C 7.1374 1.0503 1.78839 0
M  V30 60 C 7.5624 -0.395752 1.8389 0
M  V30 61 O 6.9204 -1.28529 1.27867 0
M  V30 62 C 6.9684 1.64602 3.2084 0
M  V30 63 O 6.0724 0.887988 4.02726 0
M  V30 64 H 5.4134 0.369987 0.551367 0
M  V30 65 H 7.9434 1.60399 1.27018 0
M  V30 66 H 7.9534 1.68607 3.71532 0
M  V30 67 H 6.6284 2.69841 3.16479 0
M  V30 68 H 5.2054 0.922648 3.61305 0
M  V30 69 N 7.3905 -1.2043 1.01659 0
M  V30 70 C 8.3205 -2.25466 0.607226 0
M  V30 71 C 9.3015 -1.65853 -0.377716 0
M  V30 72 O 10.4865 -1.92409 -0.263149 0
M  V30 73 C 7.6165 -3.47256 -0.0552949 0
M  V30 74 C 6.5705 -4.19462 0.850632 0
M  V30 75 C 5.8965 -5.34673 0.0538859 0
M  V30 76 C 7.1965 -4.75603 2.15868 0
M  V30 77 H 8.8905 -2.59962 1.48526 0
M  V30 78 H 6.4365 -1.2496 0.715605 0
M  V30 79 H 8.3895 -4.19917 -0.353233 0
M  V30 80 H 7.1135 -3.11924 -0.968045 0
M  V30 81 H 5.7725 -3.48667 1.13257 0
M  V30 82 H 5.4205 -4.95585 -0.860514 0
M  V30 83 H 5.1205 -5.83913 0.657192 0
M  V30 84 H 6.6445 -6.10138 -0.237598 0
M  V30 85 H 8.0585 -5.40083 1.92311 0
M  V30 86 H 6.4555 -5.3528 2.71284 0
M  V30 87 H 7.5255 -3.94346 2.82169 0
M  V30 88 N 8.8686 -0.792821 -1.36206 0
M  V30 89 C 9.7786 -0.194808 -2.3379 0
M  V30 90 C 10.7946 0.654869 -1.61206 0
M  V30 91 O 11.9706 0.569856 -1.9317 0
M  V30 92 C 9.0356 0.657721 -3.40404 0
M  V30 93 C 8.0966 -0.210849 -4.28782 0
M  V30 94 C 7.3296 0.601086 -5.30304 0
M  V30 95 O 7.5526 1.83682 -5.40016 0
M  V30 96 O 6.4866 -0.000808277 -6.019 0
M  V30 97 H 10.3126 -1.00172 -2.86704 0
M  V30 98 H 7.8976 -0.554341 -1.38735 0
M  V30 99 H 9.7796 1.14375 -4.05581 0
M  V30 100 H 8.4546 1.44247 -2.89784 0
M  V30 101 H 7.3616 -0.743714 -3.66633 0
M  V30 102 H 8.6946 -0.959195 -4.82763 0
M  V30 103 N 10.3467 1.47872 -0.545128 0
M  V30 104 C 11.2787 2.27869 0.246621 0
M  V30 105 C 12.2917 1.36282 0.890561 0
M  V30 106 O 13.4807 1.61207 0.766449 0
M  V30 107 C 10.5807 3.10159 1.36582 0
M  V30 108 C 9.7537 4.29627 0.820954 0
M  V30 109 C 8.8127 4.93607 1.82314 0
M  V30 110 O 7.8387 5.52366 1.37406 0
M  V30 111 N 9.0407 4.87211 3.15603 0
M  V30 112 H 11.8057 2.96459 -0.439539 0
M  V30 113 H 9.3667 1.57367 -0.380421 0
M  V30 114 H 11.3587 3.49829 2.03474 0
M  V30 115 H 9.9287 2.43891 1.9554 0
M  V30 116 H 9.1487 3.94192 -0.0244032 0
M  V30 117 H 10.4367 5.06928 0.436063 0
M  V30 118 H 9.8347 4.40651 3.54744 0
M  V30 119 H 8.3917 5.30937 3.78087 0
M  V30 120 N 11.8248 0.280983 1.55075 0
M  V30 121 C 12.7878 -0.590896 2.21452 0
M  V30 122 C 13.7878 -1.07682 1.19421 0
M  V30 123 O 14.9778 -0.97605 1.44288 0
M  V30 124 C 12.1098 -1.81587 2.88511 0
M  V30 125 H 13.3028 -0.0112554 2.99898 0
M  V30 126 H 10.8558 0.0316438 1.56268 0
M  V30 127 H 11.5908 -2.43587 2.14093 0
M  V30 128 H 11.3758 -1.4753 3.63287 0
M  V30 129 H 12.8658 -2.43575 3.39206 0
M  V30 130 N 13.3029 -1.57598 0.00835791 0
M  V30 131 C 14.2329 -2.1198 -0.979113 0
M  V30 132 C 15.2139 -1.03091 -1.35301 0
M  V30 133 O 16.3989 -1.30818 -1.43528 0
M  V30 134 C 13.5289 -2.62995 -2.26828 0
M  V30 135 C 12.4829 -3.76485 -2.03576 0
M  V30 136 C 11.8089 -4.13846 -3.38579 0
M  V30 137 C 13.1089 -5.0342 -1.39161 0
M  V30 138 H 14.8029 -2.94738 -0.526281 0
M  V30 139 H 12.3489 -1.41783 -0.251704 0
M  V30 140 H 14.3019 -2.99669 -2.96271 0
M  V30 141 H 13.0259 -1.7737 -2.7424 0
M  V30 142 H 11.6849 -3.40217 -1.36557 0
M  V30 143 H 11.3329 -3.25232 -3.83709 0
M  V30 144 H 11.0329 -4.90312 -3.23834 0
M  V30 145 H 12.5569 -4.53086 -4.09323 0
M  V30 146 H 13.9709 -5.37812 -1.98573 0
M  V30 147 H 12.3679 -5.84746 -1.34878 0
M  V30 148 H 13.4379 -4.83548 -0.361868 0
M  V30 149 N 14.781 0.264519 -1.55364 0
M  V30 150 C 15.744 1.31046 -1.88042 0
M  V30 151 C 16.744 1.41943 -0.755569 0
M  V30 152 O 17.934 1.40947 -1.02369 0
M  V30 153 C 15.066 2.69067 -2.09323 0
M  V30 154 H 16.259 1.03297 -2.81549 0
M  V30 155 H 13.812 0.502989 -1.47986 0
M  V30 156 H 14.547 3.01982 -1.18226 0
M  V30 157 H 14.332 2.62542 -2.91229 0
M  V30 158 H 15.822 3.44623 -2.35848 0
M  V30 159 N 16.2591 1.48442 0.529413 0
M  V30 160 C 17.5051 1.5672 1.28711 0
M  V30 161 C 17.8381 0.2406 1.92704 0
M  V30 162 O 17.1131 -0.753454 1.79313 0
M  V30 163 C 17.3961 2.70587 2.37603 0
M  V30 164 C 17.2491 4.12953 1.78297 0
M  V30 165 C 18.5681 2.80212 3.39366 0
M  V30 166 H 15.6871 0.570474 0.466613 0
M  V30 167 H 18.3291 1.80617 0.589706 0
M  V30 168 H 16.4791 2.50342 2.97088 0
M  V30 169 H 18.1511 4.44639 1.22858 0
M  V30 170 H 16.3941 4.19927 1.0883 0
M  V30 171 H 17.0651 4.88448 2.57144 0
M  V30 172 H 19.5411 2.98553 2.89836 0
M  V30 173 H 18.4171 3.61611 4.12951 0
M  V30 174 H 18.6781 1.88393 3.99951 0
M  V30 175 N 17.7372 -0.778329 1.37039 0
M  V30 176 C 18.6672 -1.90546 1.34962 0
M  V30 177 C 19.6482 -1.68681 0.219274 0
M  V30 178 O 20.8332 -1.89634 0.418624 0
M  V30 179 C 17.9632 -3.27734 1.14925 0
M  V30 180 C 16.9172 -3.64147 2.24902 0
M  V30 181 C 16.2432 -4.99806 1.89996 0
M  V30 182 C 17.5432 -3.71579 3.67051 0
M  V30 183 H 19.2372 -1.92541 2.29277 0
M  V30 184 H 16.7832 -0.924948 1.10366 0
M  V30 185 H 18.7362 -4.06215 1.12104 0
M  V30 186 H 17.4602 -3.26154 0.170631 0
M  V30 187 H 16.1192 -2.8797 2.26868 0
M  V30 188 H 15.7672 -4.94759 0.906796 0
M  V30 189 H 15.4672 -5.25139 2.63634 0
M  V30 190 H 16.9912 -5.80694 1.88749 0
M  V30 191 H 18.4052 -4.40227 3.67251 0
M  V30 192 H 16.8022 -4.08405 4.39688 0
M  V30 193 H 17.8722 -2.72404 4.01154 0
M  V30 194 N 19.2153 -1.21501 -1.00376 0
M  V30 195 C 20.4613 -1.03452 -1.74429 0
M  V30 196 C 20.7943 0.430764 -1.89362 0
M  V30 197 O 20.0693 1.31962 -1.42886 0
M  V30 198 C 20.3523 -1.73375 -3.15615 0
M  V30 199 C 20.2053 -3.27431 -3.08397 0
M  V30 200 C 21.5243 -1.47732 -4.14564 0
M  V30 201 H 18.6433 -0.377226 -0.633143 0
M  V30 202 H 21.2853 -1.49693 -1.17013 0
M  V30 203 H 19.4353 -1.34064 -3.64636 0
M  V30 204 H 21.1073 -3.76119 -2.67081 0
M  V30 205 H 19.3503 -3.5767 -2.45468 0
M  V30 206 H 20.0213 -3.71524 -4.08258 0
M  V30 207 H 22.4973 -1.8186 -3.74254 0
M  V30 208 H 21.3733 -1.99169 -5.11491 0
M  V30 209 H 21.6343 -0.407589 -4.40217 0
M  V30 210 N 20.6934 1.19889 -1.02296 0
M  V30 211 C 21.9214 1.9339 -0.735399 0
M  V30 212 C 22.3364 1.75148 0.704887 0
M  V30 213 O 21.6934 1.06954 1.47875 0
M  V30 214 C 21.7444 3.45313 -1.06962 0
M  V30 215 O 21.4654 3.62964 -2.45334 0
M  V30 216 C 22.9664 4.35948 -0.804021 0
M  V30 217 H 20.1864 0.61448 -0.269546 0
M  V30 218 H 22.7304 1.522 -1.36585 0
M  V30 219 H 20.8854 3.84359 -0.484455 0
M  V30 220 H 21.2994 4.56886 -2.57595 0
M  V30 221 H 22.7734 5.41174 -1.0879 0
M  V30 222 H 23.2504 4.3842 0.261691 0
M  V30 223 H 23.8564 4.02574 -1.37164 0
M  V30 224 N 22.1715 0.800033 1.35784 0
M  V30 225 C 23.3995 0.389606 2.03199 0
M  V30 226 C 23.8145 -0.997375 1.60306 0
M  V30 227 O 23.1715 -1.64154 0.797481 0
M  V30 228 C 23.2225 0.455855 3.58614 0
M  V30 229 O 22.9435 1.78815 3.99946 0
M  V30 230 C 24.4445 0.0374032 4.43284 0
M  V30 231 H 21.6645 0.159132 0.651857 0
M  V30 232 H 24.2085 1.08183 1.73541 0
M  V30 233 H 22.3635 -0.188057 3.86943 0
M  V30 234 H 22.7775 1.74636 4.94573 0
M  V30 235 H 24.2515 0.134882 5.51835 0
M  V30 236 H 24.7285 -1.01651 4.27275 0
M  V30 237 H 25.3345 0.654215 4.20238 0
M  V30 238 N 23.6496 -1.47581 0.552962 0
M  V30 239 C 24.8966 -2.02482 0.0273243 0
M  V30 240 C 25.2246 -1.42776 -1.32081 0
M  V30 241 O 24.4796 -0.571393 -1.87173 0
M  V30 242 C 24.7786 -3.57199 -0.119728 0
M  V30 243 C 24.4446 -4.35804 1.15697 0
M  V30 244 C 23.1066 -4.57 1.50681 0
M  V30 245 C 25.4586 -4.81167 2.00319 0
M  V30 246 C 22.7866 -5.20807 2.70142 0
M  V30 247 C 25.1386 -5.46293 3.18978 0
M  V30 248 C 23.8026 -5.65722 3.54281 0
M  V30 249 H 23.0726 -0.740933 0.00999866 0
M  V30 250 H 25.7196 -1.77302 0.72362 0
M  V30 251 H 24.0246 -3.81348 -0.89896 0
M  V30 252 H 25.7216 -3.97324 -0.541718 0
M  V30 253 H 22.3116 -4.19582 0.874561 0
M  V30 254 H 26.4956 -4.64574 1.74599 0
M  V30 255 H 21.7516 -5.34045 2.97668 0
M  V30 256 H 25.9256 -5.80407 3.84838 0
M  V30 257 H 23.5526 -6.14936 4.46942 0
M  V30 258 N 25.1277 -0.289203 -1.54924 0
M  V30 259 C 26.0777 0.606939 -2.19773 0
M  V30 260 C 27.0617 1.10783 -1.16687 0
M  V30 261 O 28.2537 1.05057 -1.4245 0
M  V30 262 C 25.3827 1.78398 -2.93307 0
M  V30 263 C 24.4687 1.29961 -4.03697 0
M  V30 264 N 24.8597 0.532377 -5.0299 0
M  V30 265 C 23.1577 1.58136 -4.17024 0
M  V30 266 C 23.8587 0.275912 -5.81045 0
M  V30 267 N 22.8347 0.852365 -5.36876 0
M  V30 268 H 26.6367 0.0130779 -2.93897 0
M  V30 269 H 24.1507 -0.09341 -1.62131 0
M  V30 270 H 26.1477 2.43741 -3.38225 0
M  V30 271 H 24.8077 2.38166 -2.20697 0
M  V30 272 H 25.8187 0.17838 -5.17593 0
M  V30 273 H 22.4957 2.18738 -3.55612 0
M  V30 274 H 23.8857 -0.339502 -6.71042 0
M  V30 275 N 26.6058 1.57591 -0.0167156 0
M  V30 276 C 27.5528 2.09462 0.969251 0
M  V30 277 C 28.5228 0.99381 1.33089 0
M  V30 278 O 29.7078 1.26726 1.42636 0
M  V30 279 C 26.8478 2.61622 2.25051 0
M  V30 280 C 25.9608 3.85666 1.94642 0
M  V30 281 C 25.0958 4.26266 3.16972 0
M  V30 282 C 24.1348 5.43101 2.82326 0
M  V30 283 N 23.2718 5.78915 3.97243 0
M  V30 284 H 28.1118 2.93428 0.519997 0
M  V30 285 H 25.6488 1.45044 0.245087 0
M  V30 286 H 27.6068 2.89949 2.99976 0
M  V30 287 H 26.2368 1.80505 2.67615 0
M  V30 288 H 25.2888 3.64145 1.10013 0
M  V30 289 H 26.6008 4.70678 1.65117 0
M  V30 290 H 25.7548 4.55963 4.00228 0
M  V30 291 H 24.4938 3.39996 3.49648 0
M  V30 292 H 23.4988 5.1311 1.97479 0
M  V30 293 H 24.7238 6.3106 2.50879 0
M  V30 294 H 22.6698 4.95602 4.29785 0
M  V30 295 H 22.5868 6.58539 3.71299 0
M  V30 296 H 23.8548 6.13212 4.81239 0
M  V30 297 N 28.0839 -0.256276 1.55502 0
M  V30 298 C 29.3139 -1.00196 1.80677 0
M  V30 299 C 29.7219 -1.79805 0.588797 0
M  V30 300 O 29.0649 -1.78055 -0.451883 0
M  V30 301 C 29.1269 -1.99515 2.99055 0
M  V30 302 C 28.7909 -1.38688 4.35448 0
M  V30 303 C 29.7879 -0.794079 5.138 0
M  V30 304 C 27.4729 -1.40906 4.82132 0
M  V30 305 C 29.4669 -0.231562 6.36979 0
M  V30 306 C 27.1539 -0.842684 6.05262 0
M  V30 307 C 28.1519 -0.254953 6.82524 0
M  V30 308 O 27.8399 0.3027 8.0333 0
M  V30 309 H 27.5719 -0.300919 0.60533 0
M  V30 310 H 30.1259 -0.287307 2.03381 0
M  V30 311 H 28.3559 -2.74785 2.72084 0
M  V30 312 H 30.0449 -2.60349 3.11405 0
M  V30 313 H 30.8109 -0.769519 4.78856 0
M  V30 314 H 26.6899 -1.85591 4.21992 0
M  V30 315 H 30.2339 0.227816 6.97228 0
M  V30 316 H 26.1309 -0.86454 6.39684 0
M  V30 317 H 26.8989 0.193662 8.18271 0
M  V30 318 N 29.562 -1.4872 -0.521534 0
M  V30 319 C 30.787 -1.61101 -1.30618 0
M  V30 320 C 31.212 -0.274611 -1.86085 0
M  V30 321 O 30.57 0.754937 -1.64834 0
M  V30 322 C 30.618 -2.66709 -2.4269 0
M  V30 323 O 29.722 -2.24456 -3.45967 0
M  V30 324 H 29.063 -0.539921 -0.386499 0
M  V30 325 H 31.593 -1.94767 -0.626645 0
M  V30 326 H 31.603 -2.88245 -2.88754 0
M  V30 327 H 30.278 -3.63727 -2.01682 0
M  V30 328 H 28.855 -2.13168 -3.05964 0
M  V30 329 N 31.0401 0.771051 -1.3745 0
M  V30 330 C 32.2801 1.54264 -1.34096 0
M  V30 331 C 32.6441 1.91858 0.0737639 0
M  V30 332 O 33.8451 2.67797 0.23203 0
M  V30 333 C 32.1161 2.77326 -2.25445 0
M  V30 334 S 33.6751 3.67383 -2.39948 0
M  V30 335 H 30.4931 0.528122 -0.476034 0
M  V30 336 H 33.0951 0.906633 -1.73206 0
M  V30 337 H 31.7991 2.47788 -3.27153 0
M  V30 338 H 31.3301 3.45886 -1.87421 0
M  V30 339 H 33.3451 4.69334 -1.61059 0
M  V30 340 N 32.5182 1.22032 0.997298 0
M  V30 341 C 33.4502 0.944263 2.08845 0
M  V30 342 C 34.4632 -0.0754663 1.62625 0
M  V30 343 O 35.6522 0.157994 1.77799 0
M  V30 344 C 32.7522 0.397723 3.36558 0
M  V30 345 C 31.9252 1.47362 4.11829 0
M  V30 346 C 30.9842 0.934951 5.17827 0
M  V30 347 O 30.0102 1.62016 5.45655 0
M  V30 348 N 31.2122 -0.245895 5.79979 0
M  V30 349 H 33.9772 1.88363 2.33109 0
M  V30 350 H 31.5382 1.12661 1.16272 0
M  V30 351 H 33.5302 0.0227771 4.04694 0
M  V30 352 H 32.1002 -0.446646 3.09393 0
M  V30 353 H 31.3202 2.02208 3.38386 0
M  V30 354 H 32.6082 2.19764 4.58891 0
M  V30 355 H 32.0062 -0.819475 5.59733 0
M  V30 356 H 30.5632 -0.562272 6.4937 0
M  V30 357 N 33.9963 -1.19345 1.0293 0
M  V30 358 C 34.9063 -2.26245 0.620515 0
M  V30 359 C 35.9223 -1.70486 -0.347928 0
M  V30 360 O 37.0983 -2.00347 -0.205704 0
M  V30 361 C 34.1633 -3.46693 -0.0218957 0
M  V30 362 C 33.2243 -4.17632 0.994102 0
M  V30 363 C 32.4573 -5.32329 0.382253 0
M  V30 364 O 32.6803 -5.64552 -0.814676 0
M  V30 365 O 31.6143 -5.91664 1.10531 0
M  V30 366 H 35.4403 -2.63453 1.51083 0
M  V30 367 H 33.0253 -1.26207 0.799513 0
M  V30 368 H 34.9073 -4.19683 -0.380072 0
M  V30 369 H 33.5823 -3.11333 -0.886209 0
M  V30 370 H 32.4893 -3.4676 1.40387 0
M  V30 371 H 33.8223 -4.56964 1.8288 0
M  V30 372 N 35.4744 -0.807222 -1.35358 0
M  V30 373 C 36.7224 -0.387122 -1.98358 0
M  V30 374 C 37.0434 1.04942 -1.64354 0
M  V30 375 O 36.3134 1.72615 -0.926339 0
M  V30 376 H 34.8934 -0.140154 -0.733734 0
M  V30 377 H 37.5554 -1.0332 -1.6526 0
M  V30 378 H 36.6514 -0.493352 -3.08176 0
M  V30 379 N 36.9525 1.47285 -0.560781 0
M  V30 380 C 38.2295 1.9558 0.0277798 0
M  V30 381 C 38.6095 1.5034 1.48192 0
M  V30 382 O 37.9575 0.743882 2.16052 0
M  V30 383 C 38.1675 3.48789 -0.121418 0
M  V30 384 C 39.5155 4.24594 0.0220912 0
M  V30 385 O 40.5395 3.56166 -0.0491439 0
M  V30 386 O 39.3985 5.46217 0.175958 0
M  V30 387 H 36.4925 0.824663 0.0621342 0
M  V30 388 H 39.0385 1.5767 -0.627556 0
M  V30 389 H 37.8105 3.74533 -1.13316 0
M  V30 390 H 37.4335 3.93473 0.571366 0
M  V30 391 N 38.4306 0.297415 1.54768 0
M  V30 392 C 39.3776 -0.580276 2.23386 0
M  V30 393 C 40.3476 -1.13238 1.21517 0
M  V30 394 O 41.5326 -1.17757 1.50126 0
M  V30 395 C 38.6726 -1.74801 2.97555 0
M  V30 396 C 37.7856 -1.22764 4.1419 0
M  V30 397 C 36.9206 -2.35895 4.75949 0
M  V30 398 C 35.9596 -1.80974 5.84735 0
M  V30 399 N 35.0966 -2.87664 6.40464 0
M  V30 400 H 39.9366 0.0114833 2.97998 0
M  V30 401 H 37.4736 0.0174361 1.4709 0
M  V30 402 H 39.4316 -2.43475 3.38786 0
M  V30 403 H 38.0616 -2.31145 2.25326 0
M  V30 404 H 37.1136 -0.433271 3.77924 0
M  V30 405 H 38.4256 -0.785551 4.92575 0
M  V30 406 H 37.5796 -3.12523 5.20014 0
M  V30 407 H 36.3186 -2.83429 3.96887 0
M  V30 408 H 35.3236 -1.02834 5.40097 0
M  V30 409 H 36.5486 -1.34348 6.65678 0
M  V30 410 H 34.4946 -3.34538 5.64287 0
M  V30 411 H 34.4116 -2.4794 7.14186 0
M  V30 412 H 35.6796 -3.642 6.89187 0
M  V30 413 N 39.9087 -1.5758 0.0250728 0
M  V30 414 C 41.1557 -1.91633 -0.654444 0
M  V30 415 C 41.4837 -0.901103 -1.72367 0
M  V30 416 O 40.7387 0.0905647 -1.9549 0
M  V30 417 C 41.0377 -3.32421 -1.31268 0
M  V30 418 C 40.7037 -4.49344 -0.374223 0
M  V30 419 C 39.3657 -4.8106 -0.115911 0
M  V30 420 C 41.7177 -5.20498 0.270432 0
M  V30 421 C 39.0457 -5.8129 0.79493 0
M  V30 422 C 41.3977 -6.21699 1.1693 0
M  V30 423 C 40.0617 -6.51859 1.43655 0
M  V30 424 H 39.3317 -0.701236 -0.239478 0
M  V30 425 H 41.9787 -1.91307 0.0859734 0
M  V30 426 H 40.2837 -3.28989 -2.12775 0
M  V30 427 H 41.9807 -3.56038 -1.84494 0
M  V30 428 H 38.5707 -4.24579 -0.58573 0
M  V30 429 H 42.7547 -4.96229 0.0839194 0
M  V30 430 H 38.0107 -6.03005 1.00973 0
M  V30 431 H 42.1847 -6.75955 1.67504 0
M  V30 432 H 39.8117 -7.2934 2.144 0
M  V30 433 N 41.3868 0.248026 -1.55636 0
M  V30 434 C 42.3338 1.30707 -1.90222 0
M  V30 435 C 43.3038 1.47881 -0.756332 0
M  V30 436 O 44.4888 1.61883 -1.00988 0
M  V30 437 C 41.6288 2.65769 -2.20138 0
M  V30 438 C 40.7418 2.56612 -3.47526 0
M  V30 439 C 39.8768 3.8402 -3.67017 0
M  V30 440 C 38.9158 3.69476 -4.8801 0
M  V30 441 N 38.0528 4.88774 -5.04029 0
M  V30 442 H 42.8928 1.00512 -2.80538 0
M  V30 443 H 40.4298 0.485055 -1.38873 0
M  V30 444 H 42.3878 3.44386 -2.35487 0
M  V30 445 H 41.0178 2.94115 -1.33027 0
M  V30 446 H 40.0698 1.69571 -3.40514 0
M  V30 447 H 41.3818 2.41774 -4.36287 0
M  V30 448 H 40.5358 4.7108 -3.8232 0
M  V30 449 H 39.2748 4.01754 -2.76487 0
M  V30 450 H 38.2798 2.80799 -4.72686 0
M  V30 451 H 39.5048 3.53238 -5.8 0
M  V30 452 H 37.4508 5.0687 -4.16435 0
M  V30 453 H 37.3678 4.76562 -5.86877 0
M  V30 454 H 38.6358 5.77335 -5.23741 0
M  V30 455 N 42.8649 1.48995 0.513639 0
M  V30 456 C 43.7949 1.67636 1.62544 0
M  V30 457 C 44.7759 0.525087 1.61793 0
M  V30 458 O 45.9609 0.759502 1.78732 0
M  V30 459 C 43.0909 1.73114 3.01079 0
M  V30 460 C 42.0449 2.87905 3.16693 0
M  V30 461 C 41.3709 2.78486 4.56453 0
M  V30 462 C 42.6709 4.29005 2.97913 0
M  V30 463 H 44.3649 2.60716 1.47198 0
M  V30 464 H 41.9109 1.25465 0.706714 0
M  V30 465 H 43.8639 1.84742 3.78746 0
M  V30 466 H 42.5879 0.766241 3.17484 0
M  V30 467 H 41.2469 2.75859 2.41448 0
M  V30 468 H 40.8949 1.7993 4.69717 0
M  V30 469 H 40.5949 3.55523 4.67843 0
M  V30 470 H 42.1189 2.92104 5.36197 0
M  V30 471 H 43.5329 4.41798 3.65359 0
M  V30 472 H 41.9299 5.07166 3.20785 0
M  V30 473 H 42.9999 4.44329 1.94165 0
M  V30 474 N 44.343 -0.763751 1.37857 0
M  V30 475 C 45.568 -1.55805 1.36893 0
M  V30 476 C 45.993 -1.88054 -0.0416135 0
M  V30 477 O 45.351 -1.49825 -1.02089 0
M  V30 478 C 45.399 -2.84012 2.22192 0
M  V30 479 O 44.503 -3.78732 1.63204 0
M  V30 480 H 43.844 -0.471638 0.46739 0
M  V30 481 H 46.374 -0.944657 1.81487 0
M  V30 482 H 46.384 -3.33037 2.35691 0
M  V30 483 H 45.059 -2.59869 3.24716 0
M  V30 484 H 43.636 -3.37402 1.58791 0
M  V30 485 N 45.8211 -1.22559 -0.990812 0
M  V30 486 C 46.7681 -0.997519 -2.0813 0
M  V30 487 C 47.7381 0.0814702 -1.659 0
M  V30 488 O 48.9231 -0.0685424 -1.90677 0
M  V30 489 C 46.0631 -0.583615 -3.40129 0
M  V30 490 C 45.1761 -1.7336 -3.9569 0
M  V30 491 C 44.3111 -1.26748 -5.15857 0
M  V30 492 C 43.3501 -2.38888 -5.63559 0
M  V30 493 N 42.4871 -1.93308 -6.74964 0
M  V30 494 H 47.3271 -1.93099 -2.26973 0
M  V30 495 H 44.8641 -0.962114 -1.11273 0
M  V30 496 H 46.8221 -0.324801 -4.15934 0
M  V30 497 H 45.4521 0.312845 -3.2128 0
M  V30 498 H 44.5041 -2.10669 -3.16738 0
M  V30 499 H 45.8161 -2.57704 -4.27071 0
M  V30 500 H 44.9701 -0.966173 -5.98957 0
M  V30 501 H 43.7091 -0.394272 -4.86104 0
M  V30 502 H 42.7141 -2.69805 -4.79046 0
M  V30 503 H 43.9391 -3.26728 -5.95336 0
M  V30 504 H 41.8851 -1.08352 -6.4699 0
M  V30 505 H 41.8021 -2.71217 -7.05675 0
M  V30 506 H 43.0701 -1.66252 -7.61564 0
M  V30 507 N 47.2992 1.18797 -1.03562 0
M  V30 508 C 48.5472 1.88278 -0.734569 0
M  V30 509 C 48.8682 1.8043 0.739586 0
M  V30 510 O 48.1382 1.21925 1.53333 0
M  V30 511 H 46.7182 0.696991 -0.268725 0
M  V30 512 H 49.3802 1.44192 -1.31129 0
M  V30 513 H 48.4762 2.94443 -1.03489 0
M  V30 514 N 48.7773 0.814389 1.34928 0
M  V30 515 C 49.6873 0.231978 2.3345 0
M  V30 516 C 50.7033 -0.629139 1.62228 0
M  V30 517 O 51.8793 -0.539052 1.94052 0
M  V30 518 C 48.9443 -0.603482 3.41407 0
M  V30 519 C 48.0053 0.279037 4.28392 0
M  V30 520 C 47.2383 -0.516643 5.31193 0
M  V30 521 O 47.4613 -1.75068 5.4287 0
M  V30 522 O 46.3953 0.0965652 6.01823 0
M  V30 523 H 50.2213 1.04721 2.85074 0
M  V30 524 H 47.8063 0.576343 1.37836 0
M  V30 525 H 49.6883 -1.07908 4.0735 0
M  V30 526 H 48.3633 -1.39618 2.92042 0
M  V30 527 H 47.2703 0.801948 3.65403 0
M  V30 528 H 48.6033 1.03588 4.81176 0
M  V30 529 N 50.2554 -1.46986 0.568584 0
M  V30 530 C 51.1884 -2.27129 -0.220779 0
M  V30 531 C 52.1664 -1.34757 -0.909905 0
M  V30 532 O 53.3504 -1.64152 -0.926622 0
M  V30 533 C 50.4774 -3.12108 -1.31553 0
M  V30 534 C 49.5234 -4.20141 -0.733748 0
M  V30 535 S 50.3564 -5.33783 0.428479 0
M  V30 536 C 51.5124 -6.22327 -0.667811 0
M  V30 537 H 51.7454 -2.93731 0.459267 0
M  V30 538 H 49.2784 -1.5026 0.355154 0
M  V30 539 H 51.2364 -3.61636 -1.94241 0
M  V30 540 H 49.8974 -2.44847 -1.96746 0
M  V30 541 H 49.0904 -4.79373 -1.5562 0
M  V30 542 H 48.6924 -3.73553 -0.182812 0
M  V30 543 H 50.9844 -6.59364 -1.55708 0
M  V30 544 H 51.9274 -7.0801 -0.11258 0
M  V30 545 H 52.3354 -5.5618 -0.965601 0
M  V30 546 N 51.7335 -0.305618 -1.54608 0
M  V30 547 C 52.6805 0.568421 -2.23691 0
M  V30 548 C 53.6505 1.12592 -1.22116 0
M  V30 549 O 54.8355 1.16959 -1.50749 0
M  V30 550 C 51.9755 1.7322 -2.98477 0
M  V30 551 C 51.0885 1.20566 -4.14835 0
M  V30 552 C 50.2235 2.33368 -4.77193 0
M  V30 553 C 49.2625 1.7787 -5.85686 0
M  V30 554 N 48.3995 2.84263 -6.4198 0
M  V30 555 H 53.2395 -0.0272867 -2.97988 0
M  V30 556 H 50.7765 -0.0252363 -1.47078 0
M  V30 557 H 52.7345 2.41675 -3.40072 0
M  V30 558 H 51.3645 2.29947 -2.26548 0
M  V30 559 H 50.4165 0.413223 -3.78149 0
M  V30 560 H 51.7285 0.759417 -4.92985 0
M  V30 561 H 50.8825 3.09761 -5.21664 0
M  V30 562 H 49.6215 2.8132 -3.98385 0
M  V30 563 H 48.6265 0.99968 -5.40635 0
M  V30 564 H 49.8515 1.30816 -6.66381 0
M  V30 565 H 47.7975 3.31541 -5.66053 0
M  V30 566 H 47.7145 2.44149 -7.15491 0
M  V30 567 H 48.9825 3.6054 -6.91109 0
M  V30 568 N 53.2116 1.57565 -0.0334293 0
M  V30 569 C 54.1216 2.13943 0.962572 0
M  V30 570 C 55.1376 1.09276 1.35406 0
M  V30 571 O 56.3136 1.41355 1.4346 0
M  V30 572 C 53.3786 2.65887 2.22497 0
M  V30 573 C 52.4396 3.85286 1.8935 0
M  V30 574 C 51.6726 4.34743 3.09571 0
M  V30 575 O 51.8956 3.83352 4.22371 0
M  V30 576 O 50.8296 5.26538 2.91618 0
M  V30 577 H 54.6556 2.99333 0.513169 0
M  V30 578 H 52.2406 1.4822 0.18743 0
M  V30 579 H 54.1226 2.99346 2.96598 0
M  V30 580 H 52.7976 1.83578 2.6661 0
M  V30 581 H 51.7046 3.56746 1.1262 0
M  V30 582 H 53.0376 4.68771 1.5005 0
M  V30 583 N 54.6897 -0.239769 1.55765 0
M  V30 584 C 55.6197 -1.30052 1.9393 0
M  V30 585 C 56.6007 -1.49839 0.805132 0
M  V30 586 O 57.7857 -1.62328 1.06599 0
M  V30 587 C 54.9157 -2.65391 2.2402 0
M  V30 588 C 53.8697 -2.60289 3.39755 0
M  V30 589 C 53.1957 -3.99489 3.55405 0
M  V30 590 C 54.4957 -2.16654 4.75246 0
M  V30 591 H 56.1897 -0.983573 2.82783 0
M  V30 592 H 53.7357 -0.471701 1.36055 0
M  V30 593 H 55.6887 -3.3974 2.49308 0
M  V30 594 H 54.4127 -2.98736 1.32 0
M  V30 595 H 53.0717 -1.88398 3.14487 0
M  V30 596 H 52.7197 -4.30112 2.60793 0
M  V30 597 H 52.4197 -3.96962 4.33238 0
M  V30 598 H 53.9437 -4.75528 3.83022 0
M  V30 599 H 55.3577 -2.80737 4.99859 0
M  V30 600 H 53.7547 -2.25223 5.56232 0
M  V30 601 H 54.8247 -1.11835 4.71827 0
M  V30 602 N 56.1678 -1.49265 -0.50573 0
M  V30 603 C 57.0978 -1.68495 -1.61653 0
M  V30 604 C 58.0788 -0.53366 -1.61512 0
M  V30 605 O 59.2638 -0.76897 -1.78327 0
M  V30 606 C 56.3938 -1.74709 -3.00157 0
M  V30 607 C 55.3478 -2.89581 -3.15162 0
M  V30 608 C 54.6738 -2.80903 -4.5497 0
M  V30 609 C 55.9738 -4.30578 -2.95634 0
M  V30 610 H 57.6678 -2.61493 -1.45814 0
M  V30 611 H 55.2138 -1.25838 -0.70005 0
M  V30 612 H 57.1668 -1.86748 -3.77761 0
M  V30 613 H 55.8908 -0.783067 -3.17074 0
M  V30 614 H 54.5498 -2.77136 -2.39982 0
M  V30 615 H 54.1978 -1.82419 -4.68756 0
M  V30 616 H 53.8978 -3.57999 -4.65951 0
M  V30 617 H 55.4218 -2.94944 -5.34641 0
M  V30 618 H 56.8358 -4.4373 -3.63011 0
M  V30 619 H 55.2328 -5.0886 -3.18091 0
M  V30 620 H 56.3028 -4.45352 -1.91806 0
M  V30 621 N 57.6459 0.756429 -1.3826 0
M  V30 622 C 58.5959 1.86069 -1.31766 0
M  V30 623 C 59.5799 1.59621 -0.202483 0
M  V30 624 O 60.7719 1.7149 -0.438211 0
M  V30 625 C 57.9009 3.23742 -1.1422 0
M  V30 626 C 56.9869 3.56091 -2.30348 0
M  V30 627 N 57.3779 3.59517 -3.55783 0
M  V30 628 C 55.6759 3.86341 -2.22838 0
M  V30 629 C 56.3769 3.89052 -4.32451 0
M  V30 630 N 55.3529 4.05736 -3.61772 0
M  V30 631 H 59.1549 1.86992 -2.26741 0
M  V30 632 H 56.6689 0.953643 -1.31451 0
M  V30 633 H 58.6659 4.02761 -1.07652 0
M  V30 634 H 57.3259 3.24073 -0.201763 0
M  V30 635 H 58.3369 3.41347 -3.89491 0
M  V30 636 H 55.0139 3.94404 -1.36937 0
M  V30 637 H 56.4039 3.98349 -5.4108 0
M  V30 638 N 59.124 1.23083 0.984299 0
M  V30 639 C 60.071 1.00854 2.07598 0
M  V30 640 C 61.041 -0.0726709 1.65941 0
M  V30 641 O 62.226 0.0786535 1.90638 0
M  V30 642 C 59.366 0.601645 3.39815 0
M  V30 643 C 58.479 1.75456 3.94765 0
M  V30 644 C 57.614 1.29482 5.15177 0
M  V30 645 C 56.653 2.41873 5.62284 0
M  V30 646 N 55.79 1.96885 6.73929 0
M  V30 647 H 60.63 1.943 2.25946 0
M  V30 648 H 58.167 0.968001 1.10762 0
M  V30 649 H 60.125 0.346854 4.15756 0
M  V30 650 H 58.755 -0.295803 3.21442 0
M  V30 651 H 57.807 2.12346 3.15616 0
M  V30 652 H 59.119 2.59965 4.25699 0
M  V30 653 H 58.273 0.997923 5.98437 0
M  V30 654 H 57.012 0.420046 4.85888 0
M  V30 655 H 56.017 2.72342 4.77608 0
M  V30 656 H 57.242 3.29881 5.93595 0
M  V30 657 H 55.188 1.11782 6.46406 0
M  V30 658 H 55.105 2.74956 7.04227 0
M  V30 659 H 56.373 1.70289 7.60672 0
M  V30 660 N 60.6021 -1.18246 1.0419 0
M  V30 661 C 61.5121 -2.25574 0.644476 0
M  V30 662 C 62.5281 -1.70845 -0.329826 0
M  V30 663 O 63.7041 -2.00554 -0.184443 0
M  V30 664 C 60.7691 -3.46697 0.014877 0
M  V30 665 C 59.8301 -4.16554 1.03834 0
M  V30 666 C 59.0631 -5.31894 0.438692 0
M  V30 667 O 59.2861 -5.65385 -0.754752 0
M  V30 668 O 58.2201 -5.90459 1.168 0
M  V30 669 H 62.0461 -2.61836 1.53869 0
M  V30 670 H 59.6311 -1.25352 0.812854 0
M  V30 671 H 61.5131 -4.20062 -0.335538 0
M  V30 672 H 60.1881 -3.12255 -0.853138 0
M  V30 673 H 59.0951 -3.45251 1.44057 0
M  V30 674 H 60.4281 -4.54998 1.87716 0
M  V30 675 N 62.0802 -0.821533 -1.34494 0
M  V30 676 C 63.0102 -0.257138 -2.3208 0
M  V30 677 C 63.9912 0.625645 -1.58176 0
M  V30 678 O 65.1762 0.552811 -1.86166 0
M  V30 679 C 62.3062 0.582958 -3.42372 0
M  V30 680 C 61.2602 -0.202571 -4.2752 0
M  V30 681 C 60.5862 0.760179 -5.29269 0
M  V30 682 C 61.8862 -1.40998 -5.02908 0
M  V30 683 H 63.5802 -1.07247 -2.79532 0
M  V30 684 H 61.1262 -0.517163 -1.34393 0
M  V30 685 H 63.0792 0.987972 -4.09655 0
M  V30 686 H 61.8032 1.43133 -2.93565 0
M  V30 687 H 60.4622 -0.588936 -3.61838 0
M  V30 688 H 60.1102 1.60447 -4.76724 0
M  V30 689 H 59.8102 0.238809 -5.87115 0
M  V30 690 H 61.3342 1.16308 -5.9942 0
M  V30 691 H 62.7482 -1.07905 -5.63054 0
M  V30 692 H 61.1452 -1.86689 -5.70322 0
M  V30 693 H 62.2152 -2.1889 -4.32684 0
M  V30 694 N 63.5583 1.46682 -0.576371 0
M  V30 695 C 64.9693 1.86112 -0.148091 0
M  V30 696 C 65.3203 1.48073 1.2872 0
M  V30 697 O 64.4453 0.892656 1.97131 0
M  V30 698 C 65.0403 3.37786 -0.261982 0
M  V30 699 C 63.5993 3.76235 0.111384 0
M  V30 700 C 62.7463 2.70713 -0.60083 0
M  V30 701 H 65.6973 1.37927 -0.78497 0
M  V30 702 H 65.7183 3.77007 0.514364 0
M  V30 703 H 65.2303 3.6544 -1.30671 0
M  V30 704 H 63.3313 3.54198 1.15649 0
M  V30 705 H 63.4443 4.78391 -0.26052 0
M  V30 706 H 61.8083 2.54666 -0.0417783 0
M  V30 707 H 62.5913 3.01208 -1.64708 0
M  V30 708 N 65.0364 0.313813 1.54444 0
M  V30 709 C 66.2614 -0.296681 2.05267 0
M  V30 710 C 66.6864 -1.45757 1.18897 0
M  V30 711 O 66.0444 -1.80239 0.195886 0
M  V30 712 C 66.0924 -0.71831 3.53373 0
M  V30 713 O 65.1964 -1.82175 3.69981 0
M  V30 714 H 64.5374 -0.0554061 0.661684 0
M  V30 715 H 67.0674 0.459387 1.99376 0
M  V30 716 H 67.0774 -1.00364 3.95463 0
M  V30 717 H 65.7524 0.130821 4.15694 0
M  V30 718 H 64.3294 -1.53598 3.39797 0
M  V30 719 N 66.5145 -1.57545 0.0417849 0
M  V30 720 C 67.7615 -1.92317 -0.634082 0
M  V30 721 C 68.0895 -0.919334 -1.71402 0
M  V30 722 O 67.3445 0.0698253 -1.95575 0
M  V30 723 C 67.6435 -3.33794 -1.27735 0
M  V30 724 C 67.3095 -4.49716 -0.326543 0
M  V30 725 C 65.9715 -4.81156 -0.0648814 0
M  V30 726 C 68.3235 -5.20182 0.325623 0
M  V30 727 C 65.6515 -5.80414 0.856539 0
M  V30 728 C 68.0035 -6.20424 1.23518 0
M  V30 729 C 66.6675 -6.50298 1.5056 0
M  V30 730 H 65.9375 -0.703736 -0.232027 0
M  V30 731 H 68.5845 -1.91205 0.106259 0
M  V30 732 H 66.8895 -3.31228 -2.09274 0
M  V30 733 H 68.5865 -3.57975 -1.80707 0
M  V30 734 H 65.1765 -4.25176 -0.540665 0
M  V30 735 H 69.3605 -4.96112 0.136546 0
M  V30 736 H 64.6165 -6.019 1.07363 0
M  V30 737 H 68.7905 -6.74141 1.74664 0
M  V30 738 H 66.4175 -7.27025 2.22123 0
M  V30 739 N 67.9926 0.231505 -1.5589 0
M  V30 740 C 69.2386 0.95877 -1.78705 0
M  V30 741 C 69.5716 1.8438 -0.609725 0
M  V30 742 O 68.8466 1.90521 0.391426 0
M  V30 743 C 69.1296 1.8062 -3.11526 0
M  V30 744 C 68.9826 0.948328 -4.39689 0
M  V30 745 C 70.3016 2.78585 -3.40703 0
M  V30 746 H 67.4206 0.347129 -0.650131 0
M  V30 747 H 70.0626 0.228259 -1.88624 0
M  V30 748 H 68.2126 2.42902 -3.03201 0
M  V30 749 H 69.8846 0.343016 -4.60023 0
M  V30 750 H 68.1276 0.253314 -4.3306 0
M  V30 751 H 68.7986 1.57543 -5.29041 0
M  V30 752 H 71.2746 2.26439 -3.49091 0
M  V30 753 H 70.1506 3.34988 -4.34826 0
M  V30 754 H 70.4116 3.55825 -2.62375 0
M  V30 755 N 69.4707 1.49531 0.497807 0
M  V30 756 C 70.7187 1.58865 1.24926 0
M  V30 757 C 71.0397 0.278721 1.92998 0
M  V30 758 O 70.3097 -0.702144 1.82885 0
M  V30 759 H 68.8897 0.585343 0.464094 0
M  V30 760 H 71.5517 1.86174 0.57666 0
M  V30 761 H 70.6477 2.38633 2.01149 0
M  V30 762 N 70.9488 -0.749086 1.3866 0
M  V30 763 C 71.8588 -1.89358 1.38494 0
M  V30 764 C 72.8748 -1.71708 0.281476 0
M  V30 765 O 74.0508 -1.94554 0.520643 0
M  V30 766 C 71.1158 -3.24782 1.21316 0
M  V30 767 C 70.1768 -3.54926 2.41508 0
M  V30 768 C 69.4098 -4.83888 2.2514 0
M  V30 769 O 69.6328 -5.56592 1.24746 0
M  V30 770 O 68.5668 -5.13612 3.13826 0
M  V30 771 H 72.3928 -1.92452 2.34938 0
M  V30 772 H 69.9778 -0.894981 1.19626 0
M  V30 773 H 71.8598 -4.05739 1.13814 0
M  V30 774 H 70.5348 -3.2249 0.279592 0
M  V30 775 H 69.4418 -2.74112 2.54585 0
M  V30 776 H 70.7748 -3.61983 3.3351 0
M  V30 777 N 72.4269 -1.23603 -0.977757 0
M  V30 778 C 73.3739 -1.01954 -2.07061 0
M  V30 779 C 74.3439 0.0638697 -1.65977 0
M  V30 780 O 75.5289 -0.0887624 -1.90593 0
M  V30 781 C 72.6689 -0.619658 -3.39491 0
M  V30 782 C 71.7819 -1.77547 -3.93829 0
M  V30 783 C 70.9169 -1.32212 -5.14484 0
M  V30 784 C 69.9559 -2.44852 -5.60994 0
M  V30 785 N 69.0929 -2.00456 -6.72876 0
M  V30 786 H 73.9329 -1.95495 -2.24913 0
M  V30 787 H 71.4699 -0.973861 -1.10247 0
M  V30 788 H 73.4279 -0.368898 -4.15566 0
M  V30 789 H 72.0579 0.278752 -3.21594 0
M  V30 790 H 71.1099 -2.14016 -3.14486 0
M  V30 791 H 72.4219 -2.62219 -4.24314 0
M  V30 792 H 71.5759 -1.02965 -5.97899 0
M  V30 793 H 70.3149 -0.445808 -4.85658 0
M  V30 794 H 69.3199 -2.74871 -4.76157 0
M  V30 795 H 70.5449 -3.33024 -5.91837 0
M  V30 796 H 68.4909 -1.15208 -6.45804 0
M  V30 797 H 68.4079 -2.78687 -7.02759 0
M  V30 798 H 69.6759 -1.7432 -7.59758 0
M  V30 799 N 73.905 1.17692 -1.04816 0
M  V30 800 C 75.151 1.88137 -0.75711 0
M  V30 801 C 75.484 1.80604 0.713841 0
M  V30 802 O 74.759 1.21146 1.52164 0
M  V30 803 C 75.042 3.38318 -1.2334 0
M  V30 804 C 74.895 3.54622 -2.76701 0
M  V30 805 C 76.214 4.32214 -0.829415 0
M  V30 806 H 73.333 0.683163 -0.27651 0
M  V30 807 H 75.975 1.38424 -1.30149 0
M  V30 808 H 74.125 3.80787 -0.770286 0
M  V30 809 H 75.797 3.21194 -3.31107 0
M  V30 810 H 74.04 2.97026 -3.16161 0
M  V30 811 H 74.711 4.60028 -3.05088 0
M  V30 812 H 77.187 3.97565 -1.22805 0
M  V30 813 H 76.063 5.35838 -1.19033 0
M  V30 814 H 76.324 4.41294 0.266891 0
M  V30 815 N 75.3831 0.828654 1.34056 0
M  V30 816 C 76.6601 0.341809 1.9259 0
M  V30 817 C 77.0401 -1.17158 1.75605 0
M  V30 818 O 76.3881 -1.98132 1.13824 0
M  V30 819 C 76.5981 0.777453 3.4023 0
M  V30 820 C 77.9461 0.779579 4.17382 0
M  V30 821 O 78.9701 0.7204 3.48839 0
M  V30 822 O 77.8291 0.857996 5.39723 0
M  V30 823 H 74.9231 0.0946085 0.821571 0
M  V30 824 H 77.4691 0.913827 1.42994 0
M  V30 825 H 76.2411 1.8196 3.46419 0
M  V30 826 H 75.8641 0.181444 3.97186 0
M  V30 827 N 76.8612 -1.46375 0.584142 0
M  V30 828 C 77.7712 -2.34115 -0.150728 0
M  V30 829 C 78.7872 -1.49838 -0.884567 0
M  V30 830 O 79.9632 -1.82704 -0.847429 0
M  V30 831 C 77.0282 -3.2705 -1.15062 0
M  V30 832 C 76.0892 -4.27228 -0.421293 0
M  V30 833 C 75.3222 -5.15722 -1.37355 0
M  V30 834 O 75.5452 -5.07176 -2.61014 0
M  V30 835 O 74.4792 -5.95383 -0.883355 0
M  V30 836 H 78.3052 -2.98309 0.569708 0
M  V30 837 H 75.8902 -1.45373 0.344535 0
M  V30 838 H 77.7722 -3.84381 -1.72712 0
M  V30 839 H 76.4472 -2.65451 -1.8525 0
M  V30 840 H 75.3542 -3.7358 0.197085 0
M  V30 841 H 76.6872 -4.91616 0.239641 0
M  V30 842 N 78.3393 -0.321999 -1.54275 0
M  V30 843 C 79.2493 0.553631 -2.27974 0
M  V30 844 C 80.2653 1.13054 -1.32268 0
M  V30 845 O 81.4413 1.15084 -1.6528 0
M  V30 846 C 78.5063 1.69927 -3.02201 0
M  V30 847 C 77.5673 1.15433 -4.1349 0
M  V30 848 C 76.8003 2.24537 -4.84168 0
M  V30 849 O 77.0233 3.44852 -4.5435 0
M  V30 850 O 75.9573 1.90044 -5.7111 0
M  V30 851 H 79.7833 -0.0448345 -3.03667 0
M  V30 852 H 77.3683 -0.0877418 -1.49142 0
M  V30 853 H 79.2503 2.3663 -3.48689 0
M  V30 854 H 77.9253 2.28395 -2.29385 0
M  V30 855 H 76.8323 0.452436 -3.71354 0
M  V30 856 H 78.1653 0.614805 -4.88345 0
M  V30 857 N 79.8174 1.5752 -0.0501392 0
M  V30 858 C 81.0654 1.9227 0.622642 0
M  V30 859 C 81.3864 0.929083 1.71444 0
M  V30 860 O 80.6564 -0.0262186 1.95882 0
M  V30 861 H 79.2364 0.709739 0.232981 0
M  V30 862 H 81.8984 1.94628 -0.102898 0
M  V30 863 H 80.9944 2.93479 1.06191 0
M  V30 864 N 81.2955 -0.223234 1.56011 0
M  V30 865 C 82.2255 -1.27988 1.95298 0
M  V30 866 C 83.2065 -1.48976 0.820979 0
M  V30 867 O 84.3915 -1.61188 1.08315 0
M  V30 868 C 81.5215 -2.63 2.26822 0
M  V30 869 C 80.4755 -2.56671 3.42497 0
M  V30 870 C 79.8015 -3.95697 3.59622 0
M  V30 871 C 81.1015 -2.11601 4.77517 0
M  V30 872 H 82.7955 -0.953525 2.8381 0
M  V30 873 H 80.3415 -0.457244 1.36548 0
M  V30 874 H 82.2945 -3.37077 2.52898 0
M  V30 875 H 81.0185 -2.9732 1.35161 0
M  V30 876 H 79.6775 -1.85051 3.16467 0
M  V30 877 H 79.3255 -4.27322 2.6534 0
M  V30 878 H 79.0255 -3.92345 4.37424 0
M  V30 879 H 80.5495 -4.71438 3.88044 0
M  V30 880 H 81.9635 -2.7542 5.02809 0
M  V30 881 H 80.3605 -2.19311 5.5859 0
M  V30 882 H 81.4305 -1.06824 4.72987 0
M  V30 883 N 82.7736 -1.49793 -0.48987 0
M  V30 884 C 83.7206 -1.67281 -1.59014 0
M  V30 885 C 84.6906 -0.514177 -1.57941 0
M  V30 886 O 85.8756 -0.742533 -1.75759 0
M  V30 887 C 83.0156 -1.75569 -2.97102 0
M  V30 888 C 82.1286 -3.0281 -3.08107 0
M  V30 889 C 81.2636 -3.02008 -4.36995 0
M  V30 890 C 80.3026 -4.23782 -4.41673 0
M  V30 891 N 79.4396 -4.20826 -5.62005 0
M  V30 892 H 84.2796 -2.61224 -1.43409 0
M  V30 893 H 81.8166 -1.29508 -0.697565 0
M  V30 894 H 83.7746 -1.78354 -3.77155 0
M  V30 895 H 82.4046 -0.850827 -3.11385 0
M  V30 896 H 81.4566 -3.09584 -2.21047 0
M  V30 897 H 82.7686 -3.92801 -3.07423 0
M  V30 898 H 81.9226 -3.03418 -5.25378 0
M  V30 899 H 80.6616 -2.09815 -4.4026 0
M  V30 900 H 79.6666 -4.22604 -3.5169 0
M  V30 901 H 80.8916 -5.17181 -4.40115 0
M  V30 902 H 78.8376 -3.31476 -5.66091 0
M  V30 903 H 78.7546 -5.04564 -5.62984 0
M  V30 904 H 80.0226 -4.26355 -6.52565 0
M  V30 905 N 84.2517 0.741722 -1.39055 0
M  V30 906 C 85.1987 1.85566 -1.37237 0
M  V30 907 C 86.1687 1.64457 -0.233072 0
M  V30 908 O 87.3537 1.85957 -0.427147 0
M  V30 909 C 84.4937 3.23004 -1.215 0
M  V30 910 C 83.6067 3.55864 -2.44918 0
M  V30 911 C 82.7417 4.82669 -2.21821 0
M  V30 912 C 81.7807 5.08351 -3.40948 0
M  V30 913 N 80.9177 6.26356 -3.17211 0
M  V30 914 H 85.7577 1.86455 -2.32462 0
M  V30 915 H 83.2947 0.911176 -1.15482 0
M  V30 916 H 85.2527 4.02331 -1.10389 0
M  V30 917 H 83.8827 3.21411 -0.29908 0
M  V30 918 H 82.9347 2.7129 -2.66657 0
M  V30 919 H 84.2467 3.70765 -3.33668 0
M  V30 920 H 83.4007 5.69962 -2.07914 0
M  V30 921 H 82.1397 4.69929 -1.30454 0
M  V30 922 H 81.1447 4.19522 -3.55361 0
M  V30 923 H 82.3697 5.22981 -4.33207 0
M  V30 924 H 80.3157 6.14917 -2.28502 0
M  V30 925 H 80.2327 6.41813 -3.99515 0
M  V30 926 H 81.5007 7.16506 -3.06984 0
M  V30 927 N 85.7298 1.2412 0.971189 0
M  V30 928 C 86.6598 1.05508 2.08304 0
M  V30 929 C 87.6408 -0.0308864 1.70072 0
M  V30 930 O 88.8258 0.135521 1.93727 0
M  V30 931 C 85.9558 0.655365 3.4106 0
M  V30 932 C 84.9098 1.68971 3.93234 0
M  V30 933 C 84.2358 1.14516 5.22293 0
M  V30 934 C 85.5358 3.08487 4.21465 0
M  V30 935 H 87.2298 1.98507 2.24132 0
M  V30 936 H 84.7758 0.955821 1.07704 0
M  V30 937 H 86.7288 0.51217 4.18276 0
M  V30 938 H 85.4528 -0.31032 3.25122 0
M  V30 939 H 84.1118 1.82106 3.18171 0
M  V30 940 H 83.7598 0.170189 5.02712 0
M  V30 941 H 83.4598 1.83635 5.58168 0
M  V30 942 H 84.9838 1.01401 6.02121 0
M  V30 943 H 86.3978 2.98601 4.89398 0
M  V30 944 H 84.7948 3.74926 4.68562 0
M  V30 945 H 85.8648 3.56787 3.28376 0
M  V30 946 N 87.2079 -1.17134 1.05439 0
M  V30 947 C 88.1409 -2.2012 0.601855 0
M  V30 948 C 89.1189 -1.58314 -0.370854 0
M  V30 949 O 90.3029 -1.8638 -0.281882 0
M  V30 950 C 87.4299 -3.38491 -0.118868 0
M  V30 951 C 86.4759 -4.18752 0.809242 0
M  V30 952 S 87.3089 -4.83602 2.29977 0
M  V30 953 C 88.4649 -6.0536 1.59029 0
M  V30 954 H 88.6979 -2.58165 1.47438 0
M  V30 955 H 86.2309 -1.27788 0.866573 0
M  V30 956 H 88.1889 -4.07084 -0.528495 0
M  V30 957 H 86.8499 -2.98829 -0.967465 0
M  V30 958 H 86.0429 -5.03373 0.251379 0
M  V30 959 H 85.6449 -3.5561 1.15835 0
M  V30 960 H 87.9369 -6.71615 0.891017 0
M  V30 961 H 88.8799 -6.65679 2.41407 0
M  V30 962 H 89.2879 -5.54138 1.07663 0
M  V30 963 N 88.686 -0.835752 -1.33615 0
M  V30 964 C 89.934 -0.429109 -1.97492 0
M  V30 965 C 90.255 1.01433 -1.66543 0
M  V30 966 O 89.525 1.70611 -0.962744 0
M  V30 967 H 88.105 -0.155686 -0.730596 0
M  V30 968 H 90.767 -1.06802 -1.63031 0
M  V30 969 H 89.863 -0.55861 -3.0706 0
M  V30 970 N 90.1641 1.46063 -0.591896 0
M  V30 971 C 91.3891 2.07226 -0.0850314 0
M  V30 972 C 91.8141 1.43625 1.21463 0
M  V30 973 O 91.1721 0.523305 1.73583 0
M  V30 974 C 91.2201 3.60554 0.0576567 0
M  V30 975 O 90.3241 3.97128 1.11188 0
M  V30 976 H 89.6651 0.660615 -0.0669568 0
M  V30 977 H 92.1951 1.8756 -0.81745 0
M  V30 978 H 92.2051 4.07165 0.2609 0
M  V30 979 H 90.8801 4.06235 -0.891416 0
M  V30 980 H 89.4571 3.62213 0.886356 0
M  V30 981 N 91.6422 0.330177 1.54103 0
M  V30 982 C 92.5722 -0.525353 2.27513 0
M  V30 983 C 93.5532 -1.11383 1.2856 0
M  V30 984 O 94.7382 -1.13773 1.57383 0
M  V30 985 C 91.8682 -1.6831 3.03791 0
M  V30 986 C 90.8222 -1.2236 4.10137 0
M  V30 987 C 90.1482 -2.46882 4.74293 0
M  V30 988 C 91.4482 -0.333697 5.21233 0
M  V30 989 H 93.1422 0.087013 2.99274 0
M  V30 990 H 90.6882 0.0432893 1.43935 0
M  V30 991 H 92.6412 -2.28795 3.5388 0
M  V30 992 H 91.3652 -2.32216 2.29659 0
M  V30 993 H 90.0242 -0.64165 3.60941 0
M  V30 994 H 89.6722 -3.09165 3.96769 0
M  V30 995 H 89.3722 -2.16825 5.46133 0
M  V30 996 H 90.8962 -3.08117 5.27159 0
M  V30 997 H 92.3102 -0.845013 5.67038 0
M  V30 998 H 90.7072 -0.125612 5.99969 0
M  V30 999 H 91.7772 0.633724 4.80741 0
M  V30 1000 N 93.1203 -1.57491 0.0584922 0
M  V30 1001 C 94.3973 -1.84346 -0.653918 0
M  V30 1002 C 94.7773 -0.948355 -1.88599 0
M  V30 1003 O 94.1253 -0.0112403 -2.28497 0
M  V30 1004 C 94.3353 -3.34239 -1.00425 0
M  V30 1005 C 95.6833 -4.01431 -1.38342 0
M  V30 1006 O 96.7073 -3.38907 -1.09637 0
M  V30 1007 O 95.5663 -5.11683 -1.91943 0
M  V30 1008 H 92.6603 -0.761112 -0.323478 0
M  V30 1009 H 95.2063 -1.6947 0.0884125 0
M  V30 1010 H 93.9783 -3.91089 -0.128625 0
M  V30 1011 H 93.6013 -3.54329 -1.80378 0
M  V30 1012 N 94.5984 0.214957 -1.56127 0
M  V30 1013 C 95.5084 1.28727 -1.96129 0
M  V30 1014 C 96.5244 1.50916 -0.866044 0
M  V30 1015 O 97.7004 1.63918 -1.17016 0
M  V30 1016 C 94.7654 2.61569 -2.27558 0
M  V30 1017 C 93.8264 2.47625 -3.50685 0
M  V30 1018 C 93.0594 3.74132 -3.80606 0
M  V30 1019 O 93.2824 4.77438 -3.12104 0
M  V30 1020 O 92.2164 3.70849 -4.74083 0
M  V30 1021 H 96.0424 0.977855 -2.87527 0
M  V30 1022 H 93.6274 0.418358 -1.43423 0
M  V30 1023 H 95.5094 3.40012 -2.48938 0
M  V30 1024 H 94.1844 2.92178 -1.39332 0
M  V30 1025 H 93.0914 1.67361 -3.34576 0
M  V30 1026 H 94.4244 2.21954 -4.39315 0
M  V30 1027 N 96.0765 1.50051 0.48192 0
M  V30 1028 C 97.0245 1.68635 1.60203 0
M  V30 1029 C 98.0185 0.552184 1.60148 0
M  V30 1030 O 99.2245 0.732377 1.64427 0
M  V30 1031 H 95.5995 0.532081 0.531407 0
M  V30 1032 H 97.5705 2.62616 1.41688 0
M  V30 1033 C 96.3195 1.78775 2.9822 0
M  V30 1034 H 95.6425 2.6543 2.98976 0
M  V30 1035 H 97.0825 1.95806 3.7608 0
M  V30 1036 C 95.5415 0.536849 3.32595 0
M  V30 1037 O 96.0715 -0.328897 4.00351 0
M  V30 1038 N 94.2775 0.394091 2.87915 0
M  V30 1039 H 93.8245 1.09962 2.32951 0
M  V30 1040 H 93.7825 -0.441737 3.11281 0
M  V30 1041 N 97.5546 -0.734337 1.39446 0
M  V30 1042 C 98.7796 -1.52866 1.40167 0
M  V30 1043 C 99.2046 -1.881 -0.00171513 0
M  V30 1044 O 98.5626 -1.51957 -0.988879 0
M  V30 1045 C 98.6106 -2.79235 2.28167 0
M  V30 1046 O 97.7146 -3.75185 1.71201 0
M  V30 1047 H 97.0556 -0.461618 0.477289 0
M  V30 1048 H 99.5856 -0.905949 1.8345 0
M  V30 1049 H 99.5956 -3.27963 2.42702 0
M  V30 1050 H 98.2706 -2.52923 3.30156 0
M  V30 1051 H 96.8476 -3.33958 1.65912 0
M  V30 1052 N 99.0327 -1.24633 -0.964593 0
M  V30 1053 C 100.31 -0.995809 -1.68354 0
M  V30 1054 C 100.69 0.480964 -2.05548 0
M  V30 1055 O 100.038 1.45599 -1.76105 0
M  V30 1056 C 100.248 -1.92177 -2.91323 0
M  V30 1057 C 101.596 -2.19446 -3.63495 0
M  V30 1058 O 102.62 -1.89855 -3.01386 0
M  V30 1059 O 101.479 -2.69714 -4.75307 0
M  V30 1060 H 98.5727 -0.376854 -0.736146 0
M  V30 1061 H 101.119 -1.35745 -1.0184 0
M  V30 1062 H 99.8907 -2.91938 -2.60553 0
M  V30 1063 H 99.5137 -1.56349 -3.65569 0
M  V30 1064 N 100.511 1.16574 -1.06058 0
M  V30 1065 C 101.443 2.2045 -0.627239 0
M  V30 1066 C 102.456 1.59752 0.313534 0
M  V30 1067 O 103.645 1.78192 0.104896 0
M  V30 1068 C 100.745 3.3875 0.100974 0
M  V30 1069 C 99.9178 4.29008 -0.852687 0
M  V30 1070 C 98.9768 5.25944 -0.164152 0
M  V30 1071 O 98.0028 5.63535 -0.801047 0
M  V30 1072 N 99.2048 5.70075 1.09518 0
M  V30 1073 H 101.97 2.58249 -1.52077 0
M  V30 1074 H 99.5308 1.3156 -0.943594 0
M  V30 1075 H 101.523 4.00638 0.57194 0
M  V30 1076 H 100.093 2.99476 0.89628 0
M  V30 1077 H 99.3128 3.64419 -1.50308 0
M  V30 1078 H 100.601 4.86195 -1.49972 0
M  V30 1079 H 99.9988 5.41624 1.6328 0
M  V30 1080 H 98.5558 6.34067 1.51006 0
M  V30 1081 N 101.989 0.842826 1.3317 0
M  V30 1082 C 102.921 0.236245 2.27979 0
M  V30 1083 C 103.934 -0.585282 1.51915 0
M  V30 1084 O 105.123 -0.411705 1.73687 0
M  V30 1085 C 102.223 -0.685717 3.3189 0
M  V30 1086 C 101.396 0.0973448 4.37292 0
M  V30 1087 C 100.455 -0.748565 5.20848 0
M  V30 1088 O 99.4809 -0.186339 5.68895 0
M  V30 1089 N 100.683 -2.06527 5.42519 0
M  V30 1090 H 103.448 1.05088 2.80672 0
M  V30 1091 H 101.009 0.701667 1.45905 0
M  V30 1092 H 103.001 -1.25669 3.84694 0
M  V30 1093 H 101.571 -1.40105 2.79445 0
M  V30 1094 H 100.791 0.849706 3.84933 0
M  V30 1095 H 102.079 0.635643 5.04814 0
M  V30 1096 H 101.477 -2.54554 5.05192 0
M  V30 1097 H 100.034 -2.58464 5.98364 0
M  V30 1098 N 103.467 -1.45747 0.599634 0
M  V30 1099 C 104.713 -2.02592 0.0918643 0
M  V30 1100 C 105.046 -1.46806 -1.27128 0
M  V30 1101 O 104.321 -0.639658 -1.83681 0
M  V30 1102 C 104.604 -3.60073 0.0443398 0
M  V30 1103 C 104.457 -4.26208 1.43759 0
M  V30 1104 C 105.776 -4.35309 -0.647608 0
M  V30 1105 H 102.895 -0.736175 0.034857 0
M  V30 1106 H 105.537 -1.73694 0.770081 0
M  V30 1107 H 103.687 -3.84823 -0.533224 0
M  V30 1108 H 105.359 -4.12668 2.06162 0
M  V30 1109 H 103.602 -3.84916 2.00056 0
M  V30 1110 H 104.273 -5.35069 1.35665 0
M  V30 1111 H 106.749 -4.15805 -0.156776 0
M  V30 1112 H 105.625 -5.45038 -0.649942 0
M  V30 1113 H 105.886 -4.07598 -1.71219 0
M  V30 1114 N 104.945 -0.338344 -1.53925 0
M  V30 1115 C 106.222 0.314774 -1.93051 0
M  V30 1116 C 106.602 1.68669 -1.26941 0
M  V30 1117 O 105.95 2.24636 -0.418445 0
M  V30 1118 C 106.16 0.392249 -3.46789 0
M  V30 1119 C 107.508 0.645554 -4.19664 0
M  V30 1120 O 108.532 0.474575 -3.53024 0
M  V30 1121 O 107.391 0.976408 -5.37707 0
M  V30 1122 H 104.485 0.182598 -0.80659 0
M  V30 1123 H 107.031 -0.389141 -1.65178 0
M  V30 1124 H 105.803 -0.570702 -3.87116 0
M  V30 1125 H 105.426 1.14316 -3.80812 0
M  V30 1126 N 106.423 1.57458 -0.0668435 0
M  V30 1127 C 107.67 1.93301 0.603406 0
M  V30 1128 C 107.998 0.946486 1.69917 0
M  V30 1129 O 107.253 -0.0387021 1.95662 0
M  V30 1130 C 107.552 3.35784 1.22409 0
M  V30 1131 C 107.218 4.50179 0.254955 0
M  V30 1132 C 105.88 4.81199 -0.0116746 0
M  V30 1133 C 108.232 5.19598 -0.408338 0
M  V30 1134 C 105.56 5.78978 -0.94877 0
M  V30 1135 C 107.912 6.18381 -1.33372 0
M  V30 1136 C 106.576 6.47821 -1.60887 0
M  V30 1137 H 105.846 0.707338 0.220802 0
M  V30 1138 H 108.493 1.91012 -0.136665 0
M  V30 1139 H 106.798 3.34515 2.03978 0
M  V30 1140 H 108.495 3.60804 1.74989 0
M  V30 1141 H 105.085 4.25983 0.472954 0
M  V30 1142 H 109.269 4.95832 -0.215456 0
M  V30 1143 H 104.525 6.00115 -1.16925 0
M  V30 1144 H 108.699 6.71277 -1.85367 0
M  V30 1145 H 106.326 7.23399 -2.33661 0
M  V30 1146 N 107.901 -0.206675 1.56239 0
M  V30 1147 C 108.833 -1.27997 1.9013 0
M  V30 1148 C 109.846 -1.42299 0.790883 0
M  V30 1149 O 111.035 -1.42931 1.06925 0
M  V30 1150 C 108.135 -2.65368 2.10792 0
M  V30 1151 C 107.308 -2.72824 3.41886 0
M  V30 1152 C 106.367 -3.9131 3.51799 0
M  V30 1153 O 105.393 -3.78953 4.24716 0
M  V30 1154 N 106.595 -5.06265 2.84035 0
M  V30 1155 H 109.36 -0.992444 2.82791 0
M  V30 1156 H 106.921 -0.396652 1.56966 0
M  V30 1157 H 108.913 -3.43039 2.14724 0
M  V30 1158 H 107.483 -2.86657 1.24685 0
M  V30 1159 H 106.703 -1.81515 3.49923 0
M  V30 1160 H 107.991 -2.74786 4.28217 0
M  V30 1161 H 107.389 -5.19203 2.246 0
M  V30 1162 H 105.946 -5.81925 2.93609 0
M  V30 1163 N 109.379 -1.50304 -0.473955 0
M  V30 1164 C 110.289 -1.7174 -1.5982 0
M  V30 1165 C 111.305 -0.600457 -1.63311 0
M  V30 1166 O 112.481 -0.878441 -1.81233 0
M  V30 1167 C 109.546 -1.80427 -2.96052 0
M  V30 1168 C 108.607 -3.04148 -3.02972 0
M  V30 1169 C 107.84 -3.12411 -4.32706 0
M  V30 1170 O 108.063 -2.27542 -5.23049 0
M  V30 1171 O 106.997 -4.05113 -4.45159 0
M  V30 1172 H 110.823 -2.67035 -1.44657 0
M  V30 1173 H 108.408 -1.34366 -0.653148 0
M  V30 1174 H 110.29 -1.88338 -3.7697 0
M  V30 1175 H 108.965 -0.883156 -3.11419 0
M  V30 1176 H 107.872 -3.0174 -2.21142 0
M  V30 1177 H 109.205 -3.95829 -2.92541 0
M  V30 1178 N 110.857 0.726932 -1.39834 0
M  V30 1179 C 112.087 1.51393 -1.40583 0
M  V30 1180 C 112.495 1.892 -0.000740625 0
M  V30 1181 O 111.838 1.55189 0.982951 0
M  V30 1182 C 111.9 2.82588 -2.22226 0
M  V30 1183 C 111.564 2.67169 -3.70769 0
M  V30 1184 C 112.561 2.3518 -4.63666 0
M  V30 1185 C 110.246 2.83788 -4.14451 0
M  V30 1186 C 112.24 2.20002 -5.98229 0
M  V30 1187 C 109.927 2.68229 -5.49087 0
M  V30 1188 C 110.925 2.36382 -6.4079 0
M  V30 1189 O 110.613 2.2093 -7.72946 0
M  V30 1190 H 110.345 0.474168 -0.48181 0
M  V30 1191 H 112.899 0.905247 -1.84376 0
M  V30 1192 H 111.129 3.45746 -1.73195 0
M  V30 1193 H 112.818 3.44247 -2.15055 0
M  V30 1194 H 113.584 2.21984 -4.31217 0
M  V30 1195 H 109.463 3.07566 -3.43401 0
M  V30 1196 H 113.007 1.95067 -6.69772 0
M  V30 1197 H 108.904 2.81006 -5.81125 0
M  V30 1198 H 109.672 2.35937 -7.83757 0
M  V30 1199 N 112.336 1.25143 0.95797 0
M  V30 1200 C 113.299 1.05321 2.03569 0
M  V30 1201 C 114.299 0.007152 1.60798 0
M  V30 1202 O 115.489 0.24903 1.72411 0
M  V30 1203 C 112.621 0.598394 3.35607 0
M  V30 1204 H 113.814 2.00986 2.22586 0
M  V30 1205 H 111.367 1.07502 1.13459 0
M  V30 1206 H 112.102 -0.361014 3.22284 0
M  V30 1207 H 111.887 1.35351 3.67998 0
M  V30 1208 H 113.377 0.48104 4.1482 0
M  V30 1209 N 113.814 -1.1601 1.06675 0
M  V30 1210 C 115.06 -1.86909 0.786945 0
M  V30 1211 C 115.393 -1.81717 -0.685018 0
M  V30 1212 O 114.668 -1.23551 -1.50218 0
M  V30 1213 C 114.951 -3.36313 1.28707 0
M  V30 1214 C 114.804 -3.50175 2.82308 0
M  V30 1215 C 116.123 -4.3084 0.898071 0
M  V30 1216 H 113.242 -0.678677 0.287343 0
M  V30 1217 H 115.884 -1.36336 1.32334 0
M  V30 1218 H 114.034 -3.79513 0.830768 0
M  V30 1219 H 115.706 -3.15886 3.36175 0
M  V30 1220 H 113.949 -2.91959 3.20847 0
M  V30 1221 H 114.62 -4.55116 3.12368 0
M  V30 1222 H 117.096 -3.95561 1.29114 0
M  V30 1223 H 115.972 -5.33876 1.27543 0
M  V30 1224 H 116.233 -4.41662 -0.196651 0
M  V30 1225 N 115.292 -0.849877 -1.32721 0
M  V30 1226 C 116.539 -0.450923 -1.97416 0
M  V30 1227 C 116.867 0.992376 -1.67279 0
M  V30 1228 O 116.122 1.71048 -0.950845 0
M  V30 1229 C 116.421 -0.631272 -3.51781 0
M  V30 1230 C 116.087 -2.04432 -4.01894 0
M  V30 1231 C 114.749 -2.4308 -4.1529 0
M  V30 1232 C 117.101 -2.96679 -4.28522 0
M  V30 1233 C 114.429 -3.73257 -4.52654 0
M  V30 1234 C 116.781 -4.26349 -4.67343 0
M  V30 1235 C 115.445 -4.64939 -4.78945 0
M  V30 1236 H 114.715 -0.165004 -0.722395 0
M  V30 1237 H 117.362 -1.07901 -1.58207 0
M  V30 1238 H 115.667 0.0800767 -3.91718 0
M  V30 1239 H 117.364 -0.302709 -3.99856 0
M  V30 1240 H 113.954 -1.73419 -3.91949 0
M  V30 1241 H 118.138 -2.68054 -4.17685 0
M  V30 1242 H 113.394 -4.02946 -4.59831 0
M  V30 1243 H 117.568 -4.97895 -4.86902 0
M  V30 1244 H 115.195 -5.65855 -5.07654 0
M  V30 1245 N 116.77 1.45427 -0.607355 0
M  V30 1246 C 117.7 2.3329 0.0989352 0
M  V30 1247 C 118.681 1.46816 0.859007 0
M  V30 1248 O 119.866 1.75588 0.829604 0
M  V30 1249 C 116.996 3.29518 1.09705 0
M  V30 1250 C 115.95 4.25626 0.450206 0
M  V30 1251 C 115.276 5.11542 1.55655 0
M  V30 1252 C 116.576 5.18505 -0.628455 0
M  V30 1253 H 118.27 2.92595 -0.634716 0
M  V30 1254 H 115.816 1.40696 -0.306681 0
M  V30 1255 H 117.769 3.89855 1.59971 0
M  V30 1256 H 116.493 2.68372 1.86129 0
M  V30 1257 H 115.152 3.66586 -0.0315886 0
M  V30 1258 H 114.8 4.46765 2.31107 0
M  V30 1259 H 114.5 5.76647 1.12925 0
M  V30 1260 H 116.024 5.74748 2.06148 0
M  V30 1261 H 117.438 5.72916 -0.209877 0
M  V30 1262 H 115.835 5.92085 -0.977489 0
M  V30 1263 H 116.905 4.60948 -1.50514 0
M  V30 1264 N 118.248 0.346503 1.53744 0
M  V30 1265 C 119.211 -0.496439 2.23759 0
M  V30 1266 C 120.211 -1.0252 1.2388 0
M  V30 1267 O 121.401 -0.913974 1.48297 0
M  V30 1268 C 118.533 -1.69187 2.95954 0
M  V30 1269 H 119.726 0.115952 2.99676 0
M  V30 1270 H 117.279 0.0978939 1.55993 0
M  V30 1271 H 118.014 -2.34288 2.24231 0
M  V30 1272 H 117.799 -1.31989 3.69217 0
M  V30 1273 H 119.289 -2.28969 3.49232 0
M  V30 1274 N 119.726 -1.57421 0.075193 0
M  V30 1275 C 120.656 -2.15942 -0.888324 0
M  V30 1276 C 121.637 -1.08737 -1.30806 0
M  V30 1277 O 122.822 -1.36787 -1.37851 0
M  V30 1278 C 119.952 -2.72379 -2.1547 0
M  V30 1279 C 118.906 -3.8478 -1.87425 0
M  V30 1280 C 118.232 -4.27834 -3.20721 0
M  V30 1281 C 119.532 -5.08869 -1.17684 0
M  V30 1282 H 121.226 -2.96705 -0.400799 0
M  V30 1283 H 118.772 -1.42723 -0.191342 0
M  V30 1284 H 120.725 -3.11965 -2.83295 0
M  V30 1285 H 119.449 -1.88841 -2.6647 0
M  V30 1286 H 118.108 -3.45703 -1.22004 0
M  V30 1287 H 117.756 -3.41214 -3.6957 0
M  V30 1288 H 117.456 -5.03605 -3.02746 0
M  V30 1289 H 118.98 -4.70039 -3.89738 0
M  V30 1290 H 120.394 -5.4575 -1.75584 0
M  V30 1291 H 118.791 -5.8994 -1.09956 0
M  V30 1292 H 119.861 -4.84648 -0.156453 0
M  V30 1293 N 121.204 0.198386 -1.56346 0
M  V30 1294 C 122.453 0.917451 -1.79627 0
M  V30 1295 C 122.766 1.8456 -0.64784 0
M  V30 1296 O 123.972 2.60504 -0.764859 0
M  V30 1297 C 122.428 1.68175 -3.18191 0
M  V30 1298 C 122.036 0.798589 -4.40825 0
M  V30 1299 C 123.78 2.39065 -3.50782 0
M  V30 1300 C 121.687 1.56157 -5.70411 0
M  V30 1301 H 120.617 0.346317 -0.669762 0
M  V30 1302 H 123.268 0.170801 -1.82703 0
M  V30 1303 H 121.65 2.47216 -3.09354 0
M  V30 1304 H 122.824 0.0470665 -4.60776 0
M  V30 1305 H 121.139 0.200686 -4.15916 0
M  V30 1306 H 123.736 2.96692 -4.44835 0
M  V30 1307 H 124.079 3.13091 -2.74371 0
M  V30 1308 H 124.612 1.66993 -3.61052 0
M  V30 1309 H 121.351 0.864142 -6.49779 0
M  V30 1310 H 120.871 2.2871 -5.54483 0
M  V30 1311 H 122.55 2.11622 -6.11412 0
M  V30 1312 N 122.682 1.50554 0.465978 0
M  V30 1313 C 123.91 1.65563 1.24083 0
M  V30 1314 C 124.325 0.341051 1.85694 0
M  V30 1315 O 123.682 -0.677543 1.69457 0
M  V30 1316 C 123.733 2.75051 2.34583 0
M  V30 1317 O 123.454 4.01413 1.75497 0
M  V30 1318 C 124.955 3.01078 3.25372 0
M  V30 1319 H 122.175 0.55638 0.375077 0
M  V30 1320 H 124.719 1.96807 0.555624 0
M  V30 1321 H 122.874 2.46486 2.9887 0
M  V30 1322 H 123.288 4.62002 2.48303 0
M  V30 1323 H 124.762 3.81339 3.99105 0
M  V30 1324 H 125.239 2.12349 3.84453 0
M  V30 1325 H 125.845 3.31194 2.66816 0
M  V30 1326 N 124.16 -0.719506 1.40217 0
M  V30 1327 C 125.406 -1.48152 1.38488 0
M  V30 1328 C 125.739 -1.94195 -0.0141867 0
M  V30 1329 O 125.014 -1.67884 -0.982096 0
M  V30 1330 C 125.297 -2.71035 2.37091 0
M  V30 1331 C 125.15 -2.30912 3.86005 0
M  V30 1332 C 126.469 -3.73182 2.33288 0
M  V30 1333 H 123.588 -0.537395 0.504357 0
M  V30 1334 H 126.23 -0.821472 1.71324 0
M  V30 1335 H 124.38 -3.27352 2.0922 0
M  V30 1336 H 126.052 -1.80107 4.24687 0
M  V30 1337 H 124.295 -1.62958 4.02029 0
M  V30 1338 H 124.966 -3.18978 4.50508 0
M  V30 1339 H 127.442 -3.26485 2.57966 0
M  V30 1340 H 126.318 -4.56806 3.04334 0
M  V30 1341 H 126.579 -4.21202 1.34317 0
M  V30 1342 N 125.638 -1.25649 -0.95132 0
M  V30 1343 C 126.571 -1.00644 -2.04807 0
M  V30 1344 C 127.549 0.0654271 -1.62468 0
M  V30 1345 O 128.733 -0.074911 -1.88351 0
M  V30 1346 C 125.86 -0.522052 -3.34653 0
M  V30 1347 C 124.906 -1.58495 -3.95957 0
M  V30 1348 S 125.739 -3.17108 -4.31512 0
M  V30 1349 C 126.895 -2.70412 -5.64471 0
M  V30 1350 H 127.128 -1.93508 -2.25703 0
M  V30 1351 H 124.661 -1.09216 -1.09139 0
M  V30 1352 H 126.619 -0.24923 -4.09743 0
M  V30 1353 H 125.28 0.386146 -3.11717 0
M  V30 1354 H 124.473 -1.1968 -4.89584 0
M  V30 1355 H 124.075 -1.80862 -3.2736 0
M  V30 1356 H 126.367 -2.14245 -6.42733 0
M  V30 1357 H 127.31 -3.62693 -6.08161 0
M  V30 1358 H 127.718 -2.10302 -5.23864 0
M  V30 1359 N 127.117 1.15442 -1.07289 0
M  V30 1360 C 128.357 1.8788 -0.805012 0
M  V30 1361 C 128.721 1.80413 0.656907 0
M  V30 1362 O 129.922 2.47874 1.0398 0
M  V30 1363 C 128.193 3.3298 -1.29843 0
M  V30 1364 S 129.752 4.23158 -1.16114 0
M  V30 1365 H 126.57 0.64839 -0.291739 0
M  V30 1366 H 129.172 1.39285 -1.37186 0
M  V30 1367 H 127.876 3.35958 -2.35712 0
M  V30 1368 H 127.407 3.86629 -0.726767 0
M  V30 1369 H 129.422 4.96103 -0.0982778 0
M  V30 1370 N 128.595 0.856903 1.32268 0
M  V30 1371 C 129.543 0.291987 2.3076 0
M  V30 1372 C 130.537 -0.585857 1.58947 0
M  V30 1373 O 131.743 -0.47341 1.73663 0
M  V30 1374 H 128.118 0.075721 0.748178 0
M  V30 1375 H 130.089 1.13687 2.75895 0
M  V30 1376 C 128.838 -0.502869 3.44044 0
M  V30 1377 H 128.161 0.163328 3.99466 0
M  V30 1378 H 129.601 -0.863691 4.1511 0
M  V30 1379 C 128.06 -1.68898 2.91505 0
M  V30 1380 O 128.59 -2.78811 2.89184 0
M  V30 1381 N 126.796 -1.51679 2.47875 0
M  V30 1382 H 126.343 -0.622666 2.49961 0
M  V30 1383 H 126.301 -2.31184 2.13076 0
M  V30 1384 N 130.073 -1.45103 0.615059 0
M  V30 1385 C 131.35 -1.95549 0.0448276 0
M  V30 1386 C 131.73 -1.55737 -1.4251 0
M  V30 1387 O 131.078 -0.823556 -2.13143 0
M  V30 1388 C 131.288 -3.48098 0.250785 0
M  V30 1389 C 132.636 -4.24384 0.135509 0
M  V30 1390 O 133.66 -3.55738 0.181299 0
M  V30 1391 O 132.519 -5.46493 0.0268878 0
M  V30 1392 H 129.613 -0.8264 -0.0314845 0
M  V30 1393 H 132.159 -1.55232 0.685642 0
M  V30 1394 H 130.931 -3.7007 1.27139 0
M  V30 1395 H 130.554 -3.95323 -0.424937 0
M  V30 1396 N 131.551 -0.354651 -1.53558 0
M  V30 1397 C 132.798 0.238443 -2.01091 0
M  V30 1398 C 133.126 1.49663 -1.24222 0
M  V30 1399 O 132.381 1.93049 -0.321003 0
M  V30 1400 C 132.68 0.587121 -3.52545 0
M  V30 1401 C 132.346 -0.575472 -4.47213 0
M  V30 1402 C 131.008 -0.894497 -4.72813 0
M  V30 1403 C 133.36 -1.35489 -5.03281 0
M  V30 1404 C 130.688 -1.99511 -5.51736 0
M  V30 1405 C 133.04 -2.44583 -5.83405 0
M  V30 1406 C 131.704 -2.77033 -6.07296 0
M  V30 1407 H 130.974 0.0872526 -0.735845 0
M  V30 1408 H 133.621 -0.484859 -1.8526 0
M  V30 1409 H 131.926 1.39129 -3.66265 0
M  V30 1410 H 133.623 1.05809 -3.86789 0
M  V30 1411 H 130.213 -0.316774 -4.27428 0
M  V30 1412 H 134.397 -1.12167 -4.83459 0
M  V30 1413 H 129.653 -2.25063 -5.68469 0
M  V30 1414 H 133.827 -3.05401 -6.25862 0
M  V30 1415 H 131.454 -3.6244 -6.68237 0
M  V30 1416 N 133.029 1.57378 -0.0835403 0
M  V30 1417 C 134.276 1.9393 0.58287 0
M  V30 1418 C 134.604 0.964455 1.68904 0
M  V30 1419 O 133.859 -0.0179474 1.95692 0
M  V30 1420 C 134.158 3.37063 1.1884 0
M  V30 1421 C 133.824 4.50424 0.207194 0
M  V30 1422 C 132.486 4.81159 -0.0627115 0
M  V30 1423 C 134.838 5.19136 -0.463426 0
M  V30 1424 C 132.166 5.77939 -1.01012 0
M  V30 1425 C 134.518 6.16931 -1.39924 0
M  V30 1426 C 133.182 6.46078 -1.67749 0
M  V30 1427 H 132.452 0.70964 0.213287 0
M  V30 1428 H 135.099 1.90856 -0.156916 0
M  V30 1429 H 133.404 3.3666 2.00418 0
M  V30 1430 H 135.101 3.6264 1.71153 0
M  V30 1431 H 131.691 4.2646 0.427747 0
M  V30 1432 H 135.875 4.95576 -0.268034 0
M  V30 1433 H 131.131 5.98842 -1.23283 0
M  V30 1434 H 135.305 6.69273 -1.92476 0
M  V30 1435 H 132.932 7.2088 -2.41321 0
M  V30 1436 N 134.507 -0.190092 1.56449 0
M  V30 1437 C 135.439 -1.25973 1.91477 0
M  V30 1438 C 136.452 -1.41452 0.805931 0
M  V30 1439 O 137.641 -1.41789 1.08435 0
M  V30 1440 C 134.741 -2.63117 2.13594 0
M  V30 1441 C 133.914 -2.69182 3.4476 0
M  V30 1442 C 132.973 -3.87557 3.5593 0
M  V30 1443 O 131.999 -3.74427 4.28711 0
M  V30 1444 N 133.201 -5.03224 2.89388 0
M  V30 1445 H 135.966 -0.962394 2.83828 0
M  V30 1446 H 133.527 -0.379981 1.57378 0
M  V30 1447 H 135.519 -3.40742 2.1835 0
M  V30 1448 H 134.089 -2.85319 1.27719 0
M  V30 1449 H 133.309 -1.77793 3.51828 0
M  V30 1450 H 134.597 -2.70229 4.31107 0
M  V30 1451 H 133.995 -5.16791 2.30094 0
M  V30 1452 H 132.552 -5.78778 2.99764 0
M  V30 1453 N 135.985 -1.50799 -0.457987 0
M  V30 1454 C 137.233 -1.62121 -1.2067 0
M  V30 1455 C 137.554 -0.329793 -1.92191 0
M  V30 1456 O 136.824 0.653409 -1.84682 0
M  V30 1457 H 135.404 -0.597441 -0.448411 0
M  V30 1458 H 138.066 -1.87637 -0.527096 0
M  V30 1459 H 137.162 -2.43882 -1.94751 0
M  V30 1460 N 137.463 0.71206 -1.40597 0
M  V30 1461 C 138.703 1.48438 -1.40519 0
M  V30 1462 C 139.067 1.91998 -0.00767611 0
M  V30 1463 O 140.268 2.6854 0.118239 0
M  V30 1464 C 138.539 2.67514 -2.37004 0
M  V30 1465 S 140.098 3.56875 -2.55315 0
M  V30 1466 H 136.916 0.507457 -0.498005 0
M  V30 1467 H 139.518 0.832355 -1.76896 0
M  V30 1468 H 138.222 2.33689 -3.37368 0
M  V30 1469 H 137.753 3.37625 -2.01923 0
M  V30 1470 H 139.768 4.62081 -1.8082 0
M  V30 1471 N 138.941 1.26152 0.944643 0
M  V30 1472 C 140.352 1.10454 1.50522 0
M  V30 1473 C 140.703 -0.31635 1.93633 0
M  V30 1474 O 139.828 -1.20746 1.79581 0
M  V30 1475 C 140.423 1.99891 2.73549 0
M  V30 1476 C 138.982 1.88348 3.25886 0
M  V30 1477 C 138.129 1.93447 1.9868 0
M  V30 1478 H 141.08 1.39292 0.760489 0
M  V30 1479 H 141.101 1.54477 3.47732 0
M  V30 1480 H 140.613 3.03297 2.42141 0
M  V30 1481 H 138.714 0.878636 3.62092 0
M  V30 1482 H 138.827 2.73696 3.93227 0
M  V30 1483 H 137.191 1.37456 2.14425 0
M  V30 1484 H 137.974 2.98476 1.69607 0
M  V30 1485 N 140.419 -1.14872 1.07899 0
M  V30 1486 C 141.696 -1.81928 0.71845 0
M  V30 1487 C 142.076 -1.95417 -0.798455 0
M  V30 1488 O 141.424 -1.50997 -1.715 0
M  V30 1489 C 141.634 -3.17937 1.43935 0
M  V30 1490 C 142.982 -3.93501 1.59506 0
M  V30 1491 O 144.006 -3.27509 1.40058 0
M  V30 1492 O 142.865 -5.1183 1.91551 0
M  V30 1493 H 139.959 -0.78628 0.256305 0
M  V30 1494 H 142.505 -1.21934 1.18026 0
M  V30 1495 H 141.277 -3.0325 2.47295 0
M  V30 1496 H 140.9 -3.85619 0.968687 0
M  V30 1497 N 141.898 -0.863906 -1.31812 0
M  V30 1498 C 143.314 -0.555004 -1.49639 0
M  V30 1499 C 143.514 0.912266 -1.79666 0
M  V30 1500 O 142.57 1.69479 -1.87171 0
M  V30 1501 C 143.883 -1.44998 -2.63431 0
M  V30 1502 C 145.431 -1.45138 -2.77316 0
M  V30 1503 C 145.906 -2.33179 -3.94197 0
M  V30 1504 N 147.397 -2.31025 -4.01474 0
M  V30 1505 C 148.132 -2.95871 -4.9117 0
M  V30 1506 N 147.628 -3.69863 -5.8581 0
M  V30 1507 N 149.421 -2.85211 -4.84367 0
M  V30 1508 H 141.572 -1.81339 -1.10589 0
M  V30 1509 H 143.835 -0.77505 -0.545895 0
M  V30 1510 H 143.541 -2.49377 -2.48 0
M  V30 1511 H 143.415 -1.14409 -3.59431 0
M  V30 1512 H 145.802 -0.415201 -2.92164 0
M  V30 1513 H 145.883 -1.79747 -1.82001 0
M  V30 1514 H 145.527 -3.3687 -3.80107 0
M  V30 1515 H 145.457 -1.95897 -4.88807 0
M  V30 1516 H 147.948 -1.77238 -3.33759 0
M  V30 1517 H 148.261 -4.16486 -6.50968 0
M  V30 1518 H 146.606 -3.73971 -5.85808 0
M  V30 1519 H 149.797 -2.26948 -4.09405 0
M  V30 1520 H 149.97 -3.36027 -5.54066 0
M  V30 1521 N 143.376 1.44774 -0.622745 0
M  V30 1522 C 144.787 1.85546 -0.207226 0
M  V30 1523 C 145.138 1.52093 1.23944 0
M  V30 1524 O 144.263 0.95492 1.94191 0
M  V30 1525 C 144.858 3.36781 -0.369313 0
M  V30 1526 C 143.417 3.76399 -0.00836847 0
M  V30 1527 C 142.564 2.68664 -0.686651 0
M  V30 1528 H 145.515 1.3536 -0.828454 0
M  V30 1529 H 145.536 3.78453 0.394162 0
M  V30 1530 H 145.048 3.61098 -1.42231 0
M  V30 1531 H 143.149 3.57698 1.04322 0
M  V30 1532 H 143.262 4.7732 -0.412584 0
M  V30 1533 H 141.626 2.54404 -0.122777 0
M  V30 1534 H 142.409 2.95815 -1.74208 0
M  V30 1535 O 144.893 0.504988 1.53402 0
M  V30 1536 H 145.584 -0.0115839 1.93697 0
M  V30 END ATOM
M  V30 BEGIN BOND
M  V30 END BOND
M  V30 END CTAB
M  END
$$$$
