drugbank_target|Q9NYK1 Toll-like receptor 7 (DB00724; DB01611; DB04860; DB05127; DB05475; DB06530)
 OpenBabel12092119253D

  0  0  0     0  0            999 V3000
M  V30 BEGIN CTAB
M  V30 COUNTS 17129 17324 0 0 0
M  V30 BEGIN ATOM
M  V30 1 H -0.908 1.98254 -0.117106 0
M  V30 2 N 0 1.576 0 0
M  V30 3 C 0.933 2.03868 1.02534 0
M  V30 4 C 1.911 0.928543 1.3348 0
M  V30 5 O 3.095 1.19667 1.45644 0
M  V30 6 C 0.222 2.43627 2.35294 0
M  V30 7 C -0.732 3.65373 2.2001 0
M  V30 8 S 0.101 5.13292 1.52614 0
M  V30 9 C 1.257 5.56322 2.86805 0
M  V30 10 H 1.49 2.90518 0.631377 0
M  V30 11 H -0.977 1.52953 0.210867 0
M  V30 12 H 0.981 2.67203 3.11629 0
M  V30 13 H -0.358 1.57376 2.7183 0
M  V30 14 H -1.165 3.90944 3.18086 0
M  V30 15 H -1.563 3.418 1.51819 0
M  V30 16 H 0.729 5.58782 3.83104 0
M  V30 17 H 1.672 6.56266 2.65933 0
M  V30 18 H 2.08 4.83886 2.90714 0
M  V30 19 N 1.4781 -0.272755 1.55222 0
M  V30 20 C 2.7241 -1.00581 1.761 0
M  V30 21 C 3.0571 -1.85932 0.560625 0
M  V30 22 O 2.3321 -1.89416 -0.441801 0
M  V30 23 C 2.6151 -1.88816 3.06628 0
M  V30 24 C 2.4681 -1.06457 4.37021 0
M  V30 25 C 3.7871 -2.8752 3.33197 0
M  V30 26 H 0.9061 -0.364244 0.640699 0
M  V30 27 H 3.5481 -0.278189 1.87952 0
M  V30 28 H 1.6981 -2.50856 2.96654 0
M  V30 29 H 3.3701 -0.464863 4.58952 0
M  V30 30 H 1.6131 -0.368043 4.32236 0
M  V30 31 H 2.2841 -1.71514 5.24678 0
M  V30 32 H 4.7601 -2.35615 3.42965 0
M  V30 33 H 3.6361 -3.46399 4.25792 0
M  V30 34 H 3.8971 -3.62657 2.52849 0
M  V30 35 N 2.9562 -1.48159 -0.537278 0
M  V30 36 C 4.2032 -1.55804 -1.29349 0
M  V30 37 C 4.5312 -0.228802 -1.9315 0
M  V30 38 O 3.7862 0.780242 -1.79473 0
M  V30 39 C 4.0852 -2.63956 -2.40961 0
M  V30 40 C 3.7512 -4.0662 -1.94861 0
M  V30 41 C 2.4132 -4.45452 -1.82006 0
M  V30 42 C 4.7652 -4.96055 -1.59933 0
M  V30 43 C 2.0932 -5.71531 -1.32547 0
M  V30 44 C 4.4452 -6.22617 -1.11939 0
M  V30 45 C 3.1092 -6.60312 -0.976951 0
M  V30 46 H 2.3792 -0.570129 -0.473322 0
M  V30 47 H 5.0262 -1.81845 -0.600372 0
M  V30 48 H 3.3312 -2.31747 -3.15912 0
M  V30 49 H 5.0282 -2.67089 -2.99107 0
M  V30 50 H 1.6182 -3.75949 -2.05815 0
M  V30 51 H 5.8022 -4.66738 -1.68728 0
M  V30 52 H 1.0582 -5.99468 -1.202 0
M  V30 53 H 5.2322 -6.91318 -0.839811 0
M  V30 54 H 2.8592 -7.57895 -0.591501 0
M  V30 55 N 4.4343 0.785586 -1.36625 0
M  V30 56 C 5.8453 1.36101 -1.27803 0
M  V30 57 C 6.1963 1.96035 0.0804875 0
M  V30 58 O 5.3213 1.92834 0.982042 0
M  V30 59 C 5.9163 2.47442 -2.31426 0
M  V30 60 C 4.4753 3.00789 -2.26281 0
M  V30 61 C 3.6223 1.73896 -2.15999 0
M  V30 62 H 6.5733 0.586928 -1.47448 0
M  V30 63 H 6.5943 3.2656 -1.95291 0
M  V30 64 H 6.1063 2.03791 -3.30289 0
M  V30 65 H 4.2073 3.48851 -1.30896 0
M  V30 66 H 4.3203 3.57343 -3.19128 0
M  V30 67 H 2.6843 1.9628 -1.62316 0
M  V30 68 H 3.4673 1.32368 -3.16755 0
M  V30 69 N 5.9124 1.20967 1.01018 0
M  V30 70 C 6.8454 0.907578 2.09376 0
M  V30 71 C 7.8234 -0.142868 1.61971 0
M  V30 72 O 9.0074 -0.0150391 1.88494 0
M  V30 73 C 6.1344 0.361791 3.36762 0
M  V30 74 C 5.1804 1.39423 4.03068 0
M  V30 75 S 6.0134 2.96159 4.4615 0
M  V30 76 C 7.1694 2.43173 5.7673 0
M  V30 77 H 7.4024 1.82519 2.34678 0
M  V30 78 H 4.9354 1.03884 1.14225 0
M  V30 79 H 6.8934 0.0534523 4.10465 0
M  V30 80 H 5.5544 -0.53443 3.0952 0
M  V30 81 H 4.7474 0.961853 4.94737 0
M  V30 82 H 4.3494 1.65038 3.35617 0
M  V30 83 H 6.6414 1.83335 6.52223 0
M  V30 84 H 7.5844 3.33264 6.24773 0
M  V30 85 H 7.9924 1.85069 5.33301 0
M  V30 86 N 7.3905 -1.2043 1.01659 0
M  V30 87 C 8.6365 -1.90356 0.716674 0
M  V30 88 C 8.9915 -1.77367 -0.745557 0
M  V30 89 O 8.2845 -1.1471 -1.53467 0
M  V30 90 C 8.4785 -3.40464 1.08714 0
M  V30 91 C 8.3075 -3.6806 2.58384 0
M  V30 92 C 7.0775 -3.86775 3.25167 0
M  V30 93 C 9.2755 -3.70623 3.56572 0
M  V30 94 N 7.2575 -4.01889 4.64067 0
M  V30 95 C 8.6285 -3.91161 4.81034 0
M  V30 96 C 10.6835 -3.53586 3.50544 0
M  V30 97 C 9.3865 -3.96428 6.00198 0
M  V30 98 C 11.4125 -3.60125 4.6911 0
M  V30 99 C 10.7745 -3.81135 5.92381 0
M  V30 100 H 6.8735 -0.716226 0.313918 0
M  V30 101 H 9.4575 -1.44815 1.30141 0
M  V30 102 H 7.6285 -3.84757 0.530745 0
M  V30 103 H 9.3605 -3.97863 0.740763 0
M  V30 104 H 6.1155 -3.85156 2.75594 0
M  V30 105 H 6.5395 -4.13323 5.36184 0
M  V30 106 H 11.1815 -3.36308 2.56235 0
M  V30 107 H 8.8995 -4.12502 6.94887 0
M  V30 108 H 12.4855 -3.4825 4.66062 0
M  V30 109 H 11.3655 -3.86054 6.82592 0
M  V30 110 N 8.8686 -0.792821 -1.36206 0
M  V30 111 C 10.0966 -0.378825 -2.03402 0
M  V30 112 C 10.5116 1.00586 -1.59774 0
M  V30 113 O 9.8686 1.64574 -0.788764 0
M  V30 114 C 9.9196 -0.43683 -3.58851 0
M  V30 115 O 9.6406 -1.76691 -4.00889 0
M  V30 116 C 11.1416 -0.0138943 -4.43298 0
M  V30 117 H 8.3616 -0.155673 -0.652692 0
M  V30 118 H 10.9056 -1.07261 -1.74113 0
M  V30 119 H 9.0606 0.208575 -3.86838 0
M  V30 120 H 9.4746 -1.72011 -4.95492 0
M  V30 121 H 10.9486 -0.105615 -5.51899 0
M  V30 122 H 11.4256 1.03915 -4.2673 0
M  V30 123 H 12.0316 -0.63192 -4.20579 0
M  V30 124 N 10.3467 1.47872 -0.545128 0
M  V30 125 C 11.2767 2.32661 0.197793 0
M  V30 126 C 12.2577 1.43041 0.920504 0
M  V30 127 O 13.4427 1.71912 0.90333 0
M  V30 128 C 10.5727 3.24569 1.23582 0
M  V30 129 C 9.5267 4.23333 0.630323 0
M  V30 130 C 8.8527 5.0448 1.77211 0
M  V30 131 C 10.1527 5.20704 -0.407974 0
M  V30 132 H 11.8467 2.95024 -0.510045 0
M  V30 133 H 9.3927 1.4187 -0.246731 0
M  V30 134 H 11.3457 3.8272 1.76362 0
M  V30 135 H 10.0697 2.60236 1.97344 0
M  V30 136 H 8.7287 3.6639 0.123922 0
M  V30 137 H 8.3767 4.36561 2.49847 0
M  V30 138 H 8.0767 5.71339 1.37281 0
M  V30 139 H 9.6007 5.65487 2.3034 0
M  V30 140 H 11.0147 5.7329 0.033305 0
M  V30 141 H 9.4117 5.95699 -0.725486 0
M  V30 142 H 10.4817 4.66917 -1.30828 0
M  V30 143 N 11.8248 0.280983 1.55075 0
M  V30 144 C 12.7718 -0.603937 2.22758 0
M  V30 145 C 13.7418 -1.1452 1.20309 0
M  V30 146 O 14.9268 -1.19343 1.48869 0
M  V30 147 C 12.0668 -1.77947 2.95684 0
M  V30 148 C 11.1798 -1.2715 4.12864 0
M  V30 149 C 10.3148 -2.4093 4.7342 0
M  V30 150 C 9.3538 -1.87165 5.82783 0
M  V30 151 N 8.4908 -2.94441 6.37377 0
M  V30 152 H 13.3308 -0.020124 2.97993 0
M  V30 153 H 10.8678 0.00183425 1.471 0
M  V30 154 H 12.8258 -2.47055 3.36184 0
M  V30 155 H 11.4558 -2.33522 2.22861 0
M  V30 156 H 10.5078 -0.473331 3.77444 0
M  V30 157 H 11.8198 -0.837751 4.91715 0
M  V30 158 H 10.9738 -3.18021 5.1667 0
M  V30 159 H 9.7128 -2.87623 3.93859 0
M  V30 160 H 8.7178 -1.08556 5.38976 0
M  V30 161 H 9.9428 -1.41401 6.64216 0
M  V30 162 H 7.8888 -3.40505 5.60707 0
M  V30 163 H 7.8058 -2.55501 7.11516 0
M  V30 164 H 9.0738 -3.71489 6.85285 0
M  V30 165 N 13.3029 -1.57598 0.00835791 0
M  V30 166 C 14.7189 -1.55764 -0.347822 0
M  V30 167 C 14.9189 -1.01186 -1.74252 0
M  V30 168 O 13.9749 -0.649371 -2.44007 0
M  V30 169 C 15.2879 -2.99927 -0.215407 0
M  V30 170 C 16.8359 -3.11656 -0.289725 0
M  V30 171 C 17.3109 -4.57621 -0.18634 0
M  V30 172 N 18.8019 -4.62557 -0.243978 0
M  V30 173 C 19.5369 -5.73094 -0.18745 0
M  V30 174 N 19.0329 -6.92753 -0.0810331 0
M  V30 175 N 20.8259 -5.61588 -0.239925 0
M  V30 176 H 12.9769 -1.91411 0.92062 0
M  V30 177 H 15.2399 -0.879562 0.353659 0
M  V30 178 H 14.9459 -3.43729 0.744512 0
M  V30 179 H 14.8199 -3.63865 -0.994097 0
M  V30 180 H 17.2069 -2.67779 -1.24009 0
M  V30 181 H 17.2879 -2.5048 0.51898 0
M  V30 182 H 16.9319 -5.02174 0.760519 0
M  V30 183 H 16.8619 -5.16752 -1.01364 0
M  V30 184 H 19.3529 -3.76481 -0.327217 0
M  V30 185 H 19.6659 -7.72787 -0.0440241 0
M  V30 186 H 18.0109 -6.94984 -0.0465419 0
M  V30 187 H 21.2019 -4.66996 -0.321317 0
M  V30 188 H 21.3749 -6.47714 -0.192407 0
M  V30 189 N 14.781 0.264519 -1.55364 0
M  V30 190 C 15.713 1.34965 -1.85248 0
M  V30 191 C 16.726 1.45136 -0.737525 0
M  V30 192 O 17.915 1.46801 -1.01547 0
M  V30 193 C 15.015 2.73008 -2.00797 0
M  V30 194 C 14.188 2.85324 -3.31525 0
M  V30 195 C 13.247 4.04097 -3.37034 0
M  V30 196 O 12.273 3.94455 -4.10358 0
M  V30 197 N 13.475 5.16458 -2.65049 0
M  V30 198 H 16.24 1.09672 -2.78913 0
M  V30 199 H 13.801 0.454635 -1.55386 0
M  V30 200 H 15.793 3.50772 -2.01844 0
M  V30 201 H 14.363 2.91087 -1.1396 0
M  V30 202 H 13.583 1.94377 -3.42945 0
M  V30 203 H 14.871 2.9049 -4.17724 0
M  V30 204 H 14.269 5.27181 -2.05175 0
M  V30 205 H 12.826 5.92422 -2.71809 0
M  V30 206 N 16.2591 1.48442 0.529413 0
M  V30 207 C 17.5081 1.55742 1.28169 0
M  V30 208 C 17.8211 0.236511 1.94165 0
M  V30 209 O 19.0271 0.187761 2.7085 0
M  V30 210 C 17.4831 2.74667 2.32564 0
M  V30 211 C 17.0911 4.13402 1.72636 0
M  V30 212 C 18.8351 2.9128 3.08798 0
M  V30 213 C 16.7421 5.23587 2.74975 0
M  V30 214 H 15.6721 0.579796 0.48203 0
M  V30 215 H 18.3231 1.74776 0.559056 0
M  V30 216 H 16.7051 2.49067 3.07866 0
M  V30 217 H 17.8791 4.49022 1.03519 0
M  V30 218 H 16.1941 4.0191 1.08892 0
M  V30 219 H 18.7911 3.70767 3.85274 0
M  V30 220 H 19.1341 2.00757 3.64695 0
M  V30 221 H 19.6671 3.16782 2.40611 0
M  V30 222 H 16.4061 6.16076 2.23897 0
M  V30 223 H 15.9261 4.92454 3.42417 0
M  V30 224 H 17.6051 5.51724 3.37949 0
M  V30 225 N 17.7372 -0.778329 1.37039 0
M  V30 226 C 18.6672 -1.90546 1.34962 0
M  V30 227 C 19.6482 -1.68681 0.219274 0
M  V30 228 O 20.8332 -1.89634 0.418624 0
M  V30 229 C 17.9632 -3.27734 1.14925 0
M  V30 230 C 16.9172 -3.64147 2.24902 0
M  V30 231 C 16.2432 -4.99806 1.89996 0
M  V30 232 C 17.5432 -3.71579 3.67051 0
M  V30 233 H 19.2372 -1.92541 2.29277 0
M  V30 234 H 16.7832 -0.924948 1.10366 0
M  V30 235 H 18.7362 -4.06215 1.12104 0
M  V30 236 H 17.4602 -3.26154 0.170631 0
M  V30 237 H 16.1192 -2.8797 2.26868 0
M  V30 238 H 15.7672 -4.94759 0.906796 0
M  V30 239 H 15.4672 -5.25139 2.63634 0
M  V30 240 H 16.9912 -5.80694 1.88749 0
M  V30 241 H 18.4052 -4.40227 3.67251 0
M  V30 242 H 16.8022 -4.08405 4.39688 0
M  V30 243 H 17.8722 -2.72404 4.01154 0
M  V30 244 N 19.2153 -1.21501 -1.00376 0
M  V30 245 C 20.4643 -1.02718 -1.73586 0
M  V30 246 C 20.7773 0.439589 -1.90596 0
M  V30 247 O 21.9833 0.746848 -2.61026 0
M  V30 248 C 20.4393 -1.78929 -3.1227 0
M  V30 249 C 20.0473 -3.29783 -3.03228 0
M  V30 250 C 21.7913 -1.68557 -3.89601 0
M  V30 251 C 19.6983 -3.98479 -4.36999 0
M  V30 252 H 18.6283 -0.380733 -0.650814 0
M  V30 253 H 21.2793 -1.45248 -1.1214 0
M  V30 254 H 19.6613 -1.29192 -3.74333 0
M  V30 255 H 20.8353 -3.86832 -2.50395 0
M  V30 256 H 19.1503 -3.40711 -2.39385 0
M  V30 257 H 21.7473 -2.17211 -4.88593 0
M  V30 258 H 22.0903 -0.644021 -4.11288 0
M  V30 259 H 22.6233 -2.15778 -3.34193 0
M  V30 260 H 19.3623 -5.02841 -4.20513 0
M  V30 261 H 18.8823 -3.46219 -4.89788 0
M  V30 262 H 20.5613 -4.03462 -5.05794 0
M  V30 263 N 20.6934 1.19889 -1.02296 0
M  V30 264 C 21.6234 2.25141 -0.619174 0
M  V30 265 C 22.6044 1.66051 0.368915 0
M  V30 266 O 23.7894 1.92546 0.252941 0
M  V30 267 C 20.9194 3.4728 0.0368783 0
M  V30 268 C 19.8734 4.19005 -0.872865 0
M  V30 269 C 19.1994 5.34637 -0.0822402 0
M  V30 270 C 20.4994 4.74452 -2.18387 0
M  V30 271 H 22.1934 2.59171 -1.49903 0
M  V30 272 H 19.7394 1.24579 -0.722222 0
M  V30 273 H 21.6924 4.20098 0.330958 0
M  V30 274 H 20.4164 3.12433 0.95149 0
M  V30 275 H 19.0754 3.48061 -1.15105 0
M  V30 276 H 18.7234 4.96034 0.83422 0
M  V30 277 H 18.4234 5.83557 -0.688149 0
M  V30 278 H 19.9474 6.10255 0.205238 0
M  V30 279 H 21.3614 5.39055 -1.95172 0
M  V30 280 H 19.7584 5.33834 -2.74119 0
M  V30 281 H 20.8284 3.92844 -2.84257 0
M  V30 282 N 22.1715 0.800033 1.35784 0
M  V30 283 C 23.4185 0.377342 1.98953 0
M  V30 284 C 23.7465 -1.05378 1.6348 0
M  V30 285 O 23.0015 -1.74459 0.886707 0
M  V30 286 C 23.3005 0.500276 3.53881 0
M  V30 287 C 22.9665 1.89375 4.09204 0
M  V30 288 C 21.6285 2.27499 4.24025 0
M  V30 289 C 23.9805 2.8057 4.39238 0
M  V30 290 C 21.3085 3.562 4.66195 0
M  V30 291 C 23.6605 4.0871 4.82844 0
M  V30 292 C 22.3245 4.46843 4.95871 0
M  V30 293 H 21.5945 0.138079 0.728021 0
M  V30 294 H 24.2415 1.01955 1.62103 0
M  V30 295 H 22.5465 -0.225405 3.91151 0
M  V30 296 H 24.2435 0.154097 4.00704 0
M  V30 297 H 20.8335 1.58753 3.98115 0
M  V30 298 H 25.0175 2.52367 4.27346 0
M  V30 299 H 20.2735 3.85602 4.74469 0
M  V30 300 H 24.4475 4.79481 5.05046 0
M  V30 301 H 22.0745 5.46623 5.28306 0
M  V30 302 N 23.6496 -1.47581 0.552962 0
M  V30 303 C 24.5976 -2.31648 -0.21023 0
M  V30 304 C 25.5916 -1.42663 -0.913432 0
M  V30 305 O 26.7976 -1.5945 -0.835201 0
M  V30 306 H 23.1726 -0.746989 -0.0866676 0
M  V30 307 H 25.1436 -2.93869 0.518051 0
M  V30 308 C 23.8926 -3.25226 -1.22976 0
M  V30 309 H 23.2156 -3.93658 -0.698077 0
M  V30 310 H 24.6556 -3.86889 -1.73473 0
M  V30 311 C 23.1146 -2.48448 -2.27542 0
M  V30 312 O 23.6446 -2.22585 -3.34393 0
M  V30 313 N 21.8506 -2.09532 -2.01357 0
M  V30 314 H 21.3976 -2.30765 -1.14478 0
M  V30 315 H 21.3556 -1.58476 -2.71538 0
M  V30 316 N 25.1277 -0.289203 -1.54924 0
M  V30 317 C 26.3767 0.324231 -1.99077 0
M  V30 318 C 26.6897 1.5591 -1.18117 0
M  V30 319 O 27.8957 2.24637 -1.52481 0
M  V30 320 C 26.3517 0.628209 -3.54375 0
M  V30 321 C 25.9597 -0.587647 -4.44129 0
M  V30 322 C 27.7037 1.20349 -4.07083 0
M  V30 323 C 25.6107 -0.257475 -5.90839 0
M  V30 324 H 24.5407 0.124924 -0.743579 0
M  V30 325 H 27.1917 -0.396063 -1.79175 0
M  V30 326 H 25.5737 1.40778 -3.70132 0
M  V30 327 H 26.7477 -1.36418 -4.40144 0
M  V30 328 H 25.0627 -1.08074 -4.0213 0
M  V30 329 H 27.6597 1.46456 -5.14252 0
M  V30 330 H 28.0027 2.14195 -3.56968 0
M  V30 331 H 28.5357 0.485889 -3.94821 0
M  V30 332 H 25.2747 -1.16419 -6.45079 0
M  V30 333 H 24.7947 0.482018 -5.9786 0
M  V30 334 H 26.4737 0.145238 -6.46837 0
M  V30 335 N 26.6058 1.57591 -0.0167156 0
M  V30 336 C 27.8548 1.90461 0.663877 0
M  V30 337 C 28.1678 0.893515 1.73999 0
M  V30 338 O 29.3738 1.11302 2.47637 0
M  V30 339 C 27.8298 3.38155 1.23204 0
M  V30 340 C 27.4378 4.47597 0.189866 0
M  V30 341 C 29.1818 3.80111 1.88986 0
M  V30 342 C 27.0888 5.86379 0.768964 0
M  V30 343 H 26.0188 0.710738 0.251729 0
M  V30 344 H 28.6698 1.83326 -0.0799926 0
M  V30 345 H 27.0518 3.40182 2.02712 0
M  V30 346 H 28.2258 4.57112 -0.581846 0
M  V30 347 H 26.5408 4.14766 -0.368475 0
M  V30 348 H 29.1378 4.81145 2.33247 0
M  V30 349 H 29.4808 3.14511 2.72743 0
M  V30 350 H 30.0138 3.80454 1.16187 0
M  V30 351 H 26.7528 6.55493 -0.0301957 0
M  V30 352 H 26.2728 5.80496 1.50945 0
M  V30 353 H 27.9518 6.34563 1.26251 0
M  V30 354 N 28.0839 -0.256276 1.55502 0
M  V30 355 C 29.0139 -1.32102 1.92539 0
M  V30 356 C 29.9949 -1.50684 0.789194 0
M  V30 357 O 31.1799 -1.63449 1.04872 0
M  V30 358 C 28.3099 -2.67752 2.21192 0
M  V30 359 C 27.2639 -2.63878 3.36975 0
M  V30 360 C 26.5899 -4.03236 3.51147 0
M  V30 361 C 27.8899 -2.21682 4.72921 0
M  V30 362 H 29.5839 -1.01351 2.81724 0
M  V30 363 H 27.1299 -0.486105 1.35547 0
M  V30 364 H 29.0829 -3.42365 2.45691 0
M  V30 365 H 27.8069 -3.0012 1.28824 0
M  V30 366 H 26.4659 -1.91722 3.12471 0
M  V30 367 H 26.1139 -4.32854 2.56216 0
M  V30 368 H 25.8139 -4.01535 4.29003 0
M  V30 369 H 27.3379 -4.79563 3.77957 0
M  V30 370 H 28.7519 -2.86023 4.96854 0
M  V30 371 H 27.1489 -2.3111 5.53812 0
M  V30 372 H 28.2189 -1.16833 4.70615 0
M  V30 373 N 29.562 -1.4872 -0.521534 0
M  V30 374 C 30.811 -1.56419 -1.27341 0
M  V30 375 C 31.124 -0.246805 -1.94037 0
M  V30 376 O 32.33 -0.202122 -2.70747 0
M  V30 377 C 30.786 -2.75896 -2.31105 0
M  V30 378 C 30.394 -4.14311 -1.70441 0
M  V30 379 C 32.138 -2.92913 -3.07249 0
M  V30 380 C 30.045 -5.25038 -2.72194 0
M  V30 381 H 28.975 -0.582344 -0.478949 0
M  V30 382 H 31.626 -1.75071 -0.549779 0
M  V30 383 H 30.008 -2.50697 -3.06541 0
M  V30 384 H 31.182 -4.49564 -1.01136 0
M  V30 385 H 29.497 -4.02482 -1.06759 0
M  V30 386 H 32.094 -3.72805 -3.83302 0
M  V30 387 H 32.437 -2.02689 -3.63625 0
M  V30 388 H 32.97 -3.18054 -2.38928 0
M  V30 389 H 29.709 -6.17255 -2.20627 0
M  V30 390 H 29.229 -4.94263 -3.39801 0
M  V30 391 H 30.908 -5.53508 -3.35019 0
M  V30 392 N 31.0401 0.771051 -1.3745 0
M  V30 393 C 32.2651 1.56529 -1.36065 0
M  V30 394 C 32.6901 1.88029 0.0515859 0
M  V30 395 O 32.0481 1.49282 1.02882 0
M  V30 396 C 32.0961 2.85187 -2.20683 0
M  V30 397 O 31.2001 3.79593 -1.61193 0
M  V30 398 H 30.5411 0.47411 -0.464883 0
M  V30 399 H 33.0711 0.954269 -1.80983 0
M  V30 400 H 33.0811 3.34283 -2.33921 0
M  V30 401 H 31.7561 2.61588 -3.23334 0
M  V30 402 H 30.3331 3.38239 -1.56999 0
M  V30 403 N 32.5182 1.22032 0.997298 0
M  V30 404 C 33.4652 0.986467 2.08656 0
M  V30 405 C 34.4352 -0.0902671 1.65855 0
M  V30 406 O 35.6202 0.0584294 1.90711 0
M  V30 407 C 32.7602 0.565569 3.40434 0
M  V30 408 C 31.8732 1.71259 3.96604 0
M  V30 409 C 31.0082 1.24011 5.16522 0
M  V30 410 C 30.0472 2.35896 5.64818 0
M  V30 411 N 29.1842 1.89726 6.7598 0
M  V30 412 H 34.0242 1.91892 2.27994 0
M  V30 413 H 31.5612 0.956199 1.11782 0
M  V30 414 H 33.5192 0.302738 4.161 0
M  V30 415 H 32.1492 -0.329879 3.2111 0
M  V30 416 H 31.2012 2.08986 3.17851 0
M  V30 417 H 32.5132 2.55436 4.28432 0
M  V30 418 H 31.6672 0.934395 5.99461 0
M  V30 419 H 30.4062 0.368487 4.86306 0
M  V30 420 H 29.4112 2.67261 4.8047 0
M  V30 421 H 30.6362 3.23567 5.97061 0
M  V30 422 H 28.5822 1.0492 6.47555 0
M  V30 423 H 28.4992 2.67471 7.07103 0
M  V30 424 H 29.7672 1.62211 7.62435 0
M  V30 425 N 33.9963 -1.19345 1.0293 0
M  V30 426 C 34.9263 -2.2481 0.631105 0
M  V30 427 C 35.9073 -1.66245 -0.360104 0
M  V30 428 O 37.0923 -1.92677 -0.242726 0
M  V30 429 C 34.2223 -3.47295 -0.0184607 0
M  V30 430 C 33.1763 -4.18536 0.895073 0
M  V30 431 C 32.5023 -5.34586 0.110592 0
M  V30 432 C 33.8023 -4.73287 2.209 0
M  V30 433 H 35.4963 -2.58372 1.51275 0
M  V30 434 H 33.0423 -1.24194 0.728818 0
M  V30 435 H 34.9953 -4.20268 -0.308675 0
M  V30 436 H 33.7193 -3.12933 -0.934907 0
M  V30 437 H 32.3783 -3.47446 1.16949 0
M  V30 438 H 32.0263 -4.96469 -0.807902 0
M  V30 439 H 31.7263 -5.83183 0.719087 0
M  V30 440 H 33.2503 -6.10355 -0.172871 0
M  V30 441 H 34.6643 -5.38013 1.98028 0
M  V30 442 H 33.0613 -5.32373 2.76946 0
M  V30 443 H 34.1313 -3.91331 2.86336 0
M  V30 444 N 35.4744 -0.807222 -1.35358 0
M  V30 445 C 36.4044 -0.232509 -2.3234 0
M  V30 446 C 37.3854 0.642386 -1.57504 0
M  V30 447 O 38.5704 0.572526 -1.85569 0
M  V30 448 C 35.7004 0.619238 -3.41735 0
M  V30 449 C 34.6544 -0.157215 -4.27711 0
M  V30 450 C 33.9804 0.816273 -5.28433 0
M  V30 451 C 35.2804 -1.35656 -5.04376 0
M  V30 452 H 36.9744 -1.04276 -2.80654 0
M  V30 453 H 34.5204 -0.50288 -1.34934 0
M  V30 454 H 36.4734 1.03137 -4.08584 0
M  V30 455 H 35.1974 1.46239 -2.92031 0
M  V30 456 H 33.8564 -0.550525 -3.62443 0
M  V30 457 H 33.5044 1.65494 -4.74996 0
M  V30 458 H 33.2044 0.301067 -5.86828 0
M  V30 459 H 34.7284 1.22659 -5.98153 0
M  V30 460 H 36.1424 -1.01927 -5.64166 0
M  V30 461 H 34.5394 -1.8063 -5.7227 0
M  V30 462 H 35.6094 -2.14288 -4.34981 0
M  V30 463 N 36.9525 1.47285 -0.560781 0
M  V30 464 C 38.2005 2.02064 -0.0379868 0
M  V30 465 C 38.5215 1.43711 1.31803 0
M  V30 466 O 37.7915 0.61362 1.86042 0
M  V30 467 H 36.3715 0.746918 -0.0110531 0
M  V30 468 H 39.0335 1.80648 -0.731598 0
M  V30 469 H 38.1295 3.12064 0.0474463 0
M  V30 470 N 38.4306 0.297415 1.54768 0
M  V30 471 C 39.3936 -0.567375 2.22066 0
M  V30 472 C 40.3936 -1.06409 1.20556 0
M  V30 473 O 41.5836 -0.960691 1.45315 0
M  V30 474 C 38.7156 -1.78517 2.90421 0
M  V30 475 H 39.9086 0.0205534 2.99893 0
M  V30 476 H 37.4616 0.0482163 1.56226 0
M  V30 477 H 38.1966 -2.41303 2.16664 0
M  V30 478 H 37.9816 -1.43669 3.64831 0
M  V30 479 H 39.4716 -2.39964 3.41771 0
M  V30 480 N 39.9087 -1.5758 0.0250728 0
M  V30 481 C 41.3247 -1.56124 -0.331282 0
M  V30 482 C 41.5247 -1.03029 -1.73169 0
M  V30 483 O 40.5807 -0.675215 -2.43305 0
M  V30 484 C 41.8937 -3.00139 -0.183584 0
M  V30 485 C 43.4417 -3.11946 -0.256654 0
M  V30 486 C 43.9167 -4.57793 -0.137792 0
M  V30 487 N 45.4077 -4.6279 -0.194904 0
M  V30 488 C 46.1427 -5.7326 -0.126655 0
M  V30 489 N 45.6387 -6.928 -0.00755288 0
M  V30 490 N 47.4317 -5.61811 -0.180348 0
M  V30 491 H 39.5827 -1.90424 0.94087 0
M  V30 492 H 41.8457 -0.875761 0.362968 0
M  V30 493 H 41.5517 -3.4292 0.780927 0
M  V30 494 H 41.4257 -3.64899 -0.955448 0
M  V30 495 H 43.8127 -2.69079 -1.21162 0
M  V30 496 H 43.8937 -2.49915 0.545517 0
M  V30 497 H 43.5377 -5.01339 0.813739 0
M  V30 498 H 43.4677 -5.17798 -0.958775 0
M  V30 499 H 45.9587 -3.76807 -0.287267 0
M  V30 500 H 46.2717 -7.72791 0.0379428 0
M  V30 501 H 44.6167 -6.94995 0.0271731 0
M  V30 502 H 47.8077 -4.6731 -0.271767 0
M  V30 503 H 47.9807 -6.47882 -0.123697 0
M  V30 504 N 41.3868 0.248026 -1.55636 0
M  V30 505 C 42.6328 0.973427 -1.78594 0
M  V30 506 C 42.9878 1.83007 -0.593823 0
M  V30 507 O 42.2808 1.87097 0.412961 0
M  V30 508 C 42.4748 1.86819 -3.04686 0
M  V30 509 C 42.3038 1.09965 -4.36048 0
M  V30 510 C 41.0738 0.805204 -4.98843 0
M  V30 511 C 43.2718 0.477783 -5.12076 0
M  V30 512 N 41.2538 0.0124859 -6.13899 0
M  V30 513 C 42.6248 -0.179565 -6.1974 0
M  V30 514 C 44.6798 0.388136 -4.96385 0
M  V30 515 C 43.3828 -0.91795 -7.13419 0
M  V30 516 C 45.4088 -0.336716 -5.90441 0
M  V30 517 C 44.7708 -0.982705 -6.97511 0
M  V30 518 H 40.8698 0.337348 -0.705493 0
M  V30 519 H 43.4538 0.24667 -1.93131 0
M  V30 520 H 41.6248 2.56698 -2.9148 0
M  V30 521 H 43.3568 2.52907 -3.15944 0
M  V30 522 H 40.1118 1.11671 -4.60246 0
M  V30 523 H 40.5358 -0.371933 -6.75978 0
M  V30 524 H 45.1778 0.873237 -4.13684 0
M  V30 525 H 42.8958 -1.41466 -7.95621 0
M  V30 526 H 46.4818 -0.406731 -5.80377 0
M  V30 527 H 45.3618 -1.53464 -7.69037 0
M  V30 528 N 42.8649 1.48995 0.513639 0
M  V30 529 C 44.1119 1.57843 1.26854 0
M  V30 530 C 44.4399 0.259501 1.92761 0
M  V30 531 O 43.6949 -0.75159 1.80692 0
M  V30 532 C 43.9939 2.67756 2.36731 0
M  V30 533 C 43.6599 4.09669 1.88368 0
M  V30 534 C 42.3219 4.48291 1.74896 0
M  V30 535 C 44.6739 4.98537 1.52021 0
M  V30 536 C 42.0019 5.73568 1.23438 0
M  V30 537 C 44.3539 6.24319 1.0202 0
M  V30 538 C 43.0179 6.61783 0.871778 0
M  V30 539 H 42.2879 0.577587 0.464192 0
M  V30 540 H 44.9349 1.82778 0.571366 0
M  V30 541 H 43.2399 2.36743 3.12185 0
M  V30 542 H 44.9369 2.71813 2.9482 0
M  V30 543 H 41.5269 3.79176 1.99808 0
M  V30 544 H 45.7109 4.69363 1.61281 0
M  V30 545 H 40.9669 6.01304 1.10648 0
M  V30 546 H 45.1409 6.92566 0.729722 0
M  V30 547 H 42.7679 7.5874 0.470852 0
M  V30 548 N 44.343 -0.763751 1.37857 0
M  V30 549 C 45.754 -1.3405 1.29952 0
M  V30 550 C 46.105 -1.96138 -0.0492898 0
M  V30 551 O 45.23 -1.94372 -0.951239 0
M  V30 552 C 45.825 -2.43729 2.35333 0
M  V30 553 C 44.384 -2.97151 2.31037 0
M  V30 554 C 43.531 -1.70438 2.18738 0
M  V30 555 H 46.482 -0.563396 1.48363 0
M  V30 556 H 46.503 -3.23412 2.00462 0
M  V30 557 H 46.015 -1.9851 3.33489 0
M  V30 558 H 44.116 -3.46724 1.3643 0
M  V30 559 H 44.229 -3.52221 3.24772 0
M  V30 560 H 42.593 -1.93673 1.65418 0
M  V30 561 H 43.376 -1.27312 3.18821 0
M  V30 562 N 45.8211 -1.22559 -0.990812 0
M  V30 563 C 46.7681 -0.997519 -2.0813 0
M  V30 564 C 47.7381 0.0814702 -1.659 0
M  V30 565 O 48.9231 -0.0685424 -1.90677 0
M  V30 566 C 46.0631 -0.583615 -3.40129 0
M  V30 567 C 45.1761 -1.7336 -3.9569 0
M  V30 568 C 44.3111 -1.26748 -5.15857 0
M  V30 569 C 43.3501 -2.38888 -5.63559 0
M  V30 570 N 42.4871 -1.93308 -6.74964 0
M  V30 571 H 47.3271 -1.93099 -2.26973 0
M  V30 572 H 44.8641 -0.962114 -1.11273 0
M  V30 573 H 46.8221 -0.324801 -4.15934 0
M  V30 574 H 45.4521 0.312845 -3.2128 0
M  V30 575 H 44.5041 -2.10669 -3.16738 0
M  V30 576 H 45.8161 -2.57704 -4.27071 0
M  V30 577 H 44.9701 -0.966173 -5.98957 0
M  V30 578 H 43.7091 -0.394272 -4.86104 0
M  V30 579 H 42.7141 -2.69805 -4.79046 0
M  V30 580 H 43.9391 -3.26728 -5.95336 0
M  V30 581 H 41.8851 -1.08352 -6.4699 0
M  V30 582 H 41.8021 -2.71217 -7.05675 0
M  V30 583 H 43.0701 -1.66252 -7.61564 0
M  V30 584 N 47.2992 1.18797 -1.03562 0
M  V30 585 C 48.5272 1.92599 -0.755869 0
M  V30 586 C 48.9422 1.75886 0.686271 0
M  V30 587 O 48.2992 1.08517 1.46732 0
M  V30 588 C 48.3502 3.44159 -1.10619 0
M  V30 589 O 48.0712 3.60341 -2.4917 0
M  V30 590 C 49.5722 4.3507 -0.850214 0
M  V30 591 H 46.7922 0.611587 -0.276048 0
M  V30 592 H 49.3362 1.50742 -1.38192 0
M  V30 593 H 47.4912 3.83823 -0.525194 0
M  V30 594 H 47.9052 4.54128 -2.62427 0
M  V30 595 H 49.3792 5.39989 -1.14523 0
M  V30 596 H 49.8562 4.38673 0.215176 0
M  V30 597 H 50.4622 4.01097 -1.41426 0
M  V30 598 N 48.7773 0.814389 1.34928 0
M  V30 599 C 49.7073 0.244827 2.32213 0
M  V30 600 C 50.6883 -0.634024 1.57842 0
M  V30 601 O 51.8733 -0.562676 1.8587 0
M  V30 602 C 49.0033 -0.601106 3.42058 0
M  V30 603 C 47.9573 0.179896 4.27622 0
M  V30 604 C 47.2833 -0.788237 5.28858 0
M  V30 605 C 48.5833 1.38329 5.03649 0
M  V30 606 H 50.2773 1.05763 2.80097 0
M  V30 607 H 47.8233 0.510029 1.34665 0
M  V30 608 H 49.7763 -1.00968 4.09125 0
M  V30 609 H 48.5003 -1.44688 2.92802 0
M  V30 610 H 47.1593 0.569739 3.62146 0
M  V30 611 H 46.8073 -1.62973 4.75866 0
M  V30 612 H 46.5073 -0.269942 5.8698 0
M  V30 613 H 48.0313 -1.19485 5.98795 0
M  V30 614 H 49.4453 1.04918 5.63618 0
M  V30 615 H 47.8423 1.83662 5.71304 0
M  V30 616 H 48.9123 2.16592 4.33839 0
M  V30 617 N 50.2554 -1.46986 0.568584 0
M  V30 618 C 51.6664 -1.86188 0.138219 0
M  V30 619 C 52.0174 -1.47388 -1.29504 0
M  V30 620 O 51.1424 -0.88219 -1.97602 0
M  V30 621 C 51.7374 -3.3792 0.244065 0
M  V30 622 C 50.2964 -3.76171 -0.131335 0
M  V30 623 C 49.4434 -2.71027 0.586465 0
M  V30 624 H 52.3944 -1.38342 0.777645 0
M  V30 625 H 52.4154 -3.76729 -0.534351 0
M  V30 626 H 51.9274 -3.66128 1.28731 0
M  V30 627 H 50.0284 -3.5358 -1.17526 0
M  V30 628 H 50.1414 -4.78523 0.235146 0
M  V30 629 H 48.5054 -2.54684 0.0282722 0
M  V30 630 H 49.2884 -3.02077 1.63109 0
M  V30 631 N 51.7335 -0.305618 -1.54608 0
M  V30 632 C 52.9735 0.303114 -2.0214 0
M  V30 633 C 53.3375 1.50737 -1.18921 0
M  V30 634 O 54.5385 2.18778 -1.56172 0
M  V30 635 C 52.8095 0.646332 -3.51507 0
M  V30 636 S 54.3685 1.23727 -4.20995 0
M  V30 637 H 51.1865 0.0927643 -0.704923 0
M  V30 638 H 53.7885 -0.434566 -1.90609 0
M  V30 639 H 52.4925 -0.238541 -4.09706 0
M  V30 640 H 52.0235 1.41468 -3.67084 0
M  V30 641 H 54.0385 2.52489 -4.27158 0
M  V30 642 N 53.2116 1.57565 -0.0334293 0
M  V30 643 C 54.4886 1.83282 0.683163 0
M  V30 644 C 54.8686 0.91823 1.90084 0
M  V30 645 O 54.2166 -0.025113 2.28486 0
M  V30 646 C 54.4266 3.32599 1.0573 0
M  V30 647 C 55.7746 3.99179 1.44711 0
M  V30 648 O 56.7986 3.3712 1.15015 0
M  V30 649 O 55.6576 5.08565 2.0006 0
M  V30 650 H 52.7516 0.755869 0.335546 0
M  V30 651 H 55.2976 1.69589 -0.0614402 0
M  V30 652 H 54.0696 3.90834 0.190828 0
M  V30 653 H 53.6926 3.51415 1.85993 0
M  V30 654 N 54.6897 -0.239769 1.55765 0
M  V30 655 C 55.9357 -0.968234 1.78194 0
M  V30 656 C 56.2687 -1.84701 0.599938 0
M  V30 657 O 55.5437 -1.9031 -0.401524 0
M  V30 658 C 55.8267 -1.8227 3.10564 0
M  V30 659 C 55.6797 -0.971633 4.3918 0
M  V30 660 C 56.9987 -2.80388 3.39221 0
M  V30 661 H 54.1177 -0.350572 0.648281 0
M  V30 662 H 56.7597 -0.238259 1.885 0
M  V30 663 H 54.9097 -2.44507 3.01908 0
M  V30 664 H 56.5817 -0.367408 4.59835 0
M  V30 665 H 54.8247 -0.276276 4.32919 0
M  V30 666 H 55.4957 -1.60346 5.28198 0
M  V30 667 H 57.9717 -2.28287 3.47885 0
M  V30 668 H 56.8477 -3.3729 4.33044 0
M  V30 669 H 57.1087 -3.57212 2.60484 0
M  V30 670 N 56.1678 -1.49265 -0.50573 0
M  V30 671 C 57.3958 -1.62215 -1.28429 0
M  V30 672 C 57.8108 -0.291697 -1.86533 0
M  V30 673 O 57.1678 0.722233 -1.67601 0
M  V30 674 C 57.2188 -2.68735 -2.41793 0
M  V30 675 O 56.9398 -3.96619 -1.86078 0
M  V30 676 C 58.4408 -2.92346 -3.3324 0
M  V30 677 H 55.6608 -0.546239 -0.389697 0
M  V30 678 H 58.2048 -1.95265 -0.607609 0
M  V30 679 H 56.3598 -2.38476 -3.053 0
M  V30 680 H 56.7738 -4.55256 -2.60465 0
M  V30 681 H 58.2478 -3.70623 -4.09075 0
M  V30 682 H 58.7248 -2.02081 -3.89948 0
M  V30 683 H 59.3308 -3.24003 -2.75503 0
M  V30 684 N 57.6459 0.756429 -1.3826 0
M  V30 685 C 58.5759 1.88374 -1.37976 0
M  V30 686 C 59.5569 1.68311 -0.246082 0
M  V30 687 O 60.7419 1.88944 -0.44874 0
M  V30 688 C 57.8719 3.25864 -1.20125 0
M  V30 689 C 56.8259 3.60523 -2.30666 0
M  V30 690 C 56.1519 4.9672 -1.97923 0
M  V30 691 C 57.4519 3.65692 -3.72916 0
M  V30 692 H 59.1459 1.88869 -2.32312 0
M  V30 693 H 56.6919 0.907272 -1.11824 0
M  V30 694 H 58.6449 4.0438 -1.18552 0
M  V30 695 H 57.3689 3.25841 -0.222498 0
M  V30 696 H 56.0279 2.84324 -2.3142 0
M  V30 697 H 55.6759 4.93253 -0.985393 0
M  V30 698 H 55.3759 5.20878 -2.71955 0
M  V30 699 H 56.8999 5.77618 -1.97964 0
M  V30 700 H 58.3139 4.34328 -3.74208 0
M  V30 701 H 56.7109 4.01358 -4.4613 0
M  V30 702 H 57.7809 2.65987 -4.05436 0
M  V30 703 N 59.124 1.23083 0.984299 0
M  V30 704 C 60.401 0.9689 1.69917 0
M  V30 705 C 60.781 -0.513604 2.04757 0
M  V30 706 O 60.129 -1.48383 1.73767 0
M  V30 707 C 60.339 1.87518 2.94343 0
M  V30 708 C 61.687 2.13636 3.6694 0
M  V30 709 O 62.711 1.85036 3.04368 0
M  V30 710 O 61.57 2.62119 4.79537 0
M  V30 711 H 58.664 0.365095 0.742048 0
M  V30 712 H 61.21 1.34107 1.03987 0
M  V30 713 H 59.982 2.87756 2.65164 0
M  V30 714 H 59.605 1.50514 3.6801 0
M  V30 715 N 60.6021 -1.18246 1.0419 0
M  V30 716 C 61.8481 -1.88536 0.747122 0
M  V30 717 C 62.1811 -1.80223 -0.723409 0
M  V30 718 O 61.4561 -1.20337 -1.52804 0
M  V30 719 C 61.7391 -3.38968 1.21544 0
M  V30 720 C 61.5921 -3.56084 2.74816 0
M  V30 721 C 62.9111 -4.32648 0.806482 0
M  V30 722 H 60.0301 -0.684619 0.272883 0
M  V30 723 H 62.6721 -1.39113 1.29413 0
M  V30 724 H 60.8221 -3.8119 0.750081 0
M  V30 725 H 62.4941 -3.22946 3.29399 0
M  V30 726 H 60.7371 -2.98699 3.14582 0
M  V30 727 H 61.4081 -4.61639 3.02644 0
M  V30 728 H 63.8841 -3.98211 1.20695 0
M  V30 729 H 62.7601 -5.36462 1.1619 0
M  V30 730 H 63.0211 -4.41146 -0.29029 0
M  V30 731 N 62.0802 -0.821533 -1.34494 0
M  V30 732 C 63.4912 -0.467956 -1.8074 0
M  V30 733 C 63.8422 1.01151 -1.68116 0
M  V30 734 O 62.9672 1.78707 -1.22036 0
M  V30 735 C 63.5622 -0.842627 -3.28154 0
M  V30 736 C 62.1212 -0.541439 -3.72485 0
M  V30 737 C 61.2682 -1.06028 -2.56229 0
M  V30 738 H 64.2192 -1.01183 -1.22261 0
M  V30 739 H 64.2402 -0.145876 -3.8022 0
M  V30 740 H 63.7522 -1.91945 -3.37311 0
M  V30 741 H 61.8532 0.526034 -3.68868 0
M  V30 742 H 61.9662 -1.08453 -4.66663 0
M  V30 743 H 60.3302 -0.481892 -2.501 0
M  V30 744 H 61.1132 -2.14352 -2.68157 0
M  V30 745 N 63.5583 1.46682 -0.576371 0
M  V30 746 C 64.5053 2.30241 0.160499 0
M  V30 747 C 65.4753 1.40233 0.890162 0
M  V30 748 O 66.6603 1.69186 0.882084 0
M  V30 749 C 63.8003 3.24578 1.1723 0
M  V30 750 C 62.9133 4.29684 0.446736 0
M  V30 751 C 62.0483 5.11154 1.44551 0
M  V30 752 C 61.0873 6.08015 0.70599 0
M  V30 753 N 60.2243 6.82376 1.65251 0
M  V30 754 H 65.0643 2.92727 -0.558127 0
M  V30 755 H 62.6013 1.44272 -0.287056 0
M  V30 756 H 64.5593 3.77711 1.77172 0
M  V30 757 H 63.1893 2.63916 1.85872 0
M  V30 758 H 62.2413 3.79458 -0.267594 0
M  V30 759 H 63.5533 4.98626 -0.131686 0
M  V30 760 H 62.7073 5.68533 2.11791 0
M  V30 761 H 61.4463 4.42158 2.05786 0
M  V30 762 H 60.4513 5.49796 0.0197725 0
M  V30 763 H 61.6763 6.79028 0.09912 0
M  V30 764 H 59.6223 6.16094 2.25308 0
M  V30 765 H 59.5393 7.47556 1.12673 0
M  V30 766 H 60.8073 7.44316 2.31546 0
M  V30 767 N 65.0364 0.313813 1.54444 0
M  V30 768 C 65.9844 -0.572171 2.25453 0
M  V30 769 C 66.9784 -1.12657 1.2651 0
M  V30 770 O 68.1844 -1.07573 1.44319 0
M  V30 771 H 64.5594 -0.203146 0.724041 0
M  V30 772 H 66.5304 0.0491145 2.9836 0
M  V30 773 C 65.2794 -1.72626 3.0182 0
M  V30 774 H 64.6024 -1.30891 3.77767 0
M  V30 775 H 66.0424 -2.32199 3.54767 0
M  V30 776 C 64.5014 -2.63806 2.09542 0
M  V30 777 O 65.0314 -3.65256 1.67185 0
M  V30 778 N 63.2374 -2.31824 1.75232 0
M  V30 779 H 62.7844 -1.49368 2.09873 0
M  V30 780 H 62.7424 -2.93095 1.13767 0
M  V30 781 N 66.5145 -1.57545 0.0417849 0
M  V30 782 C 67.4645 -2.07483 -0.945247 0
M  V30 783 C 68.4485 -0.977983 -1.27767 0
M  V30 784 O 69.6405 -1.24142 -1.26166 0
M  V30 785 C 66.7695 -2.61576 -2.22335 0
M  V30 786 C 65.8555 -3.78213 -1.91874 0
M  V30 787 N 66.2465 -4.88344 -1.31733 0
M  V30 788 C 64.5445 -3.8694 -2.21796 0
M  V30 789 C 65.2455 -5.69462 -1.1869 0
M  V30 790 N 64.2215 -5.16771 -1.68666 0
M  V30 791 H 68.0235 -2.90029 -0.475441 0
M  V30 792 H 65.5375 -1.61581 -0.162911 0
M  V30 793 H 67.5345 -2.95651 -2.93932 0
M  V30 794 H 66.1945 -1.80465 -2.69931 0
M  V30 795 H 67.2055 -5.08335 -0.990729 0
M  V30 796 H 63.8825 -3.16757 -2.71977 0
M  V30 797 H 65.2725 -6.68023 -0.720793 0
M  V30 798 N 67.9926 0.231505 -1.5589 0
M  V30 799 C 69.2386 0.95877 -1.78705 0
M  V30 800 C 69.5716 1.8438 -0.609725 0
M  V30 801 O 68.8466 1.90521 0.391426 0
M  V30 802 C 69.1296 1.8062 -3.11526 0
M  V30 803 C 68.9826 0.948328 -4.39689 0
M  V30 804 C 70.3016 2.78585 -3.40703 0
M  V30 805 H 67.4206 0.347129 -0.650131 0
M  V30 806 H 70.0626 0.228259 -1.88624 0
M  V30 807 H 68.2126 2.42902 -3.03201 0
M  V30 808 H 69.8846 0.343016 -4.60023 0
M  V30 809 H 68.1276 0.253314 -4.3306 0
M  V30 810 H 68.7986 1.57543 -5.29041 0
M  V30 811 H 71.2746 2.26439 -3.49091 0
M  V30 812 H 70.1506 3.34988 -4.34826 0
M  V30 813 H 70.4116 3.55825 -2.62375 0
M  V30 814 N 69.4707 1.49531 0.497807 0
M  V30 815 C 70.7197 1.58426 1.24837 0
M  V30 816 C 71.0327 0.277643 1.93619 0
M  V30 817 O 72.2387 0.24517 2.70391 0
M  V30 818 C 70.6947 2.79538 2.26686 0
M  V30 819 C 70.3027 4.16971 1.63828 0
M  V30 820 C 72.0467 2.97764 3.0255 0
M  V30 821 C 69.9537 5.29301 2.63807 0
M  V30 822 H 68.8837 0.58989 0.469623 0
M  V30 823 H 71.5347 1.75923 0.521857 0
M  V30 824 H 69.9167 2.55542 3.02514 0
M  V30 825 H 71.0907 4.51116 0.939711 0
M  V30 826 H 69.4057 4.04129 1.00342 0
M  V30 827 H 72.0027 3.78856 3.77323 0
M  V30 828 H 72.3457 2.08448 3.60354 0
M  V30 829 H 72.8787 3.21815 2.33838 0
M  V30 830 H 69.6177 6.20687 2.10779 0
M  V30 831 H 69.1377 4.99606 3.31894 0
M  V30 832 H 70.8167 5.58768 3.2617 0
M  V30 833 N 70.9488 -0.749086 1.3866 0
M  V30 834 C 72.1948 -1.51056 1.35314 0
M  V30 835 C 72.5278 -1.94121 -0.0553751 0
M  V30 836 O 71.8028 -1.65763 -1.01749 0
M  V30 837 C 72.0858 -2.76003 2.31288 0
M  V30 838 C 71.9388 -2.39047 3.8102 0
M  V30 839 C 73.2578 -3.78046 2.2532 0
M  V30 840 H 70.3768 -0.547972 0.492844 0
M  V30 841 H 73.0188 -0.857628 1.69543 0
M  V30 842 H 71.1688 -3.31716 2.02229 0
M  V30 843 H 72.8408 -1.89074 4.20771 0
M  V30 844 H 71.0838 -1.71449 3.98482 0
M  V30 845 H 71.7548 -3.28462 4.4364 0
M  V30 846 H 74.2308 -3.31884 2.50983 0
M  V30 847 H 73.1068 -4.63159 2.94576 0
M  V30 848 H 73.3678 -4.23957 1.25352 0
M  V30 849 N 72.4269 -1.23603 -0.977757 0
M  V30 850 C 73.7039 -0.977897 -1.69401 0
M  V30 851 C 74.0839 0.502738 -2.05026 0
M  V30 852 O 73.4319 1.47459 -1.74551 0
M  V30 853 C 73.6419 -1.89077 -2.93345 0
M  V30 854 C 74.9899 -2.15579 -3.65802 0
M  V30 855 O 76.0139 -1.86648 -3.03383 0
M  V30 856 O 74.8729 -2.64658 -4.78141 0
M  V30 857 H 71.9669 -0.369025 -0.740101 0
M  V30 858 H 74.5129 -1.34657 -1.03274 0
M  V30 859 H 73.2849 -2.89158 -2.63634 0
M  V30 860 H 72.9079 -1.52463 -3.67207 0
M  V30 861 N 73.905 1.17692 -1.04816 0
M  V30 862 C 75.145 1.89545 -0.764979 0
M  V30 863 C 75.509 1.78979 0.695028 0
M  V30 864 O 76.71 2.45613 1.09215 0
M  V30 865 C 74.981 3.35659 -1.22751 0
M  V30 866 S 76.54 4.25526 -1.07112 0
M  V30 867 H 73.358 0.654432 -0.27792 0
M  V30 868 H 75.96 1.42163 -1.34201 0
M  V30 869 H 74.664 3.40882 -2.28533 0
M  V30 870 H 74.195 3.88083 -0.644594 0
M  V30 871 H 76.21 4.962 0.00697508 0
M  V30 872 N 75.3831 0.828654 1.34056 0
M  V30 873 C 76.6111 0.43262 2.02326 0
M  V30 874 C 77.0261 -0.963147 1.62385 0
M  V30 875 O 76.3831 -1.62425 0.832121 0
M  V30 876 C 76.4341 0.53182 3.57567 0
M  V30 877 O 76.1551 1.87258 3.96063 0
M  V30 878 C 77.6561 0.131422 4.43105 0
M  V30 879 H 74.8761 0.172923 0.648335 0
M  V30 880 H 77.4201 1.1184 1.71208 0
M  V30 881 H 75.5751 -0.105938 3.87255 0
M  V30 882 H 75.9891 1.85087 4.90758 0
M  V30 883 H 77.4631 0.251904 5.51425 0
M  V30 884 H 77.9401 -0.925645 4.29335 0
M  V30 885 H 78.5461 0.743207 4.18756 0
M  V30 886 N 76.8612 -1.46375 0.584142 0
M  V30 887 C 78.1382 -1.956 0.0033388 0
M  V30 888 C 78.5182 -1.52679 -1.45782 0
M  V30 889 O 77.8662 -0.77816 -2.14842 0
M  V30 890 C 78.0762 -3.48551 0.176891 0
M  V30 891 C 79.4242 -4.24576 0.0454609 0
M  V30 892 O 80.4482 -3.56043 0.105801 0
M  V30 893 O 79.3072 -5.46427 -0.0890376 0
M  V30 894 H 76.4012 -0.825547 -0.0490066 0
M  V30 895 H 78.9472 -1.56652 0.65256 0
M  V30 896 H 77.7192 -3.72683 1.1926 0
M  V30 897 H 77.3422 -3.94332 -0.508695 0
M  V30 898 N 78.3393 -0.321999 -1.54275 0
M  V30 899 C 79.2863 0.544664 -2.24281 0
M  V30 900 C 80.2563 1.1129 -1.23303 0
M  V30 901 O 81.4413 1.15354 -1.51981 0
M  V30 902 C 78.5813 1.70045 -3.00298 0
M  V30 903 C 77.6943 1.16159 -4.1609 0
M  V30 904 C 76.8293 2.28293 -4.79641 0
M  V30 905 C 75.8683 1.71648 -5.8754 0
M  V30 906 N 75.0053 2.77438 -6.44959 0
M  V30 907 H 79.8453 -0.0588907 -2.97942 0
M  V30 908 H 77.3823 -0.0408345 -1.47043 0
M  V30 909 H 79.3403 2.38054 -3.42616 0
M  V30 910 H 77.9703 2.27531 -2.28975 0
M  V30 911 H 77.0223 0.373092 -3.78566 0
M  V30 912 H 78.3343 0.707087 -4.93763 0
M  V30 913 H 77.4883 3.0421 -5.2492 0
M  V30 914 H 76.2273 2.77079 -4.01346 0
M  V30 915 H 75.2323 0.942282 -5.41665 0
M  V30 916 H 76.4573 1.23741 -6.67731 0
M  V30 917 H 74.4033 3.25519 -5.69538 0
M  V30 918 H 74.3203 2.36547 -7.1804 0
M  V30 919 H 75.5883 3.53189 -6.94894 0
M  V30 920 N 79.8174 1.5752 -0.0501392 0
M  V30 921 C 80.7674 2.07981 0.934231 0
M  V30 922 C 81.7514 0.984745 1.27246 0
M  V30 923 O 82.9434 1.24809 1.25506 0
M  V30 924 C 80.0724 2.62751 2.20945 0
M  V30 925 C 79.1584 3.79225 1.89865 0
M  V30 926 N 79.5494 4.89036 1.29142 0
M  V30 927 C 77.8474 3.88111 2.19741 0
M  V30 928 C 78.5484 5.70084 1.15669 0
M  V30 929 N 77.5244 5.17659 1.65923 0
M  V30 930 H 81.3264 2.90277 0.460053 0
M  V30 931 H 78.8404 1.61665 0.15434 0
M  V30 932 H 80.8374 2.97205 2.9236 0
M  V30 933 H 79.4974 1.81894 2.6897 0
M  V30 934 H 80.5084 5.08854 0.963756 0
M  V30 935 H 77.1854 3.18194 2.70293 0
M  V30 936 H 78.5754 6.68395 0.685356 0
M  V30 937 N 81.2955 -0.223234 1.56011 0
M  V30 938 C 82.2255 -1.27988 1.95298 0
M  V30 939 C 83.2065 -1.48976 0.820979 0
M  V30 940 O 84.3915 -1.61188 1.08315 0
M  V30 941 C 81.5215 -2.63 2.26822 0
M  V30 942 C 80.4755 -2.56671 3.42497 0
M  V30 943 C 79.8015 -3.95697 3.59622 0
M  V30 944 C 81.1015 -2.11601 4.77517 0
M  V30 945 H 82.7955 -0.953525 2.8381 0
M  V30 946 H 80.3415 -0.457244 1.36548 0
M  V30 947 H 82.2945 -3.37077 2.52898 0
M  V30 948 H 81.0185 -2.9732 1.35161 0
M  V30 949 H 79.6775 -1.85051 3.16467 0
M  V30 950 H 79.3255 -4.27322 2.6534 0
M  V30 951 H 79.0255 -3.92345 4.37424 0
M  V30 952 H 80.5495 -4.71438 3.88044 0
M  V30 953 H 81.9635 -2.7542 5.02809 0
M  V30 954 H 80.3605 -2.19311 5.5859 0
M  V30 955 H 81.4305 -1.06824 4.72987 0
M  V30 956 N 82.7736 -1.49793 -0.48987 0
M  V30 957 C 84.0016 -1.63568 -1.26701 0
M  V30 958 C 84.4166 -0.311465 -1.86213 0
M  V30 959 O 83.7736 0.704416 -1.68357 0
M  V30 960 C 83.8246 -2.71284 -2.38929 0
M  V30 961 O 83.5456 -3.9857 -1.81861 0
M  V30 962 C 85.0466 -2.95864 -3.3012 0
M  V30 963 H 82.2666 -0.550342 -0.383881 0
M  V30 964 H 84.8106 -1.95898 -0.586864 0
M  V30 965 H 82.9656 -2.417 -3.02753 0
M  V30 966 H 83.3796 -4.57993 -2.55622 0
M  V30 967 H 84.8536 -3.74941 -4.05121 0
M  V30 968 H 85.3306 -2.06206 -3.87783 0
M  V30 969 H 85.9366 -3.26907 -2.72051 0
M  V30 970 N 84.2517 0.741722 -1.39055 0
M  V30 971 C 85.1617 1.88621 -1.39496 0
M  V30 972 C 86.1777 1.71557 -0.290578 0
M  V30 973 O 87.3537 1.94275 -0.530954 0
M  V30 974 C 84.4187 3.24134 -1.23037 0
M  V30 975 C 83.4797 3.5364 -2.43387 0
M  V30 976 C 82.7127 4.82687 -2.27703 0
M  V30 977 O 82.9357 5.55922 -1.27696 0
M  V30 978 O 81.8697 5.1194 -3.16545 0
M  V30 979 H 85.6957 1.91203 -2.35956 0
M  V30 980 H 83.2807 0.888625 -1.20099 0
M  V30 981 H 85.1627 4.0513 -1.15964 0
M  V30 982 H 83.8377 3.22337 -0.296691 0
M  V30 983 H 82.7447 2.72758 -2.56035 0
M  V30 984 H 84.0777 3.60209 -3.35425 0
M  V30 985 N 85.7298 1.2412 0.971189 0
M  V30 986 C 86.9788 1.07284 1.70801 0
M  V30 987 C 87.2918 -0.388902 1.91695 0
M  V30 988 O 88.4978 -0.677379 2.62914 0
M  V30 989 C 86.9538 1.87145 3.07416 0
M  V30 990 C 86.5618 3.37707 2.94377 0
M  V30 991 C 88.3058 1.78828 3.84995 0
M  V30 992 C 86.2128 4.09925 4.26281 0
M  V30 993 H 85.1428 0.397854 0.64049 0
M  V30 994 H 87.7938 1.4817 1.0825 0
M  V30 995 H 86.1758 1.39071 3.70777 0
M  V30 996 H 87.3498 3.93335 2.4005 0
M  V30 997 H 85.6648 3.46938 2.30267 0
M  V30 998 H 88.2618 2.30089 4.82662 0
M  V30 999 H 88.6048 0.75284 4.09436 0
M  V30 1000 H 89.1378 2.24563 3.28354 0
M  V30 1001 H 85.8768 5.13813 4.07033 0
M  V30 1002 H 85.3968 3.59083 4.80437 0
M  V30 1003 H 87.0758 4.1673 4.94919 0
M  V30 1004 N 87.2079 -1.17134 1.05439 0
M  V30 1005 C 88.6189 -1.69084 0.791676 0
M  V30 1006 C 88.9699 -1.83822 -0.685839 0
M  V30 1007 O 88.0949 -1.52757 -1.53278 0
M  V30 1008 C 88.6899 -3.07119 1.4305 0
M  V30 1009 C 87.2489 -3.56225 1.21577 0
M  V30 1010 C 86.3959 -2.32421 1.51247 0
M  V30 1011 H 89.3469 -1.01617 1.219 0
M  V30 1012 H 89.3679 -3.71087 0.84112 0
M  V30 1013 H 88.8799 -2.9636 2.50584 0
M  V30 1014 H 86.9809 -3.72257 0.159787 0
M  V30 1015 H 87.0939 -4.38837 1.92246 0
M  V30 1016 H 85.4579 -2.3701 0.932653 0
M  V30 1017 H 86.2409 -2.24268 2.5992 0
M  V30 1018 N 88.686 -0.835752 -1.33615 0
M  V30 1019 C 89.934 -0.429109 -1.97492 0
M  V30 1020 C 90.255 1.01433 -1.66543 0
M  V30 1021 O 89.525 1.70611 -0.962744 0
M  V30 1022 H 88.105 -0.155686 -0.730596 0
M  V30 1023 H 90.767 -1.06802 -1.63031 0
M  V30 1024 H 89.863 -0.55861 -3.0706 0
M  V30 1025 N 90.1641 1.46063 -0.591896 0
M  V30 1026 C 91.4121 2.01938 -0.0808391 0
M  V30 1027 C 91.7331 1.46475 1.28725 0
M  V30 1028 O 91.0031 0.652944 1.84698 0
M  V30 1029 H 89.5831 0.746516 -0.0268938 0
M  V30 1030 H 92.2451 1.79055 -0.769752 0
M  V30 1031 H 91.3411 3.12094 -0.0187578 0
M  V30 1032 N 91.6422 0.330177 1.54103 0
M  V30 1033 C 92.8912 -0.271336 1.99867 0
M  V30 1034 C 93.2042 -1.52723 1.22209 0
M  V30 1035 O 94.4102 -2.20515 1.58383 0
M  V30 1036 C 92.8662 -0.534032 3.55916 0
M  V30 1037 C 92.4742 0.705193 4.42415 0
M  V30 1038 C 94.2182 -1.09514 4.1013 0
M  V30 1039 C 92.1252 0.414035 5.89949 0
M  V30 1040 H 91.0552 -0.105166 0.74663 0
M  V30 1041 H 93.7062 0.443429 1.78062 0
M  V30 1042 H 92.0882 -1.30915 3.73734 0
M  V30 1043 H 93.2622 1.4804 4.36372 0
M  V30 1044 H 91.5772 1.18698 3.99124 0
M  V30 1045 H 94.1742 -1.3277 5.17954 0
M  V30 1046 H 94.5172 -2.04656 3.62521 0
M  V30 1047 H 95.0502 -0.381038 3.95971 0
M  V30 1048 H 91.7892 1.33481 6.41766 0
M  V30 1049 H 91.3092 -0.323336 5.98928 0
M  V30 1050 H 92.9882 0.0263105 6.46995 0
M  V30 1051 N 93.1203 -1.57491 0.0584922 0
M  V30 1052 C 94.5313 -1.80526 -0.476138 0
M  V30 1053 C 94.8823 -0.971334 -1.70469 0
M  V30 1054 O 94.0073 -0.190012 -2.15564 0
M  V30 1055 C 94.6023 -3.27424 -0.870587 0
M  V30 1056 C 93.1613 -3.51351 -1.35015 0
M  V30 1057 C 92.3083 -2.75343 -0.32887 0
M  V30 1058 H 95.2593 -1.56133 0.284312 0
M  V30 1059 H 95.2803 -3.38745 -1.73299 0
M  V30 1060 H 94.7923 -3.88093 0.0237627 0
M  V30 1061 H 92.8933 -2.95971 -2.26345 0
M  V30 1062 H 93.0063 -4.60059 -1.33726 0
M  V30 1063 H 91.3703 -2.417 -0.803321 0
M  V30 1064 H 92.1533 -3.38743 0.557521 0
M  V30 1065 N 94.5984 0.214957 -1.56127 0
M  V30 1066 C 95.8264 0.955092 -1.83536 0
M  V30 1067 C 96.2414 1.77677 -0.638472 0
M  V30 1068 O 95.5984 1.78219 0.392968 0
M  V30 1069 C 95.6494 1.86734 -3.09536 0
M  V30 1070 O 95.3704 1.07887 -4.24608 0
M  V30 1071 C 96.8714 2.72082 -3.4998 0
M  V30 1072 H 94.0914 0.279611 -0.609966 0
M  V30 1073 H 96.6354 0.228197 -2.03223 0
M  V30 1074 H 94.7904 2.5481 -2.91806 0
M  V30 1075 H 95.2044 1.69872 -4.9623 0
M  V30 1076 H 96.6784 3.31782 -4.41163 0
M  V30 1077 H 97.1554 3.44806 -2.7204 0
M  V30 1078 H 97.7614 2.09409 -3.70173 0
M  V30 1079 N 96.0765 1.50051 0.48192 0
M  V30 1080 C 97.0245 1.68635 1.60203 0
M  V30 1081 C 98.0185 0.552184 1.60148 0
M  V30 1082 O 99.2245 0.732377 1.64427 0
M  V30 1083 H 95.5995 0.532081 0.531407 0
M  V30 1084 H 97.5705 2.62616 1.41688 0
M  V30 1085 C 96.3195 1.78775 2.9822 0
M  V30 1086 H 95.6425 2.6543 2.98976 0
M  V30 1087 H 97.0825 1.95806 3.7608 0
M  V30 1088 C 95.5415 0.536849 3.32595 0
M  V30 1089 O 96.0715 -0.328897 4.00351 0
M  V30 1090 N 94.2775 0.394091 2.87915 0
M  V30 1091 H 93.8245 1.09962 2.32951 0
M  V30 1092 H 93.7825 -0.441737 3.11281 0
M  V30 1093 N 97.5546 -0.734337 1.39446 0
M  V30 1094 C 98.7826 -1.52358 1.39981 0
M  V30 1095 C 99.1976 -1.88799 -0.0054975 0
M  V30 1096 O 98.5546 -1.54146 -0.976998 0
M  V30 1097 C 98.6056 -2.81072 2.27333 0
M  V30 1098 O 98.3266 -2.46178 3.62392 0
M  V30 1099 C 99.8276 -3.75096 2.36259 0
M  V30 1100 H 97.0476 -0.470806 0.478103 0
M  V30 1101 H 99.5916 -0.907339 1.83269 0
M  V30 1102 H 97.7466 -3.39026 1.87457 0
M  V30 1103 H 98.1606 -3.28866 4.08592 0
M  V30 1104 H 99.6346 -4.62305 3.01626 0
M  V30 1105 H 100.112 -4.16892 1.38194 0
M  V30 1106 H 100.718 -3.23061 2.76608 0
M  V30 1107 N 99.0327 -1.24633 -0.964593 0
M  V30 1108 C 100.261 -1.11501 -1.74285 0
M  V30 1109 C 100.676 0.332165 -1.85855 0
M  V30 1110 O 100.033 1.22903 -1.34911 0
M  V30 1111 C 100.084 -1.75258 -3.16175 0
M  V30 1112 O 99.8047 -3.14318 -3.05182 0
M  V30 1113 C 101.306 -1.67776 -4.10324 0
M  V30 1114 H 98.5257 -0.389407 -0.546446 0
M  V30 1115 H 101.07 -1.64801 -1.21083 0
M  V30 1116 H 99.2247 -1.25954 -3.66353 0
M  V30 1117 H 99.6387 -3.4551 -3.94618 0
M  V30 1118 H 101.113 -2.17064 -5.0753 0
M  V30 1119 H 101.59 -0.639584 -4.34518 0
M  V30 1120 H 102.196 -2.16522 -3.66058 0
M  V30 1121 N 100.511 1.16574 -1.06058 0
M  V30 1122 C 101.459 2.22941 -0.663343 0
M  V30 1123 C 102.453 1.66358 0.319593 0
M  V30 1124 O 103.659 1.7905 0.184713 0
M  V30 1125 H 100.034 0.725907 -0.196376 0
M  V30 1126 H 102.005 2.53736 -1.57037 0
M  V30 1127 C 100.754 3.47642 -0.0632808 0
M  V30 1128 H 100.077 3.91493 -0.810733 0
M  V30 1129 H 101.517 4.2363 0.177177 0
M  V30 1130 C 99.9758 3.1509 1.19248 0
M  V30 1131 O 100.506 3.30673 2.28075 0
M  V30 1132 N 98.7118 2.6924 1.09353 0
M  V30 1133 H 98.2588 2.5676 0.207912 0
M  V30 1134 H 98.2168 2.47833 1.93458 0
M  V30 1135 N 101.989 0.842826 1.3317 0
M  V30 1136 C 102.919 0.294028 2.31641 0
M  V30 1137 C 103.9 -0.600401 1.59151 0
M  V30 1138 O 105.085 -0.523124 1.87022 0
M  V30 1139 C 102.215 -0.528416 3.43257 0
M  V30 1140 C 101.169 0.27056 4.27144 0
M  V30 1141 C 100.495 -0.675881 5.30411 0
M  V30 1142 C 101.795 1.48981 5.00602 0
M  V30 1143 H 103.489 1.11681 2.77791 0
M  V30 1144 H 101.035 0.538478 1.33553 0
M  V30 1145 H 102.988 -0.922674 4.11175 0
M  V30 1146 H 101.712 -1.38445 2.95805 0
M  V30 1147 H 100.371 0.646427 3.60856 0
M  V30 1148 H 100.019 -1.52842 4.79216 0
M  V30 1149 H 99.7189 -0.145374 5.8742 0
M  V30 1150 H 101.243 -1.06757 6.01195 0
M  V30 1151 H 102.657 1.16849 5.61266 0
M  V30 1152 H 101.054 1.95739 5.6728 0
M  V30 1153 H 102.124 2.25746 4.29147 0
M  V30 1154 N 103.467 -1.45747 0.599634 0
M  V30 1155 C 104.695 -2.06668 0.0978551 0
M  V30 1156 C 105.11 -1.44562 -1.21439 0
M  V30 1157 O 104.467 -0.556923 -1.73795 0
M  V30 1158 C 104.518 -3.61456 -0.0567044 0
M  V30 1159 O 104.239 -4.21242 1.20361 0
M  V30 1160 C 105.74 -4.39345 -0.590869 0
M  V30 1161 H 102.96 -0.667825 0.0651943 0
M  V30 1162 H 105.504 -1.87115 0.82511 0
M  V30 1163 H 103.659 -3.80378 -0.734251 0
M  V30 1164 H 104.073 -5.14323 1.02821 0
M  V30 1165 H 105.547 -5.48182 -0.648131 0
M  V30 1166 H 106.024 -4.08568 -1.61147 0
M  V30 1167 H 106.63 -4.25268 0.0523679 0
M  V30 1168 N 104.945 -0.338344 -1.53925 0
M  V30 1169 C 105.875 0.51328 -2.27789 0
M  V30 1170 C 106.856 1.107 -1.29149 0
M  V30 1171 O 108.041 1.12937 -1.57984 0
M  V30 1172 C 105.171 1.66697 -3.04679 0
M  V30 1173 C 104.125 1.20183 -4.1078 0
M  V30 1174 C 103.451 2.44363 -4.75595 0
M  V30 1175 C 104.751 0.30605 -5.21403 0
M  V30 1176 H 106.445 -0.102883 -2.99223 0
M  V30 1177 H 103.991 -0.0509219 -1.4391 0
M  V30 1178 H 105.944 2.26915 -3.55088 0
M  V30 1179 H 104.668 2.30995 -2.30887 0
M  V30 1180 H 103.327 0.622499 -3.61276 0
M  V30 1181 H 102.975 3.07057 -3.98403 0
M  V30 1182 H 102.675 2.13925 -5.47275 0
M  V30 1183 H 104.199 3.05317 -5.28786 0
M  V30 1184 H 105.613 0.814929 -5.67478 0
M  V30 1185 H 104.01 0.0937929 -6.00027 0
M  V30 1186 H 105.08 -0.65921 -4.80398 0
M  V30 1187 N 106.423 1.57458 -0.0668435 0
M  V30 1188 C 107.651 1.97624 0.612565 0
M  V30 1189 C 108.066 0.94502 1.63447 0
M  V30 1190 O 107.423 -0.0689276 1.8237 0
M  V30 1191 C 107.474 3.37869 1.28555 0
M  V30 1192 O 107.195 4.3704 0.304557 0
M  V30 1193 C 108.696 3.92882 2.05325 0
M  V30 1194 H 105.916 0.650045 0.166381 0
M  V30 1195 H 108.46 2.04035 -0.137782 0
M  V30 1196 H 106.615 3.3256 1.98702 0
M  V30 1197 H 107.029 5.18565 0.786779 0
M  V30 1198 H 108.503 4.93247 2.47812 0
M  V30 1199 H 108.98 3.29156 2.9078 0
M  V30 1200 H 109.586 4.01577 1.40056 0
M  V30 1201 N 107.901 -0.206675 1.56239 0
M  V30 1202 C 109.15 -0.926964 1.79138 0
M  V30 1203 C 109.463 -1.84901 0.638043 0
M  V30 1204 O 110.669 -2.60906 0.751033 0
M  V30 1205 C 109.125 -1.6986 3.17294 0
M  V30 1206 C 108.733 -0.821956 4.40395 0
M  V30 1207 C 110.477 -2.40922 3.4951 0
M  V30 1208 C 108.384 -1.59179 5.69575 0
M  V30 1209 H 107.314 -0.349864 0.667915 0
M  V30 1210 H 109.965 -0.180487 1.8261 0
M  V30 1211 H 108.347 -2.48853 3.08039 0
M  V30 1212 H 109.521 -0.0715019 4.60745 0
M  V30 1213 H 107.836 -0.222741 4.15804 0
M  V30 1214 H 110.433 -2.99047 4.43255 0
M  V30 1215 H 110.776 -3.14542 2.72707 0
M  V30 1216 H 111.309 -1.68905 3.60161 0
M  V30 1217 H 108.048 -0.898589 6.49312 0
M  V30 1218 H 107.568 -2.31648 5.53262 0
M  V30 1219 H 109.247 -2.14862 6.10281 0
M  V30 1220 N 109.379 -1.50304 -0.473955 0
M  V30 1221 C 110.327 -1.69482 -1.59307 0
M  V30 1222 C 111.321 -0.560669 -1.59853 0
M  V30 1223 O 112.527 -0.741087 -1.64036 0
M  V30 1224 H 108.902 -0.534892 -0.528578 0
M  V30 1225 H 110.873 -2.63364 -1.40293 0
M  V30 1226 C 109.622 -1.80354 -2.97267 0
M  V30 1227 H 108.945 -2.67012 -2.97564 0
M  V30 1228 H 110.385 -1.97798 -3.75036 0
M  V30 1229 C 108.844 -0.55448 -3.32306 0
M  V30 1230 O 109.374 0.307661 -4.0052 0
M  V30 1231 N 107.58 -0.409354 -2.87702 0
M  V30 1232 H 107.127 -1.11196 -2.32364 0
M  V30 1233 H 107.085 0.425223 -3.11511 0
M  V30 1234 N 110.857 0.726932 -1.39834 0
M  V30 1235 C 111.807 1.83232 -1.35683 0
M  V30 1236 C 112.791 1.59155 -0.236295 0
M  V30 1237 O 113.983 1.70522 -0.474488 0
M  V30 1238 C 111.112 3.21246 -1.21062 0
M  V30 1239 C 110.198 3.51125 -2.37849 0
M  V30 1240 N 110.589 3.51889 -3.63329 0
M  V30 1241 C 108.887 3.81527 -2.30982 0
M  V30 1242 C 109.588 3.79791 -4.40606 0
M  V30 1243 N 108.564 3.97971 -3.70297 0
M  V30 1244 H 112.366 1.8214 -2.30656 0
M  V30 1245 H 109.88 0.925545 -1.33444 0
M  V30 1246 H 111.877 4.00387 -1.16171 0
M  V30 1247 H 110.537 3.23572 -0.270458 0
M  V30 1248 H 111.548 3.33008 -3.96643 0
M  V30 1249 H 108.225 3.91411 -1.45272 0
M  V30 1250 H 109.615 3.86783 -5.49408 0
M  V30 1251 N 112.336 1.25143 0.95797 0
M  V30 1252 C 113.585 1.0909 1.69654 0
M  V30 1253 C 113.898 -0.368548 1.92097 0
M  V30 1254 O 115.104 -0.649455 2.63618 0
M  V30 1255 C 113.56 1.90395 3.05414 0
M  V30 1256 C 113.168 3.4081 2.90779 0
M  V30 1257 C 114.912 1.82901 3.83076 0
M  V30 1258 C 112.819 4.14423 4.21909 0
M  V30 1259 H 111.749 0.404625 0.636235 0
M  V30 1260 H 114.4 1.4931 1.06672 0
M  V30 1261 H 112.782 1.42996 3.69281 0
M  V30 1262 H 113.956 3.95859 2.35865 0
M  V30 1263 H 112.271 3.49361 2.26575 0
M  V30 1264 H 114.868 2.35196 4.80195 0
M  V30 1265 H 115.211 0.796224 4.08615 0
M  V30 1266 H 115.744 2.28033 3.25954 0
M  V30 1267 H 112.483 5.18102 4.01561 0
M  V30 1268 H 112.003 3.64159 4.76601 0
M  V30 1269 H 113.682 4.21956 4.90471 0
M  V30 1270 N 113.814 -1.1601 1.06675 0
M  V30 1271 C 115.225 -1.68235 0.809565 0
M  V30 1272 C 115.576 -1.8454 -0.666303 0
M  V30 1273 O 114.701 -1.54374 -1.5165 0
M  V30 1274 C 115.296 -3.05585 1.46299 0
M  V30 1275 C 113.855 -3.54915 1.25349 0
M  V30 1276 C 113.002 -2.30804 1.53703 0
M  V30 1277 H 115.953 -1.00318 1.22971 0
M  V30 1278 H 115.974 -3.70174 0.880431 0
M  V30 1279 H 115.486 -2.93686 2.53713 0
M  V30 1280 H 113.587 -3.72067 0.199261 0
M  V30 1281 H 113.7 -4.36774 1.9689 0
M  V30 1282 H 112.064 -2.36007 0.957739 0
M  V30 1283 H 112.847 -2.21499 2.62284 0
M  V30 1284 N 115.292 -0.849877 -1.32721 0
M  V30 1285 C 116.569 -0.372405 -1.92022 0
M  V30 1286 C 116.949 1.1435 -1.77447 0
M  V30 1287 O 116.297 1.96296 -1.16962 0
M  V30 1288 C 116.507 -0.831482 -3.3895 0
M  V30 1289 C 117.855 -0.845882 -4.16089 0
M  V30 1290 O 118.879 -0.775806 -3.47649 0
M  V30 1291 O 117.738 -0.943753 -5.38289 0
M  V30 1292 H 114.832 -0.107667 -0.819961 0
M  V30 1293 H 117.378 -0.93646 -1.41522 0
M  V30 1294 H 116.15 -1.87448 -3.4348 0
M  V30 1295 H 115.773 -0.24461 -3.96847 0
M  V30 1296 N 116.77 1.45427 -0.607355 0
M  V30 1297 C 118.019 2.01452 -0.100036 0
M  V30 1298 C 118.332 1.48159 1.27704 0
M  V30 1299 O 119.538 1.96159 1.87707 0
M  V30 1300 C 117.994 3.59672 -0.128158 0
M  V30 1301 C 117.602 4.21962 -1.50507 0
M  V30 1302 C 119.346 4.23262 0.323932 0
M  V30 1303 C 117.253 5.72333 -1.48959 0
M  V30 1304 H 116.183 0.75325 -0.0336299 0
M  V30 1305 H 118.834 1.66901 -0.76265 0
M  V30 1306 H 117.216 3.91411 0.601105 0
M  V30 1307 H 118.39 4.01796 -2.25602 0
M  V30 1308 H 116.705 3.70565 -1.89923 0
M  V30 1309 H 119.302 5.33522 0.354691 0
M  V30 1310 H 119.645 3.93921 1.34656 0
M  V30 1311 H 120.178 3.96239 -0.352056 0
M  V30 1312 H 116.917 6.06373 -2.48981 0
M  V30 1313 H 116.437 5.94691 -0.781214 0
M  V30 1314 H 118.116 6.35525 -1.21313 0
M  V30 1315 N 118.248 0.346503 1.53744 0
M  V30 1316 C 119.473 -0.253074 2.0585 0
M  V30 1317 C 119.898 -1.43202 1.21962 0
M  V30 1318 O 119.256 -1.79783 0.234073 0
M  V30 1319 C 119.304 -0.643193 3.54817 0
M  V30 1320 O 118.408 -1.74286 3.73762 0
M  V30 1321 H 117.749 -0.0413583 0.662711 0
M  V30 1322 H 120.279 0.501574 1.98357 0
M  V30 1323 H 120.289 -0.919526 3.97503 0
M  V30 1324 H 118.964 0.218966 4.15323 0
M  V30 1325 H 117.541 -1.46356 3.42979 0
M  V30 1326 N 119.726 -1.57421 0.075193 0
M  V30 1327 C 121.137 -1.81021 -0.456964 0
M  V30 1328 C 121.488 -0.98936 -1.69429 0
M  V30 1329 O 120.613 -0.212865 -2.15351 0
M  V30 1330 C 121.208 -3.28329 -0.83581 0
M  V30 1331 C 119.767 -3.52764 -1.31281 0
M  V30 1332 C 118.914 -2.75676 -0.299648 0
M  V30 1333 H 121.865 -1.55822 0.300856 0
M  V30 1334 H 121.886 -3.40564 -1.69696 0
M  V30 1335 H 121.398 -3.88046 0.0649238 0
M  V30 1336 H 119.499 -2.98355 -2.23193 0
M  V30 1337 H 119.612 -4.61451 -1.28839 0
M  V30 1338 H 117.976 -2.42538 -0.777641 0
M  V30 1339 H 118.759 -3.38132 0.593417 0
M  V30 1340 N 121.204 0.198386 -1.56346 0
M  V30 1341 C 122.167 1.22952 -1.93431 0
M  V30 1342 C 123.167 1.38611 -0.815092 0
M  V30 1343 O 124.357 1.36479 -1.08255 0
M  V30 1344 C 121.489 2.59946 -2.20546 0
M  V30 1345 H 122.682 0.912626 -2.85677 0
M  V30 1346 H 120.235 0.43977 -1.49986 0
M  V30 1347 H 120.97 2.96696 -1.30927 0
M  V30 1348 H 120.755 2.49953 -3.02102 0
M  V30 1349 H 122.245 3.3431 -2.50253 0
M  V30 1350 N 122.682 1.50554 0.465978 0
M  V30 1351 C 123.907 1.65838 1.24549 0
M  V30 1352 C 124.332 0.343486 1.84937 0
M  V30 1353 O 123.69 -0.69324 1.67523 0
M  V30 1354 C 123.738 2.75533 2.32624 0
M  V30 1355 O 122.842 2.37142 3.37398 0
M  V30 1356 H 122.183 0.553893 0.366194 0
M  V30 1357 H 124.713 1.96959 0.553927 0
M  V30 1358 H 124.723 2.98763 2.77857 0
M  V30 1359 H 123.398 3.70962 1.88043 0
M  V30 1360 H 121.975 2.24377 2.97841 0
M  V30 1361 N 124.16 -0.719506 1.40217 0
M  V30 1362 C 125.407 -1.47933 1.38283 0
M  V30 1363 C 125.735 -1.94493 -0.0161536 0
M  V30 1364 O 124.99 -1.68224 -0.999956 0
M  V30 1365 C 125.289 -2.72271 2.31524 0
M  V30 1366 C 124.955 -2.44496 3.78857 0
M  V30 1367 C 123.617 -2.36631 4.18998 0
M  V30 1368 C 125.969 -2.21104 4.71977 0
M  V30 1369 C 123.297 -2.03437 5.503 0
M  V30 1370 C 125.649 -1.89423 6.03574 0
M  V30 1371 C 124.313 -1.80038 6.42762 0
M  V30 1372 H 123.583 -0.541325 0.506012 0
M  V30 1373 H 126.23 -0.824502 1.72842 0
M  V30 1374 H 124.535 -3.42572 1.90137 0
M  V30 1375 H 126.232 -3.30348 2.27313 0
M  V30 1376 H 122.822 -2.51503 3.47051 0
M  V30 1377 H 127.006 -2.26139 4.41786 0
M  V30 1378 H 122.262 -1.94705 5.79569 0
M  V30 1379 H 126.436 -1.70336 6.75247 0
M  V30 1380 H 124.063 -1.54083 7.44421 0
M  V30 1381 N 125.638 -1.25649 -0.95132 0
M  V30 1382 C 126.588 -1.03004 -2.03406 0
M  V30 1383 C 127.572 0.034187 -1.60864 0
M  V30 1384 O 128.764 -0.181549 -1.76066 0
M  V30 1385 C 125.893 -0.654255 -3.37008 0
M  V30 1386 C 124.979 -1.75542 -3.86065 0
M  V30 1387 N 125.37 -2.99113 -4.07879 0
M  V30 1388 C 123.668 -1.63669 -4.14884 0
M  V30 1389 C 124.369 -3.70611 -4.48356 0
M  V30 1390 N 123.345 -2.98247 -4.54477 0
M  V30 1391 H 127.147 -1.96813 -2.1827 0
M  V30 1392 H 124.661 -1.16017 -1.13639 0
M  V30 1393 H 126.658 -0.473206 -4.14206 0
M  V30 1394 H 125.318 0.276468 -3.23521 0
M  V30 1395 H 126.329 -3.35124 -3.94857 0
M  V30 1396 H 123.006 -0.775161 -4.10241 0
M  V30 1397 H 124.396 -4.76695 -4.73509 0
M  V30 1398 N 127.117 1.15442 -1.07289 0
M  V30 1399 C 128.533 1.38201 -0.798288 0
M  V30 1400 C 128.733 1.92429 0.597769 0
M  V30 1401 O 127.789 2.12962 1.3566 0
M  V30 1402 C 129.102 2.35357 -1.87156 0
M  V30 1403 C 130.65 2.49021 -1.89624 0
M  V30 1404 C 131.125 3.49468 -2.96034 0
M  V30 1405 N 132.616 3.57003 -2.95132 0
M  V30 1406 C 133.351 4.34543 -3.74112 0
M  V30 1407 N 132.847 5.15421 -4.6294 0
M  V30 1408 N 134.64 4.29625 -3.62462 0
M  V30 1409 H 126.791 0.78584 -1.97328 0
M  V30 1410 H 129.054 0.408065 -0.855679 0
M  V30 1411 H 128.76 2.02626 -2.87464 0
M  V30 1412 H 128.634 3.35129 -1.73114 0
M  V30 1413 H 131.021 2.81051 -0.899687 0
M  V30 1414 H 131.102 1.4925 -2.07745 0
M  V30 1415 H 130.746 3.18173 -3.95889 0
M  V30 1416 H 130.676 4.48992 -2.75161 0
M  V30 1417 H 133.167 2.99276 -2.30743 0
M  V30 1418 H 133.48 5.7183 -5.19837 0
M  V30 1419 H 131.825 5.14729 -4.66989 0
M  V30 1420 H 135.016 3.65505 -2.92444 0
M  V30 1421 H 135.189 4.89807 -4.24256 0
M  V30 1422 N 128.595 0.856903 1.32268 0
M  V30 1423 C 129.525 0.31858 2.31316 0
M  V30 1424 C 130.506 -0.583487 1.59779 0
M  V30 1425 O 131.691 -0.503259 1.87566 0
M  V30 1426 C 128.821 -0.491979 3.43798 0
M  V30 1427 C 127.775 0.315849 4.26833 0
M  V30 1428 C 127.101 -0.619586 5.31098 0
M  V30 1429 C 128.401 1.54282 4.98993 0
M  V30 1430 H 130.095 1.14621 2.76591 0
M  V30 1431 H 127.641 0.552613 1.32974 0
M  V30 1432 H 129.594 -0.879012 4.1213 0
M  V30 1433 H 128.318 -1.35299 2.97257 0
M  V30 1434 H 126.977 0.684664 3.6015 0
M  V30 1435 H 126.625 -1.47751 4.8081 0
M  V30 1436 H 126.325 -0.0830621 5.87541 0
M  V30 1437 H 127.849 -1.00375 6.02293 0
M  V30 1438 H 129.263 1.22796 5.59995 0
M  V30 1439 H 127.66 2.01745 5.65172 0
M  V30 1440 H 128.73 2.30285 4.26728 0
M  V30 1441 N 130.073 -1.45103 0.615059 0
M  V30 1442 C 131.35 -1.95549 0.0448276 0
M  V30 1443 C 131.73 -1.55737 -1.4251 0
M  V30 1444 O 131.078 -0.823556 -2.13143 0
M  V30 1445 C 131.288 -3.48098 0.250785 0
M  V30 1446 C 132.636 -4.24384 0.135509 0
M  V30 1447 O 133.66 -3.55738 0.181299 0
M  V30 1448 O 132.519 -5.46493 0.0268878 0
M  V30 1449 H 129.613 -0.8264 -0.0314845 0
M  V30 1450 H 132.159 -1.55232 0.685642 0
M  V30 1451 H 130.931 -3.7007 1.27139 0
M  V30 1452 H 130.554 -3.95323 -0.424937 0
M  V30 1453 N 131.551 -0.354651 -1.53558 0
M  V30 1454 C 132.501 0.513179 -2.2215 0
M  V30 1455 C 133.485 1.05734 -1.21281 0
M  V30 1456 O 134.677 0.989202 -1.46778 0
M  V30 1457 C 131.806 1.65798 -3.00609 0
M  V30 1458 C 130.892 1.12722 -4.08845 0
M  V30 1459 N 131.283 0.318563 -5.04796 0
M  V30 1460 C 129.581 1.40307 -4.23356 0
M  V30 1461 C 130.282 0.0292224 -5.81693 0
M  V30 1462 N 129.258 0.623891 -5.40008 0
M  V30 1463 H 133.06 -0.111586 -2.93688 0
M  V30 1464 H 130.574 -0.162091 -1.61589 0
M  V30 1465 H 132.571 2.29176 -3.48258 0
M  V30 1466 H 131.231 2.28591 -2.306 0
M  V30 1467 H 132.242 -0.0413091 -5.17884 0
M  V30 1468 H 128.919 2.03458 -3.6457 0
M  V30 1469 H 130.309 -0.623808 -6.68998 0
M  V30 1470 N 133.029 1.57378 -0.0835403 0
M  V30 1471 C 133.959 2.1641 0.87686 0
M  V30 1472 C 134.94 1.09429 1.30228 0
M  V30 1473 O 136.125 1.37516 1.37124 0
M  V30 1474 C 133.255 2.73517 2.14022 0
M  V30 1475 C 132.209 3.85769 1.85381 0
M  V30 1476 C 131.535 4.29529 3.18448 0
M  V30 1477 C 132.835 5.09486 1.14984 0
M  V30 1478 H 134.529 2.96914 0.385059 0
M  V30 1479 H 132.075 1.42823 0.18377 0
M  V30 1480 H 134.028 3.13463 2.81636 0
M  V30 1481 H 132.752 1.90252 2.65465 0
M  V30 1482 H 131.411 3.46345 1.20169 0
M  V30 1483 H 131.059 3.43169 3.67755 0
M  V30 1484 H 130.759 5.05204 3.00071 0
M  V30 1485 H 132.283 4.72099 3.8724 0
M  V30 1486 H 133.697 5.46674 1.72687 0
M  V30 1487 H 132.094 5.90515 1.06826 0
M  V30 1488 H 133.164 4.84724 0.130749 0
M  V30 1489 N 134.507 -0.190092 1.56449 0
M  V30 1490 C 135.753 -0.911052 1.81184 0
M  V30 1491 C 136.086 -1.82699 0.658396 0
M  V30 1492 O 135.361 -1.91491 -0.340775 0
M  V30 1493 C 135.644 -1.72297 3.16205 0
M  V30 1494 C 135.497 -0.831419 4.42049 0
M  V30 1495 C 136.816 -2.69454 3.47969 0
M  V30 1496 H 133.935 -0.32977 0.659106 0
M  V30 1497 H 136.577 -0.178169 1.89163 0
M  V30 1498 H 134.727 -2.34778 3.09534 0
M  V30 1499 H 136.399 -0.220929 4.60771 0
M  V30 1500 H 134.642 -0.138406 4.33579 0
M  V30 1501 H 135.313 -1.43461 5.33032 0
M  V30 1502 H 137.789 -2.17104 3.54972 0
M  V30 1503 H 136.665 -3.23342 4.43555 0
M  V30 1504 H 136.926 -3.48744 2.71717 0
M  V30 1505 N 135.985 -1.50799 -0.457987 0
M  V30 1506 C 136.895 -1.73426 -1.57989 0
M  V30 1507 C 137.911 -0.617745 -1.62665 0
M  V30 1508 O 139.087 -0.897614 -1.80291 0
M  V30 1509 C 136.152 -1.83557 -2.94122 0
M  V30 1510 C 135.213 -3.07345 -2.99729 0
M  V30 1511 C 134.446 -3.16983 -4.29368 0
M  V30 1512 O 134.669 -2.33077 -5.20607 0
M  V30 1513 O 133.603 -4.09812 -4.40837 0
M  V30 1514 H 137.429 -2.68555 -1.41817 0
M  V30 1515 H 135.014 -1.35052 -0.638859 0
M  V30 1516 H 136.896 -1.92326 -3.74952 0
M  V30 1517 H 135.571 -0.916137 -3.10465 0
M  V30 1518 H 134.478 -3.04068 -2.1793 0
M  V30 1519 H 135.811 -3.9891 -2.88326 0
M  V30 1520 N 137.463 0.71206 -1.40597 0
M  V30 1521 C 138.712 1.46754 -1.38369 0
M  V30 1522 C 139.025 1.95598 0.0097839 0
M  V30 1523 O 140.231 2.71059 0.154677 0
M  V30 1524 C 138.687 2.65289 -2.43207 0
M  V30 1525 C 138.295 2.23301 -3.88382 0
M  V30 1526 C 140.039 3.43008 -2.50091 0
M  V30 1527 C 137.946 3.38696 -4.84808 0
M  V30 1528 H 136.876 0.55118 -0.514506 0
M  V30 1529 H 139.527 0.774616 -1.66349 0
M  V30 1530 H 137.909 3.36769 -2.08332 0
M  V30 1531 H 139.083 1.59218 -4.32419 0
M  V30 1532 H 137.398 1.58618 -3.85006 0
M  V30 1533 H 139.995 4.28881 -3.1932 0
M  V30 1534 H 140.338 3.87065 -1.53253 0
M  V30 1535 H 140.871 2.78574 -2.83974 0
M  V30 1536 H 137.61 2.99668 -5.82992 0
M  V30 1537 H 137.13 4.01683 -4.45433 0
M  V30 1538 H 138.809 4.04712 -5.04794 0
M  V30 1539 N 138.941 1.26152 0.944643 0
M  V30 1540 C 140.218 1.02247 1.66748 0
M  V30 1541 C 140.598 -0.448202 2.06287 0
M  V30 1542 O 139.946 -1.42779 1.78399 0
M  V30 1543 C 140.156 1.96788 2.88228 0
M  V30 1544 C 141.504 2.25201 3.59958 0
M  V30 1545 O 142.528 1.94626 2.98327 0
M  V30 1546 O 141.387 2.77242 4.70956 0
M  V30 1547 H 138.481 0.388517 0.730057 0
M  V30 1548 H 141.027 1.37348 0.99668 0
M  V30 1549 H 139.799 2.96047 2.55875 0
M  V30 1550 H 139.422 1.62145 3.63035 0
M  V30 1551 N 140.419 -1.14872 1.07899 0
M  V30 1552 C 141.666 -1.85789 0.805532 0
M  V30 1553 C 141.994 -1.82649 -0.668561 0
M  V30 1554 O 141.249 -1.24858 -1.50695 0
M  V30 1555 C 141.548 -3.34223 1.26609 0
M  V30 1556 C 141.214 -3.57555 2.74709 0
M  V30 1557 C 139.876 -3.63631 3.1516 0
M  V30 1558 C 142.228 -3.66803 3.70277 0
M  V30 1559 C 139.556 -3.76473 4.49983 0
M  V30 1560 C 141.908 -3.8117 5.04869 0
M  V30 1561 C 140.572 -3.85494 5.44932 0
M  V30 1562 H 139.842 -0.679849 0.294765 0
M  V30 1563 H 142.489 -1.3572 1.35101 0
M  V30 1564 H 140.794 -3.86536 0.640103 0
M  V30 1565 H 142.491 -3.87511 1.03132 0
M  V30 1566 H 139.081 -3.5347 2.42398 0
M  V30 1567 H 143.265 -3.61404 3.40149 0
M  V30 1568 H 138.521 -3.7808 4.80484 0
M  V30 1569 H 142.695 -3.87268 5.78789 0
M  V30 1570 H 140.322 -3.95197 6.49403 0
M  V30 1571 N 141.898 -0.863906 -1.31812 0
M  V30 1572 C 143.314 -0.555004 -1.49639 0
M  V30 1573 C 143.514 0.912266 -1.79666 0
M  V30 1574 O 142.57 1.69479 -1.87171 0
M  V30 1575 C 143.883 -1.44998 -2.63431 0
M  V30 1576 C 145.431 -1.45138 -2.77316 0
M  V30 1577 C 145.906 -2.33179 -3.94197 0
M  V30 1578 N 147.397 -2.31025 -4.01474 0
M  V30 1579 C 148.132 -2.95871 -4.9117 0
M  V30 1580 N 147.628 -3.69863 -5.8581 0
M  V30 1581 N 149.421 -2.85211 -4.84367 0
M  V30 1582 H 141.572 -1.81339 -1.10589 0
M  V30 1583 H 143.835 -0.77505 -0.545895 0
M  V30 1584 H 143.541 -2.49377 -2.48 0
M  V30 1585 H 143.415 -1.14409 -3.59431 0
M  V30 1586 H 145.802 -0.415201 -2.92164 0
M  V30 1587 H 145.883 -1.79747 -1.82001 0
M  V30 1588 H 145.527 -3.3687 -3.80107 0
M  V30 1589 H 145.457 -1.95897 -4.88807 0
M  V30 1590 H 147.948 -1.77238 -3.33759 0
M  V30 1591 H 148.261 -4.16486 -6.50968 0
M  V30 1592 H 146.606 -3.73971 -5.85808 0
M  V30 1593 H 149.797 -2.26948 -4.09405 0
M  V30 1594 H 149.97 -3.36027 -5.54066 0
M  V30 1595 N 143.376 1.44774 -0.622745 0
M  V30 1596 C 144.616 2.04004 -0.127102 0
M  V30 1597 C 144.98 1.47862 1.22478 0
M  V30 1598 O 146.181 1.98541 1.81204 0
M  V30 1599 C 144.452 3.57247 -0.104429 0
M  V30 1600 S 146.011 4.37574 0.327814 0
M  V30 1601 H 142.829 0.708713 -0.0569776 0
M  V30 1602 H 145.431 1.77275 -0.824253 0
M  V30 1603 H 144.135 3.95616 -1.09159 0
M  V30 1604 H 143.666 3.88575 0.614236 0
M  V30 1605 H 145.681 4.70575 1.57395 0
M  V30 1606 N 144.854 0.36279 1.53368 0
M  V30 1607 C 145.802 -0.500155 2.27159 0
M  V30 1608 C 146.796 -1.08575 1.3003 0
M  V30 1609 O 148.002 -1.02927 1.47668 0
M  V30 1610 H 144.377 -0.180009 0.730138 0
M  V30 1611 H 146.348 0.14401 2.98052 0
M  V30 1612 C 145.097 -1.62937 3.07159 0
M  V30 1613 H 144.42 -1.18806 3.8174 0
M  V30 1614 H 145.86 -2.20795 3.61975 0
M  V30 1615 C 144.319 -2.57007 2.17829 0
M  V30 1616 O 144.849 -3.59752 1.78721 0
M  V30 1617 N 143.055 -2.26131 1.82518 0
M  V30 1618 H 142.602 -1.42616 2.14519 0
M  V30 1619 H 142.56 -2.89327 1.23034 0
M  V30 1620 N 146.332 -1.57332 0.0918853 0
M  V30 1621 C 147.572 -1.96117 -0.575988 0
M  V30 1622 C 147.936 -0.972499 -1.65549 0
M  V30 1623 O 149.137 -1.24872 -2.38034 0
M  V30 1624 C 147.408 -3.39407 -1.11973 0
M  V30 1625 S 148.967 -4.00185 -1.79992 0
M  V30 1626 H 145.785 -0.685682 -0.188045 0
M  V30 1627 H 148.387 -1.94755 0.170525 0
M  V30 1628 H 147.091 -4.09131 -0.322504 0
M  V30 1629 H 146.622 -3.44358 -1.90214 0
M  V30 1630 H 148.637 -3.88728 -3.08391 0
M  V30 1631 N 147.81 0.181792 -1.56548 0
M  V30 1632 C 149.056 0.901431 -1.81665 0
M  V30 1633 C 149.389 1.82347 -0.668075 0
M  V30 1634 O 148.664 1.91669 0.330615 0
M  V30 1635 C 148.947 1.70618 -3.17115 0
M  V30 1636 C 148.8 0.807964 -4.42484 0
M  V30 1637 C 150.119 2.67605 -3.49393 0
M  V30 1638 H 147.238 0.32627 -0.660846 0
M  V30 1639 H 149.88 0.168134 -1.89255 0
M  V30 1640 H 148.03 2.33133 -3.10775 0
M  V30 1641 H 149.702 0.19649 -4.60881 0
M  V30 1642 H 147.945 0.115411 -4.33646 0
M  V30 1643 H 148.616 1.40632 -5.33785 0
M  V30 1644 H 151.092 2.15218 -3.56118 0
M  V30 1645 H 149.968 3.20985 -4.45264 0
M  V30 1646 H 150.229 3.47298 -2.73563 0
M  V30 1647 N 149.288 1.51039 0.449983 0
M  V30 1648 C 150.699 1.557 1.03026 0
M  V30 1649 C 151.05 0.372939 1.92623 0
M  V30 1650 O 150.175 -0.511771 2.10261 0
M  V30 1651 C 150.77 2.82171 1.87523 0
M  V30 1652 C 149.329 2.89444 2.40622 0
M  V30 1653 C 148.476 2.50228 1.19504 0
M  V30 1654 H 151.427 1.56999 0.231745 0
M  V30 1655 H 151.448 2.65219 2.72835 0
M  V30 1656 H 150.96 3.68331 1.22286 0
M  V30 1657 H 149.061 2.07685 3.0935 0
M  V30 1658 H 149.174 3.92816 2.74285 0
M  V30 1659 H 147.538 2.03139 1.53644 0
M  V30 1660 H 148.321 3.38719 0.558972 0
M  V30 1661 N 150.766 -0.704594 1.40972 0
M  V30 1662 C 152.015 -1.46018 1.39146 0
M  V30 1663 C 152.328 -1.956 0.000589254 0
M  V30 1664 O 153.534 -2.71137 -0.1403 0
M  V30 1665 C 151.99 -2.63996 2.4461 0
M  V30 1666 C 151.598 -2.21238 3.89561 0
M  V30 1667 C 153.342 -3.41677 2.51907 0
M  V30 1668 C 151.249 -3.3612 4.86598 0
M  V30 1669 H 150.179 -0.548444 0.517422 0
M  V30 1670 H 152.83 -0.765784 1.66757 0
M  V30 1671 H 151.212 -3.3566 2.10115 0
M  V30 1672 H 152.386 -1.56923 4.33257 0
M  V30 1673 H 150.701 -1.56574 3.85841 0
M  V30 1674 H 153.298 -4.27182 3.2159 0
M  V30 1675 H 153.641 -3.86247 1.55303 0
M  V30 1676 H 154.174 -2.77064 2.85448 0
M  V30 1677 H 150.913 -2.96572 5.84573 0
M  V30 1678 H 150.433 -3.99315 4.47557 0
M  V30 1679 H 152.112 -4.02029 5.06934 0
M  V30 1680 N 152.244 -1.26651 -0.937939 0
M  V30 1681 C 153.655 -1.1125 -1.49934 0
M  V30 1682 C 154.006 0.306077 -1.93798 0
M  V30 1683 O 153.131 1.19792 -1.80219 0
M  V30 1684 C 153.726 -2.01339 -2.72485 0
M  V30 1685 C 152.285 -1.90074 -3.24883 0
M  V30 1686 C 151.432 -1.94498 -1.97651 0
M  V30 1687 H 154.383 -1.39693 -0.753091 0
M  V30 1688 H 154.404 -1.56319 -3.46907 0
M  V30 1689 H 153.916 -3.04577 -2.40529 0
M  V30 1690 H 152.017 -0.897827 -3.61621 0
M  V30 1691 H 152.13 -2.75778 -3.9177 0
M  V30 1692 H 150.494 -1.38591 -2.13693 0
M  V30 1693 H 151.277 -2.99372 -1.68022 0
M  V30 1694 N 153.722 1.14298 -1.08507 0
M  V30 1695 C 154.652 2.21542 -0.737646 0
M  V30 1696 C 155.633 1.67773 0.280377 0
M  V30 1697 O 156.818 1.93616 0.150521 0
M  V30 1698 C 153.948 3.46988 -0.147259 0
M  V30 1699 C 152.902 4.13789 -1.09374 0
M  V30 1700 C 152.228 5.33449 -0.365524 0
M  V30 1701 C 153.528 4.62208 -2.4323 0
M  V30 1702 H 155.222 2.5086 -1.6343 0
M  V30 1703 H 152.768 1.20576 -0.787243 0
M  V30 1704 H 154.721 4.21262 0.107808 0
M  V30 1705 H 153.445 3.17037 0.784538 0
M  V30 1706 H 152.104 3.4147 -1.33393 0
M  V30 1707 H 151.752 4.99759 0.57011 0
M  V30 1708 H 151.452 5.79088 -0.996512 0
M  V30 1709 H 152.976 6.10485 -0.118534 0
M  V30 1710 H 154.39 5.27952 -2.23472 0
M  V30 1711 H 152.787 5.18553 -3.02031 0
M  V30 1712 H 153.857 3.77224 -3.04681 0
M  V30 1713 N 155.201 0.870884 1.31352 0
M  V30 1714 C 156.449 0.48132 1.96285 0
M  V30 1715 C 156.77 -0.969813 1.69173 0
M  V30 1716 O 156.04 -1.67998 1.00764 0
M  V30 1717 H 154.62 0.175002 0.726212 0
M  V30 1718 H 157.282 1.11087 1.60143 0
M  V30 1719 H 156.378 0.639825 3.05471 0
M  V30 1720 N 156.679 -1.44442 0.630414 0
M  V30 1721 C 157.904 -2.06927 0.139944 0
M  V30 1722 C 158.329 -1.46795 -1.17613 0
M  V30 1723 O 157.687 -0.569144 -1.72135 0
M  V30 1724 C 157.735 -3.6058 0.0379581 0
M  V30 1725 O 156.839 -3.99937 -1.0062 0
M  V30 1726 H 156.18 -0.658608 0.0844483 0
M  V30 1727 H 158.71 -1.85327 0.866891 0
M  V30 1728 H 158.72 -4.07714 -0.152856 0
M  V30 1729 H 157.395 -4.03728 0.998809 0
M  V30 1730 H 155.972 -3.64436 -0.79001 0
M  V30 1731 N 158.157 -0.370918 -1.53173 0
M  V30 1732 C 159.104 0.473035 -2.259 0
M  V30 1733 C 160.074 1.07311 -1.26781 0
M  V30 1734 O 161.259 1.1046 -1.55574 0
M  V30 1735 C 158.399 1.60405 -3.05556 0
M  V30 1736 C 157.512 1.02863 -4.19575 0
M  V30 1737 C 156.647 2.12918 -4.86661 0
M  V30 1738 C 155.686 1.52869 -5.92704 0
M  V30 1739 N 154.823 2.56779 -6.53459 0
M  V30 1740 H 159.663 -0.153649 -2.97604 0
M  V30 1741 H 157.2 -0.0875946 -1.46839 0
M  V30 1742 H 159.158 2.27034 -3.50016 0
M  V30 1743 H 157.788 2.20131 -2.36097 0
M  V30 1744 H 156.84 0.252465 -3.79561 0
M  V30 1745 H 158.152 0.549642 -4.95762 0
M  V30 1746 H 157.306 2.87356 -5.34333 0
M  V30 1747 H 156.045 2.6417 -4.09958 0
M  V30 1748 H 155.05 0.769479 -5.44389 0
M  V30 1749 H 156.275 1.02435 -6.7133 0
M  V30 1750 H 154.221 3.07235 -5.79606 0
M  V30 1751 H 154.138 2.13583 -7.25202 0
M  V30 1752 H 155.406 3.30903 -7.05779 0
M  V30 1753 N 159.635 1.57281 -0.100228 0
M  V30 1754 C 160.583 2.15542 0.874328 0
M  V30 1755 C 161.577 1.09962 1.28859 0
M  V30 1756 O 162.783 1.28298 1.26252 0
M  V30 1757 H 159.158 0.689567 0.300003 0
M  V30 1758 H 161.129 2.96241 0.35829 0
M  V30 1759 C 159.878 2.75454 2.1218 0
M  V30 1760 H 159.201 3.56384 1.81193 0
M  V30 1761 H 160.641 3.19781 2.78417 0
M  V30 1762 C 159.1 1.71602 2.89921 0
M  V30 1763 O 159.63 1.15804 3.84646 0
M  V30 1764 N 157.836 1.41975 2.53558 0
M  V30 1765 H 157.383 1.87539 1.76598 0
M  V30 1766 H 157.341 0.727274 3.05873 0
M  V30 1767 N 161.113 -0.173488 1.56642 0
M  V30 1768 C 162.061 -1.23417 1.97157 0
M  V30 1769 C 163.055 -1.45946 0.860013 0
M  V30 1770 O 164.261 -1.46551 1.04512 0
M  V30 1771 H 160.636 -0.414818 0.62724 0
M  V30 1772 H 162.607 -0.865582 2.8557 0
M  V30 1773 C 161.356 -2.5665 2.34576 0
M  V30 1774 H 160.679 -2.40137 3.19647 0
M  V30 1775 H 162.119 -3.2956 2.6677 0
M  V30 1776 C 160.578 -3.15245 1.18836 0
M  V30 1777 O 161.108 -3.98883 0.474869 0
M  V30 1778 N 159.314 -2.74303 0.959497 0
M  V30 1779 H 158.861 -2.0639 1.54146 0
M  V30 1780 H 158.819 -3.13844 0.186932 0
M  V30 1781 N 162.591 -1.51276 -0.441967 0
M  V30 1782 C 163.524 -1.66933 -1.55591 0
M  V30 1783 C 164.502 -0.516958 -1.54163 0
M  V30 1784 O 165.686 -0.740209 -1.73358 0
M  V30 1785 C 162.813 -1.67866 -2.94174 0
M  V30 1786 C 161.859 -2.89013 -3.13646 0
M  V30 1787 S 162.692 -4.49897 -2.90436 0
M  V30 1788 C 163.848 -4.53568 -4.31308 0
M  V30 1789 H 164.081 -2.61155 -1.42076 0
M  V30 1790 H 161.614 -1.40902 -0.631341 0
M  V30 1791 H 163.572 -1.69089 -3.74058 0
M  V30 1792 H 162.233 -0.748296 -3.05056 0
M  V30 1793 H 161.426 -2.86054 -4.14957 0
M  V30 1794 H 161.028 -2.85509 -2.4158 0
M  V30 1795 H 163.32 -4.28924 -5.24434 0
M  V30 1796 H 164.263 -5.55355 -4.39303 0
M  V30 1797 H 164.671 -3.82943 -4.14747 0
M  V30 1798 N 164.069 0.697108 -1.41344 0
M  V30 1799 C 165.309 1.46939 -1.42085 0
M  V30 1800 C 165.673 1.9198 -0.0280397 0
M  V30 1801 O 166.874 2.6865 0.0897504 0
M  V30 1802 C 165.145 2.64985 -2.39828 0
M  V30 1803 S 166.704 3.54147 -2.59085 0
M  V30 1804 H 163.522 0.502146 -0.503359 0
M  V30 1805 H 166.124 0.813546 -1.77769 0
M  V30 1806 H 164.828 2.30098 -3.39828 0
M  V30 1807 H 164.359 3.35464 -2.05493 0
M  V30 1808 H 166.374 4.60137 -1.85711 0
M  V30 1809 N 165.547 1.27147 0.931209 0
M  V30 1810 C 166.796 1.12664 1.67302 0
M  V30 1811 C 167.109 -0.327718 1.92835 0
M  V30 1812 O 168.315 -0.593392 2.64936 0
M  V30 1813 C 166.771 1.9683 3.01307 0
M  V30 1814 C 166.379 3.46901 2.83485 0
M  V30 1815 C 168.123 1.90985 3.79111 0
M  V30 1816 C 166.03 4.23279 4.13024 0
M  V30 1817 H 164.96 0.41803 0.627509 0
M  V30 1818 H 167.611 1.51539 1.03481 0
M  V30 1819 H 165.993 1.50797 3.66164 0
M  V30 1820 H 167.167 4.00773 2.27415 0
M  V30 1821 H 165.482 3.54088 2.19113 0
M  V30 1822 H 168.079 2.45328 4.75098 0
M  V30 1823 H 168.422 0.882718 4.06834 0
M  V30 1824 H 168.955 2.34895 3.21044 0
M  V30 1825 H 165.694 5.26503 3.90481 0
M  V30 1826 H 165.214 3.74186 4.6877 0
M  V30 1827 H 166.893 4.32265 4.81411 0
M  V30 1828 N 167.025 -1.13721 1.09112 0
M  V30 1829 C 167.972 -2.19031 0.727591 0
M  V30 1830 C 168.942 -1.63555 -0.289656 0
M  V30 1831 O 170.127 -1.90023 -0.172026 0
M  V30 1832 C 167.267 -3.4477 0.15082 0
M  V30 1833 C 166.38 -4.14365 1.22172 0
M  V30 1834 C 165.515 -5.27709 0.608042 0
M  V30 1835 C 164.554 -5.89147 1.66047 0
M  V30 1836 N 163.691 -6.93929 1.06806 0
M  V30 1837 H 168.531 -2.49475 1.62991 0
M  V30 1838 H 166.068 -1.22499 0.81439 0
M  V30 1839 H 168.026 -4.16714 -0.201358 0
M  V30 1840 H 166.656 -3.14787 -0.714783 0
M  V30 1841 H 165.708 -3.40737 1.69122 0
M  V30 1842 H 167.02 -4.56114 2.01895 0
M  V30 1843 H 166.174 -6.06355 0.204523 0
M  V30 1844 H 164.913 -4.872 -0.220769 0
M  V30 1845 H 163.918 -5.09198 2.07357 0
M  V30 1846 H 165.143 -6.31729 2.49189 0
M  V30 1847 H 163.089 -6.55483 0.260476 0
M  V30 1848 H 163.006 -7.34202 1.8023 0
M  V30 1849 H 164.274 -7.76434 0.690644 0
M  V30 1850 N 168.503 -0.877838 -1.30888 0
M  V30 1851 C 169.919 -0.570844 -1.49042 0
M  V30 1852 C 170.119 0.893159 -1.80624 0
M  V30 1853 O 169.175 1.67485 -1.88958 0
M  V30 1854 C 170.488 -1.47784 -2.61878 0
M  V30 1855 C 172.036 -1.48071 -2.75761 0
M  V30 1856 C 172.511 -2.37347 -3.91702 0
M  V30 1857 N 174.002 -2.35271 -3.99001 0
M  V30 1858 C 174.737 -3.01063 -4.88004 0
M  V30 1859 N 174.233 -3.76055 -5.81854 0
M  V30 1860 N 176.026 -2.90332 -4.81315 0
M  V30 1861 H 168.177 -1.82502 -1.0866 0
M  V30 1862 H 170.44 -0.780797 -0.537644 0
M  V30 1863 H 170.146 -2.51993 -2.45341 0
M  V30 1864 H 170.02 -1.18215 -3.58197 0
M  V30 1865 H 172.407 -0.446166 -2.91708 0
M  V30 1866 H 172.488 -1.81668 -1.80085 0
M  V30 1867 H 172.132 -3.40883 -3.76512 0
M  V30 1868 H 172.062 -2.01071 -4.86701 0
M  V30 1869 H 174.553 -1.80768 -3.3186 0
M  V30 1870 H 174.866 -4.23366 -6.46514 0
M  V30 1871 H 173.211 -3.80163 -5.81808 0
M  V30 1872 H 176.402 -2.31278 -4.06974 0
M  V30 1873 H 176.575 -3.41885 -5.50471 0
M  V30 1874 N 169.982 1.44106 -0.638065 0
M  V30 1875 C 170.912 2.33448 0.0494287 0
M  V30 1876 C 171.893 1.48606 0.827672 0
M  V30 1877 O 173.078 1.77308 0.792173 0
M  V30 1878 C 170.208 3.31771 1.02691 0
M  V30 1879 C 169.162 4.26485 0.359823 0
M  V30 1880 C 168.488 5.14729 1.44769 0
M  V30 1881 C 169.788 5.17056 -0.738296 0
M  V30 1882 H 171.482 2.91183 -0.696636 0
M  V30 1883 H 169.028 1.40014 -0.336456 0
M  V30 1884 H 170.981 3.93161 1.51666 0
M  V30 1885 H 169.705 2.7226 1.80395 0
M  V30 1886 H 168.364 3.66437 -0.10934 0
M  V30 1887 H 168.012 4.51566 2.21578 0
M  V30 1888 H 167.712 5.78913 1.00668 0
M  V30 1889 H 169.236 5.78991 1.93911 0
M  V30 1890 H 170.65 5.72342 -0.331354 0
M  V30 1891 H 169.047 5.89879 -1.10286 0
M  V30 1892 H 170.117 4.57652 -1.60258 0
M  V30 1893 N 171.46 0.379036 1.52974 0
M  V30 1894 C 172.392 -0.495963 2.2377 0
M  V30 1895 C 173.405 -1.03517 1.25651 0
M  V30 1896 O 174.594 -0.939249 1.51791 0
M  V30 1897 C 171.694 -1.69894 2.93239 0
M  V30 1898 C 170.867 -1.2889 4.17979 0
M  V30 1899 C 169.926 -2.35543 4.70538 0
M  V30 1900 O 168.952 -1.97375 5.33883 0
M  V30 1901 N 170.154 -3.67318 4.49508 0
M  V30 1902 H 172.919 0.110523 2.99496 0
M  V30 1903 H 170.48 0.204878 1.60598 0
M  V30 1904 H 172.472 -2.40747 3.25304 0
M  V30 1905 H 171.042 -2.212 2.20883 0
M  V30 1906 H 170.262 -0.409676 3.92065 0
M  V30 1907 H 171.55 -0.991443 4.99047 0
M  V30 1908 H 170.948 -4.01095 3.98923 0
M  V30 1909 H 169.505 -4.34235 4.8609 0
M  V30 1910 N 172.938 -1.57226 0.108567 0
M  V30 1911 C 174.187 -1.94008 -0.551703 0
M  V30 1912 C 174.5 -0.993442 -1.68494 0
M  V30 1913 O 175.706 -1.25551 -2.40726 0
M  V30 1914 C 174.162 -3.44763 -1.03279 0
M  V30 1915 C 173.77 -4.47943 0.0714193 0
M  V30 1916 C 175.514 -3.90483 -1.66503 0
M  V30 1917 C 173.421 -5.89865 -0.425779 0
M  V30 1918 H 172.351 -0.724206 -0.209863 0
M  V30 1919 H 175.002 -1.82547 0.186741 0
M  V30 1920 H 173.384 -3.51422 -1.82533 0
M  V30 1921 H 174.558 -4.52942 0.847365 0
M  V30 1922 H 172.873 -4.11913 0.609669 0
M  V30 1923 H 175.47 -4.93925 -2.04798 0
M  V30 1924 H 175.813 -3.29877 -2.53942 0
M  V30 1925 H 176.346 -3.86581 -0.938074 0
M  V30 1926 H 173.085 -6.54202 0.412316 0
M  V30 1927 H 172.605 -5.88309 -1.16843 0
M  V30 1928 H 174.284 -6.40844 -0.890397 0
M  V30 1929 N 174.416 0.165178 -1.56732 0
M  V30 1930 C 175.363 1.2044 -1.96883 0
M  V30 1931 C 176.333 1.43664 -0.833657 0
M  V30 1932 O 177.518 1.56302 -1.09427 0
M  V30 1933 C 174.658 2.53727 -2.33916 0
M  V30 1934 C 173.771 2.3783 -3.6064 0
M  V30 1935 C 172.906 3.64026 -3.86857 0
M  V30 1936 C 171.945 3.43088 -5.06909 0
M  V30 1937 N 171.082 4.61369 -5.29229 0
M  V30 1938 H 175.922 0.854996 -2.85471 0
M  V30 1939 H 173.459 0.41076 -1.41249 0
M  V30 1940 H 175.417 3.31419 -2.53411 0
M  V30 1941 H 174.047 2.8665 -1.48431 0
M  V30 1942 H 173.099 1.51282 -3.49024 0
M  V30 1943 H 174.411 2.18308 -4.4849 0
M  V30 1944 H 173.565 4.50152 -4.06753 0
M  V30 1945 H 172.304 3.86533 -2.97394 0
M  V30 1946 H 171.309 2.55349 -4.86906 0
M  V30 1947 H 172.534 3.21997 -5.97909 0
M  V30 1948 H 170.48 4.84084 -4.42718 0
M  V30 1949 H 170.397 4.44783 -6.11313 0
M  V30 1950 H 171.665 5.48761 -5.53608 0
M  V30 1951 N 175.894 1.51508 0.433938 0
M  V30 1952 C 177.305 1.56784 1.01369 0
M  V30 1953 C 177.656 0.393349 1.92217 0
M  V30 1954 O 176.781 -0.489441 2.10792 0
M  V30 1955 C 177.376 2.84144 1.8452 0
M  V30 1956 C 175.935 2.9198 2.37539 0
M  V30 1957 C 175.082 2.51482 1.16843 0
M  V30 1958 H 178.033 1.57236 0.215081 0
M  V30 1959 H 178.054 2.68098 2.70007 0
M  V30 1960 H 177.566 3.69607 1.18373 0
M  V30 1961 H 175.667 2.10955 3.0713 0
M  V30 1962 H 175.78 3.95704 2.70103 0
M  V30 1963 H 174.144 2.04758 1.51481 0
M  V30 1964 H 174.927 3.39293 0.523015 0
M  V30 1965 N 177.372 -0.689602 1.41712 0
M  V30 1966 C 178.788 -1.00093 1.24312 0
M  V30 1967 C 178.988 -2.01036 0.136729 0
M  V30 1968 O 178.044 -2.47562 -0.496918 0
M  V30 1969 C 179.357 -1.51985 2.59463 0
M  V30 1970 C 180.905 -1.63838 2.66695 0
M  V30 1971 C 181.38 -2.1913 4.02177 0
M  V30 1972 N 182.871 -2.26483 4.04054 0
M  V30 1973 C 183.606 -2.70306 5.0569 0
M  V30 1974 N 183.102 -3.13691 6.17713 0
M  V30 1975 N 184.895 -2.69923 4.9305 0
M  V30 1976 H 177.046 -0.0210029 2.1239 0
M  V30 1977 H 179.309 -0.0718733 0.945272 0
M  V30 1978 H 179.015 -0.85269 3.41207 0
M  V30 1979 H 178.889 -2.50103 2.82362 0
M  V30 1980 H 181.276 -2.29664 1.85306 0
M  V30 1981 H 181.357 -0.642492 2.476 0
M  V30 1982 H 181.001 -1.53918 4.84016 0
M  V30 1983 H 180.931 -3.19482 4.18615 0
M  V30 1984 H 183.422 -1.95874 3.23174 0
M  V30 1985 H 183.735 -3.45773 6.9113 0
M  V30 1986 H 182.08 -3.11585 6.21241 0
M  V30 1987 H 185.271 -2.35382 4.04614 0
M  V30 1988 H 185.444 -3.03758 5.72394 0
M  V30 1989 N 178.85 -1.27639 -0.924453 0
M  V30 1990 C 180.075 -1.17101 -1.71179 0
M  V30 1991 C 180.5 0.268134 -1.86179 0
M  V30 1992 O 179.858 1.19415 -1.36418 0
M  V30 1993 C 179.906 -1.86313 -3.08739 0
M  V30 1994 O 179.01 -1.16331 -3.95652 0
M  V30 1995 H 178.351 -0.407091 -0.524569 0
M  V30 1996 H 180.881 -1.68767 -1.15666 0
M  V30 1997 H 180.891 -1.938 -3.59034 0
M  V30 1998 H 179.566 -2.91001 -2.97138 0
M  V30 1999 H 178.143 -1.16935 -3.54091 0
M  V30 2000 N 180.328 1.1314 -1.09713 0
M  V30 2001 C 181.575 1.84484 -0.834987 0
M  V30 2002 C 181.903 1.83689 0.639418 0
M  V30 2003 O 181.158 1.2724 1.4869 0
M  V30 2004 C 181.457 3.32167 -1.3191 0
M  V30 2005 C 181.123 3.53139 -2.80363 0
M  V30 2006 C 179.785 3.58571 -3.20905 0
M  V30 2007 C 182.137 3.60866 -3.76065 0
M  V30 2008 C 179.465 3.69267 -4.55916 0
M  V30 2009 C 181.817 3.73089 -5.10869 0
M  V30 2010 C 180.481 3.76775 -5.50996 0
M  V30 2011 H 179.751 0.675073 -0.305544 0
M  V30 2012 H 182.398 1.33554 -1.37243 0
M  V30 2013 H 180.703 3.85469 -0.701517 0
M  V30 2014 H 182.4 3.85821 -1.09284 0
M  V30 2015 H 178.99 3.49569 -2.47991 0
M  V30 2016 H 183.174 3.55946 -3.45855 0
M  V30 2017 H 178.43 3.70388 -4.86438 0
M  V30 2018 H 182.604 3.78011 -5.84877 0
M  V30 2019 H 180.231 3.84815 -6.55608 0
M  V30 2020 N 181.806 0.884767 1.30421 0
M  V30 2021 C 183.031 0.517288 2.00845 0
M  V30 2022 C 183.456 -0.886779 1.65885 0
M  V30 2023 O 182.814 -1.58768 0.875354 0
M  V30 2024 C 182.862 0.698994 3.5376 0
M  V30 2025 O 181.966 -0.255208 4.1161 0
M  V30 2026 H 181.307 0.203872 0.631927 0
M  V30 2027 H 183.837 1.19225 1.66272 0
M  V30 2028 H 183.847 0.597912 4.03595 0
M  V30 2029 H 182.522 1.72271 3.78544 0
M  V30 2030 H 181.099 -0.10784 3.72744 0
M  V30 2031 N 183.284 -1.43765 0.645699 0
M  V30 2032 C 184.532 -2.01499 0.155731 0
M  V30 2033 C 184.853 -1.51151 -1.232 0
M  V30 2034 O 184.123 -0.721044 -1.82148 0
M  V30 2035 H 182.703 -0.745003 0.0545817 0
M  V30 2036 H 185.365 -1.76075 0.835677 0
M  V30 2037 H 184.461 -3.1181 0.134577 0
M  V30 2038 N 184.763 -0.387143 -1.52771 0
M  V30 2039 C 185.693 0.440551 -2.29306 0
M  V30 2040 C 186.674 1.06535 -1.32606 0
M  V30 2041 O 187.859 1.07853 -1.61497 0
M  V30 2042 C 184.989 1.56919 -3.09829 0
M  V30 2043 C 183.943 1.07054 -4.14395 0
M  V30 2044 C 183.269 2.29109 -4.83129 0
M  V30 2045 C 184.569 0.140015 -5.22112 0
M  V30 2046 H 186.263 -0.198026 -2.98744 0
M  V30 2047 H 183.809 -0.09668 -1.43675 0
M  V30 2048 H 185.762 2.15503 -3.62128 0
M  V30 2049 H 184.486 2.23532 -2.3812 0
M  V30 2050 H 183.145 0.507247 -3.63074 0
M  V30 2051 H 182.793 2.94227 -4.0797 0
M  V30 2052 H 182.493 1.96406 -5.53804 0
M  V30 2053 H 184.017 2.88339 -5.38231 0
M  V30 2054 H 185.431 0.633978 -5.69784 0
M  V30 2055 H 183.828 -0.0971485 -6.00021 0
M  V30 2056 H 184.898 -0.811711 -4.78058 0
M  V30 2057 N 186.241 1.57166 -0.116904 0
M  V30 2058 C 187.469 1.99473 0.549383 0
M  V30 2059 C 187.884 0.996541 1.60357 0
M  V30 2060 O 187.241 -0.0108731 1.82497 0
M  V30 2061 C 187.292 3.41788 1.17741 0
M  V30 2062 O 187.013 4.37788 0.165362 0
M  V30 2063 C 188.514 3.99216 1.92722 0
M  V30 2064 H 185.734 0.655009 0.145616 0
M  V30 2065 H 188.278 2.03494 -0.202625 0
M  V30 2066 H 186.433 3.38713 1.88021 0
M  V30 2067 H 186.847 5.20806 0.621403 0
M  V30 2068 H 188.321 5.00882 2.31995 0
M  V30 2069 H 188.798 3.3824 2.80161 0
M  V30 2070 H 189.404 4.0583 1.27209 0
M  V30 2071 N 187.719 -0.156864 1.56817 0
M  V30 2072 C 188.949 -0.885031 1.86684 0
M  V30 2073 C 189.357 -1.75696 0.701954 0
M  V30 2074 O 188.7 -1.80569 -0.337732 0
M  V30 2075 C 188.762 -1.80092 3.11138 0
M  V30 2076 C 188.426 -1.10714 4.43386 0
M  V30 2077 C 189.423 -0.465714 5.1781 0
M  V30 2078 C 187.108 -1.09959 4.90117 0
M  V30 2079 C 189.102 0.174002 6.37162 0
M  V30 2080 C 186.789 -0.456055 6.09396 0
M  V30 2081 C 187.787 0.179622 6.82764 0
M  V30 2082 O 187.475 0.812975 7.99779 0
M  V30 2083 H 187.207 -0.261813 0.623242 0
M  V30 2084 H 189.761 -0.157383 2.04796 0
M  V30 2085 H 187.991 -2.56926 2.89009 0
M  V30 2086 H 189.68 -2.40018 3.27332 0
M  V30 2087 H 190.446 -0.463427 4.82781 0
M  V30 2088 H 186.325 -1.58378 4.3294 0
M  V30 2089 H 189.869 0.670765 6.94368 0
M  V30 2090 H 185.766 -0.455975 6.43888 0
M  V30 2091 H 186.534 0.71366 8.15383 0
M  V30 2092 N 189.197 -1.51736 -0.425897 0
M  V30 2093 C 190.127 -1.76827 -1.52494 0
M  V30 2094 C 191.108 -0.618524 -1.58456 0
M  V30 2095 O 192.293 -0.862416 -1.74 0
M  V30 2096 C 189.423 -1.90374 -2.90474 0
M  V30 2097 C 188.377 -3.0588 -2.99369 0
M  V30 2098 C 187.703 -3.04625 -4.3944 0
M  V30 2099 C 189.003 -4.45644 -2.72394 0
M  V30 2100 H 190.697 -2.68855 -1.31748 0
M  V30 2101 H 188.243 -1.29372 -0.632362 0
M  V30 2102 H 190.196 -2.0651 -3.6733 0
M  V30 2103 H 188.92 -0.95004 -3.12477 0
M  V30 2104 H 187.579 -2.89467 -2.24954 0
M  V30 2105 H 187.227 -2.0701 -4.58428 0
M  V30 2106 H 186.927 -3.82195 -4.46319 0
M  V30 2107 H 188.451 -3.22869 -5.18255 0
M  V30 2108 H 189.865 -4.62348 -3.38979 0
M  V30 2109 H 188.262 -5.25006 -2.9067 0
M  V30 2110 H 189.332 -4.54893 -1.67929 0
M  V30 2111 N 190.675 0.682077 -1.42076 0
M  V30 2112 C 191.622 1.79578 -1.44984 0
M  V30 2113 C 192.592 1.6332 -0.302614 0
M  V30 2114 O 193.777 1.83978 -0.505633 0
M  V30 2115 C 190.917 3.1756 -1.35091 0
M  V30 2116 C 190.03 3.45156 -2.59791 0
M  V30 2117 C 189.165 4.72826 -2.42093 0
M  V30 2118 C 188.204 4.93433 -3.62202 0
M  V30 2119 N 187.341 6.12338 -3.43491 0
M  V30 2120 H 192.181 1.76427 -2.40161 0
M  V30 2121 H 189.718 0.861376 -1.19242 0
M  V30 2122 H 191.676 3.97287 -1.27354 0
M  V30 2123 H 190.306 3.19854 -0.435133 0
M  V30 2124 H 189.358 2.59736 -2.77923 0
M  V30 2125 H 190.67 3.5628 -3.49094 0
M  V30 2126 H 189.824 5.60631 -2.319 0
M  V30 2127 H 188.563 4.63973 -1.50268 0
M  V30 2128 H 187.568 4.04073 -3.72834 0
M  V30 2129 H 188.793 5.04136 -4.54998 0
M  V30 2130 H 186.739 6.04672 -2.54377 0
M  V30 2131 H 186.656 6.2429 -4.26377 0
M  V30 2132 H 187.924 7.02841 -3.37097 0
M  V30 2133 N 192.153 1.28127 0.917671 0
M  V30 2134 C 193.378 1.18007 1.70555 0
M  V30 2135 C 193.803 -0.258257 1.86319 0
M  V30 2136 O 193.161 -1.1869 1.37049 0
M  V30 2137 C 193.209 1.87948 3.07746 0
M  V30 2138 O 192.313 1.18427 3.9503 0
M  V30 2139 H 191.654 0.409867 0.522403 0
M  V30 2140 H 194.184 1.69379 1.1477 0
M  V30 2141 H 194.194 1.95701 3.58001 0
M  V30 2142 H 192.869 2.92573 2.95591 0
M  V30 2143 H 191.446 1.18811 3.53466 0
M  V30 2144 N 193.631 -1.12557 1.10312 0
M  V30 2145 C 194.561 -2.20341 0.772798 0
M  V30 2146 C 195.542 -1.68198 -0.25365 0
M  V30 2147 O 196.727 -1.93831 -0.119699 0
M  V30 2148 C 193.857 -3.46709 0.202443 0
M  V30 2149 C 192.811 -4.11996 1.15943 0
M  V30 2150 C 192.137 -5.328 0.450345 0
M  V30 2151 C 193.437 -4.5828 2.50552 0
M  V30 2152 H 195.131 -2.48229 1.674 0
M  V30 2153 H 192.677 -1.19308 0.806326 0
M  V30 2154 H 194.63 -4.2138 -0.0407752 0
M  V30 2155 H 193.354 -3.18245 -0.734001 0
M  V30 2156 H 192.013 -3.39305 1.38808 0
M  V30 2157 H 191.661 -5.00602 -0.490531 0
M  V30 2158 H 191.361 -5.7743 1.08851 0
M  V30 2159 H 192.885 -6.10219 0.215642 0
M  V30 2160 H 194.299 -5.2433 2.31843 0
M  V30 2161 H 192.696 -5.13683 3.10242 0
M  V30 2162 H 193.766 -3.72329 3.10643 0
M  V30 2163 N 195.109 -0.891671 -1.2995 0
M  V30 2164 C 196.339 -0.527893 -1.99742 0
M  V30 2165 C 196.747 0.88979 -1.66971 0
M  V30 2166 O 196.09 1.59766 -0.906667 0
M  V30 2167 C 196.152 -0.630804 -3.53922 0
M  V30 2168 C 195.816 -2.01401 -4.10228 0
M  V30 2169 C 196.813 -2.98422 -4.25724 0
M  V30 2170 C 194.498 -2.32121 -4.45449 0
M  V30 2171 C 196.492 -4.24293 -4.75662 0
M  V30 2172 C 194.179 -3.58237 -4.95086 0
M  V30 2173 C 195.177 -4.54137 -5.10146 0
M  V30 2174 O 194.865 -5.78014 -5.58708 0
M  V30 2175 H 194.597 -0.201953 -0.645129 0
M  V30 2176 H 197.151 -1.20076 -1.66646 0
M  V30 2177 H 195.381 0.0990616 -3.86573 0
M  V30 2178 H 197.07 -0.277338 -4.04951 0
M  V30 2179 H 197.836 -2.76001 -3.98809 0
M  V30 2180 H 193.715 -1.5824 -4.32991 0
M  V30 2181 H 197.259 -4.99153 -4.87332 0
M  V30 2182 H 193.156 -3.80491 -5.21437 0
M  V30 2183 H 193.924 -5.8049 -5.77039 0
M  V30 2184 N 196.587 1.43421 -0.653314 0
M  V30 2185 C 197.517 2.33487 0.0246656 0
M  V30 2186 C 198.498 1.49475 0.811863 0
M  V30 2187 O 199.683 1.78139 0.773322 0
M  V30 2188 C 196.813 3.32841 0.99166 0
M  V30 2189 C 195.767 4.26842 0.314568 0
M  V30 2190 C 195.093 5.16236 1.39302 0
M  V30 2191 C 196.393 5.16243 -0.793095 0
M  V30 2192 H 198.087 2.90427 -0.727481 0
M  V30 2193 H 195.633 1.39649 -0.351287 0
M  V30 2194 H 197.586 3.94747 1.47487 0
M  V30 2195 H 196.31 2.74158 1.77497 0
M  V30 2196 H 194.969 3.663 -0.148199 0
M  V30 2197 H 194.617 4.53891 2.16776 0
M  V30 2198 H 194.317 5.79948 0.945223 0
M  V30 2199 H 195.841 5.81015 1.87759 0
M  V30 2200 H 197.255 5.71958 -0.392039 0
M  V30 2201 H 195.652 5.88676 -1.16536 0
M  V30 2202 H 196.722 4.55927 -1.65103 0
M  V30 2203 N 198.065 0.39524 1.52563 0
M  V30 2204 C 199.342 -0.242908 1.94086 0
M  V30 2205 C 199.722 -1.63841 1.33114 0
M  V30 2206 O 199.07 -2.22928 0.501529 0
M  V30 2207 C 199.28 -0.26327 3.48006 0
M  V30 2208 C 200.628 -0.489354 4.21771 0
M  V30 2209 O 201.652 -0.343226 3.54543 0
M  V30 2210 O 200.511 -0.776169 5.4096 0
M  V30 2211 H 197.605 -0.152536 0.812811 0
M  V30 2212 H 200.151 0.450178 1.6362 0
M  V30 2213 H 198.923 0.713985 3.84731 0
M  V30 2214 H 198.546 -1.00103 3.84792 0
M  V30 2215 N 199.544 -1.57102 0.125237 0
M  V30 2216 C 200.792 -1.95021 -0.530198 0
M  V30 2217 C 201.113 -1.00982 -1.66816 0
M  V30 2218 O 200.383 -0.0672693 -1.95784 0
M  V30 2219 H 198.963 -0.720046 -0.198853 0
M  V30 2220 H 201.625 -1.93916 0.19564 0
M  V30 2221 H 200.721 -2.98211 -0.920681 0
M  V30 2222 N 201.022 0.148545 -1.56898 0
M  V30 2223 C 201.97 1.20265 -1.99096 0
M  V30 2224 C 202.964 1.44559 -0.883123 0
M  V30 2225 O 204.17 1.4487 -1.0683 0
M  V30 2226 H 200.545 0.404786 -0.63376 0
M  V30 2227 H 202.516 0.82004 -2.86911 0
M  V30 2228 C 201.265 2.52886 -2.3863 0
M  V30 2229 H 200.588 2.35021 -3.23427 0
M  V30 2230 H 202.028 3.25274 -2.7198 0
M  V30 2231 C 200.487 3.13315 -1.23837 0
M  V30 2232 O 201.017 3.98077 -0.538268 0
M  V30 2233 N 199.223 2.72742 -1.00301 0
M  V30 2234 H 198.77 2.03912 -1.5741 0
M  V30 2235 H 198.728 3.13507 -0.236838 0
M  V30 2236 N 202.5 1.5196 0.417844 0
M  V30 2237 C 203.432 1.70895 1.52733 0
M  V30 2238 C 204.445 0.589405 1.51756 0
M  V30 2239 O 205.634 0.864312 1.56179 0
M  V30 2240 C 202.734 1.72627 2.91639 0
M  V30 2241 C 201.907 3.01479 3.16905 0
M  V30 2242 C 200.966 2.95139 4.35637 0
M  V30 2243 O 199.992 3.69059 4.3334 0
M  V30 2244 N 201.194 2.12328 5.40275 0
M  V30 2245 H 203.959 2.66612 1.36888 0
M  V30 2246 H 201.52 1.50089 0.607037 0
M  V30 2247 H 203.512 1.65928 3.6912 0
M  V30 2248 H 202.082 0.844216 3.00985 0
M  V30 2249 H 201.302 3.21895 2.27546 0
M  V30 2250 H 202.59 3.86736 3.30625 0
M  V30 2251 H 201.988 1.51685 5.44985 0
M  V30 2252 H 200.545 2.11494 6.16534 0
M  V30 2253 N 203.978 -0.674533 1.42435 0
M  V30 2254 C 204.908 -1.80009 1.48724 0
M  V30 2255 C 205.889 -1.6659 0.343793 0
M  V30 2256 O 207.074 -1.86007 0.558137 0
M  V30 2257 C 204.204 -3.18306 1.38919 0
M  V30 2258 C 203.158 -3.46461 2.51294 0
M  V30 2259 C 202.484 -4.84335 2.26547 0
M  V30 2260 C 203.784 -3.43328 3.93603 0
M  V30 2261 H 205.478 -1.75004 2.42928 0
M  V30 2262 H 203.024 -0.840533 1.16923 0
M  V30 2263 H 204.977 -3.9678 1.41927 0
M  V30 2264 H 203.701 -3.2399 0.412094 0
M  V30 2265 H 202.36 -2.70348 2.47604 0
M  V30 2266 H 202.008 -4.86669 1.2713 0
M  V30 2267 H 201.708 -5.04136 3.01861 0
M  V30 2268 H 203.232 -5.65094 2.31304 0
M  V30 2269 H 204.646 -4.11772 3.98894 0
M  V30 2270 H 203.043 -3.74664 4.68771 0
M  V30 2271 H 204.113 -2.41897 4.20255 0
M  V30 2272 N 205.456 -1.28612 -0.910864 0
M  V30 2273 C 206.386 -1.15326 -2.03032 0
M  V30 2274 C 207.367 -0.0502924 -1.70026 0
M  V30 2275 O 208.552 -0.227797 -1.92859 0
M  V30 2276 C 205.682 -0.817343 -3.37545 0
M  V30 2277 C 204.636 -1.8754 -3.84724 0
M  V30 2278 C 203.962 -1.39305 -5.16235 0
M  V30 2279 C 205.262 -3.28244 -4.06267 0
M  V30 2280 H 206.956 -2.08975 -2.14406 0
M  V30 2281 H 204.502 -1.00612 -1.03021 0
M  V30 2282 H 206.455 -0.711151 -4.15356 0
M  V30 2283 H 205.179 0.154846 -3.26233 0
M  V30 2284 H 203.838 -1.97079 -3.09121 0
M  V30 2285 H 203.486 -0.409846 -5.01328 0
M  V30 2286 H 203.186 -2.10057 -5.48771 0
M  V30 2287 H 204.71 -1.30014 -5.96598 0
M  V30 2288 H 206.124 -3.21611 -4.74594 0
M  V30 2289 H 204.521 -3.96855 -4.5014 0
M  V30 2290 H 205.591 -3.72048 -3.10979 0
M  V30 2291 N 206.934 1.1197 -1.10907 0
M  V30 2292 C 207.844 2.21433 -0.774896 0
M  V30 2293 C 208.86 1.72478 0.229657 0
M  V30 2294 O 210.036 2.01288 0.0672008 0
M  V30 2295 C 207.101 3.4602 -0.216986 0
M  V30 2296 C 206.162 4.09791 -1.27944 0
M  V30 2297 C 205.395 5.28431 -0.748055 0
M  V30 2298 O 205.618 5.68823 0.423833 0
M  V30 2299 O 204.552 5.82644 -1.51027 0
M  V30 2300 H 208.378 2.5242 -1.68873 0
M  V30 2301 H 205.963 1.20399 -0.884555 0
M  V30 2302 H 207.845 4.21304 0.090059 0
M  V30 2303 H 206.52 3.16698 0.669633 0
M  V30 2304 H 205.427 3.36265 -1.63941 0
M  V30 2305 H 206.76 4.4328 -2.13925 0
M  V30 2306 N 208.412 0.89855 1.29475 0
M  V30 2307 C 209.661 0.519863 1.94885 0
M  V30 2308 C 209.974 -0.9383 1.71625 0
M  V30 2309 O 211.18 -1.42445 2.31131 0
M  V30 2310 C 209.636 0.878836 3.49005 0
M  V30 2311 C 209.244 2.35569 3.81066 0
M  V30 2312 C 210.988 0.570004 4.20656 0
M  V30 2313 C 208.895 2.65558 5.28425 0
M  V30 2314 H 207.825 0.190692 0.729488 0
M  V30 2315 H 210.476 1.09539 1.47219 0
M  V30 2316 H 208.858 0.232253 3.95318 0
M  V30 2317 H 210.032 3.04773 3.45616 0
M  V30 2318 H 208.347 2.63343 3.22552 0
M  V30 2319 H 210.944 0.770925 5.29113 0
M  V30 2320 H 211.287 -0.491404 4.1339 0
M  V30 2321 H 211.82 1.17438 3.8007 0
M  V30 2322 H 208.559 3.70493 5.40754 0
M  V30 2323 H 208.079 2.00977 5.65127 0
M  V30 2324 H 209.758 2.51765 5.96006 0
M  V30 2325 N 209.89 -1.43072 0.660911 0
M  V30 2326 C 211.301 -1.84932 0.256348 0
M  V30 2327 C 211.652 -1.55325 -1.19868 0
M  V30 2328 O 210.777 -1.00607 -1.91591 0
M  V30 2329 C 211.372 -3.35684 0.458475 0
M  V30 2330 C 209.931 -3.76245 0.108161 0
M  V30 2331 C 209.078 -2.66749 0.757641 0
M  V30 2332 H 212.029 -1.33116 0.864051 0
M  V30 2333 H 212.05 -3.79365 -0.293683 0
M  V30 2334 H 211.562 -3.572 1.51755 0
M  V30 2335 H 209.663 -3.60338 -0.948014 0
M  V30 2336 H 209.776 -4.76058 0.538992 0
M  V30 2337 H 208.14 -2.53989 0.190185 0
M  V30 2338 H 208.923 -2.91092 1.81989 0
M  V30 2339 N 211.368 -0.403325 -1.52352 0
M  V30 2340 C 212.3 0.4603 -2.2453 0
M  V30 2341 C 213.313 1.01505 -1.27282 0
M  V30 2342 O 214.502 0.914982 -1.53266 0
M  V30 2343 C 211.602 1.65208 -2.95905 0
M  V30 2344 C 210.775 1.22224 -4.19976 0
M  V30 2345 C 209.834 2.28028 -4.74226 0
M  V30 2346 O 208.86 1.88857 -5.36956 0
M  V30 2347 N 210.062 3.6012 -4.55295 0
M  V30 2348 H 212.827 -0.158156 -2.99282 0
M  V30 2349 H 210.388 -0.230402 -1.60252 0
M  V30 2350 H 212.38 2.35541 -3.29093 0
M  V30 2351 H 210.95 2.17658 -2.24374 0
M  V30 2352 H 210.17 0.34725 -3.92668 0
M  V30 2353 H 211.458 0.911924 -5.00561 0
M  V30 2354 H 210.856 3.94698 -4.05253 0
M  V30 2355 H 209.413 4.26447 -4.92936 0
M  V30 2356 N 212.846 1.57033 -0.133567 0
M  V30 2357 C 214.094 1.953 0.519848 0
M  V30 2358 C 214.415 1.01866 1.66278 0
M  V30 2359 O 213.685 0.0776513 1.95746 0
M  V30 2360 H 212.265 0.721091 0.195032 0
M  V30 2361 H 214.927 1.93809 -0.205921 0
M  V30 2362 H 214.023 2.98695 0.904854 0
M  V30 2363 N 214.325 -0.140222 1.56975 0
M  V30 2364 C 215.255 -1.17456 2.01808 0
M  V30 2365 C 216.236 -1.44415 0.898794 0
M  V30 2366 O 217.421 -1.5522 1.16707 0
M  V30 2367 C 214.551 -2.50607 2.40444 0
M  V30 2368 C 213.505 -2.38155 3.55621 0
M  V30 2369 C 212.831 -3.76078 3.80091 0
M  V30 2370 C 214.131 -1.85991 4.88062 0
M  V30 2371 H 215.825 -0.801743 2.88466 0
M  V30 2372 H 213.371 -0.38422 1.38779 0
M  V30 2373 H 215.324 -3.23197 2.7041 0
M  V30 2374 H 214.048 -2.89737 1.50732 0
M  V30 2375 H 212.707 -1.68016 3.25832 0
M  V30 2376 H 212.355 -4.12656 2.87618 0
M  V30 2377 H 212.055 -3.68606 4.57606 0
M  V30 2378 H 213.579 -4.50206 4.12488 0
M  V30 2379 H 214.993 -2.4838 5.16701 0
M  V30 2380 H 213.39 -1.89393 5.6943 0
M  V30 2381 H 214.46 -0.816023 4.77984 0
M  V30 2382 N 215.803 -1.52179 -0.40978 0
M  V30 2383 C 217.214 -1.58377 -0.988615 0
M  V30 2384 C 217.565 -0.423879 -1.91566 0
M  V30 2385 O 216.69 0.455844 -2.11544 0
M  V30 2386 C 217.285 -2.87044 -1.79976 0
M  V30 2387 C 215.844 -2.95722 -2.32863 0
M  V30 2388 C 214.991 -2.53309 -1.12828 0
M  V30 2389 H 217.942 -1.57558 -0.190039 0
M  V30 2390 H 217.963 -2.7236 -2.65707 0
M  V30 2391 H 217.475 -3.71444 -1.12478 0
M  V30 2392 H 215.576 -2.15814 -3.03735 0
M  V30 2393 H 215.689 -3.99951 -2.63773 0
M  V30 2394 H 214.053 -2.07142 -1.48204 0
M  V30 2395 H 214.836 -3.40082 -0.46897 0
M  V30 2396 N 217.281 0.66697 -1.42791 0
M  V30 2397 C 218.692 1.2478 -1.38877 0
M  V30 2398 C 219.043 1.96012 -0.0859426 0
M  V30 2399 O 218.168 2.00463 0.815081 0
M  V30 2400 C 218.763 2.26938 -2.51564 0
M  V30 2401 C 217.322 2.80529 -2.50959 0
M  V30 2402 C 216.469 1.54965 -2.29959 0
M  V30 2403 H 219.42 0.459853 -1.51892 0
M  V30 2404 H 219.441 3.08834 -2.22265 0
M  V30 2405 H 218.953 1.75065 -3.46372 0
M  V30 2406 H 217.054 3.36502 -1.59991 0
M  V30 2407 H 217.167 3.29012 -3.48265 0
M  V30 2408 H 215.531 1.81817 -1.78366 0
M  V30 2409 H 216.314 1.05047 -3.26833 0
M  V30 2410 N 218.759 1.29093 0.90403 0
M  V30 2411 C 219.984 1.19809 1.69294 0
M  V30 2412 C 220.409 -0.238481 1.86582 0
M  V30 2413 O 219.767 -1.1723 1.383 0
M  V30 2414 C 219.815 1.91202 3.05736 0
M  V30 2415 O 218.919 1.22611 3.93752 0
M  V30 2416 H 218.26 0.415385 0.518027 0
M  V30 2417 H 220.79 1.70586 1.12967 0
M  V30 2418 H 220.8 1.99487 3.55906 0
M  V30 2419 H 219.475 2.95692 2.92471 0
M  V30 2420 H 218.052 1.22554 3.52186 0
M  V30 2421 N 220.237 -1.11381 1.11499 0
M  V30 2422 C 221.167 -2.19509 0.796125 0
M  V30 2423 C 222.148 -1.68458 -0.235796 0
M  V30 2424 O 223.333 -1.93947 -0.0991344 0
M  V30 2425 C 220.463 -3.46475 0.239205 0
M  V30 2426 C 219.417 -4.10744 1.20307 0
M  V30 2427 C 218.743 -5.32293 0.50683 0
M  V30 2428 C 220.043 -4.55597 2.55399 0
M  V30 2429 H 221.737 -2.46439 1.70024 0
M  V30 2430 H 219.283 -1.18446 0.818935 0
M  V30 2431 H 221.236 -4.214 0.00392006 0
M  V30 2432 H 219.96 -3.19006 -0.700206 0
M  V30 2433 H 218.619 -3.37813 1.42399 0
M  V30 2434 H 218.267 -5.01095 -0.437408 0
M  V30 2435 H 217.967 -5.76243 1.1497 0
M  V30 2436 H 219.491 -6.09956 0.280351 0
M  V30 2437 H 220.905 -5.21841 2.37391 0
M  V30 2438 H 219.302 -5.10363 3.15673 0
M  V30 2439 H 220.372 -3.69013 3.14575 0
M  V30 2440 N 221.715 -0.905404 -1.28997 0
M  V30 2441 C 222.647 -0.344748 -2.26592 0
M  V30 2442 C 223.66 0.512135 -1.54535 0
M  V30 2443 O 224.849 0.328368 -1.75454 0
M  V30 2444 C 221.949 0.526587 -3.34784 0
M  V30 2445 C 221.122 -0.305871 -4.36329 0
M  V30 2446 C 220.181 0.499209 -5.23827 0
M  V30 2447 O 219.207 -0.0853004 -5.69136 0
M  V30 2448 N 220.409 1.80408 -5.51755 0
M  V30 2449 H 223.174 -1.18359 -2.75338 0
M  V30 2450 H 220.735 -0.770481 -1.42391 0
M  V30 2451 H 222.727 1.07171 -3.90252 0
M  V30 2452 H 221.297 1.26613 -2.85811 0
M  V30 2453 H 220.517 -1.0324 -3.80441 0
M  V30 2454 H 221.805 -0.875773 -5.01206 0
M  V30 2455 H 221.203 2.3016 -5.16762 0
M  V30 2456 H 219.76 2.29621 -6.10014 0
M  V30 2457 N 223.193 1.4272 -0.668489 0
M  V30 2458 C 224.123 2.335 -0.000100175 0
M  V30 2459 C 225.104 1.50328 0.795964 0
M  V30 2460 O 226.289 1.78949 0.754385 0
M  V30 2461 C 223.419 3.33874 0.956302 0
M  V30 2462 C 222.373 4.27152 0.269278 0
M  V30 2463 C 221.699 5.17684 1.33818 0
M  V30 2464 C 222.999 5.15373 -0.847805 0
M  V30 2465 H 224.693 2.89639 -0.758244 0
M  V30 2466 H 222.239 1.39269 -0.366079 0
M  V30 2467 H 224.192 3.9629 1.43292 0
M  V30 2468 H 222.916 2.76025 1.74579 0
M  V30 2469 H 221.575 3.66123 -0.187042 0
M  V30 2470 H 221.223 4.56165 2.1195 0
M  V30 2471 H 220.923 5.80918 0.883659 0
M  V30 2472 H 222.447 5.82974 1.81586 0
M  V30 2473 H 223.861 5.7151 -0.452681 0
M  V30 2474 H 222.258 5.87407 -1.22773 0
M  V30 2475 H 223.328 4.5415 -1.69929 0
M  V30 2476 N 224.671 0.411399 1.52136 0
M  V30 2477 C 225.601 -0.404015 2.29978 0
M  V30 2478 C 226.582 -1.04412 1.34284 0
M  V30 2479 O 227.767 -1.0527 1.63192 0
M  V30 2480 C 224.897 -1.5197 3.12286 0
M  V30 2481 C 223.851 -1.00448 4.16046 0
M  V30 2482 C 223.177 -2.21393 4.86712 0
M  V30 2483 C 224.477 -0.0569336 5.22269 0
M  V30 2484 H 226.171 0.245529 2.98392 0
M  V30 2485 H 223.717 0.119525 1.43503 0
M  V30 2486 H 225.67 -2.09715 3.6551 0
M  V30 2487 H 224.394 -2.19716 2.41646 0
M  V30 2488 H 223.053 -0.449421 3.63835 0
M  V30 2489 H 222.701 -2.87699 4.12599 0
M  V30 2490 H 222.401 -1.87571 5.56858 0
M  V30 2491 H 223.925 -2.7974 5.4275 0
M  V30 2492 H 225.339 -0.54325 5.7072 0
M  V30 2493 H 223.736 0.192594 5.99791 0
M  V30 2494 H 224.806 0.887663 4.76706 0
M  V30 2495 N 226.149 -1.5696 0.141893 0
M  V30 2496 C 227.374 -2.00754 -0.520838 0
M  V30 2497 C 227.799 -1.0213 -1.57959 0
M  V30 2498 O 227.157 0.00371324 -1.813 0
M  V30 2499 C 227.205 -3.43318 -1.10294 0
M  V30 2500 O 226.309 -3.47679 -2.21795 0
M  V30 2501 H 225.65 -0.651564 -0.127908 0
M  V30 2502 H 228.18 -2.03221 0.23712 0
M  V30 2503 H 228.19 -3.82012 -1.43287 0
M  V30 2504 H 226.865 -4.14608 -0.327574 0
M  V30 2505 H 225.442 -3.20824 -1.9007 0
M  V30 2506 N 227.627 0.131896 -1.57047 0
M  V30 2507 C 228.557 1.16384 -2.02428 0
M  V30 2508 C 229.538 1.43936 -0.90644 0
M  V30 2509 O 230.723 1.54599 -1.17528 0
M  V30 2510 C 227.853 2.49328 -2.4177 0
M  V30 2511 C 226.807 2.36266 -3.56879 0
M  V30 2512 C 226.133 3.74057 -3.8208 0
M  V30 2513 C 227.433 1.834 -4.89042 0
M  V30 2514 H 229.127 0.786433 -2.88887 0
M  V30 2515 H 226.673 0.376855 -1.38981 0
M  V30 2516 H 228.626 3.21759 -2.7212 0
M  V30 2517 H 227.35 2.88934 -1.52266 0
M  V30 2518 H 226.009 1.66286 -3.26718 0
M  V30 2519 H 225.657 4.11125 -2.89803 0
M  V30 2520 H 225.357 3.66174 -4.59554 0
M  V30 2521 H 226.881 4.48012 -4.1487 0
M  V30 2522 H 228.295 2.45636 -5.18011 0
M  V30 2523 H 226.692 1.8637 -5.70426 0
M  V30 2524 H 227.762 0.790662 -4.7841 0
M  V30 2525 N 229.106 1.52395 0.401703 0
M  V30 2526 C 230.016 1.7917 1.51444 0
M  V30 2527 C 231.032 0.677691 1.6026 0
M  V30 2528 O 232.208 0.963909 1.76835 0
M  V30 2529 C 229.273 1.94347 2.87107 0
M  V30 2530 C 228.334 3.18257 2.88116 0
M  V30 2531 C 227.567 3.32701 4.17308 0
M  V30 2532 O 227.79 2.52238 5.11598 0
M  V30 2533 O 226.724 4.25891 4.25324 0
M  V30 2534 H 230.55 2.73633 1.31752 0
M  V30 2535 H 228.135 1.3733 0.588296 0
M  V30 2536 H 230.017 2.06109 3.67555 0
M  V30 2537 H 228.692 1.03073 3.06851 0
M  V30 2538 H 227.599 3.11947 2.06494 0
M  V30 2539 H 228.932 4.09336 2.73322 0
M  V30 2540 N 230.584 -0.659388 1.43143 0
M  V30 2541 C 231.547 -1.75432 1.47501 0
M  V30 2542 C 232.547 -1.56707 0.360512 0
M  V30 2543 O 233.737 -1.62717 0.622002 0
M  V30 2544 C 230.869 -3.14239 1.32162 0
M  V30 2545 H 232.062 -1.7295 2.45006 0
M  V30 2546 H 229.615 -0.870469 1.29817 0
M  V30 2547 H 230.35 -3.22336 0.356401 0
M  V30 2548 H 230.135 -3.29235 2.12948 0
M  V30 2549 H 231.625 -3.94094 1.3813 0
M  V30 2550 N 232.062 -1.29571 -0.897171 0
M  V30 2551 C 233.01 -1.14802 -2.02295 0
M  V30 2552 C 234.004 -0.0629637 -1.69283 0
M  V30 2553 O 235.21 -0.222945 -1.78614 0
M  V30 2554 H 231.585 -0.354692 -0.663097 0
M  V30 2555 H 233.556 -2.10108 -2.11889 0
M  V30 2556 C 232.305 -0.843966 -3.37302 0
M  V30 2557 H 231.628 -1.67093 -3.63208 0
M  V30 2558 H 233.068 -0.780672 -4.16751 0
M  V30 2559 C 231.527 0.452843 -3.33843 0
M  V30 2560 O 232.057 1.47813 -3.73516 0
M  V30 2561 N 230.263 0.459601 -2.86943 0
M  V30 2562 H 229.81 -0.375213 -2.54853 0
M  V30 2563 H 229.768 1.32726 -2.85011 0
M  V30 2564 N 233.54 1.10788 -1.12088 0
M  V30 2565 C 234.488 2.19111 -0.780587 0
M  V30 2566 C 235.482 1.67818 0.230961 0
M  V30 2567 O 236.688 1.79777 0.0895427 0
M  V30 2568 H 233.063 0.714477 -0.234578 0
M  V30 2569 H 235.034 2.45055 -1.70266 0
M  V30 2570 C 233.783 3.46818 -0.24747 0
M  V30 2571 H 233.106 3.86646 -1.01712 0
M  V30 2572 H 234.546 4.23973 -0.0476291 0
M  V30 2573 C 233.005 3.20968 1.02378 0
M  V30 2574 O 233.535 3.42298 2.10226 0
M  V30 2575 N 231.741 2.74658 0.949271 0
M  V30 2576 H 231.288 2.57501 0.0715173 0
M  V30 2577 H 231.246 2.57739 1.80049 0
M  V30 2578 N 235.018 0.912232 1.28515 0
M  V30 2579 C 236.267 0.540504 1.94323 0
M  V30 2580 C 236.58 -0.920044 1.72611 0
M  V30 2581 O 237.786 -1.39986 2.32629 0
M  V30 2582 C 236.242 0.915803 3.48053 0
M  V30 2583 C 235.85 2.39598 3.78546 0
M  V30 2584 C 237.594 0.614588 4.20027 0
M  V30 2585 C 235.501 2.71148 5.25578 0
M  V30 2586 H 234.431 0.198418 0.727424 0
M  V30 2587 H 237.082 1.11094 1.46049 0
M  V30 2588 H 235.464 0.274168 3.9505 0
M  V30 2589 H 236.638 3.08422 3.42364 0
M  V30 2590 H 234.953 2.66749 3.1974 0
M  V30 2591 H 237.55 0.827002 5.28266 0
M  V30 2592 H 237.893 -0.447531 4.13887 0
M  V30 2593 H 238.426 1.21462 3.78803 0
M  V30 2594 H 235.165 3.76207 5.36794 0
M  V30 2595 H 234.685 2.0696 5.62963 0
M  V30 2596 H 236.364 2.58072 5.93302 0
M  V30 2597 N 236.496 -1.42363 0.676048 0
M  V30 2598 C 237.743 -2.01522 0.19883 0
M  V30 2599 C 238.071 -1.53456 -1.19505 0
M  V30 2600 O 237.326 -0.727967 -1.81657 0
M  V30 2601 C 237.625 -3.56929 0.183431 0
M  V30 2602 C 237.291 -4.24431 1.52215 0
M  V30 2603 C 235.953 -4.42585 1.8887 0
M  V30 2604 C 238.305 -4.62459 2.40377 0
M  V30 2605 C 235.633 -4.96039 3.13309 0
M  V30 2606 C 237.985 -5.17294 3.64129 0
M  V30 2607 C 236.649 -5.33661 4.00951 0
M  V30 2608 H 235.919 -0.737419 0.0727571 0
M  V30 2609 H 238.566 -1.70531 0.871281 0
M  V30 2610 H 236.871 -3.87594 -0.572532 0
M  V30 2611 H 238.568 -4.00486 -0.203035 0
M  V30 2612 H 235.158 -4.10661 1.22701 0
M  V30 2613 H 239.342 -4.48105 2.13343 0
M  V30 2614 H 234.598 -5.06896 3.41857 0
M  V30 2615 H 238.772 -5.45704 4.32644 0
M  V30 2616 H 236.399 -5.74845 4.9745 0
M  V30 2617 N 237.974 -0.419461 -1.51915 0
M  V30 2618 C 239.199 0.154572 -2.06823 0
M  V30 2619 C 239.624 1.3722 -1.28656 0
M  V30 2620 O 238.982 1.78461 -0.319583 0
M  V30 2621 C 239.03 0.473172 -3.57482 0
M  V30 2622 O 238.134 1.56255 -3.81652 0
M  V30 2623 H 237.475 0.0096924 -0.663929 0
M  V30 2624 H 240.005 -0.595642 -1.95738 0
M  V30 2625 H 240.015 0.728825 -4.01438 0
M  V30 2626 H 238.69 -0.416873 -4.13805 0
M  V30 2627 H 237.267 1.29825 -3.49571 0
M  V30 2628 N 239.452 1.56882 -0.150215 0
M  V30 2629 C 240.701 1.95403 0.500071 0
M  V30 2630 C 241.014 1.03777 1.658 0
M  V30 2631 O 242.22 1.31889 2.37313 0
M  V30 2632 C 240.676 3.4738 0.941018 0
M  V30 2633 C 240.284 4.47596 -0.190158 0
M  V30 2634 C 242.028 3.9476 1.56091 0
M  V30 2635 C 239.935 5.90787 0.269237 0
M  V30 2636 H 238.865 0.729515 0.190588 0
M  V30 2637 H 241.516 1.81988 -0.235074 0
M  V30 2638 H 239.898 3.56138 1.73152 0
M  V30 2639 H 241.072 4.50536 -0.967157 0
M  V30 2640 H 239.387 4.10151 -0.718666 0
M  V30 2641 H 241.984 4.99181 1.9163 0
M  V30 2642 H 242.327 3.36494 2.45107 0
M  V30 2643 H 242.86 3.88932 0.835249 0
M  V30 2644 H 239.599 6.52879 -0.585621 0
M  V30 2645 H 239.119 5.912 1.01204 0
M  V30 2646 H 240.798 6.42979 0.720176 0
M  V30 2647 N 240.93 -0.123565 1.57115 0
M  V30 2648 C 242.346 -0.476961 1.52306 0
M  V30 2649 C 242.546 -1.82109 0.86248 0
M  V30 2650 O 241.602 -2.48586 0.442884 0
M  V30 2651 C 242.915 -0.465661 2.97073 0
M  V30 2652 C 244.463 -0.549534 3.08138 0
M  V30 2653 C 244.938 -0.568669 4.54456 0
M  V30 2654 N 246.429 -0.630237 4.58892 0
M  V30 2655 C 247.164 -0.666415 5.69514 0
M  V30 2656 N 246.66 -0.660514 6.89644 0
M  V30 2657 N 248.453 -0.709077 5.5761 0
M  V30 2658 H 240.604 0.757198 1.98445 0
M  V30 2659 H 242.867 0.278808 0.906074 0
M  V30 2660 H 242.573 0.454232 3.48754 0
M  V30 2661 H 242.447 -1.29513 3.54269 0
M  V30 2662 H 244.834 -1.45985 2.56461 0
M  V30 2663 H 244.915 0.307532 2.53945 0
M  V30 2664 H 244.559 0.337581 5.06777 0
M  V30 2665 H 244.489 -1.44256 5.06456 0
M  V30 2666 H 246.98 -0.641146 3.72421 0
M  V30 2667 H 247.293 -0.690616 7.69708 0
M  V30 2668 H 245.638 -0.628012 6.92157 0
M  V30 2669 H 248.829 -0.711019 4.62668 0
M  V30 2670 H 249.002 -0.733804 6.43832 0
M  V30 2671 N 242.408 -1.52605 -0.393616 0
M  V30 2672 C 243.355 -1.77055 -1.48054 0
M  V30 2673 C 244.325 -0.61358 -1.54352 0
M  V30 2674 O 245.51 -0.852806 -1.70681 0
M  V30 2675 C 242.65 -1.94108 -2.85335 0
M  V30 2676 C 241.763 -3.21792 -2.88226 0
M  V30 2677 C 240.898 -3.29188 -4.16904 0
M  V30 2678 C 239.937 -4.51013 -4.13828 0
M  V30 2679 N 239.074 -4.55716 -5.34105 0
M  V30 2680 H 243.914 -2.69815 -1.26506 0
M  V30 2681 H 241.451 -1.33683 -0.61379 0
M  V30 2682 H 243.409 -2.01979 -3.65049 0
M  V30 2683 H 242.039 -1.04713 -3.05344 0
M  V30 2684 H 241.091 -3.23015 -2.00911 0
M  V30 2685 H 242.403 -4.11557 -2.8182 0
M  V30 2686 H 241.557 -3.36216 -5.05018 0
M  V30 2687 H 240.296 -2.37389 -4.26026 0
M  V30 2688 H 239.301 -4.44115 -3.24102 0
M  V30 2689 H 240.526 -5.44123 -4.06333 0
M  V30 2690 H 238.472 -3.66807 -5.43865 0
M  V30 2691 H 238.389 -5.39346 -5.29756 0
M  V30 2692 H 239.657 -4.66993 -6.2413 0
M  V30 2693 N 243.887 0.651787 -1.4349 0
M  V30 2694 C 244.797 1.79368 -1.5121 0
M  V30 2695 C 245.813 1.69361 -0.399093 0
M  V30 2696 O 246.989 1.90505 -0.653431 0
M  V30 2697 C 244.054 3.15653 -1.43401 0
M  V30 2698 C 243.115 3.37446 -2.65384 0
M  V30 2699 C 242.348 4.67229 -2.57939 0
M  V30 2700 O 242.571 5.46676 -1.62792 0
M  V30 2701 O 241.505 4.90773 -3.48462 0
M  V30 2702 H 245.331 1.7581 -2.47638 0
M  V30 2703 H 242.916 0.810447 -1.25507 0
M  V30 2704 H 244.798 3.96935 -1.41494 0
M  V30 2705 H 243.473 3.19798 -0.501085 0
M  V30 2706 H 242.38 2.55923 -2.72863 0
M  V30 2707 H 243.713 3.38148 -3.57654 0
M  V30 2708 N 245.365 1.30045 0.890287 0
M  V30 2709 C 246.313 1.15873 2.01683 0
M  V30 2710 C 247.307 0.0719403 1.69247 0
M  V30 2711 O 248.513 0.232414 1.78493 0
M  V30 2712 H 244.888 0.358203 0.661207 0
M  V30 2713 H 246.859 2.11229 2.10772 0
M  V30 2714 C 245.608 0.861842 3.36849 0
M  V30 2715 H 244.931 1.69016 3.62317 0
M  V30 2716 H 246.371 0.802762 4.16331 0
M  V30 2717 C 244.83 -0.435132 3.34078 0
M  V30 2718 O 245.36 -1.4583 3.74295 0
M  V30 2719 N 243.566 -0.444377 2.87182 0
M  V30 2720 H 243.113 0.388723 2.5465 0
M  V30 2721 H 243.071 -1.31213 2.85711 0
M  V30 2722 N 246.843 -1.10192 1.12674 0
M  V30 2723 C 247.773 -2.18652 0.819362 0
M  V30 2724 C 248.754 -1.68698 -0.217915 0
M  V30 2725 O 249.939 -1.94041 -0.0785581 0
M  V30 2726 C 247.069 -3.46202 0.27594 0
M  V30 2727 C 246.023 -4.09444 1.24656 0
M  V30 2728 C 245.349 -5.31725 0.563258 0
M  V30 2729 C 246.649 -4.52863 2.60217 0
M  V30 2730 H 248.343 -2.44622 1.72628 0
M  V30 2731 H 245.889 -1.17571 0.831451 0
M  V30 2732 H 247.842 -4.21372 0.0486149 0
M  V30 2733 H 246.566 -3.1973 -0.666331 0
M  V30 2734 H 245.225 -3.36284 1.45974 0
M  V30 2735 H 244.873 -5.0153 -0.384235 0
M  V30 2736 H 244.573 -5.74991 1.21075 0
M  V30 2737 H 246.097 -6.09624 0.34503 0
M  V30 2738 H 247.511 -5.19294 2.42913 0
M  V30 2739 H 245.908 -5.06986 3.21068 0
M  V30 2740 H 246.978 -3.65656 3.18471 0
M  V30 2741 N 248.321 -0.919034 -1.28029 0
M  V30 2742 C 249.549 -0.570971 -1.98866 0
M  V30 2743 C 249.964 0.848996 -1.68634 0
M  V30 2744 O 249.321 1.56307 -0.942036 0
M  V30 2745 C 249.372 -0.776876 -3.53054 0
M  V30 2746 O 249.093 -2.14097 -3.82222 0
M  V30 2747 C 250.594 -0.436356 -4.41147 0
M  V30 2748 H 247.814 -0.217175 -0.634883 0
M  V30 2749 H 250.358 -1.23368 -1.63097 0
M  V30 2750 H 248.513 -0.161085 -3.87065 0
M  V30 2751 H 248.927 -2.18455 -4.76841 0
M  V30 2752 H 250.401 -0.63117 -5.4838 0
M  V30 2753 H 250.878 0.627686 -4.34692 0
M  V30 2754 H 251.484 -1.02991 -4.12641 0
M  V30 2755 N 249.799 1.42003 -0.683588 0
M  V30 2756 C 250.709 2.34597 -0.0109075 0
M  V30 2757 C 251.725 1.55576 0.779245 0
M  V30 2758 O 252.901 1.88107 0.719555 0
M  V30 2759 C 249.966 3.34199 0.922588 0
M  V30 2760 C 249.027 4.29115 0.125984 0
M  V30 2761 C 248.26 5.23959 1.01502 0
M  V30 2762 O 248.483 5.23952 2.25456 0
M  V30 2763 O 247.417 6.00053 0.47111 0
M  V30 2764 H 251.243 2.93675 -0.773853 0
M  V30 2765 H 248.828 1.42654 -0.443861 0
M  V30 2766 H 250.71 3.95365 1.45823 0
M  V30 2767 H 249.385 2.77582 1.66523 0
M  V30 2768 H 248.292 3.71335 -0.453969 0
M  V30 2769 H 249.625 4.88798 -0.577736 0
M  V30 2770 N 251.277 0.427512 1.51691 0
M  V30 2771 C 252.207 -0.3796 2.30394 0
M  V30 2772 C 253.188 -1.02982 1.35384 0
M  V30 2773 O 254.373 -1.03534 1.643 0
M  V30 2774 C 251.503 -1.48649 3.1388 0
M  V30 2775 C 250.457 -0.960294 4.17088 0
M  V30 2776 C 249.783 -2.16219 4.89033 0
M  V30 2777 C 251.083 -0.00153679 5.223 0
M  V30 2778 H 252.777 0.277164 2.98114 0
M  V30 2779 H 250.323 0.134739 1.43368 0
M  V30 2780 H 252.276 -2.05826 3.67714 0
M  V30 2781 H 251 -2.1714 2.43962 0
M  V30 2782 H 249.659 -0.410806 3.64291 0
M  V30 2783 H 249.307 -2.83307 4.15628 0
M  V30 2784 H 249.007 -1.81654 5.58816 0
M  V30 2785 H 250.531 -2.73968 5.45687 0
M  V30 2786 H 251.945 -0.482687 5.71264 0
M  V30 2787 H 250.342 0.256199 5.99553 0
M  V30 2788 H 251.412 0.938174 4.75738 0
M  V30 2789 N 252.755 -1.56801 0.158532 0
M  V30 2790 C 253.718 -2.16138 -0.762705 0
M  V30 2791 C 254.718 -1.1061 -1.16713 0
M  V30 2792 O 255.908 -1.36191 -1.08617 0
M  V30 2793 C 253.04 -2.73386 -2.03649 0
M  V30 2794 H 254.233 -2.98886 -0.246354 0
M  V30 2795 H 251.786 -1.56035 -0.0909744 0
M  V30 2796 H 252.521 -1.94335 -2.59623 0
M  V30 2797 H 252.306 -3.50601 -1.75559 0
M  V30 2798 H 253.796 -3.19065 -2.6942 0
M  V30 2799 N 254.233 0.115231 -1.57178 0
M  V30 2800 C 255.181 1.16014 -2.01602 0
M  V30 2801 C 256.175 1.42653 -0.913587 0
M  V30 2802 O 257.381 1.42571 -1.09879 0
M  V30 2803 H 253.756 0.391252 -0.642204 0
M  V30 2804 H 255.727 0.758998 -2.88586 0
M  V30 2805 C 254.476 2.47767 -2.4394 0
M  V30 2806 H 253.799 2.28108 -3.28339 0
M  V30 2807 H 255.239 3.19432 -2.78818 0
M  V30 2808 C 253.698 3.10617 -1.30455 0
M  V30 2809 O 254.228 3.96846 -0.622585 0
M  V30 2810 N 252.434 2.70553 -1.06064 0
M  V30 2811 H 251.981 2.00527 -1.61699 0
M  V30 2812 H 251.939 3.12934 -0.303284 0
M  V30 2813 N 255.711 1.52812 0.385517 0
M  V30 2814 C 256.96 1.67249 1.12741 0
M  V30 2815 C 257.273 0.4205 1.91027 0
M  V30 2816 O 258.479 0.445064 2.67827 0
M  V30 2817 C 256.935 2.95583 2.05326 0
M  V30 2818 C 256.543 4.27974 1.32447 0
M  V30 2819 C 258.287 3.19386 2.7963 0
M  V30 2820 C 256.194 5.47412 2.23818 0
M  V30 2821 H 255.124 0.6231 0.424573 0
M  V30 2822 H 257.775 1.79309 0.389924 0
M  V30 2823 H 256.157 2.77277 2.82725 0
M  V30 2824 H 257.331 4.56844 0.602495 0
M  V30 2825 H 255.646 4.10459 0.700885 0
M  V30 2826 H 258.243 4.05801 3.48181 0
M  V30 2827 H 258.586 2.34604 3.43899 0
M  V30 2828 H 259.119 3.38274 2.09322 0
M  V30 2829 H 255.858 6.34612 1.64157 0
M  V30 2830 H 255.378 5.22849 2.93921 0
M  V30 2831 H 257.057 5.81423 2.83824 0
M  V30 2832 N 257.189 -0.644168 1.43834 0
M  V30 2833 C 258.099 -1.78563 1.52159 0
M  V30 2834 C 259.115 -1.69147 0.408069 0
M  V30 2835 O 260.291 -1.90156 0.663524 0
M  V30 2836 C 257.356 -3.14888 1.45073 0
M  V30 2837 C 256.417 -3.36034 2.6717 0
M  V30 2838 C 255.65 -4.65855 2.60413 0
M  V30 2839 O 255.873 -5.45805 1.65689 0
M  V30 2840 O 254.807 -4.88918 3.5106 0
M  V30 2841 H 258.633 -1.74494 2.48567 0
M  V30 2842 H 256.218 -0.80378 1.25935 0
M  V30 2843 H 258.1 -3.96179 1.43597 0
M  V30 2844 H 256.775 -3.19528 0.518037 0
M  V30 2845 H 255.682 -2.54472 2.74217 0
M  V30 2846 H 257.015 -3.36247 3.59442 0
M  V30 2847 N 258.668 -1.30515 -0.883378 0
M  V30 2848 C 259.917 -1.18795 -1.63005 0
M  V30 2849 C 260.23 0.255923 -1.93919 0
M  V30 2850 O 261.436 0.494654 -2.66956 0
M  V30 2851 C 259.892 -2.07878 -2.93794 0
M  V30 2852 C 259.5 -3.57184 -2.70414 0
M  V30 2853 C 261.244 -2.04924 -3.71761 0
M  V30 2854 C 259.151 -4.38317 -3.97029 0
M  V30 2855 H 258.081 -0.441031 -0.611562 0
M  V30 2856 H 260.732 -1.55275 -0.977854 0
M  V30 2857 H 259.114 -1.64283 -3.60315 0
M  V30 2858 H 260.288 -4.08937 -2.12384 0
M  V30 2859 H 258.603 -3.61976 -2.0582 0
M  V30 2860 H 261.2 -2.62792 -4.65665 0
M  V30 2861 H 261.543 -1.0331 -4.03277 0
M  V30 2862 H 262.076 -2.46649 -3.12104 0
M  V30 2863 H 258.815 -5.40632 -3.70671 0
M  V30 2864 H 258.335 -3.91326 -4.54559 0
M  V30 2865 H 260.014 -4.49834 -4.65036 0
M  V30 2866 N 260.146 1.09593 -1.13257 0
M  V30 2867 C 261.076 2.18214 -0.830946 0
M  V30 2868 C 262.057 1.68812 0.208966 0
M  V30 2869 O 263.242 1.9408 0.0682666 0
M  V30 2870 C 260.372 3.46051 -0.294296 0
M  V30 2871 C 259.326 4.08778 -1.26826 0
M  V30 2872 C 258.652 5.31419 -0.591449 0
M  V30 2873 C 259.952 4.51476 -2.62615 0
M  V30 2874 H 261.646 2.43703 -1.73923 0
M  V30 2875 H 259.192 1.17128 -0.837675 0
M  V30 2876 H 261.145 4.2134 -0.0709606 0
M  V30 2877 H 259.869 3.20079 0.649366 0
M  V30 2878 H 258.528 3.35505 -1.47756 0
M  V30 2879 H 258.176 5.01727 0.357633 0
M  V30 2880 H 257.876 5.74341 -1.24123 0
M  V30 2881 H 259.4 6.09433 -0.377355 0
M  V30 2882 H 260.814 5.17999 -2.45663 0
M  V30 2883 H 259.211 5.05277 -3.23752 0
M  V30 2884 H 260.281 3.63962 -3.20406 0
M  V30 2885 N 261.624 0.925811 1.2754 0
M  V30 2886 C 262.854 0.580666 1.98272 0
M  V30 2887 C 263.262 -0.845207 1.69272 0
M  V30 2888 O 262.605 -1.57306 0.948707 0
M  V30 2889 C 262.667 0.724418 3.52126 0
M  V30 2890 C 262.331 2.12206 4.04744 0
M  V30 2891 C 263.328 3.09604 4.17662 0
M  V30 2892 C 261.013 2.4385 4.39138 0
M  V30 2893 C 263.007 4.36755 4.64246 0
M  V30 2894 C 260.694 3.71237 4.85414 0
M  V30 2895 C 261.692 4.67503 4.97926 0
M  V30 2896 O 261.38 5.92624 5.43187 0
M  V30 2897 H 261.112 0.218987 0.639547 0
M  V30 2898 H 263.666 1.24452 1.63404 0
M  V30 2899 H 261.896 0.0034663 3.867 0
M  V30 2900 H 263.585 0.384607 4.04074 0
M  V30 2901 H 264.351 2.86478 3.91351 0
M  V30 2902 H 260.23 1.69665 4.28643 0
M  V30 2903 H 263.774 5.11898 4.73927 0
M  V30 2904 H 259.671 3.94182 5.11166 0
M  V30 2905 H 260.439 5.95585 5.61445 0
M  V30 2906 N 263.102 -1.41638 0.69111 0
M  V30 2907 C 264.032 -2.3347 0.037248 0
M  V30 2908 C 265.013 -1.51575 -0.771947 0
M  V30 2909 O 266.198 -1.80126 -0.72582 0
M  V30 2910 C 263.328 -3.35354 -0.903064 0
M  V30 2911 C 262.282 -4.27526 -0.201288 0
M  V30 2912 C 261.608 -5.19747 -1.25565 0
M  V30 2913 C 262.908 -5.13959 0.929689 0
M  V30 2914 H 264.602 -2.88397 0.804227 0
M  V30 2915 H 262.148 -1.38669 0.388189 0
M  V30 2916 H 264.101 -3.98519 -1.36969 0
M  V30 2917 H 262.825 -2.78767 -1.70166 0
M  V30 2918 H 261.484 -3.65779 0.245265 0
M  V30 2919 H 261.132 -4.59479 -2.04666 0
M  V30 2920 H 260.832 -5.8225 -0.791128 0
M  V30 2921 H 262.356 -5.85789 -1.72288 0
M  V30 2922 H 263.77 -5.70718 0.543546 0
M  V30 2923 H 262.167 -5.85379 1.32103 0
M  V30 2924 H 263.237 -4.51389 1.77133 0
M  V30 2925 N 264.58 -0.43555 -1.51462 0
M  V30 2926 C 265.828 0.131254 -2.01673 0
M  V30 2927 C 266.149 1.43368 -1.32177 0
M  V30 2928 O 265.419 1.90524 -0.455769 0
M  V30 2929 H 263.999 0.0514954 -0.745223 0
M  V30 2930 H 266.661 -0.577847 -1.86137 0
M  V30 2931 H 265.757 0.308446 -3.10572 0
M  V30 2932 N 266.058 1.56714 -0.166846 0
M  V30 2933 C 266.99 2.14914 0.796537 0
M  V30 2934 C 268.003 1.10357 1.19688 0
M  V30 2935 O 269.192 1.37561 1.13751 0
M  V30 2936 C 266.292 2.67326 2.08303 0
M  V30 2937 C 265.465 3.96493 1.84696 0
M  V30 2938 C 264.524 4.34014 2.97521 0
M  V30 2939 O 263.55 5.01973 2.6835 0
M  V30 2940 N 264.752 3.95208 4.25196 0
M  V30 2941 H 267.517 2.98205 0.299006 0
M  V30 2942 H 265.078 1.61892 0.0160839 0
M  V30 2943 H 267.07 2.89428 2.82867 0
M  V30 2944 H 265.64 1.88649 2.4926 0
M  V30 2945 H 264.86 3.82814 0.940602 0
M  V30 2946 H 266.148 4.8086 1.66285 0
M  V30 2947 H 265.546 3.40487 4.51758 0
M  V30 2948 H 264.103 4.2232 4.96477 0
M  V30 2949 N 267.536 -0.106894 1.57237 0
M  V30 2950 C 268.484 -1.14944 2.02215 0
M  V30 2951 C 269.478 -1.42167 0.92114 0
M  V30 2952 O 270.684 -1.41987 1.10634 0
M  V30 2953 H 267.059 -0.387841 0.64427 0
M  V30 2954 H 269.03 -0.743683 2.88984 0
M  V30 2955 C 267.779 -2.4647 2.4525 0
M  V30 2956 H 267.102 -2.26363 3.29545 0
M  V30 2957 H 268.542 -3.17948 2.80508 0
M  V30 2958 C 267.001 -3.09921 1.321 0
M  V30 2959 O 267.531 -3.9651 0.643622 0
M  V30 2960 N 265.737 -2.69986 1.07497 0
M  V30 2961 H 265.284 -1.99667 1.62761 0
M  V30 2962 H 265.242 -3.12769 0.319876 0
M  V30 2963 N 269.014 -1.53014 -0.377408 0
M  V30 2964 C 270.254 -1.70318 -1.1301 0
M  V30 2965 C 270.618 -0.439538 -1.86901 0
M  V30 2966 O 271.819 -0.489095 -2.64313 0
M  V30 2967 C 270.09 -2.91125 -2.07319 0
M  V30 2968 S 271.649 -3.29075 -2.90268 0
M  V30 2969 H 268.467 -0.599426 -0.382374 0
M  V30 2970 H 271.069 -1.91089 -0.412933 0
M  V30 2971 H 269.773 -3.81303 -1.51777 0
M  V30 2972 H 269.304 -2.7272 -2.83526 0
M  V30 2973 H 271.319 -2.80165 -4.09539 0
M  V30 2974 N 270.492 0.636531 -1.44174 0
M  V30 2975 C 271.722 1.42146 -1.49927 0
M  V30 2976 C 272.13 1.88812 -0.121063 0
M  V30 2977 O 271.473 1.61126 0.882267 0
M  V30 2978 C 271.535 2.67883 -2.39748 0
M  V30 2979 C 271.199 2.43048 -3.8701 0
M  V30 2980 C 272.196 2.05216 -4.77684 0
M  V30 2981 C 269.881 2.56856 -4.3166 0
M  V30 2982 C 271.875 1.81512 -6.11009 0
M  V30 2983 C 269.562 2.32766 -5.65034 0
M  V30 2984 C 270.56 1.95152 -6.54526 0
M  V30 2985 O 270.248 1.71326 -7.85431 0
M  V30 2986 H 269.98 0.442567 -0.51099 0
M  V30 2987 H 272.534 0.786158 -1.8976 0
M  V30 2988 H 270.764 3.34032 -1.94832 0
M  V30 2989 H 272.453 3.29874 -2.36513 0
M  V30 2990 H 273.219 1.94111 -4.44462 0
M  V30 2991 H 269.098 2.85104 -3.62266 0
M  V30 2992 H 272.642 1.52077 -6.80822 0
M  V30 2993 H 268.539 2.43479 -5.97819 0
M  V30 2994 H 269.307 1.85616 -7.97176 0
M  V30 2995 N 271.97 1.30982 0.876444 0
M  V30 2996 C 273.2 1.23063 1.65949 0
M  V30 2997 C 273.608 -0.207537 1.88058 0
M  V30 2998 O 272.951 -1.14781 1.43426 0
M  V30 2999 C 273.013 1.89768 3.05333 0
M  V30 3000 C 272.677 3.39106 3.0636 0
M  V30 3001 C 273.674 4.3496 2.84791 0
M  V30 3002 C 271.359 3.80693 3.27686 0
M  V30 3003 C 273.353 5.70375 2.84519 0
M  V30 3004 C 271.04 5.16223 3.27043 0
M  V30 3005 C 272.038 6.10875 3.05485 0
M  V30 3006 O 271.726 7.43928 3.04674 0
M  V30 3007 H 271.458 0.426685 0.524324 0
M  V30 3008 H 274.012 1.7329 1.10271 0
M  V30 3009 H 272.242 1.34082 3.6271 0
M  V30 3010 H 273.931 1.75853 3.65829 0
M  V30 3011 H 274.697 4.0416 2.68103 0
M  V30 3012 H 270.576 3.07457 3.43499 0
M  V30 3013 H 274.12 6.44228 2.67611 0
M  V30 3014 H 270.017 5.4666 3.43269 0
M  V30 3015 H 270.785 7.53022 3.2078 0
M  V30 3016 N 273.449 -1.08991 1.13837 0
M  V30 3017 C 274.865 -1.33312 0.877506 0
M  V30 3018 C 275.065 -1.95587 -0.48456 0
M  V30 3019 O 274.121 -2.20509 -1.23013 0
M  V30 3020 C 275.434 -2.24045 2.0056 0
M  V30 3021 C 276.982 -2.37542 2.03821 0
M  V30 3022 C 277.457 -3.31614 3.15905 0
M  V30 3023 N 278.948 -3.39189 3.15445 0
M  V30 3024 C 279.683 -4.11992 3.98811 0
M  V30 3025 N 279.179 -4.87553 4.92203 0
M  V30 3026 N 280.972 -4.07762 3.86894 0
M  V30 3027 H 273.123 -0.669456 2.01574 0
M  V30 3028 H 275.386 -0.357482 0.878015 0
M  V30 3029 H 275.092 -1.85521 2.98789 0
M  V30 3030 H 274.966 -3.24466 1.92359 0
M  V30 3031 H 277.353 -2.75327 1.06202 0
M  V30 3032 H 277.434 -1.36884 2.16093 0
M  V30 3033 H 277.078 -2.94551 4.13766 0
M  V30 3034 H 277.008 -4.32186 3.0087 0
M  V30 3035 H 279.499 -2.85314 2.47799 0
M  V30 3036 H 279.812 -5.40549 5.52292 0
M  V30 3037 H 278.157 -4.86627 4.96205 0
M  V30 3038 H 281.348 -3.47833 3.13257 0
M  V30 3039 H 281.521 -4.64238 4.52092 0
M  V30 3040 N 274.927 -0.932562 -1.27047 0
M  V30 3041 C 275.875 -0.42603 -2.28665 0
M  V30 3042 C 276.869 0.49219 -1.62092 0
M  V30 3043 O 278.075 0.371355 -1.76128 0
M  V30 3044 H 274.45 -0.119213 -0.742491 0
M  V30 3045 H 276.421 -1.29579 -2.68797 0
M  V30 3046 C 275.17 0.301426 -3.46391 0
M  V30 3047 H 274.493 -0.39595 -3.97834 0
M  V30 3048 H 275.933 0.6202 -4.1944 0
M  V30 3049 C 274.392 1.51616 -3.00856 0
M  V30 3050 O 274.922 2.61476 -3.04948 0
M  V30 3051 N 273.128 1.36969 -2.56296 0
M  V30 3052 H 272.675 0.475873 -2.53166 0
M  V30 3053 H 272.633 2.18368 -2.26192 0
M  V30 3054 N 276.405 1.4127 -0.698611 0
M  V30 3055 C 277.816 1.84187 -0.305289 0
M  V30 3056 C 278.167 1.58449 1.15708 0
M  V30 3057 O 277.292 1.05651 1.88856 0
M  V30 3058 C 277.887 3.3435 -0.547314 0
M  V30 3059 C 276.446 3.75826 -0.207878 0
M  V30 3060 C 275.593 2.64647 -0.828099 0
M  V30 3061 H 278.544 1.30778 -0.89904 0
M  V30 3062 H 278.565 3.8001 0.192998 0
M  V30 3063 H 278.077 3.53051 -1.61172 0
M  V30 3064 H 276.178 3.62725 0.852143 0
M  V30 3065 H 276.291 4.74462 -0.665021 0
M  V30 3066 H 274.655 2.53395 -0.257458 0
M  V30 3067 H 275.438 2.86165 -1.89643 0
M  V30 3068 N 277.883 0.443576 1.51229 0
M  V30 3069 C 279.123 -0.119889 2.04048 0
M  V30 3070 C 279.487 -1.39418 1.32009 0
M  V30 3071 O 280.688 -2.03829 1.75235 0
M  V30 3072 C 278.959 -0.327233 3.55899 0
M  V30 3073 S 280.518 -0.853208 4.30425 0
M  V30 3074 H 277.336 -0.028921 0.710412 0
M  V30 3075 H 279.938 0.604413 1.85922 0
M  V30 3076 H 278.642 0.606445 4.05895 0
M  V30 3077 H 278.173 -1.07844 3.7833 0
M  V30 3078 H 280.188 -2.13005 4.48155 0
M  V30 3079 N 279.361 -1.56624 0.175154 0
M  V30 3080 C 280.591 -2.01082 -0.474283 0
M  V30 3081 C 280.999 -1.05447 -1.57091 0
M  V30 3082 O 280.342 -0.0480595 -1.83637 0
M  V30 3083 C 280.404 -3.41963 -1.10911 0
M  V30 3084 C 280.068 -4.56742 -0.153666 0
M  V30 3085 C 281.065 -5.16076 0.629448 0
M  V30 3086 C 278.75 -5.02277 -0.0483776 0
M  V30 3087 C 280.744 -6.19377 1.50501 0
M  V30 3088 C 278.431 -6.05427 0.830768 0
M  V30 3089 C 279.429 -6.63849 1.60605 0
M  V30 3090 O 279.117 -7.64998 2.47049 0
M  V30 3091 H 278.849 -0.664261 -0.125432 0
M  V30 3092 H 281.403 -2.03549 0.275163 0
M  V30 3093 H 279.633 -3.36422 -1.90676 0
M  V30 3094 H 281.322 -3.70352 -1.66114 0
M  V30 3095 H 282.088 -4.81776 0.558297 0
M  V30 3096 H 277.967 -4.56513 -0.641611 0
M  V30 3097 H 281.511 -6.64906 2.1106 0
M  V30 3098 H 277.408 -6.39151 0.903107 0
M  V30 3099 H 278.176 -7.82336 2.40607 0
M  V30 3100 N 280.839 0.0985539 -1.57292 0
M  V30 3101 C 282.085 0.803867 -1.86188 0
M  V30 3102 C 282.418 1.78549 -0.763794 0
M  V30 3103 O 281.693 1.93153 0.22855 0
M  V30 3104 C 281.976 1.53568 -3.25713 0
M  V30 3105 C 281.829 0.572277 -4.46145 0
M  V30 3106 C 283.148 2.48708 -3.63087 0
M  V30 3107 H 280.267 0.290781 -0.677211 0
M  V30 3108 H 282.909 0.0675783 -1.8988 0
M  V30 3109 H 281.059 2.16332 -3.22696 0
M  V30 3110 H 282.731 -0.0480894 -4.61275 0
M  V30 3111 H 280.974 -0.114618 -4.33649 0
M  V30 3112 H 281.645 1.12139 -5.40489 0
M  V30 3113 H 284.121 1.96039 -3.67026 0
M  V30 3114 H 282.997 2.96932 -4.61652 0
M  V30 3115 H 283.258 3.32309 -2.91588 0
M  V30 3116 N 282.317 1.53212 0.369288 0
M  V30 3117 C 283.542 1.73423 1.1375 0
M  V30 3118 C 283.967 0.460404 1.82378 0
M  V30 3119 O 283.325 -0.585298 1.71592 0
M  V30 3120 C 283.373 2.89769 2.1463 0
M  V30 3121 O 282.477 2.58119 3.21634 0
M  V30 3122 H 281.818 0.576061 0.330227 0
M  V30 3123 H 284.348 2.00083 0.427547 0
M  V30 3124 H 284.358 3.15829 2.58294 0
M  V30 3125 H 283.033 3.8217 1.64071 0
M  V30 3126 H 281.61 2.42864 2.82969 0
M  V30 3127 N 283.795 -0.628877 1.44509 0
M  V30 3128 C 285.025 -1.41349 1.50678 0
M  V30 3129 C 285.433 -1.88745 0.131075 0
M  V30 3130 O 284.776 -1.61592 -0.87371 0
M  V30 3131 C 284.838 -2.66608 2.41165 0
M  V30 3132 C 284.502 -2.40993 3.88293 0
M  V30 3133 C 285.499 -2.0268 4.78766 0
M  V30 3134 C 283.184 -2.54563 4.33016 0
M  V30 3135 C 285.178 -1.78269 6.11963 0
M  V30 3136 C 282.865 -2.29766 5.6626 0
M  V30 3137 C 283.863 -1.91678 6.55552 0
M  V30 3138 O 283.551 -1.67158 7.86329 0
M  V30 3139 H 283.283 -0.439851 0.51333 0
M  V30 3140 H 285.837 -0.776084 1.90174 0
M  V30 3141 H 284.067 -3.32994 1.96601 0
M  V30 3142 H 285.756 -3.28615 2.38259 0
M  V30 3143 H 286.522 -1.91751 4.45485 0
M  V30 3144 H 282.401 -2.83179 3.63773 0
M  V30 3145 H 285.945 -1.48465 6.81619 0
M  V30 3146 H 281.842 -2.40306 5.99102 0
M  V30 3147 H 282.61 -1.81386 7.98149 0
M  V30 3148 N 285.273 -1.31445 -0.869486 0
M  V30 3149 C 286.498 -1.24256 -1.66058 0
M  V30 3150 C 286.923 0.188928 -1.87149 0
M  V30 3151 O 286.281 1.13522 -1.4136 0
M  V30 3152 C 286.329 -1.9924 -3.00559 0
M  V30 3153 O 285.433 -1.33007 -3.90362 0
M  V30 3154 H 284.774 -0.428973 -0.506831 0
M  V30 3155 H 287.304 -1.73521 -1.08404 0
M  V30 3156 H 287.314 -2.08854 -3.50491 0
M  V30 3157 H 285.989 -3.03342 -2.84528 0
M  V30 3158 H 284.566 -1.31848 -3.48813 0
M  V30 3159 N 286.751 1.08385 -1.14413 0
M  V30 3160 C 288 1.80153 -0.907076 0
M  V30 3161 C 288.313 1.87176 0.567851 0
M  V30 3162 O 289.519 2.55359 0.922172 0
M  V30 3163 C 287.975 3.23687 -1.57336 0
M  V30 3164 C 287.583 3.24897 -3.08457 0
M  V30 3165 C 289.327 4.00136 -1.41744 0
M  V30 3166 C 287.234 4.6302 -3.67921 0
M  V30 3167 H 286.164 0.675139 -0.335714 0
M  V30 3168 H 288.815 1.21733 -1.37307 0
M  V30 3169 H 287.197 3.82234 -1.03505 0
M  V30 3170 H 288.371 2.76055 -3.68958 0
M  V30 3171 H 286.686 2.61943 -3.2369 0
M  V30 3172 H 289.283 5.02201 -1.83572 0
M  V30 3173 H 289.626 4.14709 -0.363576 0
M  V30 3174 H 290.159 3.48058 -1.92614 0
M  V30 3175 H 286.898 4.5365 -4.73161 0
M  V30 3176 H 286.418 5.12143 -3.12201 0
M  V30 3177 H 288.097 5.31994 -3.68227 0
M  V30 3178 N 288.23 0.939286 1.26551 0
M  V30 3179 C 289.14 0.453432 2.30176 0
M  V30 3180 C 290.156 -0.471649 1.67486 0
M  V30 3181 O 291.332 -0.35164 1.98306 0
M  V30 3182 C 288.397 -0.275326 3.45605 0
M  V30 3183 C 287.458 0.686084 4.23782 0
M  V30 3184 C 286.691 -0.00798994 5.33699 0
M  V30 3185 O 286.914 -1.22528 5.57085 0
M  V30 3186 O 285.848 0.669746 5.98162 0
M  V30 3187 H 289.674 1.31416 2.73795 0
M  V30 3188 H 287.259 0.705095 1.31715 0
M  V30 3189 H 289.141 -0.685911 4.1578 0
M  V30 3190 H 287.816 -1.11147 3.0402 0
M  V30 3191 H 286.723 1.14658 3.56096 0
M  V30 3192 H 288.056 1.48979 4.69112 0
M  V30 3193 N 289.708 -1.40897 0.706093 0
M  V30 3194 C 290.655 -2.30751 0.0474474 0
M  V30 3195 C 291.625 -1.47678 -0.76029 0
M  V30 3196 O 292.81 -1.76441 -0.726177 0
M  V30 3197 C 289.95 -3.33815 -0.875309 0
M  V30 3198 C 289.063 -4.31961 -0.0580623 0
M  V30 3199 C 288.198 -5.22093 -0.979425 0
M  V30 3200 C 287.237 -6.11902 -0.155706 0
M  V30 3201 N 286.374 -6.94482 -1.03144 0
M  V30 3202 H 291.214 -2.86513 0.819413 0
M  V30 3203 H 288.751 -1.41102 0.415783 0
M  V30 3204 H 290.709 -3.92129 -1.42446 0
M  V30 3205 H 289.339 -2.79579 -1.61356 0
M  V30 3206 H 288.391 -3.75507 0.608147 0
M  V30 3207 H 289.703 -4.95415 0.580082 0
M  V30 3208 H 288.857 -5.85292 -1.59744 0
M  V30 3209 H 287.596 -4.5889 -1.65141 0
M  V30 3210 H 286.601 -5.47742 0.475309 0
M  V30 3211 H 287.826 -6.77162 0.512635 0
M  V30 3212 H 285.772 -6.33877 -1.68924 0
M  V30 3213 H 285.689 -7.54665 -0.449108 0
M  V30 3214 H 286.957 -7.6214 -1.63593 0
M  V30 3215 N 291.186 -0.45159 -1.50991 0
M  V30 3216 C 292.463 0.170707 -1.94854 0
M  V30 3217 C 292.843 1.58788 -1.39103 0
M  V30 3218 O 292.191 2.20913 -0.583921 0
M  V30 3219 C 292.401 0.133929 -3.48743 0
M  V30 3220 C 293.749 0.33248 -4.23296 0
M  V30 3221 O 294.773 0.211403 -3.55572 0
M  V30 3222 O 293.632 0.57486 -5.43468 0
M  V30 3223 H 290.726 0.122264 -0.817912 0
M  V30 3224 H 293.272 -0.510594 -1.61836 0
M  V30 3225 H 292.044 -0.856283 -3.81816 0
M  V30 3226 H 291.667 0.857529 -3.88242 0
M  V30 3227 N 292.664 1.56529 -0.183458 0
M  V30 3228 C 293.627 2.17324 0.728223 0
M  V30 3229 C 294.627 1.12453 1.14939 0
M  V30 3230 O 295.817 1.37902 1.06437 0
M  V30 3231 C 292.949 2.76591 1.99274 0
M  V30 3232 H 294.142 2.99241 0.198772 0
M  V30 3233 H 291.695 1.5616 0.0661391 0
M  V30 3234 H 292.43 1.98441 2.56499 0
M  V30 3235 H 292.215 3.5335 1.69959 0
M  V30 3236 H 293.705 3.23311 2.6431 0
M  V30 3237 N 294.142 -0.090211 1.57342 0
M  V30 3238 C 295.389 -0.792807 1.86335 0
M  V30 3239 C 295.717 -1.78494 0.772662 0
M  V30 3240 O 294.972 -1.94305 -0.233258 0
M  V30 3241 C 295.271 -1.55222 3.21933 0
M  V30 3242 C 294.937 -0.701765 4.45406 0
M  V30 3243 C 293.599 -0.467334 4.78925 0
M  V30 3244 C 295.951 -0.11086 5.21082 0
M  V30 3245 C 293.279 0.367785 5.85546 0
M  V30 3246 C 295.631 0.711609 6.28585 0
M  V30 3247 C 294.295 0.956086 6.60617 0
M  V30 3248 H 293.565 -0.290109 0.681849 0
M  V30 3249 H 296.212 -0.0541332 1.91423 0
M  V30 3250 H 294.517 -2.3626 3.12551 0
M  V30 3251 H 296.214 -2.10032 3.41595 0
M  V30 3252 H 292.804 -0.894598 4.1916 0
M  V30 3253 H 296.988 -0.279129 4.95514 0
M  V30 3254 H 292.244 0.566128 6.08773 0
M  V30 3255 H 296.418 1.17632 6.86393 0
M  V30 3256 H 294.045 1.60499 7.43064 0
M  V30 3257 N 295.62 -1.53406 -0.361157 0
M  V30 3258 C 296.55 -1.83136 -1.44857 0
M  V30 3259 C 297.531 -0.685174 -1.5569 0
M  V30 3260 O 298.716 -0.93544 -1.70186 0
M  V30 3261 C 295.846 -2.02522 -2.82138 0
M  V30 3262 C 294.8 -3.18302 -2.86126 0
M  V30 3263 C 294.126 -3.22989 -4.26125 0
M  V30 3264 C 295.426 -4.56796 -2.53248 0
M  V30 3265 H 297.12 -2.74201 -1.20226 0
M  V30 3266 H 294.666 -1.31938 -0.576922 0
M  V30 3267 H 296.619 -2.21904 -3.58241 0
M  V30 3268 H 295.343 -1.08172 -3.08166 0
M  V30 3269 H 294.002 -2.98747 -2.12475 0
M  V30 3270 H 293.65 -2.26267 -4.49235 0
M  V30 3271 H 293.35 -4.00781 -4.29708 0
M  V30 3272 H 294.874 -3.44559 -5.04094 0
M  V30 3273 H 296.288 -4.7631 -3.19064 0
M  V30 3274 H 294.685 -5.36862 -2.68141 0
M  V30 3275 H 295.755 -4.61606 -1.48484 0
M  V30 3276 N 297.098 0.621204 -1.44841 0
M  V30 3277 C 298.046 1.75385 -1.52784 0
M  V30 3278 C 299.04 1.64639 -0.398779 0
M  V30 3279 O 300.246 1.70598 -0.574137 0
M  V30 3280 H 296.621 0.579193 -0.479625 0
M  V30 3281 H 298.592 1.6581 -2.48092 0
M  V30 3282 C 297.341 3.13742 -1.4987 0
M  V30 3283 H 296.664 3.22663 -2.36069 0
M  V30 3284 H 298.104 3.92861 -1.59487 0
M  V30 3285 C 296.563 3.36175 -0.220973 0
M  V30 3286 O 297.093 3.95469 0.704782 0
M  V30 3287 N 295.299 2.90348 -0.120963 0
M  V30 3288 H 294.846 2.42278 -0.875162 0
M  V30 3289 H 294.804 3.05732 0.733168 0
M  V30 3290 N 298.576 1.31904 0.862503 0
M  V30 3291 C 299.506 1.22782 1.98612 0
M  V30 3292 C 300.487 0.113362 1.69722 0
M  V30 3293 O 301.672 0.299218 1.91881 0
M  V30 3294 C 298.802 0.942058 3.34279 0
M  V30 3295 C 297.756 2.0169 3.77499 0
M  V30 3296 C 297.082 1.58369 5.10709 0
M  V30 3297 C 298.382 3.43096 3.93805 0
M  V30 3298 H 300.076 2.16788 2.06502 0
M  V30 3299 H 297.622 1.04366 0.992154 0
M  V30 3300 H 299.575 0.864818 4.1243 0
M  V30 3301 H 298.299 -0.0336603 3.26583 0
M  V30 3302 H 296.958 2.08416 3.01593 0
M  V30 3303 H 296.606 0.595628 4.99461 0
M  V30 3304 H 296.306 2.30279 5.40597 0
M  V30 3305 H 297.83 1.52067 5.91361 0
M  V30 3306 H 299.244 3.39003 4.62331 0
M  V30 3307 H 297.641 4.13288 4.35101 0
M  V30 3308 H 298.711 3.83334 2.96957 0
M  V30 3309 N 300.054 -1.07777 1.14986 0
M  V30 3310 C 301.282 -1.84018 0.945773 0
M  V30 3311 C 301.697 -1.81897 -0.505863 0
M  V30 3312 O 301.054 -1.22726 -1.35072 0
M  V30 3313 C 301.105 -3.31287 1.44677 0
M  V30 3314 O 300.826 -3.33449 2.84154 0
M  V30 3315 C 302.327 -4.24311 1.28355 0
M  V30 3316 H 299.547 -0.580716 0.336169 0
M  V30 3317 H 302.091 -1.36077 1.52654 0
M  V30 3318 H 300.246 -3.76594 0.908625 0
M  V30 3319 H 300.66 -4.25427 3.06777 0
M  V30 3320 H 302.134 -5.2573 1.68261 0
M  V30 3321 H 302.611 -4.38612 0.227184 0
M  V30 3322 H 303.217 -3.84836 1.81056 0
M  V30 3323 N 301.532 -0.945985 -1.26051 0
M  V30 3324 C 302.479 -0.45809 -2.26208 0
M  V30 3325 C 303.449 0.484816 -1.58867 0
M  V30 3326 O 304.634 0.399969 -1.86561 0
M  V30 3327 C 301.774 0.266131 -3.44072 0
M  V30 3328 C 300.887 -0.713005 -4.26075 0
M  V30 3329 C 300.022 0.0329013 -5.3119 0
M  V30 3330 C 299.061 -0.93774 -6.04874 0
M  V30 3331 N 298.198 -0.223274 -7.01745 0
M  V30 3332 H 303.038 -1.3171 -2.67313 0
M  V30 3333 H 300.575 -0.66069 -1.31428 0
M  V30 3334 H 302.533 0.702514 -4.11243 0
M  V30 3335 H 301.163 1.08925 -3.03867 0
M  V30 3336 H 300.215 -1.26789 -3.58648 0
M  V30 3337 H 301.527 -1.45406 -4.77136 0
M  V30 3338 H 300.681 0.528335 -6.04395 0
M  V30 3339 H 299.42 0.806801 -4.8098 0
M  V30 3340 H 298.425 -1.44425 -5.30492 0
M  V30 3341 H 299.65 -1.71172 -6.57173 0
M  V30 3342 H 297.596 0.532046 -6.53839 0
M  V30 3343 H 297.513 -0.90357 -7.50581 0
M  V30 3344 H 298.781 0.250907 -7.79096 0
M  V30 3345 N 303.011 1.40521 -0.713556 0
M  V30 3346 C 303.941 2.33381 -0.0743864 0
M  V30 3347 C 304.922 1.52784 0.747735 0
M  V30 3348 O 306.107 1.81258 0.697071 0
M  V30 3349 C 303.237 3.36748 0.849598 0
M  V30 3350 C 302.191 4.27793 0.133247 0
M  V30 3351 C 301.517 5.21679 1.17281 0
M  V30 3352 C 302.817 5.12415 -1.01134 0
M  V30 3353 H 304.511 2.87081 -0.850007 0
M  V30 3354 H 302.057 1.38034 -0.410201 0
M  V30 3355 H 304.01 4.00648 1.30612 0
M  V30 3356 H 302.734 2.81439 1.65709 0
M  V30 3357 H 301.393 3.65342 -0.303426 0
M  V30 3358 H 301.041 4.62677 1.9733 0
M  V30 3359 H 300.741 5.83435 0.698397 0
M  V30 3360 H 302.265 5.88456 1.62947 0
M  V30 3361 H 303.679 5.69781 -0.634274 0
M  V30 3362 H 302.076 5.83203 -1.41399 0
M  V30 3363 H 303.146 4.48514 -1.84292 0
M  V30 3364 N 304.489 0.459591 1.5075 0
M  V30 3365 C 305.436 -0.340524 2.28274 0
M  V30 3366 C 306.406 -0.997371 1.32822 0
M  V30 3367 O 307.591 -1.01202 1.61749 0
M  V30 3368 C 304.731 -1.42317 3.14388 0
M  V30 3369 C 303.844 -0.782251 4.24859 0
M  V30 3370 C 302.979 -1.84182 4.98247 0
M  V30 3371 C 302.018 -1.18053 6.00608 0
M  V30 3372 N 301.155 -2.18244 6.67319 0
M  V30 3373 H 305.995 0.326899 2.96202 0
M  V30 3374 H 303.532 0.173057 1.46078 0
M  V30 3375 H 305.49 -2.06241 3.62658 0
M  V30 3376 H 304.12 -2.05992 2.4853 0
M  V30 3377 H 303.172 -0.0307404 3.80388 0
M  V30 3378 H 304.484 -0.259663 4.98124 0
M  V30 3379 H 303.638 -2.55714 5.50177 0
M  V30 3380 H 302.377 -2.39819 4.24662 0
M  V30 3381 H 301.382 -0.450776 5.47949 0
M  V30 3382 H 302.607 -0.631202 6.7616 0
M  V30 3383 H 300.553 -2.72919 5.96533 0
M  V30 3384 H 300.47 -1.70938 7.36421 0
M  V30 3385 H 301.738 -2.89191 7.23871 0
M  V30 3386 N 305.967 -1.56429 0.191757 0
M  V30 3387 C 307.213 -1.97777 -0.448554 0
M  V30 3388 C 307.546 -1.07847 -1.61501 0
M  V30 3389 O 306.821 -0.129774 -1.94067 0
M  V30 3390 C 307.104 -3.48362 -0.911906 0
M  V30 3391 C 306.957 -4.4907 0.256136 0
M  V30 3392 C 308.276 -4.02561 -1.77857 0
M  V30 3393 H 305.395 -0.719071 -0.161572 0
M  V30 3394 H 308.037 -1.87896 0.282007 0
M  V30 3395 H 306.187 -3.56914 -1.53442 0
M  V30 3396 H 307.859 -4.5256 0.893733 0
M  V30 3397 H 306.102 -4.24181 0.908436 0
M  V30 3398 H 306.773 -5.51889 -0.11053 0
M  V30 3399 H 309.249 -3.96767 -1.25359 0
M  V30 3400 H 308.125 -5.08301 -2.07174 0
M  V30 3401 H 308.386 -3.47616 -2.73158 0
M  V30 3402 N 307.445 0.0818655 -1.57387 0
M  V30 3403 C 308.375 1.09885 -2.06028 0
M  V30 3404 C 309.356 1.4098 -0.951774 0
M  V30 3405 O 310.541 1.50781 -1.22387 0
M  V30 3406 C 307.671 2.4151 -2.4958 0
M  V30 3407 C 306.625 2.24792 -3.64215 0
M  V30 3408 C 305.951 3.61712 -3.93787 0
M  V30 3409 C 307.251 1.67749 -4.94629 0
M  V30 3410 H 308.945 0.694128 -2.91243 0
M  V30 3411 H 306.491 0.332448 -1.4011 0
M  V30 3412 H 308.444 3.12939 -2.82219 0
M  V30 3413 H 307.168 2.83943 -1.61381 0
M  V30 3414 H 305.827 1.55807 -3.31843 0
M  V30 3415 H 305.475 4.01697 -3.02735 0
M  V30 3416 H 305.175 3.51368 -4.70971 0
M  V30 3417 H 306.699 4.34587 -4.28913 0
M  V30 3418 H 308.113 2.29032 -5.25564 0
M  V30 3419 H 306.51 1.68128 -5.76067 0
M  V30 3420 H 307.58 0.638059 -4.80684 0
M  V30 3421 N 308.923 1.53595 0.353017 0
M  V30 3422 C 310.148 1.7462 1.11904 0
M  V30 3423 C 310.573 0.479721 1.8188 0
M  V30 3424 O 309.931 -0.567066 1.72204 0
M  V30 3425 C 309.979 2.92029 2.11545 0
M  V30 3426 O 309.083 2.61516 3.18878 0
M  V30 3427 H 308.424 0.579531 0.324099 0
M  V30 3428 H 310.954 2.00525 0.406301 0
M  V30 3429 H 310.964 3.18551 2.5493 0
M  V30 3430 H 309.639 3.83888 1.60008 0
M  V30 3431 H 308.216 2.45852 2.80377 0
M  V30 3432 N 310.401 -0.613514 1.45168 0
M  V30 3433 C 311.331 -1.7354 1.56225 0
M  V30 3434 C 312.312 -1.64981 0.41414 0
M  V30 3435 O 313.497 -1.83472 0.636526 0
M  V30 3436 C 310.627 -3.12128 1.52295 0
M  V30 3437 C 309.581 -3.35491 2.65762 0
M  V30 3438 C 308.907 -4.74291 2.46885 0
M  V30 3439 C 310.207 -3.26325 4.0781 0
M  V30 3440 H 311.901 -1.64543 2.50132 0
M  V30 3441 H 309.447 -0.790185 1.20383 0
M  V30 3442 H 311.4 -3.90404 1.58628 0
M  V30 3443 H 310.124 -3.2195 0.549139 0
M  V30 3444 H 308.783 -2.59603 2.58847 0
M  V30 3445 H 308.431 -4.80839 1.47657 0
M  V30 3446 H 308.131 -4.9088 3.22972 0
M  V30 3447 H 309.655 -5.54775 2.55063 0
M  V30 3448 H 311.069 -3.94483 4.16 0
M  V30 3449 H 309.466 -3.54445 4.8424 0
M  V30 3450 H 310.536 -2.23855 4.30136 0
M  V30 3451 N 311.879 -1.3236 -0.855495 0
M  V30 3452 C 312.826 -1.21225 -1.964 0
M  V30 3453 C 313.796 -0.0946204 -1.6583 0
M  V30 3454 O 314.981 -0.27002 -1.8888 0
M  V30 3455 C 312.121 -0.940419 -3.32039 0
M  V30 3456 C 311.234 -2.14276 -3.75113 0
M  V30 3457 C 310.369 -1.80648 -4.9954 0
M  V30 3458 C 309.408 -2.97208 -5.35102 0
M  V30 3459 N 308.545 -2.63678 -6.50706 0
M  V30 3460 H 313.385 -2.16042 -2.05255 0
M  V30 3461 H 310.922 -1.07451 -1.00463 0
M  V30 3462 H 312.88 -0.763311 -4.10158 0
M  V30 3463 H 311.51 -0.0290413 -3.22787 0
M  V30 3464 H 310.562 -2.43017 -2.92655 0
M  V30 3465 H 311.874 -3.01468 -3.97389 0
M  V30 3466 H 311.028 -1.59484 -5.85363 0
M  V30 3467 H 309.767 -0.906678 -4.79198 0
M  V30 3468 H 308.772 -3.19004 -4.47791 0
M  V30 3469 H 309.997 -3.87918 -5.57401 0
M  V30 3470 H 307.943 -1.76238 -6.31883 0
M  V30 3471 H 307.86 -3.444 -6.72997 0
M  V30 3472 H 309.128 -2.45942 -7.39684 0
M  V30 3473 N 313.357 1.07166 -1.15556 0
M  V30 3474 C 314.634 1.76546 -0.842069 0
M  V30 3475 C 315.014 2.00453 0.661939 0
M  V30 3476 O 314.362 1.62452 1.60691 0
M  V30 3477 C 314.572 3.07266 -1.65495 0
M  V30 3478 C 315.92 3.81578 -1.86234 0
M  V30 3479 O 316.944 3.17083 -1.62287 0
M  V30 3480 O 315.803 4.97419 -2.26355 0
M  V30 3481 H 312.897 0.766756 -0.309862 0
M  V30 3482 H 315.443 1.13514 -1.26145 0
M  V30 3483 H 314.215 2.85494 -2.67598 0
M  V30 3484 H 313.838 3.7803 -1.23203 0
M  V30 3485 N 314.835 0.952656 1.25548 0
M  V30 3486 C 315.783 0.462354 2.27958 0
M  V30 3487 C 316.777 -0.46634 1.62855 0
M  V30 3488 O 317.983 -0.343287 1.76696 0
M  V30 3489 H 314.358 0.13101 0.7405 0
M  V30 3490 H 316.329 1.33839 2.66702 0
M  V30 3491 C 315.078 -0.24628 3.46827 0
M  V30 3492 H 314.401 0.459192 3.97154 0
M  V30 3493 H 315.841 -0.553393 4.20373 0
M  V30 3494 C 314.3 -1.4681 3.0323 0
M  V30 3495 O 314.83 -2.56591 3.09069 0
M  V30 3496 N 313.036 -1.32874 2.58443 0
M  V30 3497 H 312.583 -0.435536 2.53891 0
M  V30 3498 H 312.541 -2.14742 2.29637 0
M  V30 3499 N 316.313 -1.40141 0.720998 0
M  V30 3500 C 317.261 -2.3252 0.0608547 0
M  V30 3501 C 318.255 -1.52326 -0.741152 0
M  V30 3502 O 319.461 -1.68089 -0.643911 0
M  V30 3503 H 315.836 -0.751999 0.000876664 0
M  V30 3504 H 317.807 -2.8584 0.856614 0
M  V30 3505 C 316.556 -3.37331 -0.842809 0
M  V30 3506 H 315.879 -3.99108 -0.235084 0
M  V30 3507 H 317.319 -4.04452 -1.27257 0
M  V30 3508 C 315.778 -2.73246 -1.97074 0
M  V30 3509 O 316.308 -2.59998 -3.06209 0
M  V30 3510 N 314.514 -2.31547 -1.75597 0
M  V30 3511 H 314.061 -2.42522 -0.868368 0
M  V30 3512 H 314.019 -1.89007 -2.51244 0
M  V30 3513 N 317.792 -0.46758 -1.50504 0
M  V30 3514 C 319.038 0.0887532 -2.02606 0
M  V30 3515 C 319.371 1.39686 -1.34913 0
M  V30 3516 O 318.646 1.88644 -0.473694 0
M  V30 3517 C 318.929 0.276206 -3.59039 0
M  V30 3518 C 318.782 -1.05267 -4.37309 0
M  V30 3519 C 320.101 1.03235 -4.27821 0
M  V30 3520 H 317.22 0.0307814 -0.736357 0
M  V30 3521 H 319.862 -0.612485 -1.79857 0
M  V30 3522 H 318.012 0.8735 -3.78553 0
M  V30 3523 H 319.684 -1.68628 -4.29374 0
M  V30 3524 H 317.927 -1.65015 -4.01189 0
M  V30 3525 H 318.598 -0.875197 -5.45018 0
M  V30 3526 H 321.074 0.526111 -4.12761 0
M  V30 3527 H 319.95 1.1323 -5.37094 0
M  V30 3528 H 320.211 2.06806 -3.90748 0
M  V30 3529 N 319.27 1.56325 -0.20005 0
M  V30 3530 C 320.498 2.02105 0.442874 0
M  V30 3531 C 320.913 1.08014 1.5485 0
M  V30 3532 O 320.27 0.0858797 1.82298 0
M  V30 3533 C 320.321 3.47549 0.994583 0
M  V30 3534 O 320.042 4.38049 -0.0669322 0
M  V30 3535 C 321.543 4.0887 1.7129 0
M  V30 3536 H 318.763 0.661807 0.110691 0
M  V30 3537 H 321.307 2.02134 -0.310207 0
M  V30 3538 H 319.462 3.48204 1.69803 0
M  V30 3539 H 319.876 5.23368 0.344462 0
M  V30 3540 H 321.35 5.12475 2.05118 0
M  V30 3541 H 321.827 3.52615 2.61838 0
M  V30 3542 H 322.433 4.12002 1.05518 0
M  V30 3543 N 320.748 -0.0735177 1.57428 0
M  V30 3544 C 321.711 -1.07192 2.02589 0
M  V30 3545 C 322.711 -1.31695 0.922661 0
M  V30 3546 O 323.901 -1.27445 1.18758 0
M  V30 3547 C 321.033 -2.41599 2.40506 0
M  V30 3548 H 322.226 -0.682727 2.92025 0
M  V30 3549 H 319.779 -0.319193 1.53006 0
M  V30 3550 H 320.514 -2.85354 1.5409 0
M  V30 3551 H 320.299 -2.25156 3.21009 0
M  V30 3552 H 321.789 -3.13367 2.76027 0
M  V30 3553 N 322.226 -1.5378 -0.344866 0
M  V30 3554 C 323.472 -1.71216 -1.08687 0
M  V30 3555 C 323.805 -0.473281 -1.88345 0
M  V30 3556 O 323.08 0.52968 -1.87149 0
M  V30 3557 C 323.363 -2.97486 -2.02914 0
M  V30 3558 C 323.216 -4.31579 -1.26727 0
M  V30 3559 C 324.535 -3.19422 -3.0275 0
M  V30 3560 H 321.654 -0.62301 -0.393735 0
M  V30 3561 H 324.296 -1.8645 -0.365563 0
M  V30 3562 H 322.446 -2.84629 -2.64421 0
M  V30 3563 H 324.118 -4.56284 -0.67845 0
M  V30 3564 H 322.361 -4.30049 -0.569273 0
M  V30 3565 H 323.032 -5.16106 -1.95803 0
M  V30 3566 H 325.508 -3.316 -2.51357 0
M  V30 3567 H 324.384 -4.09169 -3.65885 0
M  V30 3568 H 324.645 -2.35656 -3.74057 0
M  V30 3569 N 323.704 0.605807 -1.45491 0
M  V30 3570 C 325.115 1.18777 -1.44045 0
M  V30 3571 C 325.466 1.95471 -0.169001 0
M  V30 3572 O 324.591 2.0374 0.729324 0
M  V30 3573 C 325.186 2.16064 -2.60963 0
M  V30 3574 C 323.745 2.69633 -2.62631 0
M  V30 3575 C 322.892 1.45072 -2.36325 0
M  V30 3576 H 325.843 0.395017 -1.53705 0
M  V30 3577 H 325.864 2.9913 -2.35163 0
M  V30 3578 H 325.376 1.60217 -3.53486 0
M  V30 3579 H 323.477 3.29414 -1.74119 0
M  V30 3580 H 323.59 3.13944 -3.61906 0
M  V30 3581 H 321.954 1.74089 -1.85917 0
M  V30 3582 H 322.737 0.910899 -3.30995 0
M  V30 3583 N 325.182 1.32811 0.848464 0
M  V30 3584 C 326.41 1.26739 1.63538 0
M  V30 3585 C 326.825 -0.163484 1.88091 0
M  V30 3586 O 326.182 -1.10258 1.45429 0
M  V30 3587 C 326.233 2.03013 2.99112 0
M  V30 3588 O 325.954 3.40518 2.75643 0
M  V30 3589 C 327.455 2.04038 3.93552 0
M  V30 3590 H 324.675 0.437024 0.509167 0
M  V30 3591 H 327.219 1.75033 1.05753 0
M  V30 3592 H 325.374 1.58426 3.53525 0
M  V30 3593 H 325.788 3.79635 3.61908 0
M  V30 3594 H 327.262 2.61877 4.85926 0
M  V30 3595 H 327.739 1.0282 4.26995 0
M  V30 3596 H 328.345 2.486 3.45077 0
M  V30 3597 N 326.66 -1.06551 1.16123 0
M  V30 3598 C 327.906 -1.79567 0.94252 0
M  V30 3599 C 328.239 -1.86869 -0.528547 0
M  V30 3600 O 327.514 -1.35838 -1.39206 0
M  V30 3601 C 327.797 -3.24195 1.56747 0
M  V30 3602 C 327.65 -3.24989 3.10969 0
M  V30 3603 C 328.969 -4.21678 1.25998 0
M  V30 3604 H 326.088 -0.651883 0.343828 0
M  V30 3605 H 328.73 -1.2463 1.43413 0
M  V30 3606 H 326.88 -3.71107 1.14942 0
M  V30 3607 H 328.552 -2.86258 3.61737 0
M  V30 3608 H 326.795 -2.63716 3.44436 0
M  V30 3609 H 327.466 -4.27005 3.49815 0
M  V30 3610 H 329.942 -3.83196 1.62174 0
M  V30 3611 H 328.818 -5.21146 1.7233 0
M  V30 3612 H 329.079 -4.4174 0.178367 0
M  V30 3613 N 328.138 -0.959301 -1.25041 0
M  V30 3614 C 329.068 -0.501388 -2.28053 0
M  V30 3615 C 330.049 0.454673 -1.63911 0
M  V30 3616 O 331.234 0.352618 -1.90972 0
M  V30 3617 C 328.364 0.217224 -3.4662 0
M  V30 3618 C 327.318 -0.654034 -4.22973 0
M  V30 3619 C 326.644 0.195589 -5.34342 0
M  V30 3620 C 327.944 -1.93447 -4.85155 0
M  V30 3621 H 329.638 -1.36238 -2.66608 0
M  V30 3622 H 327.184 -0.656534 -1.28163 0
M  V30 3623 H 329.137 0.548732 -4.17812 0
M  V30 3624 H 327.861 1.1125 -3.07068 0
M  V30 3625 H 326.52 -0.968693 -3.5357 0
M  V30 3626 H 326.168 1.09076 -4.91031 0
M  V30 3627 H 325.868 -0.384091 -5.86343 0
M  V30 3628 H 327.392 0.521958 -6.08365 0
M  V30 3629 H 328.806 -1.66908 -5.48466 0
M  V30 3630 H 327.203 -2.46018 -5.47353 0
M  V30 3631 H 328.273 -2.63466 -4.07079 0
M  V30 3632 N 329.616 1.39756 -0.72842 0
M  V30 3633 C 331.027 1.83498 -0.344289 0
M  V30 3634 C 331.378 1.60868 1.12321 0
M  V30 3635 O 330.503 1.09634 1.86573 0
M  V30 3636 C 331.098 3.33114 -0.618112 0
M  V30 3637 C 329.657 3.753 -0.287549 0
M  V30 3638 C 328.804 2.62831 -0.884048 0
M  V30 3639 H 331.755 1.28842 -0.926578 0
M  V30 3640 H 331.776 3.80334 0.112349 0
M  V30 3641 H 331.288 3.49553 -1.68625 0
M  V30 3642 H 329.389 3.64451 0.775012 0
M  V30 3643 H 329.502 4.72945 -0.765512 0
M  V30 3644 H 327.866 2.52792 -0.311149 0
M  V30 3645 H 328.649 2.82078 -1.95671 0
M  V30 3646 N 331.094 0.475555 1.50254 0
M  V30 3647 C 332.319 -0.0777042 2.07254 0
M  V30 3648 C 332.744 -1.3235 1.3366 0
M  V30 3649 O 332.102 -1.77152 0.385597 0
M  V30 3650 C 332.15 -0.340169 3.58992 0
M  V30 3651 O 331.254 -1.41982 3.87188 0
M  V30 3652 H 330.595 0.0149556 0.663832 0
M  V30 3653 H 333.125 0.667878 1.93392 0
M  V30 3654 H 333.135 -0.579332 4.03866 0
M  V30 3655 H 331.81 0.570167 4.11973 0
M  V30 3656 H 330.387 -1.16762 3.54148 0
M  V30 3657 N 332.573 -1.56217 0.208337 0
M  V30 3658 C 333.801 -2.02337 -0.43215 0
M  V30 3659 C 334.216 -1.08834 -1.54275 0
M  V30 3660 O 333.573 -0.0955462 -1.8225 0
M  V30 3661 C 333.624 -3.48072 -0.976138 0
M  V30 3662 O 333.345 -4.38007 0.0901621 0
M  V30 3663 C 334.846 -4.09773 -1.69119 0
M  V30 3664 H 332.066 -0.662385 -0.10718 0
M  V30 3665 H 334.61 -2.01966 0.320923 0
M  V30 3666 H 332.765 -3.49099 -1.67954 0
M  V30 3667 H 333.179 -5.23543 -0.316701 0
M  V30 3668 H 334.653 -5.13556 -2.02397 0
M  V30 3669 H 335.13 -3.53999 -2.59964 0
M  V30 3670 H 335.736 -4.12556 -1.03332 0
M  V30 3671 N 334.051 0.0651679 -1.57465 0
M  V30 3672 C 334.981 1.07693 -2.07182 0
M  V30 3673 C 335.962 1.39962 -0.966673 0
M  V30 3674 O 337.147 1.49475 -1.2398 0
M  V30 3675 C 334.277 2.3885 -2.52127 0
M  V30 3676 C 333.231 2.20917 -3.66579 0
M  V30 3677 C 332.557 3.57515 -3.97601 0
M  V30 3678 C 333.857 1.62493 -4.9638 0
M  V30 3679 H 335.551 0.663199 -2.91962 0
M  V30 3680 H 333.097 0.317569 -1.40455 0
M  V30 3681 H 335.05 3.09928 -2.85522 0
M  V30 3682 H 333.774 2.82215 -1.64384 0
M  V30 3683 H 332.433 1.52279 -3.33477 0
M  V30 3684 H 332.081 3.98463 -3.06979 0
M  V30 3685 H 331.781 3.46353 -4.74672 0
M  V30 3686 H 333.305 4.30013 -4.33499 0
M  V30 3687 H 334.719 2.23445 -5.27963 0
M  V30 3688 H 333.116 1.62009 -5.77818 0
M  V30 3689 H 334.186 0.587041 -4.81333 0
M  V30 3690 N 335.529 1.53961 0.336706 0
M  V30 3691 C 336.757 1.75483 1.09605 0
M  V30 3692 C 337.172 0.4972 1.82136 0
M  V30 3693 O 336.529 -0.53149 1.74589 0
M  V30 3694 C 336.58 2.93943 2.10428 0
M  V30 3695 O 336.301 4.14842 1.40846 0
M  V30 3696 C 337.802 3.27571 2.98684 0
M  V30 3697 H 335.022 0.586166 0.326574 0
M  V30 3698 H 337.566 2.00808 0.38683 0
M  V30 3699 H 335.721 2.70929 2.76905 0
M  V30 3700 H 336.135 4.81383 2.08255 0
M  V30 3701 H 337.609 4.13791 3.6535 0
M  V30 3702 H 338.086 2.44168 3.65074 0
M  V30 3703 H 338.692 3.52615 2.37787 0
M  V30 3704 N 337.007 -0.598083 1.45811 0
M  V30 3705 C 337.917 -1.73632 1.57763 0
M  V30 3706 C 338.933 -1.67763 0.461676 0
M  V30 3707 O 340.109 -1.87949 0.723685 0
M  V30 3708 C 337.174 -3.10114 1.55018 0
M  V30 3709 C 336.235 -3.27364 2.77726 0
M  V30 3710 C 335.468 -4.57334 2.75102 0
M  V30 3711 O 335.691 -5.40258 1.8297 0
M  V30 3712 O 334.625 -4.77502 3.66437 0
M  V30 3713 H 338.451 -1.66498 2.53992 0
M  V30 3714 H 336.036 -0.763308 1.28429 0
M  V30 3715 H 337.918 -3.9141 1.56129 0
M  V30 3716 H 336.593 -3.17718 0.619431 0
M  V30 3717 H 335.5 -2.45619 2.82174 0
M  V30 3718 H 336.833 -3.24641 3.69958 0
M  V30 3719 N 338.485 -1.33259 -0.841409 0
M  V30 3720 C 339.415 -1.25926 -1.96634 0
M  V30 3721 C 340.396 -0.140349 -1.6952 0
M  V30 3722 O 341.581 -0.329707 -1.91381 0
M  V30 3723 C 338.711 -0.99512 -3.32738 0
M  V30 3724 C 337.665 -2.0767 -3.74242 0
M  V30 3725 C 336.991 -1.66474 -5.08125 0
M  V30 3726 C 338.291 -3.49318 -3.88297 0
M  V30 3727 H 339.985 -2.20046 -2.03027 0
M  V30 3728 H 337.531 -1.05931 -0.975425 0
M  V30 3729 H 339.484 -0.930323 -4.11002 0
M  V30 3730 H 338.208 -0.0183004 -3.26595 0
M  V30 3731 H 336.867 -2.13187 -2.98239 0
M  V30 3732 H 336.515 -0.675012 -4.9845 0
M  V30 3733 H 336.215 -2.3885 -5.36865 0
M  V30 3734 H 337.739 -1.61455 -5.88867 0
M  V30 3735 H 339.153 -3.46316 -4.56879 0
M  V30 3736 H 337.55 -4.20158 -4.28471 0
M  V30 3737 H 338.62 -3.8801 -2.9082 0
M  V30 3738 N 339.963 1.05934 -1.16686 0
M  V30 3739 C 341.193 1.82226 -0.973515 0
M  V30 3740 C 341.601 1.8297 0.481532 0
M  V30 3741 O 340.944 1.25009 1.34604 0
M  V30 3742 C 341.006 3.29897 -1.42858 0
M  V30 3743 C 340.67 3.52849 -2.90425 0
M  V30 3744 C 341.667 3.45595 -3.88407 0
M  V30 3745 C 339.352 3.80053 -3.28428 0
M  V30 3746 C 341.346 3.65217 -5.22394 0
M  V30 3747 C 339.033 3.99325 -4.62583 0
M  V30 3748 C 340.031 3.91905 -5.59374 0
M  V30 3749 O 339.719 4.10647 -6.91104 0
M  V30 3750 H 339.451 0.581314 -0.345036 0
M  V30 3751 H 342.005 1.3453 -1.55212 0
M  V30 3752 H 340.235 3.78472 -0.793477 0
M  V30 3753 H 341.924 3.87692 -1.20207 0
M  V30 3754 H 342.69 3.24564 -3.60393 0
M  V30 3755 H 338.569 3.84936 -2.53664 0
M  V30 3756 H 342.113 3.59341 -5.9793 0
M  V30 3757 H 338.01 4.19846 -4.90306 0
M  V30 3758 H 338.778 4.27915 -6.97733 0
M  V30 3759 N 341.441 0.965919 1.2453 0
M  V30 3760 C 342.371 0.513476 2.27784 0
M  V30 3761 C 343.352 -0.445974 1.6415 0
M  V30 3762 O 344.537 -0.342485 1.91156 0
M  V30 3763 C 341.667 -0.198839 3.4673 0
M  V30 3764 C 340.621 0.676456 4.2262 0
M  V30 3765 C 339.947 -0.167248 5.34438 0
M  V30 3766 C 341.247 1.96017 4.84123 0
M  V30 3767 H 342.941 1.3765 2.65881 0
M  V30 3768 H 340.487 0.663321 1.27813 0
M  V30 3769 H 342.44 -0.526567 4.18097 0
M  V30 3770 H 341.164 -1.0962 3.07654 0
M  V30 3771 H 339.823 0.98743 3.53052 0
M  V30 3772 H 339.471 -1.0647 4.91603 0
M  V30 3773 H 339.171 0.415181 5.86131 0
M  V30 3774 H 340.695 -0.489688 6.08633 0
M  V30 3775 H 342.109 1.69814 5.47573 0
M  V30 3776 H 340.506 2.48918 5.4604 0
M  V30 3777 H 341.576 2.65622 4.05676 0
M  V30 3778 N 342.919 -1.39368 0.735821 0
M  V30 3779 C 344.149 -2.04498 0.293967 0
M  V30 3780 C 344.557 -1.55593 -1.07645 0
M  V30 3781 O 343.9 -0.716324 -1.69158 0
M  V30 3782 C 343.962 -3.58836 0.218342 0
M  V30 3783 C 343.626 -4.30721 1.52736 0
M  V30 3784 C 344.623 -4.57305 2.47322 0
M  V30 3785 C 342.308 -4.69251 1.79189 0
M  V30 3786 C 344.302 -5.21429 3.66593 0
M  V30 3787 C 341.989 -5.33104 2.98737 0
M  V30 3788 C 342.987 -5.59125 3.9226 0
M  V30 3789 O 342.675 -6.21653 5.09708 0
M  V30 3790 H 342.407 -0.664118 0.126189 0
M  V30 3791 H 344.961 -1.79385 1.00051 0
M  V30 3792 H 343.191 -3.8285 -0.544314 0
M  V30 3793 H 344.88 -4.05447 -0.191626 0
M  V30 3794 H 345.646 -4.27983 2.28156 0
M  V30 3795 H 341.525 -4.48354 1.07239 0
M  V30 3796 H 345.069 -5.41656 4.39607 0
M  V30 3797 H 340.966 -5.61846 3.17803 0
M  V30 3798 H 341.734 -6.40146 5.10054 0
M  V30 3799 N 344.397 -0.483516 -1.5 0
M  V30 3800 C 345.345 0.318061 -2.30415 0
M  V30 3801 C 346.339 0.978988 -1.38247 0
M  V30 3802 O 347.545 0.908673 -1.55381 0
M  V30 3803 H 343.92 0.121419 -0.742133 0
M  V30 3804 H 345.891 -0.380403 -2.95965 0
M  V30 3805 C 344.64 1.38013 -3.19136 0
M  V30 3806 H 343.963 0.880952 -3.89973 0
M  V30 3807 H 345.403 1.91332 -3.78375 0
M  V30 3808 C 343.862 2.38884 -2.37563 0
M  V30 3809 O 344.392 3.44412 -2.06744 0
M  V30 3810 N 342.598 2.10912 -1.99911 0
M  V30 3811 H 342.145 1.25118 -2.25174 0
M  V30 3812 H 342.103 2.78635 -1.45636 0
M  V30 3813 N 345.875 1.56104 -0.216619 0
M  V30 3814 C 346.823 2.21434 0.712036 0
M  V30 3815 C 347.817 1.19218 1.20348 0
M  V30 3816 O 349.023 1.3731 1.16387 0
M  V30 3817 H 345.398 0.70992 0.248026 0
M  V30 3818 H 347.369 2.98083 0.137558 0
M  V30 3819 C 346.118 2.90434 1.91163 0
M  V30 3820 H 345.441 3.68842 1.54258 0
M  V30 3821 H 346.881 3.39552 2.5393 0
M  V30 3822 C 345.34 1.92635 2.76394 0
M  V30 3823 O 345.87 1.44017 3.74996 0
M  V30 3824 N 344.076 1.60392 2.42328 0
M  V30 3825 H 343.623 2.00122 1.622 0
M  V30 3826 H 343.581 0.952159 2.99635 0
M  V30 3827 N 347.353 -0.0568162 1.57498 0
M  V30 3828 C 348.286 -1.09817 2.00039 0
M  V30 3829 C 349.264 -1.3674 0.879819 0
M  V30 3830 O 350.448 -1.49863 1.14338 0
M  V30 3831 C 347.575 -2.43924 2.34986 0
M  V30 3832 C 346.621 -2.33039 3.57204 0
M  V30 3833 S 347.454 -1.7102 5.07457 0
M  V30 3834 C 348.61 -3.06674 5.45621 0
M  V30 3835 H 348.843 -0.735701 2.88053 0
M  V30 3836 H 346.376 -0.265871 1.52094 0
M  V30 3837 H 348.334 -3.2106 2.55795 0
M  V30 3838 H 346.995 -2.77327 1.47474 0
M  V30 3839 H 346.188 -3.31973 3.79223 0
M  V30 3840 H 345.79 -1.64043 3.36104 0
M  V30 3841 H 348.082 -4.03 5.44608 0
M  V30 3842 H 349.025 -2.8942 6.46252 0
M  V30 3843 H 349.433 -3.07969 4.73091 0
M  V30 3844 N 348.832 -1.54138 -0.328536 0
M  V30 3845 C 350.081 -1.71318 -1.06456 0
M  V30 3846 C 350.394 -0.491109 -1.89334 0
M  V30 3847 O 351.6 -0.54416 -2.65991 0
M  V30 3848 C 350.056 -3.03 -1.94214 0
M  V30 3849 C 349.664 -4.32595 -1.16471 0
M  V30 3850 C 351.408 -3.29544 -2.67583 0
M  V30 3851 C 349.315 -5.55341 -2.03347 0
M  V30 3852 H 348.245 -0.638429 -0.401155 0
M  V30 3853 H 350.896 -1.80633 -0.323106 0
M  V30 3854 H 349.278 -2.87579 -2.72239 0
M  V30 3855 H 350.452 -4.58766 -0.432525 0
M  V30 3856 H 348.767 -4.12777 -0.548063 0
M  V30 3857 H 351.364 -4.18444 -3.3288 0
M  V30 3858 H 351.707 -2.47206 -3.34955 0
M  V30 3859 H 352.24 -3.45809 -1.96623 0
M  V30 3860 H 348.979 -6.40268 -1.40491 0
M  V30 3861 H 348.499 -5.33397 -2.74313 0
M  V30 3862 H 350.178 -5.91557 -2.62049 0
M  V30 3863 N 350.31 0.590341 -1.46126 0
M  V30 3864 C 351.273 1.68194 -1.55703 0
M  V30 3865 C 352.273 1.54808 -0.434868 0
M  V30 3866 O 353.463 1.59564 -0.698928 0
M  V30 3867 C 350.595 3.07575 -1.47005 0
M  V30 3868 H 351.788 1.61064 -2.52979 0
M  V30 3869 H 349.341 0.807541 -1.33823 0
M  V30 3870 H 350.076 3.20268 -0.509785 0
M  V30 3871 H 349.861 3.187 -2.28414 0
M  V30 3872 H 351.351 3.87055 -1.56776 0
M  V30 3873 N 351.788 1.33704 0.83433 0
M  V30 3874 C 352.735 1.24335 1.94447 0
M  V30 3875 C 353.705 0.120991 1.65659 0
M  V30 3876 O 354.89 0.300035 1.88426 0
M  V30 3877 C 352.03 0.993124 3.30501 0
M  V30 3878 C 351.143 2.20217 3.71657 0
M  V30 3879 C 350.278 1.88572 4.96602 0
M  V30 3880 C 349.317 3.05683 5.30306 0
M  V30 3881 N 348.454 2.73997 6.46429 0
M  V30 3882 H 353.294 2.1928 2.01792 0
M  V30 3883 H 350.831 1.09035 0.987404 0
M  V30 3884 H 352.789 0.828467 4.08892 0
M  V30 3885 H 351.419 0.0803902 3.227 0
M  V30 3886 H 350.471 2.47642 2.88752 0
M  V30 3887 H 351.783 3.07752 3.92543 0
M  V30 3888 H 350.937 1.68776 5.82752 0
M  V30 3889 H 349.676 0.982799 4.77695 0
M  V30 3890 H 348.681 3.26088 4.42659 0
M  V30 3891 H 349.906 3.96737 5.51159 0
M  V30 3892 H 347.852 1.86268 6.28999 0
M  V30 3893 H 347.769 3.55064 6.67432 0
M  V30 3894 H 349.037 2.57679 7.35678 0
M  V30 3895 N 353.266 -1.05314 1.17247 0
M  V30 3896 C 354.515 -1.77685 0.954521 0
M  V30 3897 C 354.828 -1.88616 -0.518025 0
M  V30 3898 O 356.034 -2.57714 -0.854144 0
M  V30 3899 C 354.49 -3.19402 1.65863 0
M  V30 3900 C 354.098 -3.16605 3.16963 0
M  V30 3901 C 355.842 -3.96237 1.52303 0
M  V30 3902 C 353.749 -4.53103 3.80068 0
M  V30 3903 H 352.679 -0.666 0.353496 0
M  V30 3904 H 355.33 -1.1805 1.40486 0
M  V30 3905 H 353.712 -3.79355 1.13602 0
M  V30 3906 H 354.886 -2.66176 3.76148 0
M  V30 3907 H 353.201 -2.53268 3.30521 0
M  V30 3908 H 355.798 -4.97157 1.96822 0
M  V30 3909 H 356.141 -4.136 0.473401 0
M  V30 3910 H 356.674 -3.42829 2.01775 0
M  V30 3911 H 353.413 -4.40946 4.85023 0
M  V30 3912 H 352.933 -5.03686 3.2567 0
M  V30 3913 H 354.612 -5.22045 3.82202 0
M  V30 3914 N 354.744 -0.972509 -1.24016 0
M  V30 3915 C 355.676 -0.464375 -2.24446 0
M  V30 3916 C 356.689 0.4295 -1.57032 0
M  V30 3917 O 357.878 0.234902 -1.76948 0
M  V30 3918 C 354.978 0.348385 -3.37105 0
M  V30 3919 C 354.151 -0.53673 -4.34094 0
M  V30 3920 C 353.21 0.220838 -5.25736 0
M  V30 3921 O 352.236 -0.386867 -5.67884 0
M  V30 3922 N 353.438 1.50907 -5.60542 0
M  V30 3923 H 356.203 -1.32788 -2.68677 0
M  V30 3924 H 353.764 -0.844877 -1.38107 0
M  V30 3925 H 355.756 0.863341 -3.95384 0
M  V30 3926 H 354.326 1.11285 -2.92121 0
M  V30 3927 H 353.546 -1.23261 -3.74433 0
M  V30 3928 H 354.834 -1.14022 -4.95859 0
M  V30 3929 H 354.232 2.02444 -5.28236 0
M  V30 3930 H 352.789 1.96962 -6.21329 0
M  V30 3931 N 356.222 1.38976 -0.743202 0
M  V30 3932 C 357.132 2.3434 -0.110399 0
M  V30 3933 C 358.148 1.58741 0.712559 0
M  V30 3934 O 359.324 1.9099 0.639125 0
M  V30 3935 C 356.389 3.37812 0.780012 0
M  V30 3936 C 355.45 4.29263 -0.0561319 0
M  V30 3937 C 354.683 5.27793 0.791875 0
M  V30 3938 O 354.906 5.33043 2.03031 0
M  V30 3939 O 353.84 6.01512 0.216183 0
M  V30 3940 H 357.666 2.90129 -0.897714 0
M  V30 3941 H 355.251 1.40643 -0.503966 0
M  V30 3942 H 357.133 4.01194 1.28923 0
M  V30 3943 H 355.808 2.84395 1.546 0
M  V30 3944 H 354.715 3.69076 -0.611056 0
M  V30 3945 H 356.048 4.85907 -0.784531 0
M  V30 3946 N 357.7 0.491464 1.49741 0
M  V30 3947 C 358.977 -0.118984 1.95238 0
M  V30 3948 C 359.357 -1.55044 1.43264 0
M  V30 3949 O 358.705 -2.19287 0.642287 0
M  V30 3950 C 358.915 -0.0414187 3.48975 0
M  V30 3951 C 360.263 -0.220133 4.24029 0
M  V30 3952 O 361.287 -0.117055 3.56008 0
M  V30 3953 O 360.146 -0.430567 5.44801 0
M  V30 3954 H 357.24 -0.100536 0.820866 0
M  V30 3955 H 359.786 0.553322 1.60426 0
M  V30 3956 H 358.558 0.957214 3.79412 0
M  V30 3957 H 358.181 -0.754292 3.9038 0
M  V30 3958 N 359.178 -1.55987 0.224894 0
M  V30 3959 C 360.455 -1.90232 -0.455083 0
M  V30 3960 C 360.835 -1.14269 -1.77499 0
M  V30 3961 O 360.183 -0.253079 -2.27094 0
M  V30 3962 C 360.393 -3.42993 -0.644758 0
M  V30 3963 C 361.741 -4.13821 -0.950669 0
M  V30 3964 O 362.765 -3.4861 -0.731423 0
M  V30 3965 O 361.624 -5.29128 -1.36695 0
M  V30 3966 H 358.718 -0.79108 -0.241084 0
M  V30 3967 H 361.264 -1.67581 0.267327 0
M  V30 3968 H 360.036 -3.90252 0.28613 0
M  V30 3969 H 359.659 -3.71434 -1.41853 0
M  V30 3970 N 360.656 0.0484629 -1.57525 0
M  V30 3971 C 361.903 0.743125 -1.88372 0
M  V30 3972 C 362.231 1.76383 -0.819715 0
M  V30 3973 O 361.486 1.94855 0.181659 0
M  V30 3974 C 361.785 1.46632 -3.25935 0
M  V30 3975 C 361.451 0.583427 -4.4711 0
M  V30 3976 C 360.113 0.340191 -4.79996 0
M  V30 3977 C 362.465 -0.0273345 -5.21193 0
M  V30 3978 C 359.793 -0.522903 -5.84365 0
M  V30 3979 C 362.145 -0.878017 -6.26477 0
M  V30 3980 C 360.809 -1.1309 -6.5785 0
M  V30 3981 H 360.079 0.271929 -0.689301 0
M  V30 3982 H 362.726 0.00336166 -1.915 0
M  V30 3983 H 361.031 2.2789 -3.18706 0
M  V30 3984 H 362.728 2.00902 -3.47044 0
M  V30 3985 H 359.318 0.783151 -4.21384 0
M  V30 3986 H 363.502 0.147654 -4.9608 0
M  V30 3987 H 358.758 -0.727335 -6.07058 0
M  V30 3988 H 362.932 -1.35789 -6.83033 0
M  V30 3989 H 360.559 -1.80144 -7.38547 0
M  V30 3990 N 362.134 1.5431 0.320358 0
M  V30 3991 C 363.082 1.84647 1.4145 0
M  V30 3992 C 364.076 0.718624 1.53402 0
M  V30 3993 O 365.282 0.902335 1.5575 0
M  V30 3994 H 361.657 0.585349 0.472091 0
M  V30 3995 H 363.628 2.7614 1.13089 0
M  V30 3996 C 362.377 2.09341 2.77617 0
M  V30 3997 H 361.7 2.9559 2.69196 0
M  V30 3998 H 363.14 2.3452 3.53237 0
M  V30 3999 C 361.599 0.885939 3.25043 0
M  V30 4000 O 362.129 0.0967891 4.01583 0
M  V30 4001 N 360.335 0.696682 2.82125 0
M  V30 4002 H 359.882 1.34006 2.2 0
M  V30 4003 H 359.84 -0.109712 3.14209 0
M  V30 4004 N 363.613 -0.582584 1.46437 0
M  V30 4005 C 364.561 -1.71272 1.5738 0
M  V30 4006 C 365.555 -1.63524 0.44229 0
M  V30 4007 O 366.761 -1.69016 0.619166 0
M  V30 4008 H 363.136 -0.566273 0.494813 0
M  V30 4009 H 365.107 -1.59174 2.52401 0
M  V30 4010 C 363.856 -3.09658 1.58136 0
M  V30 4011 H 363.179 -3.16291 2.44541 0
M  V30 4012 H 364.619 -3.88494 1.69847 0
M  V30 4013 C 363.078 -3.3547 0.310026 0
M  V30 4014 O 363.608 -3.97199 -0.599683 0
M  V30 4015 N 361.814 -2.89925 0.197901 0
M  V30 4016 H 361.361 -2.39873 0.93909 0
M  V30 4017 H 361.319 -3.07568 -0.65185 0
M  V30 4018 N 365.091 -1.34144 -0.827227 0
M  V30 4019 C 366.021 -1.28005 -1.95287 0
M  V30 4020 C 367.002 -0.158321 -1.69362 0
M  V30 4021 O 368.187 -0.349987 -1.9102 0
M  V30 4022 C 365.317 -1.03036 -3.31664 0
M  V30 4023 C 364.271 -2.11628 -3.72019 0
M  V30 4024 C 363.597 -1.71854 -5.0633 0
M  V30 4025 C 364.897 -3.53417 -3.8457 0
M  V30 4026 H 366.591 -2.22187 -2.00682 0
M  V30 4027 H 364.137 -1.0696 -0.964135 0
M  V30 4028 H 366.09 -0.973863 -4.09993 0
M  V30 4029 H 364.814 -0.0529391 -3.26557 0
M  V30 4030 H 363.473 -2.16339 -2.95961 0
M  V30 4031 H 363.121 -0.727841 -4.97706 0
M  V30 4032 H 362.821 -2.44531 -5.34302 0
M  V30 4033 H 364.345 -1.67692 -5.87122 0
M  V30 4034 H 365.759 -3.51142 -4.5318 0
M  V30 4035 H 364.156 -4.24679 -4.2399 0
M  V30 4036 H 365.226 -3.91072 -2.86689 0
M  V30 4037 N 366.569 1.04691 -1.17803 0
M  V30 4038 C 367.517 2.14665 -0.895635 0
M  V30 4039 C 368.511 1.68806 0.141679 0
M  V30 4040 O 369.717 1.79999 -0.00587914 0
M  V30 4041 H 366.092 0.701038 -0.272121 0
M  V30 4042 H 368.063 2.35685 -1.83017 0
M  V30 4043 C 366.812 3.45019 -0.430962 0
M  V30 4044 H 366.135 3.8071 -1.22064 0
M  V30 4045 H 367.575 4.23125 -0.272301 0
M  V30 4046 C 366.034 3.25943 0.852207 0
M  V30 4047 O 366.564 3.5296 1.91786 0
M  V30 4048 N 364.77 2.79304 0.802346 0
M  V30 4049 H 364.317 2.57518 -0.0650788 0
M  V30 4050 H 364.275 2.66921 1.66134 0
M  V30 4051 N 368.047 0.979072 1.23499 0
M  V30 4052 C 368.979 0.476271 2.24197 0
M  V30 4053 C 369.992 -0.421166 1.57258 0
M  V30 4054 O 371.181 -0.225515 1.7707 0
M  V30 4055 C 368.281 -0.330503 3.37285 0
M  V30 4056 C 367.454 0.559744 4.33804 0
M  V30 4057 C 366.513 -0.192954 5.25846 0
M  V30 4058 O 365.539 0.416978 5.67671 0
M  V30 4059 N 366.741 -1.47932 5.61334 0
M  V30 4060 H 369.506 1.34211 2.67969 0
M  V30 4061 H 367.067 0.852189 1.37657 0
M  V30 4062 H 369.059 -0.842361 3.95836 0
M  V30 4063 H 367.629 -1.09734 2.92707 0
M  V30 4064 H 366.849 1.25245 3.73775 0
M  V30 4065 H 368.137 1.1665 4.95248 0
M  V30 4066 H 367.535 -1.9964 5.29302 0
M  V30 4067 H 366.092 -1.93664 6.22364 0
M  V30 4068 N 369.525 -1.3858 0.750561 0
M  V30 4069 C 370.455 -2.33102 0.136237 0
M  V30 4070 C 371.436 -1.54713 -0.706965 0
M  V30 4071 O 372.621 -1.83043 -0.648769 0
M  V30 4072 C 369.751 -3.38882 -0.760017 0
M  V30 4073 C 368.705 -4.27995 -0.0197785 0
M  V30 4074 C 368.031 -5.24605 -1.03408 0
M  V30 4075 C 369.331 -5.09554 1.14684 0
M  V30 4076 H 371.025 -2.84726 0.925822 0
M  V30 4077 H 368.571 -1.36898 0.446654 0
M  V30 4078 H 370.524 -4.0397 -1.19943 0
M  V30 4079 H 369.248 -2.85734 -1.58189 0
M  V30 4080 H 367.907 -3.64409 0.400184 0
M  V30 4081 H 367.555 -4.67746 -1.84994 0
M  V30 4082 H 367.255 -5.85081 -0.543464 0
M  V30 4083 H 368.779 -5.9257 -1.47288 0
M  V30 4084 H 370.193 -5.67899 0.785118 0
M  V30 4085 H 368.59 -5.7925 1.56812 0
M  V30 4086 H 369.66 -4.4347 1.96118 0
M  V30 4087 N 371.003 -0.499398 -1.49478 0
M  V30 4088 C 371.935 0.316575 -2.27003 0
M  V30 4089 C 372.948 0.932047 -1.33479 0
M  V30 4090 O 374.137 0.815658 -1.58774 0
M  V30 4091 C 371.237 1.46055 -3.05812 0
M  V30 4092 C 370.41 0.952679 -4.26899 0
M  V30 4093 C 369.469 1.97407 -4.87767 0
M  V30 4094 O 368.495 1.54326 -5.4788 0
M  V30 4095 N 369.697 3.30436 -4.77276 0
M  V30 4096 H 372.462 -0.348168 -2.97671 0
M  V30 4097 H 370.023 -0.33185 -1.58463 0
M  V30 4098 H 372.015 2.14135 -3.43407 0
M  V30 4099 H 370.585 2.02948 -2.37762 0
M  V30 4100 H 369.805 0.0968248 -3.94081 0
M  V30 4101 H 371.093 0.59174 -5.05347 0
M  V30 4102 H 370.491 3.68126 -4.29534 0
M  V30 4103 H 369.048 3.94235 -5.19059 0
M  V30 4104 N 372.481 1.55866 -0.233164 0
M  V30 4105 C 373.73 1.97779 0.39579 0
M  V30 4106 C 374.043 1.12419 1.60066 0
M  V30 4107 O 375.249 1.44283 2.29988 0
M  V30 4108 C 373.705 3.5188 0.755556 0
M  V30 4109 C 373.313 4.45959 -0.427152 0
M  V30 4110 C 375.057 4.02479 1.34946 0
M  V30 4111 C 372.964 5.91383 -0.0443043 0
M  V30 4112 H 371.894 0.738592 0.15165 0
M  V30 4113 H 374.545 1.80486 -0.331212 0
M  V30 4114 H 372.927 3.64816 1.5403 0
M  V30 4115 H 374.101 4.44776 -1.20462 0
M  V30 4116 H 372.416 4.05765 -0.935068 0
M  V30 4117 H 375.013 5.08637 1.649 0
M  V30 4118 H 375.356 3.49014 2.26925 0
M  V30 4119 H 375.889 3.92813 0.62791 0
M  V30 4120 H 372.628 6.48857 -0.930874 0
M  V30 4121 H 372.148 5.95734 0.697238 0
M  V30 4122 H 373.827 6.45893 0.378334 0
M  V30 4123 N 373.959 -0.0401083 1.57549 0
M  V30 4124 C 374.889 -1.04384 2.08869 0
M  V30 4125 C 375.87 -1.38407 0.988817 0
M  V30 4126 O 377.055 -1.47483 1.26342 0
M  V30 4127 C 374.185 -2.34808 2.55895 0
M  V30 4128 C 373.139 -2.15057 3.70047 0
M  V30 4129 C 372.465 -3.51145 4.03239 0
M  V30 4130 C 373.765 -1.54576 4.98902 0
M  V30 4131 H 375.459 -0.616666 2.92981 0
M  V30 4132 H 373.005 -0.295184 1.40942 0
M  V30 4133 H 374.958 -3.05346 2.90417 0
M  V30 4134 H 373.682 -2.79565 1.68853 0
M  V30 4135 H 372.341 -1.46954 3.35857 0
M  V30 4136 H 371.989 -3.93529 3.13279 0
M  V30 4137 H 371.689 -3.38758 4.80122 0
M  V30 4138 H 373.213 -4.23062 4.40285 0
M  V30 4139 H 374.627 -2.15017 5.31451 0
M  V30 4140 H 373.024 -1.52796 5.80322 0
M  V30 4141 H 374.094 -0.51039 4.82206 0
M  V30 4142 N 375.437 -1.54477 -0.31217 0
M  V30 4143 C 376.714 -1.63891 -1.06767 0
M  V30 4144 C 377.094 -0.480028 -2.0557 0
M  V30 4145 O 376.442 0.524487 -2.22399 0
M  V30 4146 C 376.652 -3.01402 -1.75948 0
M  V30 4147 C 378 -3.57838 -2.28554 0
M  V30 4148 O 379.024 -3.03782 -1.85998 0
M  V30 4149 O 377.883 -4.52462 -3.06497 0
M  V30 4150 H 374.977 -0.664125 -0.492816 0
M  V30 4151 H 377.523 -1.66823 -0.311149 0
M  V30 4152 H 376.295 -3.77187 -1.04144 0
M  V30 4153 H 375.918 -3.02199 -2.58383 0
M  V30 4154 N 376.915 0.57481 -1.46744 0
M  V30 4155 C 377.845 1.69337 -1.60771 0
M  V30 4156 C 378.826 1.63825 -0.457736 0
M  V30 4157 O 380.011 1.8172 -0.684947 0
M  V30 4158 C 377.141 3.0798 -1.60517 0
M  V30 4159 C 376.095 3.28327 -2.74564 0
M  V30 4160 C 375.421 4.67578 -2.59373 0
M  V30 4161 C 376.721 3.15398 -4.16319 0
M  V30 4162 H 378.415 1.57853 -2.54407 0
M  V30 4163 H 375.961 0.75799 -1.22436 0
M  V30 4164 H 377.914 3.86061 -1.68923 0
M  V30 4165 H 376.638 3.20381 -0.634305 0
M  V30 4166 H 375.297 2.52649 -2.65639 0
M  V30 4167 H 374.945 4.76755 -1.60353 0
M  V30 4168 H 374.645 4.82144 -3.35873 0
M  V30 4169 H 376.169 5.47817 -2.69682 0
M  V30 4170 H 377.583 3.83315 -4.26313 0
M  V30 4171 H 375.98 3.41482 -4.93468 0
M  V30 4172 H 377.05 2.12372 -4.3592 0
M  V30 4173 N 378.394 1.34581 0.820102 0
M  V30 4174 C 379.619 1.30333 1.61332 0
M  V30 4175 C 380.044 -0.119339 1.87721 0
M  V30 4176 O 379.402 -1.08197 1.45475 0
M  V30 4177 C 379.45 2.10258 2.92957 0
M  V30 4178 O 378.554 1.47404 3.85157 0
M  V30 4179 H 377.895 0.447488 0.490561 0
M  V30 4180 H 380.425 1.77425 1.01889 0
M  V30 4181 H 380.435 2.21718 3.42498 0
M  V30 4182 H 379.11 3.13693 2.73074 0
M  V30 4183 H 377.687 1.44703 3.43679 0
M  V30 4184 N 379.872 -1.04064 1.18357 0
M  V30 4185 C 381.12 -1.76915 0.977013 0
M  V30 4186 C 381.441 -1.88624 -0.494577 0
M  V30 4187 O 380.711 -1.41125 -1.3587 0
M  V30 4188 H 379.291 -0.65535 0.358504 0
M  V30 4189 H 381.953 -1.25592 1.49039 0
M  V30 4190 H 381.049 -2.78178 1.41504 0
M  V30 4191 N 381.35 -0.985608 -1.22978 0
M  V30 4192 C 382.298 -0.522631 -2.26652 0
M  V30 4193 C 383.292 0.422998 -1.64034 0
M  V30 4194 O 384.498 0.296319 -1.77544 0
M  V30 4195 H 380.873 -0.150597 -0.736766 0
M  V30 4196 H 382.844 -1.40863 -2.63059 0
M  V30 4197 C 381.593 0.154238 -3.47358 0
M  V30 4198 H 380.916 -0.564329 -3.95797 0
M  V30 4199 H 382.356 0.441744 -4.21693 0
M  V30 4200 C 380.815 1.38719 -3.07016 0
M  V30 4201 O 381.345 2.48307 -3.15764 0
M  V30 4202 N 379.551 1.25975 -2.61875 0
M  V30 4203 H 379.098 0.368068 -2.54957 0
M  V30 4204 H 379.056 2.08578 -2.3525 0
M  V30 4205 N 382.828 1.3818 -0.7579 0
M  V30 4206 C 384.068 2.01864 -0.320968 0
M  V30 4207 C 384.432 1.58863 1.07827 0
M  V30 4208 O 385.633 2.14908 1.61456 0
M  V30 4209 C 383.904 3.54626 -0.44446 0
M  V30 4210 S 385.463 4.38706 -0.0907467 0
M  V30 4211 H 382.281 0.700056 -0.124268 0
M  V30 4212 H 384.883 1.68611 -0.989468 0
M  V30 4213 H 383.587 3.83411 -1.4637 0
M  V30 4214 H 383.118 3.92661 0.241073 0
M  V30 4215 H 385.133 4.83435 1.11826 0
M  V30 4216 N 384.306 0.507319 1.49211 0
M  V30 4217 C 385.717 0.0611118 1.866 0
M  V30 4218 C 386.068 -1.35488 1.41907 0
M  V30 4219 O 385.193 -2.0108 0.799726 0
M  V30 4220 C 385.788 0.104125 3.3864 0
M  V30 4221 C 384.347 -0.28677 3.75306 0
M  V30 4222 C 383.494 0.473893 2.73221 0
M  V30 4223 H 386.445 0.719775 1.41439 0
M  V30 4224 H 386.466 -0.689672 3.74198 0
M  V30 4225 H 385.978 1.13482 3.71138 0
M  V30 4226 H 384.079 -1.32046 3.48417 0
M  V30 4227 H 384.192 0.0370745 4.79086 0
M  V30 4228 H 382.556 -0.0770644 2.54583 0
M  V30 4229 H 383.339 1.50478 3.08563 0
M  V30 4230 N 385.784 -1.5574 0.241426 0
M  V30 4231 C 387.2 -1.59196 -0.113548 0
M  V30 4232 C 387.4 -1.25852 -1.57364 0
M  V30 4233 O 386.456 -1.00322 -2.31715 0
M  V30 4234 C 387.769 -2.99814 0.230695 0
M  V30 4235 C 389.317 -3.12513 0.174547 0
M  V30 4236 C 389.792 -4.55342 0.492744 0
M  V30 4237 N 391.283 -4.61076 0.443043 0
M  V30 4238 C 392.018 -5.6956 0.662484 0
M  V30 4239 N 391.514 -6.86328 0.944761 0
M  V30 4240 N 393.307 -5.58957 0.593564 0
M  V30 4241 H 385.458 -1.75685 1.19368 0
M  V30 4242 H 387.721 -0.81756 0.479896 0
M  V30 4243 H 387.427 -3.28932 1.24485 0
M  V30 4244 H 387.301 -3.74568 -0.444833 0
M  V30 4245 H 389.688 -2.83179 -0.830277 0
M  V30 4246 H 389.769 -2.40045 0.883845 0
M  V30 4247 H 389.413 -4.85396 1.4951 0
M  V30 4248 H 389.343 -5.26062 -0.23797 0
M  V30 4249 H 391.834 -3.77179 0.233374 0
M  V30 4250 H 392.147 -7.64935 1.09977 0
M  V30 4251 H 390.492 -6.88025 0.982175 0
M  V30 4252 H 393.683 -4.66611 0.373123 0
M  V30 4253 H 393.856 -6.43433 0.767981 0
M  V30 4254 N 387.262 0.0317525 -1.57568 0
M  V30 4255 C 388.502 0.727979 -1.90997 0
M  V30 4256 C 388.866 1.72664 -0.839708 0
M  V30 4257 O 390.067 2.47092 -1.05825 0
M  V30 4258 C 388.338 1.38239 -3.29583 0
M  V30 4259 S 389.897 2.10814 -3.84841 0
M  V30 4260 H 386.715 0.241226 -0.668828 0
M  V30 4261 H 389.317 -0.0173037 -1.95492 0
M  V30 4262 H 388.021 0.642288 -4.05343 0
M  V30 4263 H 387.552 2.16628 -3.28384 0
M  V30 4264 H 389.567 3.3792 -3.63352 0
M  V30 4265 N 388.74 1.54641 0.303973 0
M  V30 4266 C 389.97 1.77511 1.05705 0
M  V30 4267 C 390.378 0.533228 1.81531 0
M  V30 4268 O 389.721 -0.506423 1.76582 0
M  V30 4269 C 389.783 2.92779 2.08617 0
M  V30 4270 C 389.447 4.30977 1.52013 0
M  V30 4271 C 390.444 5.11115 0.9517 0
M  V30 4272 C 388.129 4.77571 1.55665 0
M  V30 4273 C 390.123 6.35966 0.427327 0
M  V30 4274 C 387.81 6.02384 1.02841 0
M  V30 4275 C 388.808 6.81417 0.464713 0
M  V30 4276 O 388.496 8.03881 -0.0555283 0
M  V30 4277 H 388.228 0.59579 0.319391 0
M  V30 4278 H 390.782 2.02401 0.349712 0
M  V30 4279 H 389.012 2.63506 2.83022 0
M  V30 4280 H 390.701 3.03252 2.69802 0
M  V30 4281 H 391.467 4.76264 0.916407 0
M  V30 4282 H 387.346 4.16085 1.9848 0
M  V30 4283 H 390.89 6.97599 -0.0133062 0
M  V30 4284 H 386.787 6.36723 1.06084 0
M  V30 4285 H 387.555 8.18479 0.0580522 0
M  V30 4286 N 390.218 -0.567019 1.47046 0
M  V30 4287 C 391.166 -1.69593 1.59188 0
M  V30 4288 C 392.16 -1.63046 0.459609 0
M  V30 4289 O 393.366 -1.6835 0.637058 0
M  V30 4290 H 389.741 -0.560993 0.500791 0
M  V30 4291 H 391.712 -1.56488 2.54075 0
M  V30 4292 C 390.461 -3.07964 1.61411 0
M  V30 4293 H 389.784 -3.13679 2.47881 0
M  V30 4294 H 391.224 -3.86671 1.73958 0
M  V30 4295 C 389.683 -3.35123 0.34559 0
M  V30 4296 O 390.213 -3.97812 -0.557521 0
M  V30 4297 N 388.419 -2.89699 0.22864 0
M  V30 4298 H 387.966 -2.38863 0.964479 0
M  V30 4299 H 387.924 -3.08242 -0.619192 0
M  V30 4300 N 391.696 -1.35014 -0.812953 0
M  V30 4301 C 392.659 -1.27292 -1.90602 0
M  V30 4302 C 393.659 -0.185817 -1.59723 0
M  V30 4303 O 394.849 -0.439102 -1.68575 0
M  V30 4304 C 391.981 -0.967676 -3.26877 0
M  V30 4305 H 393.174 -2.24479 -1.9887 0
M  V30 4306 H 390.727 -1.19446 -1.00808 0
M  V30 4307 H 391.462 0.0005954 -3.243 0
M  V30 4308 H 391.247 -1.75412 -3.50675 0
M  V30 4309 H 392.737 -0.939085 -4.06904 0
M  V30 4310 N 393.175 1.03435 -1.18907 0
M  V30 4311 C 394.586 1.58195 -0.991523 0
M  V30 4312 C 394.937 1.90801 0.457081 0
M  V30 4313 O 394.062 1.70272 1.33553 0
M  V30 4314 C 394.657 2.87432 -1.79355 0
M  V30 4315 C 393.216 3.38785 -1.64017 0
M  V30 4316 C 392.363 2.12292 -1.78402 0
M  V30 4317 H 395.314 0.860299 -1.33359 0
M  V30 4318 H 395.335 3.58096 -1.28638 0
M  V30 4319 H 394.847 2.63669 -2.84781 0
M  V30 4320 H 392.948 3.67547 -0.611536 0
M  V30 4321 H 393.061 4.12186 -2.44212 0
M  V30 4322 H 391.425 2.23901 -1.2141 0
M  V30 4323 H 392.208 1.90977 -2.85277 0
M  V30 4324 N 394.653 0.992116 1.22453 0
M  V30 4325 C 395.9 0.667534 1.91181 0
M  V30 4326 C 396.228 -0.800317 1.77271 0
M  V30 4327 O 395.483 -1.59421 1.13505 0
M  V30 4328 C 395.782 1.01832 3.42586 0
M  V30 4329 C 395.448 2.47831 3.76684 0
M  V30 4330 C 394.11 2.87729 3.85701 0
M  V30 4331 C 396.462 3.42466 3.92895 0
M  V30 4332 C 393.79 4.21252 4.08367 0
M  V30 4333 C 396.142 4.75648 4.17064 0
M  V30 4334 C 394.806 5.15288 4.24305 0
M  V30 4335 H 394.076 0.244268 0.699581 0
M  V30 4336 H 396.723 1.24816 1.45235 0
M  V30 4337 H 395.028 0.355769 3.90181 0
M  V30 4338 H 396.725 0.745228 3.94014 0
M  V30 4339 H 393.315 2.15905 3.70247 0
M  V30 4340 H 397.499 3.12814 3.85307 0
M  V30 4341 H 392.755 4.51554 4.122 0
M  V30 4342 H 396.929 5.48924 4.2855 0
M  V30 4343 H 394.556 6.18769 4.41621 0
M  V30 4344 N 396.131 -1.37776 0.765217 0
M  V30 4345 C 397.542 -1.82521 0.392819 0
M  V30 4346 C 397.893 -1.63789 -1.08017 0
M  V30 4347 O 397.018 -1.14542 -1.83601 0
M  V30 4348 C 397.613 -3.31358 0.706214 0
M  V30 4349 C 396.172 -3.74406 0.386952 0
M  V30 4350 C 395.319 -2.60394 0.953422 0
M  V30 4351 H 398.27 -1.2634 0.960412 0
M  V30 4352 H 398.291 -3.80498 -0.0114706 0
M  V30 4353 H 397.803 -3.44959 1.77833 0
M  V30 4354 H 395.904 -3.66377 -0.678112 0
M  V30 4355 H 396.017 -4.70749 0.890636 0
M  V30 4356 H 394.381 -2.51878 0.378064 0
M  V30 4357 H 395.164 -2.76791 2.03081 0
M  V30 4358 N 397.609 -0.515225 -1.4894 0
M  V30 4359 C 398.849 0.0223983 -2.04388 0
M  V30 4360 C 399.213 1.32961 -1.38511 0
M  V30 4361 O 400.414 1.95236 -1.8476 0
M  V30 4362 C 398.685 0.157056 -3.57055 0
M  V30 4363 S 400.244 0.646875 -4.34006 0
M  V30 4364 H 397.062 -0.00500662 -0.710982 0
M  V30 4365 H 399.664 -0.69243 -1.82827 0
M  V30 4366 H 398.368 -0.799412 -4.02539 0
M  V30 4367 H 397.899 0.896704 -3.83044 0
M  V30 4368 H 399.914 1.91381 -4.57808 0
M  V30 4369 N 399.087 1.5561 -0.249682 0
M  V30 4370 C 400.05 2.20217 0.635394 0
M  V30 4371 C 401.05 1.17227 1.10066 0
M  V30 4372 O 402.24 1.42292 1.00492 0
M  V30 4373 C 399.372 2.84794 1.87363 0
M  V30 4374 H 400.565 2.99814 0.0716752 0
M  V30 4375 H 398.118 1.563 -0.000153234 0
M  V30 4376 H 398.853 2.09142 2.47851 0
M  V30 4377 H 398.638 3.60241 1.5482 0
M  V30 4378 H 400.128 3.3423 2.5036 0
M  V30 4379 N 400.565 -0.0233959 1.57583 0
M  V30 4380 C 401.976 -0.56927 1.77809 0
M  V30 4381 C 402.327 -1.75284 0.881472 0
M  V30 4382 O 401.452 -2.1626 0.0777805 0
M  V30 4383 C 402.047 -1.03949 3.22459 0
M  V30 4384 C 400.606 -1.53084 3.43864 0
M  V30 4385 C 399.753 -0.471454 2.73263 0
M  V30 4386 H 402.704 0.202825 1.57399 0
M  V30 4387 H 402.725 -1.90661 3.29285 0
M  V30 4388 H 402.237 -0.177865 3.87692 0
M  V30 4389 H 400.338 -2.41414 2.83814 0
M  V30 4390 H 400.451 -1.57443 4.52491 0
M  V30 4391 H 398.815 -0.927788 2.37201 0
M  V30 4392 H 399.598 0.380808 3.41181 0
M  V30 4393 N 402.043 -1.548 -0.295768 0
M  V30 4394 C 403.283 -1.76069 -1.03823 0
M  V30 4395 C 403.647 -0.537992 -1.84309 0
M  V30 4396 O 404.848 -0.628514 -2.61349 0
M  V30 4397 C 403.119 -3.01705 -1.91596 0
M  V30 4398 S 404.678 -3.43998 -2.72416 0
M  V30 4399 H 401.496 -0.618852 -0.350062 0
M  V30 4400 H 404.098 -1.93009 -0.31106 0
M  V30 4401 H 402.802 -3.88812 -1.31351 0
M  V30 4402 H 402.333 -2.87366 -2.68671 0
M  V30 4403 H 404.348 -3.0148 -3.94112 0
M  V30 4404 N 403.521 0.559213 -1.47345 0
M  V30 4405 C 404.468 1.66645 -1.59682 0
M  V30 4406 C 405.438 1.60168 -0.43994 0
M  V30 4407 O 406.623 1.79031 -0.659736 0
M  V30 4408 C 403.763 3.04969 -1.61518 0
M  V30 4409 C 402.876 3.21897 -2.88108 0
M  V30 4410 C 402.011 4.50608 -2.81294 0
M  V30 4411 C 401.05 4.60961 -4.02717 0
M  V30 4412 N 400.187 5.81024 -3.94151 0
M  V30 4413 H 405.027 1.55439 -2.54249 0
M  V30 4414 H 402.564 0.757219 -1.26113 0
M  V30 4415 H 404.522 3.85064 -1.60566 0
M  V30 4416 H 403.152 3.15015 -0.704645 0
M  V30 4417 H 402.204 2.35248 -2.98936 0
M  V30 4418 H 403.516 3.25412 -3.78032 0
M  V30 4419 H 402.67 5.3896 -2.7858 0
M  V30 4420 H 401.409 4.49568 -1.89049 0
M  V30 4421 H 400.414 3.71021 -4.05738 0
M  V30 4422 H 401.639 4.63761 -4.96087 0
M  V30 4423 H 399.585 5.80938 -3.04708 0
M  V30 4424 H 399.502 5.85909 -4.77752 0
M  V30 4425 H 400.77 6.71744 -3.9545 0
M  V30 4426 N 404.999 1.35443 0.805782 0
M  V30 4427 C 405.947 1.28465 1.93906 0
M  V30 4428 C 406.941 0.17943 1.68447 0
M  V30 4429 O 408.147 0.345459 1.76654 0
M  V30 4430 H 404.522 0.399528 0.637088 0
M  V30 4431 H 406.493 2.24206 1.96912 0
M  V30 4432 C 405.242 1.07432 3.30687 0
M  V30 4433 H 404.565 1.91716 3.50835 0
M  V30 4434 H 406.005 1.06591 4.10383 0
M  V30 4435 C 404.464 -0.22179 3.36169 0
M  V30 4436 O 404.994 -1.21731 3.82811 0
M  V30 4437 N 403.2 -0.260841 2.89427 0
M  V30 4438 H 402.747 0.549884 2.51663 0
M  V30 4439 H 402.705 -1.12777 2.93477 0
M  V30 4440 N 406.477 -1.02803 1.19454 0
M  V30 4441 C 407.425 -2.13213 0.929673 0
M  V30 4442 C 408.419 -1.69011 -0.114806 0
M  V30 4443 O 409.625 -1.79967 0.0345147 0
M  V30 4444 H 406 -0.69662 0.28324 0
M  V30 4445 H 407.971 -2.32744 1.86743 0
M  V30 4446 C 406.72 -3.4429 0.485797 0
M  V30 4447 H 406.043 -3.7872 1.28105 0
M  V30 4448 H 407.483 -4.22638 0.339582 0
M  V30 4449 C 405.942 -3.27258 -0.800244 0
M  V30 4450 O 406.472 -3.55967 -1.86146 0
M  V30 4451 N 404.678 -2.80545 -0.75781 0
M  V30 4452 H 404.225 -2.57382 0.106039 0
M  V30 4453 H 404.183 -2.6953 -1.61867 0
M  V30 4454 N 407.956 -0.998596 -1.21925 0
M  V30 4455 C 409.181 -0.696015 -1.95372 0
M  V30 4456 C 409.606 0.733826 -1.73195 0
M  V30 4457 O 408.964 1.50242 -1.01474 0
M  V30 4458 C 409.012 -1.01466 -3.4603 0
M  V30 4459 O 408.116 -0.116415 -4.12236 0
M  V30 4460 H 407.457 -0.259938 -0.611006 0
M  V30 4461 H 409.987 -1.33711 -1.54863 0
M  V30 4462 H 409.997 -0.958855 -3.96573 0
M  V30 4463 H 408.672 -2.05653 -3.61497 0
M  V30 4464 H 407.249 -0.228193 -3.72201 0
M  V30 4465 N 409.434 1.37368 -0.772513 0
M  V30 4466 C 410.845 1.8231 -0.402493 0
M  V30 4467 C 411.196 1.6436 1.07146 0
M  V30 4468 O 410.321 1.15514 1.82991 0
M  V30 4469 C 410.916 3.30979 -0.723776 0
M  V30 4470 C 409.475 3.74195 -0.406802 0
M  V30 4471 C 408.622 2.59885 -0.967218 0
M  V30 4472 H 411.573 1.25829 -0.967099 0
M  V30 4473 H 411.594 3.80499 -0.00870832 0
M  V30 4474 H 411.106 3.44011 -1.7966 0
M  V30 4475 H 409.207 3.66732 0.658673 0
M  V30 4476 H 409.32 4.7027 -0.915588 0
M  V30 4477 H 407.684 2.51674 -0.391416 0
M  V30 4478 H 408.467 2.7571 -2.04546 0
M  V30 4479 N 410.912 0.523116 1.48665 0
M  V30 4480 C 411.842 -0.23231 2.32342 0
M  V30 4481 C 412.823 -0.941637 1.41659 0
M  V30 4482 O 414.008 -0.928751 1.70552 0
M  V30 4483 C 411.138 -1.28387 3.22698 0
M  V30 4484 C 410.092 -0.693098 4.22351 0
M  V30 4485 C 409.418 -1.8468 5.01794 0
M  V30 4486 C 410.718 0.33063 5.21252 0
M  V30 4487 H 412.412 0.466192 2.95748 0
M  V30 4488 H 409.958 0.225643 1.42221 0
M  V30 4489 H 411.911 -1.82024 3.80059 0
M  V30 4490 H 410.635 -2.01186 2.57278 0
M  V30 4491 H 409.294 -0.178299 3.66166 0
M  V30 4492 H 408.942 -2.56301 4.32804 0
M  V30 4493 H 408.642 -1.45747 5.69238 0
M  V30 4494 H 410.166 -2.38709 5.62006 0
M  V30 4495 H 411.58 -0.118407 5.73178 0
M  V30 4496 H 409.977 0.636974 5.9671 0
M  V30 4497 H 411.047 1.23883 4.68808 0
M  V30 4498 N 412.39 -1.55475 0.257931 0
M  V30 4499 C 413.322 -2.19192 -0.669881 0
M  V30 4500 C 414.335 -1.17148 -1.1305 0
M  V30 4501 O 415.524 -1.43959 -1.05537 0
M  V30 4502 C 412.624 -2.79016 -1.92363 0
M  V30 4503 C 411.797 -4.06586 -1.61265 0
M  V30 4504 C 410.856 -4.50622 -2.7171 0
M  V30 4505 O 409.882 -5.16765 -2.38627 0
M  V30 4506 N 411.084 -4.19325 -4.01431 0
M  V30 4507 H 413.849 -2.99441 -0.124635 0
M  V30 4508 H 411.41 -1.6171 0.0783311 0
M  V30 4509 H 413.402 -3.05427 -2.65511 0
M  V30 4510 H 411.972 -2.0286 -2.37837 0
M  V30 4511 H 411.192 -3.87646 -0.715811 0
M  V30 4512 H 412.48 -4.89737 -1.37967 0
M  V30 4513 H 411.878 -3.66247 -4.31138 0
M  V30 4514 H 410.435 -4.50547 -4.7101 0
M  V30 4515 N 413.868 0.0150385 -1.57593 0
M  V30 4516 C 415.117 0.702115 -1.89085 0
M  V30 4517 C 415.43 1.75764 -0.858277 0
M  V30 4518 O 416.636 2.49829 -1.0629 0
M  V30 4519 C 415.092 1.29992 -3.35604 0
M  V30 4520 C 414.7 0.280007 -4.47124 0
M  V30 4521 C 416.444 1.96606 -3.76227 0
M  V30 4522 C 414.351 0.886949 -5.84711 0
M  V30 4523 H 413.281 0.265997 -0.705522 0
M  V30 4524 H 415.932 -0.0430408 -1.8345 0
M  V30 4525 H 414.314 2.09525 -3.36029 0
M  V30 4526 H 415.488 -0.489631 -4.58191 0
M  V30 4527 H 413.803 -0.284835 -4.15425 0
M  V30 4528 H 416.4 2.42893 -4.76347 0
M  V30 4529 H 416.743 2.79024 -3.08952 0
M  V30 4530 H 417.276 1.23828 -3.78036 0
M  V30 4531 H 414.015 0.101876 -6.55421 0
M  V30 4532 H 413.535 1.6261 -5.77337 0
M  V30 4533 H 415.214 1.39011 -6.3189 0
M  V30 4534 N 415.346 1.54954 0.287554 0
M  V30 4535 C 416.757 1.65732 0.859634 0
M  V30 4536 C 417.108 0.574767 1.87592 0
M  V30 4537 O 416.233 -0.286299 2.14498 0
M  V30 4538 C 416.828 3.00438 1.56597 0
M  V30 4539 C 415.387 3.13292 2.08627 0
M  V30 4540 C 414.534 2.61473 0.923416 0
M  V30 4541 H 417.485 1.5857 0.0642338 0
M  V30 4542 H 417.506 2.92613 2.43224 0
M  V30 4543 H 417.018 3.79207 0.826053 0
M  V30 4544 H 415.119 2.39268 2.85625 0
M  V30 4545 H 415.232 4.19647 2.31157 0
M  V30 4546 H 413.596 2.18264 1.31275 0
M  V30 4547 H 414.379 3.42733 0.197241 0
M  V30 4548 N 416.824 -0.551391 1.4764 0
M  V30 4549 C 418.07 -1.31024 1.54792 0
M  V30 4550 C 418.403 -1.9304 0.211967 0
M  V30 4551 O 417.678 -1.78175 -0.77999 0
M  V30 4552 C 417.961 -2.41593 2.67029 0
M  V30 4553 C 417.814 -1.84408 4.10261 0
M  V30 4554 C 419.133 -3.43488 2.75143 0
M  V30 4555 H 416.252 -0.475031 0.563485 0
M  V30 4556 H 418.894 -0.616454 1.79722 0
M  V30 4557 H 417.044 -3.00772 2.45904 0
M  V30 4558 H 418.716 -1.29445 4.42766 0
M  V30 4559 H 416.959 -1.15051 4.18265 0
M  V30 4560 H 417.63 -2.64367 4.84576 0
M  V30 4561 H 420.106 -2.94236 2.94218 0
M  V30 4562 H 418.982 -4.18274 3.55441 0
M  V30 4563 H 419.243 -4.02703 1.82435 0
M  V30 4564 N 418.302 -1.35869 -0.798587 0
M  V30 4565 C 419.25 -1.29491 -1.93222 0
M  V30 4566 C 420.244 -0.18836 -1.6835 0
M  V30 4567 O 421.45 -0.354822 -1.76468 0
M  V30 4568 H 417.825 -0.402901 -0.63496 0
M  V30 4569 H 419.796 -2.25247 -1.9572 0
M  V30 4570 C 418.545 -1.09184 -3.30112 0
M  V30 4571 H 417.868 -1.93574 -3.49813 0
M  V30 4572 H 419.308 -1.08766 -4.09812 0
M  V30 4573 C 417.767 0.203959 -3.36282 0
M  V30 4574 O 418.297 1.19699 -3.83451 0
M  V30 4575 N 416.503 0.245488 -2.89561 0
M  V30 4576 H 416.05 -0.563223 -2.51367 0
M  V30 4577 H 416.008 1.11219 -2.94071 0
M  V30 4578 N 419.78 1.02168 -1.19998 0
M  V30 4579 C 420.743 2.08765 -0.94604 0
M  V30 4580 C 421.743 1.60618 0.0763846 0
M  V30 4581 O 422.933 1.73472 -0.159135 0
M  V30 4582 C 420.065 3.38262 -0.423255 0
M  V30 4583 H 421.258 2.32726 -1.89153 0
M  V30 4584 H 418.811 1.1889 -1.01464 0
M  V30 4585 H 419.546 3.19974 0.527938 0
M  V30 4586 H 419.331 3.74532 -1.16053 0
M  V30 4587 H 420.821 4.16759 -0.264911 0
M  V30 4588 N 421.258 1.00505 1.21394 0
M  V30 4589 C 422.505 0.687774 1.90462 0
M  V30 4590 C 422.833 -0.78147 1.7811 0
M  V30 4591 O 422.088 -1.58208 1.1519 0
M  V30 4592 C 422.387 1.0546 3.41486 0
M  V30 4593 C 422.053 2.51812 3.74034 0
M  V30 4594 C 420.715 2.91804 3.82628 0
M  V30 4595 C 423.067 3.46614 3.8924 0
M  V30 4596 C 420.395 4.2556 4.03876 0
M  V30 4597 C 422.747 4.80044 4.11995 0
M  V30 4598 C 421.411 5.19759 4.18816 0
M  V30 4599 H 420.681 0.251674 0.696951 0
M  V30 4600 H 423.328 1.26349 1.43903 0
M  V30 4601 H 421.633 0.397133 3.89782 0
M  V30 4602 H 423.33 0.786976 3.93202 0
M  V30 4603 H 419.92 2.1982 3.67936 0
M  V30 4604 H 424.104 3.16883 3.81967 0
M  V30 4605 H 419.36 4.55901 4.07387 0
M  V30 4606 H 423.534 5.53439 4.22704 0
M  V30 4607 H 421.161 6.23418 4.35033 0
M  V30 4608 N 422.737 -1.36956 0.779787 0
M  V30 4609 C 424.014 -1.93697 0.272156 0
M  V30 4610 C 424.394 -1.71267 -1.23413 0
M  V30 4611 O 423.742 -1.06607 -2.02107 0
M  V30 4612 C 423.952 -3.42812 0.654291 0
M  V30 4613 C 425.3 -4.19921 0.628602 0
M  V30 4614 O 426.324 -3.51209 0.594172 0
M  V30 4615 O 425.183 -5.42465 0.662864 0
M  V30 4616 H 422.277 -0.824447 0.0649286 0
M  V30 4617 H 424.823 -1.46196 0.861682 0
M  V30 4618 H 423.595 -3.52754 1.69353 0
M  V30 4619 H 423.218 -3.97582 0.0381369 0
M  V30 4620 N 424.215 -0.530993 -1.48385 0
M  V30 4621 C 425.178 0.220497 -2.28137 0
M  V30 4622 C 426.178 0.866851 -1.35434 0
M  V30 4623 O 427.368 0.726746 -1.58316 0
M  V30 4624 C 424.5 1.31921 -3.1434 0
M  V30 4625 H 425.693 -0.479714 -2.96038 0
M  V30 4626 H 423.246 -0.286968 -1.53643 0
M  V30 4627 H 423.981 2.05264 -2.51072 0
M  V30 4628 H 423.766 0.86085 -3.82533 0
M  V30 4629 H 425.256 1.84776 -3.74497 0
M  V30 4630 N 425.693 1.55336 -0.266172 0
M  V30 4631 C 426.623 2.25146 0.618981 0
M  V30 4632 C 427.604 1.23845 1.16604 0
M  V30 4633 O 428.789 1.52544 1.20183 0
M  V30 4634 C 425.919 2.96572 1.80728 0
M  V30 4635 C 424.873 4.04726 1.39215 0
M  V30 4636 C 424.199 4.63678 2.66283 0
M  V30 4637 C 425.499 5.19407 0.548942 0
M  V30 4638 H 427.193 2.99377 0.0368116 0
M  V30 4639 H 424.739 1.43991 0.0162651 0
M  V30 4640 H 426.692 3.44116 2.43232 0
M  V30 4641 H 425.416 2.19861 2.41514 0
M  V30 4642 H 424.075 3.57979 0.790351 0
M  V30 4643 H 423.723 3.83646 3.25308 0
M  V30 4644 H 423.423 5.367 2.39222 0
M  V30 4645 H 424.947 5.13967 3.29651 0
M  V30 4646 H 426.361 5.63059 1.07876 0
M  V30 4647 H 424.758 5.98936 0.373593 0
M  V30 4648 H 425.828 4.8295 -0.434394 0
M  V30 4649 N 427.171 -0.0066808 1.57599 0
M  V30 4650 C 428.399 -0.704087 1.94551 0
M  V30 4651 C 428.814 -1.67677 0.867746 0
M  V30 4652 O 428.171 -1.8185 -0.153925 0
M  V30 4653 C 428.222 -1.44177 3.31505 0
M  V30 4654 O 427.943 -0.508097 4.35144 0
M  V30 4655 C 429.444 -2.23429 3.82876 0
M  V30 4656 H 426.664 -0.196523 0.641576 0
M  V30 4657 H 429.208 0.042453 2.04456 0
M  V30 4658 H 427.363 -2.13999 3.22929 0
M  V30 4659 H 427.777 -1.02782 5.14331 0
M  V30 4660 H 429.251 -2.70552 4.8115 0
M  V30 4661 H 429.728 -3.05818 3.15233 0
M  V30 4662 H 430.334 -1.58636 3.94607 0
M  V30 4663 N 428.649 -1.55105 -0.279332 0
M  V30 4664 C 429.559 -1.90638 -1.36727 0
M  V30 4665 C 430.575 -0.802899 -1.54368 0
M  V30 4666 O 431.751 -1.10138 -1.68616 0
M  V30 4667 C 428.816 -2.16547 -2.70755 0
M  V30 4668 C 427.877 -3.40146 -2.61915 0
M  V30 4669 C 427.11 -3.6481 -3.8955 0
M  V30 4670 O 427.333 -2.92095 -4.89935 0
M  V30 4671 O 426.267 -4.58343 -3.90135 0
M  V30 4672 H 430.093 -2.83237 -1.09591 0
M  V30 4673 H 427.678 -1.4157 -0.477306 0
M  V30 4674 H 429.56 -2.34665 -3.50014 0
M  V30 4675 H 428.235 -1.27131 -2.9769 0
M  V30 4676 H 427.142 -3.2737 -1.81052 0
M  V30 4677 H 428.475 -4.29761 -2.3993 0
M  V30 4678 N 430.127 0.543554 -1.4793 0
M  V30 4679 C 431.057 1.65888 -1.64327 0
M  V30 4680 C 432.038 1.62818 -0.492383 0
M  V30 4681 O 433.223 1.80226 -0.723338 0
M  V30 4682 C 430.353 3.04506 -1.67013 0
M  V30 4683 C 429.307 3.2243 -2.81466 0
M  V30 4684 C 428.633 4.61972 -2.69233 0
M  V30 4685 C 429.933 3.06496 -4.22915 0
M  V30 4686 H 431.627 1.52421 -2.57698 0
M  V30 4687 H 429.173 0.731849 -1.24016 0
M  V30 4688 H 431.126 3.82391 -1.77074 0
M  V30 4689 H 429.85 3.18964 -0.70212 0
M  V30 4690 H 428.509 2.46957 -2.70938 0
M  V30 4691 H 428.157 4.73247 -1.7043 0
M  V30 4692 H 427.857 4.74911 -3.46025 0
M  V30 4693 H 429.381 5.41974 -2.81242 0
M  V30 4694 H 430.795 3.74186 -4.34348 0
M  V30 4695 H 429.192 3.30938 -5.006 0
M  V30 4696 H 430.262 2.03077 -4.40327 0
M  V30 4697 N 431.605 1.3629 0.791371 0
M  V30 4698 C 432.552 1.30458 1.90393 0
M  V30 4699 C 433.522 0.173632 1.6519 0
M  V30 4700 O 434.707 0.35983 1.87376 0
M  V30 4701 C 431.847 1.09777 3.27174 0
M  V30 4702 C 430.96 2.31929 3.64462 0
M  V30 4703 C 430.095 2.04276 4.90352 0
M  V30 4704 C 429.134 3.224 5.20312 0
M  V30 4705 N 428.271 2.94424 6.37385 0
M  V30 4706 H 433.111 2.25589 1.94714 0
M  V30 4707 H 430.648 1.12122 0.952216 0
M  V30 4708 H 432.606 0.958133 4.06049 0
M  V30 4709 H 431.236 0.183014 3.22281 0
M  V30 4710 H 430.288 2.56703 2.80727 0
M  V30 4711 H 431.6 3.20085 3.82553 0
M  V30 4712 H 430.754 1.87231 5.77087 0
M  V30 4713 H 429.493 1.13428 4.74326 0
M  V30 4714 H 428.498 3.40005 4.32061 0
M  V30 4715 H 429.723 4.14071 5.38258 0
M  V30 4716 H 427.669 2.06185 6.22755 0
M  V30 4717 H 427.586 3.76118 6.55798 0
M  V30 4718 H 428.854 2.80953 7.27108 0
M  V30 4719 N 433.083 -1.0153 1.20538 0
M  V30 4720 C 434.329 -1.75408 1.01783 0
M  V30 4721 C 434.662 -1.88943 -0.448814 0
M  V30 4722 O 433.937 -1.4162 -1.33319 0
M  V30 4723 C 434.22 -3.17255 1.70356 0
M  V30 4724 C 434.073 -3.11508 3.24473 0
M  V30 4725 C 435.392 -4.15955 1.43769 0
M  V30 4726 H 432.511 -0.636713 0.371167 0
M  V30 4727 H 435.153 -1.18436 1.4857 0
M  V30 4728 H 433.303 -3.65898 1.30578 0
M  V30 4729 H 434.975 -2.70658 3.73553 0
M  V30 4730 H 433.218 -2.4887 3.55311 0
M  V30 4731 H 433.889 -4.11784 3.67611 0
M  V30 4732 H 436.365 -3.75973 1.7828 0
M  V30 4733 H 435.241 -5.13368 1.94279 0
M  V30 4734 H 435.502 -4.40586 0.365564 0
M  V30 4735 N 434.561 -1.01147 -1.20859 0
M  V30 4736 C 435.491 -0.597663 -2.25722 0
M  V30 4737 C 436.472 0.384744 -1.65692 0
M  V30 4738 O 437.657 0.271303 -1.92296 0
M  V30 4739 C 434.787 0.0700149 -3.47229 0
M  V30 4740 C 433.741 -0.832843 -4.19819 0
M  V30 4741 C 433.067 -0.0312202 -5.34691 0
M  V30 4742 C 434.367 -2.1385 -4.76514 0
M  V30 4743 H 436.061 -1.47423 -2.60589 0
M  V30 4744 H 433.607 -0.710301 -1.25263 0
M  V30 4745 H 435.56 0.37103 -4.19763 0
M  V30 4746 H 434.284 0.981259 -3.11511 0
M  V30 4747 H 432.943 -1.11778 -3.49144 0
M  V30 4748 H 432.591 0.881515 -4.95215 0
M  V30 4749 H 432.291 -0.632434 -5.84187 0
M  V30 4750 H 433.815 0.26346 -6.10031 0
M  V30 4751 H 435.229 -1.9002 -5.40893 0
M  V30 4752 H 433.626 -2.69012 -5.36426 0
M  V30 4753 H 434.696 -2.80495 -3.95538 0
M  V30 4754 N 436.039 1.36541 -0.78704 0
M  V30 4755 C 437.455 1.52571 -0.46844 0
M  V30 4756 C 437.655 1.7415 1.01361 0
M  V30 4757 O 436.711 1.77163 1.79915 0
M  V30 4758 C 438.024 2.71299 -1.29682 0
M  V30 4759 C 439.572 2.85169 -1.29027 0
M  V30 4760 C 440.047 4.06898 -2.10233 0
M  V30 4761 N 441.538 4.1404 -2.07666 0
M  V30 4762 C 442.273 5.07301 -2.67271 0
M  V30 4763 N 441.769 6.06021 -3.35724 0
M  V30 4764 N 443.562 4.99898 -2.57018 0
M  V30 4765 H 435.713 1.20788 -1.74711 0
M  V30 4766 H 437.976 0.589364 -0.742532 0
M  V30 4767 H 437.682 2.61868 -2.34773 0
M  V30 4768 H 437.556 3.6539 -0.936479 0
M  V30 4769 H 439.943 2.94062 -0.247284 0
M  V30 4770 H 440.024 1.91992 -1.69035 0
M  V30 4771 H 439.668 3.98766 -3.1456 0
M  V30 4772 H 439.598 4.99218 -1.67597 0
M  V30 4773 H 442.089 3.43357 -1.57843 0
M  V30 4774 H 442.402 6.73741 -3.78541 0
M  V30 4775 H 440.747 6.06253 -3.39826 0
M  V30 4776 H 443.938 4.21724 -2.03142 0
M  V30 4777 H 444.111 5.72392 -3.03761 0
M  V30 4778 N 437.518 0.538854 1.48102 0
M  V30 4779 C 438.448 -0.207654 2.32575 0
M  V30 4780 C 439.429 -0.926559 1.4265 0
M  V30 4781 O 440.614 -0.91061 1.71527 0
M  V30 4782 C 437.744 -1.24957 3.24042 0
M  V30 4783 C 436.698 -0.648263 4.23062 0
M  V30 4784 C 436.024 -1.79348 5.03725 0
M  V30 4785 C 437.324 0.385897 5.20872 0
M  V30 4786 H 439.018 0.497534 2.95237 0
M  V30 4787 H 436.564 0.240715 1.41974 0
M  V30 4788 H 438.517 -1.77983 3.81969 0
M  V30 4789 H 437.241 -1.98446 2.59397 0
M  V30 4790 H 435.9 -0.139452 3.66335 0
M  V30 4791 H 435.548 -2.51696 4.35498 0
M  V30 4792 H 435.248 -1.39702 5.70751 0
M  V30 4793 H 436.772 -2.32735 5.64506 0
M  V30 4794 H 438.186 -0.057607 5.73271 0
M  V30 4795 H 436.583 0.700227 5.96001 0
M  V30 4796 H 437.653 1.28848 4.67468 0
M  V30 4797 N 438.996 -1.55193 0.274407 0
M  V30 4798 C 439.946 -2.19184 -0.627882 0
M  V30 4799 C 440.93 -1.15625 -1.11892 0
M  V30 4800 O 442.122 -1.41441 -1.06411 0
M  V30 4801 C 439.251 -2.91591 -1.81189 0
M  V30 4802 C 438.337 -4.02438 -1.33807 0
M  V30 4803 N 438.728 -5.0246 -0.580349 0
M  V30 4804 C 437.026 -4.15496 -1.62109 0
M  V30 4805 C 437.727 -5.80756 -0.331344 0
M  V30 4806 N 436.703 -5.36038 -0.903556 0
M  V30 4807 H 440.505 -2.93871 -0.0411216 0
M  V30 4808 H 438.019 -1.62213 0.0779348 0
M  V30 4809 H 440.016 -3.35883 -2.46957 0
M  V30 4810 H 438.676 -2.18414 -2.40261 0
M  V30 4811 H 439.687 -5.17399 -0.227762 0
M  V30 4812 H 436.364 -3.53509 -2.22121 0
M  V30 4813 H 437.754 -6.71335 0.275454 0
M  V30 4814 N 440.474 -0.00167713 -1.576 0
M  V30 4815 C 441.699 0.69739 -1.95323 0
M  V30 4816 C 442.124 1.6642 -0.876706 0
M  V30 4817 O 441.482 1.80548 0.165007 0
M  V30 4818 C 441.53 1.40403 -3.32144 0
M  V30 4819 O 440.634 2.5185 -3.26566 0
M  V30 4820 H 439.975 0.185373 -0.637599 0
M  V30 4821 H 442.505 -0.0553665 -2.04525 0
M  V30 4822 H 442.515 1.76707 -3.67748 0
M  V30 4823 H 441.19 0.695167 -4.10049 0
M  V30 4824 H 439.767 2.17861 -3.0264 0
M  V30 4825 N 441.952 1.55251 0.271103 0
M  V30 4826 C 442.9 1.89054 1.35504 0
M  V30 4827 C 443.894 0.767064 1.51038 0
M  V30 4828 O 445.1 0.951429 1.528 0
M  V30 4829 H 441.475 0.600072 0.45323 0
M  V30 4830 H 443.446 2.79598 1.04247 0
M  V30 4831 C 442.195 2.18068 2.70817 0
M  V30 4832 H 441.518 3.04005 2.59656 0
M  V30 4833 H 442.958 2.4564 3.45597 0
M  V30 4834 C 441.417 0.988901 3.2206 0
M  V30 4835 O 441.947 0.224501 4.01072 0
M  V30 4836 N 440.153 0.786085 2.79766 0
M  V30 4837 H 439.7 1.40937 2.15626 0
M  V30 4838 H 439.658 -0.00969349 3.14399 0
M  V30 4839 N 443.43 -0.535701 1.48216 0
M  V30 4840 C 444.655 -1.32149 1.59848 0
M  V30 4841 C 445.08 -1.86338 0.256842 0
M  V30 4842 O 444.438 -1.64107 -0.770632 0
M  V30 4843 C 444.486 -2.45224 2.64381 0
M  V30 4844 O 443.59 -3.48093 2.21144 0
M  V30 4845 H 442.931 -0.391634 0.536208 0
M  V30 4846 H 445.461 -0.645202 1.94161 0
M  V30 4847 H 445.471 -2.91491 2.85476 0
M  V30 4848 H 444.146 -2.05143 3.61786 0
M  V30 4849 H 442.723 -3.07984 2.10239 0
M  V30 4850 N 444.908 -1.36708 -0.784132 0
M  V30 4851 C 445.838 -1.34153 -1.91116 0
M  V30 4852 C 446.819 -0.212121 -1.68772 0
M  V30 4853 O 448.004 -0.410581 -1.8981 0
M  V30 4854 C 445.134 -1.13535 -3.28218 0
M  V30 4855 C 444.088 -2.23356 -3.65097 0
M  V30 4856 C 443.414 -1.87875 -5.00607 0
M  V30 4857 C 444.714 -3.65473 -3.73131 0
M  V30 4858 H 446.408 -2.28459 -1.93512 0
M  V30 4859 H 443.954 -1.09973 -0.929618 0
M  V30 4860 H 445.907 -1.10381 -4.06687 0
M  V30 4861 H 444.631 -0.156804 -3.26223 0
M  V30 4862 H 443.29 -2.25645 -2.88929 0
M  V30 4863 H 442.938 -0.885814 -4.95139 0
M  V30 4864 H 442.638 -2.61406 -5.26252 0
M  V30 4865 H 444.162 -1.86286 -5.81489 0
M  V30 4866 H 445.576 -3.65382 -4.41779 0
M  V30 4867 H 443.973 -4.37953 -4.10265 0
M  V30 4868 H 445.043 -3.99995 -2.74102 0
M  V30 4869 N 446.386 1.0089 -1.21074 0
M  V30 4870 C 447.318 2.09737 -0.924291 0
M  V30 4871 C 448.331 1.62546 0.0909809 0
M  V30 4872 O 449.52 1.77942 -0.141021 0
M  V30 4873 C 446.62 3.36922 -0.36559 0
M  V30 4874 C 445.793 4.13216 -1.43426 0
M  V30 4875 C 444.852 5.18696 -0.885496 0
M  V30 4876 O 443.878 5.47176 -1.56801 0
M  V30 4877 N 445.08 5.79718 0.301227 0
M  V30 4878 H 447.845 2.34895 -1.8613 0
M  V30 4879 H 445.406 1.17341 -1.11546 0
M  V30 4880 H 447.398 4.04697 0.0158407 0
M  V30 4881 H 445.968 3.08952 0.476149 0
M  V30 4882 H 445.188 3.40301 -1.9897 0
M  V30 4883 H 446.476 4.60967 -2.15376 0
M  V30 4884 H 445.874 5.58926 0.872849 0
M  V30 4885 H 444.431 6.48804 0.624211 0
M  V30 4886 N 447.864 1.01787 1.20321 0
M  V30 4887 C 448.814 0.559976 2.21016 0
M  V30 4888 C 449.798 -0.385366 1.56217 0
M  V30 4889 O 450.99 -0.208126 1.75772 0
M  V30 4890 C 448.119 -0.0990553 3.43157 0
M  V30 4891 C 447.205 0.86807 4.15121 0
M  V30 4892 N 447.596 2.0261 4.63447 0
M  V30 4893 C 445.894 0.689162 4.40643 0
M  V30 4894 C 446.595 2.63518 5.18588 0
M  V30 4895 N 445.571 1.91569 5.08726 0
M  V30 4896 H 449.373 1.44281 2.56048 0
M  V30 4897 H 446.887 0.883381 1.36272 0
M  V30 4898 H 448.884 -0.444643 4.14522 0
M  V30 4899 H 447.544 -0.977709 3.0963 0
M  V30 4900 H 448.555 2.40598 4.58621 0
M  V30 4901 H 445.232 -0.14133 4.17261 0
M  V30 4902 H 446.622 3.61527 5.66346 0
M  V30 4903 N 449.342 -1.36122 0.79427 0
M  V30 4904 C 450.588 -1.99406 0.369452 0
M  V30 4905 C 450.921 -1.62886 -1.05743 0
M  V30 4906 O 450.196 -0.886053 -1.73145 0
M  V30 4907 C 450.479 -3.56046 0.538833 0
M  V30 4908 C 450.332 -4.02404 2.00976 0
M  V30 4909 C 451.651 -4.40079 -0.0431359 0
M  V30 4910 H 448.77 -0.724397 0.135712 0
M  V30 4911 H 451.412 -1.61461 1.00151 0
M  V30 4912 H 449.562 -3.885 0.000771004 0
M  V30 4913 H 451.234 -3.80415 2.60926 0
M  V30 4914 H 449.477 -3.53765 2.51063 0
M  V30 4915 H 450.148 -5.11344 2.07922 0
M  V30 4916 H 452.624 -4.14013 0.416228 0
M  V30 4917 H 451.5 -5.48799 0.105374 0
M  V30 4918 H 451.761 -4.27264 -1.13571 0
M  V30 4919 N 450.82 -0.546701 -1.47814 0
M  V30 4920 C 452.231 -0.110564 -1.86372 0
M  V30 4921 C 452.582 1.31678 -1.45449 0
M  V30 4922 O 451.707 1.98889 -0.852758 0
M  V30 4923 C 452.302 -0.193873 -3.38245 0
M  V30 4924 C 450.861 0.187164 -3.75934 0
M  V30 4925 C 450.008 -0.546166 -2.71868 0
M  V30 4926 H 452.959 -0.757022 -1.39481 0
M  V30 4927 H 452.98 0.590218 -3.75895 0
M  V30 4928 H 452.492 -1.23282 -3.67999 0
M  V30 4929 H 450.593 1.22762 -3.51796 0
M  V30 4930 H 450.706 -0.164083 -4.78819 0
M  V30 4931 H 449.07 0.00953904 -2.54698 0
M  V30 4932 H 449.853 -1.58606 -3.04465 0
M  V30 4933 N 452.299 1.55045 -0.282633 0
M  V30 4934 C 453.71 1.85473 0.213655 0
M  V30 4935 C 454.061 1.20465 1.54863 0
M  V30 4936 O 453.186 0.495676 2.10647 0
M  V30 4937 C 453.781 3.36496 0.394445 0
M  V30 4938 C 452.34 3.67022 0.834961 0
M  V30 4939 C 451.487 2.77218 -0.0674081 0
M  V30 4940 H 454.438 1.50478 -0.504202 0
M  V30 4941 H 454.459 3.60007 1.23186 0
M  V30 4942 H 453.971 3.83782 -0.577326 0
M  V30 4943 H 452.072 3.25241 1.81794 0
M  V30 4944 H 452.185 4.74433 0.667075 0
M  V30 4945 H 450.549 2.5069 0.450196 0
M  V30 4946 H 451.332 3.2732 -1.0352 0
M  V30 4947 N 453.777 0.010035 1.57597 0
M  V30 4948 C 455.193 -0.346164 1.55801 0
M  V30 4949 C 455.393 -1.74144 1.01371 0
M  V30 4950 O 454.449 -2.43938 0.651968 0
M  V30 4951 C 455.762 -0.212216 2.9995 0
M  V30 4952 C 457.31 -0.286409 3.11687 0
M  V30 4953 C 457.785 -0.18147 4.5764 0
M  V30 4954 N 459.276 -0.239056 4.62583 0
M  V30 4955 C 460.011 -0.181351 5.73113 0
M  V30 4956 N 459.507 -0.073661 6.92761 0
M  V30 4957 N 461.3 -0.233949 5.61613 0
M  V30 4958 H 453.451 0.922657 1.91313 0
M  V30 4959 H 455.714 0.354595 0.879185 0
M  V30 4960 H 455.42 0.748169 3.4365 0
M  V30 4961 H 455.294 -0.990224 3.6397 0
M  V30 4962 H 457.681 -1.23724 2.67911 0
M  V30 4963 H 457.762 0.521645 2.50425 0
M  V30 4964 H 457.406 0.765863 5.02093 0
M  V30 4965 H 457.336 -1.00814 5.1686 0
M  V30 4966 H 459.827 -0.32321 3.76515 0
M  V30 4967 H 460.14 -0.0358003 7.72792 0
M  V30 4968 H 458.485 -0.0391461 6.94989 0
M  V30 4969 H 461.676 -0.316347 4.6703 0
M  V30 4970 H 461.849 -0.185514 6.47734 0
M  V30 4971 N 455.255 -1.55392 -0.262866 0
M  V30 4972 C 456.501 -1.77657 -0.990424 0
M  V30 4973 C 456.856 -0.576333 -1.83565 0
M  V30 4974 O 456.149 0.430795 -1.86694 0
M  V30 4975 C 456.343 -3.02889 -1.89718 0
M  V30 4976 C 456.172 -4.34979 -1.14121 0
M  V30 4977 C 454.942 -4.98052 -0.852768 0
M  V30 4978 C 457.14 -5.11597 -0.526625 0
M  V30 4979 N 455.122 -6.13859 -0.0710649 0
M  V30 4980 C 456.493 -6.19883 0.12042 0
M  V30 4981 C 458.548 -4.95992 -0.435485 0
M  V30 4982 C 457.251 -7.14262 0.849833 0
M  V30 4983 C 459.277 -5.90735 0.280359 0
M  V30 4984 C 458.639 -6.98417 0.916103 0
M  V30 4985 H 454.738 -0.702242 -0.344064 0
M  V30 4986 H 457.322 -1.92887 -0.265088 0
M  V30 4987 H 455.493 -2.89017 -2.59468 0
M  V30 4988 H 457.225 -3.13516 -2.5591 0
M  V30 4989 H 453.98 -4.5916 -1.16058 0
M  V30 4990 H 454.404 -6.76302 0.307413 0
M  V30 4991 H 459.046 -4.12832 -0.912671 0
M  V30 4992 H 456.764 -7.96935 1.33867 0
M  V30 4993 H 460.35 -5.80738 0.351332 0
M  V30 4994 H 459.23 -7.70467 1.46119 0
M  V30 4995 N 456.733 0.527833 -1.48498 0
M  V30 4996 C 457.98 1.28354 -1.56625 0
M  V30 4997 C 458.308 1.93 -0.241096 0
M  V30 4998 O 457.563 1.79967 0.768798 0
M  V30 4999 C 457.862 2.39275 -2.65485 0
M  V30 5000 C 457.528 1.92268 -4.07853 0
M  V30 5001 C 456.19 1.79166 -4.46602 0
M  V30 5002 C 458.542 1.56771 -4.97064 0
M  V30 5003 C 455.87 1.28905 -5.72364 0
M  V30 5004 C 458.222 1.07972 -6.23318 0
M  V30 5005 C 456.886 0.934887 -6.60921 0
M  V30 5006 H 456.156 0.469682 -0.573131 0
M  V30 5007 H 458.803 0.588781 -1.82224 0
M  V30 5008 H 457.108 3.1443 -2.33754 0
M  V30 5009 H 458.805 2.974 -2.68988 0
M  V30 5010 H 455.395 2.03417 -3.77252 0
M  V30 5011 H 459.579 1.65753 -4.67803 0
M  V30 5012 H 454.835 1.16381 -6.00221 0
M  V30 5013 H 459.009 0.795775 -6.91838 0
M  V30 5014 H 456.636 0.543231 -7.58257 0
M  V30 5015 N 458.211 1.37122 0.776871 0
M  V30 5016 C 459.158 1.3247 1.88998 0
M  V30 5017 C 460.128 0.191143 1.64997 0
M  V30 5018 O 461.313 0.379683 1.86984 0
M  V30 5019 C 458.453 1.13241 3.25992 0
M  V30 5020 C 457.566 2.35782 3.61982 0
M  V30 5021 C 456.701 2.09465 4.88158 0
M  V30 5022 C 455.74 3.279 5.16864 0
M  V30 5023 N 454.877 3.01167 6.34226 0
M  V30 5024 H 459.717 2.27642 1.9231 0
M  V30 5025 H 457.254 1.13125 0.94027 0
M  V30 5026 H 459.212 1.00115 4.0501 0
M  V30 5027 H 457.842 0.217186 3.22069 0
M  V30 5028 H 456.894 2.59666 2.77989 0
M  V30 5029 H 458.206 3.24125 3.79137 0
M  V30 5030 H 457.36 1.93341 5.75069 0
M  V30 5031 H 456.099 1.18452 4.73097 0
M  V30 5032 H 455.104 3.44569 4.2843 0
M  V30 5033 H 456.329 4.19757 5.33836 0
M  V30 5034 H 454.275 2.12779 6.20533 0
M  V30 5035 H 454.192 3.83052 6.51772 0
M  V30 5036 H 455.46 2.88649 7.24087 0
M  V30 5037 N 459.689 -1.00246 1.21608 0
M  V30 5038 C 460.637 -2.11193 0.97469 0
M  V30 5039 C 461.631 -1.69216 -0.0789303 0
M  V30 5040 O 462.837 -1.79853 0.0726806 0
M  V30 5041 H 459.212 -0.690455 0.297953 0
M  V30 5042 H 461.183 -2.2873 1.91638 0
M  V30 5043 C 459.932 -3.43182 0.558717 0
M  V30 5044 H 459.255 -3.75918 1.3611 0
M  V30 5045 H 460.695 -4.21823 0.429154 0
M  V30 5046 C 459.154 -3.28882 -0.730648 0
M  V30 5047 O 459.684 -3.59835 -1.78554 0
M  V30 5048 N 457.89 -2.8209 -0.698131 0
M  V30 5049 H 457.437 -2.57099 0.16061 0
M  V30 5050 H 457.395 -2.72903 -1.56113 0
M  V30 5051 N 461.167 -1.02423 -1.1978 0
M  V30 5052 C 462.416 -0.713265 -1.88667 0
M  V30 5053 C 462.729 0.7609 -1.80193 0
M  V30 5054 O 463.935 1.18473 -2.44288 0
M  V30 5055 C 462.391 -1.22545 -3.38394 0
M  V30 5056 C 461.999 -2.72706 -3.55437 0
M  V30 5057 C 463.743 -0.990257 -4.12788 0
M  V30 5058 C 461.65 -3.17367 -4.99031 0
M  V30 5059 H 460.58 -0.263105 -0.706606 0
M  V30 5060 H 463.231 -1.23792 -1.35454 0
M  V30 5061 H 461.613 -0.628732 -3.90977 0
M  V30 5062 H 462.787 -3.37993 -3.13205 0
M  V30 5063 H 461.102 -2.94453 -2.94425 0
M  V30 5064 H 463.699 -1.29926 -5.18675 0
M  V30 5065 H 464.042 0.0730761 -4.16236 0
M  V30 5066 H 464.575 -1.55074 -3.66329 0
M  V30 5067 H 461.314 -4.23009 -5.00743 0
M  V30 5068 H 460.834 -2.56805 -5.42044 0
M  V30 5069 H 462.513 -3.10441 -5.67658 0
M  V30 5070 N 462.645 1.35699 -0.801477 0
M  V30 5071 C 463.593 2.3177 -0.196317 0
M  V30 5072 C 464.587 1.56388 0.651081 0
M  V30 5073 O 465.793 1.71557 0.544815 0
M  V30 5074 H 462.168 0.750669 -0.0447189 0
M  V30 5075 H 464.139 2.8036 -1.02181 0
M  V30 5076 C 462.888 3.41671 0.644702 0
M  V30 5077 H 462.211 3.998 0.0019921 0
M  V30 5078 H 463.651 4.11184 1.0346 0
M  V30 5079 C 462.11 2.84271 1.80808 0
M  V30 5080 O 462.64 2.77408 2.9053 0
M  V30 5081 N 460.846 2.41391 1.61799 0
M  V30 5082 H 460.393 2.47173 0.725493 0
M  V30 5083 H 460.351 2.03334 2.39797 0
M  V30 5084 N 464.123 0.554532 1.47522 0
M  V30 5085 C 465.07 -0.19466 2.29978 0
M  V30 5086 C 466.04 -0.910882 1.38896 0
M  V30 5087 O 467.225 -0.907102 1.67858 0
M  V30 5088 C 464.365 -1.22035 3.22802 0
M  V30 5089 C 463.478 -0.510474 4.28973 0
M  V30 5090 C 462.613 -1.52123 5.08952 0
M  V30 5091 C 461.652 -0.796173 6.069 0
M  V30 5092 N 460.789 -1.75363 6.79847 0
M  V30 5093 H 465.629 0.51461 2.93523 0
M  V30 5094 H 463.166 0.265607 1.44682 0
M  V30 5095 H 465.124 -1.8276 3.7504 0
M  V30 5096 H 463.754 -1.89769 2.61127 0
M  V30 5097 H 462.806 0.211234 3.79813 0
M  V30 5098 H 464.118 0.0576503 4.98767 0
M  V30 5099 H 463.272 -2.20207 5.65326 0
M  V30 5100 H 462.011 -2.12327 4.39054 0
M  V30 5101 H 461.016 -0.101388 5.49707 0
M  V30 5102 H 462.241 -0.199911 6.78806 0
M  V30 5103 H 460.187 -2.3443 6.12682 0
M  V30 5104 H 460.104 -1.23759 7.45801 0
M  V30 5105 H 461.372 -2.4257 7.40797 0
M  V30 5106 N 465.601 -1.54893 0.290851 0
M  V30 5107 C 466.531 -2.26103 -0.583084 0
M  V30 5108 C 467.512 -1.25684 -1.14619 0
M  V30 5109 O 468.697 -1.54436 -1.17741 0
M  V30 5110 C 465.827 -2.99409 -1.75987 0
M  V30 5111 C 464.781 -4.0689 -1.32758 0
M  V30 5112 C 464.107 -4.67856 -2.58872 0
M  V30 5113 C 465.407 -5.20215 -0.46624 0
M  V30 5114 H 467.101 -2.99398 0.0108214 0
M  V30 5115 H 464.647 -1.43998 0.00664468 0
M  V30 5116 H 466.6 -3.47943 -2.37727 0
M  V30 5117 H 465.324 -2.23675 -2.37985 0
M  V30 5118 H 463.983 -3.59191 -0.733299 0
M  V30 5119 H 463.631 -3.88772 -3.19163 0
M  V30 5120 H 463.331 -5.40438 -2.30653 0
M  V30 5121 H 464.855 -5.19147 -3.21433 0
M  V30 5122 H 466.269 -5.64704 -0.989047 0
M  V30 5123 H 464.666 -5.99455 -0.27826 0
M  V30 5124 H 465.736 -4.82198 0.511173 0
M  V30 5125 N 467.08 -0.0183926 -1.57589 0
M  V30 5126 C 468.012 0.995557 -2.06449 0
M  V30 5127 C 469.025 1.29556 -0.985849 0
M  V30 5128 O 470.214 1.2621 -1.26227 0
M  V30 5129 C 467.314 2.32572 -2.46502 0
M  V30 5130 C 466.487 2.21245 -3.77319 0
M  V30 5131 C 465.546 3.37104 -4.04039 0
M  V30 5132 O 464.572 3.14468 -4.74445 0
M  V30 5133 N 465.774 4.60553 -3.53372 0
M  V30 5134 H 468.539 0.578746 -2.94059 0
M  V30 5135 H 466.1 0.168603 -1.6102 0
M  V30 5136 H 468.092 3.08887 -2.61478 0
M  V30 5137 H 466.662 2.65931 -1.64315 0
M  V30 5138 H 465.882 1.29723 -3.72244 0
M  V30 5139 H 467.17 2.10868 -4.63047 0
M  V30 5140 H 466.568 4.81839 -2.96391 0
M  V30 5141 H 465.125 5.34072 -3.73644 0
M  V30 5142 N 468.558 1.5553 0.254621 0
M  V30 5143 C 469.468 1.92789 1.33677 0
M  V30 5144 C 470.484 0.827356 1.53071 0
M  V30 5145 O 471.66 1.12807 1.66843 0
M  V30 5146 C 468.725 2.20827 2.67275 0
M  V30 5147 C 467.786 3.4427 2.5647 0
M  V30 5148 C 467.019 3.70961 3.83697 0
M  V30 5149 O 467.242 2.99852 4.85227 0
M  V30 5150 O 466.176 4.64491 3.82794 0
M  V30 5151 H 470.002 2.84945 1.05071 0
M  V30 5152 H 467.587 1.42312 0.454723 0
M  V30 5153 H 469.469 2.40204 3.46237 0
M  V30 5154 H 468.144 1.31851 2.9563 0
M  V30 5155 H 467.051 3.30209 1.75821 0
M  V30 5156 H 468.384 4.33524 2.33062 0
M  V30 5157 N 470.036 -0.519951 1.48776 0
M  V30 5158 C 470.966 -1.63253 1.66945 0
M  V30 5159 C 471.947 -1.62014 0.518224 0
M  V30 5160 O 473.132 -1.79053 0.751919 0
M  V30 5161 C 470.262 -3.0181 1.71836 0
M  V30 5162 C 469.216 -3.17911 2.8656 0
M  V30 5163 C 468.542 -4.5763 2.76548 0
M  V30 5164 C 469.842 -2.99729 4.27738 0
M  V30 5165 H 471.536 -1.48302 2.6009 0
M  V30 5166 H 469.082 -0.712026 1.25165 0
M  V30 5167 H 471.035 -3.79525 1.83135 0
M  V30 5168 H 469.759 -3.17806 0.752775 0
M  V30 5169 H 468.418 -2.42616 2.74833 0
M  V30 5170 H 468.066 -4.70476 1.77937 0
M  V30 5171 H 467.766 -4.69346 3.53536 0
M  V30 5172 H 469.29 -5.37431 2.89828 0
M  V30 5173 H 470.704 -3.67228 4.40246 0
M  V30 5174 H 469.101 -3.22932 5.05801 0
M  V30 5175 H 470.171 -1.96047 4.43502 0
M  V30 5176 N 471.514 -1.37532 -0.769588 0
M  V30 5177 C 472.791 -1.23392 -1.51768 0
M  V30 5178 C 473.171 0.17157 -2.10402 0
M  V30 5179 O 472.519 1.17943 -1.95708 0
M  V30 5180 C 472.729 -2.33163 -2.59685 0
M  V30 5181 C 474.077 -2.70809 -3.27028 0
M  V30 5182 O 475.101 -2.32355 -2.69981 0
M  V30 5183 O 473.96 -3.37066 -4.30173 0
M  V30 5184 H 471.054 -0.481617 -0.67229 0
M  V30 5185 H 473.6 -1.49318 -0.806368 0
M  V30 5186 H 472.372 -3.27273 -2.14494 0
M  V30 5187 H 471.995 -2.08713 -3.38415 0
M  V30 5188 N 472.992 0.995999 -1.22138 0
M  V30 5189 C 473.922 2.10387 -1.01289 0
M  V30 5190 C 474.903 1.69975 0.0651454 0
M  V30 5191 O 476.088 1.9396 -0.0964628 0
M  V30 5192 C 473.218 3.42312 -0.586517 0
M  V30 5193 C 472.172 3.96558 -1.61014 0
M  V30 5194 C 471.498 5.24494 -1.0397 0
M  V30 5195 C 472.798 4.27595 -2.99933 0
M  V30 5196 H 474.492 2.28086 -1.93951 0
M  V30 5197 H 472.038 1.09607 -0.933928 0
M  V30 5198 H 473.991 4.19223 -0.427793 0
M  V30 5199 H 472.715 3.24431 0.375761 0
M  V30 5200 H 471.374 3.21776 -1.75658 0
M  V30 5201 H 471.022 5.02953 -0.0688703 0
M  V30 5202 H 470.722 5.61755 -1.72352 0
M  V30 5203 H 472.246 6.04042 -0.892494 0
M  V30 5204 H 473.66 4.95315 -2.8868 0
M  V30 5205 H 472.057 4.76021 -3.6541 0
M  V30 5206 H 473.127 3.35498 -3.50099 0
M  V30 5207 N 474.47 1.03057 1.19235 0
M  V30 5208 C 475.695 0.74757 1.93458 0
M  V30 5209 C 476.12 -0.687648 1.7508 0
M  V30 5210 O 475.478 -1.47499 1.05422 0
M  V30 5211 C 475.526 1.10604 3.43219 0
M  V30 5212 O 474.63 0.225671 4.11782 0
M  V30 5213 H 473.971 0.276047 0.603899 0
M  V30 5214 H 476.501 1.3777 1.51263 0
M  V30 5215 H 476.511 1.06366 3.93891 0
M  V30 5216 H 475.186 2.15165 3.55917 0
M  V30 5217 H 473.763 0.326795 3.71465 0
M  V30 5218 N 475.948 -1.35272 0.808662 0
M  V30 5219 C 476.88 -2.28507 0.178149 0
M  V30 5220 C 477.893 -1.50377 -0.623754 0
M  V30 5221 O 479.082 -1.72583 -0.455774 0
M  V30 5222 C 476.182 -3.30038 -0.769959 0
M  V30 5223 C 475.355 -4.37398 -0.0139749 0
M  V30 5224 C 474.414 -5.18775 -0.880875 0
M  V30 5225 O 473.44 -5.68236 -0.331059 0
M  V30 5226 N 474.642 -5.37087 -2.20267 0
M  V30 5227 H 477.407 -2.83255 0.979106 0
M  V30 5228 H 474.968 -1.47643 0.664308 0
M  V30 5229 H 476.96 -3.81371 -1.35418 0
M  V30 5230 H 475.53 -2.75789 -1.47171 0
M  V30 5231 H 474.75 -3.86971 0.751468 0
M  V30 5232 H 476.038 -5.06268 0.506965 0
M  V30 5233 H 475.436 -4.9855 -2.67328 0
M  V30 5234 H 473.993 -5.91593 -2.73608 0
M  V30 5235 N 477.426 -0.562348 -1.47226 0
M  V30 5236 C 478.374 0.195476 -2.31777 0
M  V30 5237 C 479.368 0.90433 -1.43242 0
M  V30 5238 O 480.574 0.825031 -1.59979 0
M  V30 5239 H 476.949 0.0819095 -0.747526 0
M  V30 5240 H 478.92 -0.536753 -2.93533 0
M  V30 5241 C 477.669 1.20902 -3.26003 0
M  V30 5242 H 476.992 0.672997 -3.94095 0
M  V30 5243 H 478.432 1.71006 -3.87986 0
M  V30 5244 C 476.891 2.25955 -2.49891 0
M  V30 5245 O 477.421 3.32969 -2.2471 0
M  V30 5246 N 475.627 2.00019 -2.1081 0
M  V30 5247 H 475.174 1.13006 -2.31489 0
M  V30 5248 H 475.132 2.70523 -1.60201 0
M  V30 5249 N 478.904 1.54736 -0.299062 0
M  V30 5250 C 480.151 2.00101 0.310784 0
M  V30 5251 C 480.479 1.18746 1.54045 0
M  V30 5252 O 479.734 0.251198 1.94081 0
M  V30 5253 C 480.033 3.50199 0.713835 0
M  V30 5254 C 479.699 4.48997 -0.413873 0
M  V30 5255 C 478.361 4.7573 -0.723462 0
M  V30 5256 C 480.713 5.07839 -1.17257 0
M  V30 5257 C 478.041 5.5857 -1.79491 0
M  V30 5258 C 480.393 5.91844 -2.23392 0
M  V30 5259 C 479.057 6.16889 -2.54959 0
M  V30 5260 H 478.327 0.732221 0.113724 0
M  V30 5261 H 480.974 1.86888 -0.417756 0
M  V30 5262 H 479.279 3.61012 1.52243 0
M  V30 5263 H 480.976 3.82723 1.19684 0
M  V30 5264 H 477.566 4.28292 -0.162476 0
M  V30 5265 H 481.75 4.87188 -0.946651 0
M  V30 5266 H 477.006 5.76213 -2.04423 0
M  V30 5267 H 481.18 6.36465 -2.8264 0
M  V30 5268 H 478.807 6.80869 -3.38114 0
M  V30 5269 N 480.382 0.0267497 1.57577 0
M  V30 5270 C 481.312 -0.954308 2.13108 0
M  V30 5271 C 482.293 -1.34088 1.04663 0
M  V30 5272 O 483.478 -1.41992 1.32484 0
M  V30 5273 C 480.608 -2.23744 2.65624 0
M  V30 5274 C 479.562 -1.99168 3.78835 0
M  V30 5275 C 478.888 -3.33726 4.17769 0
M  V30 5276 C 480.188 -1.33277 5.0501 0
M  V30 5277 H 481.882 -0.491848 2.95332 0
M  V30 5278 H 479.428 -0.23514 1.42067 0
M  V30 5279 H 481.381 -2.92754 3.03106 0
M  V30 5280 H 480.105 -2.72151 1.80558 0
M  V30 5281 H 478.764 -1.32577 3.41788 0
M  V30 5282 H 478.412 -3.79888 3.29688 0
M  V30 5283 H 478.112 -3.18089 4.94058 0
M  V30 5284 H 479.636 -4.04008 4.57832 0
M  V30 5285 H 481.05 -1.92283 5.40093 0
M  V30 5286 H 479.447 -1.28045 5.8628 0
M  V30 5287 H 480.517 -0.305411 4.83937 0
M  V30 5288 N 481.861 -1.55662 -0.24637 0
M  V30 5289 C 482.824 -1.89558 -1.28842 0
M  V30 5290 C 483.824 -0.772082 -1.41052 0
M  V30 5291 O 485.014 -1.04007 -1.39743 0
M  V30 5292 C 482.146 -2.12449 -2.66605 0
M  V30 5293 H 483.339 -2.82735 -1.00004 0
M  V30 5294 H 480.892 -1.48562 -0.485684 0
M  V30 5295 H 481.627 -1.21742 -3.00582 0
M  V30 5296 H 481.412 -2.94273 -2.59125 0
M  V30 5297 H 482.902 -2.39854 -3.41847 0
M  V30 5298 N 483.339 0.512053 -1.4905 0
M  V30 5299 C 484.286 1.6148 -1.64902 0
M  V30 5300 C 485.256 1.58687 -0.490673 0
M  V30 5301 O 486.441 1.76842 -0.71636 0
M  V30 5302 C 483.581 2.99676 -1.71139 0
M  V30 5303 C 482.694 3.12568 -2.98203 0
M  V30 5304 C 481.829 4.4143 -2.95487 0
M  V30 5305 C 480.868 4.47916 -4.17179 0
M  V30 5306 N 480.005 5.68191 -4.12437 0
M  V30 5307 H 484.845 1.47271 -2.59066 0
M  V30 5308 H 482.382 0.716713 -1.28459 0
M  V30 5309 H 484.34 3.79761 -1.72736 0
M  V30 5310 H 482.97 3.12614 -0.804508 0
M  V30 5311 H 482.022 2.25618 -3.06269 0
M  V30 5312 H 483.334 3.1322 -3.88194 0
M  V30 5313 H 482.488 5.29825 -2.95585 0
M  V30 5314 H 481.227 4.43326 -2.03256 0
M  V30 5315 H 480.232 3.57925 -4.17337 0
M  V30 5316 H 481.457 4.47744 -5.1059 0
M  V30 5317 H 479.403 5.7095 -3.23036 0
M  V30 5318 H 479.32 5.70413 -4.96151 0
M  V30 5319 H 480.588 6.58823 -4.16621 0
M  V30 5320 N 484.817 1.37938 0.762283 0
M  V30 5321 C 485.727 1.36681 1.90671 0
M  V30 5322 C 486.743 0.265078 1.71969 0
M  V30 5323 O 487.919 0.502055 1.95042 0
M  V30 5324 C 484.984 1.18211 3.25925 0
M  V30 5325 C 484.045 2.3811 3.57214 0
M  V30 5326 C 483.278 2.20512 4.86014 0
M  V30 5327 O 483.501 1.19429 5.57757 0
M  V30 5328 O 482.435 3.08911 5.16583 0
M  V30 5329 H 486.261 2.33091 1.94685 0
M  V30 5330 H 483.846 1.18767 0.906356 0
M  V30 5331 H 485.728 1.09937 4.06807 0
M  V30 5332 H 484.403 0.248807 3.22742 0
M  V30 5333 H 483.31 2.51958 2.76529 0
M  V30 5334 H 484.643 3.30041 3.65149 0
M  V30 5335 N 486.295 -0.989507 1.22664 0
M  V30 5336 C 487.544 -1.72375 1.04737 0
M  V30 5337 C 487.857 -1.91096 -0.417316 0
M  V30 5338 O 489.063 -2.6188 -0.716334 0
M  V30 5339 C 487.519 -3.10161 1.82561 0
M  V30 5340 C 487.127 -2.99358 3.333 0
M  V30 5341 C 488.871 -3.87607 1.73093 0
M  V30 5342 C 486.778 -4.32319 4.03552 0
M  V30 5343 H 485.708 -0.646326 0.388302 0
M  V30 5344 H 488.359 -1.10437 1.46546 0
M  V30 5345 H 486.741 -3.728 1.33552 0
M  V30 5346 H 487.915 -2.45863 3.89728 0
M  V30 5347 H 486.23 -2.35392 3.43481 0
M  V30 5348 H 488.827 -4.86025 2.22899 0
M  V30 5349 H 489.17 -4.10509 0.691976 0
M  V30 5350 H 489.703 -3.31652 2.19663 0
M  V30 5351 H 486.442 -4.14616 5.07714 0
M  V30 5352 H 485.962 -4.85714 3.51911 0
M  V30 5353 H 487.641 -5.01051 4.09337 0
M  V30 5354 N 487.773 -1.03688 -1.18687 0
M  V30 5355 C 489.021 -0.736572 -1.88199 0
M  V30 5356 C 489.342 0.737665 -1.80509 0
M  V30 5357 O 488.612 1.53204 -1.22088 0
M  V30 5358 H 487.192 -0.269466 -0.696704 0
M  V30 5359 H 489.854 -1.31282 -1.44052 0
M  V30 5360 H 488.95 -1.03802 -2.94332 0
M  V30 5361 N 489.251 1.34841 -0.815825 0
M  V30 5362 C 490.528 1.92908 -0.323416 0
M  V30 5363 C 490.908 1.74479 1.18828 0
M  V30 5364 O 490.256 1.11928 1.99209 0
M  V30 5365 C 490.466 3.40957 -0.744952 0
M  V30 5366 C 491.814 4.18107 -0.739716 0
M  V30 5367 O 492.838 3.49511 -0.68708 0
M  V30 5368 O 491.697 5.40517 -0.806456 0
M  V30 5369 H 488.791 0.822436 -0.0867646 0
M  V30 5370 H 491.337 1.4386 -0.90014 0
M  V30 5371 H 490.109 3.4814 -1.78646 0
M  V30 5372 H 489.732 3.97341 -0.143535 0
M  V30 5373 N 490.729 0.570148 1.46925 0
M  V30 5374 C 491.692 -0.159933 2.28641 0
M  V30 5375 C 492.692 -0.830638 1.37685 0
M  V30 5376 O 493.882 -0.684516 1.60187 0
M  V30 5377 C 491.014 -1.2354 3.17727 0
M  V30 5378 H 492.207 0.558035 2.94662 0
M  V30 5379 H 489.76 0.327603 1.52828 0
M  V30 5380 H 490.495 -1.98535 2.56426 0
M  V30 5381 H 490.28 -0.759125 3.84681 0
M  V30 5382 H 491.77 -1.74782 3.79264 0
M  V30 5383 N 492.207 -1.54576 0.307264 0
M  V30 5384 C 493.154 -2.23751 -0.56604 0
M  V30 5385 C 494.124 -1.22235 -1.12462 0
M  V30 5386 O 495.309 -1.50873 -1.16799 0
M  V30 5387 C 492.449 -2.98661 -1.72903 0
M  V30 5388 C 491.562 -4.14963 -1.20124 0
M  V30 5389 C 490.697 -4.77441 -2.3286 0
M  V30 5390 C 489.736 -5.85875 -1.77247 0
M  V30 5391 N 488.873 -6.42282 -2.8358 0
M  V30 5392 H 493.713 -2.97984 0.0304578 0
M  V30 5393 H 491.25 -1.47076 0.0268015 0
M  V30 5394 H 493.208 -3.40329 -2.41313 0
M  V30 5395 H 491.838 -2.26793 -2.29706 0
M  V30 5396 H 490.89 -3.78193 -0.409198 0
M  V30 5397 H 492.202 -4.93066 -0.754171 0
M  V30 5398 H 491.356 -5.21993 -3.09205 0
M  V30 5399 H 490.095 -3.98684 -2.80896 0
M  V30 5400 H 489.1 -5.40741 -0.993926 0
M  V30 5401 H 490.325 -6.6652 -1.30107 0
M  V30 5402 H 488.271 -5.66406 -3.30939 0
M  V30 5403 H 488.188 -7.1575 -2.43388 0
M  V30 5404 H 489.456 -6.91492 -3.59804 0
M  V30 5405 N 493.685 -0.035106 -1.57561 0
M  V30 5406 C 494.932 0.642229 -1.92046 0
M  V30 5407 C 495.26 1.7179 -0.91206 0
M  V30 5408 O 494.515 1.95544 0.0781153 0
M  V30 5409 C 494.814 1.29149 -3.3325 0
M  V30 5410 C 494.48 0.345604 -4.49574 0
M  V30 5411 C 493.142 0.0852775 -4.81124 0
M  V30 5412 C 495.494 -0.303569 -5.20315 0
M  V30 5413 C 492.822 -0.831927 -5.80772 0
M  V30 5414 C 495.174 -1.20886 -6.20942 0
M  V30 5415 C 493.838 -1.47802 -6.50931 0
M  V30 5416 H 493.108 0.235008 -0.702746 0
M  V30 5417 H 495.755 -0.0981529 -1.91248 0
M  V30 5418 H 494.06 2.10676 -3.30337 0
M  V30 5419 H 495.757 1.82223 -3.57205 0
M  V30 5420 H 492.347 0.558683 -4.24943 0
M  V30 5421 H 496.531 -0.115515 -4.96166 0
M  V30 5422 H 491.787 -1.0481 -6.02349 0
M  V30 5423 H 495.961 -1.71804 -6.74875 0
M  V30 5424 H 493.588 -2.19039 -7.2796 0
M  V30 5425 N 495.163 1.55791 0.238111 0
M  V30 5426 C 496.093 1.94068 1.29846 0
M  V30 5427 C 497.074 0.806726 1.49753 0
M  V30 5428 O 498.259 1.06772 1.62214 0
M  V30 5429 C 495.389 2.24302 2.65153 0
M  V30 5430 C 494.343 3.40032 2.59927 0
M  V30 5431 C 493.669 3.55829 3.99111 0
M  V30 5432 C 494.969 4.75476 2.16148 0
M  V30 5433 H 496.663 2.82887 0.980563 0
M  V30 5434 H 494.209 1.36105 0.470253 0
M  V30 5435 H 496.162 2.4967 3.39475 0
M  V30 5436 H 494.886 1.32318 2.98596 0
M  V30 5437 H 493.545 3.14687 1.88063 0
M  V30 5438 H 493.193 2.6125 4.29834 0
M  V30 5439 H 492.893 4.3366 3.96501 0
M  V30 5440 H 494.417 3.83528 4.7512 0
M  V30 5441 H 495.831 5.00158 2.80205 0
M  V30 5442 H 494.228 5.56472 2.24631 0
M  V30 5443 H 495.298 4.71946 1.11333 0
M  V30 5444 N 496.642 -0.504142 1.49319 0
M  V30 5445 C 497.592 -1.60284 1.62151 0
M  V30 5446 C 498.576 -1.53657 0.477315 0
M  V30 5447 O 499.768 -1.6124 0.730108 0
M  V30 5448 C 496.897 -2.98909 1.68844 0
M  V30 5449 C 495.983 -3.10544 2.8883 0
M  V30 5450 N 496.374 -2.92078 4.12946 0
M  V30 5451 C 494.672 -3.4164 2.86702 0
M  V30 5452 C 495.373 -3.07812 4.93585 0
M  V30 5453 N 494.349 -3.36549 4.26891 0
M  V30 5454 H 498.151 -1.44656 2.55835 0
M  V30 5455 H 495.665 -0.710198 1.46048 0
M  V30 5456 H 497.662 -3.77865 1.76134 0
M  V30 5457 H 496.322 -3.15609 0.762943 0
M  V30 5458 H 497.333 -2.68316 4.42975 0
M  V30 5459 H 494.01 -3.64537 2.03517 0
M  V30 5460 H 495.4 -2.98054 6.02174 0
M  V30 5461 N 498.12 -1.38341 -0.754957 0
M  V30 5462 C 499.367 -1.34473 -1.51404 0
M  V30 5463 C 499.695 0.0656458 -1.94389 0
M  V30 5464 O 498.95 1.04244 -1.65625 0
M  V30 5465 C 499.249 -2.2452 -2.78075 0
M  V30 5466 C 498.915 -3.72512 -2.54059 0
M  V30 5467 C 497.577 -4.1284 -2.47218 0
M  V30 5468 C 499.929 -4.66197 -2.33044 0
M  V30 5469 C 497.257 -5.44945 -2.17376 0
M  V30 5470 C 499.609 -5.98558 -2.04723 0
M  V30 5471 C 498.273 -6.37972 -1.96337 0
M  V30 5472 H 497.543 -0.492072 -0.554027 0
M  V30 5473 H 500.19 -1.70687 -0.868223 0
M  V30 5474 H 498.495 -1.81357 -3.473 0
M  V30 5475 H 500.192 -2.18832 -3.36026 0
M  V30 5476 H 496.782 -3.40538 -2.60253 0
M  V30 5477 H 500.966 -4.35888 -2.37309 0
M  V30 5478 H 496.222 -5.74426 -2.09391 0
M  V30 5479 H 500.396 -6.70693 -1.87465 0
M  V30 5480 H 498.023 -7.40258 -1.72978 0
M  V30 5481 N 499.598 0.982988 -1.23187 0
M  V30 5482 C 500.528 2.09301 -1.03515 0
M  V30 5483 C 501.509 1.70035 0.0471136 0
M  V30 5484 O 502.694 1.93847 -0.117029 0
M  V30 5485 C 499.824 3.4167 -0.622791 0
M  V30 5486 C 498.778 3.94828 -1.65211 0
M  V30 5487 C 498.104 5.23362 -1.09527 0
M  V30 5488 C 499.404 4.2439 -3.04451 0
M  V30 5489 H 501.098 2.26016 -1.96359 0
M  V30 5490 H 498.644 1.08611 -0.945501 0
M  V30 5491 H 500.597 4.18746 -0.472233 0
M  V30 5492 H 499.321 3.24811 0.341329 0
M  V30 5493 H 497.98 3.19895 -1.79061 0
M  V30 5494 H 497.628 5.02852 -0.122211 0
M  V30 5495 H 497.328 5.59895 -1.783 0
M  V30 5496 H 498.852 6.03062 -0.956511 0
M  V30 5497 H 500.266 4.92225 -2.93917 0
M  V30 5498 H 498.663 4.72118 -3.70438 0
M  V30 5499 H 499.733 3.31765 -3.53638 0
M  V30 5500 N 501.076 1.04316 1.18135 0
M  V30 5501 C 502.487 0.775505 1.69832 0
M  V30 5502 C 502.838 -0.703348 1.8316 0
M  V30 5503 O 501.963 -1.54729 1.51287 0
M  V30 5504 C 502.558 1.40112 3.0847 0
M  V30 5505 C 501.117 1.18172 3.57368 0
M  V30 5506 C 500.264 1.49022 2.33854 0
M  V30 5507 H 503.215 1.20925 1.02775 0
M  V30 5508 H 503.236 0.805672 3.71873 0
M  V30 5509 H 502.748 2.47744 2.98738 0
M  V30 5510 H 500.849 0.124258 3.72393 0
M  V30 5511 H 500.962 1.8805 4.40652 0
M  V30 5512 H 499.326 0.909995 2.37889 0
M  V30 5513 H 500.109 2.57768 2.26738 0
M  V30 5514 N 502.554 -1.34406 0.822964 0
M  V30 5515 C 503.779 -2.0304 0.423034 0
M  V30 5516 C 504.204 -1.61568 -0.963196 0
M  V30 5517 O 503.562 -0.800339 -1.62678 0
M  V30 5518 C 503.61 -3.56636 0.53321 0
M  V30 5519 O 502.714 -4.09971 -0.446939 0
M  V30 5520 H 502.055 -0.64075 0.174171 0
M  V30 5521 H 504.585 -1.71653 1.11339 0
M  V30 5522 H 504.595 -4.05945 0.408991 0
M  V30 5523 H 503.27 -3.86168 1.54425 0
M  V30 5524 H 501.847 -3.71835 -0.281601 0
M  V30 5525 N 504.032 -0.577932 -1.46621 0
M  V30 5526 C 504.962 0.145917 -2.33044 0
M  V30 5527 C 505.943 0.888412 -1.45056 0
M  V30 5528 O 507.128 0.864812 -1.73881 0
M  V30 5529 C 504.258 1.16322 -3.27241 0
M  V30 5530 C 503.212 0.535868 -4.24632 0
M  V30 5531 C 502.538 1.65929 -5.08303 0
M  V30 5532 C 503.838 -0.523861 -5.19666 0
M  V30 5533 H 505.532 -0.575636 -2.93814 0
M  V30 5534 H 503.078 -0.278272 -1.41286 0
M  V30 5535 H 505.031 1.67793 -3.86553 0
M  V30 5536 H 503.755 1.91498 -2.64567 0
M  V30 5537 H 502.414 0.0422759 -3.66576 0
M  V30 5538 H 502.062 2.40061 -4.42018 0
M  V30 5539 H 501.762 1.2452 -5.74255 0
M  V30 5540 H 503.286 2.17686 -5.70478 0
M  V30 5541 H 504.7 -0.0944059 -5.73222 0
M  V30 5542 H 503.097 -0.858 -5.93935 0
M  V30 5543 H 504.167 -1.41197 -4.63887 0
M  V30 5544 N 505.51 1.54411 -0.315457 0
M  V30 5545 C 506.759 1.99599 0.290395 0
M  V30 5546 C 507.072 1.20746 1.53882 0
M  V30 5547 O 508.278 1.56272 2.22017 0
M  V30 5548 C 506.734 3.5539 0.56797 0
M  V30 5549 C 506.342 4.43068 -0.662945 0
M  V30 5550 C 508.086 4.09067 1.13422 0
M  V30 5551 C 505.993 5.90317 -0.357722 0
M  V30 5552 H 504.923 0.745592 0.112286 0
M  V30 5553 H 507.574 1.78477 -0.426418 0
M  V30 5554 H 505.956 3.72468 1.34476 0
M  V30 5555 H 507.13 4.37765 -1.43869 0
M  V30 5556 H 505.445 4.00238 -1.14884 0
M  V30 5557 H 508.042 5.16663 1.37707 0
M  V30 5558 H 508.385 3.60552 2.08106 0
M  V30 5559 H 508.918 3.95589 0.418805 0
M  V30 5560 H 505.657 6.4301 -1.27351 0
M  V30 5561 H 505.177 5.98592 0.380472 0
M  V30 5562 H 506.856 6.4699 0.0354284 0
M  V30 5563 N 506.988 0.0434614 1.5754 0
M  V30 5564 C 507.92 -0.962586 2.08007 0
M  V30 5565 C 508.933 -1.27972 1.00634 0
M  V30 5566 O 510.122 -1.24186 1.28219 0
M  V30 5567 C 507.222 -2.28621 2.50171 0
M  V30 5568 C 506.395 -2.15214 3.80791 0
M  V30 5569 C 505.454 -3.30633 4.09351 0
M  V30 5570 O 504.48 -3.0688 4.79388 0
M  V30 5571 N 505.682 -4.54873 3.60654 0
M  V30 5572 H 508.447 -0.531891 2.94942 0
M  V30 5573 H 506.008 -0.142965 1.61268 0
M  V30 5574 H 508 -3.04689 2.66359 0
M  V30 5575 H 506.57 -2.63283 1.68525 0
M  V30 5576 H 505.79 -1.23785 3.74261 0
M  V30 5577 H 507.078 -2.03475 4.66343 0
M  V30 5578 H 506.476 -4.77063 3.04019 0
M  V30 5579 H 505.033 -5.2806 3.82094 0
M  V30 5580 N 508.466 -1.55915 -0.229846 0
M  V30 5581 C 509.396 -1.94754 -1.28815 0
M  V30 5582 C 510.377 -0.814657 -1.49323 0
M  V30 5583 O 511.562 -1.07631 -1.61645 0
M  V30 5584 C 508.692 -2.25705 -2.63959 0
M  V30 5585 C 507.646 -3.41406 -2.5812 0
M  V30 5586 C 506.972 -3.57941 -3.97218 0
M  V30 5587 C 508.272 -4.76616 -2.13623 0
M  V30 5588 H 509.966 -2.83404 -0.965547 0
M  V30 5589 H 507.512 -1.36353 -0.463028 0
M  V30 5590 H 509.465 -2.51467 -3.38146 0
M  V30 5591 H 508.189 -1.339 -2.9789 0
M  V30 5592 H 506.848 -3.1568 -1.86391 0
M  V30 5593 H 506.496 -2.63526 -4.28443 0
M  V30 5594 H 506.196 -4.35757 -3.94195 0
M  V30 5595 H 507.72 -3.86042 -4.73079 0
M  V30 5596 H 509.134 -5.01637 -2.77549 0
M  V30 5597 H 507.531 -5.57655 -2.21677 0
M  V30 5598 H 508.601 -4.7253 -1.08829 0
M  V30 5599 N 509.944 0.496216 -1.49584 0
M  V30 5600 C 511.221 1.25755 -1.49816 0
M  V30 5601 C 511.601 2.09859 -0.228572 0
M  V30 5602 O 510.949 2.14449 0.788908 0
M  V30 5603 C 511.159 2.11017 -2.7798 0
M  V30 5604 C 512.507 2.70047 -3.27658 0
M  V30 5605 O 513.531 2.21281 -2.79129 0
M  V30 5606 O 512.39 3.58834 -4.1219 0
M  V30 5607 H 509.484 0.569322 -0.599834 0
M  V30 5608 H 512.03 0.510094 -1.61852 0
M  V30 5609 H 510.802 1.48879 -3.61871 0
M  V30 5610 H 510.425 2.92947 -2.68827 0
M  V30 5611 N 511.423 1.38739 0.74761 0
M  V30 5612 C 512.353 1.39173 1.87492 0
M  V30 5613 C 513.334 0.256794 1.6815 0
M  V30 5614 O 514.519 0.460762 1.88655 0
M  V30 5615 C 511.649 1.22197 3.25093 0
M  V30 5616 C 510.603 2.32957 3.59047 0
M  V30 5617 C 509.929 2.01082 4.95449 0
M  V30 5618 C 511.229 3.75237 3.6331 0
M  V30 5619 H 512.923 2.3351 1.87386 0
M  V30 5620 H 510.469 1.12399 0.900134 0
M  V30 5621 H 512.422 1.21124 4.03617 0
M  V30 5622 H 511.146 0.243241 3.25693 0
M  V30 5623 H 509.805 2.33226 2.82845 0
M  V30 5624 H 509.453 1.01678 4.92616 0
M  V30 5625 H 509.153 2.75267 5.19136 0
M  V30 5626 H 510.677 2.01638 5.76346 0
M  V30 5627 H 512.091 3.76966 4.31937 0
M  V30 5628 H 510.488 4.48677 3.98509 0
M  V30 5629 H 511.558 4.07122 2.634 0
M  V30 5630 N 512.901 -0.976442 1.23707 0
M  V30 5631 C 514.126 -1.75875 1.09922 0
M  V30 5632 C 514.551 -1.84911 -0.34489 0
M  V30 5633 O 513.909 -1.31363 -1.24954 0
M  V30 5634 C 513.957 -3.16179 1.73388 0
M  V30 5635 O 513.061 -4.00124 0.99871 0
M  V30 5636 H 512.402 -0.540954 0.385052 0
M  V30 5637 H 514.932 -1.22546 1.6384 0
M  V30 5638 H 514.942 -3.66741 1.78788 0
M  V30 5639 H 513.617 -3.08917 2.78466 0
M  V30 5640 H 512.194 -3.58624 1.02193 0
M  V30 5641 N 514.379 -1.04941 -1.1758 0
M  V30 5642 C 515.626 -0.757989 -1.87779 0
M  V30 5643 C 515.954 0.714827 -1.80888 0
M  V30 5644 O 515.209 1.53824 -1.20982 0
M  V30 5645 C 515.508 -1.18062 -3.37337 0
M  V30 5646 C 515.174 -2.65521 -3.6443 0
M  V30 5647 C 513.836 -3.05804 -3.71534 0
M  V30 5648 C 516.188 -3.60822 -3.76108 0
M  V30 5649 C 513.516 -4.40256 -3.87803 0
M  V30 5650 C 515.868 -4.95005 -3.93895 0
M  V30 5651 C 514.532 -5.34945 -3.99237 0
M  V30 5652 H 513.802 -0.277368 -0.68713 0
M  V30 5653 H 516.449 -1.31603 -1.39115 0
M  V30 5654 H 514.754 -0.541525 -3.8804 0
M  V30 5655 H 516.451 -0.932368 -3.9001 0
M  V30 5656 H 513.041 -2.33324 -3.59524 0
M  V30 5657 H 517.225 -3.30841 -3.69943 0
M  V30 5658 H 512.481 -4.70707 -3.90186 0
M  V30 5659 H 516.655 -5.68746 -4.01872 0
M  V30 5660 H 514.282 -6.39135 -4.11596 0
M  V30 5661 N 515.857 1.33968 -0.830081 0
M  V30 5662 C 516.805 2.31301 -0.245435 0
M  V30 5663 C 517.799 1.57734 0.617762 0
M  V30 5664 O 519.005 1.72674 0.508303 0
M  V30 5665 H 515.38 0.749552 -0.0606316 0
M  V30 5666 H 517.351 2.78129 -1.08105 0
M  V30 5667 C 516.1 3.42961 0.572084 0
M  V30 5668 H 515.423 3.99714 -0.0828118 0
M  V30 5669 H 516.863 4.13286 0.94715 0
M  V30 5670 C 515.322 2.88043 1.74737 0
M  V30 5671 O 515.852 2.83508 2.8458 0
M  V30 5672 N 514.058 2.44768 1.56642 0
M  V30 5673 H 513.605 2.48656 0.672901 0
M  V30 5674 H 513.563 2.08375 2.3543 0
M  V30 5675 N 517.335 0.585699 1.46312 0
M  V30 5676 C 518.582 0.0724211 2.0237 0
M  V30 5677 C 518.91 -1.28868 1.45683 0
M  V30 5678 O 518.165 -1.85853 0.612945 0
M  V30 5679 C 518.464 -0.0401312 3.57377 0
M  V30 5680 C 518.13 1.25376 4.33119 0
M  V30 5681 C 516.792 1.60824 4.5353 0
M  V30 5682 C 519.144 2.10987 4.76586 0
M  V30 5683 C 516.472 2.81676 5.14661 0
M  V30 5684 C 518.824 3.31068 5.39052 0
M  V30 5685 C 517.488 3.66794 5.5769 0
M  V30 5686 H 516.758 0.0265007 0.740526 0
M  V30 5687 H 519.405 0.762935 1.75646 0
M  V30 5688 H 517.71 -0.813791 3.83255 0
M  V30 5689 H 519.407 -0.453078 3.98432 0
M  V30 5690 H 515.997 0.967808 4.1753 0
M  V30 5691 H 520.181 1.84904 4.60569 0
M  V30 5692 H 515.437 3.0949 5.27282 0
M  V30 5693 H 519.611 3.97672 5.71691 0
M  V30 5694 H 517.238 4.60529 6.04828 0
M  V30 5695 N 518.813 -1.54241 0.323641 0
M  V30 5696 C 519.723 -2.28033 -0.551205 0
M  V30 5697 C 520.739 -1.32388 -1.12913 0
M  V30 5698 O 521.915 -1.65403 -1.14908 0
M  V30 5699 C 518.98 -3.02382 -1.69606 0
M  V30 5700 C 518.041 -4.13612 -1.14993 0
M  V30 5701 C 517.274 -4.84407 -2.24022 0
M  V30 5702 O 517.497 -4.54716 -3.44368 0
M  V30 5703 O 516.431 -5.71312 -1.89436 0
M  V30 5704 H 520.257 -3.03662 0.048066 0
M  V30 5705 H 517.842 -1.49133 0.0893289 0
M  V30 5706 H 519.724 -3.48941 -2.36259 0
M  V30 5707 H 518.399 -2.29628 -2.28151 0
M  V30 5708 H 517.306 -3.71402 -0.448484 0
M  V30 5709 H 518.639 -4.8841 -0.609608 0
M  V30 5710 N 520.291 -0.0518155 -1.57515 0
M  V30 5711 C 521.221 0.920283 -2.146 0
M  V30 5712 C 522.202 1.32406 -1.06783 0
M  V30 5713 O 523.387 1.39866 -1.34726 0
M  V30 5714 C 520.517 2.1949 -2.6915 0
M  V30 5715 C 519.471 1.93116 -3.81956 0
M  V30 5716 C 518.797 3.27037 -4.23026 0
M  V30 5717 C 520.097 1.25225 -5.07066 0
M  V30 5718 H 521.791 0.444801 -2.96077 0
M  V30 5719 H 519.337 0.212508 -1.42423 0
M  V30 5720 H 521.29 2.87894 -3.07725 0
M  V30 5721 H 520.014 2.69244 -1.84865 0
M  V30 5722 H 518.673 1.27123 -3.43854 0
M  V30 5723 H 518.321 3.74595 -3.3569 0
M  V30 5724 H 518.021 3.10189 -4.99056 0
M  V30 5725 H 519.545 3.96673 -4.64202 0
M  V30 5726 H 520.959 1.83666 -5.43083 0
M  V30 5727 H 519.356 1.18702 -5.88243 0
M  V30 5728 H 520.426 0.228382 -4.84362 0
M  V30 5729 N 521.769 1.56035 0.221574 0
M  V30 5730 C 522.701 1.889 1.29805 0
M  V30 5731 C 523.714 0.777269 1.43047 0
M  V30 5732 O 524.903 1.05557 1.43945 0
M  V30 5733 C 522.003 2.0825 2.67367 0
M  V30 5734 C 521.176 3.39267 2.76073 0
M  V30 5735 C 520.235 3.48049 3.94649 0
M  V30 5736 O 519.261 4.2108 3.82988 0
M  V30 5737 N 520.463 2.79191 5.08953 0
M  V30 5738 H 523.228 2.81831 1.01938 0
M  V30 5739 H 520.789 1.5658 0.411612 0
M  V30 5740 H 522.781 2.11441 3.45072 0
M  V30 5741 H 521.351 1.21944 2.87834 0
M  V30 5742 H 520.571 3.48175 1.84846 0
M  V30 5743 H 521.859 4.25575 2.7886 0
M  V30 5744 H 521.257 2.19635 5.21322 0
M  V30 5745 H 519.814 2.88043 5.84701 0
M  V30 5746 N 523.247 -0.488276 1.49845 0
M  V30 5747 C 524.493 -1.24341 1.6021 0
M  V30 5748 C 524.826 -1.91967 0.293651 0
M  V30 5749 O 524.101 -1.81323 -0.703718 0
M  V30 5750 C 524.384 -2.3005 2.77036 0
M  V30 5751 C 524.237 -1.66842 4.17713 0
M  V30 5752 C 525.556 -3.31509 2.89464 0
M  V30 5753 H 522.675 -0.450704 0.583125 0
M  V30 5754 H 525.317 -0.539673 1.82174 0
M  V30 5755 H 523.467 -2.90071 2.58439 0
M  V30 5756 H 525.139 -1.1055 4.47858 0
M  V30 5757 H 523.382 -0.972079 4.22768 0
M  V30 5758 H 524.053 -2.43576 4.95353 0
M  V30 5759 H 526.529 -2.81493 3.06433 0
M  V30 5760 H 525.405 -4.02822 3.72861 0
M  V30 5761 H 525.666 -3.94603 1.99351 0
M  V30 5762 N 524.725 -1.39134 -0.740242 0
M  V30 5763 C 525.955 -1.39132 -1.52728 0
M  V30 5764 C 526.363 0.0173133 -1.89192 0
M  V30 5765 O 525.706 0.997715 -1.54244 0
M  V30 5766 C 525.768 -2.1952 -2.84695 0
M  V30 5767 C 525.432 -3.68203 -2.70695 0
M  V30 5768 C 526.429 -4.61401 -2.39593 0
M  V30 5769 C 524.114 -4.11724 -2.8773 0
M  V30 5770 C 526.108 -5.96102 -2.25701 0
M  V30 5771 C 523.795 -5.46503 -2.73456 0
M  V30 5772 C 524.793 -6.38506 -2.42486 0
M  V30 5773 O 524.481 -7.70803 -2.28295 0
M  V30 5774 H 524.213 -0.477263 -0.478744 0
M  V30 5775 H 526.767 -1.83504 -0.922799 0
M  V30 5776 H 524.997 -1.69888 -3.47383 0
M  V30 5777 H 526.686 -2.1176 -3.46284 0
M  V30 5778 H 527.452 -4.29079 -2.26088 0
M  V30 5779 H 523.331 -3.4045 -3.10829 0
M  V30 5780 H 526.875 -6.6788 -2.0145 0
M  V30 5781 H 522.772 -5.78417 -2.86538 0
M  V30 5782 H 523.54 -7.8147 -2.43405 0
M  V30 5783 N 526.204 0.969867 -1.24223 0
M  V30 5784 C 527.62 1.23809 -1.00716 0
M  V30 5785 C 527.82 1.99469 0.285358 0
M  V30 5786 O 526.876 2.31764 1.00207 0
M  V30 5787 C 528.189 2.02734 -2.2208 0
M  V30 5788 C 529.737 2.15834 -2.26681 0
M  V30 5789 C 530.212 2.98154 -3.47661 0
M  V30 5790 N 531.703 3.05737 -3.47964 0
M  V30 5791 C 532.438 3.69785 -4.38231 0
M  V30 5792 N 531.934 4.35569 -5.3875 0
M  V30 5793 N 533.727 3.66775 -4.25949 0
M  V30 5794 H 525.878 0.463294 -2.07286 0
M  V30 5795 H 528.141 0.267348 -0.909521 0
M  V30 5796 H 527.847 1.54524 -3.15935 0
M  V30 5797 H 527.721 3.0347 -2.24021 0
M  V30 5798 H 530.108 2.63248 -1.33359 0
M  V30 5799 H 530.189 1.14453 -2.28767 0
M  V30 5800 H 529.833 2.51435 -4.41297 0
M  V30 5801 H 529.763 3.99729 -3.42818 0
M  V30 5802 H 532.254 2.58941 -2.75242 0
M  V30 5803 H 532.567 4.82251 -6.03866 0
M  V30 5804 H 530.912 4.34244 -5.42639 0
M  V30 5805 H 534.103 3.14558 -3.46657 0
M  V30 5806 H 534.276 4.16407 -4.96497 0
M  V30 5807 N 527.682 1.05563 1.17022 0
M  V30 5808 C 528.645 0.664098 2.19368 0
M  V30 5809 C 529.645 -0.286358 1.5823 0
M  V30 5810 O 530.835 -0.069728 1.7406 0
M  V30 5811 C 527.967 -0.0239932 3.40892 0
M  V30 5812 H 529.16 1.57 2.55521 0
M  V30 5813 H 526.713 0.849964 1.31169 0
M  V30 5814 H 527.448 -0.942988 3.10287 0
M  V30 5815 H 527.233 0.659351 3.86516 0
M  V30 5816 H 528.723 -0.283909 4.16634 0
M  V30 5817 N 529.16 -1.33526 0.837174 0
M  V30 5818 C 530.385 -2.0258 0.444545 0
M  V30 5819 C 530.81 -1.6258 -0.946006 0
M  V30 5820 O 530.168 -0.817548 -1.6182 0
M  V30 5821 C 530.216 -3.5605 0.571006 0
M  V30 5822 O 529.32 -4.10422 -0.403431 0
M  V30 5823 H 528.661 -0.638866 0.180958 0
M  V30 5824 H 531.191 -1.70462 1.13154 0
M  V30 5825 H 531.201 -4.05488 0.452024 0
M  V30 5826 H 529.876 -3.84509 1.58512 0
M  V30 5827 H 528.453 -3.72113 -0.242147 0
M  V30 5828 N 530.638 -0.59345 -1.46 0
M  V30 5829 C 531.571 0.182196 -2.27472 0
M  V30 5830 C 532.549 0.886901 -1.36282 0
M  V30 5831 O 533.733 0.898627 -1.65701 0
M  V30 5832 C 530.86 1.26236 -3.14296 0
M  V30 5833 C 529.906 0.662331 -4.21326 0
M  V30 5834 S 530.739 -0.519017 -5.32979 0
M  V30 5835 C 531.895 0.562086 -6.23371 0
M  V30 5836 H 532.128 -0.509056 -2.92909 0
M  V30 5837 H 529.661 -0.380607 -1.49635 0
M  V30 5838 H 531.619 1.88075 -3.64881 0
M  V30 5839 H 530.28 1.92562 -2.48151 0
M  V30 5840 H 529.473 1.47461 -4.81945 0
M  V30 5841 H 529.075 0.119381 -3.73809 0
M  V30 5842 H 531.367 1.44494 -6.61912 0
M  V30 5843 H 532.31 -0.00760776 -7.081 0
M  V30 5844 H 532.718 0.871061 -5.57739 0
M  V30 5845 N 532.116 1.54067 -0.331816 0
M  V30 5846 C 533.064 2.26105 0.54582 0
M  V30 5847 C 534.058 1.27816 1.11173 0
M  V30 5848 O 535.264 1.45565 1.05882 0
M  V30 5849 H 531.639 0.726363 0.194683 0
M  V30 5850 H 533.61 2.98282 -0.083931 0
M  V30 5851 C 532.359 3.03814 1.69092 0
M  V30 5852 H 531.682 3.79269 1.26473 0
M  V30 5853 H 533.122 3.57453 2.28043 0
M  V30 5854 C 531.581 2.12606 2.61343 0
M  V30 5855 O 532.111 1.71437 3.6328 0
M  V30 5856 N 530.317 1.77925 2.29763 0
M  V30 5857 H 529.864 2.11602 1.46909 0
M  V30 5858 H 529.822 1.1718 2.91747 0
M  V30 5859 N 533.594 0.0601682 1.57485 0
M  V30 5860 C 534.524 -0.90889 2.15085 0
M  V30 5861 C 535.505 -1.31838 1.07484 0
M  V30 5862 O 536.69 -1.3915 1.35466 0
M  V30 5863 C 533.82 -2.18059 2.7031 0
M  V30 5864 C 532.774 -1.91088 3.82974 0
M  V30 5865 C 532.1 -3.24789 4.24754 0
M  V30 5866 C 533.4 -1.22535 5.07723 0
M  V30 5867 H 535.094 -0.429093 2.96309 0
M  V30 5868 H 532.64 -0.204952 1.42534 0
M  V30 5869 H 534.593 -2.86258 3.09248 0
M  V30 5870 H 533.317 -2.6826 1.8629 0
M  V30 5871 H 531.976 -1.25297 3.44523 0
M  V30 5872 H 531.624 -3.72809 3.37672 0
M  V30 5873 H 531.324 -3.07538 5.00694 0
M  V30 5874 H 532.848 -3.94205 4.66299 0
M  V30 5875 H 534.262 -1.80783 5.4405 0
M  V30 5876 H 532.659 -1.1558 5.88864 0
M  V30 5877 H 533.729 -0.202692 4.84476 0
M  V30 5878 N 535.072 -1.5615 -0.213296 0
M  V30 5879 C 536.297 -1.83986 -0.957282 0
M  V30 5880 C 536.722 -0.641526 -1.76822 0
M  V30 5881 O 536.08 0.409722 -1.7661 0
M  V30 5882 C 536.128 -3.09889 -1.84393 0
M  V30 5883 O 535.232 -2.89163 -2.94038 0
M  V30 5884 H 534.573 -0.606357 -0.270605 0
M  V30 5885 H 537.103 -2.03369 -0.224111 0
M  V30 5886 H 537.113 -3.40209 -2.25215 0
M  V30 5887 H 535.788 -3.96735 -1.24795 0
M  V30 5888 H 534.365 -2.70097 -2.57103 0
M  V30 5889 N 536.55 0.480323 -1.50102 0
M  V30 5890 C 537.482 1.59669 -1.64433 0
M  V30 5891 C 538.495 1.54063 -0.52615 0
M  V30 5892 O 539.684 1.59619 -0.798992 0
M  V30 5893 C 536.784 2.98527 -1.6042 0
M  V30 5894 C 535.957 3.291 -2.88117 0
M  V30 5895 C 535.016 4.47468 -2.76873 0
M  V30 5896 O 534.042 4.4823 -3.50825 0
M  V30 5897 N 535.244 5.48593 -1.89806 0
M  V30 5898 H 538.009 1.47795 -2.60723 0
M  V30 5899 H 535.57 0.66858 -1.4745 0
M  V30 5900 H 537.562 3.75666 -1.50523 0
M  V30 5901 H 536.132 3.04218 -0.719036 0
M  V30 5902 H 535.352 2.40662 -3.12211 0
M  V30 5903 H 536.64 3.46334 -3.72734 0
M  V30 5904 H 536.038 5.50791 -1.2902 0
M  V30 5905 H 534.595 6.24752 -1.85819 0
M  V30 5906 N 538.028 1.39524 0.732853 0
M  V30 5907 C 538.991 1.38189 1.82857 0
M  V30 5908 C 539.991 0.278624 1.58368 0
M  V30 5909 O 541.181 0.536639 1.65728 0
M  V30 5910 C 538.313 1.15661 3.2068 0
M  V30 5911 H 539.506 2.35692 1.85444 0
M  V30 5912 H 537.059 1.2512 0.936728 0
M  V30 5913 H 537.794 0.188482 3.23752 0
M  V30 5914 H 537.579 1.95559 3.39852 0
M  V30 5915 H 539.069 1.17472 4.00737 0
M  V30 5916 N 539.506 -0.963266 1.24736 0
M  V30 5917 C 540.753 -1.7068 1.0897 0
M  V30 5918 C 541.081 -1.90934 -0.370751 0
M  V30 5919 O 540.336 -1.47155 -1.29011 0
M  V30 5920 C 540.635 -3.09944 1.7796 0
M  V30 5921 C 540.301 -3.09518 3.27887 0
M  V30 5922 C 538.963 -3.09109 3.68789 0
M  V30 5923 C 541.315 -3.03509 4.23712 0
M  V30 5924 C 538.643 -3.00429 5.03944 0
M  V30 5925 C 540.995 -2.96371 5.5888 0
M  V30 5926 C 539.659 -2.94293 5.99123 0
M  V30 5927 H 538.929 -0.624564 0.398749 0
M  V30 5928 H 541.576 -1.12603 1.54896 0
M  V30 5929 H 539.881 -3.71513 1.2444 0
M  V30 5930 H 541.578 -3.66278 1.63222 0
M  V30 5931 H 538.168 -3.10603 2.95337 0
M  V30 5932 H 542.352 -3.0295 3.93109 0
M  V30 5933 H 537.608 -2.97183 5.34314 0
M  V30 5934 H 541.782 -2.90681 6.32833 0
M  V30 5935 H 539.409 -2.87322 7.03811 0
M  V30 5936 N 540.985 -1.06182 -1.16461 0
M  V30 5937 C 542.21 -0.798599 -1.91408 0
M  V30 5938 C 542.635 0.640987 -1.76842 0
M  V30 5939 O 541.993 1.44652 -1.09296 0
M  V30 5940 C 542.041 -1.19665 -3.40165 0
M  V30 5941 O 541.145 -0.334768 -4.11039 0
M  V30 5942 H 540.486 -0.291961 -0.596368 0
M  V30 5943 H 543.016 -1.41732 -1.47557 0
M  V30 5944 H 543.026 -1.16772 -3.90933 0
M  V30 5945 H 541.701 -2.24526 -3.50087 0
M  V30 5946 H 540.278 -0.425168 -3.70468 0
M  V30 5947 N 542.463 1.3308 -0.844243 0
M  V30 5948 C 543.688 2.02341 -0.455282 0
M  V30 5949 C 544.113 1.6308 0.93737 0
M  V30 5950 O 543.471 0.826118 1.61385 0
M  V30 5951 C 543.519 3.55743 -0.58988 0
M  V30 5952 O 542.623 4.1063 0.38166 0
M  V30 5953 H 541.964 0.637898 -0.184343 0
M  V30 5954 H 544.494 1.6986 -1.14056 0
M  V30 5955 H 544.504 4.05243 -0.473522 0
M  V30 5956 H 543.179 3.83662 -1.60549 0
M  V30 5957 H 541.756 3.72236 0.22241 0
M  V30 5958 N 543.941 0.601185 1.45683 0
M  V30 5959 C 544.871 -0.108824 2.33246 0
M  V30 5960 C 545.852 -0.865223 1.46451 0
M  V30 5961 O 547.037 -0.83704 1.75235 0
M  V30 5962 C 544.167 -1.11101 3.2905 0
M  V30 5963 C 543.121 -0.468244 4.25431 0
M  V30 5964 C 542.447 -1.57822 5.10878 0
M  V30 5965 C 543.747 0.606469 5.18767 0
M  V30 5966 H 545.441 0.622306 2.92861 0
M  V30 5967 H 542.987 0.300714 1.40825 0
M  V30 5968 H 544.94 -1.61622 3.89174 0
M  V30 5969 H 543.664 -1.87265 2.67581 0
M  V30 5970 H 542.323 0.0160484 3.66596 0
M  V30 5971 H 541.971 -2.32998 4.45781 0
M  V30 5972 H 541.671 -1.15369 5.76163 0
M  V30 5973 H 543.195 -2.08583 5.73869 0
M  V30 5974 H 544.609 0.185589 5.73 0
M  V30 5975 H 543.006 0.952381 5.92494 0
M  V30 5976 H 544.076 1.48559 4.61582 0
M  V30 5977 N 545.419 -1.53889 0.339982 0
M  V30 5978 C 546.366 -2.24902 -0.518452 0
M  V30 5979 C 547.336 -1.24593 -1.09844 0
M  V30 5980 O 548.521 -1.53317 -1.13572 0
M  V30 5981 C 545.661 -3.02262 -1.66529 0
M  V30 5982 C 544.774 -4.17418 -1.11295 0
M  V30 5983 C 543.909 -4.82273 -2.2268 0
M  V30 5984 C 542.948 -5.89503 -1.6478 0
M  V30 5985 N 542.085 -6.48153 -2.69893 0
M  V30 5986 H 546.925 -2.97853 0.0936579 0
M  V30 5987 H 544.462 -1.46986 0.0579924 0
M  V30 5988 H 546.42 -3.45371 -2.3404 0
M  V30 5989 H 545.05 -2.31614 -2.24844 0
M  V30 5990 H 544.102 -3.78976 -0.328886 0
M  V30 5991 H 545.414 -4.94554 -0.649414 0
M  V30 5992 H 544.568 -5.28435 -2.98063 0
M  V30 5993 H 543.307 -4.04552 -2.72376 0
M  V30 5994 H 542.312 -5.42728 -0.879004 0
M  V30 5995 H 543.537 -6.6913 -1.1594 0
M  V30 5996 H 541.483 -5.73298 -3.1885 0
M  V30 5997 H 541.4 -7.20752 -2.28151 0
M  V30 5998 H 542.668 -6.98968 -3.45056 0
M  V30 5999 N 546.897 -0.0685191 -1.57451 0
M  V30 6000 C 548.122 0.613919 -1.98106 0
M  V30 6001 C 548.547 1.62551 -0.946501 0
M  V30 6002 O 547.905 1.81085 0.0882824 0
M  V30 6003 C 547.953 1.26189 -3.378 0
M  V30 6004 O 547.057 2.37773 -3.36954 0
M  V30 6005 H 546.398 0.158163 -0.644888 0
M  V30 6006 H 548.928 -0.142063 -2.04106 0
M  V30 6007 H 548.938 1.60951 -3.74912 0
M  V30 6008 H 547.613 0.520625 -4.12629 0
M  V30 6009 H 546.19 2.04829 -3.11608 0
M  V30 6010 N 548.375 1.56261 0.205012 0
M  V30 6011 C 549.305 1.96779 1.257 0
M  V30 6012 C 550.286 0.838309 1.48008 0
M  V30 6013 O 551.471 1.10189 1.59913 0
M  V30 6014 C 548.601 2.29876 2.60335 0
M  V30 6015 C 547.555 3.45469 2.52656 0
M  V30 6016 C 546.881 3.64215 3.91473 0
M  V30 6017 C 548.181 4.79954 2.06014 0
M  V30 6018 H 549.875 2.84904 0.920338 0
M  V30 6019 H 547.421 1.37072 0.441277 0
M  V30 6020 H 549.374 2.56814 3.34102 0
M  V30 6021 H 548.098 1.38622 2.95722 0
M  V30 6022 H 546.757 3.18605 1.81345 0
M  V30 6023 H 546.405 2.70309 4.24196 0
M  V30 6024 H 546.105 4.41973 3.87213 0
M  V30 6025 H 547.629 3.93519 4.66878 0
M  V30 6026 H 549.043 5.05989 2.69533 0
M  V30 6027 H 547.44 5.61111 2.12777 0
M  V30 6028 H 548.51 4.74201 1.01297 0
M  V30 6029 N 549.853 -0.472356 1.50355 0
M  V30 6030 C 550.8 -1.57051 1.69126 0
M  V30 6031 C 551.77 -1.5733 0.532574 0
M  V30 6032 O 552.955 -1.7488 0.762994 0
M  V30 6033 C 550.095 -2.95033 1.79024 0
M  V30 6034 C 549.208 -3.04552 3.06386 0
M  V30 6035 C 548.343 -4.33441 3.07087 0
M  V30 6036 C 547.382 -4.36697 4.28908 0
M  V30 6037 N 546.519 -5.57056 4.27356 0
M  V30 6038 H 551.359 -1.40351 2.62879 0
M  V30 6039 H 548.896 -0.682403 1.30314 0
M  V30 6040 H 550.854 -3.75048 1.82744 0
M  V30 6041 H 549.484 -3.10371 0.887109 0
M  V30 6042 H 548.536 -2.17419 3.12143 0
M  V30 6043 H 549.848 -3.02818 3.96362 0
M  V30 6044 H 549.002 -5.21801 3.09529 0
M  V30 6045 H 547.741 -4.37782 2.14939 0
M  V30 6046 H 546.746 -3.46734 4.2668 0
M  V30 6047 H 547.971 -4.34049 5.22282 0
M  V30 6048 H 545.917 -5.62184 3.3806 0
M  V30 6049 H 545.834 -5.57058 5.111 0
M  V30 6050 H 547.102 -6.47545 4.33942 0
M  V30 6051 N 551.331 -1.39911 -0.725443 0
M  V30 6052 C 552.58 -1.36963 -1.48068 0
M  V30 6053 C 552.893 0.0284478 -1.95579 0
M  V30 6054 O 554.099 0.180535 -2.70899 0
M  V30 6055 C 552.555 -2.40664 -2.67598 0
M  V30 6056 C 552.163 -3.86234 -2.26997 0
M  V30 6057 C 553.907 -2.46807 -3.45379 0
M  V30 6058 C 551.814 -4.81554 -3.43307 0
M  V30 6059 H 550.744 -0.509223 -0.556065 0
M  V30 6060 H 553.395 -1.65602 -0.790454 0
M  V30 6061 H 551.777 -2.05109 -3.38742 0
M  V30 6062 H 552.951 -4.3088 -1.63337 0
M  V30 6063 H 551.266 -3.83475 -1.62284 0
M  V30 6064 H 553.863 -3.15213 -4.31909 0
M  V30 6065 H 554.206 -1.49552 -3.8851 0
M  V30 6066 H 554.739 -2.81303 -2.81271 0
M  V30 6067 H 551.478 -5.80106 -3.05217 0
M  V30 6068 H 550.998 -4.4158 -4.05915 0
M  V30 6069 H 552.677 -5.0091 -4.0951 0
M  V30 6070 N 552.809 0.956637 -1.25245 0
M  V30 6071 C 553.739 2.07058 -1.07931 0
M  V30 6072 C 554.72 1.70096 0.0110361 0
M  V30 6073 O 555.905 1.93555 -0.158121 0
M  V30 6074 C 553.035 3.40272 -0.695124 0
M  V30 6075 C 551.989 3.91235 -1.73549 0
M  V30 6076 C 551.315 5.20921 -1.20604 0
M  V30 6077 C 552.615 4.17837 -3.13385 0
M  V30 6078 H 554.309 2.218 -2.01109 0
M  V30 6079 H 551.855 1.06581 -0.968326 0
M  V30 6080 H 553.808 4.1765 -0.560949 0
M  V30 6081 H 552.532 3.25462 0.272355 0
M  V30 6082 H 551.191 3.16025 -1.85807 0
M  V30 6083 H 550.839 5.02479 -0.228846 0
M  V30 6084 H 550.539 5.55987 -1.90136 0
M  V30 6085 H 552.063 6.00897 -1.08421 0
M  V30 6086 H 553.477 4.8588 -3.04292 0
M  V30 6087 H 551.874 4.64154 -3.80369 0
M  V30 6088 H 552.944 3.2419 -3.60595 0
M  V30 6089 N 554.287 1.06798 1.15896 0
M  V30 6090 C 555.703 0.792423 1.38538 0
M  V30 6091 C 555.903 -0.60592 1.92174 0
M  V30 6092 O 554.959 -1.36561 2.12385 0
M  V30 6093 C 556.272 1.86157 2.36149 0
M  V30 6094 C 557.82 1.88567 2.49823 0
M  V30 6095 C 558.295 2.9455 3.5072 0
M  V30 6096 N 559.786 2.93616 3.58251 0
M  V30 6097 C 560.521 3.72267 4.36125 0
M  V30 6098 N 560.017 4.60751 5.17379 0
M  V30 6099 N 561.81 3.60637 4.31158 0
M  V30 6100 H 553.961 1.96993 0.794198 0
M  V30 6101 H 556.224 0.853942 0.411688 0
M  V30 6102 H 555.93 2.86603 2.03843 0
M  V30 6103 H 555.804 1.71692 3.3586 0
M  V30 6104 H 558.191 0.887765 2.8143 0
M  V30 6105 H 558.272 2.0711 1.5013 0
M  V30 6106 H 557.916 3.94537 3.19849 0
M  V30 6107 H 557.846 2.73255 4.50155 0
M  V30 6108 H 560.337 2.29472 3.00252 0
M  V30 6109 H 560.65 5.17408 5.74028 0
M  V30 6110 H 558.995 4.64803 5.16704 0
M  V30 6111 H 562.186 2.90892 3.66742 0
M  V30 6112 H 562.359 4.22176 4.91601 0
M  V30 6113 N 555.766 -1.3263 0.851289 0
M  V30 6114 C 557.015 -1.96633 0.449267 0
M  V30 6115 C 557.328 -1.68131 -0.999562 0
M  V30 6116 O 558.534 -2.25845 -1.50685 0
M  V30 6117 C 556.99 -3.51946 0.752446 0
M  V30 6118 C 556.598 -3.89311 2.21678 0
M  V30 6119 C 558.342 -4.22437 0.417983 0
M  V30 6120 C 556.249 -5.37655 2.46336 0
M  V30 6121 H 555.179 -0.735888 0.164269 0
M  V30 6122 H 557.83 -1.51073 1.0416 0
M  V30 6123 H 556.212 -3.95899 0.0895858 0
M  V30 6124 H 557.386 -3.56378 2.92115 0
M  V30 6125 H 555.701 -3.31836 2.51543 0
M  V30 6126 H 558.298 -5.31549 0.579674 0
M  V30 6127 H 558.641 -4.11349 -0.640115 0
M  V30 6128 H 559.174 -3.84057 1.03659 0
M  V30 6129 H 555.913 -5.5376 3.50757 0
M  V30 6130 H 555.433 -5.72005 1.80473 0
M  V30 6131 H 557.112 -6.04695 2.30115 0
M  V30 6132 N 557.244 -0.608902 -1.45362 0
M  V30 6133 C 558.66 -0.272659 -1.57254 0
M  V30 6134 C 558.86 1.22477 -1.60005 0
M  V30 6135 O 557.916 2.00785 -1.53106 0
M  V30 6136 C 559.229 -0.944991 -2.85465 0
M  V30 6137 C 560.777 -0.921033 -2.99142 0
M  V30 6138 C 561.252 -1.5734 -4.30126 0
M  V30 6139 N 562.743 -1.53895 -4.36887 0
M  V30 6140 C 563.478 -2.01286 -5.36909 0
M  V30 6141 N 562.974 -2.56768 -6.43461 0
M  V30 6142 N 564.767 -1.92046 -5.28275 0
M  V30 6143 H 556.918 -1.58117 -1.4182 0
M  V30 6144 H 559.181 -0.662437 -0.678146 0
M  V30 6145 H 558.887 -1.99941 -2.89338 0
M  V30 6146 H 558.761 -0.469079 -3.74272 0
M  V30 6147 H 561.148 0.124846 -2.94836 0
M  V30 6148 H 561.229 -1.43522 -2.11743 0
M  V30 6149 H 560.873 -2.61862 -4.35191 0
M  V30 6150 H 560.803 -1.03422 -5.16344 0
M  V30 6151 H 563.294 -1.13366 -3.60495 0
M  V30 6152 H 563.607 -2.9072 -7.16032 0
M  V30 6153 H 561.952 -2.60808 -6.44208 0
M  V30 6154 H 565.143 -1.48439 -4.43941 0
M  V30 6155 H 565.316 -2.29293 -6.06077 0
M  V30 6156 N 558.722 1.53707 -0.348139 0
M  V30 6157 C 559.97 2.00591 0.246478 0
M  V30 6158 C 560.291 1.23753 1.50699 0
M  V30 6159 O 559.561 0.345964 1.92821 0
M  V30 6160 H 558.141 0.741053 0.0940679 0
M  V30 6161 H 560.803 1.89139 -0.470354 0
M  V30 6162 H 559.899 3.08297 0.485714 0
M  V30 6163 N 560.2 0.0768682 1.57412 0
M  V30 6164 C 561.43 -0.5991 1.97723 0
M  V30 6165 C 561.838 -1.63378 0.954166 0
M  V30 6166 O 561.181 -1.83578 -0.0668706 0
M  V30 6167 C 561.243 -1.32078 3.34358 0
M  V30 6168 C 560.907 -0.438985 4.54887 0
M  V30 6169 C 561.904 0.305492 5.19002 0
M  V30 6170 C 559.589 -0.362378 5.00991 0
M  V30 6171 C 561.583 1.11475 6.27576 0
M  V30 6172 C 559.27 0.450543 6.09437 0
M  V30 6173 C 560.268 1.18777 6.72593 0
M  V30 6174 O 559.956 1.98727 7.7895 0
M  V30 6175 H 559.688 -0.166725 0.655117 0
M  V30 6176 H 562.242 0.147337 2.04871 0
M  V30 6177 H 560.472 -2.1134 3.2384 0
M  V30 6178 H 562.161 -1.88949 3.5924 0
M  V30 6179 H 562.927 0.25593 4.84324 0
M  V30 6180 H 558.806 -0.925832 4.51608 0
M  V30 6181 H 562.35 1.69068 6.76803 0
M  V30 6182 H 558.247 0.501651 6.43548 0
M  V30 6183 H 559.015 1.91214 7.95851 0
M  V30 6184 N 561.678 -1.56367 -0.196722 0
M  V30 6185 C 562.924 -1.80796 -0.918725 0
M  V30 6186 C 563.257 -0.650645 -1.82976 0
M  V30 6187 O 562.532 0.348889 -1.91345 0
M  V30 6188 C 562.815 -3.15472 -1.73636 0
M  V30 6189 C 562.668 -4.41693 -0.85015 0
M  V30 6190 C 563.987 -3.46824 -2.70927 0
M  V30 6191 H 561.106 -0.657702 -0.332561 0
M  V30 6192 H 563.748 -1.89086 -0.186186 0
M  V30 6193 H 561.898 -3.08536 -2.36088 0
M  V30 6194 H 563.57 -4.60673 -0.240459 0
M  V30 6195 H 561.813 -4.33517 -0.156785 0
M  V30 6196 H 562.484 -5.32419 -1.45719 0
M  V30 6197 H 564.96 -3.54049 -2.18607 0
M  V30 6198 H 563.836 -4.4218 -3.25219 0
M  V30 6199 H 564.097 -2.70236 -3.49893 0
M  V30 6200 N 563.156 0.464375 -1.50603 0
M  V30 6201 C 564.403 1.21596 -1.61928 0
M  V30 6202 C 564.731 1.91804 -0.322737 0
M  V30 6203 O 563.986 1.83065 0.691776 0
M  V30 6204 C 564.285 2.278 -2.75394 0
M  V30 6205 C 563.951 1.74797 -4.1564 0
M  V30 6206 C 562.613 1.60063 -4.53799 0
M  V30 6207 C 564.965 1.35548 -5.03266 0
M  V30 6208 C 562.293 1.04514 -5.77316 0
M  V30 6209 C 564.645 0.814381 -6.27336 0
M  V30 6210 C 563.309 0.653726 -6.64291 0
M  V30 6211 H 562.579 0.444951 -0.592536 0
M  V30 6212 H 565.226 0.510964 -1.84557 0
M  V30 6213 H 563.531 3.04233 -2.46879 0
M  V30 6214 H 565.228 2.85723 -2.81359 0
M  V30 6215 H 561.818 1.87234 -3.8554 0
M  V30 6216 H 566.002 1.45763 -4.74412 0
M  V30 6217 H 561.258 0.908186 -6.04617 0
M  V30 6218 H 565.432 0.501626 -6.94591 0
M  V30 6219 H 563.059 0.22114 -7.59878 0
M  V30 6220 N 564.634 1.40294 0.718013 0
M  V30 6221 C 565.581 1.40367 1.8321 0
M  V30 6222 C 566.551 0.260952 1.64037 0
M  V30 6223 O 567.736 0.458648 1.85205 0
M  V30 6224 C 564.876 1.26965 3.20895 0
M  V30 6225 C 563.989 2.50922 3.51656 0
M  V30 6226 C 563.124 2.29981 4.78834 0
M  V30 6227 C 562.163 3.49527 5.02491 0
M  V30 6228 N 561.3 3.27796 6.20882 0
M  V30 6229 H 566.14 2.35593 1.82482 0
M  V30 6230 H 563.677 1.17012 0.891444 0
M  V30 6231 H 565.635 1.17202 4.00399 0
M  V30 6232 H 564.265 0.353591 3.20858 0
M  V30 6233 H 563.317 2.71223 2.66725 0
M  V30 6234 H 564.629 3.39913 3.65048 0
M  V30 6235 H 563.783 2.17558 5.66351 0
M  V30 6236 H 562.522 1.38411 4.67647 0
M  V30 6237 H 561.527 3.6243 4.1343 0
M  V30 6238 H 562.752 4.42021 5.15553 0
M  V30 6239 H 560.698 2.38906 6.1095 0
M  V30 6240 H 560.615 4.10351 6.34939 0
M  V30 6241 H 561.883 3.19101 7.11193 0
M  V30 6242 N 566.112 -0.949982 1.2575 0
M  V30 6243 C 567.022 -2.08109 1.08295 0
M  V30 6244 C 568.038 -1.7399 0.0188181 0
M  V30 6245 O 569.214 -2.00187 0.220724 0
M  V30 6246 C 566.279 -3.39383 0.708534 0
M  V30 6247 C 565.34 -3.8734 1.85111 0
M  V30 6248 C 564.573 -5.12349 1.49447 0
M  V30 6249 O 564.796 -5.6905 0.392212 0
M  V30 6250 O 563.73 -5.5513 2.32624 0
M  V30 6251 H 567.556 -2.25738 2.03165 0
M  V30 6252 H 565.141 -1.06545 1.04731 0
M  V30 6253 H 567.023 -4.18277 0.512061 0
M  V30 6254 H 565.698 -3.23013 -0.210854 0
M  V30 6255 H 564.605 -3.09429 2.10248 0
M  V30 6256 H 565.938 -4.08216 2.74991 0
M  V30 6257 N 567.59 -1.07411 -1.15328 0
M  V30 6258 C 568.52 -0.716472 -2.22236 0
M  V30 6259 C 569.501 0.296373 -1.67498 0
M  V30 6260 O 570.686 0.168989 -1.93463 0
M  V30 6261 C 567.816 -0.114142 -3.47112 0
M  V30 6262 C 566.77 -1.05421 -4.14814 0
M  V30 6263 C 566.096 -0.314604 -5.33774 0
M  V30 6264 C 567.396 -2.38808 -4.64508 0
M  V30 6265 H 569.09 -1.61029 -2.52408 0
M  V30 6266 H 566.636 -0.775702 -1.21321 0
M  V30 6267 H 568.589 0.148001 -4.2114 0
M  V30 6268 H 567.313 0.814755 -3.16274 0
M  V30 6269 H 565.972 -1.30128 -3.42728 0
M  V30 6270 H 565.62 0.617772 -4.99192 0
M  V30 6271 H 565.32 -0.941209 -5.80013 0
M  V30 6272 H 566.844 -0.0602747 -6.1057 0
M  V30 6273 H 568.258 -2.18424 -5.3006 0
M  V30 6274 H 566.655 -2.97069 -5.21412 0
M  V30 6275 H 567.725 -3.01067 -3.80114 0
M  V30 6276 N 569.068 1.32177 -0.85831 0
M  V30 6277 C 570.015 2.28794 -0.303607 0
M  V30 6278 C 570.985 1.55213 0.591453 0
M  V30 6279 O 572.17 1.83418 0.525585 0
M  V30 6280 C 569.31 3.41475 0.49889 0
M  V30 6281 C 568.423 4.2993 -0.422373 0
M  V30 6282 C 567.558 5.29743 0.393111 0
M  V30 6283 C 566.597 6.09842 -0.525317 0
M  V30 6284 N 565.734 7.01643 0.253208 0
M  V30 6285 H 570.574 2.75631 -1.13276 0
M  V30 6286 H 568.111 1.35606 -0.570026 0
M  V30 6287 H 570.069 4.05531 0.979826 0
M  V30 6288 H 568.699 2.95779 1.29284 0
M  V30 6289 H 567.751 3.66422 -1.02171 0
M  V30 6290 H 569.063 4.85899 -1.12709 0
M  V30 6291 H 568.217 5.9942 0.937056 0
M  V30 6292 H 566.956 4.744 1.13117 0
M  V30 6293 H 565.961 5.39066 -1.08112 0
M  V30 6294 H 567.186 6.6727 -1.26205 0
M  V30 6295 H 565.132 6.48725 0.974295 0
M  V30 6296 H 565.049 7.54981 -0.392398 0
M  V30 6297 H 566.317 7.756 0.778761 0
M  V30 6298 N 570.547 0.616602 1.45037 0
M  V30 6299 C 571.772 0.120192 2.07051 0
M  V30 6300 C 572.197 -1.19008 1.45666 0
M  V30 6301 O 571.555 -1.7267 0.552692 0
M  V30 6302 C 571.603 0.00354901 3.606 0
M  V30 6303 O 570.707 -1.04431 3.98958 0
M  V30 6304 H 570.048 0.0781599 0.659384 0
M  V30 6305 H 572.578 0.849167 1.86146 0
M  V30 6306 H 572.588 -0.191754 4.07549 0
M  V30 6307 H 571.263 0.960239 4.04663 0
M  V30 6308 H 569.84 -0.824749 3.63665 0
M  V30 6309 N 572.025 -1.5352 0.356285 0
M  V30 6310 C 573.272 -2.01117 -0.236303 0
M  V30 6311 C 573.6 -1.24381 -1.49531 0
M  V30 6312 O 572.855 -0.323057 -1.93015 0
M  V30 6313 C 573.154 -3.52607 -0.583369 0
M  V30 6314 C 572.82 -4.47151 0.58023 0
M  V30 6315 C 571.482 -4.72718 0.899528 0
M  V30 6316 C 573.834 -5.03137 1.36024 0
M  V30 6317 C 571.162 -5.51523 2.00098 0
M  V30 6318 C 573.514 -5.83145 2.45204 0
M  V30 6319 C 572.178 -6.07001 2.77679 0
M  V30 6320 H 571.448 -0.735938 -0.0864695 0
M  V30 6321 H 574.095 -1.85209 0.48683 0
M  V30 6322 H 572.4 -3.66413 -1.38739 0
M  V30 6323 H 574.097 -3.86901 -1.05397 0
M  V30 6324 H 570.687 -4.27394 0.321322 0
M  V30 6325 H 574.871 -4.83339 1.12682 0
M  V30 6326 H 570.127 -5.68229 2.25668 0
M  V30 6327 H 574.301 -6.25537 3.06067 0
M  V30 6328 H 571.928 -6.67851 3.63151 0
M  V30 6329 N 573.503 -0.0852151 -1.57369 0
M  V30 6330 C 574.451 0.894856 -2.14698 0
M  V30 6331 C 575.445 1.29903 -1.08727 0
M  V30 6332 O 576.651 1.27471 -1.27088 0
M  V30 6333 H 573.026 0.306569 -0.686673 0
M  V30 6334 H 574.997 0.386542 -2.95886 0
M  V30 6335 C 573.746 2.14798 -2.73417 0
M  V30 6336 H 573.069 1.84585 -3.54638 0
M  V30 6337 H 574.509 2.81456 -3.1711 0
M  V30 6338 C 572.968 2.91546 -1.68828 0
M  V30 6339 O 573.498 3.85733 -1.12129 0
M  V30 6340 N 571.704 2.54901 -1.39549 0
M  V30 6341 H 571.251 1.7838 -1.85845 0
M  V30 6342 H 571.209 3.06553 -0.698054 0
M  V30 6343 N 574.981 1.5647 0.188427 0
M  V30 6344 C 575.911 1.98101 1.23606 0
M  V30 6345 C 576.892 0.853961 1.47111 0
M  V30 6346 O 578.077 1.11879 1.58735 0
M  V30 6347 C 575.207 2.32624 2.57882 0
M  V30 6348 C 574.161 3.48129 2.48978 0
M  V30 6349 C 573.487 3.68347 3.87588 0
M  V30 6350 C 574.787 4.82112 2.00911 0
M  V30 6351 H 576.481 2.85864 0.890068 0
M  V30 6352 H 574.027 1.37532 0.426714 0
M  V30 6353 H 575.98 2.60343 3.3136 0
M  V30 6354 H 574.704 1.41751 2.94235 0
M  V30 6355 H 573.363 3.20511 1.77956 0
M  V30 6356 H 573.011 2.74793 4.21305 0
M  V30 6357 H 572.711 4.46055 3.82503 0
M  V30 6358 H 574.235 3.98449 4.62678 0
M  V30 6359 H 575.649 5.08819 2.64151 0
M  V30 6360 H 574.046 5.63337 2.06814 0
M  V30 6361 H 575.116 4.75249 0.96262 0
M  V30 6362 N 576.459 -0.456382 1.50847 0
M  V30 6363 C 577.684 -1.2349 1.66628 0
M  V30 6364 C 578.109 -1.84715 0.355254 0
M  V30 6365 O 577.467 -1.67961 -0.682559 0
M  V30 6366 C 577.515 -2.30865 2.77009 0
M  V30 6367 O 576.619 -3.35882 2.39285 0
M  V30 6368 H 575.96 -0.36266 0.556214 0
M  V30 6369 H 578.49 -0.541374 1.97308 0
M  V30 6370 H 578.5 -2.75949 3.00526 0
M  V30 6371 H 577.175 -1.85677 3.72152 0
M  V30 6372 H 575.752 -2.96406 2.26269 0
M  V30 6373 N 577.937 -1.40673 -0.710563 0
M  V30 6374 C 579.348 -1.34975 -1.28991 0
M  V30 6375 C 579.699 -0.0256272 -1.96183 0
M  V30 6376 O 578.824 0.876339 -1.97862 0
M  V30 6377 C 579.419 -2.44467 -2.34567 0
M  V30 6378 C 577.978 -2.42213 -2.88114 0
M  V30 6379 C 577.125 -2.25085 -1.61963 0
M  V30 6380 H 580.076 -1.50406 -0.506343 0
M  V30 6381 H 580.097 -2.12663 -3.15523 0
M  V30 6382 H 579.609 -3.40825 -1.85634 0
M  V30 6383 H 577.71 -1.49568 -3.41263 0
M  V30 6384 H 577.823 -3.37983 -3.39565 0
M  V30 6385 H 576.187 -1.72691 -1.87216 0
M  V30 6386 H 576.97 -3.23449 -1.15047 0
M  V30 6387 N 579.415 0.9433 -1.26252 0
M  V30 6388 C 580.345 2.05902 -1.10122 0
M  V30 6389 C 581.326 1.70099 -0.00700552 0
M  V30 6390 O 582.511 1.93377 -0.178641 0
M  V30 6391 C 579.641 3.39516 -0.731175 0
M  V30 6392 C 578.595 3.89372 -1.77688 0
M  V30 6393 C 577.921 5.19613 -1.26122 0
M  V30 6394 C 579.221 4.14489 -3.17799 0
M  V30 6395 H 580.915 2.19655 -2.03451 0
M  V30 6396 H 578.461 1.05548 -0.979576 0
M  V30 6397 H 580.414 4.17031 -0.605215 0
M  V30 6398 H 579.138 3.25733 0.23782 0
M  V30 6399 H 577.797 3.14036 -1.89148 0
M  V30 6400 H 577.445 5.02208 -0.282128 0
M  V30 6401 H 577.145 5.53939 -1.96023 0
M  V30 6402 H 578.669 5.99713 -1.14789 0
M  V30 6403 H 580.083 4.82625 -3.09428 0
M  V30 6404 H 578.48 4.60094 -3.85271 0
M  V30 6405 H 579.55 3.20347 -3.64014 0
M  V30 6406 N 580.893 1.08022 1.14757 0
M  V30 6407 C 581.843 0.676345 2.17737 0
M  V30 6408 C 582.827 -0.302018 1.5804 0
M  V30 6409 O 584.019 -0.11466 1.76628 0
M  V30 6410 C 581.148 0.082984 3.432 0
M  V30 6411 C 580.234 1.0869 4.09936 0
M  V30 6412 N 580.625 2.26891 4.52055 0
M  V30 6413 C 578.923 0.921768 4.36371 0
M  V30 6414 C 579.624 2.90636 5.0389 0
M  V30 6415 N 578.6 2.18266 4.97856 0
M  V30 6416 H 582.402 1.5765 2.4804 0
M  V30 6417 H 579.916 0.954374 1.31398 0
M  V30 6418 H 581.913 -0.224289 4.16296 0
M  V30 6419 H 580.573 -0.812206 3.14378 0
M  V30 6420 H 581.584 2.6457 4.45223 0
M  V30 6421 H 578.261 0.0800499 4.17423 0
M  V30 6422 H 579.651 3.9104 5.46386 0
M  V30 6423 N 582.371 -1.3172 0.865308 0
M  V30 6424 C 583.319 -2.30569 0.306674 0
M  V30 6425 C 584.313 -1.59317 -0.575724 0
M  V30 6426 O 585.519 -1.73961 -0.462343 0
M  V30 6427 H 581.894 -0.747681 0.0804834 0
M  V30 6428 H 583.865 -2.75165 1.15441 0
M  V30 6429 C 582.614 -3.44358 -0.480952 0
M  V30 6430 H 581.937 -3.99354 0.18876 0
M  V30 6431 H 583.377 -4.15652 -0.837241 0
M  V30 6432 C 581.836 -2.92574 -1.67039 0
M  V30 6433 O 582.366 -2.90954 -2.76964 0
M  V30 6434 N 580.572 -2.48835 -1.50097 0
M  V30 6435 H 580.119 -2.50353 -0.606738 0
M  V30 6436 H 580.077 -2.14543 -2.29823 0
M  V30 6437 N 583.85 -0.624285 -1.44708 0
M  V30 6438 C 584.779 0.0717025 -2.3339 0
M  V30 6439 C 585.76 0.841814 -1.47809 0
M  V30 6440 O 586.946 0.809056 -1.76544 0
M  V30 6441 C 584.076 1.05852 -3.30776 0
M  V30 6442 C 583.029 0.400503 -4.26122 0
M  V30 6443 C 582.356 1.49674 -5.13324 0
M  V30 6444 C 583.656 -0.688924 -5.17737 0
M  V30 6445 H 585.35 -0.668819 -2.91834 0
M  V30 6446 H 582.896 -0.32308 -1.40329 0
M  V30 6447 H 584.849 1.5541 -3.91696 0
M  V30 6448 H 583.572 1.82984 -2.70526 0
M  V30 6449 H 582.231 -0.0743687 -3.66525 0
M  V30 6450 H 581.88 2.25877 -4.49431 0
M  V30 6451 H 581.58 1.06188 -5.77926 0
M  V30 6452 H 583.104 1.99427 -5.77115 0
M  V30 6453 H 584.518 -0.276724 -5.72632 0
M  V30 6454 H 582.915 -1.04652 -5.90904 0
M  V30 6455 H 583.985 -1.55884 -4.5916 0
M  V30 6456 N 585.328 1.53329 -0.364422 0
M  V30 6457 C 586.26 2.23286 0.517293 0
M  V30 6458 C 587.273 1.24657 1.04711 0
M  V30 6459 O 588.462 1.50887 0.95369 0
M  V30 6460 C 585.562 2.91604 1.72685 0
M  V30 6461 C 584.735 4.1673 1.32873 0
M  V30 6462 C 583.794 4.68269 2.40022 0
M  V30 6463 O 582.82 5.31976 2.02461 0
M  V30 6464 N 584.022 4.45983 3.7159 0
M  V30 6465 H 586.787 2.99588 -0.0819391 0
M  V30 6466 H 584.348 1.60787 -0.189544 0
M  V30 6467 H 586.34 3.22992 2.4384 0
M  V30 6468 H 584.91 2.18763 2.23297 0
M  V30 6469 H 584.13 3.91657 0.447069 0
M  V30 6470 H 585.418 4.98078 1.03902 0
M  V30 6471 H 584.816 3.95077 4.04883 0
M  V30 6472 H 583.373 4.81924 4.38854 0
M  V30 6473 N 586.806 0.0935595 1.57322 0
M  V30 6474 C 587.754 -0.883457 2.15169 0
M  V30 6475 C 588.748 -1.29324 1.09415 0
M  V30 6476 O 589.954 -1.26795 1.27762 0
M  V30 6477 H 586.329 -0.302923 0.688289 0
M  V30 6478 H 588.3 -0.370845 2.96087 0
M  V30 6479 C 587.049 -2.13345 2.74552 0
M  V30 6480 H 586.372 -1.82702 3.55612 0
M  V30 6481 H 587.812 -2.7977 3.18598 0
M  V30 6482 C 586.271 -2.90646 1.70371 0
M  V30 6483 O 586.801 -3.85133 1.14173 0
M  V30 6484 N 585.007 -2.54157 1.40899 0
M  V30 6485 H 584.554 -1.77391 1.86789 0
M  V30 6486 H 584.512 -3.06178 0.714301 0
M  V30 6487 N 588.284 -1.56567 -0.180126 0
M  V30 6488 C 589.214 -1.98753 -1.22553 0
M  V30 6489 C 590.195 -0.86175 -1.46656 0
M  V30 6490 O 591.38 -1.12719 -1.58139 0
M  V30 6491 C 588.51 -2.33988 -2.56645 0
M  V30 6492 C 587.464 -3.49445 -2.47128 0
M  V30 6493 C 586.79 -3.70397 -3.8563 0
M  V30 6494 C 588.09 -4.83171 -1.98352 0
M  V30 6495 H 589.784 -2.86332 -0.874896 0
M  V30 6496 H 587.33 -1.37757 -0.419414 0
M  V30 6497 H 589.283 -2.62097 -3.29974 0
M  V30 6498 H 588.007 -1.43309 -2.93479 0
M  V30 6499 H 586.666 -3.2145 -1.76254 0
M  V30 6500 H 586.314 -2.77023 -4.19842 0
M  V30 6501 H 586.014 -4.48077 -3.80132 0
M  V30 6502 H 587.538 -4.00897 -4.60558 0
M  V30 6503 H 588.952 -5.10213 -2.61449 0
M  V30 6504 H 587.349 -5.64425 -2.03823 0
M  V30 6505 H 588.419 -4.75753 -0.937402 0
M  V30 6506 N 589.762 0.448376 -1.51087 0
M  V30 6507 C 590.672 1.56882 -1.74428 0
M  V30 6508 C 591.688 1.62268 -0.62809 0
M  V30 6509 O 592.864 1.79716 -0.909075 0
M  V30 6510 C 589.929 2.92947 -1.85426 0
M  V30 6511 C 588.99 2.97766 -3.09247 0
M  V30 6512 C 588.223 4.27341 -3.19711 0
M  V30 6513 O 588.446 5.19112 -2.36387 0
M  V30 6514 O 587.38 4.38219 -4.12611 0
M  V30 6515 H 591.206 1.40104 -2.69452 0
M  V30 6516 H 588.791 0.630247 -1.35456 0
M  V30 6517 H 590.673 3.73719 -1.94709 0
M  V30 6518 H 589.348 3.09876 -0.935887 0
M  V30 6519 H 588.255 2.15989 -3.0545 0
M  V30 6520 H 589.588 2.8578 -4.00738 0
M  V30 6521 N 591.24 1.41047 0.703093 0
M  V30 6522 C 592.486 1.40207 1.46526 0
M  V30 6523 C 592.819 0.00847763 1.94198 0
M  V30 6524 O 592.094 -0.962437 1.69019 0
M  V30 6525 C 592.377 2.40238 2.6825 0
M  V30 6526 C 592.23 3.88674 2.26391 0
M  V30 6527 C 593.549 2.37627 3.70434 0
M  V30 6528 H 590.668 0.510594 0.531472 0
M  V30 6529 H 593.31 1.72271 0.801422 0
M  V30 6530 H 591.46 2.13026 3.24888 0
M  V30 6531 H 593.132 4.2676 1.75138 0
M  V30 6532 H 591.375 4.03903 1.58255 0
M  V30 6533 H 592.046 4.542 3.13698 0
M  V30 6534 H 594.522 2.61759 3.23452 0
M  V30 6535 H 593.398 3.09645 4.53223 0
M  V30 6536 H 593.659 1.39223 4.19606 0
M  V30 6537 N 592.718 -0.936591 1.26751 0
M  V30 6538 C 593.648 -2.05315 1.11212 0
M  V30 6539 C 594.629 -1.70092 0.0160262 0
M  V30 6540 O 595.814 -1.93279 0.188894 0
M  V30 6541 C 592.944 -3.39123 0.749171 0
M  V30 6542 C 591.898 -3.88425 1.79751 0
M  V30 6543 C 591.224 -5.18936 1.28876 0
M  V30 6544 C 592.524 -4.12798 3.19992 0
M  V30 6545 H 594.218 -2.18573 2.04613 0
M  V30 6546 H 591.764 -1.05027 0.985159 0
M  V30 6547 H 593.717 -4.16704 0.627323 0
M  V30 6548 H 592.441 -3.25855 -0.220543 0
M  V30 6549 H 591.1 -3.13028 1.90811 0
M  V30 6550 H 590.748 -5.02051 0.308757 0
M  V30 6551 H 590.448 -5.52892 1.98958 0
M  V30 6552 H 591.972 -5.99096 1.17967 0
M  V30 6553 H 593.386 -4.80977 3.11983 0
M  V30 6554 H 591.783 -4.58044 3.87705 0
M  V30 6555 H 592.853 -3.18412 3.65707 0
M  V30 6556 N 594.196 -1.08629 -1.14182 0
M  V30 6557 C 595.473 -0.73002 -1.81466 0
M  V30 6558 C 595.853 0.785996 -1.95922 0
M  V30 6559 O 595.201 1.70535 -1.52086 0
M  V30 6560 C 595.411 -1.45957 -3.17014 0
M  V30 6561 C 596.759 -1.62008 -3.92477 0
M  V30 6562 O 597.783 -1.42141 -3.26611 0
M  V30 6563 O 596.642 -1.94806 -5.106 0
M  V30 6564 H 593.736 -0.261307 -0.784632 0
M  V30 6565 H 596.282 -1.188 -1.2118 0
M  V30 6566 H 595.054 -2.49221 -3.01669 0
M  V30 6567 H 594.677 -0.993222 -3.84995 0
M  V30 6568 N 595.674 1.31259 -0.872281 0
M  V30 6569 C 596.604 2.30929 -0.345554 0
M  V30 6570 C 597.585 1.60449 0.5648 0
M  V30 6571 O 598.77 1.8814 0.481335 0
M  V30 6572 C 595.9 3.44348 0.451823 0
M  V30 6573 C 594.854 4.26435 -0.365641 0
M  V30 6574 C 594.18 5.31785 0.557562 0
M  V30 6575 C 595.48 4.97159 -1.60095 0
M  V30 6576 H 597.174 2.75234 -1.17841 0
M  V30 6577 H 594.72 1.3232 -0.568094 0
M  V30 6578 H 596.673 4.13128 0.830854 0
M  V30 6579 H 595.397 2.98816 1.31821 0
M  V30 6580 H 594.056 3.59326 -0.726649 0
M  V30 6581 H 593.704 4.82502 1.4213 0
M  V30 6582 H 593.404 5.87598 0.0144878 0
M  V30 6583 H 594.928 6.03424 0.933387 0
M  V30 6584 H 596.342 5.58523 -1.29323 0
M  V30 6585 H 594.739 5.62779 -2.08327 0
M  V30 6586 H 595.809 4.24012 -2.35249 0
M  V30 6587 N 597.152 0.631951 1.44375 0
M  V30 6588 C 598.4 0.136497 2.01639 0
M  V30 6589 C 598.721 -1.24637 1.49969 0
M  V30 6590 O 597.991 -1.82827 0.70363 0
M  V30 6591 H 596.571 0.0474703 0.74549 0
M  V30 6592 H 599.233 0.818837 1.76865 0
M  V30 6593 H 598.329 0.104817 3.11924 0
M  V30 6594 N 598.631 -1.53133 0.372548 0
M  V30 6595 C 599.859 -2.05774 -0.215515 0
M  V30 6596 C 600.274 -1.24555 -1.41886 0
M  V30 6597 O 599.631 -0.287951 -1.80214 0
M  V30 6598 C 599.682 -3.5645 -0.602161 0
M  V30 6599 O 599.403 -4.34591 0.553359 0
M  V30 6600 C 600.904 -4.25374 -1.24787 0
M  V30 6601 H 598.124 -0.670009 -0.0364529 0
M  V30 6602 H 600.668 -1.97434 0.532934 0
M  V30 6603 H 598.823 -3.64918 -1.30052 0
M  V30 6604 H 599.237 -5.23954 0.239336 0
M  V30 6605 H 600.711 -5.32097 -1.46891 0
M  V30 6606 H 601.188 -3.79531 -2.21026 0
M  V30 6607 H 601.794 -4.21177 -0.590752 0
M  V30 6608 N 600.109 -0.101901 -1.5727 0
M  V30 6609 C 601.057 0.872034 -2.15635 0
M  V30 6610 C 602.051 1.28742 -1.10099 0
M  V30 6611 O 603.257 1.26116 -1.28432 0
M  V30 6612 H 599.632 0.299269 -0.689886 0
M  V30 6613 H 601.603 0.355137 -2.96279 0
M  V30 6614 C 600.352 2.11886 -2.7568 0
M  V30 6615 H 599.675 1.80813 -3.56576 0
M  V30 6616 H 601.115 2.78077 -3.20077 0
M  V30 6617 C 599.574 2.89739 -1.7191 0
M  V30 6618 O 600.104 3.84522 -1.16213 0
M  V30 6619 N 598.31 2.53407 -1.42245 0
M  V30 6620 H 597.857 1.76398 -1.87727 0
M  V30 6621 H 597.815 3.05795 -0.730529 0
M  V30 6622 N 601.587 1.56661 0.17182 0
M  V30 6623 C 602.834 1.81965 0.888529 0
M  V30 6624 C 603.162 0.6789 1.82267 0
M  V30 6625 O 602.417 -0.333875 1.92831 0
M  V30 6626 C 602.716 3.13435 1.71736 0
M  V30 6627 C 602.382 4.41159 0.932184 0
M  V30 6628 C 601.044 4.75851 0.715481 0
M  V30 6629 C 603.396 5.19803 0.381387 0
M  V30 6630 C 600.724 5.86666 -0.063126 0
M  V30 6631 C 603.076 6.31433 -0.384129 0
M  V30 6632 C 601.74 6.64692 -0.611637 0
M  V30 6633 H 601.01 0.665859 0.325136 0
M  V30 6634 H 603.657 1.90884 0.153495 0
M  V30 6635 H 601.962 2.99857 2.52177 0
M  V30 6636 H 603.659 3.30224 2.27493 0
M  V30 6637 H 600.249 4.13947 1.11112 0
M  V30 6638 H 604.433 4.93396 0.536148 0
M  V30 6639 H 599.689 6.10892 -0.249136 0
M  V30 6640 H 603.863 6.91577 -0.818185 0
M  V30 6641 H 601.49 7.50398 -1.21684 0
M  V30 6642 N 603.065 -0.440357 1.51323 0
M  V30 6643 C 604.314 -1.18697 1.63076 0
M  V30 6644 C 604.627 -1.92418 0.35136 0
M  V30 6645 O 605.833 -2.69258 0.348221 0
M  V30 6646 C 604.289 -2.15849 2.87988 0
M  V30 6647 C 603.897 -1.47789 4.22921 0
M  V30 6648 C 605.641 -2.90962 3.09098 0
M  V30 6649 C 603.548 -2.43407 5.38987 0
M  V30 6650 H 602.478 -0.44676 0.607389 0
M  V30 6651 H 605.129 -0.454313 1.77787 0
M  V30 6652 H 603.511 -2.92537 2.66905 0
M  V30 6653 H 604.685 -0.7668 4.54375 0
M  V30 6654 H 603 -0.848404 4.07665 0
M  V30 6655 H 605.597 -3.62584 3.92985 0
M  V30 6656 H 605.94 -3.52133 2.22053 0
M  V30 6657 H 606.473 -2.21381 3.30507 0
M  V30 6658 H 603.212 -1.86929 6.28282 0
M  V30 6659 H 602.732 -3.12579 5.11913 0
M  V30 6660 H 604.411 -3.046 5.70813 0
M  V30 6661 N 604.543 -1.41418 -0.695603 0
M  V30 6662 C 605.49 -1.43264 -1.80954 0
M  V30 6663 C 606.46 -0.287016 -1.63601 0
M  V30 6664 O 607.645 -0.488054 -1.84452 0
M  V30 6665 C 604.785 -1.32054 -3.18835 0
M  V30 6666 C 603.898 -2.56485 -3.4762 0
M  V30 6667 C 603.033 -2.3757 -4.75115 0
M  V30 6668 C 602.072 -3.57477 -4.96867 0
M  V30 6669 N 601.209 -3.37632 -6.15588 0
M  V30 6670 H 606.049 -2.38467 -1.78711 0
M  V30 6671 H 603.586 -1.18415 -0.872715 0
M  V30 6672 H 605.544 -1.23558 -3.98484 0
M  V30 6673 H 604.174 -0.404592 -3.20254 0
M  V30 6674 H 603.226 -2.75432 -2.62376 0
M  V30 6675 H 604.538 -3.45678 -3.59594 0
M  V30 6676 H 603.692 -2.2654 -5.62818 0
M  V30 6677 H 602.431 -1.45834 -4.65386 0
M  V30 6678 H 601.436 -3.68961 -4.07612 0
M  V30 6679 H 602.661 -4.50167 -5.08455 0
M  V30 6680 H 600.607 -2.48596 -6.07072 0
M  V30 6681 H 600.524 -4.20401 -6.2833 0
M  V30 6682 H 601.792 -3.30375 -7.06026 0
M  V30 6683 N 606.021 0.929856 -1.27246 0
M  V30 6684 C 607.27 1.67182 -1.12842 0
M  V30 6685 C 607.583 1.9287 0.325666 0
M  V30 6686 O 608.789 2.64999 0.590572 0
M  V30 6687 C 607.245 3.01097 -1.97151 0
M  V30 6688 C 606.853 2.83115 -3.47203 0
M  V30 6689 C 608.597 3.78907 -1.91389 0
M  V30 6690 C 606.504 4.12573 -4.23719 0
M  V30 6691 H 605.434 0.627064 -0.418697 0
M  V30 6692 H 608.085 1.0332 -1.51649 0
M  V30 6693 H 606.467 3.66004 -1.51186 0
M  V30 6694 H 607.641 2.26989 -4.01015 0
M  V30 6695 H 605.956 2.18736 -3.54321 0
M  V30 6696 H 608.553 4.74837 -2.45834 0
M  V30 6697 H 608.896 4.0674 -0.887047 0
M  V30 6698 H 609.429 3.20794 -2.35237 0
M  V30 6699 H 606.168 3.8992 -5.26918 0
M  V30 6700 H 605.688 4.68371 -3.74685 0
M  V30 6701 H 607.367 4.8095 -4.32777 0
M  V30 6702 N 607.499 1.09233 1.13605 0
M  V30 6703 C 608.462 0.733553 2.17144 0
M  V30 6704 C 609.462 -0.235873 1.59061 0
M  V30 6705 O 610.652 -0.0143167 1.74194 0
M  V30 6706 C 607.784 0.084471 3.40795 0
M  V30 6707 H 608.977 1.65049 2.50397 0
M  V30 6708 H 606.53 0.891264 1.28399 0
M  V30 6709 H 607.265 -0.843795 3.1313 0
M  V30 6710 H 607.05 0.781985 3.84223 0
M  V30 6711 H 608.54 -0.151216 4.17326 0
M  V30 6712 N 608.977 -1.30795 0.87923 0
M  V30 6713 C 609.925 -2.30231 0.331112 0
M  V30 6714 C 610.919 -1.59918 -0.558794 0
M  V30 6715 O 612.125 -1.74441 -0.443866 0
M  V30 6716 H 608.5 -0.746785 0.088409 0
M  V30 6717 H 610.471 -2.73925 1.18353 0
M  V30 6718 C 609.22 -3.44848 -0.444401 0
M  V30 6719 H 608.543 -3.99131 0.231106 0
M  V30 6720 H 609.983 -4.16516 -0.793109 0
M  V30 6721 C 608.442 -2.94329 -1.63926 0
M  V30 6722 O 608.972 -2.93875 -2.73862 0
M  V30 6723 N 607.178 -2.50413 -1.4745 0
M  V30 6724 H 606.725 -2.50982 -0.58015 0
M  V30 6725 H 606.683 -2.16969 -2.27534 0
M  V30 6726 N 610.455 -0.639598 -1.44038 0
M  V30 6727 C 611.385 0.0469443 -2.33453 0
M  V30 6728 C 612.366 0.82609 -1.48694 0
M  V30 6729 O 613.551 0.790285 -1.77393 0
M  V30 6730 C 610.681 1.02338 -3.3188 0
M  V30 6731 C 609.635 0.355284 -4.26523 0
M  V30 6732 C 608.961 1.44221 -5.14883 0
M  V30 6733 C 610.261 -0.743798 -5.16977 0
M  V30 6734 H 611.955 -0.699735 -2.91108 0
M  V30 6735 H 609.501 -0.337946 -1.39978 0
M  V30 6736 H 611.454 1.51247 -3.93322 0
M  V30 6737 H 610.178 1.80105 -2.72451 0
M  V30 6738 H 608.837 -0.113239 -3.66425 0
M  V30 6739 H 608.485 2.21097 -4.51802 0
M  V30 6740 H 608.185 1.00052 -5.79019 0
M  V30 6741 H 609.709 1.93295 -5.79197 0
M  V30 6742 H 611.123 -0.337444 -5.72306 0
M  V30 6743 H 609.52 -1.10914 -5.89761 0
M  V30 6744 H 610.59 -1.60745 -4.57481 0
M  V30 6745 N 611.933 1.52934 -0.380664 0
M  V30 6746 C 613.158 2.06363 0.207157 0
M  V30 6747 C 613.583 1.25122 1.4045 0
M  V30 6748 O 612.941 0.274062 1.79217 0
M  V30 6749 C 612.989 3.56162 0.563996 0
M  V30 6750 O 612.093 3.77552 1.65917 0
M  V30 6751 H 611.434 0.663468 0.0265859 0
M  V30 6752 H 613.964 1.9719 -0.545635 0
M  V30 6753 H 613.974 3.99453 0.830752 0
M  V30 6754 H 612.649 4.14732 -0.311427 0
M  V30 6755 H 611.226 3.46154 1.3868 0
M  V30 6756 N 613.412 0.11024 1.57214 0
M  V30 6757 C 614.345 -0.880224 2.1054 0
M  V30 6758 C 615.323 -1.26658 1.01964 0
M  V30 6759 O 616.507 -1.36917 1.29561 0
M  V30 6760 C 613.634 -2.17676 2.59489 0
M  V30 6761 C 612.68 -1.93914 3.79868 0
M  V30 6762 S 613.513 -1.16336 5.2271 0
M  V30 6763 C 614.669 -2.47188 5.75021 0
M  V30 6764 H 614.902 -0.426614 2.94223 0
M  V30 6765 H 612.435 -0.10336 1.54054 0
M  V30 6766 H 614.393 -2.92175 2.88347 0
M  V30 6767 H 613.054 -2.60156 1.76005 0
M  V30 6768 H 612.247 -2.8996 4.12236 0
M  V30 6769 H 611.849 -1.27539 3.51582 0
M  V30 6770 H 614.141 -3.43079 5.84211 0
M  V30 6771 H 615.084 -2.19377 6.7326 0
M  V30 6772 H 615.492 -2.56154 5.03036 0
M  V30 6773 N 614.89 -1.56749 -0.16351 0
M  V30 6774 C 616.137 -1.82434 -0.878866 0
M  V30 6775 C 616.465 -0.688557 -1.81904 0
M  V30 6776 O 615.72 0.323644 -1.93005 0
M  V30 6777 C 616.019 -3.14342 -1.70071 0
M  V30 6778 C 615.685 -4.41647 -0.908775 0
M  V30 6779 C 614.347 -4.76224 -0.690236 0
M  V30 6780 C 616.699 -5.19998 -0.353815 0
M  V30 6781 C 614.027 -5.86624 0.0942374 0
M  V30 6782 C 616.379 -6.3122 0.41761 0
M  V30 6783 C 615.043 -6.64358 0.646879 0
M  V30 6784 H 614.313 -0.667574 -0.3216 0
M  V30 6785 H 616.96 -1.90963 -0.14337 0
M  V30 6786 H 615.265 -3.0119 -2.50583 0
M  V30 6787 H 616.962 -3.31426 -2.25738 0
M  V30 6788 H 613.552 -4.1453 -1.08916 0
M  V30 6789 H 617.736 -4.93673 -0.509975 0
M  V30 6790 H 612.992 -6.10751 0.281529 0
M  V30 6791 H 617.166 -6.91133 0.854849 0
M  V30 6792 H 614.793 -7.49742 1.25662 0
M  V30 6793 N 616.368 0.432326 -1.51554 0
M  V30 6794 C 617.315 1.52512 -1.7323 0
M  V30 6795 C 618.285 1.55863 -0.5741 0
M  V30 6796 O 619.47 1.72796 -0.809093 0
M  V30 6797 C 616.61 2.90183 -1.86783 0
M  V30 6798 C 615.723 2.96322 -3.14352 0
M  V30 6799 C 614.858 4.25147 -3.18471 0
M  V30 6800 C 613.897 4.25172 -4.40335 0
M  V30 6801 N 613.034 5.45529 -4.41975 0
M  V30 6802 H 617.874 1.33332 -2.66508 0
M  V30 6803 H 615.411 0.647613 -1.32077 0
M  V30 6804 H 617.369 3.70071 -1.92623 0
M  V30 6805 H 615.999 3.0791 -0.969087 0
M  V30 6806 H 615.051 2.09066 -3.17798 0
M  V30 6807 H 616.363 2.92203 -4.04251 0
M  V30 6808 H 615.517 5.13411 -3.23255 0
M  V30 6809 H 614.256 4.31929 -2.2647 0
M  V30 6810 H 613.261 3.353 -4.35723 0
M  V30 6811 H 614.486 4.20049 -5.33606 0
M  V30 6812 H 612.432 5.53024 -3.52847 0
M  V30 6813 H 612.349 5.43311 -5.25689 0
M  V30 6814 H 613.617 6.35812 -4.50958 0
M  V30 6815 N 617.846 1.41785 0.688094 0
M  V30 6816 C 618.778 1.40159 1.81351 0
M  V30 6817 C 619.791 0.30262 1.59963 0
M  V30 6818 O 620.98 0.564841 1.69327 0
M  V30 6819 C 618.08 1.16517 3.1824 0
M  V30 6820 C 617.253 2.38597 3.66593 0
M  V30 6821 C 616.312 2.10699 4.82174 0
M  V30 6822 O 615.338 2.83798 4.93404 0
M  V30 6823 N 616.54 1.10187 5.69947 0
M  V30 6824 H 619.305 2.3716 1.83236 0
M  V30 6825 H 616.866 1.36494 0.870697 0
M  V30 6826 H 618.858 0.957941 3.93199 0
M  V30 6827 H 617.428 0.280873 3.11336 0
M  V30 6828 H 616.648 2.74974 2.82459 0
M  V30 6829 H 617.936 3.19919 3.95638 0
M  V30 6830 H 617.334 0.497016 5.63512 0
M  V30 6831 H 615.891 0.954518 6.44773 0
M  V30 6832 N 619.324 -0.923095 1.27737 0
M  V30 6833 C 620.571 -1.67127 1.14345 0
M  V30 6834 C 620.899 -1.92017 -0.30982 0
M  V30 6835 O 620.154 -1.51185 -1.24264 0
M  V30 6836 C 620.453 -3.04125 1.8773 0
M  V30 6837 C 620.119 -2.98929 3.37568 0
M  V30 6838 C 618.781 -2.9722 3.78436 0
M  V30 6839 C 621.133 -2.89875 4.33154 0
M  V30 6840 C 618.461 -2.84244 5.13247 0
M  V30 6841 C 620.813 -2.7844 5.68026 0
M  V30 6842 C 619.477 -2.75083 6.08182 0
M  V30 6843 H 618.747 -0.611562 0.418417 0
M  V30 6844 H 621.394 -1.07618 1.584 0
M  V30 6845 H 619.699 -3.67366 1.36196 0
M  V30 6846 H 621.396 -3.609 1.74792 0
M  V30 6847 H 617.986 -3.0105 3.05069 0
M  V30 6848 H 622.17 -2.9029 4.02548 0
M  V30 6849 H 617.426 -2.80034 5.43499 0
M  V30 6850 H 621.6 -2.70401 6.4176 0
M  V30 6851 H 619.227 -2.64786 7.12596 0
M  V30 6852 N 620.802 -1.09834 -1.13024 0
M  V30 6853 C 621.749 -0.741522 -2.18564 0
M  V30 6854 C 622.719 0.279236 -1.63736 0
M  V30 6855 O 623.904 0.159923 -1.90129 0
M  V30 6856 C 621.044 -0.17277 -3.44667 0
M  V30 6857 C 620.157 -1.24808 -4.13578 0
M  V30 6858 C 619.292 -0.641631 -5.27311 0
M  V30 6859 C 618.331 -1.69795 -5.88078 0
M  V30 6860 N 617.468 -1.11223 -6.93234 0
M  V30 6861 H 622.308 -1.64576 -2.48432 0
M  V30 6862 H 619.845 -0.822174 -1.21978 0
M  V30 6863 H 621.803 0.17482 -4.16834 0
M  V30 6864 H 620.433 0.694725 -3.15235 0
M  V30 6865 H 619.485 -1.71288 -3.39653 0
M  V30 6866 H 620.797 -2.04795 -4.54819 0
M  V30 6867 H 619.951 -0.243128 -6.06213 0
M  V30 6868 H 618.69 0.189742 -4.87331 0
M  V30 6869 H 617.695 -2.10595 -5.07868 0
M  V30 6870 H 618.92 -2.53206 -6.3013 0
M  V30 6871 H 616.866 -0.302208 -6.55304 0
M  V30 6872 H 616.783 -1.84901 -7.3304 0
M  V30 6873 H 618.051 -0.740068 -7.75979 0
M  V30 6874 N 622.28 1.30327 -0.886154 0
M  V30 6875 C 623.696 1.48676 -0.580323 0
M  V30 6876 C 623.896 1.81189 0.881639 0
M  V30 6877 O 622.952 1.90021 1.66278 0
M  V30 6878 C 624.265 2.60932 -1.49449 0
M  V30 6879 C 625.813 2.74812 -1.49824 0
M  V30 6880 C 626.288 3.90183 -2.39836 0
M  V30 6881 N 627.779 3.97495 -2.37806 0
M  V30 6882 C 628.514 4.86078 -3.04165 0
M  V30 6883 N 628.01 5.79448 -3.79753 0
M  V30 6884 N 629.803 4.79456 -2.93391 0
M  V30 6885 H 621.954 1.07495 -1.8319 0
M  V30 6886 H 624.217 0.532661 -0.784204 0
M  V30 6887 H 623.923 2.43731 -2.5355 0
M  V30 6888 H 623.797 3.57437 -1.20494 0
M  V30 6889 H 626.184 2.91418 -0.464731 0
M  V30 6890 H 626.265 1.78924 -1.82811 0
M  V30 6891 H 625.909 3.74334 -3.43273 0
M  V30 6892 H 625.839 4.85411 -2.04166 0
M  V30 6893 H 628.33 3.30703 -1.82877 0
M  V30 6894 H 628.643 6.43805 -4.27475 0
M  V30 6895 H 626.988 5.79376 -3.8386 0
M  V30 6896 H 630.179 4.05494 -2.33864 0
M  V30 6897 H 630.352 5.48283 -3.45383 0
M  V30 6898 N 623.758 0.647228 1.43697 0
M  V30 6899 C 624.688 -0.0345631 2.33474 0
M  V30 6900 C 625.669 -0.818193 1.4913 0
M  V30 6901 O 626.854 -0.780867 1.77809 0
M  V30 6902 C 623.984 -1.00576 3.32418 0
M  V30 6903 C 622.938 -0.33266 4.26705 0
M  V30 6904 C 622.264 -1.41489 5.1564 0
M  V30 6905 C 623.564 0.771204 5.16575 0
M  V30 6906 H 625.258 0.715163 2.90733 0
M  V30 6907 H 622.804 0.345364 1.39797 0
M  V30 6908 H 624.757 -1.49159 3.94119 0
M  V30 6909 H 623.481 -1.78657 2.73403 0
M  V30 6910 H 622.14 0.13267 3.6636 0
M  V30 6911 H 621.788 -2.18698 4.52968 0
M  V30 6912 H 621.488 -0.969799 5.79542 0
M  V30 6913 H 623.012 -1.9022 5.80214 0
M  V30 6914 H 624.426 0.36779 5.72119 0
M  V30 6915 H 622.823 1.1404 5.89165 0
M  V30 6916 H 623.893 1.63169 4.56622 0
M  V30 6917 N 625.236 -1.5273 0.388769 0
M  V30 6918 C 626.183 -2.26437 -0.446639 0
M  V30 6919 C 627.153 -1.28025 -1.05824 0
M  V30 6920 O 628.338 -1.56852 -1.08637 0
M  V30 6921 C 625.478 -3.07407 -1.56828 0
M  V30 6922 C 624.591 -4.20747 -0.979589 0
M  V30 6923 C 623.726 -4.89113 -2.07224 0
M  V30 6924 C 622.765 -5.94447 -1.45942 0
M  V30 6925 N 621.902 -6.56411 -2.49135 0
M  V30 6926 H 626.742 -2.97404 0.18837 0
M  V30 6927 H 624.279 -1.46727 0.104725 0
M  V30 6928 H 626.237 -3.52642 -2.22934 0
M  V30 6929 H 624.867 -2.3865 -2.17361 0
M  V30 6930 H 623.919 -3.7983 -0.208151 0
M  V30 6931 H 625.231 -4.9637 -0.491747 0
M  V30 6932 H 624.385 -5.3765 -2.81101 0
M  V30 6933 H 623.124 -4.13013 -2.59368 0
M  V30 6934 H 622.129 -5.4525 -0.705894 0
M  V30 6935 H 623.354 -6.7248 -0.945932 0
M  V30 6936 H 621.3 -5.83152 -3.00449 0
M  V30 6937 H 621.217 -7.27645 -2.05105 0
M  V30 6938 H 622.485 -7.09592 -3.22644 0
M  V30 6939 N 626.714 -0.118576 -1.57153 0
M  V30 6940 C 627.96 0.540326 -1.95469 0
M  V30 6941 C 628.293 1.66356 -1.00196 0
M  V30 6942 O 627.568 1.94461 -0.039104 0
M  V30 6943 C 627.851 1.07342 -3.43729 0
M  V30 6944 C 627.704 -0.0463732 -4.49776 0
M  V30 6945 C 629.023 1.96442 -3.93826 0
M  V30 6946 H 626.142 0.19494 -0.710751 0
M  V30 6947 H 628.784 -0.19405 -1.89006 0
M  V30 6948 H 626.934 1.69925 -3.49368 0
M  V30 6949 H 628.606 -0.681648 -4.56236 0
M  V30 6950 H 626.849 -0.709574 -4.27957 0
M  V30 6951 H 627.52 0.367856 -5.50773 0
M  V30 6952 H 629.996 1.43731 -3.90488 0
M  V30 6953 H 628.872 2.3066 -4.98084 0
M  V30 6954 H 629.133 2.89077 -3.34495 0
M  V30 6955 N 628.193 1.56834 0.155195 0
M  V30 6956 C 629.442 1.82088 0.867567 0
M  V30 6957 C 629.755 0.69849 1.82703 0
M  V30 6958 O 630.961 0.836407 2.58295 0
M  V30 6959 C 629.417 3.22707 1.59336 0
M  V30 6960 C 629.025 4.42859 0.676719 0
M  V30 6961 C 630.769 3.57242 2.293 0
M  V30 6962 C 628.676 5.74501 1.40367 0
M  V30 6963 H 627.606 0.679057 0.327715 0
M  V30 6964 H 630.257 1.83105 0.120351 0
M  V30 6965 H 628.639 3.16054 2.38591 0
M  V30 6966 H 629.813 4.60731 -0.0800196 0
M  V30 6967 H 628.128 4.16311 0.0859129 0
M  V30 6968 H 630.725 4.52847 2.84312 0
M  V30 6969 H 631.068 2.82901 3.05406 0
M  V30 6970 H 631.601 3.6552 1.56972 0
M  V30 6971 H 628.34 6.51915 0.684623 0
M  V30 6972 H 627.86 5.60579 2.13332 0
M  V30 6973 H 629.539 6.17016 1.94681 0
M  V30 6974 N 629.671 -0.424282 1.51781 0
M  V30 6975 C 630.948 -1.18464 1.55646 0
M  V30 6976 C 631.328 -2.08529 0.328438 0
M  V30 6977 O 630.676 -2.17969 -0.685693 0
M  V30 6978 C 630.886 -1.97514 2.87731 0
M  V30 6979 C 632.234 -2.54106 3.40169 0
M  V30 6980 O 633.258 -2.07711 2.89369 0
M  V30 6981 O 632.117 -3.38759 4.28841 0
M  V30 6982 H 629.211 -0.540055 0.626314 0
M  V30 6983 H 631.757 -0.432291 1.64102 0
M  V30 6984 H 630.529 -1.31444 3.68562 0
M  V30 6985 H 630.152 -2.79787 2.82498 0
M  V30 6986 N 631.149 -1.42148 -0.680565 0
M  V30 6987 C 632.079 -1.4796 -1.80638 0
M  V30 6988 C 633.06 -0.336728 -1.66734 0
M  V30 6989 O 634.245 -0.550247 -1.86242 0
M  V30 6990 C 631.375 -1.37569 -3.18892 0
M  V30 6991 C 630.329 -2.49823 -3.47524 0
M  V30 6992 C 629.655 -2.24491 -4.85291 0
M  V30 6993 C 630.955 -3.92144 -3.44994 0
M  V30 6994 H 632.649 -2.42184 -1.76032 0
M  V30 6995 H 630.195 -1.16566 -0.845481 0
M  V30 6996 H 632.148 -1.40243 -3.97379 0
M  V30 6997 H 630.872 -0.398357 -3.24162 0
M  V30 6998 H 629.531 -2.46455 -2.71395 0
M  V30 6999 H 629.179 -1.25066 -4.87204 0
M  V30 7000 H 628.879 -2.99722 -5.05411 0
M  V30 7001 H 630.403 -2.28906 -5.66069 0
M  V30 7002 H 631.817 -3.97145 -4.13459 0
M  V30 7003 H 630.214 -4.67179 -3.76648 0
M  V30 7004 H 631.284 -4.19225 -2.43676 0
M  V30 7005 N 632.627 0.916307 -1.28225 0
M  V30 7006 C 633.852 1.7043 -1.18188 0
M  V30 7007 C 634.277 1.86346 0.256274 0
M  V30 7008 O 633.635 1.37175 1.18544 0
M  V30 7009 C 633.683 3.07546 -1.88275 0
M  V30 7010 O 632.787 3.94904 -1.18848 0
M  V30 7011 H 632.128 0.521967 -0.410423 0
M  V30 7012 H 634.658 1.14589 -1.69501 0
M  V30 7013 H 634.668 3.57793 -1.96082 0
M  V30 7014 H 633.343 2.95279 -2.92887 0
M  V30 7015 H 631.92 3.53339 -1.19187 0
M  V30 7016 N 634.105 1.10431 1.1244 0
M  V30 7017 C 635.351 0.847972 1.84221 0
M  V30 7018 C 635.684 -0.624903 1.83871 0
M  V30 7019 O 634.959 -1.46074 1.28423 0
M  V30 7020 C 635.242 1.39695 3.319 0
M  V30 7021 C 635.095 2.93668 3.40704 0
M  V30 7022 C 636.414 1.03924 4.27654 0
M  V30 7023 H 633.533 0.309502 0.668863 0
M  V30 7024 H 636.175 1.36745 1.31912 0
M  V30 7025 H 634.325 0.955095 3.76577 0
M  V30 7026 H 635.997 3.46379 3.04662 0
M  V30 7027 H 634.24 3.30272 2.81252 0
M  V30 7028 H 634.911 3.27162 4.446 0
M  V30 7029 H 637.387 1.42049 3.91102 0
M  V30 7030 H 636.263 1.45027 5.29394 0
M  V30 7031 H 636.524 -0.051336 4.4207 0
M  V30 7032 N 635.583 -1.29855 0.893053 0
M  V30 7033 C 636.531 -2.29867 0.355512 0
M  V30 7034 C 637.525 -1.60502 -0.541801 0
M  V30 7035 O 638.731 -1.74902 -0.425339 0
M  V30 7036 H 635.106 -0.745805 0.0963247 0
M  V30 7037 H 637.077 -2.72655 1.21252 0
M  V30 7038 C 635.826 -3.453 -0.407801 0
M  V30 7039 H 635.149 -3.98864 0.273426 0
M  V30 7040 H 636.589 -4.17334 -0.748887 0
M  V30 7041 C 635.048 -2.96051 -1.60795 0
M  V30 7042 O 635.578 -2.96763 -2.7073 0
M  V30 7043 N 633.784 -2.51963 -1.44786 0
M  V30 7044 H 633.331 -2.51583 -0.553498 0
M  V30 7045 H 633.289 -2.1937 -2.2522 0
M  V30 7046 N 637.061 -0.65484 -1.43351 0
M  V30 7047 C 638.008 0.0357713 -2.30772 0
M  V30 7048 C 638.978 0.813035 -1.44841 0
M  V30 7049 O 640.163 0.789314 -1.73708 0
M  V30 7050 C 637.303 0.995084 -3.30442 0
M  V30 7051 C 636.416 0.21375 -4.31471 0
M  V30 7052 C 635.551 1.16701 -5.18222 0
M  V30 7053 C 634.59 0.376201 -6.10943 0
M  V30 7054 N 633.727 1.28113 -6.90313 0
M  V30 7055 H 638.567 -0.71559 -2.89281 0
M  V30 7056 H 636.104 -0.364645 -1.42509 0
M  V30 7057 H 638.062 1.5649 -3.86739 0
M  V30 7058 H 636.692 1.7133 -2.7358 0
M  V30 7059 H 635.744 -0.472377 -3.77456 0
M  V30 7060 H 637.056 -0.401103 -4.97185 0
M  V30 7061 H 636.21 1.8074 -5.79153 0
M  V30 7062 H 634.949 1.81577 -4.52638 0
M  V30 7063 H 633.954 -0.277534 -5.49099 0
M  V30 7064 H 635.179 -0.268178 -6.7857 0
M  V30 7065 H 633.125 1.91666 -6.27376 0
M  V30 7066 H 633.042 0.720879 -7.52555 0
M  V30 7067 H 634.31 1.90962 -7.55747 0
M  V30 7068 N 638.539 1.52521 -0.396863 0
M  V30 7069 C 639.788 2.00857 0.184184 0
M  V30 7070 C 640.101 1.28733 1.47265 0
M  V30 7071 O 641.307 1.67821 2.13421 0
M  V30 7072 C 639.763 3.57901 0.378787 0
M  V30 7073 C 639.371 4.38931 -0.896873 0
M  V30 7074 C 641.115 4.14504 0.915789 0
M  V30 7075 C 639.022 5.87591 -0.670133 0
M  V30 7076 H 637.952 0.750496 0.0726055 0
M  V30 7077 H 640.603 1.75965 -0.520425 0
M  V30 7078 H 638.985 3.79072 1.14543 0
M  V30 7079 H 640.159 4.29524 -1.66872 0
M  V30 7080 H 638.474 3.93586 -1.35938 0
M  V30 7081 H 641.071 5.23236 1.10126 0
M  V30 7082 H 641.414 3.71076 1.88701 0
M  V30 7083 H 641.947 3.97253 0.208523 0
M  V30 7084 H 638.686 6.35355 -1.61257 0
M  V30 7085 H 638.206 5.99767 0.0626368 0
M  V30 7086 H 639.885 6.46268 -0.307577 0
M  V30 7087 N 640.017 0.126909 1.57088 0
M  V30 7088 C 641.242 -0.53997 2.00248 0
M  V30 7089 C 641.667 -1.58927 1.00618 0
M  V30 7090 O 641.025 -1.81288 -0.0210131 0
M  V30 7091 C 641.073 -1.13565 3.4225 0
M  V30 7092 O 640.177 -2.25103 3.45547 0
M  V30 7093 H 639.518 -0.13412 0.650314 0
M  V30 7094 H 642.048 0.217718 2.03438 0
M  V30 7095 H 642.058 -1.46925 3.80627 0
M  V30 7096 H 640.733 -0.367122 4.14277 0
M  V30 7097 H 639.31 -1.93123 3.18995 0
M  V30 7098 N 641.495 -1.56914 -0.146875 0
M  V30 7099 C 642.906 -1.72799 -0.706928 0
M  V30 7100 C 643.257 -0.741329 -1.81656 0
M  V30 7101 O 642.382 0.0920162 -2.16204 0
M  V30 7102 C 642.977 -3.13317 -1.28911 0
M  V30 7103 C 641.536 -3.30803 -1.79573 0
M  V30 7104 C 640.683 -2.68725 -0.684252 0
M  V30 7105 H 643.634 -1.58504 0.0787931 0
M  V30 7106 H 643.655 -3.13323 -2.15891 0
M  V30 7107 H 643.167 -3.85104 -0.481284 0
M  V30 7108 H 641.268 -2.64012 -2.62923 0
M  V30 7109 H 641.381 -4.38754 -1.92436 0
M  V30 7110 H 639.745 -2.29196 -1.11091 0
M  V30 7111 H 640.528 -3.43117 0.112134 0
M  V30 7112 N 642.974 0.416227 -1.52004 0
M  V30 7113 C 644.199 1.19029 -1.69843 0
M  V30 7114 C 644.624 1.83708 -0.404103 0
M  V30 7115 O 643.982 1.69711 0.637787 0
M  V30 7116 C 644.03 2.23439 -2.83032 0
M  V30 7117 O 643.134 3.29419 -2.48106 0
M  V30 7118 H 642.475 0.347785 -0.565634 0
M  V30 7119 H 645.005 0.488871 -1.98674 0
M  V30 7120 H 645.015 2.67884 -3.07737 0
M  V30 7121 H 643.69 1.75745 -3.76944 0
M  V30 7122 H 642.267 2.90303 -2.34048 0
M  V30 7123 N 644.452 1.42507 0.673017 0
M  V30 7124 C 645.7 1.42789 1.43023 0
M  V30 7125 C 646.021 0.0459738 1.94946 0
M  V30 7126 O 645.291 -0.915765 1.73178 0
M  V30 7127 H 643.871 0.525657 0.530748 0
M  V30 7128 H 646.533 1.77944 0.795113 0
M  V30 7129 H 645.629 2.12872 2.28237 0
M  V30 7130 N 645.93 -0.909495 1.28709 0
M  V30 7131 C 647.207 -1.63865 1.06806 0
M  V30 7132 C 647.587 -2.07445 -0.391143 0
M  V30 7133 O 646.935 -1.82269 -1.37805 0
M  V30 7134 C 647.145 -2.82692 2.04661 0
M  V30 7135 C 648.493 -3.5361 2.35042 0
M  V30 7136 O 649.517 -2.92847 2.02779 0
M  V30 7137 O 648.376 -4.63131 2.90124 0
M  V30 7138 H 645.47 -0.719065 0.408502 0
M  V30 7139 H 648.016 -0.958424 1.40044 0
M  V30 7140 H 646.788 -2.47614 3.0299 0
M  V30 7141 H 646.411 -3.58426 1.72095 0
M  V30 7142 N 647.408 -1.11026 -1.11852 0
M  V30 7143 C 648.633 -0.879064 -1.87849 0
M  V30 7144 C 649.058 0.565406 -1.79401 0
M  V30 7145 O 648.416 1.39886 -1.15333 0
M  V30 7146 C 648.464 -1.33985 -3.34784 0
M  V30 7147 O 647.568 -0.508803 -4.09249 0
M  V30 7148 H 646.909 -0.316992 -0.583448 0
M  V30 7149 H 649.439 -1.47863 -1.41413 0
M  V30 7150 H 649.449 -1.33248 -3.85628 0
M  V30 7151 H 648.124 -2.39172 -3.40249 0
M  V30 7152 H 646.701 -0.581913 -3.68332 0
M  V30 7153 N 648.886 1.2938 -0.899927 0
M  V30 7154 C 650.111 2.00228 -0.540692 0
M  V30 7155 C 650.536 1.66909 0.867359 0
M  V30 7156 O 649.894 0.893824 1.57735 0
M  V30 7157 C 649.942 3.52921 -0.740232 0
M  V30 7158 O 649.046 4.11879 0.207154 0
M  V30 7159 H 648.387 0.629505 -0.211233 0
M  V30 7160 H 650.917 1.6487 -1.21158 0
M  V30 7161 H 650.927 4.0287 -0.644973 0
M  V30 7162 H 649.602 3.76508 -1.76677 0
M  V30 7163 H 648.179 3.72845 0.0643315 0
M  V30 7164 N 650.364 0.662433 1.43002 0
M  V30 7165 C 651.274 -0.0239199 2.34588 0
M  V30 7166 C 652.29 -0.802255 1.54402 0
M  V30 7167 O 653.466 -0.747401 1.87018 0
M  V30 7168 C 650.531 -0.972098 3.32793 0
M  V30 7169 C 649.592 -0.189673 4.28881 0
M  V30 7170 C 648.825 -1.09269 5.22395 0
M  V30 7171 O 649.048 -2.33209 5.20547 0
M  V30 7172 O 647.982 -0.560136 5.99288 0
M  V30 7173 H 651.808 0.730171 2.94792 0
M  V30 7174 H 649.393 0.422635 1.43297 0
M  V30 7175 H 651.275 -1.51676 3.93157 0
M  V30 7176 H 649.95 -1.70626 2.75079 0
M  V30 7177 H 648.857 0.398794 3.71968 0
M  V30 7178 H 650.19 0.50511 4.89601 0
M  V30 7179 N 651.842 -1.52309 0.404946 0
M  V30 7180 C 653.088 -2.02065 -0.172455 0
M  V30 7181 C 653.421 -1.29022 -1.45145 0
M  V30 7182 O 652.696 -0.395284 -1.90441 0
M  V30 7183 C 652.979 -3.5759 -0.424433 0
M  V30 7184 C 652.832 -4.41287 0.870945 0
M  V30 7185 C 654.151 -4.23186 -1.20837 0
M  V30 7186 H 651.27 -0.734454 -0.0612035 0
M  V30 7187 H 653.912 -1.82236 0.53759 0
M  V30 7188 H 652.062 -3.74617 -1.02929 0
M  V30 7189 H 653.734 -4.3598 1.50729 0
M  V30 7190 H 651.977 -4.07669 1.48284 0
M  V30 7191 H 652.648 -5.48171 0.649083 0
M  V30 7192 H 655.124 -4.10232 -0.696338 0
M  V30 7193 H 654 -5.31953 -1.35343 0
M  V30 7194 H 654.261 -3.81862 -2.22786 0
M  V30 7195 N 653.32 -0.135238 -1.57019 0
M  V30 7196 C 654.568 0.51777 -1.95355 0
M  V30 7197 C 654.889 1.6617 -1.02042 0
M  V30 7198 O 654.159 1.95738 -0.0797343 0
M  V30 7199 H 652.739 0.194264 -0.721298 0
M  V30 7200 H 655.401 -0.207983 -1.93787 0
M  V30 7201 H 654.497 0.901675 -2.98791 0
M  V30 7202 N 654.798 1.5699 0.138552 0
M  V30 7203 C 656.045 1.83809 0.849732 0
M  V30 7204 C 656.373 0.717409 1.80786 0
M  V30 7205 O 655.628 -0.292897 1.93496 0
M  V30 7206 C 655.927 3.17007 1.65049 0
M  V30 7207 C 655.593 4.43037 0.838398 0
M  V30 7208 C 654.255 4.77262 0.614385 0
M  V30 7209 C 656.607 5.20495 0.271044 0
M  V30 7210 C 653.935 5.864 -0.187552 0
M  V30 7211 C 656.287 6.30476 -0.517979 0
M  V30 7212 C 654.951 6.63245 -0.75249 0
M  V30 7213 H 654.221 0.672605 0.310939 0
M  V30 7214 H 656.868 1.91166 0.112971 0
M  V30 7215 H 655.173 3.05138 2.4576 0
M  V30 7216 H 656.87 3.34975 2.20437 0
M  V30 7217 H 653.46 4.16211 1.02307 0
M  V30 7218 H 657.644 4.94422 0.431371 0
M  V30 7219 H 652.9 6.10226 -0.378659 0
M  V30 7220 H 657.074 6.89686 -0.964694 0
M  V30 7221 H 654.701 7.47648 -1.37573 0
M  V30 7222 N 656.276 -0.40816 1.52223 0
M  V30 7223 C 657.516 -1.16418 1.68006 0
M  V30 7224 C 657.88 -1.87749 0.401793 0
M  V30 7225 O 659.081 -2.65245 0.435743 0
M  V30 7226 C 657.352 -2.13143 2.86889 0
M  V30 7227 S 658.911 -2.96839 3.2316 0
M  V30 7228 H 655.729 -0.394373 0.5916 0
M  V30 7229 H 658.331 -0.451349 1.90219 0
M  V30 7230 H 657.035 -1.59428 3.78168 0
M  V30 7231 H 656.566 -2.88963 2.66953 0
M  V30 7232 H 658.581 -4.151 2.71857 0
M  V30 7233 N 657.755 -1.42862 -0.66545 0
M  V30 7234 C 658.98 -1.47456 -1.45848 0
M  V30 7235 C 659.405 -0.0900312 -1.87884 0
M  V30 7236 O 658.763 0.913587 -1.56599 0
M  V30 7237 C 658.811 -2.41514 -2.67774 0
M  V30 7238 O 657.915 -1.89296 -3.66389 0
M  V30 7239 H 657.256 -0.499236 -0.437789 0
M  V30 7240 H 659.786 -1.8765 -0.815394 0
M  V30 7241 H 659.796 -2.58409 -3.15735 0
M  V30 7242 H 658.471 -3.42099 -2.36519 0
M  V30 7243 H 657.048 -1.82003 -3.25468 0
M  V30 7244 N 659.233 0.902656 -1.29189 0
M  V30 7245 C 660.181 2.0278 -1.13943 0
M  V30 7246 C 661.175 1.69308 -0.055787 0
M  V30 7247 O 662.381 1.78707 -0.215371 0
M  V30 7248 H 658.756 0.664595 -0.351877 0
M  V30 7249 H 660.727 2.12778 -2.09208 0
M  V30 7250 C 659.476 3.37657 -0.82966 0
M  V30 7251 H 658.799 3.63913 -1.65551 0
M  V30 7252 H 660.239 4.17078 -0.762998 0
M  V30 7253 C 658.698 3.33648 0.466991 0
M  V30 7254 O 659.228 3.72886 1.49395 0
M  V30 7255 N 657.434 2.86745 0.471761 0
M  V30 7256 H 656.981 2.55009 -0.364406 0
M  V30 7257 H 656.939 2.84446 1.33933 0
M  V30 7258 N 660.711 1.11618 1.11262 0
M  V30 7259 C 661.674 0.779447 2.15539 0
M  V30 7260 C 662.674 -0.202081 1.59525 0
M  V30 7261 O 663.864 0.0226356 1.74185 0
M  V30 7262 C 660.996 0.15674 3.40539 0
M  V30 7263 H 662.189 1.70324 2.4684 0
M  V30 7264 H 659.742 0.918298 1.26479 0
M  V30 7265 H 660.477 -0.777186 3.1485 0
M  V30 7266 H 660.262 0.863308 3.82478 0
M  V30 7267 H 661.752 -0.062661 4.17553 0
M  V30 7268 N 662.189 -1.289 0.906776 0
M  V30 7269 C 663.605 -1.47733 0.603902 0
M  V30 7270 C 663.805 -1.82568 -0.852702 0
M  V30 7271 O 662.861 -1.92642 -1.63234 0
M  V30 7272 C 664.174 -2.58522 1.53581 0
M  V30 7273 C 665.722 -2.72394 1.54177 0
M  V30 7274 C 666.197 -3.86318 2.46013 0
M  V30 7275 N 667.688 -3.93661 2.441 0
M  V30 7276 C 668.423 -4.81177 3.11859 0
M  V30 7277 N 667.919 -5.73333 3.88923 0
M  V30 7278 N 669.712 -4.74728 3.00981 0
M  V30 7279 H 661.863 -1.04567 1.84877 0
M  V30 7280 H 664.126 -0.520118 0.792579 0
M  V30 7281 H 663.832 -2.39667 2.57396 0
M  V30 7282 H 663.706 -3.55475 1.26165 0
M  V30 7283 H 666.093 -2.90641 0.511034 0
M  V30 7284 H 666.174 -1.75993 1.85634 0
M  V30 7285 H 665.818 -3.68826 3.49185 0
M  V30 7286 H 665.748 -4.82102 2.11862 0
M  V30 7287 H 668.239 -3.27751 1.88115 0
M  V30 7288 H 668.552 -6.36923 4.37663 0
M  V30 7289 H 666.897 -5.73196 3.93029 0
M  V30 7290 H 670.088 -4.01722 2.40286 0
M  V30 7291 H 670.261 -5.42719 3.54062 0
M  V30 7292 N 663.667 -0.670007 -1.42649 0
M  V30 7293 C 664.895 -0.19854 -2.05945 0
M  V30 7294 C 665.31 1.14243 -1.50313 0
M  V30 7295 O 664.667 1.70872 -0.641027 0
M  V30 7296 C 664.718 -0.11966 -3.61302 0
M  V30 7297 O 664.439 -1.40764 -4.1487 0
M  V30 7298 C 665.94 0.375878 -4.41704 0
M  V30 7299 H 663.16 -0.0976894 -0.663851 0
M  V30 7300 H 665.704 -0.915392 -1.82868 0
M  V30 7301 H 663.859 0.547851 -3.83507 0
M  V30 7302 H 664.273 -1.27784 -5.08696 0
M  V30 7303 H 665.747 0.379988 -5.50691 0
M  V30 7304 H 666.224 1.41028 -4.15942 0
M  V30 7305 H 666.83 -0.259727 -4.24506 0
M  V30 7306 N 665.145 1.52092 -0.413018 0
M  V30 7307 C 666.37 2.06756 0.163338 0
M  V30 7308 C 666.795 1.28073 1.37764 0
M  V30 7309 O 666.153 0.312015 1.78595 0
M  V30 7310 C 666.201 3.57278 0.488322 0
M  V30 7311 O 665.305 3.80986 1.57871 0
M  V30 7312 H 664.646 0.663882 0.0125068 0
M  V30 7313 H 667.176 1.95988 -0.587339 0
M  V30 7314 H 667.186 4.01125 0.745836 0
M  V30 7315 H 665.861 4.13978 -0.399327 0
M  V30 7316 H 664.438 3.49017 1.31306 0
M  V30 7317 N 666.623 0.143563 1.56945 0
M  V30 7318 C 667.869 -0.50916 1.96304 0
M  V30 7319 C 668.202 -1.64741 1.0283 0
M  V30 7320 O 667.477 -1.94374 0.0700361 0
M  V30 7321 C 667.76 -1.0186 3.45393 0
M  V30 7322 C 667.613 0.117923 4.49645 0
M  V30 7323 C 668.932 -1.90151 3.96901 0
M  V30 7324 H 666.051 -0.183608 0.713763 0
M  V30 7325 H 668.693 0.224095 1.88674 0
M  V30 7326 H 666.843 -1.64345 3.52027 0
M  V30 7327 H 668.515 0.754145 4.55094 0
M  V30 7328 H 666.758 0.777568 4.26774 0
M  V30 7329 H 667.429 -0.280187 5.51288 0
M  V30 7330 H 669.905 -1.375 3.92725 0
M  V30 7331 H 668.781 -2.22707 5.0169 0
M  V30 7332 H 669.042 -2.83718 3.39052 0
M  V30 7333 N 668.101 -1.57061 -0.130224 0
M  V30 7334 C 669.011 -2.02802 -1.17934 0
M  V30 7335 C 670.027 -0.946378 -1.46013 0
M  V30 7336 O 671.203 -1.25708 -1.57351 0
M  V30 7337 C 668.268 -2.41368 -2.48882 0
M  V30 7338 C 667.329 -3.63561 -2.28301 0
M  V30 7339 C 666.562 -4.00279 -3.53005 0
M  V30 7340 O 666.785 -3.37463 -4.59864 0
M  V30 7341 O 665.719 -4.93441 -3.44673 0
M  V30 7342 H 669.545 -2.92394 -0.820958 0
M  V30 7343 H 667.13 -1.45475 -0.340197 0
M  V30 7344 H 669.012 -2.66958 -3.26054 0
M  V30 7345 H 667.687 -1.54926 -2.84217 0
M  V30 7346 H 666.594 -3.43136 -1.49025 0
M  V30 7347 H 667.927 -4.50673 -1.97875 0
M  V30 7348 N 669.579 0.400081 -1.52437 0
M  V30 7349 C 670.804 1.17221 -1.71096 0
M  V30 7350 C 671.229 1.83269 -0.423565 0
M  V30 7351 O 670.587 1.70378 0.619751 0
M  V30 7352 C 670.635 2.20425 -2.85386 0
M  V30 7353 O 669.739 3.26769 -2.51586 0
M  V30 7354 H 669.08 0.341766 -0.569291 0
M  V30 7355 H 671.61 0.467772 -1.99181 0
M  V30 7356 H 671.62 2.64605 -3.10561 0
M  V30 7357 H 670.295 1.71737 -3.78786 0
M  V30 7358 H 668.872 2.87804 -2.37114 0
M  V30 7359 N 671.057 1.43213 0.657864 0
M  V30 7360 C 672.287 1.478 1.44356 0
M  V30 7361 C 672.695 0.0930206 1.88971 0
M  V30 7362 O 672.038 -0.906089 1.59799 0
M  V30 7363 C 672.1 2.35745 2.71412 0
M  V30 7364 C 671.764 3.83359 2.48767 0
M  V30 7365 C 672.761 4.74585 2.12285 0
M  V30 7366 C 670.446 4.27799 2.63235 0
M  V30 7367 C 672.44 6.08247 1.90562 0
M  V30 7368 C 670.127 5.61516 2.41128 0
M  V30 7369 C 671.125 6.51557 2.04847 0
M  V30 7370 O 670.813 7.82802 1.82967 0
M  V30 7371 H 670.545 0.504363 0.450104 0
M  V30 7372 H 673.099 1.88572 0.814241 0
M  V30 7373 H 671.329 1.89852 3.36887 0
M  V30 7374 H 673.018 2.31589 3.33348 0
M  V30 7375 H 673.784 4.41531 2.00687 0
M  V30 7376 H 669.663 3.57993 2.90451 0
M  V30 7377 H 673.207 6.78489 1.62168 0
M  V30 7378 H 669.104 5.94139 2.52327 0
M  V30 7379 H 669.872 7.94332 1.97429 0
M  V30 7380 N 672.536 -0.895792 1.29666 0
M  V30 7381 C 673.446 -2.03329 1.17024 0
M  V30 7382 C 674.462 -1.73753 0.0925962 0
M  V30 7383 O 675.638 -1.99071 0.305431 0
M  V30 7384 C 672.703 -3.36072 0.851841 0
M  V30 7385 C 671.764 -3.7914 2.01373 0
M  V30 7386 C 670.997 -5.05549 1.71043 0
M  V30 7387 O 671.22 -5.66874 0.633213 0
M  V30 7388 O 670.154 -5.44764 2.5596 0
M  V30 7389 H 673.98 -2.16918 2.12556 0
M  V30 7390 H 671.565 -1.02007 1.09156 0
M  V30 7391 H 673.447 -4.15729 0.689006 0
M  V30 7392 H 672.122 -3.23616 -0.0736634 0
M  V30 7393 H 671.029 -3.00233 2.23183 0
M  V30 7394 H 672.362 -3.96186 2.92058 0
M  V30 7395 N 674.014 -1.12206 -1.10668 0
M  V30 7396 C 675.425 -0.890657 -1.64086 0
M  V30 7397 C 675.776 0.575502 -1.8757 0
M  V30 7398 O 674.901 1.4394 -1.61587 0
M  V30 7399 C 675.496 -1.61029 -2.98085 0
M  V30 7400 C 674.055 -1.4251 -3.48379 0
M  V30 7401 C 673.202 -1.64778 -2.23033 0
M  V30 7402 H 676.153 -1.27718 -0.94201 0
M  V30 7403 H 676.174 -1.05993 -3.65439 0
M  V30 7404 H 675.686 -2.67735 -2.80962 0
M  V30 7405 H 673.787 -0.380497 -3.70652 0
M  V30 7406 H 673.9 -2.17959 -4.26651 0
M  V30 7407 H 672.264 -1.07171 -2.31055 0
M  V30 7408 H 673.047 -2.72776 -2.08443 0
M  V30 7409 N 675.492 1.28418 -0.913599 0
M  V30 7410 C 676.424 2.26368 -0.359169 0
M  V30 7411 C 677.437 1.54858 0.502285 0
M  V30 7412 O 678.626 1.75659 0.31719 0
M  V30 7413 C 675.726 3.35112 0.50526 0
M  V30 7414 C 674.899 4.36126 -0.333648 0
M  V30 7415 C 673.958 5.24134 0.465845 0
M  V30 7416 O 672.984 5.6907 -0.121538 0
M  V30 7417 N 674.186 5.52892 1.76891 0
M  V30 7418 H 676.951 2.74579 -1.2011 0
M  V30 7419 H 674.512 1.41898 -0.779532 0
M  V30 7420 H 676.504 3.90926 1.04684 0
M  V30 7421 H 675.074 2.86611 1.2479 0
M  V30 7422 H 674.294 3.79776 -1.0566 0
M  V30 7423 H 675.582 5.00638 -0.907669 0
M  V30 7424 H 674.98 5.18217 2.26865 0
M  V30 7425 H 673.537 6.11464 2.25732 0
M  V30 7426 N 676.97 0.677563 1.42291 0
M  V30 7427 C 678.216 0.201272 2.01799 0
M  V30 7428 C 678.549 -1.19004 1.53465 0
M  V30 7429 O 677.824 -1.79953 0.738039 0
M  V30 7430 C 678.107 0.238968 3.59306 0
M  V30 7431 C 677.96 1.66594 4.17812 0
M  V30 7432 C 679.279 -0.411287 4.38174 0
M  V30 7433 H 676.398 0.0746114 0.733214 0
M  V30 7434 H 679.04 0.862872 1.69276 0
M  V30 7435 H 677.19 -0.324368 3.87144 0
M  V30 7436 H 678.862 2.28173 4.00917 0
M  V30 7437 H 677.105 2.20576 3.73536 0
M  V30 7438 H 677.776 1.64398 5.26951 0
M  V30 7439 H 680.252 0.0682804 4.16044 0
M  V30 7440 H 679.128 -0.354286 5.47755 0
M  V30 7441 H 679.389 -1.4893 4.1626 0
M  V30 7442 N 678.448 -1.51871 0.421078 0
M  V30 7443 C 679.378 -2.30231 -0.389363 0
M  V30 7444 C 680.359 -1.34946 -1.03555 0
M  V30 7445 O 681.544 -1.63859 -1.04229 0
M  V30 7446 C 678.674 -3.13247 -1.49979 0
M  V30 7447 C 677.628 -4.16677 -0.977966 0
M  V30 7448 C 676.954 -4.88112 -2.1829 0
M  V30 7449 C 678.254 -5.22295 -0.0236775 0
M  V30 7450 H 679.948 -2.98229 0.264524 0
M  V30 7451 H 677.494 -1.43424 0.12866 0
M  V30 7452 H 679.447 -3.66838 -2.07383 0
M  V30 7453 H 678.171 -2.4304 -2.18173 0
M  V30 7454 H 676.83 -3.64114 -0.426245 0
M  V30 7455 H 676.478 -4.14423 -2.85066 0
M  V30 7456 H 676.178 -5.58041 -1.84021 0
M  V30 7457 H 677.702 -5.44521 -2.76278 0
M  V30 7458 H 679.116 -5.71055 -0.506899 0
M  V30 7459 H 677.513 -5.99656 0.230782 0
M  V30 7460 H 678.583 -4.76131 0.917999 0
M  V30 7461 N 679.926 -0.151884 -1.56866 0
M  V30 7462 C 680.836 0.798876 -2.20579 0
M  V30 7463 C 681.852 1.268 -1.19154 0
M  V30 7464 O 683.028 1.32418 -1.51748 0
M  V30 7465 C 680.093 2.01861 -2.81874 0
M  V30 7466 C 679.154 1.59825 -3.9844 0
M  V30 7467 C 678.387 2.75984 -4.56802 0
M  V30 7468 O 678.61 3.92331 -4.14044 0
M  V30 7469 O 677.544 2.51175 -5.46987 0
M  V30 7470 H 681.37 0.2865 -3.02346 0
M  V30 7471 H 678.955 0.0753806 -1.4921 0
M  V30 7472 H 680.837 2.73235 -3.20813 0
M  V30 7473 H 679.512 2.52042 -2.03117 0
M  V30 7474 H 678.419 0.854601 -3.64208 0
M  V30 7475 H 679.752 1.14355 -4.78731 0
M  V30 7476 N 681.404 1.57128 0.121893 0
M  V30 7477 C 682.336 1.96773 1.17529 0
M  V30 7478 C 683.349 0.866668 1.37814 0
M  V30 7479 O 684.538 1.14497 1.3694 0
M  V30 7480 C 681.638 2.24832 2.53582 0
M  V30 7481 C 680.811 3.56138 2.53939 0
M  V30 7482 C 679.87 3.72443 3.71716 0
M  V30 7483 O 678.896 4.44584 3.55434 0
M  V30 7484 N 680.098 3.10993 4.90167 0
M  V30 7485 H 682.863 2.87743 0.838086 0
M  V30 7486 H 680.424 1.58881 0.311199 0
M  V30 7487 H 682.416 2.32958 3.30927 0
M  V30 7488 H 680.986 1.40002 2.79496 0
M  V30 7489 H 680.206 3.59226 1.62329 0
M  V30 7490 H 681.494 4.42448 2.51231 0
M  V30 7491 H 680.892 2.52345 5.06299 0
M  V30 7492 H 679.449 3.24644 5.65198 0
M  V30 7493 N 682.882 -0.391992 1.52647 0
M  V30 7494 C 683.812 -1.48517 1.8018 0
M  V30 7495 C 684.793 -1.57039 0.653667 0
M  V30 7496 O 685.978 -1.72036 0.900962 0
M  V30 7497 C 683.108 -2.86161 1.96797 0
M  V30 7498 C 682.062 -2.92481 3.12472 0
M  V30 7499 C 681.388 -4.32546 3.14338 0
M  V30 7500 C 682.688 -2.624 4.51601 0
M  V30 7501 H 684.382 -1.25726 2.71723 0
M  V30 7502 H 681.928 -0.603387 1.30749 0
M  V30 7503 H 683.881 -3.62639 2.14641 0
M  V30 7504 H 682.605 -3.10283 1.01941 0
M  V30 7505 H 681.264 -2.18451 2.94406 0
M  V30 7506 H 680.912 -4.53703 2.1717 0
M  V30 7507 H 680.612 -4.37695 3.92042 0
M  V30 7508 H 682.136 -5.10934 3.34333 0
M  V30 7509 H 683.55 -3.28596 4.69785 0
M  V30 7510 H 681.947 -2.78903 5.3135 0
M  V30 7511 H 683.017 -1.57754 4.58521 0
M  V30 7512 N 684.36 -1.4356 -0.65026 0
M  V30 7513 C 685.31 -1.45392 -1.75628 0
M  V30 7514 C 686.294 -0.322006 -1.57645 0
M  V30 7515 O 687.486 -0.565996 -1.67707 0
M  V30 7516 C 684.615 -1.38254 -3.1423 0
M  V30 7517 C 683.701 -2.56487 -3.3775 0
M  V30 7518 N 684.092 -3.81824 -3.31729 0
M  V30 7519 C 682.39 -2.51274 -3.6848 0
M  V30 7520 C 683.091 -4.60497 -3.55412 0
M  V30 7521 N 682.067 -3.91274 -3.77367 0
M  V30 7522 H 685.869 -2.40167 -1.69402 0
M  V30 7523 H 683.383 -1.38254 -0.852037 0
M  V30 7524 H 685.38 -1.3765 -3.9352 0
M  V30 7525 H 684.04 -0.445019 -3.21636 0
M  V30 7526 H 685.051 -4.14069 -3.11074 0
M  V30 7527 H 681.728 -1.66223 -3.82983 0
M  V30 7528 H 683.118 -5.69518 -3.5651 0
M  V30 7529 N 685.838 0.888903 -1.30139 0
M  V30 7530 C 687.068 1.67115 -1.21474 0
M  V30 7531 C 687.476 1.87852 0.225472 0
M  V30 7532 O 686.819 1.42324 1.16145 0
M  V30 7533 C 686.881 3.0713 -1.86846 0
M  V30 7534 C 686.545 3.09582 -3.36167 0
M  V30 7535 C 687.542 2.88929 -4.32222 0
M  V30 7536 C 685.227 3.31304 -3.77549 0
M  V30 7537 C 687.221 2.89949 -5.67634 0
M  V30 7538 C 684.908 3.31954 -5.13079 0
M  V30 7539 C 685.906 3.113 -6.07932 0
M  V30 7540 O 685.594 3.11758 -7.40987 0
M  V30 7541 H 685.326 0.528372 -0.421662 0
M  V30 7542 H 687.88 1.11919 -1.7223 0
M  V30 7543 H 686.11 3.63973 -1.30615 0
M  V30 7544 H 687.799 3.6749 -1.72354 0
M  V30 7545 H 688.565 2.71948 -4.01584 0
M  V30 7546 H 684.444 3.46417 -3.04165 0
M  V30 7547 H 687.988 2.73746 -6.41645 0
M  V30 7548 H 683.885 3.48469 -5.43359 0
M  V30 7549 H 684.653 3.27951 -7.49927 0
M  V30 7550 N 687.317 1.12792 1.10072 0
M  V30 7551 C 688.564 0.885545 1.82111 0
M  V30 7552 C 688.892 -0.588519 1.85383 0
M  V30 7553 O 688.147 -1.45124 1.31292 0
M  V30 7554 C 688.446 1.4102 3.28403 0
M  V30 7555 C 688.112 2.89995 3.45273 0
M  V30 7556 C 686.774 3.30671 3.49585 0
M  V30 7557 C 689.126 3.85874 3.50358 0
M  V30 7558 C 686.454 4.65925 3.56553 0
M  V30 7559 C 688.806 5.20963 3.58859 0
M  V30 7560 C 687.47 5.61177 3.61437 0
M  V30 7561 H 686.74 0.324044 0.666391 0
M  V30 7562 H 689.387 1.40874 1.29718 0
M  V30 7563 H 687.692 0.807551 3.83387 0
M  V30 7564 H 689.389 1.19882 3.82661 0
M  V30 7565 H 685.979 2.57537 3.42597 0
M  V30 7566 H 690.163 3.5554 3.46273 0
M  V30 7567 H 685.419 4.96468 3.56833 0
M  V30 7568 H 689.593 5.95079 3.61738 0
M  V30 7569 H 687.22 6.6597 3.66589 0
M  V30 7570 N 688.795 -1.27931 0.920396 0
M  V30 7571 C 690.211 -1.47085 0.619537 0
M  V30 7572 C 690.411 -1.83463 -0.833291 0
M  V30 7573 O 689.467 -1.94363 -1.61181 0
M  V30 7574 C 690.78 -2.56878 1.56314 0
M  V30 7575 C 692.328 -2.70743 1.57058 0
M  V30 7576 C 692.803 -3.83687 2.50097 0
M  V30 7577 N 694.294 -3.9105 2.48262 0
M  V30 7578 C 695.029 -4.77842 3.16945 0
M  V30 7579 N 694.525 -5.69176 3.94982 0
M  V30 7580 N 696.318 -4.71509 3.06 0
M  V30 7581 H 688.469 -1.02601 1.85975 0
M  V30 7582 H 690.732 -0.511682 0.798051 0
M  V30 7583 H 690.438 -2.36923 2.59923 0
M  V30 7584 H 690.312 -3.54117 1.29928 0
M  V30 7585 H 692.699 -2.90083 0.541832 0
M  V30 7586 H 692.78 -1.74015 1.8749 0
M  V30 7587 H 692.424 -3.65101 3.53077 0
M  V30 7588 H 692.354 -4.79827 2.16964 0
M  V30 7589 H 694.845 -3.25738 1.91581 0
M  V30 7590 H 695.158 -6.32245 4.44394 0
M  V30 7591 H 693.503 -5.68995 3.99086 0
M  V30 7592 H 696.694 -3.99151 2.44533 0
M  V30 7593 H 696.867 -5.38933 3.59799 0
M  V30 7594 N 690.273 -0.685099 -1.4193 0
M  V30 7595 C 691.503 -0.220052 -2.05425 0
M  V30 7596 C 691.911 1.13185 -1.51611 0
M  V30 7597 O 691.254 1.71631 -0.654875 0
M  V30 7598 C 691.316 -0.0888364 -3.5939 0
M  V30 7599 C 690.98 -1.37109 -4.35947 0
M  V30 7600 C 691.977 -2.30675 -4.65924 0
M  V30 7601 C 689.662 -1.62155 -4.75406 0
M  V30 7602 C 691.656 -3.47556 -5.34306 0
M  V30 7603 C 689.343 -2.79324 -5.43527 0
M  V30 7604 C 690.341 -3.71848 -5.72903 0
M  V30 7605 O 690.029 -4.86966 -6.39624 0
M  V30 7606 H 689.761 -0.102165 -0.668235 0
M  V30 7607 H 692.315 -0.935194 -1.82875 0
M  V30 7608 H 690.545 0.681981 -3.80639 0
M  V30 7609 H 692.234 0.337669 -4.04493 0
M  V30 7610 H 693 -2.12579 -4.3593 0
M  V30 7611 H 688.879 -0.910053 -4.51928 0
M  V30 7612 H 692.423 -4.19794 -5.57153 0
M  V30 7613 H 688.32 -2.97342 -5.72938 0
M  V30 7614 H 689.088 -4.86644 -6.58118 0
M  V30 7615 N 691.751 1.51645 -0.429126 0
M  V30 7616 C 693.028 1.94579 0.199614 0
M  V30 7617 C 693.408 1.3673 1.60836 0
M  V30 7618 O 692.756 0.551062 2.21756 0
M  V30 7619 C 692.966 3.48506 0.185685 0
M  V30 7620 C 694.314 4.22756 0.395282 0
M  V30 7621 O 695.338 3.55219 0.264165 0
M  V30 7622 O 694.197 5.42555 0.655475 0
M  V30 7623 H 691.291 0.816007 0.134393 0
M  V30 7624 H 693.837 1.62577 -0.486513 0
M  V30 7625 H 692.609 3.83045 -0.799508 0
M  V30 7626 H 692.232 3.86927 0.91507 0
M  V30 7627 N 693.229 0.160201 1.56784 0
M  V30 7628 C 694.176 -0.774416 2.1742 0
M  V30 7629 C 695.146 -1.23483 1.11091 0
M  V30 7630 O 696.331 -1.30499 1.39193 0
M  V30 7631 C 693.471 -2.00283 2.81035 0
M  V30 7632 C 692.584 -1.58701 4.01793 0
M  V30 7633 C 691.719 -2.76824 4.53367 0
M  V30 7634 C 690.758 -2.31679 5.66561 0
M  V30 7635 N 689.895 -3.42856 6.12694 0
M  V30 7636 H 694.735 -0.250542 2.96945 0
M  V30 7637 H 692.272 -0.111943 1.46673 0
M  V30 7638 H 694.23 -2.72316 3.16069 0
M  V30 7639 H 692.86 -2.5006 2.04132 0
M  V30 7640 H 691.912 -0.76384 3.72652 0
M  V30 7641 H 693.224 -1.21555 4.83762 0
M  V30 7642 H 692.378 -3.57029 4.90525 0
M  V30 7643 H 691.117 -3.17223 3.70433 0
M  V30 7644 H 690.122 -1.49917 5.28966 0
M  V30 7645 H 691.347 -1.9235 6.5129 0
M  V30 7646 H 689.293 -3.82852 5.32692 0
M  V30 7647 H 689.21 -3.09767 6.89624 0
M  V30 7648 H 690.478 -4.23379 6.545 0
M  V30 7649 N 694.707 -1.5719 -0.113559 0
M  V30 7650 C 695.937 -1.89053 -0.833212 0
M  V30 7651 C 696.345 -0.750139 -1.73694 0
M  V30 7652 O 695.688 0.287808 -1.81431 0
M  V30 7653 C 695.75 -3.15986 -1.71443 0
M  V30 7654 C 695.414 -4.46271 -0.984449 0
M  V30 7655 C 696.411 -5.18897 -0.322741 0
M  V30 7656 C 694.096 -4.92963 -0.964011 0
M  V30 7657 C 696.09 -6.3644 0.349646 0
M  V30 7658 C 693.777 -6.10422 -0.287828 0
M  V30 7659 C 694.775 -6.82009 0.36784 0
M  V30 7660 O 694.463 -7.97233 1.03322 0
M  V30 7661 H 694.195 -0.630225 -0.244526 0
M  V30 7662 H 696.749 -2.05152 -0.100847 0
M  V30 7663 H 694.979 -2.95984 -2.48858 0
M  V30 7664 H 696.668 -3.33826 -2.309 0
M  V30 7665 H 697.434 -4.83875 -0.330114 0
M  V30 7666 H 693.313 -4.37143 -1.46379 0
M  V30 7667 H 696.857 -6.92254 0.861996 0
M  V30 7668 H 692.754 -6.449 -0.278237 0
M  V30 7669 H 693.522 -8.13105 0.938247 0
M  V30 7670 N 696.185 0.383891 -1.52853 0
M  V30 7671 C 697.148 1.45197 -1.77343 0
M  V30 7672 C 698.148 1.47362 -0.643522 0
M  V30 7673 O 699.338 1.48443 -0.911613 0
M  V30 7674 C 696.47 2.8445 -1.87885 0
M  V30 7675 H 697.663 1.24764 -2.72716 0
M  V30 7676 H 695.216 0.615939 -1.43652 0
M  V30 7677 H 695.951 3.10222 -0.94515 0
M  V30 7678 H 695.736 2.8428 -2.70051 0
M  V30 7679 H 697.226 3.61832 -2.08488 0
M  V30 7680 N 697.663 1.43903 0.642637 0
M  V30 7681 C 699.079 1.27536 0.959519 0
M  V30 7682 C 699.279 0.202751 2.00477 0
M  V30 7683 O 698.335 -0.415256 2.49062 0
M  V30 7684 C 699.648 2.6432 1.43372 0
M  V30 7685 C 701.196 2.71937 1.54981 0
M  V30 7686 C 701.671 4.09164 2.05789 0
M  V30 7687 N 703.162 4.11282 2.13076 0
M  V30 7688 C 703.897 5.14303 2.53534 0
M  V30 7689 N 703.393 6.27693 2.93212 0
M  V30 7690 N 705.186 5.01657 2.53567 0
M  V30 7691 H 697.337 2.12344 -0.0488376 0
M  V30 7692 H 699.6 0.947124 0.0407559 0
M  V30 7693 H 699.306 3.43826 0.740048 0
M  V30 7694 H 699.18 2.90432 2.40685 0
M  V30 7695 H 701.567 1.92757 2.23448 0
M  V30 7696 H 701.648 2.49578 0.560739 0
M  V30 7697 H 701.292 4.88815 1.37921 0
M  V30 7698 H 701.222 4.28893 3.05546 0
M  V30 7699 H 703.713 3.2944 1.85143 0
M  V30 7700 H 704.026 7.02125 3.22863 0
M  V30 7701 H 702.371 6.31149 2.90991 0
M  V30 7702 H 705.562 4.12134 2.21952 0
M  V30 7703 H 705.735 5.82072 2.84774 0
M  V30 7704 N 699.141 -0.881989 1.30609 0
M  V30 7705 C 700.366 -1.67236 1.22665 0
M  V30 7706 C 700.791 -1.8696 -0.206777 0
M  V30 7707 O 700.149 -1.4027 -1.14865 0
M  V30 7708 C 700.197 -3.02446 1.96363 0
M  V30 7709 O 699.301 -3.91614 1.29276 0
M  V30 7710 H 698.642 -0.510902 0.424117 0
M  V30 7711 H 701.172 -1.10055 1.72479 0
M  V30 7712 H 701.182 -3.52468 2.055 0
M  V30 7713 H 699.857 -2.8741 3.00613 0
M  V30 7714 H 698.434 -3.50055 1.28514 0
M  V30 7715 N 700.619 -1.13374 -1.09472 0
M  V30 7716 C 701.859 -0.905422 -1.83252 0
M  V30 7717 C 702.223 0.558396 -1.83701 0
M  V30 7718 O 703.424 0.904254 -2.53134 0
M  V30 7719 C 701.695 -1.47658 -3.25472 0
M  V30 7720 S 703.254 -1.38825 -4.16261 0
M  V30 7721 H 700.072 -0.326371 -0.631667 0
M  V30 7722 H 702.674 -1.44517 -1.31663 0
M  V30 7723 H 701.378 -2.53533 -3.22722 0
M  V30 7724 H 700.909 -0.934756 -3.82133 0
M  V30 7725 H 702.924 -0.366379 -4.94846 0
M  V30 7726 N 702.098 1.27442 -0.927168 0
M  V30 7727 C 703.514 1.46754 -0.627329 0
M  V30 7728 C 703.714 1.83902 0.823549 0
M  V30 7729 O 702.77 1.95215 1.60148 0
M  V30 7730 C 704.083 2.56045 -1.57674 0
M  V30 7731 C 705.631 2.69906 -1.58491 0
M  V30 7732 C 706.106 3.82355 -2.52128 0
M  V30 7733 N 707.597 3.89728 -2.50332 0
M  V30 7734 C 708.332 4.76155 -3.19475 0
M  V30 7735 N 707.828 5.67073 -3.97995 0
M  V30 7736 N 709.621 4.6988 -3.08496 0
M  V30 7737 H 701.772 1.01613 -1.86517 0
M  V30 7738 H 704.035 0.507443 -0.800753 0
M  V30 7739 H 703.741 2.35542 -2.61176 0
M  V30 7740 H 703.615 3.53423 -1.31804 0
M  V30 7741 H 706.002 2.89792 -0.557208 0
M  V30 7742 H 706.083 1.73018 -1.8841 0
M  V30 7743 H 705.727 3.63224 -3.55008 0
M  V30 7744 H 705.657 4.7867 -2.19505 0
M  V30 7745 H 708.148 3.24717 -1.93306 0
M  V30 7746 H 708.461 6.2988 -4.4774 0
M  V30 7747 H 706.806 5.6687 -4.02098 0
M  V30 7748 H 709.997 3.97848 -2.46646 0
M  V30 7749 H 710.17 5.37017 -3.62652 0
M  V30 7750 N 703.576 0.692616 1.41565 0
M  V30 7751 C 704.823 0.222335 2.01276 0
M  V30 7752 C 705.151 -1.17706 1.5484 0
M  V30 7753 O 704.406 -1.80795 0.749118 0
M  V30 7754 C 704.705 0.225073 3.56691 0
M  V30 7755 C 704.371 1.57158 4.22625 0
M  V30 7756 C 703.033 1.94022 4.40351 0
M  V30 7757 C 705.385 2.45758 4.59622 0
M  V30 7758 C 702.713 3.19076 4.92349 0
M  V30 7759 C 705.065 3.70141 5.13009 0
M  V30 7760 C 703.729 4.07152 5.28946 0
M  V30 7761 H 702.999 0.0813581 0.73652 0
M  V30 7762 H 705.646 0.891123 1.69503 0
M  V30 7763 H 703.951 -0.527259 3.88236 0
M  V30 7764 H 705.648 -0.156283 4.00695 0
M  V30 7765 H 702.238 1.27486 4.09201 0
M  V30 7766 H 706.422 2.18558 4.45585 0
M  V30 7767 H 701.678 3.4775 5.02872 0
M  V30 7768 H 705.852 4.38983 5.40617 0
M  V30 7769 H 703.479 5.04125 5.69001 0
M  V30 7770 N 705.054 -1.51416 0.437162 0
M  V30 7771 C 706.001 -2.27743 -0.374374 0
M  V30 7772 C 706.971 -1.31327 -1.01698 0
M  V30 7773 O 708.156 -1.60229 -1.03592 0
M  V30 7774 C 705.296 -3.12241 -1.46969 0
M  V30 7775 C 704.409 -4.23651 -0.845236 0
M  V30 7776 C 703.544 -4.95458 -1.91559 0
M  V30 7777 C 702.583 -5.98789 -1.26956 0
M  V30 7778 N 701.72 -6.64005 -2.28126 0
M  V30 7779 H 706.56 -2.96654 0.282892 0
M  V30 7780 H 704.097 -1.46319 0.151352 0
M  V30 7781 H 706.055 -3.59556 -2.11602 0
M  V30 7782 H 704.685 -2.45445 -2.09659 0
M  V30 7783 H 703.737 -3.803 -0.0872059 0
M  V30 7784 H 705.049 -4.97683 -0.333582 0
M  V30 7785 H 704.203 -5.46321 -2.63854 0
M  V30 7786 H 702.942 -4.21055 -2.46097 0
M  V30 7787 H 701.947 -5.47219 -0.53207 0
M  V30 7788 H 703.172 -6.75149 -0.731509 0
M  V30 7789 H 701.118 -5.92415 -2.81745 0
M  V30 7790 H 701.035 -7.33802 -1.81852 0
M  V30 7791 H 702.303 -7.19498 -2.99905 0
M  V30 7792 N 706.532 -0.168513 -1.56696 0
M  V30 7793 C 707.48 0.779791 -2.19139 0
M  V30 7794 C 708.474 1.23957 -1.1546 0
M  V30 7795 O 709.68 1.20555 -1.33666 0
M  V30 7796 H 706.055 0.269739 -0.701958 0
M  V30 7797 H 708.026 0.229156 -2.97519 0
M  V30 7798 C 706.775 2.00003 -2.84419 0
M  V30 7799 H 706.098 1.65527 -3.63924 0
M  V30 7800 H 707.538 2.64251 -3.31583 0
M  V30 7801 C 705.997 2.82187 -1.84044 0
M  V30 7802 O 706.527 3.79247 -1.32418 0
M  V30 7803 N 704.733 2.47145 -1.52864 0
M  V30 7804 H 704.28 1.68277 -1.9504 0
M  V30 7805 H 704.238 3.02422 -0.859569 0
M  V30 7806 N 708.01 1.57248 0.105221 0
M  V30 7807 C 708.957 2.01338 1.12835 0
M  V30 7808 C 709.927 0.887897 1.40377 0
M  V30 7809 O 711.112 1.15315 1.5201 0
M  V30 7810 C 708.252 2.43432 2.44611 0
M  V30 7811 C 707.365 3.69457 2.23888 0
M  V30 7812 C 706.5 4.00473 3.48991 0
M  V30 7813 C 705.539 5.19638 3.23485 0
M  V30 7814 N 704.676 5.46457 4.40828 0
M  V30 7815 H 709.516 2.88527 0.745386 0
M  V30 7816 H 707.053 1.42714 0.356535 0
M  V30 7817 H 709.011 2.65879 3.21503 0
M  V30 7818 H 707.641 1.59266 2.80774 0
M  V30 7819 H 706.693 3.54545 1.37847 0
M  V30 7820 H 708.005 4.56497 2.01026 0
M  V30 7821 H 707.159 4.23642 4.34295 0
M  V30 7822 H 705.898 3.11935 3.74897 0
M  V30 7823 H 704.903 4.96299 2.36574 0
M  V30 7824 H 706.128 6.09766 2.98935 0
M  V30 7825 H 704.074 4.60876 4.66829 0
M  V30 7826 H 703.991 6.27849 4.2112 0
M  V30 7827 H 705.259 5.74155 5.27225 0
M  V30 7828 N 709.488 -0.375779 1.53054 0
M  V30 7829 C 710.398 -1.48381 1.81715 0
M  V30 7830 C 711.414 -1.59087 0.704795 0
M  V30 7831 O 712.59 -1.75174 0.993785 0
M  V30 7832 C 709.655 -2.83767 1.99192 0
M  V30 7833 C 708.716 -2.82673 3.23102 0
M  V30 7834 C 707.949 -4.11601 3.39736 0
M  V30 7835 O 708.172 -5.07243 2.60885 0
M  V30 7836 O 707.106 -4.18034 4.33049 0
M  V30 7837 H 710.932 -1.27089 2.7583 0
M  V30 7838 H 708.517 -0.564902 1.38308 0
M  V30 7839 H 710.399 -3.64004 2.12318 0
M  V30 7840 H 709.074 -3.05057 1.08267 0
M  V30 7841 H 707.981 -2.0117 3.15407 0
M  V30 7842 H 709.314 -2.66335 4.13916 0
M  V30 7843 N 710.966 -1.44241 -0.634997 0
M  V30 7844 C 711.929 -1.50457 -1.72903 0
M  V30 7845 C 712.929 -0.387058 -1.56072 0
M  V30 7846 O 714.119 -0.649531 -1.61638 0
M  V30 7847 C 711.251 -1.37477 -3.1195 0
M  V30 7848 H 712.444 -2.47907 -1.68767 0
M  V30 7849 H 709.997 -1.31276 -0.84831 0
M  V30 7850 H 710.732 -0.41106 -3.21684 0
M  V30 7851 H 710.517 -2.18506 -3.25573 0
M  V30 7852 H 712.007 -1.44799 -3.91692 0
M  V30 7853 N 712.444 0.87505 -1.31075 0
M  V30 7854 C 713.669 1.66583 -1.23551 0
M  V30 7855 C 714.094 1.87067 0.19686 0
M  V30 7856 O 713.452 1.40877 1.1412 0
M  V30 7857 C 713.5 3.01401 -1.97965 0
M  V30 7858 O 712.604 3.90923 -1.31351 0
M  V30 7859 H 711.945 0.508645 -0.426821 0
M  V30 7860 H 714.475 1.09139 -1.7306 0
M  V30 7861 H 714.485 3.51374 -2.07366 0
M  V30 7862 H 713.16 2.85812 -3.02133 0
M  V30 7863 H 711.737 3.49369 -1.30368 0
M  V30 7864 N 713.922 1.13953 1.08869 0
M  V30 7865 C 715.169 0.90481 1.81161 0
M  V30 7866 C 715.497 -0.568824 1.85996 0
M  V30 7867 O 714.752 -1.43723 1.32823 0
M  V30 7868 C 715.051 1.44495 3.26888 0
M  V30 7869 C 714.717 2.93641 3.42178 0
M  V30 7870 C 713.379 3.34361 3.46059 0
M  V30 7871 C 715.731 3.89568 3.46246 0
M  V30 7872 C 713.059 4.69681 3.51592 0
M  V30 7873 C 715.411 5.2474 3.53314 0
M  V30 7874 C 714.075 5.64979 3.55465 0
M  V30 7875 H 713.345 0.331094 0.662916 0
M  V30 7876 H 715.992 1.42242 1.28217 0
M  V30 7877 H 714.297 0.848169 3.82509 0
M  V30 7878 H 715.994 1.23934 3.81368 0
M  V30 7879 H 712.584 2.61156 3.39846 0
M  V30 7880 H 716.768 3.59192 3.42483 0
M  V30 7881 H 712.024 5.00224 3.51547 0
M  V30 7882 H 716.198 5.98882 3.55406 0
M  V30 7883 H 713.825 6.69821 3.59505 0
M  V30 7884 N 715.4 -1.26948 0.933913 0
M  V30 7885 C 716.333 -2.24977 0.382169 0
M  V30 7886 C 717.311 -1.53893 -0.524949 0
M  V30 7887 O 718.495 -1.82699 -0.464048 0
M  V30 7888 C 715.622 -3.35676 -0.451615 0
M  V30 7889 C 714.668 -4.24686 0.392947 0
M  V30 7890 S 715.501 -5.03898 1.81237 0
M  V30 7891 C 716.657 -6.18078 0.986443 0
M  V30 7892 H 716.89 -2.71429 1.21299 0
M  V30 7893 H 714.423 -1.35701 0.736523 0
M  V30 7894 H 716.381 -3.99901 -0.926797 0
M  V30 7895 H 715.042 -2.8785 -1.25703 0
M  V30 7896 H 714.235 -5.03402 -0.245533 0
M  V30 7897 H 713.837 -3.65288 0.802537 0
M  V30 7898 H 716.129 -6.77125 0.225321 0
M  V30 7899 H 717.072 -6.86216 1.74682 0
M  V30 7900 H 717.48 -5.62047 0.525711 0
M  V30 7901 N 716.879 -0.700114 -1.41195 0
M  V30 7902 C 718.104 -0.240704 -2.05998 0
M  V30 7903 C 718.529 1.10313 -1.52357 0
M  V30 7904 O 717.887 1.69154 -0.652424 0
M  V30 7905 C 717.935 -0.213783 -3.59966 0
M  V30 7906 O 717.039 0.809933 -4.04368 0
M  V30 7907 H 716.38 -0.116471 -0.653705 0
M  V30 7908 H 718.91 -0.956251 -1.80878 0
M  V30 7909 H 718.92 -0.0461852 -4.07974 0
M  V30 7910 H 717.595 -1.19454 -3.98376 0
M  V30 7911 H 716.172 0.611319 -3.67855 0
M  V30 7912 N 718.357 1.51182 -0.445186 0
M  V30 7913 C 719.603 2.02452 0.11882 0
M  V30 7914 C 719.936 1.32824 1.41673 0
M  V30 7915 O 719.211 0.445637 1.89326 0
M  V30 7916 C 719.494 3.5859 0.329475 0
M  V30 7917 C 719.347 4.38823 -0.987638 0
M  V30 7918 C 720.666 4.26241 1.09575 0
M  V30 7919 H 717.785 0.735819 0.0417092 0
M  V30 7920 H 720.427 1.80747 -0.585718 0
M  V30 7921 H 718.577 3.77214 0.9296 0
M  V30 7922 H 720.249 4.3183 -1.62235 0
M  V30 7923 H 718.492 4.03594 -1.59041 0
M  V30 7924 H 719.163 5.46257 -0.794192 0
M  V30 7925 H 721.639 4.11934 0.587328 0
M  V30 7926 H 720.515 5.35354 1.21191 0
M  V30 7927 H 720.776 3.87635 2.12584 0
M  V30 7928 N 719.835 0.176821 1.56605 0
M  V30 7929 C 720.783 -0.768159 2.1955 0
M  V30 7930 C 721.777 -1.23343 1.16116 0
M  V30 7931 O 722.983 -1.19844 1.34303 0
M  V30 7932 H 719.358 -0.266013 0.703378 0
M  V30 7933 H 721.329 -0.213374 2.97636 0
M  V30 7934 C 720.078 -1.98492 2.85475 0
M  V30 7935 H 719.401 -1.63595 3.64797 0
M  V30 7936 H 720.841 -2.62489 3.3298 0
M  V30 7937 C 719.3 -2.81207 1.85538 0
M  V30 7938 O 719.83 -3.7854 1.34427 0
M  V30 7939 N 718.036 -2.46331 1.54173 0
M  V30 7940 H 717.583 -1.67241 1.95929 0
M  V30 7941 H 717.541 -3.01961 0.875595 0
M  V30 7942 N 721.313 -1.57302 -0.09688 0
M  V30 7943 C 722.223 -2.05258 -1.13606 0
M  V30 7944 C 723.239 -0.977137 -1.43972 0
M  V30 7945 O 724.415 -1.29018 -1.54649 0
M  V30 7946 C 721.48 -2.46593 -2.43706 0
M  V30 7947 C 720.541 -3.68322 -2.20538 0
M  V30 7948 C 719.774 -4.07676 -3.44435 0
M  V30 7949 O 719.997 -3.47141 -4.52603 0
M  V30 7950 O 718.931 -5.00641 -3.34129 0
M  V30 7951 H 722.757 -2.94069 -0.758752 0
M  V30 7952 H 720.342 -1.46164 -0.309263 0
M  V30 7953 H 722.224 -2.73814 -3.20318 0
M  V30 7954 H 720.899 -1.6092 -2.80867 0
M  V30 7955 H 719.806 -3.4622 -1.41713 0
M  V30 7956 H 721.139 -4.54769 -1.88271 0
M  V30 7957 N 722.791 0.367657 -1.53252 0
M  V30 7958 C 724.016 1.13566 -1.73544 0
M  V30 7959 C 724.441 1.82329 -0.462344 0
M  V30 7960 O 723.799 1.71655 0.583472 0
M  V30 7961 C 723.847 2.14322 -2.89997 0
M  V30 7962 O 722.951 3.21359 -2.58461 0
M  V30 7963 H 722.292 0.329614 -0.576412 0
M  V30 7964 H 724.822 0.425417 -2.00128 0
M  V30 7965 H 724.832 2.57958 -3.16104 0
M  V30 7966 H 723.507 1.63664 -3.82344 0
M  V30 7967 H 722.084 2.8271 -2.43165 0
M  V30 7968 N 724.269 1.44576 0.627338 0
M  V30 7969 C 725.509 1.49083 1.39834 0
M  V30 7970 C 725.873 0.121643 1.91614 0
M  V30 7971 O 727.074 0.0413885 2.68768 0
M  V30 7972 C 725.345 2.52467 2.52973 0
M  V30 7973 S 726.904 2.7605 3.41089 0
M  V30 7974 H 723.722 0.527252 0.476997 0
M  V30 7975 H 726.324 1.81525 0.725872 0
M  V30 7976 H 725.028 3.50646 2.13249 0
M  V30 7977 H 724.559 2.2161 3.25042 0
M  V30 7978 H 726.574 2.07932 4.50531 0
M  V30 7979 N 725.747 -0.868086 1.31537 0
M  V30 7980 C 726.977 -1.65162 1.24118 0
M  V30 7981 C 727.385 -1.88187 -0.195558 0
M  V30 7982 O 726.728 -1.44154 -1.13866 0
M  V30 7983 C 726.79 -3.04119 1.91708 0
M  V30 7984 C 726.454 -3.04194 3.4105 0
M  V30 7985 C 727.451 -2.82016 4.36764 0
M  V30 7986 C 725.136 -3.25256 3.82772 0
M  V30 7987 C 727.13 -2.80881 5.72175 0
M  V30 7988 C 724.817 -3.23749 5.18295 0
M  V30 7989 C 725.815 -3.01589 6.12808 0
M  V30 7990 O 725.503 -2.9993 7.45853 0
M  V30 7991 H 725.235 -0.521597 0.430015 0
M  V30 7992 H 727.789 -1.09165 1.73989 0
M  V30 7993 H 726.019 -3.61849 1.36389 0
M  V30 7994 H 727.708 -3.64701 1.78179 0
M  V30 7995 H 728.474 -2.65525 4.05859 0
M  V30 7996 H 724.353 -3.41534 3.09638 0
M  V30 7997 H 727.897 -2.63503 6.45919 0
M  V30 7998 H 723.794 -3.39781 5.48834 0
M  V30 7999 H 724.562 -3.15979 7.55049 0
M  V30 8000 N 727.225 -1.14528 -1.08264 0
M  V30 8001 C 728.172 -0.833556 -2.15222 0
M  V30 8002 C 729.142 0.209539 -1.64773 0
M  V30 8003 O 730.327 0.0791388 -1.90636 0
M  V30 8004 C 727.467 -0.318799 -3.43624 0
M  V30 8005 C 726.58 -1.42237 -4.07913 0
M  V30 8006 C 725.715 -0.864704 -5.24115 0
M  V30 8007 C 724.754 -1.94585 -5.80347 0
M  V30 8008 N 723.891 -1.40525 -6.87893 0
M  V30 8009 H 728.731 -1.74965 -2.41228 0
M  V30 8010 H 726.268 -0.873169 -1.18381 0
M  V30 8011 H 728.226 -0.00213088 -4.172 0
M  V30 8012 H 726.856 0.560397 -3.17898 0
M  V30 8013 H 725.908 -1.8554 -3.32083 0
M  V30 8014 H 727.22 -2.23901 -4.45724 0
M  V30 8015 H 726.374 -0.500025 -6.04636 0
M  V30 8016 H 725.113 -0.0171219 -4.87697 0
M  V30 8017 H 724.118 -2.31946 -4.98479 0
M  V30 8018 H 725.343 -2.79704 -6.18823 0
M  V30 8019 H 723.289 -0.579873 -6.53432 0
M  V30 8020 H 723.206 -2.15825 -7.24538 0
M  V30 8021 H 724.474 -1.06852 -7.72142 0
M  V30 8022 N 728.703 1.26451 -0.940633 0
M  V30 8023 C 729.933 1.97581 -0.603766 0
M  V30 8024 C 730.341 1.70246 0.825395 0
M  V30 8025 O 729.684 0.967001 1.56188 0
M  V30 8026 C 729.746 3.51256 -0.765463 0
M  V30 8027 C 729.41 4.0224 -2.16915 0
M  V30 8028 C 730.407 4.1402 -3.14457 0
M  V30 8029 C 728.092 4.36263 -2.48958 0
M  V30 8030 C 730.086 4.59117 -4.42143 0
M  V30 8031 C 727.773 4.81048 -3.76877 0
M  V30 8032 C 728.771 4.92436 -4.73282 0
M  V30 8033 O 728.459 5.36234 -5.98923 0
M  V30 8034 H 728.191 0.636948 -0.226436 0
M  V30 8035 H 730.745 1.61941 -1.2635 0
M  V30 8036 H 728.975 3.86669 -0.0485956 0
M  V30 8037 H 730.664 4.03597 -0.431738 0
M  V30 8038 H 731.43 3.87981 -2.91026 0
M  V30 8039 H 727.309 4.26634 -1.74656 0
M  V30 8040 H 730.853 4.6792 -5.17394 0
M  V30 8041 H 726.75 5.06531 -4.00121 0
M  V30 8042 H 727.518 5.54456 -6.02097 0
M  V30 8043 N 730.181 0.707592 1.40822 0
M  V30 8044 C 731.429 0.243189 2.00632 0
M  V30 8045 C 731.75 -1.16512 1.56365 0
M  V30 8046 O 731.02 -1.78841 0.799553 0
M  V30 8047 H 729.6 0.0869203 0.741926 0
M  V30 8048 H 732.262 0.911438 1.72275 0
M  V30 8049 H 731.358 0.270014 3.1093 0
M  V30 8050 N 731.66 -1.50943 0.453197 0
M  V30 8051 C 732.592 -2.25922 -0.38623 0
M  V30 8052 C 733.605 -1.3055 -0.972652 0
M  V30 8053 O 734.794 -1.56191 -0.864097 0
M  V30 8054 C 731.894 -3.01176 -1.5539 0
M  V30 8055 C 731.067 -4.23768 -1.0835 0
M  V30 8056 C 730.126 -4.81466 -2.12313 0
M  V30 8057 O 729.152 -5.42875 -1.71101 0
M  V30 8058 N 730.354 -4.66889 -3.44956 0
M  V30 8059 H 733.119 -2.98601 0.256468 0
M  V30 8060 H 730.68 -1.59408 0.282965 0
M  V30 8061 H 732.672 -3.36659 -2.24594 0
M  V30 8062 H 731.242 -2.31409 -2.10163 0
M  V30 8063 H 730.462 -3.93597 -0.217961 0
M  V30 8064 H 731.75 -5.03289 -0.746857 0
M  V30 8065 H 731.148 -4.18011 -3.81161 0
M  V30 8066 H 729.705 -5.06691 -4.1001 0
M  V30 8067 N 733.138 -0.185124 -1.56509 0
M  V30 8068 C 734.366 0.462139 -2.01673 0
M  V30 8069 C 734.781 1.55873 -1.06532 0
M  V30 8070 O 734.138 1.82371 -0.0684805 0
M  V30 8071 C 734.189 1.0277 -3.46584 0
M  V30 8072 O 733.91 -0.0251296 -4.38093 0
M  V30 8073 C 735.411 1.75183 -4.07217 0
M  V30 8074 H 732.631 0.117001 -0.660721 0
M  V30 8075 H 735.175 -0.290905 -2.0242 0
M  V30 8076 H 733.33 1.73118 -3.46568 0
M  V30 8077 H 733.744 0.394387 -5.23015 0
M  V30 8078 H 735.218 2.09999 -5.10494 0
M  V30 8079 H 735.695 2.6519 -3.50101 0
M  V30 8080 H 736.301 1.09445 -4.10977 0
M  V30 8081 N 734.616 1.57351 0.0885366 0
M  V30 8082 C 735.546 2.05561 1.10757 0
M  V30 8083 C 736.527 0.945789 1.41382 0
M  V30 8084 O 737.712 1.21747 1.51299 0
M  V30 8085 C 734.842 2.48554 2.42566 0
M  V30 8086 C 733.796 3.63259 2.26334 0
M  V30 8087 C 733.122 3.9225 3.63378 0
M  V30 8088 C 734.422 4.93913 1.69844 0
M  V30 8089 H 736.116 2.90946 0.706468 0
M  V30 8090 H 733.662 1.39968 0.338385 0
M  V30 8091 H 735.615 2.8089 3.14132 0
M  V30 8092 H 734.339 1.60176 2.84625 0
M  V30 8093 H 732.998 3.31179 1.57213 0
M  V30 8094 H 732.646 3.0103 4.02976 0
M  V30 8095 H 732.346 4.69478 3.53362 0
M  V30 8096 H 733.87 4.27067 4.36401 0
M  V30 8097 H 735.284 5.24588 2.31258 0
M  V30 8098 H 733.681 5.75349 1.70569 0
M  V30 8099 H 734.751 4.80409 0.65843 0
M  V30 8100 N 736.094 -0.359525 1.53444 0
M  V30 8101 C 737.371 -1.11756 1.6053 0
M  V30 8102 C 737.751 -2.06949 0.416587 0
M  V30 8103 O 737.099 -2.20681 -0.592628 0
M  V30 8104 C 737.309 -1.85133 2.95849 0
M  V30 8105 C 738.657 -2.3945 3.50641 0
M  V30 8106 O 739.681 -1.95251 2.97918 0
M  V30 8107 O 738.54 -3.20266 4.42823 0
M  V30 8108 H 735.634 -0.513005 0.648656 0
M  V30 8109 H 738.18 -0.362301 1.65787 0
M  V30 8110 H 736.952 -1.15694 3.73806 0
M  V30 8111 H 736.575 -2.67554 2.9411 0
M  V30 8112 N 737.572 -1.44907 -0.619662 0
M  V30 8113 C 738.502 -1.55488 -1.742 0
M  V30 8114 C 739.483 -0.407143 -1.65156 0
M  V30 8115 O 740.668 -0.628743 -1.8374 0
M  V30 8116 C 737.798 -1.5097 -3.1277 0
M  V30 8117 C 736.752 -2.64337 -3.36615 0
M  V30 8118 C 736.078 -2.44872 -4.75333 0
M  V30 8119 C 737.378 -4.06423 -3.28051 0
M  V30 8120 H 739.072 -2.49432 -1.65602 0
M  V30 8121 H 736.618 -1.20047 -0.795281 0
M  V30 8122 H 738.571 -1.56971 -3.91073 0
M  V30 8123 H 737.295 -0.535486 -3.2218 0
M  V30 8124 H 735.954 -2.57744 -2.60698 0
M  V30 8125 H 735.602 -1.45617 -4.81461 0
M  V30 8126 H 735.302 -3.20888 -4.92244 0
M  V30 8127 H 736.826 -2.52709 -5.55851 0
M  V30 8128 H 738.24 -4.14324 -3.96243 0
M  V30 8129 H 736.637 -4.82733 -3.56495 0
M  V30 8130 H 737.707 -4.29183 -2.25676 0
M  V30 8131 N 739.05 0.861098 -1.31996 0
M  V30 8132 C 740.275 1.65264 -1.2531 0
M  V30 8133 C 740.7 1.87265 0.177007 0
M  V30 8134 O 740.058 1.4208 1.12619 0
M  V30 8135 C 740.106 2.99284 -2.0115 0
M  V30 8136 O 739.21 3.89508 -1.3549 0
M  V30 8137 H 738.551 0.50409 -0.432192 0
M  V30 8138 H 741.081 1.07297 -1.74208 0
M  V30 8139 H 741.091 3.49154 -2.11081 0
M  V30 8140 H 739.766 2.82591 -3.05148 0
M  V30 8141 H 738.343 3.47966 -1.34066 0
M  V30 8142 N 740.528 1.15101 1.07655 0
M  V30 8143 C 741.475 0.844958 2.14777 0
M  V30 8144 C 742.445 -0.200798 1.64882 0
M  V30 8145 O 743.63 -0.0690278 1.90675 0
M  V30 8146 C 740.77 0.337018 3.4345 0
M  V30 8147 C 739.883 1.44398 4.07153 0
M  V30 8148 C 739.018 0.892487 5.23649 0
M  V30 8149 C 738.057 1.9766 5.79307 0
M  V30 8150 N 737.194 1.44171 6.87138 0
M  V30 8151 H 742.034 1.76242 2.40297 0
M  V30 8152 H 739.571 0.879435 1.17917 0
M  V30 8153 H 741.529 0.024256 4.17193 0
M  V30 8154 H 740.159 -0.543531 3.18191 0
M  V30 8155 H 739.211 1.87299 3.31094 0
M  V30 8156 H 740.523 2.26262 4.4453 0
M  V30 8157 H 739.677 0.532083 6.04362 0
M  V30 8158 H 738.416 0.0429854 4.87681 0
M  V30 8159 H 737.421 2.34586 4.97242 0
M  V30 8160 H 738.646 2.82982 6.17331 0
M  V30 8161 H 736.592 0.614518 6.53115 0
M  V30 8162 H 736.509 2.19665 7.23383 0
M  V30 8163 H 737.777 1.10945 7.71564 0
M  V30 8164 N 742.006 -1.2595 0.947325 0
M  V30 8165 C 742.954 -2.28152 0.452687 0
M  V30 8166 C 743.948 -1.62655 -0.473239 0
M  V30 8167 O 745.154 -1.76549 -0.350774 0
M  V30 8168 H 741.529 -0.741049 0.12787 0
M  V30 8169 H 743.5 -2.67267 1.32707 0
M  V30 8170 C 742.249 -3.46719 -0.26098 0
M  V30 8171 H 741.572 -3.97345 0.442352 0
M  V30 8172 H 743.012 -4.20135 -0.571208 0
M  V30 8173 C 741.471 -3.02605 -1.48094 0
M  V30 8174 O 742.001 -3.07979 -2.57899 0
M  V30 8175 N 740.207 -2.57877 -1.33969 0
M  V30 8176 H 739.754 -2.53704 -0.446295 0
M  V30 8177 H 739.712 -2.28725 -2.15713 0
M  V30 8178 N 743.484 -0.715051 -1.40445 0
M  V30 8179 C 744.709 -0.26254 -2.05732 0
M  V30 8180 C 745.134 1.08691 -1.53519 0
M  V30 8181 O 744.492 1.68453 -0.670328 0
M  V30 8182 C 744.54 -0.25195 -3.59719 0
M  V30 8183 O 743.644 0.766998 -4.05205 0
M  V30 8184 H 742.985 -0.123398 -0.652433 0
M  V30 8185 H 745.515 -0.975382 -1.79854 0
M  V30 8186 H 745.525 -0.0894537 -4.07902 0
M  V30 8187 H 744.2 -1.23672 -3.97087 0
M  V30 8188 H 742.777 0.572269 -3.68483 0
M  V30 8189 N 744.962 1.50701 -0.461195 0
M  V30 8190 C 746.211 2.01458 0.0988277 0
M  V30 8191 C 746.524 1.34863 1.41673 0
M  V30 8192 O 747.73 1.76721 2.06111 0
M  V30 8193 C 746.186 3.59186 0.226648 0
M  V30 8194 C 745.794 4.34732 -1.08223 0
M  V30 8195 C 747.538 4.18015 0.73916 0
M  V30 8196 C 745.445 5.8422 -0.918747 0
M  V30 8197 H 744.375 0.7529 0.040709 0
M  V30 8198 H 747.026 1.736 -0.594589 0
M  V30 8199 H 745.408 3.83589 0.983621 0
M  V30 8200 H 746.582 4.22059 -1.84939 0
M  V30 8201 H 744.897 3.87466 -1.52509 0
M  V30 8202 H 747.494 5.27436 0.878347 0
M  V30 8203 H 747.837 3.78746 1.72793 0
M  V30 8204 H 748.37 3.9778 0.0398469 0
M  V30 8205 H 745.109 6.27944 -1.88059 0
M  V30 8206 H 744.629 5.99493 -0.191801 0
M  V30 8207 H 746.308 6.44382 -0.581405 0
M  V30 8208 N 746.441 0.193421 1.56409 0
M  V30 8209 C 747.688 -0.445789 1.97532 0
M  V30 8210 C 748.016 -1.61744 1.08024 0
M  V30 8211 O 747.271 -1.95338 0.118982 0
M  V30 8212 C 747.57 -0.949718 3.44551 0
M  V30 8213 C 747.236 0.108383 4.5077 0
M  V30 8214 C 745.898 0.399126 4.79542 0
M  V30 8215 C 748.25 0.825423 5.14622 0
M  V30 8216 C 745.578 1.41192 5.69457 0
M  V30 8217 C 747.93 1.82735 6.05632 0
M  V30 8218 C 746.594 2.12531 6.32761 0
M  V30 8219 H 745.864 -0.163126 0.722822 0
M  V30 8220 H 748.511 0.290035 1.89291 0
M  V30 8221 H 746.816 -1.76378 3.49854 0
M  V30 8222 H 748.513 -1.45367 3.73724 0
M  V30 8223 H 745.103 -0.128392 4.28408 0
M  V30 8224 H 749.287 0.61403 4.92487 0
M  V30 8225 H 744.543 1.6487 5.88751 0
M  V30 8226 H 748.717 2.3882 6.5417 0
M  V30 8227 H 746.344 2.91155 7.02234 0
M  V30 8228 N 747.919 -1.57396 -0.0801906 0
M  V30 8229 C 749.166 -1.86836 -0.780927 0
M  V30 8230 C 749.494 -0.784012 -1.77999 0
M  V30 8231 O 748.749 0.220881 -1.94449 0
M  V30 8232 C 749.048 -3.22915 -1.53169 0
M  V30 8233 C 748.714 -4.45843 -0.67339 0
M  V30 8234 C 747.376 -4.79213 -0.436829 0
M  V30 8235 C 749.728 -5.21142 -0.0776786 0
M  V30 8236 C 747.056 -5.853 0.405062 0
M  V30 8237 C 749.408 -6.28119 0.751619 0
M  V30 8238 C 748.072 -6.59995 0.998131 0
M  V30 8239 H 747.342 -0.683682 -0.285761 0
M  V30 8240 H 749.989 -1.91454 -0.0419435 0
M  V30 8241 H 748.294 -3.14049 -2.34265 0
M  V30 8242 H 749.991 -3.42926 -2.07853 0
M  V30 8243 H 746.581 -4.19721 -0.867891 0
M  V30 8244 H 750.765 -4.95682 -0.247572 0
M  V30 8245 H 746.021 -6.084 0.60488 0
M  V30 8246 H 750.195 -6.8563 1.22 0
M  V30 8247 H 747.822 -7.42027 1.65227 0
M  V30 8248 N 749.397 0.351382 -1.53633 0
M  V30 8249 C 750.643 1.09411 -1.70754 0
M  V30 8250 C 750.976 1.88544 -0.465293 0
M  V30 8251 O 750.251 1.86923 0.537608 0
M  V30 8252 C 750.534 2.04173 -2.96623 0
M  V30 8253 C 750.387 1.28556 -4.31038 0
M  V30 8254 C 751.706 3.04102 -3.18136 0
M  V30 8255 H 748.825 0.396373 -0.621335 0
M  V30 8256 H 751.467 0.373464 -1.86293 0
M  V30 8257 H 749.617 2.65625 -2.83506 0
M  V30 8258 H 751.289 0.697786 -4.55992 0
M  V30 8259 H 749.532 0.587498 -4.29803 0
M  V30 8260 H 750.203 1.97989 -5.15271 0
M  V30 8261 H 752.679 2.5276 -3.30532 0
M  V30 8262 H 751.555 3.67616 -4.07615 0
M  V30 8263 H 751.816 3.75053 -2.34068 0
M  V30 8264 N 750.875 1.45233 0.611969 0
M  V30 8265 C 751.822 1.5357 1.72293 0
M  V30 8266 C 752.792 0.381912 1.6165 0
M  V30 8267 O 753.977 0.594765 1.81293 0
M  V30 8268 C 751.117 1.50419 3.10593 0
M  V30 8269 C 750.23 2.76316 3.32074 0
M  V30 8270 C 749.365 2.64866 4.60456 0
M  V30 8271 C 748.404 3.85838 4.7518 0
M  V30 8272 N 747.541 3.72949 5.94856 0
M  V30 8273 H 752.381 2.4848 1.64504 0
M  V30 8274 H 749.918 1.23302 0.802191 0
M  V30 8275 H 751.876 1.4658 3.90602 0
M  V30 8276 H 750.506 0.590621 3.17351 0
M  V30 8277 H 749.558 2.90261 2.45872 0
M  V30 8278 H 750.87 3.66055 3.38829 0
M  V30 8279 H 750.024 2.58969 5.48653 0
M  V30 8280 H 748.763 1.72719 4.56092 0
M  V30 8281 H 747.768 3.92099 3.85407 0
M  V30 8282 H 748.993 4.79045 4.81344 0
M  V30 8283 H 746.939 2.83567 5.91545 0
M  V30 8284 H 746.856 4.56319 6.02751 0
M  V30 8285 H 748.124 3.70976 6.85563 0
M  V30 8286 N 752.353 -0.854086 1.3245 0
M  V30 8287 C 753.578 -1.64597 1.26185 0
M  V30 8288 C 754.003 -1.87357 -0.167074 0
M  V30 8289 O 753.361 -1.42675 -1.11864 0
M  V30 8290 C 753.409 -2.98213 2.02734 0
M  V30 8291 O 752.513 -3.88784 1.37554 0
M  V30 8292 H 751.854 -0.50179 0.434859 0
M  V30 8293 H 754.384 -1.06372 1.74775 0
M  V30 8294 H 754.394 -3.4803 2.1293 0
M  V30 8295 H 753.069 -2.80969 3.06642 0
M  V30 8296 H 751.646 -3.4725 1.3591 0
M  V30 8297 N 753.831 -1.1567 -1.07043 0
M  V30 8298 C 755.056 -0.957946 -1.83952 0
M  V30 8299 C 755.481 0.488807 -1.81638 0
M  V30 8300 O 754.839 1.34869 -1.21162 0
M  V30 8301 C 754.887 -1.48064 -3.288 0
M  V30 8302 O 753.991 -0.681921 -4.06723 0
M  V30 8303 H 753.332 -0.341453 -0.569479 0
M  V30 8304 H 755.862 -1.53728 -1.35015 0
M  V30 8305 H 755.872 -1.49484 -3.7963 0
M  V30 8306 H 754.547 -2.53388 -3.29799 0
M  V30 8307 H 753.124 -0.737612 -3.65532 0
M  V30 8308 N 755.309 1.25446 -0.953992 0
M  V30 8309 C 756.586 1.884 -0.525823 0
M  V30 8310 C 756.966 1.86079 0.996891 0
M  V30 8311 O 756.314 1.32389 1.8624 0
M  V30 8312 C 756.524 3.31154 -1.10172 0
M  V30 8313 C 757.872 4.07926 -1.17819 0
M  V30 8314 O 758.896 3.40273 -1.05323 0
M  V30 8315 O 757.755 5.28942 -1.37415 0
M  V30 8316 H 754.849 0.808629 -0.173345 0
M  V30 8317 H 757.395 1.33522 -1.04738 0
M  V30 8318 H 756.167 3.27271 -2.14499 0
M  V30 8319 H 755.79 3.93588 -0.56338 0
M  V30 8320 N 756.787 0.722489 1.40064 0
M  V30 8321 C 758.034 0.264979 2.00759 0
M  V30 8322 C 758.362 -1.14395 1.57302 0
M  V30 8323 O 757.617 -1.79165 0.787298 0
M  V30 8324 C 757.916 0.300682 3.56133 0
M  V30 8325 C 757.582 1.66087 4.19197 0
M  V30 8326 C 756.244 2.03319 4.36136 0
M  V30 8327 C 758.596 2.55452 4.54306 0
M  V30 8328 C 755.924 3.29448 4.8547 0
M  V30 8329 C 758.276 3.8094 5.05042 0
M  V30 8330 C 756.94 4.1828 5.2019 0
M  V30 8331 H 756.21 0.0969625 0.734629 0
M  V30 8332 H 758.857 0.926877 1.67575 0
M  V30 8333 H 757.162 -0.44479 3.89267 0
M  V30 8334 H 758.859 -0.0712542 4.00937 0
M  V30 8335 H 755.449 1.36137 4.06405 0
M  V30 8336 H 759.633 2.27961 4.40849 0
M  V30 8337 H 754.889 3.58338 4.95382 0
M  V30 8338 H 759.063 4.50351 5.31184 0
M  V30 8339 H 756.69 5.16081 5.58179 0
M  V30 8340 N 758.265 -1.50454 0.469181 0
M  V30 8341 C 759.197 -2.26319 -0.362247 0
M  V30 8342 C 760.21 -1.31574 -0.958751 0
M  V30 8343 O 761.399 -1.57099 -0.847482 0
M  V30 8344 C 758.499 -3.02808 -1.52187 0
M  V30 8345 C 757.672 -4.24893 -1.03849 0
M  V30 8346 C 756.731 -4.83691 -2.07194 0
M  V30 8347 O 755.757 -5.44659 -1.65333 0
M  V30 8348 N 756.959 -4.70522 -3.39985 0
M  V30 8349 H 759.724 -2.98312 0.288124 0
M  V30 8350 H 757.285 -1.59099 0.299856 0
M  V30 8351 H 759.277 -3.39023 -2.21011 0
M  V30 8352 H 757.847 -2.33625 -2.07697 0
M  V30 8353 H 757.067 -3.93806 -0.176203 0
M  V30 8354 H 758.355 -5.04053 -0.693435 0
M  V30 8355 H 757.753 -4.2203 -3.76706 0
M  V30 8356 H 756.31 -5.11011 -4.04612 0
M  V30 8357 N 759.743 -0.201713 -1.56304 0
M  V30 8358 C 760.693 0.729444 -2.16016 0
M  V30 8359 C 761.677 1.17164 -1.10279 0
M  V30 8360 O 762.869 1.12893 -1.36324 0
M  V30 8361 C 759.998 1.94594 -2.82822 0
M  V30 8362 C 759.084 1.52434 -3.95758 0
M  V30 8363 N 759.475 0.814106 -4.99205 0
M  V30 8364 C 757.773 1.81314 -4.07481 0
M  V30 8365 C 758.474 0.601896 -5.78578 0
M  V30 8366 N 757.45 1.15263 -5.3124 0
M  V30 8367 H 761.252 0.178163 -2.93359 0
M  V30 8368 H 758.766 -0.00218038 -1.624 0
M  V30 8369 H 760.763 2.62357 -3.23998 0
M  V30 8370 H 759.423 2.50188 -2.06969 0
M  V30 8371 H 760.434 0.468872 -5.15773 0
M  V30 8372 H 757.111 2.3837 -3.42762 0
M  V30 8373 H 758.501 0.0380119 -6.71889 0
M  V30 8374 N 761.222 1.57436 0.0718424 0
M  V30 8375 C 762.152 2.06724 1.08571 0
M  V30 8376 C 763.133 0.960731 1.40371 0
M  V30 8377 O 764.318 1.23345 1.49999 0
M  V30 8378 C 761.448 2.51112 2.39916 0
M  V30 8379 C 760.402 3.65639 2.22469 0
M  V30 8380 C 759.728 3.96082 3.59198 0
M  V30 8381 C 761.028 4.95687 1.64596 0
M  V30 8382 H 762.722 2.91679 0.675569 0
M  V30 8383 H 760.268 1.40319 0.32352 0
M  V30 8384 H 762.221 2.84206 3.11135 0
M  V30 8385 H 760.945 1.63186 2.8291 0
M  V30 8386 H 759.604 3.32828 1.53691 0
M  V30 8387 H 759.252 3.05287 3.99761 0
M  V30 8388 H 758.952 4.73199 3.48362 0
M  V30 8389 H 760.476 4.31672 4.31847 0
M  V30 8390 H 761.89 5.27011 2.25681 0
M  V30 8391 H 760.287 5.77126 1.64457 0
M  V30 8392 H 761.357 4.8108 0.60744 0
M  V30 8393 N 762.7 -0.34323 1.53817 0
M  V30 8394 C 763.925 -1.1079 1.75329 0
M  V30 8395 C 764.35 -1.81571 0.491293 0
M  V30 8396 O 763.708 -1.72561 -0.556089 0
M  V30 8397 C 763.756 -2.09681 2.9337 0
M  V30 8398 O 762.86 -3.17207 2.63541 0
M  V30 8399 H 762.201 -0.320402 0.581583 0
M  V30 8400 H 764.731 -0.393525 2.0078 0
M  V30 8401 H 764.741 -2.52897 3.20168 0
M  V30 8402 H 763.416 -1.5756 3.84899 0
M  V30 8403 H 761.993 -2.78806 2.47632 0
M  V30 8404 N 764.178 -1.45556 -0.604258 0
M  V30 8405 C 765.425 -1.49746 -1.36317 0
M  V30 8406 C 765.753 -0.140516 -1.93992 0
M  V30 8407 O 765.008 0.861244 -1.7573 0
M  V30 8408 C 765.307 -2.52697 -2.52743 0
M  V30 8409 C 764.973 -3.97315 -2.13195 0
M  V30 8410 C 763.635 -4.36692 -2.02123 0
M  V30 8411 C 765.987 -4.88249 -1.8238 0
M  V30 8412 C 763.315 -5.64895 -1.58463 0
M  V30 8413 C 765.667 -6.16867 -1.40205 0
M  V30 8414 C 764.331 -6.55172 -1.27694 0
M  V30 8415 H 763.601 -0.54796 -0.49882 0
M  V30 8416 H 766.248 -1.7892 -0.682643 0
M  V30 8417 H 764.553 -2.17105 -3.26148 0
M  V30 8418 H 766.25 -2.53176 -3.10971 0
M  V30 8419 H 762.84 -3.66176 -2.22739 0
M  V30 8420 H 767.024 -4.58561 -1.89829 0
M  V30 8421 H 762.28 -5.93365 -1.47402 0
M  V30 8422 H 766.454 -6.86771 -1.15408 0
M  V30 8423 H 764.081 -7.54411 -0.936375 0
M  V30 8424 N 765.656 0.84705 -1.32902 0
M  V30 8425 C 766.586 1.97166 -1.25091 0
M  V30 8426 C 767.567 1.69578 -0.133161 0
M  V30 8427 O 768.752 1.91519 -0.321591 0
M  V30 8428 C 765.882 3.33157 -0.981006 0
M  V30 8429 C 764.836 3.75119 -2.06082 0
M  V30 8430 C 764.162 5.08826 -1.64318 0
M  V30 8431 C 765.462 3.89774 -3.47669 0
M  V30 8432 H 767.156 2.03958 -2.19184 0
M  V30 8433 H 764.702 0.979907 -1.05517 0
M  V30 8434 H 766.655 4.11393 -0.912891 0
M  V30 8435 H 765.379 3.266 -0.00445559 0
M  V30 8436 H 764.038 2.9914 -2.11921 0
M  V30 8437 H 763.686 4.98732 -0.653876 0
M  V30 8438 H 763.386 5.37873 -2.36572 0
M  V30 8439 H 764.91 5.89546 -1.58958 0
M  V30 8440 H 766.324 4.58343 -3.44376 0
M  V30 8441 H 764.721 4.30248 -4.18338 0
M  V30 8442 H 765.791 2.92463 -3.86773 0
M  V30 8443 N 767.134 1.16236 1.06428 0
M  V30 8444 C 768.081 0.86769 2.13869 0
M  V30 8445 C 769.051 -0.183298 1.65086 0
M  V30 8446 O 770.236 -0.0488002 1.90738 0
M  V30 8447 C 767.376 0.373427 3.43074 0
M  V30 8448 C 766.489 1.48708 4.05598 0
M  V30 8449 C 765.624 0.947977 5.22673 0
M  V30 8450 C 764.663 2.03793 5.77178 0
M  V30 8451 N 763.8 1.51451 6.85571 0
M  V30 8452 H 768.64 1.78781 2.38414 0
M  V30 8453 H 766.177 0.891892 1.16977 0
M  V30 8454 H 768.135 0.0685035 4.17144 0
M  V30 8455 H 766.765 -0.509752 3.1875 0
M  V30 8456 H 765.817 1.908 3.29089 0
M  V30 8457 H 767.129 2.30964 4.42105 0
M  V30 8458 H 766.283 0.596154 6.03764 0
M  V30 8459 H 765.022 0.0947081 4.87608 0
M  V30 8460 H 764.027 2.39847 4.94726 0
M  V30 8461 H 765.252 2.89514 6.14295 0
M  V30 8462 H 763.198 0.683755 6.52427 0
M  V30 8463 H 763.115 2.27325 7.21013 0
M  V30 8464 H 764.383 1.19123 7.70344 0
M  V30 8465 N 768.612 -1.24939 0.960631 0
M  V30 8466 C 769.852 -1.94565 0.626414 0
M  V30 8467 C 770.216 -1.73505 -0.822184 0
M  V30 8468 O 771.417 -2.37105 -1.26628 0
M  V30 8469 C 769.688 -3.43631 0.982462 0
M  V30 8470 S 771.247 -4.32138 0.761726 0
M  V30 8471 H 768.065 -0.672757 0.230043 0
M  V30 8472 H 770.667 -1.51464 1.23608 0
M  V30 8473 H 769.371 -3.56463 2.03377 0
M  V30 8474 H 768.902 -3.91719 0.363286 0
M  V30 8475 H 770.917 -4.94859 -0.364493 0
M  V30 8476 N 770.09 -0.729906 -1.39679 0
M  V30 8477 C 771.02 -0.101618 -2.33279 0
M  V30 8478 C 772.001 0.729854 -1.53646 0
M  V30 8479 O 773.186 0.67587 -1.82059 0
M  V30 8480 C 770.316 0.81024 -3.37716 0
M  V30 8481 C 769.27 0.0833126 -4.27919 0
M  V30 8482 C 768.596 1.11185 -5.23012 0
M  V30 8483 C 769.896 -1.07107 -5.112 0
M  V30 8484 H 771.59 -0.883452 -2.86069 0
M  V30 8485 H 769.136 -0.426283 -1.37546 0
M  V30 8486 H 771.089 1.25927 -4.02145 0
M  V30 8487 H 769.813 1.62413 -2.83354 0
M  V30 8488 H 768.472 -0.346043 -3.64963 0
M  V30 8489 H 768.12 1.91917 -4.64948 0
M  V30 8490 H 767.82 0.63026 -5.8421 0
M  V30 8491 H 769.344 1.56068 -5.90318 0
M  V30 8492 H 770.758 -0.700726 -5.69002 0
M  V30 8493 H 769.155 -1.48196 -5.81514 0
M  V30 8494 H 770.225 -1.89513 -4.46332 0
M  V30 8495 N 771.568 1.50203 -0.477153 0
M  V30 8496 C 772.516 2.30278 0.327826 0
M  V30 8497 C 773.51 1.37831 0.984839 0
M  V30 8498 O 774.716 1.54994 0.915251 0
M  V30 8499 H 771.091 0.741612 0.124564 0
M  V30 8500 H 773.062 2.96124 -0.367853 0
M  V30 8501 C 771.811 3.18548 1.39365 0
M  V30 8502 H 771.134 3.89596 0.897475 0
M  V30 8503 H 772.574 3.77561 1.92934 0
M  V30 8504 C 771.033 2.36548 2.39889 0
M  V30 8505 O 771.563 2.05282 3.45286 0
M  V30 8506 N 769.769 1.99015 2.11758 0
M  V30 8507 H 769.316 2.24641 1.26071 0
M  V30 8508 H 769.274 1.44454 2.7925 0
M  V30 8509 N 773.046 0.209999 1.56195 0
M  V30 8510 C 773.976 -0.699746 2.22769 0
M  V30 8511 C 774.957 -1.20993 1.1956 0
M  V30 8512 O 776.142 -1.25605 1.48112 0
M  V30 8513 C 773.272 -1.91302 2.89863 0
M  V30 8514 C 772.226 -1.53715 3.99444 0
M  V30 8515 C 771.552 -2.82826 4.53777 0
M  V30 8516 C 772.852 -0.735836 5.17091 0
M  V30 8517 H 774.546 -0.144716 2.9905 0
M  V30 8518 H 772.092 -0.0681645 1.43839 0
M  V30 8519 H 774.045 -2.5548 3.35124 0
M  V30 8520 H 772.769 -2.49283 2.11011 0
M  V30 8521 H 771.428 -0.918892 3.54897 0
M  V30 8522 H 771.076 -3.38927 3.71669 0
M  V30 8523 H 770.776 -2.58415 5.27727 0
M  V30 8524 H 772.3 -3.47966 5.01749 0
M  V30 8525 H 773.714 -1.28105 5.58804 0
M  V30 8526 H 772.111 -0.589272 5.972 0
M  V30 8527 H 773.181 0.260004 4.84202 0
M  V30 8528 N 774.524 -1.57472 -0.0634922 0
M  V30 8529 C 775.749 -1.92273 -0.77756 0
M  V30 8530 C 776.174 -0.807141 -1.69902 0
M  V30 8531 O 775.532 0.239523 -1.79711 0
M  V30 8532 C 775.58 -3.26054 -1.54017 0
M  V30 8533 O 774.684 -3.15873 -2.65138 0
M  V30 8534 H 774.025 -0.629389 -0.211579 0
M  V30 8535 H 776.555 -2.04579 -0.0292523 0
M  V30 8536 H 776.565 -3.60127 -1.91763 0
M  V30 8537 H 775.24 -4.06824 -0.864128 0
M  V30 8538 H 773.817 -2.93373 -2.30189 0
M  V30 8539 N 776.003 0.335068 -1.53997 0
M  V30 8540 C 777.251 1.07223 -1.71312 0
M  V30 8541 C 777.572 1.88911 -0.483486 0
M  V30 8542 O 776.842 1.89344 0.50257 0
M  V30 8543 H 775.422 0.398846 -0.63161 0
M  V30 8544 H 778.084 0.374288 -1.91272 0
M  V30 8545 H 777.18 1.7448 -2.58772 0
M  V30 8546 N 777.481 1.45874 0.596531 0
M  V30 8547 C 778.429 1.55739 1.72766 0
M  V30 8548 C 779.423 0.426666 1.63939 0
M  V30 8549 O 780.629 0.60301 1.69599 0
M  V30 8550 H 777.004 0.489386 0.570968 0
M  V30 8551 H 778.975 2.50871 1.61575 0
M  V30 8552 C 777.724 1.55174 3.11153 0
M  V30 8553 H 777.047 2.41511 3.1861 0
M  V30 8554 H 778.487 1.66133 3.90097 0
M  V30 8555 C 776.946 0.278001 3.35751 0
M  V30 8556 O 777.476 -0.637557 3.96608 0
M  V30 8557 N 775.682 0.170227 2.90101 0
M  V30 8558 H 775.229 0.916159 2.40758 0
M  V30 8559 H 775.187 -0.68117 3.06932 0
M  V30 8560 N 778.959 -0.83999 1.33349 0
M  V30 8561 C 779.889 -1.965 1.26135 0
M  V30 8562 C 780.87 -1.69505 0.142152 0
M  V30 8563 O 782.055 -1.91346 0.331743 0
M  V30 8564 C 779.185 -3.32632 0.99866 0
M  V30 8565 C 778.139 -3.74021 2.08068 0
M  V30 8566 C 777.465 -5.07947 1.67014 0
M  V30 8567 C 778.765 -3.87925 3.49731 0
M  V30 8568 H 780.459 -2.02793 2.20262 0
M  V30 8569 H 778.005 -0.974297 1.06035 0
M  V30 8570 H 779.958 -4.10903 0.934696 0
M  V30 8571 H 778.682 -3.26593 0.0217759 0
M  V30 8572 H 777.341 -2.98012 2.13505 0
M  V30 8573 H 776.989 -4.98378 0.680316 0
M  V30 8574 H 776.689 -5.36611 2.39422 0
M  V30 8575 H 778.213 -5.88695 1.62082 0
M  V30 8576 H 779.627 -4.5651 3.46802 0
M  V30 8577 H 778.024 -4.28023 4.20614 0
M  V30 8578 H 779.094 -2.90407 3.88319 0
M  V30 8579 N 780.437 -1.16799 -1.0581 0
M  V30 8580 C 781.686 -0.94698 -1.78088 0
M  V30 8581 C 781.999 0.526016 -1.88394 0
M  V30 8582 O 783.205 0.865061 -2.5735 0
M  V30 8583 C 781.661 -1.64508 -3.20102 0
M  V30 8584 C 781.269 -3.15618 -3.17946 0
M  V30 8585 C 783.013 -1.50622 -3.96879 0
M  V30 8586 C 780.92 -3.78144 -4.5471 0
M  V30 8587 H 779.85 -0.35067 -0.667493 0
M  V30 8588 H 782.501 -1.39985 -1.18645 0
M  V30 8589 H 780.883 -1.11993 -3.79834 0
M  V30 8590 H 782.057 -3.75016 -2.67768 0
M  V30 8591 H 780.372 -3.29444 -2.54667 0
M  V30 8592 H 782.969 -1.94713 -4.97987 0
M  V30 8593 H 783.312 -0.455864 -4.13797 0
M  V30 8594 H 783.845 -2.00319 -3.43682 0
M  V30 8595 H 780.584 -4.83149 -4.42998 0
M  V30 8596 H 780.104 -3.23532 -5.05062 0
M  V30 8597 H 781.783 -3.79986 -5.2366 0
M  V30 8598 N 781.915 1.24427 -0.967243 0
M  V30 8599 C 783.14 1.9708 -0.646069 0
M  V30 8600 C 783.565 1.71272 0.777665 0
M  V30 8601 O 782.923 0.976179 1.52776 0
M  V30 8602 C 782.971 3.48501 -0.926266 0
M  V30 8603 O 782.075 4.12398 -0.0114653 0
M  V30 8604 H 781.416 0.617423 -0.244304 0
M  V30 8605 H 783.946 1.58215 -1.29727 0
M  V30 8606 H 783.956 3.98885 -0.857619 0
M  V30 8607 H 782.631 3.66613 -1.96386 0
M  V30 8608 H 781.208 3.72661 -0.133396 0
M  V30 8609 N 783.393 0.737304 1.3929 0
M  V30 8610 C 784.325 0.0592106 2.29124 0
M  V30 8611 C 785.338 -0.701026 1.46934 0
M  V30 8612 O 786.527 -0.544808 1.69983 0
M  V30 8613 C 783.627 -0.940358 3.25592 0
M  V30 8614 C 782.8 -0.241163 4.36735 0
M  V30 8615 C 781.859 -1.14916 5.13498 0
M  V30 8616 O 780.885 -0.625783 5.6575 0
M  V30 8617 N 782.087 -2.47869 5.2492 0
M  V30 8618 H 784.852 0.830647 2.87959 0
M  V30 8619 H 782.413 0.586718 1.50895 0
M  V30 8620 H 784.405 -1.55046 3.73822 0
M  V30 8621 H 782.975 -1.61299 2.67771 0
M  V30 8622 H 782.195 0.549441 3.90352 0
M  V30 8623 H 783.483 0.243299 5.08218 0
M  V30 8624 H 782.881 -2.92864 4.83991 0
M  V30 8625 H 781.438 -3.03969 5.76581 0
M  V30 8626 N 784.871 -1.49948 0.485112 0
M  V30 8627 C 786.099 -2.06806 -0.0622824 0
M  V30 8628 C 786.514 -1.34736 -1.32256 0
M  V30 8629 O 785.871 -0.420836 -1.77582 0
M  V30 8630 C 785.922 -3.59934 -0.336096 0
M  V30 8631 O 785.643 -4.29289 0.874203 0
M  V30 8632 C 787.144 -4.33459 -0.928903 0
M  V30 8633 H 784.364 -0.670867 0.0133472 0
M  V30 8634 H 786.908 -1.92937 0.677917 0
M  V30 8635 H 785.063 -3.7356 -1.02625 0
M  V30 8636 H 785.477 -5.20735 0.627332 0
M  V30 8637 H 786.951 -5.41527 -1.07017 0
M  V30 8638 H 787.428 -3.94881 -1.92265 0
M  V30 8639 H 788.034 -4.24399 -0.276705 0
M  V30 8640 N 786.349 -0.21828 -1.56081 0
M  V30 8641 C 787.279 0.687922 -2.23136 0
M  V30 8642 C 788.26 1.20357 -1.202 0
M  V30 8643 O 789.445 1.24817 -1.48776 0
M  V30 8644 C 786.575 1.89762 -2.90874 0
M  V30 8645 C 785.529 1.51595 -4.00254 0
M  V30 8646 C 784.855 2.80415 -4.55271 0
M  V30 8647 C 786.155 0.708404 -5.17474 0
M  V30 8648 H 787.849 0.128854 -2.99123 0
M  V30 8649 H 785.395 0.0605354 -1.43873 0
M  V30 8650 H 787.348 2.53699 -3.36474 0
M  V30 8651 H 786.072 2.4816 -2.1233 0
M  V30 8652 H 784.731 0.900058 -3.55379 0
M  V30 8653 H 784.379 3.36951 -3.73461 0
M  V30 8654 H 784.079 2.55613 -5.2909 0
M  V30 8655 H 785.603 3.453 -5.03587 0
M  V30 8656 H 787.017 1.2514 -5.59476 0
M  V30 8657 H 785.414 0.557593 -5.97504 0
M  V30 8658 H 786.484 -0.285679 -4.84058 0
M  V30 8659 N 787.827 1.57504 0.0551401 0
M  V30 8660 C 788.775 2.05884 1.08233 0
M  V30 8661 C 789.769 0.967383 1.39061 0
M  V30 8662 O 790.975 1.15242 1.38273 0
M  V30 8663 H 787.35 0.656673 0.366449 0
M  V30 8664 H 789.321 2.91273 0.648269 0
M  V30 8665 C 788.07 2.53221 2.38273 0
M  V30 8666 H 787.393 3.36809 2.15406 0
M  V30 8667 H 788.833 2.9081 3.08554 0
M  V30 8668 C 787.292 1.42218 3.05411 0
M  V30 8669 O 787.822 0.773638 3.9418 0
M  V30 8670 N 786.028 1.16316 2.66306 0
M  V30 8671 H 785.575 1.69237 1.94207 0
M  V30 8672 H 785.533 0.422534 3.11548 0
M  V30 8673 N 789.305 -0.326896 1.54172 0
M  V30 8674 C 790.553 -1.06313 1.71878 0
M  V30 8675 C 790.874 -1.88652 0.493498 0
M  V30 8676 O 790.144 -1.89608 -0.492522 0
M  V30 8677 H 788.724 -0.39549 0.633716 0
M  V30 8678 H 791.386 -0.364139 1.91468 0
M  V30 8679 H 790.482 -1.73105 2.59694 0
M  V30 8680 N 790.784 -1.46188 -0.588786 0
M  V30 8681 C 792.009 -1.5498 -1.37826 0
M  V30 8682 C 792.434 -0.189498 -1.87143 0
M  V30 8683 O 791.792 0.829293 -1.61222 0
M  V30 8684 C 791.84 -2.55369 -2.54596 0
M  V30 8685 O 790.944 -2.08452 -3.55839 0
M  V30 8686 H 790.285 -0.521741 -0.41071 0
M  V30 8687 H 792.815 -1.91708 -0.714779 0
M  V30 8688 H 792.825 -2.74782 -3.01594 0
M  V30 8689 H 791.5 -3.54155 -2.18052 0
M  V30 8690 H 790.077 -1.98999 -3.15363 0
M  V30 8691 N 792.262 0.832906 -1.33792 0
M  V30 8692 C 793.172 1.97514 -1.26592 0
M  V30 8693 C 794.188 1.73114 -0.175391 0
M  V30 8694 O 795.364 1.97387 -0.400062 0
M  V30 8695 C 792.429 3.31625 -1.01121 0
M  V30 8696 C 791.49 3.69101 -2.19233 0
M  V30 8697 C 790.723 4.96813 -1.94968 0
M  V30 8698 O 790.946 5.63208 -0.902955 0
M  V30 8699 O 789.88 5.31932 -2.8166 0
M  V30 8700 H 793.706 2.0653 -2.22664 0
M  V30 8701 H 791.291 0.966826 -1.13898 0
M  V30 8702 H 793.173 4.11968 -0.886571 0
M  V30 8703 H 791.848 3.23599 -0.080822 0
M  V30 8704 H 790.755 2.89243 -2.37253 0
M  V30 8705 H 792.088 3.818 -3.10628 0
M  V30 8706 N 793.74 1.17359 1.05189 0
M  V30 8707 C 794.987 0.961987 1.78191 0
M  V30 8708 C 795.315 -0.509363 1.87712 0
M  V30 8709 O 794.57 -1.39425 1.37329 0
M  V30 8710 C 794.869 1.54821 3.22126 0
M  V30 8711 C 794.535 3.04378 3.32663 0
M  V30 8712 C 793.197 3.45201 3.35246 0
M  V30 8713 C 795.549 4.00387 3.33677 0
M  V30 8714 C 792.877 4.80629 3.36471 0
M  V30 8715 C 795.229 5.35715 3.36441 0
M  V30 8716 C 793.893 5.76002 3.37311 0
M  V30 8717 H 793.163 0.352016 0.652047 0
M  V30 8718 H 795.81 1.46249 1.23627 0
M  V30 8719 H 794.115 0.969432 3.79617 0
M  V30 8720 H 795.812 1.36004 3.77232 0
M  V30 8721 H 792.402 2.71836 3.31366 0
M  V30 8722 H 796.586 3.69906 3.30882 0
M  V30 8723 H 791.842 5.11155 3.35455 0
M  V30 8724 H 796.016 6.09886 3.36173 0
M  V30 8725 H 793.643 6.80919 3.38013 0
M  V30 8726 N 795.218 -1.23913 0.973828 0
M  V30 8727 C 796.15 -2.24397 0.466763 0
M  V30 8728 C 797.163 -1.57078 -0.427828 0
M  V30 8729 O 798.352 -1.76973 -0.233019 0
M  V30 8730 C 795.452 -3.37141 -0.344798 0
M  V30 8731 C 794.625 -4.34037 0.541349 0
M  V30 8732 C 793.684 -5.2576 -0.215243 0
M  V30 8733 O 792.71 -5.67842 0.39291 0
M  V30 8734 N 793.912 -5.60702 -1.5031 0
M  V30 8735 H 796.677 -2.68536 1.33074 0
M  V30 8736 H 794.238 -1.38017 0.846346 0
M  V30 8737 H 796.23 -3.95476 -0.859133 0
M  V30 8738 H 794.8 -2.92239 -1.10974 0
M  V30 8739 H 794.02 -3.74302 1.23659 0
M  V30 8740 H 795.308 -4.95738 1.1455 0
M  V30 8741 H 794.706 -5.28451 -2.01882 0
M  V30 8742 H 793.263 -6.21538 -1.96301 0
M  V30 8743 N 796.696 -0.74468 -1.38897 0
M  V30 8744 C 798.107 -0.36568 -1.83084 0
M  V30 8745 C 798.458 1.10436 -1.62168 0
M  V30 8746 O 797.583 1.85281 -1.11804 0
M  V30 8747 C 798.178 -0.656946 -3.3237 0
M  V30 8748 C 796.737 -0.331329 -3.74939 0
M  V30 8749 C 795.884 -0.914661 -2.61781 0
M  V30 8750 H 798.835 -0.941551 -1.27752 0
M  V30 8751 H 798.856 0.0679546 -3.80439 0
M  V30 8752 H 798.368 -1.72693 -3.47561 0
M  V30 8753 H 796.469 0.732426 -3.6533 0
M  V30 8754 H 796.582 -0.820655 -4.72019 0
M  V30 8755 H 794.946 -0.34063 -2.52412 0
M  V30 8756 H 795.729 -1.98949 -2.79775 0
M  V30 8757 N 798.174 1.49689 -0.493057 0
M  V30 8758 C 799.104 2.31826 0.279073 0
M  V30 8759 C 800.085 1.39733 0.969987 0
M  V30 8760 O 801.27 1.68646 0.962925 0
M  V30 8761 C 798.4 3.20046 1.34862 0
M  V30 8762 C 797.354 4.20869 0.77805 0
M  V30 8763 C 796.68 4.97971 1.94753 0
M  V30 8764 C 797.98 5.21813 -0.225543 0
M  V30 8765 H 799.674 2.96627 -0.406512 0
M  V30 8766 H 797.22 1.42647 -0.196943 0
M  V30 8767 H 799.173 3.76315 1.89645 0
M  V30 8768 H 797.897 2.53172 2.06328 0
M  V30 8769 H 796.556 3.65733 0.252036 0
M  V30 8770 H 796.204 4.27552 2.64969 0
M  V30 8771 H 795.904 5.66186 1.57187 0
M  V30 8772 H 797.428 5.57082 2.49984 0
M  V30 8773 H 798.842 5.72823 0.233864 0
M  V30 8774 H 797.239 5.97872 -0.516622 0
M  V30 8775 H 798.309 4.71209 -1.14412 0
M  V30 8776 N 799.652 0.226554 1.55963 0
M  V30 8777 C 800.615 -0.668015 2.19249 0
M  V30 8778 C 801.615 -1.11794 1.1558 0
M  V30 8779 O 802.805 -1.02593 1.40784 0
M  V30 8780 C 799.937 -1.91571 2.81981 0
M  V30 8781 H 801.13 -0.116175 2.99675 0
M  V30 8782 H 798.683 -0.0230497 1.56283 0
M  V30 8783 H 799.418 -2.50929 2.05439 0
M  V30 8784 H 799.203 -1.6015 3.57903 0
M  V30 8785 H 800.693 -2.55294 3.30477 0
M  V30 8786 N 801.13 -1.57531 -0.0467866 0
M  V30 8787 C 802.04 -2.08768 -1.07018 0
M  V30 8788 C 803.056 -1.02245 -1.40791 0
M  V30 8789 O 804.232 -1.33873 -1.50466 0
M  V30 8790 C 801.297 -2.54221 -2.35738 0
M  V30 8791 C 800.358 -3.75152 -2.08709 0
M  V30 8792 C 799.591 -4.18428 -3.31291 0
M  V30 8793 O 799.814 -3.61365 -4.4133 0
M  V30 8794 O 798.748 -5.11018 -3.18032 0
M  V30 8795 H 802.574 -2.96334 -0.664812 0
M  V30 8796 H 800.159 -1.47074 -0.262605 0
M  V30 8797 H 802.041 -2.83866 -3.11445 0
M  V30 8798 H 800.716 -1.69774 -2.75605 0
M  V30 8799 H 799.623 -3.50553 -1.30627 0
M  V30 8800 H 800.956 -4.60528 -1.73708 0
M  V30 8801 N 802.608 0.318715 -1.54344 0
M  V30 8802 C 803.538 1.39751 -1.87061 0
M  V30 8803 C 804.519 1.53741 -0.727848 0
M  V30 8804 O 805.704 1.67541 -0.982016 0
M  V30 8805 C 802.834 2.76446 -2.10226 0
M  V30 8806 C 801.788 2.77239 -3.26071 0
M  V30 8807 C 801.114 4.17056 -3.34617 0
M  V30 8808 C 802.414 2.40555 -4.63606 0
M  V30 8809 H 804.108 1.12619 -2.77412 0
M  V30 8810 H 801.654 0.540318 -1.33479 0
M  V30 8811 H 803.607 3.51985 -2.31699 0
M  V30 8812 H 802.331 3.05066 -1.16629 0
M  V30 8813 H 800.99 2.04155 -3.04493 0
M  V30 8814 H 800.638 4.42824 -2.3857 0
M  V30 8815 H 800.338 4.18492 -4.12478 0
M  V30 8816 H 801.862 4.94401 -3.5833 0
M  V30 8817 H 803.276 3.05808 -4.84927 0
M  V30 8818 H 801.673 2.53234 -5.44052 0
M  V30 8819 H 802.743 1.35698 -4.65526 0
M  V30 8820 N 804.086 1.46499 0.581025 0
M  V30 8821 C 805.502 1.31491 0.904563 0
M  V30 8822 C 805.702 0.287598 1.99437 0
M  V30 8823 O 804.758 -0.309247 2.50599 0
M  V30 8824 C 806.071 2.70163 1.32032 0
M  V30 8825 C 807.619 2.78266 1.43308 0
M  V30 8826 C 808.094 4.17524 1.8825 0
M  V30 8827 N 809.585 4.19949 1.9544 0
M  V30 8828 C 810.32 5.24594 2.31493 0
M  V30 8829 N 809.816 6.39564 2.66326 0
M  V30 8830 N 811.609 5.11961 2.32062 0
M  V30 8831 H 803.76 2.11946 -0.138856 0
M  V30 8832 H 806.023 0.948 0.000548528 0
M  V30 8833 H 805.729 3.46655 0.593554 0
M  V30 8834 H 805.603 3.00379 2.2815 0
M  V30 8835 H 807.99 2.02061 2.15071 0
M  V30 8836 H 808.071 2.51732 0.45438 0
M  V30 8837 H 807.715 4.94225 1.17065 0
M  V30 8838 H 807.645 4.41466 2.87081 0
M  V30 8839 H 810.136 3.36996 1.71004 0
M  V30 8840 H 810.449 7.15187 2.92793 0
M  V30 8841 H 808.794 6.42923 2.6396 0
M  V30 8842 H 811.985 4.21177 2.04272 0
M  V30 8843 H 812.158 5.93626 2.5983 0
M  V30 8844 N 805.565 -0.825799 1.34232 0
M  V30 8845 C 806.795 -1.61129 1.29309 0
M  V30 8846 C 807.203 -1.88714 -0.135589 0
M  V30 8847 O 806.546 -1.47703 -1.09222 0
M  V30 8848 C 806.608 -2.97866 2.01287 0
M  V30 8849 C 806.272 -2.9319 3.50555 0
M  V30 8850 C 807.269 -2.67978 4.45515 0
M  V30 8851 C 804.954 -3.12913 3.92926 0
M  V30 8852 C 806.948 -2.62536 5.80822 0
M  V30 8853 C 804.635 -3.07096 5.28333 0
M  V30 8854 C 805.633 -2.8194 6.22092 0
M  V30 8855 O 805.321 -2.7605 7.55018 0
M  V30 8856 H 805.053 -0.507652 0.446391 0
M  V30 8857 H 807.607 -1.03575 1.77374 0
M  V30 8858 H 805.837 -3.57327 1.47832 0
M  V30 8859 H 807.526 -3.58848 1.89691 0
M  V30 8860 H 808.292 -2.52478 4.14101 0
M  V30 8861 H 804.171 -3.3151 3.20347 0
M  V30 8862 H 807.715 -2.42821 6.53975 0
M  V30 8863 H 803.612 -3.22148 5.59367 0
M  V30 8864 H 804.38 -2.91798 7.6472 0
M  V30 8865 N 807.043 -1.17915 -1.04565 0
M  V30 8866 C 807.973 -0.925033 -2.14395 0
M  V30 8867 C 808.954 0.135375 -1.6956 0
M  V30 8868 O 810.139 -0.0161774 -1.94193 0
M  V30 8869 C 807.269 -0.444469 -3.44444 0
M  V30 8870 C 806.223 -1.44478 -4.02877 0
M  V30 8871 C 805.549 -0.821933 -5.28345 0
M  V30 8872 C 806.849 -2.81995 -4.39632 0
M  V30 8873 H 808.543 -1.84354 -2.35911 0
M  V30 8874 H 806.089 -0.887806 -1.13375 0
M  V30 8875 H 808.042 -0.254078 -4.20633 0
M  V30 8876 H 806.766 0.509592 -3.226 0
M  V30 8877 H 805.425 -1.62203 -3.28764 0
M  V30 8878 H 805.073 0.139161 -5.02807 0
M  V30 8879 H 804.773 -1.48976 -5.68401 0
M  V30 8880 H 806.297 -0.641959 -6.07216 0
M  V30 8881 H 807.711 -2.67952 -5.06828 0
M  V30 8882 H 806.108 -3.45414 -4.90723 0
M  V30 8883 H 807.178 -3.35927 -3.49687 0
M  V30 8884 N 808.521 1.23394 -0.980386 0
M  V30 8885 C 809.798 1.87242 -0.565667 0
M  V30 8886 C 810.178 1.88151 0.957197 0
M  V30 8887 O 809.526 1.36309 1.8339 0
M  V30 8888 C 809.736 3.28743 -1.17172 0
M  V30 8889 C 811.084 4.05335 -1.26446 0
M  V30 8890 O 812.108 3.37962 -1.12517 0
M  V30 8891 O 810.967 5.25908 -1.48604 0
M  V30 8892 H 808.061 0.80477 -0.190459 0
M  V30 8893 H 810.607 1.3127 -1.07547 0
M  V30 8894 H 809.379 3.22647 -2.21392 0
M  V30 8895 H 809.002 3.92305 -0.646739 0
M  V30 8896 N 809.999 0.752036 1.385 0
M  V30 8897 C 811.246 0.307503 2.00152 0
M  V30 8898 C 811.574 -1.11033 1.59693 0
M  V30 8899 O 810.829 -1.77455 0.825125 0
M  V30 8900 C 811.128 0.376155 3.55415 0
M  V30 8901 C 810.794 1.74942 4.15579 0
M  V30 8902 C 809.456 2.12525 4.31725 0
M  V30 8903 C 811.808 2.65031 4.48785 0
M  V30 8904 C 809.136 3.39671 4.78373 0
M  V30 8905 C 811.488 3.91567 4.96848 0
M  V30 8906 C 810.152 4.2922 5.11201 0
M  V30 8907 H 809.422 0.112523 0.732407 0
M  V30 8908 H 812.069 0.962213 1.65571 0
M  V30 8909 H 810.374 -0.362121 3.90123 0
M  V30 8910 H 812.071 0.0138065 4.00998 0
M  V30 8911 H 808.661 1.44726 4.03426 0
M  V30 8912 H 812.845 2.3726 4.35914 0
M  V30 8913 H 808.101 3.68765 4.8767 0
M  V30 8914 H 812.275 4.61517 5.21512 0
M  V30 8915 H 809.902 5.27805 5.47107 0
M  V30 8916 N 811.477 -1.49425 0.500989 0
M  V30 8917 C 812.702 -2.07356 -0.0425154 0
M  V30 8918 C 813.127 -1.35887 -1.30063 0
M  V30 8919 O 812.485 -0.41561 -1.76472 0
M  V30 8920 C 812.533 -3.59518 -0.279188 0
M  V30 8921 O 811.637 -3.89542 -1.3539 0
M  V30 8922 H 810.978 -0.663482 0.0262207 0
M  V30 8923 H 813.508 -1.92231 0.700607 0
M  V30 8924 H 813.518 -4.04791 -0.5107 0
M  V30 8925 H 812.193 -4.10946 0.640009 0
M  V30 8926 H 810.77 -3.56079 -1.10734 0
M  V30 8927 N 812.955 -0.234822 -1.55841 0
M  V30 8928 C 813.903 0.686145 -2.22249 0
M  V30 8929 C 814.897 1.18948 -1.20614 0
M  V30 8930 O 816.103 1.14777 -1.38659 0
M  V30 8931 H 812.478 0.239724 -0.712767 0
M  V30 8932 H 814.449 0.102762 -2.98223 0
M  V30 8933 C 813.198 1.8776 -2.92646 0
M  V30 8934 H 812.521 1.49943 -3.70617 0
M  V30 8935 H 813.961 2.4995 -3.42493 0
M  V30 8936 C 812.42 2.74127 -1.95847 0
M  V30 8937 O 812.95 3.7329 -1.48384 0
M  V30 8938 N 811.156 2.4044 -1.63209 0
M  V30 8939 H 810.703 1.59854 -2.02001 0
M  V30 8940 H 810.661 2.98504 -0.987063 0
M  V30 8941 N 814.433 1.57553 0.0384317 0
M  V30 8942 C 815.381 2.07021 1.06043 0
M  V30 8943 C 816.375 0.982078 1.38028 0
M  V30 8944 O 817.581 1.16702 1.37042 0
M  V30 8945 H 813.956 0.660522 0.359464 0
M  V30 8946 H 815.927 2.91944 0.617339 0
M  V30 8947 C 814.676 2.55734 2.35574 0
M  V30 8948 H 813.999 3.39074 2.11822 0
M  V30 8949 H 815.439 2.94066 3.05452 0
M  V30 8950 C 813.898 1.45449 3.03885 0
M  V30 8951 O 814.428 0.815402 3.93337 0
M  V30 8952 N 812.634 1.19134 2.65058 0
M  V30 8953 H 812.181 1.71288 1.92401 0
M  V30 8954 H 812.139 0.455554 3.11082 0
M  V30 8955 N 815.911 -0.310526 1.54511 0
M  V30 8956 C 817.327 -0.655637 1.45511 0
M  V30 8957 C 817.527 -1.91114 0.638564 0
M  V30 8958 O 816.583 -2.52098 0.142497 0
M  V30 8959 C 817.896 -0.817501 2.89374 0
M  V30 8960 C 819.444 -0.914003 2.99358 0
M  V30 8961 C 819.919 -1.10794 4.44397 0
M  V30 8962 N 821.41 -1.17437 4.48066 0
M  V30 8963 C 822.145 -1.34255 5.57461 0
M  V30 8964 N 821.641 -1.48032 6.768 0
M  V30 8965 N 823.434 -1.37067 5.45132 0
M  V30 8966 H 815.585 0.514506 2.06074 0
M  V30 8967 H 817.848 0.168478 0.932909 0
M  V30 8968 H 817.554 0.034003 3.51684 0
M  V30 8969 H 817.428 -1.7094 3.36243 0
M  V30 8970 H 819.815 -1.756 2.37168 0
M  V30 8971 H 819.896 0.00170958 2.558 0
M  V30 8972 H 819.54 -0.270743 5.07178 0
M  V30 8973 H 819.47 -2.03773 4.85576 0
M  V30 8974 H 821.961 -1.08181 3.62084 0
M  V30 8975 H 822.274 -1.60593 7.5593 0
M  V30 8976 H 820.619 -1.45105 6.79683 0
M  V30 8977 H 823.81 -1.25909 4.50849 0
M  V30 8978 H 823.983 -1.49831 6.3044 0
M  V30 8979 N 817.389 -1.46805 -0.573248 0
M  V30 8980 C 818.319 -1.60951 -1.69165 0
M  V30 8981 C 819.3 -0.45948 -1.63777 0
M  V30 8982 O 820.485 -0.68688 -1.81647 0
M  V30 8983 C 817.615 -1.60844 -3.07809 0
M  V30 8984 C 816.569 -2.74913 -3.28035 0
M  V30 8985 C 815.895 -2.59871 -4.67302 0
M  V30 8986 C 817.195 -4.16654 -3.14955 0
M  V30 8987 H 818.889 -2.54574 -1.57582 0
M  V30 8988 H 816.435 -1.22516 -0.756686 0
M  V30 8989 H 818.388 -1.69334 -3.85881 0
M  V30 8990 H 817.112 -0.637714 -3.20314 0
M  V30 8991 H 815.771 -2.65908 -2.52366 0
M  V30 8992 H 815.419 -1.60861 -4.76585 0
M  V30 8993 H 815.119 -3.36386 -4.81786 0
M  V30 8994 H 816.643 -2.70265 -5.4753 0
M  V30 8995 H 818.057 -4.26721 -3.82861 0
M  V30 8996 H 816.454 -4.93831 -3.40956 0
M  V30 8997 H 817.524 -4.36146 -2.11908 0
M  V30 8998 N 818.867 0.818669 -1.34668 0
M  V30 8999 C 820.144 1.56118 -1.17841 0
M  V30 9000 C 820.524 2.09646 0.24731 0
M  V30 9001 O 819.872 1.91329 1.24922 0
M  V30 9002 C 820.082 2.67922 -2.23649 0
M  V30 9003 C 821.43 3.36579 -2.58843 0
M  V30 9004 O 822.454 2.78182 -2.22471 0
M  V30 9005 O 821.313 4.42045 -3.21339 0
M  V30 9006 H 818.407 0.689216 -0.457067 0
M  V30 9007 H 820.953 0.859674 -1.46314 0
M  V30 9008 H 819.725 2.26153 -3.19328 0
M  V30 9009 H 819.348 3.45719 -1.96377 0
M  V30 9010 N 820.346 1.18468 1.03938 0
M  V30 9011 C 821.276 0.936389 2.13902 0
M  V30 9012 C 822.257 -0.126381 1.6963 0
M  V30 9013 O 823.442 0.0264757 1.94182 0
M  V30 9014 C 820.572 0.462729 3.44204 0
M  V30 9015 C 819.526 1.46613 4.02105 0
M  V30 9016 C 818.852 0.84994 5.27902 0
M  V30 9017 C 820.152 2.84323 4.3813 0
M  V30 9018 H 821.846 1.85602 2.3493 0
M  V30 9019 H 819.392 0.893806 1.12903 0
M  V30 9020 H 821.345 0.276382 4.20493 0
M  V30 9021 H 820.069 -0.492477 3.22866 0
M  V30 9022 H 818.728 1.63944 3.27899 0
M  V30 9023 H 818.376 -0.112493 5.02874 0
M  V30 9024 H 818.076 1.51988 5.67603 0
M  V30 9025 H 819.6 0.674152 6.06867 0
M  V30 9026 H 821.014 2.70636 5.054 0
M  V30 9027 H 819.411 3.48012 4.88884 0
M  V30 9028 H 820.481 3.37776 3.47901 0
M  V30 9029 N 821.824 -1.22873 0.986916 0
M  V30 9030 C 822.754 -2.2688 0.552064 0
M  V30 9031 C 823.735 -1.64883 -0.418048 0
M  V30 9032 O 824.92 -1.9171 -0.30999 0
M  V30 9033 C 822.05 -3.47018 -0.139959 0
M  V30 9034 C 821.004 -4.21411 0.748091 0
M  V30 9035 C 820.33 -5.34645 -0.0765132 0
M  V30 9036 C 821.63 -4.80726 2.04206 0
M  V30 9037 H 823.324 -2.63507 1.42143 0
M  V30 9038 H 820.87 -1.26668 0.68492 0
M  V30 9039 H 822.823 -4.18931 -0.455527 0
M  V30 9040 H 821.547 -3.0947 -1.04382 0
M  V30 9041 H 820.206 -3.51325 1.04721 0
M  V30 9042 H 819.854 -4.93339 -0.981109 0
M  V30 9043 H 819.554 -5.85342 0.514606 0
M  V30 9044 H 821.078 -6.09377 -0.386313 0
M  V30 9045 H 822.492 -5.44612 1.79083 0
M  V30 9046 H 820.889 -5.41737 2.5815 0
M  V30 9047 H 821.959 -4.01109 2.72469 0
M  V30 9048 N 823.302 -0.75937 -1.38099 0
M  V30 9049 C 824.252 -0.111098 -2.27729 0
M  V30 9050 C 825.236 0.687161 -1.45489 0
M  V30 9051 O 826.428 0.552167 -1.68167 0
M  V30 9052 C 823.557 0.776809 -3.34396 0
M  V30 9053 C 822.643 -0.0286108 -4.2409 0
M  V30 9054 N 823.034 -1.06797 -4.94397 0
M  V30 9055 C 821.332 0.197307 -4.45563 0
M  V30 9056 C 822.033 -1.55576 -5.6051 0
M  V30 9057 N 821.009 -0.870059 -5.36592 0
M  V30 9058 H 824.811 -0.907047 -2.79553 0
M  V30 9059 H 822.325 -0.595954 -1.5107 0
M  V30 9060 H 824.322 1.25691 -3.97502 0
M  V30 9061 H 822.982 1.57164 -2.84129 0
M  V30 9062 H 823.993 -1.44988 -4.97191 0
M  V30 9063 H 820.67 0.965028 -4.06194 0
M  V30 9064 H 822.06 -2.42184 -6.26735 0
M  V30 9065 N 824.78 1.49157 -0.508906 0
M  V30 9066 C 826.005 2.07376 0.0315182 0
M  V30 9067 C 826.43 1.36575 1.2934 0
M  V30 9068 O 825.788 0.424963 1.76249 0
M  V30 9069 C 825.836 3.59661 0.260118 0
M  V30 9070 O 824.94 3.90255 1.33322 0
M  V30 9071 H 824.281 0.663334 -0.029739 0
M  V30 9072 H 826.811 1.91857 -0.710791 0
M  V30 9073 H 826.821 4.05056 0.489225 0
M  V30 9074 H 825.496 4.10601 -0.661794 0
M  V30 9075 H 824.073 3.56661 1.08844 0
M  V30 9076 N 826.258 0.243083 1.55714 0
M  V30 9077 C 827.486 -0.386971 2.03249 0
M  V30 9078 C 827.901 -1.51812 1.12243 0
M  V30 9079 O 827.258 -1.81992 0.136119 0
M  V30 9080 C 827.309 -0.898361 3.5016 0
M  V30 9081 O 827.03 0.187708 4.37698 0
M  V30 9082 C 828.531 -1.59949 4.13438 0
M  V30 9083 H 825.751 -0.0923981 0.664608 0
M  V30 9084 H 828.295 0.365832 2.01201 0
M  V30 9085 H 826.45 -1.60136 3.52754 0
M  V30 9086 H 826.864 -0.200001 5.24119 0
M  V30 9087 H 828.338 -1.90907 5.17937 0
M  V30 9088 H 828.815 -2.52014 3.59702 0
M  V30 9089 H 829.421 -0.941163 4.14756 0
M  V30 9090 N 827.736 -1.57571 -0.0300757 0
M  V30 9091 C 828.699 -2.05468 -1.01565 0
M  V30 9092 C 829.699 -0.958628 -1.29101 0
M  V30 9093 O 830.889 -1.22228 -1.24121 0
M  V30 9094 C 828.021 -2.47077 -2.34874 0
M  V30 9095 H 829.214 -2.93797 -0.601936 0
M  V30 9096 H 826.767 -1.53828 -0.276878 0
M  V30 9097 H 827.502 -1.61901 -2.80996 0
M  V30 9098 H 827.287 -3.27097 -2.16218 0
M  V30 9099 H 828.777 -2.84564 -3.05635 0
M  V30 9100 N 829.214 0.302327 -1.54673 0
M  V30 9101 C 830.461 1.0377 -1.73891 0
M  V30 9102 C 830.789 1.87309 -0.523979 0
M  V30 9103 O 830.044 1.8936 0.494084 0
M  V30 9104 C 830.343 1.97365 -2.97963 0
M  V30 9105 C 830.009 1.29812 -4.3181 0
M  V30 9106 C 828.671 1.11121 -4.68194 0
M  V30 9107 C 831.023 0.815073 -5.14787 0
M  V30 9108 C 828.351 0.428077 -5.85136 0
M  V30 9109 C 830.703 0.145665 -6.32432 0
M  V30 9110 C 829.367 -0.0532098 -6.67479 0
M  V30 9111 H 828.637 0.379721 -0.636312 0
M  V30 9112 H 831.284 0.312708 -1.8893 0
M  V30 9113 H 829.589 2.76387 -2.777 0
M  V30 9114 H 831.286 2.54331 -3.10027 0
M  V30 9115 H 827.876 1.45366 -4.03196 0
M  V30 9116 H 832.06 0.947191 -4.87178 0
M  V30 9117 H 827.316 0.262995 -6.10834 0
M  V30 9118 H 831.49 -0.236533 -6.95998 0
M  V30 9119 H 829.117 -0.58456 -7.57949 0
M  V30 9120 N 830.692 1.47107 0.565454 0
M  V30 9121 C 831.602 1.61591 1.70075 0
M  V30 9122 C 832.618 0.498931 1.66693 0
M  V30 9123 O 833.794 0.765372 1.8629 0
M  V30 9124 C 830.859 1.61887 3.06583 0
M  V30 9125 C 829.92 2.84949 3.21096 0
M  V30 9126 C 829.153 2.85221 4.51093 0
M  V30 9127 O 829.376 1.94959 5.36048 0
M  V30 9128 O 828.31 3.76982 4.69221 0
M  V30 9129 H 832.136 2.57638 1.60799 0
M  V30 9130 H 829.721 1.30097 0.73451 0
M  V30 9131 H 831.603 1.64809 3.87835 0
M  V30 9132 H 830.278 0.69005 3.16259 0
M  V30 9133 H 829.185 2.87575 2.39273 0
M  V30 9134 H 830.518 3.77098 3.1632 0
M  V30 9135 N 832.17 -0.811516 1.35101 0
M  V30 9136 C 833.08 -1.95475 1.29718 0
M  V30 9137 C 834.096 -1.72813 0.202909 0
M  V30 9138 O 835.272 -1.96725 0.431414 0
M  V30 9139 C 832.337 -3.29975 1.06385 0
M  V30 9140 C 831.398 -3.65566 2.25077 0
M  V30 9141 C 830.631 -4.93648 2.02848 0
M  V30 9142 O 830.854 -5.617 0.992442 0
M  V30 9143 O 829.788 -5.27384 2.90087 0
M  V30 9144 H 833.614 -2.02961 2.25921 0
M  V30 9145 H 831.199 -0.948583 1.15422 0
M  V30 9146 H 833.081 -4.10506 0.951999 0
M  V30 9147 H 831.756 -3.2343 0.132294 0
M  V30 9148 H 830.663 -2.85432 2.41825 0
M  V30 9149 H 831.996 -3.7681 3.16662 0
M  V30 9150 N 833.648 -1.19017 -1.03309 0
M  V30 9151 C 834.578 -0.94772 -2.13402 0
M  V30 9152 C 835.559 0.117383 -1.69694 0
M  V30 9153 O 836.744 -0.0367733 -1.94165 0
M  V30 9154 C 833.874 -0.480977 -3.43953 0
M  V30 9155 C 832.828 -1.48743 -4.01322 0
M  V30 9156 C 832.154 -0.877924 -5.27443 0
M  V30 9157 C 833.454 -2.86642 -4.36616 0
M  V30 9158 H 835.148 -1.86846 -2.33942 0
M  V30 9159 H 832.694 -0.899781 -1.12427 0
M  V30 9160 H 834.647 -0.298677 -4.2034 0
M  V30 9161 H 833.371 0.475348 -3.23122 0
M  V30 9162 H 832.03 -1.65681 -3.27025 0
M  V30 9163 H 831.678 0.0858232 -5.02927 0
M  V30 9164 H 831.378 -1.54996 -5.66789 0
M  V30 9165 H 832.902 -0.706326 -6.06501 0
M  V30 9166 H 834.316 -2.73312 -5.03958 0
M  V30 9167 H 832.713 -3.50599 -4.87032 0
M  V30 9168 H 833.783 -3.39617 -3.46105 0
M  V30 9169 N 835.127 1.22348 -0.993418 0
M  V30 9170 C 836.077 2.221 -0.515333 0
M  V30 9171 C 837.061 1.55409 0.416762 0
M  V30 9172 O 838.253 1.75317 0.243497 0
M  V30 9173 C 835.382 3.42888 0.168173 0
M  V30 9174 C 834.468 4.16786 -0.784257 0
M  V30 9175 N 834.859 4.67435 -1.93231 0
M  V30 9176 C 833.157 4.41942 -0.600243 0
M  V30 9177 C 833.858 5.23792 -2.53016 0
M  V30 9178 N 832.834 5.12483 -1.8128 0
M  V30 9179 H 836.636 2.58902 -1.39093 0
M  V30 9180 H 834.15 1.38024 -0.855747 0
M  V30 9181 H 836.147 4.13542 0.528069 0
M  V30 9182 H 834.807 3.07598 1.03989 0
M  V30 9183 H 835.818 4.63375 -2.31309 0
M  V30 9184 H 832.495 4.16891 0.225369 0
M  V30 9185 H 833.885 5.73515 -3.50043 0
M  V30 9186 N 836.605 0.766683 1.37694 0
M  V30 9187 C 837.552 0.147725 2.30327 0
M  V30 9188 C 838.522 -0.695366 1.50844 0
M  V30 9189 O 839.707 -0.64878 1.79431 0
M  V30 9190 C 836.847 -0.72935 3.37305 0
M  V30 9191 C 835.96 0.129795 4.31805 0
M  V30 9192 C 835.095 -0.751511 5.25857 0
M  V30 9193 C 834.134 0.110475 6.12 0
M  V30 9194 N 833.271 -0.728522 6.9831 0
M  V30 9195 H 838.111 0.943204 2.82679 0
M  V30 9196 H 835.648 0.476736 1.3916 0
M  V30 9197 H 837.606 -1.25263 3.97951 0
M  V30 9198 H 836.236 -1.49048 2.86329 0
M  V30 9199 H 835.288 0.770829 3.72508 0
M  V30 9200 H 836.6 0.794923 4.92425 0
M  V30 9201 H 835.754 -1.34146 5.91684 0
M  V30 9202 H 834.493 -1.45034 4.65636 0
M  V30 9203 H 833.498 0.712999 5.45157 0
M  V30 9204 H 834.723 0.806557 6.74293 0
M  V30 9205 H 832.669 -1.41206 6.40622 0
M  V30 9206 H 832.586 -0.12058 7.55904 0
M  V30 9207 H 833.854 -1.30303 7.68532 0
M  V30 9208 N 838.083 -1.48885 0.516809 0
M  V30 9209 C 839.013 -2.32241 -0.242157 0
M  V30 9210 C 839.994 -1.41258 -0.947633 0
M  V30 9211 O 841.179 -1.70156 -0.935973 0
M  V30 9212 C 838.309 -3.22151 -1.29754 0
M  V30 9213 C 837.263 -4.22053 -0.710995 0
M  V30 9214 C 836.589 -5.01007 -1.86806 0
M  V30 9215 C 837.889 -5.21388 0.30853 0
M  V30 9216 H 839.583 -2.95943 0.453651 0
M  V30 9217 H 837.129 -1.42316 0.219612 0
M  V30 9218 H 839.082 -3.79284 -1.83634 0
M  V30 9219 H 837.806 -2.56423 -2.02274 0
M  V30 9220 H 836.465 -3.66087 -0.193819 0
M  V30 9221 H 836.113 -4.31713 -2.58133 0
M  V30 9222 H 835.813 -5.68615 -1.48159 0
M  V30 9223 H 837.337 -5.60989 -2.4109 0
M  V30 9224 H 838.751 -5.73122 -0.142703 0
M  V30 9225 H 837.148 -5.96975 0.611673 0
M  V30 9226 H 838.218 -4.69329 1.21894 0
M  V30 9227 N 839.561 -0.251338 -1.55583 0
M  V30 9228 C 840.471 0.656978 -2.25213 0
M  V30 9229 C 841.487 1.18966 -1.26977 0
M  V30 9230 O 842.663 1.22499 -1.59862 0
M  V30 9231 C 839.728 1.83527 -2.94141 0
M  V30 9232 C 838.789 1.34162 -4.07798 0
M  V30 9233 C 838.022 2.46375 -4.73429 0
M  V30 9234 O 838.245 3.65205 -4.38157 0
M  V30 9235 O 837.179 2.15881 -5.61853 0
M  V30 9236 H 841.005 0.0936395 -3.03556 0
M  V30 9237 H 838.59 -0.0196638 -1.49387 0
M  V30 9238 H 840.472 2.52279 -3.3754 0
M  V30 9239 H 839.147 2.38614 -2.18735 0
M  V30 9240 H 838.054 0.621249 -3.68906 0
M  V30 9241 H 839.387 0.836779 -4.85035 0
M  V30 9242 N 841.039 1.57585 0.0217189 0
M  V30 9243 C 842.285 1.89887 0.712099 0
M  V30 9244 C 842.618 0.849971 1.74611 0
M  V30 9245 O 841.893 -0.13407 1.94037 0
M  V30 9246 C 842.176 3.32815 1.37499 0
M  V30 9247 C 842.029 4.48405 0.353993 0
M  V30 9248 C 843.348 3.74786 2.30703 0
M  V30 9249 H 840.467 0.690588 0.257405 0
M  V30 9250 H 843.109 1.89983 -0.0251145 0
M  V30 9251 H 841.259 3.32863 2.00335 0
M  V30 9252 H 842.931 4.60491 -0.273015 0
M  V30 9253 H 841.174 4.32573 -0.32599 0
M  V30 9254 H 841.845 5.45316 0.85644 0
M  V30 9255 H 844.321 3.76151 1.77904 0
M  V30 9256 H 843.197 4.75585 2.74061 0
M  V30 9257 H 843.458 3.07449 3.17691 0
M  V30 9258 N 842.517 -0.29412 1.54831 0
M  V30 9259 C 843.447 -1.36757 1.89261 0
M  V30 9260 C 844.428 -1.52564 0.752214 0
M  V30 9261 O 845.613 -1.65958 1.00855 0
M  V30 9262 C 842.743 -2.73066 2.14597 0
M  V30 9263 C 841.697 -2.72017 3.3044 0
M  V30 9264 C 841.023 -4.11679 3.4121 0
M  V30 9265 C 842.323 -2.33149 4.67375 0
M  V30 9266 H 844.017 -1.08191 2.79169 0
M  V30 9267 H 841.563 -0.519014 1.34321 0
M  V30 9268 H 843.516 -3.48255 2.37269 0
M  V30 9269 H 842.24 -3.03172 1.21467 0
M  V30 9270 H 840.899 -1.99285 3.07703 0
M  V30 9271 H 840.547 -4.38973 2.45584 0
M  V30 9272 H 840.247 -4.11877 4.19084 0
M  V30 9273 H 841.771 -4.88637 3.6615 0
M  V30 9274 H 843.185 -2.98054 4.89731 0
M  V30 9275 H 841.582 -2.44546 5.48012 0
M  V30 9276 H 842.652 -1.28275 4.67626 0
M  V30 9277 N 843.995 -1.47404 -0.557645 0
M  V30 9278 C 845.272 -1.44488 -1.31843 0
M  V30 9279 C 845.652 -0.1416 -2.10625 0
M  V30 9280 O 845 0.876908 -2.11004 0
M  V30 9281 C 845.21 -2.69016 -2.22331 0
M  V30 9282 C 846.558 -3.16212 -2.83364 0
M  V30 9283 O 847.582 -2.69741 -2.32634 0
M  V30 9284 O 846.441 -3.96999 -3.75571 0
M  V30 9285 H 843.535 -0.57578 -0.593639 0
M  V30 9286 H 846.081 -1.59605 -0.576584 0
M  V30 9287 H 844.853 -3.55406 -1.63715 0
M  V30 9288 H 844.476 -2.56484 -3.03812 0
M  V30 9289 N 845.473 0.80434 -1.35529 0
M  V30 9290 C 846.722 1.55665 -1.28263 0
M  V30 9291 C 847.035 1.95096 0.140352 0
M  V30 9292 O 848.241 2.69422 0.335303 0
M  V30 9293 C 846.697 2.80935 -2.24952 0
M  V30 9294 C 846.305 2.48733 -3.72607 0
M  V30 9295 C 848.049 3.5894 -2.26632 0
M  V30 9296 C 845.956 3.70308 -4.61114 0
M  V30 9297 H 844.886 0.584301 -0.476559 0
M  V30 9298 H 847.537 0.88395 -1.60806 0
M  V30 9299 H 845.919 3.49927 -1.85383 0
M  V30 9300 H 847.093 1.87733 -4.20824 0
M  V30 9301 H 845.408 1.83969 -3.73557 0
M  V30 9302 H 848.005 4.49244 -2.89973 0
M  V30 9303 H 848.348 3.96433 -1.27069 0
M  V30 9304 H 848.881 2.96912 -2.64742 0
M  V30 9305 H 845.62 3.37922 -5.61684 0
M  V30 9306 H 845.14 4.30526 -4.17621 0
M  V30 9307 H 846.819 4.37511 -4.76648 0
M  V30 9308 N 846.951 1.19563 1.02676 0
M  V30 9309 C 848.176 1.02556 1.80269 0
M  V30 9310 C 848.601 -0.421056 1.83327 0
M  V30 9311 O 847.959 -1.30279 1.26084 0
M  V30 9312 C 848.007 1.60165 3.23078 0
M  V30 9313 O 847.111 0.832404 4.03912 0
M  V30 9314 H 846.452 0.362354 0.556413 0
M  V30 9315 H 848.982 1.58633 1.29216 0
M  V30 9316 H 848.992 1.6347 3.7382 0
M  V30 9317 H 847.667 2.65454 3.20167 0
M  V30 9318 H 846.244 0.872768 3.62543 0
M  V30 9319 N 848.429 -1.21819 0.999893 0
M  V30 9320 C 849.654 -1.95298 0.698094 0
M  V30 9321 C 850.079 -1.73273 -0.731982 0
M  V30 9322 O 849.437 -1.01634 -1.50134 0
M  V30 9323 C 849.485 -3.45922 1.01834 0
M  V30 9324 O 848.589 -4.12223 0.120801 0
M  V30 9325 H 847.93 -0.610729 0.260588 0
M  V30 9326 H 850.46 -1.5472 1.33876 0
M  V30 9327 H 850.47 -3.96471 0.963074 0
M  V30 9328 H 849.145 -3.61278 2.06037 0
M  V30 9329 H 847.722 -3.72177 0.232153 0
M  V30 9330 N 849.908 -0.773975 -1.37286 0
M  V30 9331 C 850.856 -0.149581 -2.32119 0
M  V30 9332 C 851.85 0.682457 -1.55045 0
M  V30 9333 O 853.056 0.579269 -1.70424 0
M  V30 9334 H 849.431 -0.0295857 -0.751418 0
M  V30 9335 H 851.402 -0.965117 -2.82362 0
M  V30 9336 C 850.151 0.713409 -3.40302 0
M  V30 9337 H 849.474 0.0825416 -3.99715 0
M  V30 9338 H 850.914 1.11723 -4.09016 0
M  V30 9339 C 849.373 1.86498 -2.80571 0
M  V30 9340 O 849.903 2.9606 -2.71498 0
M  V30 9341 N 848.109 1.66629 -2.38082 0
M  V30 9342 H 847.656 0.775145 -2.45661 0
M  V30 9343 H 847.614 2.43845 -1.98461 0
M  V30 9344 N 851.386 1.48609 -0.524698 0
M  V30 9345 C 852.611 2.07398 0.00952139 0
M  V30 9346 C 853.036 1.37939 1.27884 0
M  V30 9347 O 852.394 0.443633 1.75788 0
M  V30 9348 C 852.442 3.59916 0.221956 0
M  V30 9349 O 851.546 3.91647 1.29175 0
M  V30 9350 H 850.887 0.662981 -0.0367729 0
M  V30 9351 H 853.417 1.91092 -0.7311 0
M  V30 9352 H 853.427 4.05552 0.446236 0
M  V30 9353 H 852.102 4.09876 -0.705306 0
M  V30 9354 H 850.679 3.57796 1.05055 0
M  V30 9355 N 852.864 0.259585 1.55447 0
M  V30 9356 C 853.814 -0.648769 2.18575 0
M  V30 9357 C 854.798 -1.1299 1.14552 0
M  V30 9358 O 855.99 -1.07756 1.4042 0
M  V30 9359 C 853.119 -1.83963 2.89849 0
M  V30 9360 C 852.205 -1.37641 4.01143 0
M  V30 9361 N 852.596 -0.628269 5.01883 0
M  V30 9362 C 850.894 -1.66066 4.1393 0
M  V30 9363 C 851.595 -0.386746 5.80413 0
M  V30 9364 N 850.571 -0.954665 5.35151 0
M  V30 9365 H 854.373 -0.0691616 2.93819 0
M  V30 9366 H 851.887 0.0624525 1.6228 0
M  V30 9367 H 853.884 -2.50151 3.33512 0
M  V30 9368 H 852.544 -2.42334 2.16112 0
M  V30 9369 H 853.555 -0.277123 5.17158 0
M  V30 9370 H 850.232 -2.25484 3.51373 0
M  V30 9371 H 851.622 0.211382 6.71567 0
M  V30 9372 N 854.342 -1.57594 -0.0133615 0
M  V30 9373 C 855.572 -1.93969 -0.711295 0
M  V30 9374 C 855.98 -0.859084 -1.68572 0
M  V30 9375 O 855.323 0.171842 -1.82894 0
M  V30 9376 C 855.385 -3.2625 -1.51001 0
M  V30 9377 C 855.049 -4.51628 -0.698645 0
M  V30 9378 C 856.046 -5.19899 0.00791185 0
M  V30 9379 C 853.731 -4.98095 -0.648553 0
M  V30 9380 C 855.725 -6.32928 0.753691 0
M  V30 9381 C 853.412 -6.11017 0.10096 0
M  V30 9382 C 854.41 -6.78289 0.800828 0
M  V30 9383 O 854.098 -7.89048 1.53814 0
M  V30 9384 H 853.83 -0.6445 -0.203951 0
M  V30 9385 H 856.384 -2.05378 0.0298267 0
M  V30 9386 H 854.614 -3.11211 -2.29531 0
M  V30 9387 H 856.303 -3.47835 -2.09202 0
M  V30 9388 H 857.069 -4.84995 -0.0217192 0
M  V30 9389 H 852.948 -4.45568 -1.18282 0
M  V30 9390 H 856.492 -6.85371 1.3005 0
M  V30 9391 H 852.389 -6.45364 0.132459 0
M  V30 9392 H 853.157 -8.05492 1.45345 0
M  V30 9393 N 855.82 0.285905 -1.54985 0
M  V30 9394 C 857.067 1.0192 -1.74982 0
M  V30 9395 C 857.395 1.86743 -0.543816 0
M  V30 9396 O 856.65 1.89874 0.473972 0
M  V30 9397 C 856.949 1.94193 -3.0004 0
M  V30 9398 C 856.615 1.25225 -4.33162 0
M  V30 9399 C 855.277 1.06149 -4.69346 0
M  V30 9400 C 857.629 0.760427 -5.15623 0
M  V30 9401 C 854.957 0.365991 -5.85557 0
M  V30 9402 C 857.309 0.0785787 -6.32551 0
M  V30 9403 C 855.973 -0.124002 -6.67385 0
M  V30 9404 H 855.243 0.372951 -0.640304 0
M  V30 9405 H 857.89 0.292652 -1.89251 0
M  V30 9406 H 856.195 2.73426 -2.80616 0
M  V30 9407 H 857.892 2.51029 -3.12707 0
M  V30 9408 H 854.482 1.41081 -4.04715 0
M  V30 9409 H 858.666 0.895466 -4.88155 0
M  V30 9410 H 853.922 0.198193 -6.11079 0
M  V30 9411 H 858.096 -0.310339 -6.95708 0
M  V30 9412 H 855.723 -0.664918 -7.57287 0
M  V30 9413 N 857.298 1.47698 0.54982 0
M  V30 9414 C 858.23 1.56806 1.67166 0
M  V30 9415 C 859.243 0.453709 1.5635 0
M  V30 9416 O 860.432 0.723663 1.63173 0
M  V30 9417 C 857.532 1.4632 3.05686 0
M  V30 9418 C 856.705 2.72452 3.42182 0
M  V30 9419 C 855.764 2.55698 4.59897 0
M  V30 9420 O 854.79 3.29534 4.64108 0
M  V30 9421 N 855.992 1.64009 5.56849 0
M  V30 9422 H 858.757 2.53545 1.59797 0
M  V30 9423 H 856.318 1.44171 0.736635 0
M  V30 9424 H 858.31 1.32835 3.82279 0
M  V30 9425 H 856.88 0.57634 3.07241 0
M  V30 9426 H 856.1 3.00644 2.54964 0
M  V30 9427 H 857.388 3.56172 3.63344 0
M  V30 9428 H 856.786 1.03186 5.5621 0
M  V30 9429 H 855.343 1.56473 6.3274 0
M  V30 9430 N 858.776 -0.797141 1.35954 0
M  V30 9431 C 860.001 -1.59097 1.33053 0
M  V30 9432 C 860.426 -1.87897 -0.0874592 0
M  V30 9433 O 859.784 -1.47291 -1.05712 0
M  V30 9434 C 859.832 -2.89346 2.152 0
M  V30 9435 O 858.936 -3.826 1.5392 0
M  V30 9436 H 858.277 -0.482895 0.45575 0
M  V30 9437 H 860.807 -0.988633 1.79129 0
M  V30 9438 H 860.817 -3.38686 2.27499 0
M  V30 9439 H 859.492 -2.6771 3.18283 0
M  V30 9440 H 858.069 -3.41174 1.50516 0
M  V30 9441 N 860.254 -1.20106 -1.0204 0
M  V30 9442 C 861.164 -0.962051 -2.13967 0
M  V30 9443 C 862.18 0.0808053 -1.73812 0
M  V30 9444 O 863.356 -0.105774 -2.01122 0
M  V30 9445 C 860.421 -0.513108 -3.42882 0
M  V30 9446 C 859.482 -1.62636 -3.97301 0
M  V30 9447 C 858.715 -1.19875 -5.20063 0
M  V30 9448 O 858.938 -0.0658423 -5.70362 0
M  V30 9449 O 857.872 -2.00467 -5.67536 0
M  V30 9450 H 861.698 -1.8991 -2.36998 0
M  V30 9451 H 859.283 -0.984608 -1.12365 0
M  V30 9452 H 861.165 -0.271797 -4.20523 0
M  V30 9453 H 859.84 0.395402 -3.21276 0
M  V30 9454 H 858.747 -1.92192 -3.20957 0
M  V30 9455 H 860.08 -2.51174 -4.23288 0
M  V30 9456 N 861.732 1.21287 -1.00634 0
M  V30 9457 C 862.98 1.90013 -0.688438 0
M  V30 9458 C 863.301 1.78573 0.783365 0
M  V30 9459 O 862.571 1.1815 1.56261 0
M  V30 9460 H 861.151 0.703336 -0.251648 0
M  V30 9461 H 863.813 1.47346 -1.27574 0
M  V30 9462 H 862.909 2.96879 -0.962781 0
M  V30 9463 N 863.21 0.781244 1.36873 0
M  V30 9464 C 864.459 0.34652 1.98701 0
M  V30 9465 C 864.772 -1.08555 1.62712 0
M  V30 9466 O 865.978 -1.62213 2.17713 0
M  V30 9467 C 864.434 0.568611 3.5538 0
M  V30 9468 C 864.042 2.01156 4.003 0
M  V30 9469 C 865.786 0.197983 4.24038 0
M  V30 9470 C 863.693 2.18074 5.49725 0
M  V30 9471 H 862.623 0.125821 0.743428 0
M  V30 9472 H 865.274 0.961721 1.56279 0
M  V30 9473 H 863.656 -0.116185 3.9583 0
M  V30 9474 H 864.83 2.73209 3.71071 0
M  V30 9475 H 863.145 2.33967 3.44454 0
M  V30 9476 H 865.742 0.302778 5.33842 0
M  V30 9477 H 866.085 -0.852927 4.07469 0
M  V30 9478 H 866.618 0.835696 3.88923 0
M  V30 9479 H 863.357 3.21519 5.71232 0
M  V30 9480 H 862.877 1.50517 5.80607 0
M  V30 9481 H 864.556 1.98393 6.15832 0
M  V30 9482 N 864.689 -1.48329 0.532571 0
M  V30 9483 C 865.917 -2.069 0.00354299 0
M  V30 9484 C 866.332 -1.38876 -1.27902 0
M  V30 9485 O 865.689 -0.477119 -1.76153 0
M  V30 9486 C 865.74 -3.60821 -0.221416 0
M  V30 9487 O 865.461 -4.26291 1.01034 0
M  V30 9488 C 866.962 -4.36194 -0.790531 0
M  V30 9489 H 864.182 -0.670103 0.0346836 0
M  V30 9490 H 866.726 -1.90682 0.738955 0
M  V30 9491 H 864.881 -3.76636 -0.906884 0
M  V30 9492 H 865.295 -5.18475 0.792683 0
M  V30 9493 H 866.769 -5.44657 -0.897347 0
M  V30 9494 H 867.246 -4.00798 -1.79605 0
M  V30 9495 H 867.852 -4.25064 -0.141546 0
M  V30 9496 N 866.167 -0.267825 -1.55308 0
M  V30 9497 C 867.117 0.637168 -2.18916 0
M  V30 9498 C 868.101 1.12381 -1.15149 0
M  V30 9499 O 869.293 1.0701 -1.40989 0
M  V30 9500 C 866.422 1.82423 -2.90821 0
M  V30 9501 C 865.508 1.35512 -4.01867 0
M  V30 9502 N 865.899 0.601644 -5.02209 0
M  V30 9503 C 864.197 1.63868 -4.14805 0
M  V30 9504 C 864.898 0.35596 -5.8061 0
M  V30 9505 N 863.874 0.926271 -5.3565 0
M  V30 9506 H 867.676 0.0535787 -2.93851 0
M  V30 9507 H 865.19 -0.0710577 -1.62244 0
M  V30 9508 H 867.187 2.48379 -3.34834 0
M  V30 9509 H 865.847 2.41185 -2.17394 0
M  V30 9510 H 866.858 0.249693 -5.17298 0
M  V30 9511 H 863.535 2.23618 -3.52564 0
M  V30 9512 H 864.925 -0.246994 -6.71446 0
M  V30 9513 N 867.645 1.57599 0.00500368 0
M  V30 9514 C 868.578 2.03541 1.03181 0
M  V30 9515 C 869.556 0.924301 1.33774 0
M  V30 9516 O 870.74 1.19204 1.46023 0
M  V30 9517 C 867.867 2.42879 2.36067 0
M  V30 9518 C 866.913 3.64673 2.21169 0
M  V30 9519 S 867.746 5.12805 1.54243 0
M  V30 9520 C 868.902 5.55408 2.88569 0
M  V30 9521 H 869.135 2.90316 0.640598 0
M  V30 9522 H 866.668 1.52886 0.215722 0
M  V30 9523 H 868.626 2.66212 3.12476 0
M  V30 9524 H 867.287 1.56512 2.72329 0
M  V30 9525 H 866.48 3.89932 3.19326 0
M  V30 9526 H 866.082 3.41316 1.52904 0
M  V30 9527 H 868.374 5.57563 3.84876 0
M  V30 9528 H 869.317 6.55418 2.68016 0
M  V30 9529 H 869.725 4.82961 2.92249 0
M  V30 9530 N 869.123 -0.277682 1.55134 0
M  V30 9531 C 870.053 -1.34742 1.90701 0
M  V30 9532 C 871.034 -1.51757 0.768354 0
M  V30 9533 O 872.219 -1.64879 1.02609 0
M  V30 9534 C 869.349 -2.70775 2.17481 0
M  V30 9535 C 868.303 -2.68497 3.33307 0
M  V30 9536 C 867.629 -4.08037 3.45557 0
M  V30 9537 C 868.929 -2.28178 4.69821 0
M  V30 9538 H 870.623 -1.05224 2.803 0
M  V30 9539 H 868.169 -0.504738 1.34864 0
M  V30 9540 H 870.122 -3.45719 2.40949 0
M  V30 9541 H 868.846 -3.01867 1.24676 0
M  V30 9542 H 867.505 -1.9601 3.09799 0
M  V30 9543 H 867.153 -4.36344 2.50226 0
M  V30 9544 H 866.853 -4.07409 4.23429 0
M  V30 9545 H 868.377 -4.84726 3.71312 0
M  V30 9546 H 869.791 -2.92843 4.92865 0
M  V30 9547 H 868.188 -2.3872 5.50575 0
M  V30 9548 H 869.258 -1.23308 4.6896 0
M  V30 9549 N 870.601 -1.47988 -0.541979 0
M  V30 9550 C 871.549 -1.62044 -1.66867 0
M  V30 9551 C 872.543 -0.487217 -1.62242 0
M  V30 9552 O 873.749 -0.66554 -1.67244 0
M  V30 9553 H 870.124 -0.51024 -0.552412 0
M  V30 9554 H 872.095 -2.56695 -1.52153 0
M  V30 9555 C 870.844 -1.66615 -3.0518 0
M  V30 9556 H 870.167 -2.5317 -3.09427 0
M  V30 9557 H 871.607 -1.80496 -3.83663 0
M  V30 9558 C 870.066 -0.402421 -3.34488 0
M  V30 9559 O 870.596 0.48992 -3.98701 0
M  V30 9560 N 868.802 -0.277778 -2.89269 0
M  V30 9561 H 868.349 -1.00488 -2.37192 0
M  V30 9562 H 868.307 0.566784 -3.09249 0
M  V30 9563 N 872.079 0.78992 -1.36375 0
M  V30 9564 C 873.326 1.54777 -1.30576 0
M  V30 9565 C 873.654 1.94159 0.115095 0
M  V30 9566 O 872.909 1.62918 1.08426 0
M  V30 9567 C 873.208 2.83698 -2.17371 0
M  V30 9568 C 872.874 2.63457 -3.65925 0
M  V30 9569 C 871.536 2.57645 -4.06415 0
M  V30 9570 C 873.888 2.44833 -4.60115 0
M  V30 9571 C 871.216 2.31174 -5.39236 0
M  V30 9572 C 873.568 2.19889 -5.93154 0
M  V30 9573 C 872.232 2.1251 -6.32768 0
M  V30 9574 H 871.502 0.566371 -0.477813 0
M  V30 9575 H 874.149 0.91138 -1.68422 0
M  V30 9576 H 872.454 3.51802 -1.72459 0
M  V30 9577 H 874.151 3.41487 -2.10209 0
M  V30 9578 H 870.741 2.68836 -3.33804 0
M  V30 9579 H 874.925 2.48325 -4.29707 0
M  V30 9580 H 870.181 2.23942 -5.68911 0
M  V30 9581 H 874.355 2.04473 -6.65705 0
M  V30 9582 H 871.982 1.91761 -7.35616 0
M  V30 9583 N 873.557 1.20646 1.01402 0
M  V30 9584 C 874.785 1.04389 1.78635 0
M  V30 9585 C 875.2 -0.406771 1.84366 0
M  V30 9586 O 874.557 -1.28239 1.2985 0
M  V30 9587 C 874.608 1.62378 3.22979 0
M  V30 9588 O 874.329 3.01768 3.17597 0
M  V30 9589 C 875.83 1.5111 4.1675 0
M  V30 9590 H 873.05 0.367077 0.56169 0
M  V30 9591 H 875.594 1.59789 1.27624 0
M  V30 9592 H 873.749 1.11092 3.7113 0
M  V30 9593 H 874.163 3.29331 4.08217 0
M  V30 9594 H 875.637 1.96441 5.15863 0
M  V30 9595 H 876.114 0.464011 4.36742 0
M  V30 9596 H 876.72 2.01599 3.74483 0
M  V30 9597 N 875.035 -1.20752 1.01276 0
M  V30 9598 C 875.982 -2.234 0.579732 0
M  V30 9599 C 876.952 -1.61256 -0.398206 0
M  V30 9600 O 878.137 -1.8845 -0.29851 0
M  V30 9601 C 875.277 -3.45008 -0.0797006 0
M  V30 9602 C 874.39 -4.21597 0.942343 0
M  V30 9603 C 873.525 -5.30591 0.254364 0
M  V30 9604 C 872.564 -5.98919 1.26343 0
M  V30 9605 N 871.701 -6.99511 0.602384 0
M  V30 9606 H 876.541 -2.59801 1.45971 0
M  V30 9607 H 874.078 -1.27663 0.730787 0
M  V30 9608 H 876.036 -4.1444 -0.479125 0
M  V30 9609 H 874.666 -3.09312 -0.923354 0
M  V30 9610 H 873.718 -3.51268 1.45996 0
M  V30 9611 H 875.03 -4.68576 1.70992 0
M  V30 9612 H 874.184 -6.06368 -0.200763 0
M  V30 9613 H 872.923 -4.84639 -0.545553 0
M  V30 9614 H 871.928 -5.21906 1.72898 0
M  V30 9615 H 873.153 -6.46957 2.06456 0
M  V30 9616 H 871.099 -6.55759 -0.177734 0
M  V30 9617 H 871.016 -7.44597 1.30809 0
M  V30 9618 H 872.284 -7.79313 0.17072 0
M  V30 9619 N 876.513 -0.788492 -1.36457 0
M  V30 9620 C 877.461 -0.174192 -2.31947 0
M  V30 9621 C 878.455 0.665974 -1.5576 0
M  V30 9622 O 879.661 0.561161 -1.71029 0
M  V30 9623 H 876.036 -0.0375538 -0.751062 0
M  V30 9624 H 878.007 -0.995011 -2.81322 0
M  V30 9625 C 876.756 0.677276 -3.4104 0
M  V30 9626 H 876.079 0.0401418 -3.9978 0
M  V30 9627 H 877.519 1.07379 -4.10178 0
M  V30 9628 C 875.978 1.83512 -2.82533 0
M  V30 9629 O 876.508 2.93164 -2.74623 0
M  V30 9630 N 874.714 1.64095 -2.39836 0
M  V30 9631 H 874.261 0.749046 -2.46469 0
M  V30 9632 H 874.219 2.41726 -2.01037 0
M  V30 9633 N 877.991 1.48044 -0.54043 0
M  V30 9634 C 878.921 2.32597 0.205178 0
M  V30 9635 C 879.902 1.42748 0.925041 0
M  V30 9636 O 881.087 1.71624 0.908784 0
M  V30 9637 C 878.217 3.24175 1.24612 0
M  V30 9638 C 877.171 4.23131 0.64376 0
M  V30 9639 C 876.497 5.03915 1.78812 0
M  V30 9640 C 877.797 5.20831 -0.39144 0
M  V30 9641 H 879.491 2.95184 -0.500676 0
M  V30 9642 H 877.037 1.41948 -0.242225 0
M  V30 9643 H 878.99 3.82158 1.77576 0
M  V30 9644 H 877.714 2.59608 1.98169 0
M  V30 9645 H 876.373 3.66349 0.135554 0
M  V30 9646 H 876.021 4.35765 2.51232 0
M  V30 9647 H 875.721 5.709 1.39094 0
M  V30 9648 H 877.245 5.64753 2.32134 0
M  V30 9649 H 878.659 5.73277 0.0515064 0
M  V30 9650 H 877.056 5.95926 -0.706569 0
M  V30 9651 H 878.126 4.6733 -1.29345 0
M  V30 9652 N 879.47 0.276058 1.55163 0
M  V30 9653 C 880.417 -0.611006 2.22565 0
M  V30 9654 C 881.387 -1.14902 1.19945 0
M  V30 9655 O 882.572 -1.19815 1.48489 0
M  V30 9656 C 879.712 -1.78885 2.95117 0
M  V30 9657 C 878.825 -1.2846 4.12458 0
M  V30 9658 C 877.96 -2.42432 4.72652 0
M  V30 9659 C 876.999 -1.89015 5.82185 0
M  V30 9660 N 876.136 -2.96463 6.36439 0
M  V30 9661 H 880.976 -0.0295849 2.97985 0
M  V30 9662 H 878.513 -0.00283607 1.471 0
M  V30 9663 H 880.471 -2.48121 3.35398 0
M  V30 9664 H 879.101 -2.34229 2.22119 0
M  V30 9665 H 878.153 -0.485312 3.77292 0
M  V30 9666 H 879.465 -0.853358 4.91446 0
M  V30 9667 H 878.619 -3.19659 5.15658 0
M  V30 9668 H 877.358 -2.88872 3.92943 0
M  V30 9669 H 876.363 -1.10267 5.38629 0
M  V30 9670 H 877.588 -1.43509 6.63763 0
M  V30 9671 H 875.534 -3.42283 5.59623 0
M  V30 9672 H 875.451 -2.57759 7.10701 0
M  V30 9673 H 876.719 -3.73663 6.84103 0
M  V30 9674 N 880.948 -1.576 0.00335426 0
M  V30 9675 C 882.194 -1.90996 -0.681799 0
M  V30 9676 C 882.527 -0.877643 -1.73237 0
M  V30 9677 O 881.802 0.103183 -1.94226 0
M  V30 9678 C 882.085 -3.34961 -1.32187 0
M  V30 9679 C 881.938 -4.48911 -0.28261 0
M  V30 9680 C 883.257 -3.78408 -2.24711 0
M  V30 9681 H 880.376 -0.694596 -0.246386 0
M  V30 9682 H 883.018 -1.89919 0.055336 0
M  V30 9683 H 881.168 -3.36008 -1.95014 0
M  V30 9684 H 882.84 -4.59999 0.346241 0
M  V30 9685 H 881.083 -4.32 0.394768 0
M  V30 9686 H 881.754 -5.46609 -0.769576 0
M  V30 9687 H 884.23 -3.78934 -1.71897 0
M  V30 9688 H 883.106 -4.79885 -2.66461 0
M  V30 9689 H 883.367 -3.12464 -3.1276 0
M  V30 9690 N 882.426 0.269451 -1.5528 0
M  V30 9691 C 883.356 1.33729 -1.91413 0
M  V30 9692 C 884.337 1.51348 -0.776391 0
M  V30 9693 O 885.522 1.64332 -1.03482 0
M  V30 9694 C 882.652 2.69618 -2.18914 0
M  V30 9695 C 881.606 2.66725 -3.34726 0
M  V30 9696 C 880.932 4.06199 -3.47716 0
M  V30 9697 C 882.232 2.25684 -4.71025 0
M  V30 9698 H 883.926 1.03736 -2.80854 0
M  V30 9699 H 881.472 0.497579 -1.3513 0
M  V30 9700 H 883.425 3.44436 -2.42779 0
M  V30 9701 H 882.149 3.01201 -1.26275 0
M  V30 9702 H 880.808 1.94365 -3.10834 0
M  V30 9703 H 880.456 4.3501 -2.52537 0
M  V30 9704 H 880.156 4.05157 -4.25583 0
M  V30 9705 H 881.68 4.8275 -3.73877 0
M  V30 9706 H 883.094 2.90225 -4.94411 0
M  V30 9707 H 881.491 2.35797 -5.51833 0
M  V30 9708 H 882.561 1.20819 -4.69607 0
M  V30 9709 N 883.904 1.48273 0.534124 0
M  V30 9710 C 884.836 1.5857 1.65494 0
M  V30 9711 C 885.849 0.470266 1.5586 0
M  V30 9712 O 887.038 0.740928 1.62396 0
M  V30 9713 C 884.138 1.49554 3.04117 0
M  V30 9714 C 883.311 2.76066 3.39273 0
M  V30 9715 C 882.37 2.60562 4.57159 0
M  V30 9716 O 881.396 3.34438 4.60587 0
M  V30 9717 N 882.598 1.69906 5.55079 0
M  V30 9718 H 885.363 2.55226 1.57099 0
M  V30 9719 H 882.924 1.44944 0.721303 0
M  V30 9720 H 884.916 1.36882 3.80848 0
M  V30 9721 H 883.486 0.608895 3.06613 0
M  V30 9722 H 882.706 3.03332 2.51761 0
M  V30 9723 H 883.994 3.60006 3.59546 0
M  V30 9724 H 883.392 1.09079 5.55084 0
M  V30 9725 H 881.949 1.63175 6.31044 0
M  V30 9726 N 885.382 -0.782676 1.36792 0
M  V30 9727 C 886.329 -1.89558 1.31667 0
M  V30 9728 C 887.299 -1.65076 0.184147 0
M  V30 9729 O 888.484 -1.87143 0.371753 0
M  V30 9730 C 885.624 -3.26469 1.11858 0
M  V30 9731 C 884.737 -3.62978 2.34245 0
M  V30 9732 C 883.872 -4.89041 2.07394 0
M  V30 9733 C 882.911 -5.18249 3.25706 0
M  V30 9734 N 882.048 -6.35497 2.98476 0
M  V30 9735 H 886.888 -1.93274 2.26824 0
M  V30 9736 H 884.425 -0.945057 1.12726 0
M  V30 9737 H 886.383 -4.05431 0.983968 0
M  V30 9738 H 885.013 -3.22158 0.203531 0
M  V30 9739 H 884.065 -2.79087 2.58485 0
M  V30 9740 H 885.377 -3.80507 3.22514 0
M  V30 9741 H 884.531 -5.75883 1.90901 0
M  V30 9742 H 883.27 -4.73594 1.16446 0
M  V30 9743 H 882.275 -4.29887 3.4275 0
M  V30 9744 H 883.5 -5.35611 4.1749 0
M  V30 9745 H 881.446 -6.21429 2.10146 0
M  V30 9746 H 881.363 -6.5339 3.80286 0
M  V30 9747 H 882.631 -7.25304 2.85577 0
M  V30 9748 N 886.86 -1.21182 -1.00761 0
M  V30 9749 C 887.79 -0.992773 -2.11344 0
M  V30 9750 C 888.771 0.0813618 -1.69905 0
M  V30 9751 O 889.956 -0.0779503 -1.94043 0
M  V30 9752 C 887.086 -0.553826 -3.42856 0
M  V30 9753 C 886.04 -1.57223 -3.98077 0
M  V30 9754 C 885.366 -0.989605 -5.25463 0
M  V30 9755 C 886.666 -2.95839 -4.30438 0
M  V30 9756 H 888.36 -1.91766 -2.29927 0
M  V30 9757 H 885.906 -0.923426 -1.10494 0
M  V30 9758 H 887.859 -0.387771 -4.19612 0
M  V30 9759 H 886.583 0.406702 -3.24058 0
M  V30 9760 H 885.242 -1.7258 -3.23437 0
M  V30 9761 H 884.89 -0.0208743 -5.02996 0
M  V30 9762 H 884.59 -1.66984 -5.63374 0
M  V30 9763 H 886.114 -0.834815 -6.04866 0
M  V30 9764 H 887.528 -2.8394 -4.98047 0
M  V30 9765 H 885.925 -3.60851 -4.79486 0
M  V30 9766 H 886.995 -3.46882 -3.38823 0
M  V30 9767 N 888.338 1.20213 -1.01915 0
M  V30 9768 C 889.271 2.2181 -0.536243 0
M  V30 9769 C 890.249 1.57144 0.417689 0
M  V30 9770 O 891.433 1.85461 0.337088 0
M  V30 9771 C 888.56 3.37989 0.219303 0
M  V30 9772 C 887.606 4.2097 -0.684571 0
M  V30 9773 S 888.439 4.90216 -2.15519 0
M  V30 9774 C 889.595 6.09814 -1.40988 0
M  V30 9775 H 889.828 2.62429 -1.39709 0
M  V30 9776 H 887.361 1.30305 -0.828254 0
M  V30 9777 H 889.319 4.05335 0.649112 0
M  V30 9778 H 887.98 2.95825 1.05575 0
M  V30 9779 H 887.173 5.03897 -0.101833 0
M  V30 9780 H 886.775 3.58892 -1.05227 0
M  V30 9781 H 889.067 6.73964 -0.691243 0
M  V30 9782 H 890.01 6.72552 -2.21539 0
M  V30 9783 H 890.418 5.5709 -0.911645 0
M  V30 9784 N 889.816 0.795718 1.36037 0
M  V30 9785 C 890.749 0.144269 2.27744 0
M  V30 9786 C 891.727 -0.683351 1.47543 0
M  V30 9787 O 892.911 -0.652976 1.76829 0
M  V30 9788 C 890.038 -0.800944 3.29094 0
M  V30 9789 C 889.084 -0.0543234 4.26465 0
M  V30 9790 S 889.917 1.27426 5.20118 0
M  V30 9791 C 891.073 0.333213 6.25012 0
M  V30 9792 H 891.306 0.921827 2.82648 0
M  V30 9793 H 888.839 0.590241 1.42673 0
M  V30 9794 H 890.797 -1.34082 3.87985 0
M  V30 9795 H 889.458 -1.5518 2.7309 0
M  V30 9796 H 888.651 -0.771788 4.98056 0
M  V30 9797 H 888.253 0.415264 3.71687 0
M  V30 9798 H 890.545 -0.485604 6.75757 0
M  V30 9799 H 891.488 1.01798 7.00744 0
M  V30 9800 H 891.896 -0.066256 5.64461 0
M  V30 9801 N 891.294 -1.47756 0.548274 0
M  V30 9802 C 892.242 -2.3158 -0.217584 0
M  V30 9803 C 893.236 -1.42372 -0.917957 0
M  V30 9804 O 894.442 -1.59184 -0.840259 0
M  V30 9805 H 890.817 -0.74671 -0.0890388 0
M  V30 9806 H 892.788 -2.94032 0.508719 0
M  V30 9807 C 891.537 -3.24834 -1.24008 0
M  V30 9808 H 890.86 -3.93435 -0.710572 0
M  V30 9809 H 892.3 -3.86336 -1.74701 0
M  V30 9810 C 890.759 -2.47724 -2.2833 0
M  V30 9811 O 891.289 -2.21522 -3.35098 0
M  V30 9812 N 889.495 -2.08891 -2.02022 0
M  V30 9813 H 889.042 -2.30401 -1.1521 0
M  V30 9814 H 889 -1.57613 -2.7204 0
M  V30 9815 N 892.772 -0.284283 -1.55015 0
M  V30 9816 C 894.049 0.382125 -1.91831 0
M  V30 9817 C 894.429 1.73007 -1.20962 0
M  V30 9818 O 893.777 2.25962 -0.339594 0
M  V30 9819 C 893.987 0.513341 -3.45204 0
M  V30 9820 C 895.335 0.791989 -4.17148 0
M  V30 9821 O 896.359 0.597799 -3.51148 0
M  V30 9822 O 895.218 1.16394 -5.33961 0
M  V30 9823 H 892.312 0.210707 -0.799707 0
M  V30 9824 H 894.858 -0.331111 -1.66438 0
M  V30 9825 H 893.63 -0.434911 -3.88876 0
M  V30 9826 H 893.253 1.27569 -3.76579 0
M  V30 9827 N 894.251 1.57596 -0.0117121 0
M  V30 9828 C 895.199 2.1029 0.994035 0
M  V30 9829 C 896.193 1.02549 1.34833 0
M  V30 9830 O 897.399 1.21003 1.3326 0
M  V30 9831 H 893.774 0.671624 0.338268 0
M  V30 9832 H 895.745 2.93761 0.524147 0
M  V30 9833 C 894.494 2.63099 2.27319 0
M  V30 9834 H 893.817 3.45642 2.00927 0
M  V30 9835 H 895.257 3.03635 2.95942 0
M  V30 9836 C 893.716 1.55044 2.99104 0
M  V30 9837 O 894.246 0.940127 3.90544 0
M  V30 9838 N 892.452 1.27506 2.61133 0
M  V30 9839 H 891.999 1.77322 1.86855 0
M  V30 9840 H 891.957 0.554292 3.09475 0
M  V30 9841 N 895.729 -0.261212 1.5542 0
M  V30 9842 C 897.006 -1.01321 1.67312 0
M  V30 9843 C 897.386 -2.0388 0.547356 0
M  V30 9844 O 896.734 -2.24003 -0.451083 0
M  V30 9845 C 896.944 -1.65943 3.07024 0
M  V30 9846 C 898.292 -2.16666 3.65159 0
M  V30 9847 O 899.316 -1.75909 3.09733 0
M  V30 9848 O 898.175 -2.91455 4.62294 0
M  V30 9849 H 895.269 -0.470714 0.679968 0
M  V30 9850 H 897.815 -0.256133 1.67756 0
M  V30 9851 H 896.587 -0.916868 3.80407 0
M  V30 9852 H 896.21 -2.48308 3.1053 0
M  V30 9853 N 897.207 -1.48554 -0.526253 0
M  V30 9854 C 898.456 -1.56014 -1.27837 0
M  V30 9855 C 898.769 -0.240643 -1.94114 0
M  V30 9856 O 899.975 -0.193525 -2.70809 0
M  V30 9857 C 898.431 -2.75161 -2.31979 0
M  V30 9858 C 898.039 -4.13768 -1.71755 0
M  V30 9859 C 899.783 -2.91936 -3.08178 0
M  V30 9860 C 897.69 -5.24171 -2.7386 0
M  V30 9861 H 896.62 -0.58082 -0.480795 0
M  V30 9862 H 899.271 -1.74895 -0.555335 0
M  V30 9863 H 897.653 -2.49722 -3.07335 0
M  V30 9864 H 898.827 -4.49241 -1.02563 0
M  V30 9865 H 897.142 -4.02141 -1.08036 0
M  V30 9866 H 899.739 -3.71586 -3.84484 0
M  V30 9867 H 900.082 -2.01533 -3.64267 0
M  V30 9868 H 900.615 -3.17294 -2.39937 0
M  V30 9869 H 897.354 -6.16552 -2.22586 0
M  V30 9870 H 896.874 -4.93181 -3.41368 0
M  V30 9871 H 898.553 -5.52442 -3.36774 0
M  V30 9872 N 898.685 0.775411 -1.37205 0
M  V30 9873 C 899.91 1.5696 -1.35567 0
M  V30 9874 C 900.335 1.88012 0.0575554 0
M  V30 9875 O 899.693 1.48954 1.03355 0
M  V30 9876 C 899.741 2.85886 -2.19776 0
M  V30 9877 O 898.845 3.80103 -1.59987 0
M  V30 9878 H 898.186 0.475583 -0.463375 0
M  V30 9879 H 900.716 0.96001 -1.80679 0
M  V30 9880 H 900.726 3.35024 -2.32859 0
M  V30 9881 H 899.401 2.62613 -3.22502 0
M  V30 9882 H 897.978 3.38736 -1.55924 0
M  V30 9883 N 900.163 1.21714 1.00117 0
M  V30 9884 C 901.388 1.06357 1.78054 0
M  V30 9885 C 901.813 -0.382075 1.84179 0
M  V30 9886 O 901.171 -1.27575 1.28819 0
M  V30 9887 C 901.219 1.66982 3.19608 0
M  V30 9888 O 900.323 0.917892 4.02055 0
M  V30 9889 H 899.664 0.374074 0.548602 0
M  V30 9890 H 902.194 1.61338 1.25822 0
M  V30 9891 H 902.204 1.71363 3.70268 0
M  V30 9892 H 900.879 2.72185 3.14465 0
M  V30 9893 H 899.456 0.949473 3.6061 0
M  V30 9894 N 901.641 -1.19671 1.02551 0
M  V30 9895 C 902.866 -1.93774 0.739363 0
M  V30 9896 C 903.291 -1.74787 -0.695064 0
M  V30 9897 O 902.649 -1.04796 -1.47944 0
M  V30 9898 C 902.697 -3.43684 1.09149 0
M  V30 9899 O 901.801 -4.11874 0.208213 0
M  V30 9900 H 901.142 -0.605064 0.273484 0
M  V30 9901 H 903.672 -1.51846 1.37128 0
M  V30 9902 H 903.682 -3.94339 1.04695 0
M  V30 9903 H 902.357 -3.56826 2.13654 0
M  V30 9904 H 900.934 -3.716 0.311045 0
M  V30 9905 N 903.119 -0.802921 -1.35613 0
M  V30 9906 C 904.347 -0.39393 -2.03115 0
M  V30 9907 C 904.762 0.993961 -1.60517 0
M  V30 9908 O 904.119 1.63984 -0.800973 0
M  V30 9909 C 904.17 -0.463486 -3.58516 0
M  V30 9910 O 903.891 -1.79666 -3.99565 0
M  V30 9911 C 905.392 -0.0468377 -4.43275 0
M  V30 9912 H 902.612 -0.160519 -0.651517 0
M  V30 9913 H 905.156 -1.08552 -1.73311 0
M  V30 9914 H 903.311 0.179821 -3.86982 0
M  V30 9915 H 903.725 -1.75688 -4.942 0
M  V30 9916 H 905.199 -0.146626 -5.51805 0
M  V30 9917 H 905.676 1.00741 -4.2749 0
M  V30 9918 H 906.282 -0.663158 -4.20098 0
M  V30 9919 N 904.597 1.47463 -0.556102 0
M  V30 9920 C 905.822 2.07371 -0.0344729 0
M  V30 9921 C 906.247 1.40621 1.2493 0
M  V30 9922 O 905.605 0.48082 1.74808 0
M  V30 9923 C 905.653 3.60306 0.145563 0
M  V30 9924 O 904.757 3.94299 1.20839 0
M  V30 9925 H 904.098 0.662052 -0.0508274 0
M  V30 9926 H 906.628 1.89498 -0.771469 0
M  V30 9927 H 906.638 4.06408 0.360112 0
M  V30 9928 H 905.313 4.08288 -0.792089 0
M  V30 9929 H 903.89 3.59944 0.97442 0
M  V30 9930 N 906.075 0.2925 1.54862 0
M  V30 9931 C 907.491 -0.0611461 1.59483 0
M  V30 9932 C 907.691 -1.53141 1.30958 0
M  V30 9933 O 906.747 -2.28291 1.07887 0
M  V30 9934 C 908.06 0.329143 2.98893 0
M  V30 9935 C 909.608 0.2772 3.1177 0
M  V30 9936 C 910.083 0.642185 4.53475 0
M  V30 9937 N 911.574 0.594396 4.5937 0
M  V30 9938 C 912.309 0.849385 5.67074 0
M  V30 9939 N 911.805 1.1699 6.82851 0
M  V30 9940 N 913.598 0.777016 5.56704 0
M  V30 9941 H 905.749 1.25079 1.71665 0
M  V30 9942 H 908.012 0.506516 0.80134 0
M  V30 9943 H 907.718 1.35233 3.24661 0
M  V30 9944 H 907.592 -0.321442 3.75828 0
M  V30 9945 H 909.979 -0.736725 2.85756 0
M  V30 9946 H 910.06 0.962289 2.3701 0
M  V30 9947 H 909.704 1.65388 4.80218 0
M  V30 9948 H 909.634 -0.0648831 5.2656 0
M  V30 9949 H 912.125 0.357256 3.76208 0
M  V30 9950 H 912.438 1.35067 7.60905 0
M  V30 9951 H 910.783 1.20785 6.84424 0
M  V30 9952 H 913.974 0.526333 4.65132 0
M  V30 9953 H 914.147 0.979113 6.4056 0
M  V30 9954 N 907.553 -1.57587 0.0200696 0
M  V30 9955 C 908.781 -1.95718 -0.670964 0
M  V30 9956 C 909.196 -0.896081 -1.6618 0
M  V30 9957 O 908.553 0.123037 -1.82085 0
M  V30 9958 C 908.604 -3.33904 -1.38529 0
M  V30 9959 O 908.325 -4.35943 -0.434167 0
M  V30 9960 C 909.826 -3.86614 -2.16898 0
M  V30 9961 H 907.046 -0.644819 -0.185606 0
M  V30 9962 H 909.59 -2.04354 0.0771495 0
M  V30 9963 H 907.745 -3.26515 -2.08487 0
M  V30 9964 H 908.159 -5.16001 -0.940378 0
M  V30 9965 H 909.633 -4.85673 -2.62346 0
M  V30 9966 H 910.11 -3.20379 -3.00423 0
M  V30 9967 H 910.716 -3.97243 -1.51916 0
M  V30 9968 N 909.032 0.252966 -1.55557 0
M  V30 9969 C 909.965 1.33928 -1.84766 0
M  V30 9970 C 910.943 1.46653 -0.702254 0
M  V30 9971 O 912.127 1.62963 -0.947375 0
M  V30 9972 C 909.254 2.71348 -2.02701 0
M  V30 9973 C 908.3 2.75804 -3.25322 0
M  V30 9974 S 909.133 2.33025 -4.82141 0
M  V30 9975 C 910.289 3.72382 -5.03073 0
M  V30 9976 H 910.522 1.08951 -2.76617 0
M  V30 9977 H 908.055 0.45364 -1.47585 0
M  V30 9978 H 910.013 3.50478 -2.13718 0
M  V30 9979 H 908.674 2.93566 -1.11703 0
M  V30 9980 H 907.867 3.76713 -3.34819 0
M  V30 9981 H 907.469 2.04713 -3.12999 0
M  V30 9982 H 909.761 4.67828 -4.90044 0
M  V30 9983 H 910.704 3.67824 -6.05071 0
M  V30 9984 H 911.112 3.64614 -4.30949 0
M  V30 9985 N 910.51 1.48831 0.518367 0
M  V30 9986 C 911.42 1.6692 1.64848 0
M  V30 9987 C 912.436 0.551711 1.65022 0
M  V30 9988 O 913.612 0.824251 1.83761 0
M  V30 9989 C 910.677 1.71559 3.01278 0
M  V30 9990 C 909.738 2.9502 3.11868 0
M  V30 9991 C 908.971 2.99428 4.4179 0
M  V30 9992 O 909.194 2.11914 5.29574 0
M  V30 9993 O 908.128 3.91719 4.5699 0
M  V30 9994 H 911.954 2.62623 1.52521 0
M  V30 9995 H 909.539 1.32368 0.692749 0
M  V30 9996 H 911.421 1.77064 3.82396 0
M  V30 9997 H 910.096 0.790316 3.13904 0
M  V30 9998 H 909.003 2.95042 2.30003 0
M  V30 9999 H 910.336 3.8697 3.04163 0
M  V30 10000 N 911.988 -0.768124 1.37614 0
M  V30 10001 C 913.213 -1.56239 1.36397 0
M  V30 10002 C 913.638 -1.8804 -0.0475839 0
M  V30 10003 O 912.996 -1.495 -1.02564 0
M  V30 10004 C 913.044 -2.84716 2.21289 0
M  V30 10005 O 912.148 -3.79249 1.62001 0
M  V30 10006 H 911.489 -0.473119 0.465891 0
M  V30 10007 H 914.019 -0.950415 1.81186 0
M  V30 10008 H 914.029 -3.33784 2.34632 0
M  V30 10009 H 912.704 -2.60899 3.2389 0
M  V30 10010 H 911.281 -3.37904 1.57719 0
M  V30 10011 N 913.466 -1.22244 -0.994698 0
M  V30 10012 C 914.376 -1.00722 -2.11878 0
M  V30 10013 C 915.392 0.043919 -1.73945 0
M  V30 10014 O 916.568 -0.148411 -2.00852 0
M  V30 10015 C 913.633 -0.585723 -3.41717 0
M  V30 10016 C 912.694 -1.71027 -3.93762 0
M  V30 10017 C 911.927 -1.30879 -5.17403 0
M  V30 10018 O 912.15 -0.18681 -5.70094 0
M  V30 10019 O 911.084 -2.1246 -5.63156 0
M  V30 10020 H 914.91 -1.94894 -2.32916 0
M  V30 10021 H 912.495 -1.00822 -1.10251 0
M  V30 10022 H 914.377 -0.360935 -4.19851 0
M  V30 10023 H 913.052 0.327166 -3.22042 0
M  V30 10024 H 911.959 -1.98956 -3.16808 0
M  V30 10025 H 913.292 -2.60096 -4.17865 0
M  V30 10026 N 914.944 1.19125 -1.03184 0
M  V30 10027 C 916.169 1.93379 -0.749628 0
M  V30 10028 C 916.594 1.75153 0.685785 0
M  V30 10029 O 915.952 1.05579 1.47386 0
M  V30 10030 C 916 3.43101 -1.1097 0
M  V30 10031 O 915.104 4.11758 -0.230053 0
M  V30 10032 H 914.445 0.603605 -0.276689 0
M  V30 10033 H 916.975 1.51116 -1.37931 0
M  V30 10034 H 916.985 3.93778 -1.06785 0
M  V30 10035 H 915.66 3.55688 -2.15544 0
M  V30 10036 H 914.237 3.7143 -0.330748 0
M  V30 10037 N 916.422 0.810101 1.35185 0
M  V30 10038 C 917.352 0.237453 2.32289 0
M  V30 10039 C 918.333 -0.639032 1.5764 0
M  V30 10040 O 919.518 -0.568575 1.8569 0
M  V30 10041 C 916.648 -0.611964 3.41866 0
M  V30 10042 C 915.602 0.166318 4.27677 0
M  V30 10043 C 914.928 -0.805024 5.28605 0
M  V30 10044 C 916.228 1.36729 5.04086 0
M  V30 10045 H 917.922 1.04874 2.80432 0
M  V30 10046 H 915.468 0.505751 1.34826 0
M  V30 10047 H 917.421 -1.02267 4.08802 0
M  V30 10048 H 916.145 -1.45617 2.92341 0
M  V30 10049 H 914.804 0.558238 3.62325 0
M  V30 10050 H 914.452 -1.64483 4.75347 0
M  V30 10051 H 914.152 -0.288577 5.86891 0
M  V30 10052 H 915.676 -1.21386 5.98413 0
M  V30 10053 H 917.09 1.03128 5.63948 0
M  V30 10054 H 915.487 1.81848 5.71884 0
M  V30 10055 H 916.557 2.15214 4.34524 0
M  V30 10056 N 917.9 -1.47166 0.563914 0
M  V30 10057 C 919.316 -1.58018 0.224173 0
M  V30 10058 C 919.516 -1.56163 -1.27339 0
M  V30 10059 O 918.572 -1.4686 -2.05398 0
M  V30 10060 C 919.885 -2.88236 0.856762 0
M  V30 10061 C 921.433 -3.01833 0.82861 0
M  V30 10062 C 921.908 -4.34761 1.44039 0
M  V30 10063 N 923.399 -4.41413 1.40388 0
M  V30 10064 C 924.134 -5.42845 1.84681 0
M  V30 10065 N 923.63 -6.51052 2.3686 0
M  V30 10066 N 925.423 -5.33931 1.75711 0
M  V30 10067 H 917.574 -1.46615 1.53681 0
M  V30 10068 H 919.837 -0.698195 0.64127 0
M  V30 10069 H 919.543 -2.95349 1.90949 0
M  V30 10070 H 919.417 -3.75537 0.353766 0
M  V30 10071 H 921.804 -2.94312 -0.215451 0
M  V30 10072 H 921.885 -2.16056 1.36943 0
M  V30 10073 H 921.529 -4.43037 2.48355 0
M  V30 10074 H 921.459 -5.1928 0.874953 0
M  V30 10075 H 923.95 -3.63811 1.02227 0
M  V30 10076 H 924.263 -7.24633 2.68564 0
M  V30 10077 H 922.608 -6.51924 2.40875 0
M  V30 10078 H 925.799 -4.48295 1.34718 0
M  V30 10079 H 925.972 -6.12841 2.10547 0
M  V30 10080 N 919.378 -0.300708 -1.54705 0
M  V30 10081 C 920.606 0.31127 -2.04545 0
M  V30 10082 C 921.021 1.47542 -1.178 0
M  V30 10083 O 920.378 1.81361 -0.203571 0
M  V30 10084 C 920.429 0.767783 -3.53253 0
M  V30 10085 O 920.15 -0.350027 -4.36699 0
M  V30 10086 C 921.651 1.44494 -4.1909 0
M  V30 10087 H 918.871 0.067668 -0.667579 0
M  V30 10088 H 921.415 -0.440254 -1.99705 0
M  V30 10089 H 919.57 1.46933 -3.58454 0
M  V30 10090 H 919.984 0.00534038 -5.245 0
M  V30 10091 H 921.458 1.71553 -5.24665 0
M  V30 10092 H 921.935 2.3849 -3.68808 0
M  V30 10093 H 922.541 0.786581 -4.17963 0
M  V30 10094 N 920.856 1.57574 -0.0284266 0
M  V30 10095 C 921.786 2.1321 0.952039 0
M  V30 10096 C 922.767 1.04806 1.33977 0
M  V30 10097 O 923.952 1.32635 1.41851 0
M  V30 10098 C 921.082 2.65862 2.23461 0
M  V30 10099 C 920.036 3.79047 1.98765 0
M  V30 10100 C 919.362 4.18124 3.33281 0
M  V30 10101 C 920.662 5.05151 1.32739 0
M  V30 10102 H 922.356 2.95385 0.488705 0
M  V30 10103 H 919.902 1.42092 0.233628 0
M  V30 10104 H 921.855 3.03417 2.92431 0
M  V30 10105 H 920.579 1.80848 2.71959 0
M  V30 10106 H 919.238 3.41929 1.32213 0
M  V30 10107 H 918.886 3.30092 3.79537 0
M  V30 10108 H 918.586 4.94396 3.17563 0
M  V30 10109 H 920.11 4.58262 4.0352 0
M  V30 10110 H 921.524 5.40297 1.91708 0
M  V30 10111 H 919.921 5.86416 1.27421 0
M  V30 10112 H 920.991 4.83969 0.300261 0
M  V30 10113 N 922.334 -0.244713 1.55689 0
M  V30 10114 C 923.244 -1.32447 1.93636 0
M  V30 10115 C 924.26 -1.52541 0.837086 0
M  V30 10116 O 925.436 -1.66121 1.13867 0
M  V30 10117 C 922.501 -2.65864 2.22525 0
M  V30 10118 C 921.562 -2.54273 3.45896 0
M  V30 10119 C 920.795 -3.81327 3.73397 0
M  V30 10120 O 921.018 -4.83307 3.02936 0
M  V30 10121 O 919.952 -3.79829 4.66919 0
M  V30 10122 H 923.778 -1.03255 2.85608 0
M  V30 10123 H 921.363 -0.445652 1.42598 0
M  V30 10124 H 923.245 -3.447 2.42404 0
M  V30 10125 H 921.92 -2.94784 1.33731 0
M  V30 10126 H 920.827 -1.73715 3.31321 0
M  V30 10127 H 922.16 -2.30297 4.34999 0
M  V30 10128 N 923.813 -1.49104 -0.510467 0
M  V30 10129 C 925.06 -1.58112 -1.26518 0
M  V30 10130 C 925.388 -0.263603 -1.92705 0
M  V30 10131 O 924.643 0.747743 -1.80852 0
M  V30 10132 C 924.942 -2.68259 -2.36161 0
M  V30 10133 C 924.608 -4.10069 -1.87495 0
M  V30 10134 C 923.27 -4.48662 -1.73942 0
M  V30 10135 C 925.622 -4.98859 -1.5096 0
M  V30 10136 C 922.95 -5.73829 -1.22217 0
M  V30 10137 C 925.302 -6.24535 -1.00691 0
M  V30 10138 C 923.966 -6.61967 -0.857691 0
M  V30 10139 H 923.236 -0.578574 -0.462962 0
M  V30 10140 H 925.883 -1.82899 -0.567475 0
M  V30 10141 H 924.188 -2.37407 -3.11681 0
M  V30 10142 H 925.885 -2.7244 -2.9424 0
M  V30 10143 H 922.475 -3.79601 -1.99001 0
M  V30 10144 H 926.659 -4.69706 -1.60282 0
M  V30 10145 H 921.915 -6.01539 -1.09368 0
M  V30 10146 H 926.089 -6.9272 -0.71498 0
M  V30 10147 H 923.716 -7.58839 -0.454702 0
M  V30 10148 N 925.291 0.760815 -1.38019 0
M  V30 10149 C 926.707 1.06289 -1.19058 0
M  V30 10150 C 926.907 2.01471 -0.0342603 0
M  V30 10151 O 925.963 2.44713 0.62224 0
M  V30 10152 C 927.276 1.6499 -2.51394 0
M  V30 10153 C 928.824 1.77196 -2.58013 0
M  V30 10154 C 929.299 2.3931 -3.90506 0
M  V30 10155 N 930.79 2.46749 -3.92007 0
M  V30 10156 C 931.525 2.95687 -4.91281 0
M  V30 10157 N 931.021 3.44715 -6.00952 0
M  V30 10158 N 932.814 2.94661 -4.78677 0
M  V30 10159 H 924.965 0.129045 -2.12008 0
M  V30 10160 H 927.228 0.119878 -0.94039 0
M  V30 10161 H 926.934 1.0252 -3.36426 0
M  V30 10162 H 926.808 2.64146 -2.6927 0
M  V30 10163 H 929.195 2.38796 -1.7338 0
M  V30 10164 H 929.276 0.767645 -2.4401 0
M  V30 10165 H 928.92 1.78346 -4.75558 0
M  V30 10166 H 928.85 3.40369 -4.01817 0
M  V30 10167 H 931.341 2.12064 -3.12789 0
M  V30 10168 H 931.654 3.80492 -6.72641 0
M  V30 10169 H 929.999 3.42791 -6.04582 0
M  V30 10170 H 933.19 2.55665 -3.92113 0
M  V30 10171 H 933.363 3.32489 -5.56197 0
M  V30 10172 N 926.769 1.22769 0.988202 0
M  V30 10173 C 928.017 1.05301 1.725 0
M  V30 10174 C 928.338 -0.412103 1.90596 0
M  V30 10175 O 927.608 -1.29606 1.46898 0
M  V30 10176 H 926.188 0.386658 0.639144 0
M  V30 10177 H 928.85 1.54359 1.18993 0
M  V30 10178 H 927.946 1.53465 2.71763 0
M  V30 10179 N 928.247 -1.18576 1.03814 0
M  V30 10180 C 929.195 -2.24166 0.620678 0
M  V30 10181 C 930.189 -1.65718 -0.351282 0
M  V30 10182 O 931.395 -1.78665 -0.218848 0
M  V30 10183 H 927.77 -0.729522 0.182487 0
M  V30 10184 H 929.741 -2.56686 1.52166 0
M  V30 10185 C 928.49 -3.477 -0.00307331 0
M  V30 10186 H 927.813 -3.92969 0.735874 0
M  V30 10187 H 929.253 -4.23214 -0.257988 0
M  V30 10188 C 927.712 -3.12757 -1.2524 0
M  V30 10189 O 928.242 -3.26261 -2.34344 0
M  V30 10190 N 926.448 -2.67104 -1.14471 0
M  V30 10191 H 925.995 -2.56316 -0.256873 0
M  V30 10192 H 925.953 -2.44096 -1.98153 0
M  V30 10193 N 929.725 -0.817259 -1.34754 0
M  V30 10194 C 930.675 -0.207585 -2.27053 0
M  V30 10195 C 931.659 0.624836 -1.48272 0
M  V30 10196 O 932.851 0.480344 -1.70358 0
M  V30 10197 C 929.98 0.634281 -3.3739 0
M  V30 10198 C 929.066 -0.208456 -4.23587 0
M  V30 10199 N 929.457 -1.2767 -4.89422 0
M  V30 10200 C 927.755 0.00815096 -4.45999 0
M  V30 10201 C 928.456 -1.79209 -5.53407 0
M  V30 10202 N 927.432 -1.09686 -5.32419 0
M  V30 10203 H 931.234 -1.0248 -2.75454 0
M  V30 10204 H 928.748 -0.659492 -1.48406 0
M  V30 10205 H 930.745 1.08718 -4.02475 0
M  V30 10206 H 929.405 1.44972 -2.90539 0
M  V30 10207 H 930.416 -1.65945 -4.90594 0
M  V30 10208 H 927.093 0.791879 -4.09921 0
M  V30 10209 H 928.483 -2.68548 -6.15899 0
M  V30 10210 N 931.203 1.46865 -0.571711 0
M  V30 10211 C 932.133 2.3298 0.155795 0
M  V30 10212 C 933.114 1.44678 0.894553 0
M  V30 10213 O 934.299 1.73513 0.872176 0
M  V30 10214 C 931.429 3.26745 1.17708 0
M  V30 10215 C 930.383 4.24401 0.553863 0
M  V30 10216 C 929.709 5.07595 1.68083 0
M  V30 10217 C 931.009 5.19884 -0.501827 0
M  V30 10218 H 932.703 2.94056 -0.563176 0
M  V30 10219 H 930.249 1.41402 -0.27228 0
M  V30 10220 H 932.202 3.85838 1.6943 0
M  V30 10221 H 930.926 2.63753 1.92618 0
M  V30 10222 H 929.585 3.66554 0.057815 0
M  V30 10223 H 929.233 4.40996 2.41933 0
M  V30 10224 H 928.933 5.73722 1.26953 0
M  V30 10225 H 930.457 5.6955 2.20103 0
M  V30 10226 H 931.871 5.73257 -0.0701057 0
M  V30 10227 H 930.268 5.94293 -0.832815 0
M  V30 10228 H 931.338 4.64482 -1.39229 0
M  V30 10229 N 932.681 0.308908 1.54543 0
M  V30 10230 C 933.958 -0.351558 1.92415 0
M  V30 10231 C 934.338 -1.71061 1.23699 0
M  V30 10232 O 933.686 -2.25394 0.3755 0
M  V30 10233 C 933.896 -0.458357 3.45977 0
M  V30 10234 C 935.244 -0.725524 4.18355 0
M  V30 10235 O 936.268 -0.541859 3.52054 0
M  V30 10236 O 935.127 -1.07884 5.35745 0
M  V30 10237 H 932.221 -0.197957 0.802958 0
M  V30 10238 H 934.767 0.357548 1.65891 0
M  V30 10239 H 933.539 0.496723 3.88134 0
M  V30 10240 H 933.162 -1.21562 3.78561 0
M  V30 10241 N 934.159 -1.57557 0.0367827 0
M  V30 10242 C 935.405 -1.92399 -0.641133 0
M  V30 10243 C 935.738 -0.914191 -1.71336 0
M  V30 10244 O 935.013 0.0619616 -1.94401 0
M  V30 10245 C 935.296 -3.37689 -1.25052 0
M  V30 10246 C 935.149 -4.4941 -0.187326 0
M  V30 10247 C 936.468 -3.8309 -2.16634 0
M  V30 10248 H 933.587 -0.699666 -0.231597 0
M  V30 10249 H 936.229 -1.89759 0.0956083 0
M  V30 10250 H 934.379 -3.40069 -1.87843 0
M  V30 10251 H 936.051 -4.59161 0.443736 0
M  V30 10252 H 934.294 -4.31065 0.486313 0
M  V30 10253 H 934.965 -5.48119 -0.653459 0
M  V30 10254 H 937.441 -3.82494 -1.63821 0
M  V30 10255 H 936.317 -4.85429 -2.56222 0
M  V30 10256 H 936.578 -3.19028 -3.06062 0
M  V30 10257 N 935.637 0.236453 -1.55816 0
M  V30 10258 C 936.567 1.29639 -1.94206 0
M  V30 10259 C 937.548 1.49667 -0.808319 0
M  V30 10260 O 938.733 1.621 -1.06945 0
M  V30 10261 C 935.863 2.64914 -2.24584 0
M  V30 10262 C 934.817 2.59565 -3.40308 0
M  V30 10263 C 934.143 3.98732 -3.56254 0
M  V30 10264 C 935.443 2.15642 -4.75706 0
M  V30 10265 H 937.137 0.977552 -2.82992 0
M  V30 10266 H 934.683 0.468804 -1.36155 0
M  V30 10267 H 936.636 3.39209 -2.50031 0
M  V30 10268 H 935.36 2.98455 -1.32636 0
M  V30 10269 H 934.019 1.87728 -3.14887 0
M  V30 10270 H 933.667 4.29556 -2.61707 0
M  V30 10271 H 933.367 3.96039 -4.34082 0
M  V30 10272 H 934.891 4.74711 -3.84033 0
M  V30 10273 H 936.305 2.79673 -5.00456 0
M  V30 10274 H 934.702 2.24039 -5.56711 0
M  V30 10275 H 935.772 1.10831 -4.72064 0
M  V30 10276 N 937.115 1.49373 0.502552 0
M  V30 10277 C 938.361 1.5999 1.25597 0
M  V30 10278 C 938.716 0.282287 1.90318 0
M  V30 10279 O 938.009 -0.71735 1.77664 0
M  V30 10280 C 938.203 2.69508 2.34735 0
M  V30 10281 C 938.032 4.11791 1.80716 0
M  V30 10282 C 936.802 4.78598 1.62087 0
M  V30 10283 C 939 4.97074 1.31991 0
M  V30 10284 N 936.982 6.05201 1.02981 0
M  V30 10285 C 938.353 6.14144 0.850098 0
M  V30 10286 C 940.408 4.83086 1.20549 0
M  V30 10287 C 939.111 7.18766 0.277192 0
M  V30 10288 C 941.137 5.87855 0.64656 0
M  V30 10289 C 940.499 7.04152 0.186968 0
M  V30 10290 H 936.598 0.639822 0.449613 0
M  V30 10291 H 939.182 1.86371 0.563361 0
M  V30 10292 H 937.353 2.44902 3.01459 0
M  V30 10293 H 939.085 2.69656 3.01774 0
M  V30 10294 H 935.84 4.35372 1.8641 0
M  V30 10295 H 936.264 6.72793 0.753601 0
M  V30 10296 H 940.906 3.93489 1.54681 0
M  V30 10297 H 938.624 8.08064 -0.0763971 0
M  V30 10298 H 942.21 5.79091 0.560832 0
M  V30 10299 H 941.09 7.83836 -0.238784 0
M  V30 10300 N 938.594 -0.753485 1.38421 0
M  V30 10301 C 940.01 -1.05656 1.1962 0
M  V30 10302 C 940.21 -2.0145 0.0449443 0
M  V30 10303 O 939.266 -2.45039 -0.609253 0
M  V30 10304 C 940.579 -1.63655 2.52265 0
M  V30 10305 C 942.127 -1.75825 2.58949 0
M  V30 10306 C 942.602 -2.37236 3.91769 0
M  V30 10307 N 944.093 -2.44666 3.9331 0
M  V30 10308 C 944.828 -2.93077 4.92842 0
M  V30 10309 N 944.324 -3.41523 6.02772 0
M  V30 10310 N 946.117 -2.92118 4.80232 0
M  V30 10311 H 938.268 -0.117799 2.12073 0
M  V30 10312 H 940.531 -0.114889 0.941012 0
M  V30 10313 H 940.237 -1.00734 3.36965 0
M  V30 10314 H 940.111 -2.62715 2.70667 0
M  V30 10315 H 942.498 -2.37873 1.74644 0
M  V30 10316 H 942.579 -0.754693 2.44414 0
M  V30 10317 H 942.223 -1.75822 4.76497 0
M  V30 10318 H 942.153 -3.38233 4.03616 0
M  V30 10319 H 944.644 -2.10403 3.1391 0
M  V30 10320 H 944.957 -3.76919 6.74649 0
M  V30 10321 H 943.302 -3.3958 6.06391 0
M  V30 10322 H 946.493 -2.53582 3.93464 0
M  V30 10323 H 946.666 -3.29535 5.57952 0
M  V30 10324 N 940.072 -1.23292 -0.981677 0
M  V30 10325 C 940.982 -1.02964 -2.10798 0
M  V30 10326 C 941.998 0.0254674 -1.73981 0
M  V30 10327 O 943.174 -0.169706 -2.00684 0
M  V30 10328 C 940.239 -0.621934 -3.41076 0
M  V30 10329 C 939.3 -1.75194 -3.91926 0
M  V30 10330 C 938.533 -1.36359 -5.15986 0
M  V30 10331 O 938.756 -0.247265 -5.69864 0
M  V30 10332 O 937.69 -2.18421 -5.60871 0
M  V30 10333 H 941.516 -1.97354 -2.30836 0
M  V30 10334 H 939.101 -1.01986 -1.09175 0
M  V30 10335 H 940.983 -0.405446 -4.19445 0
M  V30 10336 H 939.658 0.29299 -3.22371 0
M  V30 10337 H 938.565 -2.02305 -3.1468 0
M  V30 10338 H 939.898 -2.64513 -4.15083 0
M  V30 10339 N 941.55 1.18024 -1.04442 0
M  V30 10340 C 942.798 1.87727 -0.74854 0
M  V30 10341 C 943.119 1.80975 0.726156 0
M  V30 10342 O 942.389 1.23061 1.52423 0
M  V30 10343 H 940.969 0.694974 -0.273897 0
M  V30 10344 H 943.631 1.43213 -1.32197 0
M  V30 10345 H 942.727 2.93665 -1.05674 0
M  V30 10346 N 943.028 0.824394 1.34319 0
M  V30 10347 C 944.305 0.335692 1.92698 0
M  V30 10348 C 944.685 -1.17715 1.75232 0
M  V30 10349 O 944.033 -1.98493 1.13194 0
M  V30 10350 C 944.243 0.766647 3.40475 0
M  V30 10351 C 945.591 0.766323 4.17627 0
M  V30 10352 O 946.615 0.709321 3.49066 0
M  V30 10353 O 945.474 0.840856 5.39992 0
M  V30 10354 H 942.568 0.0919996 0.821867 0
M  V30 10355 H 945.114 0.909282 1.43283 0
M  V30 10356 H 943.886 1.80859 3.46995 0
M  V30 10357 H 943.509 0.168833 3.97241 0
M  V30 10358 N 944.506 -1.46559 0.579492 0
M  V30 10359 C 945.454 -2.3199 -0.168413 0
M  V30 10360 C 946.448 -1.44288 -0.887551 0
M  V30 10361 O 947.654 -1.60931 -0.806305 0
M  V30 10362 H 944.029 -0.748431 -0.0731799 0
M  V30 10363 H 946 -2.92886 0.570973 0
M  V30 10364 C 944.749 -3.27392 -1.1709 0
M  V30 10365 H 944.072 -3.94853 -0.626958 0
M  V30 10366 H 945.512 -3.89955 -1.66467 0
M  V30 10367 C 943.971 -2.52511 -2.23024 0
M  V30 10368 O 944.501 -2.2858 -3.30324 0
M  V30 10369 N 942.707 -2.1313 -1.97545 0
M  V30 10370 H 942.254 -2.32793 -1.10297 0
M  V30 10371 H 942.212 -1.63348 -2.68635 0
M  V30 10372 N 945.984 -0.3171 -1.54377 0
M  V30 10373 C 947.4 0.035766 -1.5956 0
M  V30 10374 C 947.6 1.51038 -1.33378 0
M  V30 10375 O 946.656 2.26546 -1.11505 0
M  V30 10376 C 947.969 -0.376652 -2.98332 0
M  V30 10377 C 949.517 -0.326765 -3.1129 0
M  V30 10378 C 949.992 -0.714247 -4.52396 0
M  V30 10379 N 951.483 -0.667402 -4.58367 0
M  V30 10380 C 952.218 -0.939494 -5.65651 0
M  V30 10381 N 951.714 -1.27839 -6.80903 0
M  V30 10382 N 953.507 -0.865484 -5.55397 0
M  V30 10383 H 945.658 -1.27794 -1.69654 0
M  V30 10384 H 947.921 -0.5192 -0.79318 0
M  V30 10385 H 947.627 -1.40381 -3.22469 0
M  V30 10386 H 947.501 0.261611 -3.76292 0
M  V30 10387 H 949.888 0.69117 -2.86892 0
M  V30 10388 H 949.969 -0.999873 -2.35449 0
M  V30 10389 H 949.613 -1.73007 -4.77526 0
M  V30 10390 H 949.543 -0.0188962 -5.26597 0
M  V30 10391 H 952.034 -0.417062 -3.75592 0
M  V30 10392 H 952.347 -1.47155 -7.5866 0
M  V30 10393 H 950.692 -1.31658 -6.82416 0
M  V30 10394 H 953.883 -0.600265 -4.64235 0
M  V30 10395 H 954.056 -1.0809 -6.38921 0
M  V30 10396 N 947.462 1.57535 -0.0451378 0
M  V30 10397 C 948.692 1.96476 0.638814 0
M  V30 10398 C 949.1 0.921056 1.65267 0
M  V30 10399 O 948.443 -0.103843 1.83406 0
M  V30 10400 C 948.505 3.31629 1.38788 0
M  V30 10401 C 948.169 4.5391 0.530545 0
M  V30 10402 C 949.166 5.19512 -0.200864 0
M  V30 10403 C 946.851 5.00159 0.463242 0
M  V30 10404 C 948.845 6.29695 -0.988078 0
M  V30 10405 C 946.532 6.10221 -0.327665 0
M  V30 10406 C 947.53 6.74849 -1.05202 0
M  V30 10407 O 947.218 7.82795 -1.82993 0
M  V30 10408 H 946.95 0.651625 0.17989 0
M  V30 10409 H 949.504 2.05126 -0.106031 0
M  V30 10410 H 947.734 3.19516 2.17822 0
M  V30 10411 H 949.423 3.5536 1.96148 0
M  V30 10412 H 950.189 4.84742 -0.158299 0
M  V30 10413 H 946.068 4.49651 1.01663 0
M  V30 10414 H 949.612 6.80072 -1.55397 0
M  V30 10415 H 945.509 6.44428 -0.37189 0
M  V30 10416 H 946.277 7.99542 -1.7514 0
M  V30 10417 N 948.94 -0.228186 1.55939 0
M  V30 10418 C 949.87 -1.28607 1.94891 0
M  V30 10419 C 950.851 -1.49236 0.816245 0
M  V30 10420 O 952.036 -1.61531 1.07803 0
M  V30 10421 C 949.166 -2.63719 2.25986 0
M  V30 10422 C 948.12 -2.57757 3.4168 0
M  V30 10423 C 947.446 -3.96837 3.58364 0
M  V30 10424 C 948.746 -2.13116 4.76843 0
M  V30 10425 H 950.44 -0.962531 2.83506 0
M  V30 10426 H 947.986 -0.461577 1.36402 0
M  V30 10427 H 949.939 -3.37878 2.51826 0
M  V30 10428 H 948.663 -2.97747 1.34217 0
M  V30 10429 H 947.322 -1.86055 3.15878 0
M  V30 10430 H 946.97 -4.28162 2.63982 0
M  V30 10431 H 946.67 -3.93731 4.36176 0
M  V30 10432 H 948.194 -4.72668 3.86545 0
M  V30 10433 H 949.608 -2.77015 5.01932 0
M  V30 10434 H 948.005 -2.21083 5.57891 0
M  V30 10435 H 949.075 -1.08326 4.72645 0
M  V30 10436 N 950.418 -1.49637 -0.494624 0
M  V30 10437 C 951.35 -1.62902 -1.61231 0
M  V30 10438 C 952.363 -0.511425 -1.54558 0
M  V30 10439 O 953.552 -0.783724 -1.60375 0
M  V30 10440 C 950.652 -1.57564 -3.00045 0
M  V30 10441 C 949.825 -2.84964 -3.31835 0
M  V30 10442 C 948.884 -2.72591 -4.5009 0
M  V30 10443 O 947.91 -3.46532 -4.51558 0
M  V30 10444 N 949.112 -1.84563 -5.50379 0
M  V30 10445 H 951.877 -2.59301 -1.50276 0
M  V30 10446 H 949.438 -1.46806 -0.68262 0
M  V30 10447 H 951.43 -1.46932 -3.77085 0
M  V30 10448 H 950 -0.689974 -3.0489 0
M  V30 10449 H 949.22 -3.099 -2.4363 0
M  V30 10450 H 950.508 -3.69412 -3.49875 0
M  V30 10451 H 949.906 -1.23758 -5.51997 0
M  V30 10452 H 948.463 -1.79849 -6.26496 0
M  V30 10453 N 951.896 0.746133 -1.38819 0
M  V30 10454 C 952.826 1.87344 -1.39372 0
M  V30 10455 C 953.807 1.68123 -0.258583 0
M  V30 10456 O 954.992 1.88606 -0.462769 0
M  V30 10457 C 952.122 3.24962 -1.22543 0
M  V30 10458 C 951.076 3.58799 -2.33339 0
M  V30 10459 C 950.402 4.95235 -2.01609 0
M  V30 10460 C 951.702 3.62911 -3.75624 0
M  V30 10461 H 953.396 1.87138 -2.33709 0
M  V30 10462 H 950.942 0.898937 -1.12495 0
M  V30 10463 H 952.895 4.03488 -1.21554 0
M  V30 10464 H 951.619 3.25667 -0.246707 0
M  V30 10465 H 950.278 2.82596 -2.33527 0
M  V30 10466 H 949.926 4.92508 -1.02202 0
M  V30 10467 H 949.626 5.18843 -2.75819 0
M  V30 10468 H 951.15 5.76131 -2.02251 0
M  V30 10469 H 952.564 4.31535 -3.77426 0
M  V30 10470 H 950.961 3.98031 -4.491 0
M  V30 10471 H 952.031 2.62967 -4.07402 0
M  V30 10472 N 953.375 1.23811 0.975125 0
M  V30 10473 C 954.622 1.07336 1.71712 0
M  V30 10474 C 954.95 -0.388954 1.90571 0
M  V30 10475 O 954.205 -1.30409 1.45918 0
M  V30 10476 C 954.504 1.74994 3.11628 0
M  V30 10477 C 954.17 3.24918 3.12632 0
M  V30 10478 C 952.832 3.65822 3.12614 0
M  V30 10479 C 955.184 4.20797 3.07538 0
M  V30 10480 C 952.512 5.01054 3.05224 0
M  V30 10481 C 954.864 5.56027 3.0169 0
M  V30 10482 C 953.528 5.96287 2.99996 0
M  V30 10483 H 952.798 0.392771 0.62834 0
M  V30 10484 H 955.445 1.53815 1.14075 0
M  V30 10485 H 953.75 1.20889 3.72684 0
M  V30 10486 H 955.447 1.5972 3.67819 0
M  V30 10487 H 952.037 2.92359 3.13407 0
M  V30 10488 H 956.221 3.902 3.06688 0
M  V30 10489 H 951.477 5.31454 3.02268 0
M  V30 10490 H 955.651 6.3003 2.96706 0
M  V30 10491 H 953.278 7.01037 2.94025 0
M  V30 10492 N 954.853 -1.17469 1.05066 0
M  V30 10493 C 955.8 -2.21443 0.650512 0
M  V30 10494 C 956.77 -1.62441 -0.346702 0
M  V30 10495 O 957.955 -1.89305 -0.238404 0
M  V30 10496 C 955.095 -3.45087 0.0301014 0
M  V30 10497 C 954.208 -4.18385 1.07599 0
M  V30 10498 C 953.343 -5.29513 0.423038 0
M  V30 10499 C 952.382 -5.94596 1.45333 0
M  V30 10500 N 951.519 -6.97241 0.824623 0
M  V30 10501 H 956.359 -2.55025 1.54163 0
M  V30 10502 H 953.896 -1.25274 0.771032 0
M  V30 10503 H 955.854 -4.15754 -0.347032 0
M  V30 10504 H 954.484 -3.12093 -0.824481 0
M  V30 10505 H 953.536 -3.46446 1.57097 0
M  V30 10506 H 954.848 -4.62899 1.85813 0
M  V30 10507 H 954.002 -6.067 -0.00774975 0
M  V30 10508 H 952.741 -4.86129 -0.391092 0
M  V30 10509 H 951.746 -5.16142 1.89415 0
M  V30 10510 H 952.971 -6.40061 2.26934 0
M  V30 10511 H 950.917 -6.55993 0.0309804 0
M  V30 10512 H 950.834 -7.40059 1.54432 0
M  V30 10513 H 952.102 -7.78375 0.418567 0
M  V30 10514 N 956.331 -0.831506 -1.3388 0
M  V30 10515 C 957.279 -0.247896 -2.31275 0
M  V30 10516 C 958.273 0.616083 -1.578 0
M  V30 10517 O 959.479 0.506465 -1.72728 0
M  V30 10518 H 955.854 -0.0614293 -0.749487 0
M  V30 10519 H 957.825 -1.08401 -2.78014 0
M  V30 10520 C 956.574 0.568434 -3.43022 0
M  V30 10521 H 955.897 -0.0870654 -3.99705 0
M  V30 10522 H 957.337 0.942751 -4.13386 0
M  V30 10523 C 955.796 1.74431 -2.88228 0
M  V30 10524 O 956.326 2.84278 -2.83811 0
M  V30 10525 N 954.532 1.56382 -2.44935 0
M  V30 10526 H 954.079 0.670255 -2.48727 0
M  V30 10527 H 954.037 2.35208 -2.08625 0
M  V30 10528 N 957.809 1.4625 -0.587256 0
M  V30 10529 C 958.739 2.33132 0.131076 0
M  V30 10530 C 959.72 1.45619 0.879158 0
M  V30 10531 O 960.905 1.74428 0.853723 0
M  V30 10532 C 958.035 3.27975 1.14236 0
M  V30 10533 C 956.989 4.24965 0.508819 0
M  V30 10534 C 956.315 5.09349 1.62689 0
M  V30 10535 C 957.615 5.19322 -0.55694 0
M  V30 10536 H 959.309 2.93442 -0.594333 0
M  V30 10537 H 956.855 1.41106 -0.287263 0
M  V30 10538 H 958.808 3.87614 1.65328 0
M  V30 10539 H 957.532 2.65781 1.8981 0
M  V30 10540 H 956.191 3.66595 0.0189337 0
M  V30 10541 H 955.839 4.43537 2.37242 0
M  V30 10542 H 955.539 5.75036 1.20861 0
M  V30 10543 H 957.063 5.71852 2.14049 0
M  V30 10544 H 958.477 5.73151 -0.130903 0
M  V30 10545 H 956.874 5.93376 -0.895801 0
M  V30 10546 H 957.944 4.62979 -1.44148 0
M  V30 10547 N 959.287 0.325282 1.54207 0
M  V30 10548 C 960.217 -0.532574 2.27345 0
M  V30 10549 C 961.198 -1.11791 1.28206 0
M  V30 10550 O 962.383 -1.14272 1.57021 0
M  V30 10551 C 959.513 -1.69274 3.03255 0
M  V30 10552 C 958.467 -1.23662 4.09746 0
M  V30 10553 C 957.793 -2.48386 4.73506 0
M  V30 10554 C 959.093 -0.350244 5.21124 0
M  V30 10555 H 960.787 0.0775108 2.993 0
M  V30 10556 H 958.333 0.0387193 1.43948 0
M  V30 10557 H 960.286 -2.29917 3.53152 0
M  V30 10558 H 959.01 -2.32944 2.28921 0
M  V30 10559 H 957.669 -0.653106 3.60735 0
M  V30 10560 H 957.317 -3.10424 3.95786 0
M  V30 10561 H 957.017 -2.18558 5.45441 0
M  V30 10562 H 958.541 -3.09789 5.26178 0
M  V30 10563 H 959.955 -0.863011 5.66767 0
M  V30 10564 H 958.352 -0.14466 5.99926 0
M  V30 10565 H 959.422 0.618457 4.8094 0
M  V30 10566 N 960.765 -1.57509 0.0534917 0
M  V30 10567 C 961.712 -2.11667 -0.920101 0
M  V30 10568 C 962.682 -1.0246 -1.30733 0
M  V30 10569 O 963.867 -1.30021 -1.39639 0
M  V30 10570 C 961.007 -2.66803 -2.18883 0
M  V30 10571 C 960.12 -3.90104 -1.85588 0
M  V30 10572 C 959.255 -4.33547 -3.06937 0
M  V30 10573 C 958.294 -5.49542 -2.69573 0
M  V30 10574 N 957.431 -5.88029 -3.83623 0
M  V30 10575 H 962.271 -2.94562 -0.451371 0
M  V30 10576 H 959.808 -1.45576 -0.211168 0
M  V30 10577 H 961.766 -2.96871 -2.93127 0
M  V30 10578 H 960.396 -1.86702 -2.63329 0
M  V30 10579 H 959.448 -3.66613 -1.01484 0
M  V30 10580 H 960.76 -4.74404 -1.54087 0
M  V30 10581 H 959.914 -4.6518 -3.89477 0
M  V30 10582 H 958.653 -3.48064 -3.41618 0
M  V30 10583 H 957.658 -5.17579 -1.8545 0
M  V30 10584 H 958.883 -6.36743 -2.36082 0
M  V30 10585 H 956.829 -5.05498 -4.181 0
M  V30 10586 H 956.746 -6.67025 -3.55828 0
M  V30 10587 H 958.014 -6.24277 -4.66796 0
M  V30 10588 N 962.243 0.219913 -1.56058 0
M  V30 10589 C 963.173 1.27572 -1.9557 0
M  V30 10590 C 964.154 1.48801 -0.824148 0
M  V30 10591 O 965.339 1.60957 -1.08658 0
M  V30 10592 C 962.469 2.62517 -2.27381 0
M  V30 10593 C 961.423 2.55941 -3.43042 0
M  V30 10594 C 960.749 3.94931 -3.60463 0
M  V30 10595 C 962.049 2.10584 -4.77966 0
M  V30 10596 H 963.743 0.947482 -2.84013 0
M  V30 10597 H 961.289 0.454337 -1.36645 0
M  V30 10598 H 963.242 3.36538 -2.53615 0
M  V30 10599 H 961.966 2.97031 -1.35794 0
M  V30 10600 H 960.625 1.84377 -3.1686 0
M  V30 10601 H 960.273 4.26756 -2.66249 0
M  V30 10602 H 959.973 3.91413 -4.38258 0
M  V30 10603 H 961.497 4.70611 -3.89046 0
M  V30 10604 H 962.911 2.74349 -5.03394 0
M  V30 10605 H 961.308 2.18122 -5.59055 0
M  V30 10606 H 962.378 1.05818 -4.73213 0
M  V30 10607 N 963.721 1.49897 0.486681 0
M  V30 10608 C 964.631 1.70379 1.6127 0
M  V30 10609 C 965.647 0.58659 1.63814 0
M  V30 10610 O 966.823 0.863044 1.81971 0
M  V30 10611 C 963.888 1.77911 2.97571 0
M  V30 10612 C 962.949 3.01569 3.0554 0
M  V30 10613 C 962.182 3.08732 4.35339 0
M  V30 10614 O 962.405 2.23099 5.2496 0
M  V30 10615 O 961.339 4.01325 4.48578 0
M  V30 10616 H 965.165 2.65799 1.46916 0
M  V30 10617 H 962.75 1.33808 0.664516 0
M  V30 10618 H 964.632 1.85135 3.78554 0
M  V30 10619 H 963.307 0.856722 3.12157 0
M  V30 10620 H 962.214 2.99854 2.23693 0
M  V30 10621 H 963.547 3.93335 2.95886 0
M  V30 10622 N 965.199 -0.738761 1.39212 0
M  V30 10623 C 966.109 -1.88324 1.39897 0
M  V30 10624 C 967.125 -1.71494 0.294229 0
M  V30 10625 O 968.301 -1.94162 0.535087 0
M  V30 10626 C 965.366 -3.23871 1.23726 0
M  V30 10627 C 964.427 -3.53121 2.44139 0
M  V30 10628 C 963.66 -4.82202 2.2873 0
M  V30 10629 O 963.883 -5.55649 1.28879 0
M  V30 10630 O 962.817 -5.11265 3.17634 0
M  V30 10631 H 966.643 -1.90701 2.36362 0
M  V30 10632 H 964.228 -0.886067 1.20288 0
M  V30 10633 H 966.11 -4.04882 1.16826 0
M  V30 10634 H 964.785 -3.22274 0.303551 0
M  V30 10635 H 963.692 -2.72212 2.56615 0
M  V30 10636 H 965.025 -3.59495 3.36191 0
M  V30 10637 N 966.677 -1.24326 -0.968545 0
M  V30 10638 C 967.607 -1.05951 -2.08079 0
M  V30 10639 C 968.588 0.0272666 -1.70078 0
M  V30 10640 O 969.773 -0.139644 -1.93697 0
M  V30 10641 C 966.903 -0.662623 -3.4092 0
M  V30 10642 C 965.857 -1.69807 -3.92873 0
M  V30 10643 C 965.183 -1.15628 -5.22048 0
M  V30 10644 C 966.483 -3.09383 -4.20808 0
M  V30 10645 H 968.177 -1.98984 -2.23709 0
M  V30 10646 H 965.723 -0.958112 -1.075 0
M  V30 10647 H 967.676 -0.521071 -4.18166 0
M  V30 10648 H 966.4 0.303399 -3.25188 0
M  V30 10649 H 965.059 -1.82783 -3.17783 0
M  V30 10650 H 964.707 -0.180888 -5.02675 0
M  V30 10651 H 964.407 -1.84822 -5.57776 0
M  V30 10652 H 965.931 -1.02683 -6.01904 0
M  V30 10653 H 967.345 -2.99642 -4.88761 0
M  V30 10654 H 965.742 -3.75923 -4.67763 0
M  V30 10655 H 966.812 -3.57486 -3.27616 0
M  V30 10656 N 968.156 1.1691 -1.05688 0
M  V30 10657 C 969.433 1.83266 -0.683601 0
M  V30 10658 C 969.813 1.93858 0.835602 0
M  V30 10659 O 969.161 1.47696 1.7435 0
M  V30 10660 C 969.371 3.20625 -1.37842 0
M  V30 10661 C 970.719 3.96473 -1.51967 0
M  V30 10662 O 971.743 3.30122 -1.33783 0
M  V30 10663 O 970.602 5.15393 -1.81749 0
M  V30 10664 H 967.696 0.791028 -0.241254 0
M  V30 10665 H 970.242 1.24165 -1.15677 0
M  V30 10666 H 969.014 3.07914 -2.41463 0
M  V30 10667 H 968.637 3.87398 -0.894921 0
M  V30 10668 N 969.634 0.838594 1.33437 0
M  V30 10669 C 970.883 0.430484 1.97053 0
M  V30 10670 C 971.196 -1.01556 1.6717 0
M  V30 10671 O 972.402 -1.52834 2.24397 0
M  V30 10672 C 970.858 0.718828 3.52648 0
M  V30 10673 C 970.466 2.17953 3.91408 0
M  V30 10674 C 972.21 0.377654 4.22817 0
M  V30 10675 C 970.117 2.41194 5.39981 0
M  V30 10676 H 969.047 0.157239 0.737422 0
M  V30 10677 H 971.698 1.02714 1.5206 0
M  V30 10678 H 970.08 0.0518042 3.95966 0
M  V30 10679 H 971.254 2.88701 3.59149 0
M  V30 10680 H 969.569 2.48366 3.34221 0
M  V30 10681 H 972.166 0.528926 5.32077 0
M  V30 10682 H 972.509 -0.679338 4.1072 0
M  V30 10683 H 973.042 0.999899 3.85028 0
M  V30 10684 H 969.781 3.45457 5.57081 0
M  V30 10685 H 969.301 1.75007 5.73701 0
M  V30 10686 H 970.98 2.24334 6.06863 0
M  V30 10687 N 971.112 -1.45937 0.595003 0
M  V30 10688 C 972.337 -2.07207 0.0894416 0
M  V30 10689 C 972.762 -1.43884 -1.21157 0
M  V30 10690 O 972.12 -0.526998 -1.73472 0
M  V30 10691 C 972.168 -3.60565 -0.0499828 0
M  V30 10692 O 971.272 -3.97364 -1.10342 0
M  V30 10693 H 970.613 -0.660471 0.0683627 0
M  V30 10694 H 973.143 -1.87386 0.82144 0
M  V30 10695 H 973.153 -4.0722 -0.252234 0
M  V30 10696 H 971.828 -4.06044 0.90006 0
M  V30 10697 H 970.405 -3.62401 -0.878645 0
M  V30 10698 N 972.59 -0.333456 -1.54032 0
M  V30 10699 C 973.537 0.527981 -2.2468 0
M  V30 10700 C 974.507 1.10371 -1.24127 0
M  V30 10701 O 975.692 1.14221 -1.52834 0
M  V30 10702 C 972.832 1.67808 -3.01553 0
M  V30 10703 C 971.945 1.13064 -4.16942 0
M  V30 10704 C 971.08 2.24722 -4.81325 0
M  V30 10705 C 970.119 1.67277 -5.88799 0
M  V30 10706 N 969.256 2.72638 -6.47003 0
M  V30 10707 H 974.096 -0.0810308 -2.9789 0
M  V30 10708 H 971.633 -0.051761 -1.47009 0
M  V30 10709 H 973.591 2.35502 -3.44376 0
M  V30 10710 H 972.221 2.25823 -2.30659 0
M  V30 10711 H 971.273 0.344948 -3.78833 0
M  V30 10712 H 972.585 0.670373 -4.94275 0
M  V30 10713 H 971.739 3.00301 -5.27166 0
M  V30 10714 H 970.478 2.74089 -4.03394 0
M  V30 10715 H 969.483 0.902002 -5.4235 0
M  V30 10716 H 970.708 1.18775 -6.68632 0
M  V30 10717 H 968.654 3.21277 -5.71941 0
M  V30 10718 H 968.571 2.31204 -7.19778 0
M  V30 10719 H 969.839 3.48015 -6.97499 0
M  V30 10720 N 974.068 1.57479 -0.061844 0
M  V30 10721 C 975.016 2.13346 0.926629 0
M  V30 10722 C 976.01 1.06787 1.31502 0
M  V30 10723 O 977.216 1.25181 1.29343 0
M  V30 10724 H 973.591 0.682046 0.316729 0
M  V30 10725 H 975.562 2.95279 0.430424 0
M  V30 10726 C 974.311 2.70198 2.18834 0
M  V30 10727 H 973.634 3.51859 1.89829 0
M  V30 10728 H 975.074 3.12897 2.86132 0
M  V30 10729 C 973.533 1.64481 2.9402 0
M  V30 10730 O 974.063 1.0639 3.87355 0
M  V30 10731 N 972.269 1.35749 2.56944 0
M  V30 10732 H 971.816 1.83177 1.81119 0
M  V30 10733 H 971.774 0.652469 3.07555 0
M  V30 10734 N 975.546 -0.211634 1.56173 0
M  V30 10735 C 976.771 -0.955324 1.84088 0
M  V30 10736 C 977.196 -1.76754 0.643407 0
M  V30 10737 O 976.554 -1.76653 -0.407842 0
M  V30 10738 C 976.602 -1.84063 3.10085 0
M  V30 10739 O 975.706 -2.9373 2.89476 0
M  V30 10740 H 975.047 -0.26996 0.606645 0
M  V30 10741 H 977.577 -0.221947 2.03393 0
M  V30 10742 H 977.587 -2.24852 3.40449 0
M  V30 10743 H 976.262 -1.24373 3.96868 0
M  V30 10744 H 974.839 -2.56816 2.7037 0
M  V30 10745 N 977.024 -1.50153 -0.478725 0
M  V30 10746 C 977.954 -1.71384 -1.58587 0
M  V30 10747 C 978.935 -0.562705 -1.60523 0
M  V30 10748 O 980.12 -0.80101 -1.76911 0
M  V30 10749 C 977.25 -1.80094 -2.96957 0
M  V30 10750 C 976.204 -2.95218 -3.09888 0
M  V30 10751 C 975.53 -2.89063 -4.49829 0
M  V30 10752 C 976.83 -4.35841 -2.8782 0
M  V30 10753 H 978.524 -2.64081 -1.41073 0
M  V30 10754 H 976.07 -1.27081 -0.677239 0
M  V30 10755 H 978.023 -1.93531 -3.74331 0
M  V30 10756 H 976.747 -0.840131 -3.1561 0
M  V30 10757 H 975.406 -2.81419 -2.34944 0
M  V30 10758 H 975.054 -1.90844 -4.6539 0
M  V30 10759 H 974.754 -3.66345 -4.59418 0
M  V30 10760 H 976.278 -3.04539 -5.29234 0
M  V30 10761 H 977.692 -4.50205 -3.54948 0
M  V30 10762 H 976.089 -5.14515 -3.0886 0
M  V30 10763 H 977.159 -4.48739 -1.83742 0
M  V30 10764 N 978.502 0.731368 -1.39602 0
M  V30 10765 C 979.727 1.52567 -1.40492 0
M  V30 10766 C 980.152 1.881 -0.00228828 0
M  V30 10767 O 979.51 1.52167 0.985643 0
M  V30 10768 C 979.558 2.78749 -2.2876 0
M  V30 10769 O 978.662 3.7482 -1.71999 0
M  V30 10770 H 978.003 0.460601 -0.478271 0
M  V30 10771 H 980.533 0.902042 -1.83642 0
M  V30 10772 H 980.543 3.27446 -2.43399 0
M  V30 10773 H 979.218 2.5222 -3.30693 0
M  V30 10774 H 977.795 3.33604 -1.66622 0
M  V30 10775 N 979.98 1.24838 0.961938 0
M  V30 10776 C 981.227 1.09151 1.70564 0
M  V30 10777 C 981.555 -0.368719 1.90973 0
M  V30 10778 O 980.81 -1.28854 1.47293 0
M  V30 10779 C 981.109 1.78289 3.09754 0
M  V30 10780 C 980.775 3.28216 3.09169 0
M  V30 10781 C 979.437 3.69118 3.08716 0
M  V30 10782 C 981.789 4.24035 3.03058 0
M  V30 10783 C 979.117 5.04263 2.99892 0
M  V30 10784 C 981.469 5.59195 2.95776 0
M  V30 10785 C 980.133 5.99436 2.93655 0
M  V30 10786 H 979.403 0.399414 0.624139 0
M  V30 10787 H 982.05 1.55016 1.12438 0
M  V30 10788 H 980.355 1.24835 3.7138 0
M  V30 10789 H 982.052 1.63612 3.66104 0
M  V30 10790 H 978.642 2.95667 3.10289 0
M  V30 10791 H 982.826 3.93431 3.02532 0
M  V30 10792 H 978.082 5.3463 2.96615 0
M  V30 10793 H 982.256 6.33142 2.90007 0
M  V30 10794 H 979.883 7.04116 2.86573 0
M  V30 10795 N 981.458 -1.16348 1.06306 0
M  V30 10796 C 982.388 -2.2291 0.695234 0
M  V30 10797 C 983.369 -1.67208 -0.312343 0
M  V30 10798 O 984.554 -1.93293 -0.187442 0
M  V30 10799 C 981.684 -3.47205 0.0810149 0
M  V30 10800 C 980.638 -4.15801 1.01458 0
M  V30 10801 C 979.964 -5.3405 0.263656 0
M  V30 10802 C 981.264 -4.66766 2.34365 0
M  V30 10803 H 982.958 -2.53934 1.58613 0
M  V30 10804 H 980.504 -1.22056 0.76409 0
M  V30 10805 H 982.457 -4.2098 -0.18818 0
M  V30 10806 H 981.181 -3.15482 -0.844897 0
M  V30 10807 H 979.84 -3.43954 1.26852 0
M  V30 10808 H 979.488 -4.9858 -0.665378 0
M  V30 10809 H 979.188 -5.80885 0.88582 0
M  V30 10810 H 980.712 -6.106 0.00200994 0
M  V30 10811 H 982.126 -5.3212 2.13356 0
M  V30 10812 H 980.523 -5.24223 2.9208 0
M  V30 10813 H 981.593 -3.82969 2.97426 0
M  V30 10814 N 982.937 -0.845659 -1.3299 0
M  V30 10815 C 984.348 -0.50048 -1.79867 0
M  V30 10816 C 984.699 0.981027 -1.69913 0
M  V30 10817 O 983.824 1.76477 -1.25239 0
M  V30 10818 C 984.419 -0.901679 -3.26581 0
M  V30 10819 C 982.978 -0.608536 -3.71448 0
M  V30 10820 C 982.125 -1.10632 -2.54275 0
M  V30 10821 H 985.076 -1.03372 -1.20416 0
M  V30 10822 H 985.097 -0.214433 -3.79895 0
M  V30 10823 H 984.609 -1.97998 -3.33794 0
M  V30 10824 H 982.71 0.459416 -3.69757 0
M  V30 10825 H 982.823 -1.16853 -4.64631 0
M  V30 10826 H 981.187 -0.526925 -2.4919 0
M  V30 10827 H 981.97 -2.19154 -2.64247 0
M  V30 10828 N 984.415 1.45619 -0.602734 0
M  V30 10829 C 985.64 2.07157 -0.100429 0
M  V30 10830 C 986.065 1.44524 1.20393 0
M  V30 10831 O 985.423 0.536191 1.7319 0
M  V30 10832 C 985.471 3.60587 0.0308604 0
M  V30 10833 O 984.575 3.97944 1.08234 0
M  V30 10834 H 983.916 0.6601 -0.0718643 0
M  V30 10835 H 986.446 1.86948 -0.831366 0
M  V30 10836 H 986.456 4.07348 0.230634 0
M  V30 10837 H 985.131 4.05561 -0.921581 0
M  V30 10838 H 983.708 3.62862 0.859414 0
M  V30 10839 N 985.893 0.34162 1.53853 0
M  V30 10840 C 987.141 -0.254979 2.00485 0
M  V30 10841 C 987.462 -1.51222 1.23114 0
M  V30 10842 O 986.732 -1.92966 0.337787 0
M  V30 10843 H 985.312 -0.0972084 0.740648 0
M  V30 10844 H 987.974 0.462332 1.89337 0
M  V30 10845 H 987.07 -0.498778 3.08089 0
M  V30 10846 N 987.371 -1.57444 0.0701946 0
M  V30 10847 C 988.617 -1.93716 -0.600178 0
M  V30 10848 C 988.95 -0.950329 -1.69359 0
M  V30 10849 O 988.225 0.0207123 -1.94489 0
M  V30 10850 C 988.508 -3.40266 -1.17861 0
M  V30 10851 C 988.361 -4.49706 -0.0919575 0
M  V30 10852 C 989.68 -3.87599 -2.08459 0
M  V30 10853 H 986.799 -0.704421 -0.216704 0
M  V30 10854 H 989.441 -1.89514 0.135838 0
M  V30 10855 H 987.591 -3.43977 -1.80587 0
M  V30 10856 H 989.263 -4.58116 0.541031 0
M  V30 10857 H 987.506 -4.29937 0.577639 0
M  V30 10858 H 988.177 -5.49381 -0.537048 0
M  V30 10859 H 990.653 -3.85883 -1.5567 0
M  V30 10860 H 989.529 -4.90755 -2.45867 0
M  V30 10861 H 989.79 -3.25448 -2.99226 0
M  V30 10862 N 988.849 0.203349 -1.56283 0
M  V30 10863 C 990.096 0.92501 -1.80138 0
M  V30 10864 C 990.424 1.83598 -0.64204 0
M  V30 10865 O 989.679 1.92119 0.372658 0
M  V30 10866 C 989.978 1.78016 -3.09912 0
M  V30 10867 C 989.644 1.02088 -4.39191 0
M  V30 10868 C 988.306 0.811208 -4.74313 0
M  V30 10869 C 990.658 0.486037 -5.18929 0
M  V30 10870 C 987.986 0.0550856 -5.86674 0
M  V30 10871 C 990.338 -0.256833 -6.32078 0
M  V30 10872 C 989.002 -0.477594 -6.65789 0
M  V30 10873 H 988.272 0.338485 -0.659173 0
M  V30 10874 H 990.919 0.191923 -1.90536 0
M  V30 10875 H 989.224 2.58167 -2.94715 0
M  V30 10876 H 990.921 2.341 -3.25574 0
M  V30 10877 H 987.511 1.1943 -4.11624 0
M  V30 10878 H 991.695 0.635446 -4.92215 0
M  V30 10879 H 986.951 -0.126006 -6.1127 0
M  V30 10880 H 991.125 -0.678683 -6.93085 0
M  V30 10881 H 988.752 -1.0654 -7.52697 0
M  V30 10882 N 990.327 1.50405 0.470755 0
M  V30 10883 C 991.604 1.51929 1.23195 0
M  V30 10884 C 991.984 0.264159 2.09441 0
M  V30 10885 O 991.332 -0.752395 2.15757 0
M  V30 10886 C 991.542 2.81521 2.06269 0
M  V30 10887 C 992.89 3.32195 2.64446 0
M  V30 10888 O 993.914 2.82845 2.16511 0
M  V30 10889 O 992.773 4.18221 3.51786 0
M  V30 10890 H 989.867 0.609411 0.559059 0
M  V30 10891 H 992.413 1.62695 0.482549 0
M  V30 10892 H 991.185 3.64346 1.42715 0
M  V30 10893 H 990.808 2.7376 2.88342 0
M  V30 10894 N 991.805 -0.723954 1.39988 0
M  V30 10895 C 993.053 -1.48078 1.3754 0
M  V30 10896 C 993.374 -1.94985 -0.0243358 0
M  V30 10897 O 992.644 -1.69764 -0.977602 0
M  V30 10898 H 991.224 -0.549354 0.506181 0
M  V30 10899 H 993.886 -0.858746 1.74962 0
M  V30 10900 H 992.982 -2.35763 2.04505 0
M  V30 10901 N 993.283 -1.25346 -0.955304 0
M  V30 10902 C 994.216 -0.999933 -2.05126 0
M  V30 10903 C 995.194 0.070585 -1.62447 0
M  V30 10904 O 996.378 -0.0689306 -1.88374 0
M  V30 10905 C 993.505 -0.511425 -3.34817 0
M  V30 10906 C 992.551 -1.57237 -3.96458 0
M  V30 10907 S 993.384 -3.15736 -4.32517 0
M  V30 10908 C 994.54 -2.68619 -5.65327 0
M  V30 10909 H 994.773 -1.92791 -2.26316 0
M  V30 10910 H 992.306 -1.08869 -1.09485 0
M  V30 10911 H 994.264 -0.236219 -4.0982 0
M  V30 10912 H 992.925 0.39604 -3.11593 0
M  V30 10913 H 992.118 -1.18125 -4.89962 0
M  V30 10914 H 991.72 -1.79822 -3.27933 0
M  V30 10915 H 994.012 -2.12203 -6.4341 0
M  V30 10916 H 994.955 -3.6076 -6.09309 0
M  V30 10917 H 995.363 -2.08638 -5.24529 0
M  V30 10918 N 994.761 1.15782 -1.06922 0
M  V30 10919 C 996.172 1.68062 -0.813144 0
M  V30 10920 C 996.523 1.84681 0.662374 0
M  V30 10921 O 995.648 1.54696 1.51321 0
M  V30 10922 C 996.243 3.05273 -1.46949 0
M  V30 10923 C 994.802 3.54647 -1.26104 0
M  V30 10924 C 993.949 2.30477 -1.54194 0
M  V30 10925 H 996.9 1.00056 -1.23185 0
M  V30 10926 H 996.921 3.69986 -0.888308 0
M  V30 10927 H 996.433 2.93145 -2.54337 0
M  V30 10928 H 994.534 3.72024 -0.20718 0
M  V30 10929 H 994.647 4.36354 -1.97819 0
M  V30 10930 H 993.011 2.35803 -0.96276 0
M  V30 10931 H 993.794 2.2094 -2.62755 0
M  V30 10932 N 996.239 0.8527 1.3254 0
M  V30 10933 C 997.65 0.510012 1.79599 0
M  V30 10934 C 998.001 -0.972002 1.70431 0
M  V30 10935 O 997.126 -1.7581 1.26173 0
M  V30 10936 C 997.721 0.918986 3.26098 0
M  V30 10937 C 996.28 0.628227 3.7112 0
M  V30 10938 C 995.427 1.11979 2.53685 0
M  V30 10939 H 998.378 1.04009 1.19866 0
M  V30 10940 H 998.399 0.234577 3.79776 0
M  V30 10941 H 997.911 1.99765 3.32739 0
M  V30 10942 H 996.012 -0.4398 3.69995 0
M  V30 10943 H 996.125 1.19315 4.64005 0
M  V30 10944 H 994.489 0.540133 2.48907 0
M  V30 10945 H 995.272 2.20552 2.63081 0
M  V30 10946 N 997.718 -1.45297 0.610449 0
M  V30 10947 C 998.666 -2.32295 -0.119167 0
M  V30 10948 C 999.66 -1.46138 -0.856746 0
M  V30 10949 O 1000.87 -1.62605 -0.771988 0
M  V30 10950 H 997.241 -0.749815 -0.0572881 0
M  V30 10951 H 999.212 -2.91609 0.63297 0
M  V30 10952 C 997.961 -3.29802 -1.10119 0
M  V30 10953 H 997.284 -3.96095 -0.543063 0
M  V30 10954 H 998.724 -3.93398 -1.58158 0
M  V30 10955 C 997.183 -2.57185 -2.17617 0
M  V30 10956 O 997.713 -2.35535 -3.25401 0
M  V30 10957 N 995.919 -2.17272 -1.9298 0
M  V30 10958 H 995.466 -2.3508 -1.05334 0
M  V30 10959 H 995.424 -1.69009 -2.6511 0
M  V30 10960 N 999.196 -0.349774 -1.5367 0
M  V30 10961 C 1000.13 0.496338 -2.28164 0
M  V30 10962 C 1001.11 1.09737 -1.29968 0
M  V30 10963 O 1002.29 1.11759 -1.58819 0
M  V30 10964 C 999.422 1.64428 -3.0591 0
M  V30 10965 C 998.376 1.17127 -4.11661 0
M  V30 10966 C 997.702 2.40822 -4.77398 0
M  V30 10967 C 999.002 0.267293 -5.21616 0
M  V30 10968 H 1000.7 -0.125117 -2.99138 0
M  V30 10969 H 998.242 -0.0616152 -1.43868 0
M  V30 10970 H 1000.19 2.2427 -3.56765 0
M  V30 10971 H 998.919 2.29272 -2.32598 0
M  V30 10972 H 997.578 0.595634 -3.61729 0
M  V30 10973 H 997.226 3.04088 -4.00674 0
M  V30 10974 H 996.926 2.09852 -5.48849 0
M  V30 10975 H 998.45 3.01378 -5.3104 0
M  V30 10976 H 999.864 0.772734 -5.68068 0
M  V30 10977 H 998.261 0.0491991 -6.0008 0
M  V30 10978 H 999.331 -0.694892 -4.79895 0
M  V30 10979 N 1000.67 1.57404 -0.0785433 0
M  V30 10980 C 1001.62 2.13104 0.88631 0
M  V30 10981 C 1002.59 1.04527 1.29086 0
M  V30 10982 O 1003.78 1.32226 1.37553 0
M  V30 10983 C 1000.92 2.70252 2.14611 0
M  V30 10984 C 1000.03 3.93007 1.79358 0
M  V30 10985 C 999.164 4.38376 3 0
M  V30 10986 C 998.203 5.53761 2.60796 0
M  V30 10987 N 997.34 5.94058 3.74219 0
M  V30 10988 H 1002.18 2.95243 0.404452 0
M  V30 10989 H 999.717 1.45894 0.187982 0
M  V30 10990 H 1001.67 3.01497 2.88367 0
M  V30 10991 H 1000.3 1.90868 2.60326 0
M  V30 10992 H 999.357 3.68181 0.956384 0
M  V30 10993 H 1000.67 4.76795 1.4652 0
M  V30 10994 H 999.823 4.71317 3.82027 0
M  V30 10995 H 998.562 3.53455 3.36037 0
M  V30 10996 H 997.567 5.20464 1.77192 0
M  V30 10997 H 998.792 6.40419 2.25922 0
M  V30 10998 H 996.738 5.12085 4.10005 0
M  V30 10999 H 996.655 6.72602 3.45171 0
M  V30 11000 H 997.923 6.31624 4.56805 0
M  V30 11001 N 1002.15 -0.195058 1.56388 0
M  V30 11002 C 1003.1 -1.26122 1.95438 0
M  V30 11003 C 1004.09 -1.47117 0.839818 0
M  V30 11004 O 1005.3 -1.47978 1.02482 0
M  V30 11005 H 1001.67 -0.423422 0.621464 0
M  V30 11006 H 1003.65 -0.904854 2.8435 0
M  V30 11007 C 1002.39 -2.59858 2.31017 0
M  V30 11008 H 1001.72 -2.44519 3.16308 0
M  V30 11009 H 1003.16 -3.33205 2.62203 0
M  V30 11010 C 1001.62 -3.16853 1.14481 0
M  V30 11011 O 1002.15 -3.995 0.419853 0
M  V30 11012 N 1000.35 -2.75599 0.921604 0
M  V30 11013 H 999.9 -2.08495 1.51287 0
M  V30 11014 H 999.858 -3.14072 0.143663 0
M  V30 11015 N 1003.63 -1.50653 -0.462772 0
M  V30 11016 C 1004.56 -1.73056 -1.5676 0
M  V30 11017 C 1005.54 -0.579699 -1.59917 0
M  V30 11018 O 1006.73 -0.819729 -1.76051 0
M  V30 11019 C 1003.86 -1.83234 -2.9503 0
M  V30 11020 C 1002.81 -2.98488 -3.06739 0
M  V30 11021 C 1002.14 -2.93818 -4.46738 0
M  V30 11022 C 1003.44 -4.38869 -2.83181 0
M  V30 11023 H 1005.13 -2.65562 -1.38265 0
M  V30 11024 H 1002.68 -1.27792 -0.663722 0
M  V30 11025 H 1004.63 -1.97491 -3.72257 0
M  V30 11026 H 1003.35 -0.873558 -3.14701 0
M  V30 11027 H 1002.01 -2.83895 -2.31946 0
M  V30 11028 H 1001.66 -1.95769 -4.63339 0
M  V30 11029 H 1001.36 -3.71197 -4.55507 0
M  V30 11030 H 1002.88 -3.10135 -5.25974 0
M  V30 11031 H 1004.3 -4.53945 -3.50153 0
M  V30 11032 H 1002.69 -5.17762 -3.03386 0
M  V30 11033 H 1003.76 -4.50663 -1.78972 0
M  V30 11034 N 1005.11 0.71652 -1.4037 0
M  V30 11035 C 1006.33 1.51069 -1.42102 0
M  V30 11036 C 1006.76 1.88087 -0.0222387 0
M  V30 11037 O 1006.12 1.53204 0.969448 0
M  V30 11038 C 1006.16 2.76307 -2.31704 0
M  V30 11039 O 1005.27 3.72975 -1.75964 0
M  V30 11040 H 1004.61 0.455502 -0.483129 0
M  V30 11041 H 1007.14 0.882514 -1.84588 0
M  V30 11042 H 1007.15 3.24846 -2.46859 0
M  V30 11043 H 1005.82 2.48698 -3.3335 0
M  V30 11044 H 1004.4 3.31818 -1.70151 0
M  V30 11045 N 1006.59 1.25851 0.948643 0
M  V30 11046 C 1007.52 1.09248 2.06367 0
M  V30 11047 C 1008.5 -0.000205168 1.701 0
M  V30 11048 O 1009.68 0.170442 1.93451 0
M  V30 11049 C 1006.81 0.716777 3.39823 0
M  V30 11050 C 1005.77 1.76036 3.90122 0
M  V30 11051 C 1005.09 1.23918 5.20143 0
M  V30 11052 C 1006.39 3.16039 4.15833 0
M  V30 11053 H 1008.09 2.02518 2.20515 0
M  V30 11054 H 1005.63 0.975093 1.05962 0
M  V30 11055 H 1007.59 0.587531 4.17284 0
M  V30 11056 H 1006.31 -0.251626 3.25629 0
M  V30 11057 H 1004.97 1.87815 3.14835 0
M  V30 11058 H 1004.62 0.260836 5.02323 0
M  V30 11059 H 1004.32 1.93673 5.54765 0
M  V30 11060 H 1005.84 1.12245 6.00194 0
M  V30 11061 H 1007.25 3.0738 4.83933 0
M  V30 11062 H 1005.65 3.83317 4.61723 0
M  V30 11063 H 1006.72 3.62652 3.21887 0
M  V30 11064 N 1008.06 -1.15214 1.07534 0
M  V30 11065 C 1009.03 -2.18209 0.701237 0
M  V30 11066 C 1010.03 -1.58693 -0.25946 0
M  V30 11067 O 1011.22 -1.74154 -0.0401744 0
M  V30 11068 C 1008.35 -3.40883 0.0338703 0
M  V30 11069 H 1009.54 -2.5282 1.61314 0
M  V30 11070 H 1007.1 -1.29707 0.872105 0
M  V30 11071 H 1007.83 -3.11843 -0.890187 0
M  V30 11072 H 1007.62 -3.85342 0.72486 0
M  V30 11073 H 1009.11 -4.17056 -0.213152 0
M  V30 11074 N 1009.54 -0.859717 -1.32086 0
M  V30 11075 C 1010.49 -0.306042 -2.28762 0
M  V30 11076 C 1011.46 0.589801 -1.55276 0
M  V30 11077 O 1012.64 0.523633 -1.83474 0
M  V30 11078 C 1009.78 0.495256 -3.41528 0
M  V30 11079 C 1008.9 -0.426947 -4.29885 0
M  V30 11080 C 1008.03 0.387474 -5.29785 0
M  V30 11081 C 1007.07 -0.531807 -6.09785 0
M  V30 11082 N 1006.21 0.245741 -7.0167 0
M  V30 11083 H 1011.05 -1.1357 -2.7551 0
M  V30 11084 H 1008.59 -0.571468 -1.35546 0
M  V30 11085 H 1010.54 0.97551 -4.05635 0
M  V30 11086 H 1009.17 1.28969 -2.95917 0
M  V30 11087 H 1008.23 -1.02561 -3.66313 0
M  V30 11088 H 1009.54 -1.13226 -4.85779 0
M  V30 11089 H 1008.69 0.930677 -5.99519 0
M  V30 11090 H 1007.43 1.12612 -4.74521 0
M  V30 11091 H 1006.44 -1.08685 -5.3895 0
M  V30 11092 H 1007.66 -1.26915 -6.67135 0
M  V30 11093 H 1005.61 0.967391 -6.48828 0
M  V30 11094 H 1005.52 -0.400432 -7.54939 0
M  V30 11095 H 1006.79 0.770507 -7.75683 0
M  V30 11096 N 1011.02 1.44971 -0.618145 0
M  V30 11097 C 1011.97 2.32354 0.106846 0
M  V30 11098 C 1012.96 1.4659 0.848984 0
M  V30 11099 O 1014.17 1.63012 0.763354 0
M  V30 11100 H 1010.54 0.750108 0.0533109 0
M  V30 11101 H 1012.51 2.9127 -0.648426 0
M  V30 11102 C 1011.26 3.30381 1.08368 0
M  V30 11103 H 1010.59 3.96377 0.52205 0
M  V30 11104 H 1012.03 3.94231 1.56069 0
M  V30 11105 C 1010.49 2.58336 2.1625 0
M  V30 11106 O 1011.02 2.37258 3.24148 0
M  V30 11107 N 1009.22 2.18292 1.91825 0
M  V30 11108 H 1008.77 2.35635 1.04086 0
M  V30 11109 H 1008.73 1.70413 2.6421 0
M  V30 11110 N 1012.5 0.357919 1.53482 0
M  V30 11111 C 1013.75 -0.2337 2.00744 0
M  V30 11112 C 1014.07 -1.49908 1.2471 0
M  V30 11113 O 1013.34 -1.92597 0.358235 0
M  V30 11114 H 1011.92 -0.0893474 0.741637 0
M  V30 11115 H 1014.58 0.482388 1.88836 0
M  V30 11116 H 1013.68 -0.466073 3.086 0
M  V30 11117 N 1013.98 -1.5736 0.0868897 0
M  V30 11118 C 1014.91 -2.16596 -0.872252 0
M  V30 11119 C 1015.89 -1.09706 -1.29995 0
M  V30 11120 O 1017.07 -1.37808 -1.36831 0
M  V30 11121 C 1014.2 -2.73972 -2.1344 0
M  V30 11122 C 1013.16 -3.86163 -1.8456 0
M  V30 11123 C 1012.48 -4.30206 -3.17533 0
M  V30 11124 C 1013.78 -5.0973 -1.13899 0
M  V30 11125 H 1015.48 -2.96995 -0.378738 0
M  V30 11126 H 1013.02 -1.42861 -0.18073 0
M  V30 11127 H 1014.98 -3.14062 -2.80968 0
M  V30 11128 H 1013.7 -1.90817 -2.6506 0
M  V30 11129 H 1012.36 -3.466 -1.19432 0
M  V30 11130 H 1012.01 -3.43951 -3.67024 0
M  V30 11131 H 1011.71 -5.05841 -2.98996 0
M  V30 11132 H 1013.23 -4.72922 -3.86234 0
M  V30 11133 H 1014.64 -5.4704 -1.71523 0
M  V30 11134 H 1013.04 -5.90741 -1.05569 0
M  V30 11135 H 1014.11 -4.8475 -0.120432 0
M  V30 11136 N 1015.45 0.186762 -1.56489 0
M  V30 11137 C 1016.4 1.23141 -1.95205 0
M  V30 11138 C 1017.37 1.44799 -0.81378 0
M  V30 11139 O 1018.56 1.57795 -1.07263 0
M  V30 11140 C 1015.7 2.56926 -2.30397 0
M  V30 11141 C 1014.81 2.42777 -3.57328 0
M  V30 11142 C 1013.94 3.69323 -3.81804 0
M  V30 11143 C 1012.98 3.50041 -5.02133 0
M  V30 11144 N 1012.12 4.68619 -5.2282 0
M  V30 11145 H 1016.96 0.894256 -2.84266 0
M  V30 11146 H 1014.5 0.430187 -1.40669 0
M  V30 11147 H 1016.46 3.3488 -2.4882 0
M  V30 11148 H 1015.09 2.88668 -1.44466 0
M  V30 11149 H 1014.14 1.56078 -3.46906 0
M  V30 11150 H 1015.45 2.24468 -4.45439 0
M  V30 11151 H 1014.6 4.55715 -4.00511 0
M  V30 11152 H 1013.34 3.90595 -2.92039 0
M  V30 11153 H 1012.35 2.62034 -4.8334 0
M  V30 11154 H 1013.57 3.30206 -5.93414 0
M  V30 11155 H 1011.52 4.90139 -4.36005 0
M  V30 11156 H 1011.44 4.53165 -6.05126 0
M  V30 11157 H 1012.7 5.56338 -5.45993 0
M  V30 11158 N 1016.93 1.50896 0.454776 0
M  V30 11159 C 1018.16 1.66759 1.23313 0
M  V30 11160 C 1018.58 0.35722 1.84677 0
M  V30 11161 O 1017.94 -0.680771 1.68033 0
M  V30 11162 C 1017.99 2.77254 2.3057 0
M  V30 11163 O 1017.09 2.39642 3.35627 0
M  V30 11164 H 1016.43 0.556599 0.362068 0
M  V30 11165 H 1018.96 1.97365 0.539274 0
M  V30 11166 H 1018.97 3.0082 2.75629 0
M  V30 11167 H 1017.65 3.72349 1.85281 0
M  V30 11168 H 1016.23 2.26584 2.96165 0
M  V30 11169 N 1018.41 -0.709066 1.40748 0
M  V30 11170 C 1019.66 -1.46901 1.39378 0
M  V30 11171 C 1019.99 -1.945 -0.0016993 0
M  V30 11172 O 1019.24 -1.68963 -0.987426 0
M  V30 11173 C 1019.54 -2.70543 2.33541 0
M  V30 11174 C 1019.21 -2.41674 3.80663 0
M  V30 11175 C 1017.87 -2.33511 4.20745 0
M  V30 11176 C 1020.22 -2.1759 4.73607 0
M  V30 11177 C 1017.55 -1.99342 5.51797 0
M  V30 11178 C 1019.9 -1.84933 6.04965 0
M  V30 11179 C 1018.56 -1.75256 6.44082 0
M  V30 11180 H 1017.83 -0.537549 0.510021 0
M  V30 11181 H 1020.48 -0.811635 1.7345 0
M  V30 11182 H 1018.79 -3.41149 1.92677 0
M  V30 11183 H 1020.48 -3.2865 2.29761 0
M  V30 11184 H 1017.07 -2.48917 3.4891 0
M  V30 11185 H 1021.26 -2.22849 4.43454 0
M  V30 11186 H 1016.51 -1.90392 5.81 0
M  V30 11187 H 1020.69 -1.65313 6.76494 0
M  V30 11188 H 1018.31 -1.48547 7.45545 0
M  V30 11189 N 1019.89 -1.26353 -0.941956 0
M  V30 11190 C 1021.11 -1.14731 -1.72776 0
M  V30 11191 C 1021.54 0.293766 -1.85792 0
M  V30 11192 O 1020.9 1.21284 -1.34759 0
M  V30 11193 C 1020.95 -1.82041 -3.11277 0
M  V30 11194 O 1020.05 -1.10867 -3.97218 0
M  V30 11195 H 1019.39 -0.399823 -0.53013 0
M  V30 11196 H 1021.92 -1.67157 -1.17981 0
M  V30 11197 H 1021.93 -1.88834 -3.61671 0
M  V30 11198 H 1020.61 -2.86879 -3.0112 0
M  V30 11199 H 1019.18 -1.12044 -3.55669 0
M  V30 11200 N 1021.37 1.14642 -1.08144 0
M  V30 11201 C 1022.61 1.86115 -0.820533 0
M  V30 11202 C 1022.97 1.81208 0.646635 0
M  V30 11203 O 1022.26 1.22997 1.46909 0
M  V30 11204 C 1022.46 3.33953 -1.2732 0
M  V30 11205 C 1022.28 3.53254 -2.78283 0
M  V30 11206 C 1021.05 3.68259 -3.45996 0
M  V30 11207 C 1023.25 3.504 -3.76463 0
M  V30 11208 N 1021.23 3.75692 -4.85519 0
M  V30 11209 C 1022.61 3.64045 -5.01868 0
M  V30 11210 C 1024.66 3.33722 -3.69505 0
M  V30 11211 C 1023.36 3.62734 -6.21141 0
M  V30 11212 C 1025.39 3.33713 -4.88251 0
M  V30 11213 C 1024.75 3.47896 -6.12493 0
M  V30 11214 H 1020.85 0.697829 -0.352929 0
M  V30 11215 H 1023.43 1.3742 -1.37927 0
M  V30 11216 H 1021.61 3.81245 -0.742066 0
M  V30 11217 H 1023.34 3.93174 -0.958991 0
M  V30 11218 H 1020.09 3.69376 -2.96409 0
M  V30 11219 H 1020.52 3.83133 -5.58156 0
M  V30 11220 H 1025.16 3.2167 -2.74387 0
M  V30 11221 H 1022.88 3.73563 -7.16573 0
M  V30 11222 H 1026.46 3.22025 -4.84553 0
M  V30 11223 H 1025.34 3.47833 -7.02838 0
M  V30 11224 N 1022.85 0.866709 1.31628 0
M  V30 11225 C 1023.79 0.318169 2.28596 0
M  V30 11226 C 1024.76 -0.581558 1.55586 0
M  V30 11227 O 1025.95 -0.513895 1.83749 0
M  V30 11228 C 1023.09 -0.477137 3.41786 0
M  V30 11229 C 1022.2 0.449739 4.29653 0
M  V30 11230 C 1021.34 -0.359373 5.29983 0
M  V30 11231 C 1020.37 0.564138 6.09495 0
M  V30 11232 N 1019.51 -0.208526 7.0179 0
M  V30 11233 H 1024.35 1.15029 2.74904 0
M  V30 11234 H 1021.89 0.578649 1.35241 0
M  V30 11235 H 1023.85 -0.953985 4.06146 0
M  V30 11236 H 1022.48 -1.27398 2.96597 0
M  V30 11237 H 1021.53 1.04502 3.65764 0
M  V30 11238 H 1022.84 1.158 4.85172 0
M  V30 11239 H 1021.99 -0.89887 6.00004 0
M  V30 11240 H 1020.73 -1.10094 4.75111 0
M  V30 11241 H 1019.74 1.11542 5.38366 0
M  V30 11242 H 1020.96 1.30451 6.66453 0
M  V30 11243 H 1018.91 -0.932969 6.49332 0
M  V30 11244 H 1018.83 0.440463 7.54716 0
M  V30 11245 H 1020.09 -0.72936 7.7608 0
M  V30 11246 N 1024.32 -1.44642 0.625825 0
M  V30 11247 C 1025.27 -2.30653 -0.082259 0
M  V30 11248 C 1026.24 -1.43174 -0.842052 0
M  V30 11249 O 1027.43 -1.72082 -0.824151 0
M  V30 11250 C 1024.57 -3.2837 -1.06146 0
M  V30 11251 C 1023.68 -4.30953 -0.300638 0
M  V30 11252 C 1022.81 -5.15766 -1.27118 0
M  V30 11253 C 1021.85 -6.10061 -0.499215 0
M  V30 11254 N 1020.99 -6.87591 -1.41995 0
M  V30 11255 H 1025.83 -2.90664 0.657161 0
M  V30 11256 H 1023.37 -1.43215 0.335859 0
M  V30 11257 H 1025.32 -3.83507 -1.6425 0
M  V30 11258 H 1023.95 -2.70072 -1.76807 0
M  V30 11259 H 1023.01 -3.78331 0.396234 0
M  V30 11260 H 1024.32 -4.97892 0.300851 0
M  V30 11261 H 1023.47 -5.75394 -1.92372 0
M  V30 11262 H 1022.21 -4.48888 -1.9066 0
M  V30 11263 H 1021.22 -5.49547 0.166848 0
M  V30 11264 H 1022.44 -6.78973 0.131409 0
M  V30 11265 H 1020.39 -6.23387 -2.04267 0
M  V30 11266 H 1020.3 -7.5095 -0.872354 0
M  V30 11267 H 1021.57 -7.51746 -2.0615 0
M  V30 11268 N 1025.8 -0.366053 -1.5329 0
M  V30 11269 C 1026.73 0.47211 -2.28677 0
M  V30 11270 C 1027.71 1.08353 -1.31125 0
M  V30 11271 O 1028.9 1.10069 -1.59995 0
M  V30 11272 C 1026.03 1.61174 -3.07637 0
M  V30 11273 C 1024.98 1.12755 -4.12881 0
M  V30 11274 C 1024.31 2.35745 -4.79925 0
M  V30 11275 C 1025.61 0.211954 -5.2187 0
M  V30 11276 H 1027.3 -0.156838 -2.98989 0
M  V30 11277 H 1024.85 -0.0768709 -1.43795 0
M  V30 11278 H 1026.8 2.20473 -3.59123 0
M  V30 11279 H 1025.52 2.26793 -2.35016 0
M  V30 11280 H 1024.18 0.557234 -3.6234 0
M  V30 11281 H 1023.83 2.99821 -4.03877 0
M  V30 11282 H 1023.53 2.04019 -5.51044 0
M  V30 11283 H 1025.06 2.95729 -5.34207 0
M  V30 11284 H 1026.47 0.71244 -5.68856 0
M  V30 11285 H 1024.87 -0.0144501 -6.00098 0
M  V30 11286 H 1025.94 -0.745753 -4.79131 0
M  V30 11287 N 1027.28 1.57312 -0.0952337 0
M  V30 11288 C 1028.21 2.11059 0.893678 0
M  V30 11289 C 1029.22 1.04787 1.24594 0
M  V30 11290 O 1030.41 1.32233 1.19903 0
M  V30 11291 C 1027.51 2.57552 2.20272 0
M  V30 11292 C 1026.69 3.87661 2.02578 0
M  V30 11293 C 1025.75 4.2 3.16996 0
M  V30 11294 O 1024.77 4.89219 2.90953 0
M  V30 11295 N 1025.97 3.75414 4.42769 0
M  V30 11296 H 1028.74 2.96532 0.434632 0
M  V30 11297 H 1026.3 1.6165 0.0898661 0
M  V30 11298 H 1028.29 2.76232 2.95766 0
M  V30 11299 H 1026.86 1.7709 2.576 0
M  V30 11300 H 1026.08 3.78128 1.11413 0
M  V30 11301 H 1027.37 4.7278 1.88032 0
M  V30 11302 H 1026.77 3.1954 4.66809 0
M  V30 11303 H 1025.32 3.99249 5.15212 0
M  V30 11304 N 1028.76 -0.17846 1.56586 0
M  V30 11305 C 1030 -0.90281 1.83381 0
M  V30 11306 C 1030.36 -1.79738 0.675139 0
M  V30 11307 O 1031.56 -2.55879 0.823368 0
M  V30 11308 C 1029.83 -1.68353 3.15265 0
M  V30 11309 S 1031.39 -2.45762 3.6352 0
M  V30 11310 H 1028.21 -0.302508 0.643436 0
M  V30 11311 H 1030.81 -0.164961 1.94803 0
M  V30 11312 H 1029.52 -1.01725 3.97593 0
M  V30 11313 H 1029.05 -2.46289 3.06766 0
M  V30 11314 H 1031.06 -3.70312 3.30278 0
M  V30 11315 N 1030.24 -1.51135 -0.446768 0
M  V30 11316 C 1031.17 -1.74709 -1.54916 0
M  V30 11317 C 1032.15 -0.596628 -1.59293 0
M  V30 11318 O 1033.33 -0.838356 -1.75172 0
M  V30 11319 C 1030.46 -1.86353 -2.9307 0
M  V30 11320 C 1029.42 -3.01725 -3.03556 0
M  V30 11321 C 1028.74 -2.9854 -4.43597 0
M  V30 11322 C 1030.04 -4.41848 -2.7851 0
M  V30 11323 H 1031.74 -2.67014 -1.3544 0
M  V30 11324 H 1029.28 -1.28489 -0.650131 0
M  V30 11325 H 1031.23 -2.01428 -3.70141 0
M  V30 11326 H 1029.96 -0.906887 -3.13756 0
M  V30 11327 H 1028.62 -2.86339 -2.28922 0
M  V30 11328 H 1028.27 -2.00673 -4.61237 0
M  V30 11329 H 1027.97 -3.76008 -4.51544 0
M  V30 11330 H 1029.49 -3.15696 -5.22655 0
M  V30 11331 H 1030.9 -4.57633 -3.45319 0
M  V30 11332 H 1029.3 -5.2095 -2.97877 0
M  V30 11333 H 1030.37 -4.52536 -1.74182 0
M  V30 11334 N 1031.71 0.701592 -1.41122 0
M  V30 11335 C 1032.66 1.81559 -1.42495 0
M  V30 11336 C 1033.63 1.63722 -0.280078 0
M  V30 11337 O 1034.82 1.84658 -0.480231 0
M  V30 11338 C 1031.96 3.19392 -1.30702 0
M  V30 11339 C 1031.07 3.48704 -2.55009 0
M  V30 11340 C 1030.2 4.76118 -2.35554 0
M  V30 11341 C 1029.24 4.98378 -3.55367 0
M  V30 11342 N 1028.38 6.17014 -3.3502 0
M  V30 11343 H 1033.22 1.7972 -2.37707 0
M  V30 11344 H 1030.76 0.877727 -1.18044 0
M  V30 11345 H 1032.71 3.99004 -1.21867 0
M  V30 11346 H 1031.34 3.20423 -0.391012 0
M  V30 11347 H 1030.4 2.63542 -2.74317 0
M  V30 11348 H 1031.71 3.61057 -3.44151 0
M  V30 11349 H 1030.86 5.63774 -2.24152 0
M  V30 11350 H 1029.6 4.66 -1.43859 0
M  V30 11351 H 1028.61 4.09172 -3.6723 0
M  V30 11352 H 1029.83 5.10359 -4.48007 0
M  V30 11353 H 1027.78 6.0812 -2.4602 0
M  V30 11354 H 1027.69 6.30107 -4.17733 0
M  V30 11355 H 1028.96 7.0742 -3.27379 0
M  V30 11356 N 1033.19 1.2685 0.935242 0
M  V30 11357 C 1034.14 1.08746 2.05614 0
M  V30 11358 C 1035.13 0.012681 1.69395 0
M  V30 11359 O 1036.34 0.169822 1.79197 0
M  V30 11360 H 1032.71 0.33485 0.673335 0
M  V30 11361 H 1034.69 2.03725 2.18033 0
M  V30 11362 C 1033.43 0.74346 3.39659 0
M  V30 11363 H 1032.76 1.56236 3.68008 0
M  V30 11364 H 1034.2 0.656607 4.18885 0
M  V30 11365 C 1032.66 -0.551751 3.32351 0
M  V30 11366 O 1033.19 -1.58836 3.68963 0
M  V30 11367 N 1031.39 -0.544583 2.85452 0
M  V30 11368 H 1030.94 0.29939 2.55854 0
M  V30 11369 H 1030.9 -1.41129 2.80945 0
M  V30 11370 N 1034.67 -1.14067 1.0875 0
M  V30 11371 C 1035.6 -2.21385 0.74236 0
M  V30 11372 C 1036.58 -1.67833 -0.276805 0
M  V30 11373 O 1037.77 -1.93647 -0.1464 0
M  V30 11374 C 1034.9 -3.46956 0.154644 0
M  V30 11375 C 1033.85 -4.13555 1.10255 0
M  V30 11376 C 1033.18 -5.3337 0.376877 0
M  V30 11377 C 1034.48 -4.6169 2.44213 0
M  V30 11378 H 1036.17 -2.50512 1.63964 0
M  V30 11379 H 1033.72 -1.20408 0.789807 0
M  V30 11380 H 1035.67 -4.21284 -0.0988419 0
M  V30 11381 H 1034.39 -3.17203 -0.777789 0
M  V30 11382 H 1033.05 -3.41186 1.34119 0
M  V30 11383 H 1032.7 -4.99879 -0.559472 0
M  V30 11384 H 1032.4 -5.78875 1.00884 0
M  V30 11385 H 1033.92 -6.10458 0.131527 0
M  V30 11386 H 1035.34 -5.27475 2.24595 0
M  V30 11387 H 1033.74 -5.17909 3.03134 0
M  V30 11388 H 1034.81 -3.76574 3.05483 0
M  V30 11389 N 1036.15 -0.873678 -1.31166 0
M  V30 11390 C 1037.06 -0.335726 -2.32185 0
M  V30 11391 C 1038.07 0.556259 -1.64869 0
M  V30 11392 O 1039.25 0.452087 -1.9626 0
M  V30 11393 C 1036.32 0.450822 -3.43756 0
M  V30 11394 C 1035.38 -0.469565 -4.26724 0
M  V30 11395 C 1034.61 0.279538 -5.32967 0
M  V30 11396 O 1034.83 1.50715 -5.50128 0
M  V30 11397 O 1033.77 -0.36452 -6.00795 0
M  V30 11398 H 1037.59 -1.17314 -2.80127 0
M  V30 11399 H 1035.18 -0.637163 -1.35132 0
M  V30 11400 H 1037.06 0.896582 -4.11752 0
M  V30 11401 H 1035.73 1.26472 -2.9797 0
M  V30 11402 H 1034.64 -0.963902 -3.61469 0
M  V30 11403 H 1035.97 -1.24916 -4.76085 0
M  V30 11404 N 1037.63 1.44308 -0.633487 0
M  V30 11405 C 1038.85 2.06384 -0.146063 0
M  V30 11406 C 1039.27 1.47357 1.18031 0
M  V30 11407 O 1038.63 0.597334 1.72448 0
M  V30 11408 C 1038.68 3.61489 -0.0276722 0
M  V30 11409 O 1038.4 4.18318 -1.3016 0
M  V30 11410 C 1039.9 4.40604 0.488168 0
M  V30 11411 H 1037.12 0.666122 -0.0807632 0
M  V30 11412 H 1039.66 1.85139 -0.868557 0
M  V30 11413 H 1037.82 3.81988 0.645273 0
M  V30 11414 H 1038.23 5.11783 -1.14797 0
M  V30 11415 H 1039.71 5.49545 0.520013 0
M  V30 11416 H 1040.18 4.12218 1.51568 0
M  V30 11417 H 1040.79 4.2503 -0.151608 0
M  V30 11418 N 1039.1 0.374177 1.53094 0
M  V30 11419 C 1040.03 -0.459976 2.28925 0
M  V30 11420 C 1041.02 -1.07656 1.31698 0
M  V30 11421 O 1042.2 -1.09219 1.60577 0
M  V30 11422 C 1039.33 -1.5954 3.08487 0
M  V30 11423 C 1038.28 -1.10563 4.13473 0
M  V30 11424 C 1037.61 -2.33196 4.81169 0
M  V30 11425 C 1038.91 -0.184275 5.21975 0
M  V30 11426 H 1040.6 0.172692 2.98902 0
M  V30 11427 H 1038.15 0.0844956 1.43752 0
M  V30 11428 H 1040.1 -2.18565 3.60288 0
M  V30 11429 H 1038.83 -2.25543 2.36216 0
M  V30 11430 H 1037.49 -0.53801 3.62631 0
M  V30 11431 H 1037.13 -2.97675 4.05461 0
M  V30 11432 H 1036.83 -2.01094 5.52119 0
M  V30 11433 H 1038.36 -2.92892 5.35767 0
M  V30 11434 H 1039.77 -0.682262 5.69226 0
M  V30 11435 H 1038.17 0.0462746 6.00082 0
M  V30 11436 H 1039.24 0.771152 4.78729 0
M  V30 11437 N 1040.58 -1.57259 0.103575 0
M  V30 11438 C 1041.86 -1.86143 -0.600852 0
M  V30 11439 C 1042.24 -1.00198 -1.85805 0
M  V30 11440 O 1041.59 -0.0766791 -2.28371 0
M  V30 11441 C 1041.8 -3.36978 -0.908108 0
M  V30 11442 C 1043.15 -4.05228 -1.26788 0
M  V30 11443 O 1044.17 -3.41908 -0.998859 0
M  V30 11444 O 1043.03 -5.16971 -1.7721 0
M  V30 11445 H 1040.12 -0.770064 -0.301547 0
M  V30 11446 H 1042.67 -1.69147 0.136914 0
M  V30 11447 H 1041.44 -3.91296 -0.0165615 0
M  V30 11448 H 1041.06 -3.5935 -1.70156 0
M  V30 11449 N 1042.06 0.170153 -1.56679 0
M  V30 11450 C 1042.99 1.21285 -1.9953 0
M  V30 11451 C 1043.97 1.46104 -0.871071 0
M  V30 11452 O 1045.16 1.57419 -1.13724 0
M  V30 11453 C 1042.29 2.5515 -2.35618 0
M  V30 11454 C 1041.24 2.44898 -3.51011 0
M  V30 11455 C 1040.57 3.83263 -3.72845 0
M  V30 11456 C 1041.87 1.95271 -4.84424 0
M  V30 11457 H 1043.56 0.856646 -2.86883 0
M  V30 11458 H 1041.11 0.410634 -1.38021 0
M  V30 11459 H 1043.06 3.28299 -2.64193 0
M  V30 11460 H 1041.78 2.92561 -1.45175 0
M  V30 11461 H 1040.44 1.74203 -3.22566 0
M  V30 11462 H 1040.09 4.18069 -2.79691 0
M  V30 11463 H 1039.79 3.77272 -4.50488 0
M  V30 11464 H 1041.31 4.57996 -4.03822 0
M  V30 11465 H 1042.73 2.58195 -5.11867 0
M  V30 11466 H 1041.13 2.00225 -5.65712 0
M  V30 11467 H 1042.2 0.90709 -4.7634 0
M  V30 11468 N 1043.54 1.5137 0.438746 0
M  V30 11469 C 1044.76 1.68058 1.21537 0
M  V30 11470 C 1045.19 0.376787 1.84288 0
M  V30 11471 O 1044.55 -0.662911 1.68746 0
M  V30 11472 C 1044.59 2.79684 2.27616 0
M  V30 11473 O 1043.7 2.43189 3.33066 0
M  V30 11474 H 1043.04 0.560408 0.356144 0
M  V30 11475 H 1045.57 1.97926 0.518311 0
M  V30 11476 H 1045.58 3.03726 2.72423 0
M  V30 11477 H 1044.25 3.74293 1.81321 0
M  V30 11478 H 1042.83 2.29713 2.93746 0
M  V30 11479 N 1045.02 -0.694098 1.41492 0
M  V30 11480 C 1045.97 -1.80016 1.39923 0
M  V30 11481 C 1046.95 -1.58561 0.273377 0
M  V30 11482 O 1048.14 -1.69368 0.514157 0
M  V30 11483 C 1045.27 -3.18333 1.28526 0
M  V30 11484 C 1044.36 -3.45478 2.45979 0
M  V30 11485 N 1044.75 -3.43313 3.71443 0
M  V30 11486 C 1043.05 -3.76033 2.39824 0
M  V30 11487 C 1043.75 -3.69404 4.4935 0
M  V30 11488 N 1042.72 -3.89221 3.79484 0
M  V30 11489 H 1046.53 -1.76707 2.34844 0
M  V30 11490 H 1044.04 -0.894148 1.35568 0
M  V30 11491 H 1046.04 -3.97567 1.25484 0
M  V30 11492 H 1044.7 -3.22852 0.345904 0
M  V30 11493 H 1045.71 -3.2366 4.04308 0
M  V30 11494 H 1042.38 -3.87913 1.54368 0
M  V30 11495 H 1043.77 -3.73854 5.58285 0
M  V30 11496 N 1046.49 -1.27344 -0.928501 0
M  V30 11497 C 1047.44 -1.09835 -2.05034 0
M  V30 11498 C 1048.44 -0.0216643 -1.69386 0
M  V30 11499 O 1049.64 -0.179323 -1.79105 0
M  V30 11500 H 1046.02 -0.338416 -0.671549 0
M  V30 11501 H 1047.99 -2.04879 -2.1695 0
M  V30 11502 C 1046.74 -0.761462 -3.3926 0
M  V30 11503 H 1046.06 -1.58186 -3.67175 0
M  V30 11504 H 1047.5 -0.678812 -4.18531 0
M  V30 11505 C 1045.96 0.534118 -3.32639 0
M  V30 11506 O 1046.49 1.56877 -3.69801 0
M  V30 11507 N 1044.7 0.529437 -2.85736 0
M  V30 11508 H 1044.24 -0.312954 -2.55692 0
M  V30 11509 H 1044.2 1.39637 -2.81689 0
M  V30 11510 N 1047.97 1.13488 -1.09353 0
M  V30 11511 C 1048.9 2.18563 -0.69012 0
M  V30 11512 C 1049.92 1.60585 0.267651 0
M  V30 11513 O 1051.11 1.78419 0.0538176 0
M  V30 11514 C 1048.21 3.389 0.00391255 0
M  V30 11515 C 1047.38 4.2639 -0.975209 0
M  V30 11516 C 1046.44 5.25258 -0.314719 0
M  V30 11517 O 1045.46 5.6101 -0.962119 0
M  V30 11518 N 1046.67 5.72978 0.931458 0
M  V30 11519 H 1049.43 2.53788 -1.59411 0
M  V30 11520 H 1046.99 1.28803 -0.980886 0
M  V30 11521 H 1048.98 4.02112 0.45696 0
M  V30 11522 H 1047.55 3.0192 0.81014 0
M  V30 11523 H 1046.77 3.59964 -1.60684 0
M  V30 11524 H 1048.06 4.817 -1.63836 0
M  V30 11525 H 1047.46 5.46078 1.477 0
M  V30 11526 H 1046.02 6.38131 1.32784 0
M  V30 11527 N 1049.45 0.880621 1.30701 0
M  V30 11528 C 1050.38 0.360251 2.30704 0
M  V30 11529 C 1051.36 -0.554572 1.60806 0
M  V30 11530 O 1052.55 -0.469345 1.88443 0
M  V30 11531 C 1049.68 -0.429888 3.44629 0
M  V30 11532 C 1048.63 0.392786 4.26194 0
M  V30 11533 C 1047.96 -0.52369 5.32129 0
M  V30 11534 C 1049.26 1.63258 4.96129 0
M  V30 11535 H 1050.95 1.19591 2.74478 0
M  V30 11536 H 1048.5 0.576508 1.31956 0
M  V30 11537 H 1050.45 -0.804532 4.13649 0
M  V30 11538 H 1049.17 -1.29916 2.99649 0
M  V30 11539 H 1047.83 0.749514 3.58856 0
M  V30 11540 H 1047.48 -1.39054 4.83397 0
M  V30 11541 H 1047.18 0.0229272 5.87596 0
M  V30 11542 H 1048.71 -0.894946 6.04006 0
M  V30 11543 H 1050.12 1.32877 5.57689 0
M  V30 11544 H 1048.52 2.11906 5.61441 0
M  V30 11545 H 1049.59 2.37944 4.22505 0
M  V30 11546 N 1050.93 -1.4397 0.641131 0
M  V30 11547 C 1052.16 -2.06303 0.157006 0
M  V30 11548 C 1052.57 -1.47981 -1.17248 0
M  V30 11549 O 1051.93 -0.606471 -1.72128 0
M  V30 11550 C 1051.98 -3.6147 0.0468425 0
M  V30 11551 O 1051.7 -4.17622 1.32376 0
M  V30 11552 C 1053.2 -4.40857 -0.464795 0
M  V30 11553 H 1050.42 -0.665684 0.0842946 0
M  V30 11554 H 1052.97 -1.84675 0.878363 0
M  V30 11555 H 1051.12 -3.82325 -0.625006 0
M  V30 11556 H 1051.54 -5.11167 1.17509 0
M  V30 11557 H 1053.01 -5.49813 -0.490862 0
M  V30 11558 H 1053.49 -4.13016 -1.4938 0
M  V30 11559 H 1054.09 -4.24943 0.174146 0
M  V30 11560 N 1052.41 -0.382291 -1.52893 0
M  V30 11561 C 1053.64 0.202408 -2.05908 0
M  V30 11562 C 1054.05 1.4109 -1.25456 0
M  V30 11563 O 1053.41 1.80027 -0.29942 0
M  V30 11564 C 1053.46 0.579452 -3.56826 0
M  V30 11565 O 1053.18 -0.58102 -4.3423 0
M  V30 11566 C 1054.68 1.22076 -4.2616 0
M  V30 11567 H 1051.9 0.0321859 -0.670228 0
M  V30 11568 H 1054.44 -0.545494 -1.9709 0
M  V30 11569 H 1052.6 1.27726 -3.65739 0
M  V30 11570 H 1053.01 -0.272693 -5.23791 0
M  V30 11571 H 1054.49 1.435 -5.33021 0
M  V30 11572 H 1054.96 2.18605 -3.80931 0
M  V30 11573 H 1055.57 0.563922 -4.21545 0
M  V30 11574 N 1053.89 1.57202 -0.111913 0
M  V30 11575 C 1055.13 1.95239 0.548607 0
M  V30 11576 C 1055.46 0.994897 1.6678 0
M  V30 11577 O 1054.74 0.0308603 1.94476 0
M  V30 11578 C 1055.02 3.43271 1.08798 0
M  V30 11579 C 1054.88 4.49792 -0.0273064 0
M  V30 11580 C 1056.19 3.92989 1.98109 0
M  V30 11581 H 1053.31 0.709919 0.197951 0
M  V30 11582 H 1055.96 1.89087 -0.186036 0
M  V30 11583 H 1054.11 3.48644 1.71404 0
M  V30 11584 H 1055.78 4.56521 -0.662302 0
M  V30 11585 H 1054.02 4.28254 -0.691426 0
M  V30 11586 H 1054.69 5.50612 0.391201 0
M  V30 11587 H 1057.17 3.89875 1.45385 0
M  V30 11588 H 1056.04 4.97101 2.32769 0
M  V30 11589 H 1056.3 3.33267 2.90492 0
M  V30 11590 N 1055.36 -0.161842 1.56767 0
M  V30 11591 C 1056.77 -0.723385 1.72116 0
M  V30 11592 C 1057.13 -1.82355 0.723961 0
M  V30 11593 O 1056.25 -2.16107 -0.112643 0
M  V30 11594 C 1056.85 -1.31895 3.12072 0
M  V30 11595 C 1055.4 -1.82722 3.29074 0
M  V30 11596 C 1054.55 -0.709863 2.6806 0
M  V30 11597 H 1057.5 0.0636647 1.58572 0
M  V30 11598 H 1057.52 -2.18871 3.11249 0
M  V30 11599 H 1057.04 -0.51801 3.84627 0
M  V30 11600 H 1055.14 -2.6543 2.61491 0
M  V30 11601 H 1055.25 -1.96614 4.36898 0
M  V30 11602 H 1053.61 -1.13273 2.28126 0
M  V30 11603 H 1054.4 0.0793884 3.43208 0
M  V30 11604 N 1056.84 -1.516 -0.430713 0
M  V30 11605 C 1057.75 -1.76247 -1.54836 0
M  V30 11606 C 1058.77 -0.646985 -1.61524 0
M  V30 11607 O 1059.94 -0.929987 -1.78643 0
M  V30 11608 C 1057.01 -1.88833 -2.90763 0
M  V30 11609 C 1056.07 -3.12701 -2.94137 0
M  V30 11610 C 1055.3 -3.24676 -4.23581 0
M  V30 11611 O 1055.53 -2.42429 -5.16318 0
M  V30 11612 O 1054.46 -4.17697 -4.33374 0
M  V30 11613 H 1058.29 -2.71069 -1.3695 0
M  V30 11614 H 1055.87 -1.36182 -0.614396 0
M  V30 11615 H 1057.75 -1.99057 -3.71422 0
M  V30 11616 H 1056.43 -0.971987 -3.08762 0
M  V30 11617 H 1055.33 -3.0795 -2.1241 0
M  V30 11618 H 1056.67 -4.04045 -2.81084 0
M  V30 11619 N 1058.32 0.686584 -1.41858 0
M  V30 11620 C 1059.74 0.998283 -1.24525 0
M  V30 11621 C 1059.94 2.01006 -0.141007 0
M  V30 11622 O 1058.99 2.47667 0.491648 0
M  V30 11623 C 1060.3 1.51432 -2.59786 0
M  V30 11624 C 1061.85 1.6327 -2.67043 0
M  V30 11625 C 1062.33 2.18274 -4.02642 0
M  V30 11626 N 1063.82 2.25622 -4.04535 0
M  V30 11627 C 1064.55 2.69229 -5.06264 0
M  V30 11628 N 1064.05 3.12375 -6.1838 0
M  V30 11629 N 1065.84 2.68873 -4.93623 0
M  V30 11630 H 1057.99 0.0164825 -2.12394 0
M  V30 11631 H 1060.26 0.0698613 -0.945422 0
M  V30 11632 H 1059.96 0.845426 -3.41388 0
M  V30 11633 H 1059.84 2.49502 -2.82894 0
M  V30 11634 H 1062.22 2.29269 -1.85794 0
M  V30 11635 H 1062.3 0.637221 -2.47736 0
M  V30 11636 H 1061.95 1.52887 -4.84343 0
M  V30 11637 H 1061.88 3.18591 -4.19294 0
M  V30 11638 H 1064.37 1.95186 -3.23591 0
M  V30 11639 H 1064.68 3.44301 -6.91864 0
M  V30 11640 H 1063.03 3.10262 -6.21902 0
M  V30 11641 H 1066.22 2.34521 -4.05114 0
M  V30 11642 H 1066.39 3.02539 -5.7304 0
M  V30 11643 N 1059.8 1.27835 0.921735 0
M  V30 11644 C 1060.73 1.136 2.04003 0
M  V30 11645 C 1061.71 0.0358756 1.70062 0
M  V30 11646 O 1062.89 0.211438 1.93046 0
M  V30 11647 C 1060.02 0.788697 3.38226 0
M  V30 11648 C 1058.98 1.84272 3.863 0
M  V30 11649 C 1058.3 1.34923 5.17397 0
M  V30 11650 C 1059.6 3.24788 4.09035 0
M  V30 11651 H 1061.3 2.07149 2.1617 0
M  V30 11652 H 1058.84 0.997349 1.0387 0
M  V30 11653 H 1060.8 0.675911 4.15944 0
M  V30 11654 H 1059.52 -0.182499 3.2609 0
M  V30 11655 H 1058.18 1.94451 3.1078 0
M  V30 11656 H 1057.83 0.367328 5.01657 0
M  V30 11657 H 1057.53 2.05397 5.50532 0
M  V30 11658 H 1059.05 1.24951 5.97678 0
M  V30 11659 H 1060.47 3.17575 4.77304 0
M  V30 11660 H 1058.86 3.93025 4.53488 0
M  V30 11661 H 1059.93 3.69398 3.14122 0
M  V30 11662 N 1061.28 -1.12907 1.09954 0
M  V30 11663 C 1062.5 -1.88679 0.861099 0
M  V30 11664 C 1062.93 -1.78853 -0.582499 0
M  V30 11665 O 1062.28 -1.13992 -1.4098 0
M  V30 11666 C 1062.33 -3.36047 1.30785 0
M  V30 11667 O 1061.44 -4.09716 0.469728 0
M  V30 11668 H 1060.78 -0.586447 0.31141 0
M  V30 11669 H 1063.31 -1.42818 1.46507 0
M  V30 11670 H 1063.32 -3.86882 1.29562 0
M  V30 11671 H 1061.99 -3.42516 2.35914 0
M  V30 11672 H 1060.57 -3.6887 0.54674 0
M  V30 11673 N 1062.75 -0.88754 -1.30232 0
M  V30 11674 C 1063.7 -0.345765 -2.30016 0
M  V30 11675 C 1064.7 0.5486 -1.60271 0
M  V30 11676 O 1065.9 0.43275 -1.74721 0
M  V30 11677 H 1062.28 -0.0931623 -0.746207 0
M  V30 11678 H 1064.25 -1.20095 -2.73166 0
M  V30 11679 C 1063 0.422435 -3.45124 0
M  V30 11680 H 1062.32 -0.256516 -3.98976 0
M  V30 11681 H 1063.76 0.766572 -4.17013 0
M  V30 11682 C 1062.22 1.62049 -2.95367 0
M  V30 11683 O 1062.75 2.71985 -2.95613 0
M  V30 11684 N 1060.95 1.45852 -2.51347 0
M  V30 11685 H 1060.5 0.564158 -2.51346 0
M  V30 11686 H 1060.46 2.26148 -2.18413 0
M  V30 11687 N 1064.23 1.43628 -0.648757 0
M  V30 11688 C 1065.47 2.03742 -0.163878 0
M  V30 11689 C 1065.84 1.50047 1.19791 0
M  V30 11690 O 1067.04 2.01777 1.77594 0
M  V30 11691 C 1065.31 3.57001 -0.168849 0
M  V30 11692 S 1066.87 4.38094 0.248835 0
M  V30 11693 H 1063.69 0.70757 -0.0697515 0
M  V30 11694 H 1066.29 1.75759 -0.856094 0
M  V30 11695 H 1064.99 3.93583 -1.16277 0
M  V30 11696 H 1064.52 3.8962 0.544048 0
M  V30 11697 H 1066.54 4.73338 1.48882 0
M  V30 11698 N 1065.71 0.390394 1.52688 0
M  V30 11699 C 1066.94 -0.194013 2.06491 0
M  V30 11700 C 1067.36 -1.3965 1.26014 0
M  V30 11701 O 1066.72 -1.79038 0.285468 0
M  V30 11702 C 1066.77 -0.541306 3.56514 0
M  V30 11703 O 1065.87 -1.63509 3.78601 0
M  V30 11704 H 1065.21 -0.0223608 0.663623 0
M  V30 11705 H 1067.74 0.558179 1.96839 0
M  V30 11706 H 1067.75 -0.805301 3.99974 0
M  V30 11707 H 1066.43 0.337828 4.14526 0
M  V30 11708 H 1065 -1.36473 3.4703 0
M  V30 11709 N 1067.19 -1.57141 0.120249 0
M  V30 11710 C 1068.6 -1.5784 -0.236335 0
M  V30 11711 C 1068.8 -1.13304 -1.66626 0
M  V30 11712 O 1067.86 -0.821004 -2.3878 0
M  V30 11713 C 1069.17 -3.007 -0.00188211 0
M  V30 11714 C 1070.72 -3.12927 -0.0676838 0
M  V30 11715 C 1071.2 -4.57789 0.139092 0
M  V30 11716 N 1072.69 -4.63122 0.085104 0
M  V30 11717 C 1073.42 -5.72978 0.219983 0
M  V30 11718 N 1072.92 -6.91579 0.411102 0
M  V30 11719 N 1074.71 -5.61874 0.159469 0
M  V30 11720 H 1066.86 -1.84391 1.05422 0
M  V30 11721 H 1069.13 -0.852228 0.415225 0
M  V30 11722 H 1068.83 -3.37575 0.986718 0
M  V30 11723 H 1068.71 -3.70005 -0.733203 0
M  V30 11724 H 1071.09 -2.75909 -1.04681 0
M  V30 11725 H 1071.17 -2.46162 0.695538 0
M  V30 11726 H 1070.82 -4.95506 1.1152 0
M  V30 11727 H 1070.75 -5.22646 -0.644131 0
M  V30 11728 H 1073.24 -3.77854 -0.0590479 0
M  V30 11729 H 1073.55 -7.71149 0.504851 0
M  V30 11730 H 1071.9 -6.9356 0.447091 0
M  V30 11731 H 1075.09 -4.68099 0.0111131 0
M  V30 11732 H 1075.26 -6.47445 0.268028 0
M  V30 11733 N 1068.67 0.153526 -1.5685 0
M  V30 11734 C 1069.89 0.886343 -1.87507 0
M  V30 11735 C 1070.32 1.74244 -0.708565 0
M  V30 11736 O 1069.67 1.78045 0.341997 0
M  V30 11737 C 1069.72 1.72428 -3.16703 0
M  V30 11738 O 1068.83 2.82784 -3.00178 0
M  V30 11739 H 1068.17 0.247259 -0.616246 0
M  V30 11740 H 1070.7 0.146306 -2.04076 0
M  V30 11741 H 1070.71 2.12062 -3.4856 0
M  V30 11742 H 1069.38 1.09558 -4.01211 0
M  V30 11743 H 1067.96 2.46604 -2.79716 0
M  V30 11744 N 1070.14 1.51827 0.422667 0
M  V30 11745 C 1071.07 1.77152 1.52117 0
M  V30 11746 C 1072.06 0.621895 1.58324 0
M  V30 11747 O 1073.24 0.866118 1.73816 0
M  V30 11748 C 1070.37 1.90991 2.90068 0
M  V30 11749 C 1069.32 3.06516 2.98717 0
M  V30 11750 C 1068.65 3.05559 4.38791 0
M  V30 11751 C 1069.95 4.46223 2.71445 0
M  V30 11752 H 1071.64 2.69135 1.31175 0
M  V30 11753 H 1069.19 1.29507 0.629607 0
M  V30 11754 H 1071.14 2.07291 3.6689 0
M  V30 11755 H 1069.87 0.956688 3.12274 0
M  V30 11756 H 1068.53 2.89945 2.24338 0
M  V30 11757 H 1068.17 2.07985 4.57986 0
M  V30 11758 H 1067.87 3.83144 4.45505 0
M  V30 11759 H 1069.4 3.23971 5.17566 0
M  V30 11760 H 1070.81 4.63069 3.37994 0
M  V30 11761 H 1069.21 5.25623 2.89552 0
M  V30 11762 H 1070.28 4.5525 1.6696 0
M  V30 11763 N 1071.62 -0.679052 1.4222 0
M  V30 11764 C 1072.57 -1.79269 1.45366 0
M  V30 11765 C 1073.54 -1.63255 0.306089 0
M  V30 11766 O 1074.72 -1.8387 0.509548 0
M  V30 11767 C 1071.86 -3.17272 1.35766 0
M  V30 11768 C 1070.98 -3.44603 2.60525 0
M  V30 11769 C 1070.11 -4.7231 2.43098 0
M  V30 11770 C 1069.15 -4.92661 3.63251 0
M  V30 11771 N 1068.29 -6.11606 3.44794 0
M  V30 11772 H 1073.13 -1.75916 2.40536 0
M  V30 11773 H 1070.67 -0.858836 1.19425 0
M  V30 11774 H 1072.62 -3.97015 1.282 0
M  V30 11775 H 1071.25 -3.1976 0.441939 0
M  V30 11776 H 1070.31 -2.59144 2.78475 0
M  V30 11777 H 1071.62 -3.55536 3.49851 0
M  V30 11778 H 1070.77 -5.60136 2.33093 0
M  V30 11779 H 1069.51 -4.63652 1.51255 0
M  V30 11780 H 1068.52 -4.03278 3.73693 0
M  V30 11781 H 1069.74 -5.03167 4.5607 0
M  V30 11782 H 1067.69 -6.04129 2.55663 0
M  V30 11783 H 1067.6 -6.23381 4.27705 0
M  V30 11784 H 1068.87 -7.02122 3.38592 0
M  V30 11785 N 1073.1 -1.28322 -0.914942 0
M  V30 11786 C 1074.05 -1.12003 -2.03858 0
M  V30 11787 C 1075.04 -0.0396287 -1.69354 0
M  V30 11788 O 1076.25 -0.198309 -1.78904 0
M  V30 11789 H 1072.62 -0.34552 -0.667922 0
M  V30 11790 H 1074.59 -2.07168 -2.14765 0
M  V30 11791 C 1073.34 -0.797402 -3.38433 0
M  V30 11792 H 1072.67 -1.62071 -3.65476 0
M  V30 11793 H 1074.11 -0.723165 -4.17787 0
M  V30 11794 C 1072.57 0.498807 -3.33187 0
M  V30 11795 O 1073.1 1.52946 -3.71444 0
M  V30 11796 N 1071.3 0.499101 -2.86282 0
M  V30 11797 H 1070.85 -0.340056 -2.55346 0
M  V30 11798 H 1070.81 1.36641 -2.83155 0
M  V30 11799 N 1074.58 1.12322 -1.10551 0
M  V30 11800 C 1075.51 2.20176 -0.777486 0
M  V30 11801 C 1076.49 1.68252 0.250069 0
M  V30 11802 O 1077.67 1.93856 0.115574 0
M  V30 11803 C 1074.8 3.46666 -0.209822 0
M  V30 11804 C 1073.76 4.11749 -1.1682 0
M  V30 11805 C 1073.08 5.32703 -0.461684 0
M  V30 11806 C 1074.38 4.57746 -2.51527 0
M  V30 11807 H 1076.08 2.47872 -1.67928 0
M  V30 11808 H 1073.62 1.19136 -0.808863 0
M  V30 11809 H 1075.58 4.21388 0.0318068 0
M  V30 11810 H 1074.3 3.18401 0.727226 0
M  V30 11811 H 1072.96 3.39009 -1.3953 0
M  V30 11812 H 1072.61 5.00706 0.479875 0
M  V30 11813 H 1072.31 5.77197 -1.1008 0
M  V30 11814 H 1073.83 6.10172 -0.228629 0
M  V30 11815 H 1075.25 5.23835 -2.32958 0
M  V30 11816 H 1073.64 5.13021 -3.11335 0
M  V30 11817 H 1074.71 3.71667 -3.11435 0
M  V30 11818 N 1076.06 0.894434 1.2976 0
M  V30 11819 C 1077.31 0.513673 1.95049 0
M  V30 11820 C 1077.62 -0.943744 1.71327 0
M  V30 11821 O 1078.82 -1.43179 2.30678 0
M  V30 11822 C 1077.28 0.867751 3.49282 0
M  V30 11823 C 1076.89 2.34358 3.81812 0
M  V30 11824 C 1078.63 0.556645 4.20835 0
M  V30 11825 C 1076.54 2.63879 5.29265 0
M  V30 11826 H 1075.47 0.188375 0.73009 0
M  V30 11827 H 1078.12 1.09071 1.47566 0
M  V30 11828 H 1076.5 0.2197 3.9539 0
M  V30 11829 H 1077.68 3.03674 3.46581 0
M  V30 11830 H 1075.99 2.62318 3.23386 0
M  V30 11831 H 1078.59 0.754123 5.29355 0
M  V30 11832 H 1078.93 -0.504526 4.13231 0
M  V30 11833 H 1079.46 1.1623 3.80441 0
M  V30 11834 H 1076.2 3.68774 5.41928 0
M  V30 11835 H 1075.72 1.99182 5.65762 0
M  V30 11836 H 1077.4 2.49871 5.96803 0
M  V30 11837 N 1077.53 -1.43282 0.656365 0
M  V30 11838 C 1078.46 -2.33492 -0.0196962 0
M  V30 11839 C 1079.45 -1.49647 -0.80868 0
M  V30 11840 O 1080.63 -1.78303 -0.769529 0
M  V30 11841 C 1077.76 -3.33052 -0.984574 0
M  V30 11842 C 1076.71 -4.26908 -0.305483 0
M  V30 11843 C 1076.04 -5.16531 -1.38202 0
M  V30 11844 C 1077.34 -5.16073 0.804081 0
M  V30 11845 H 1079.03 -2.90272 0.733661 0
M  V30 11846 H 1076.58 -1.39574 0.354259 0
M  V30 11847 H 1078.53 -3.9506 -1.46647 0
M  V30 11848 H 1077.26 -2.74535 -1.76913 0
M  V30 11849 H 1075.92 -3.66268 0.155995 0
M  V30 11850 H 1075.56 -4.54351 -2.1581 0
M  V30 11851 H 1075.26 -5.80148 -0.932878 0
M  V30 11852 H 1076.79 -5.81414 -1.86522 0
M  V30 11853 H 1078.2 -5.71873 0.404212 0
M  V30 11854 H 1076.6 -5.88427 1.17789 0
M  V30 11855 H 1077.67 -4.55574 1.66073 0
M  V30 11856 N 1079.01 -0.398486 -1.52479 0
M  V30 11857 C 1079.96 0.432212 -2.26717 0
M  V30 11858 C 1080.93 1.05007 -1.28696 0
M  V30 11859 O 1082.12 1.07636 -1.57541 0
M  V30 11860 C 1079.26 1.54868 -3.08399 0
M  V30 11861 C 1078.37 0.952779 -4.21362 0
M  V30 11862 C 1077.5 2.04106 -4.90423 0
M  V30 11863 C 1076.54 1.42153 -5.95364 0
M  V30 11864 N 1075.68 2.44951 -6.57984 0
M  V30 11865 H 1080.52 -0.207303 -2.97278 0
M  V30 11866 H 1078.06 -0.114066 -1.46657 0
M  V30 11867 H 1080.01 2.20684 -3.54054 0
M  V30 11868 H 1078.64 2.15837 -2.4003 0
M  V30 11869 H 1077.7 0.183962 -3.79955 0
M  V30 11870 H 1079.01 0.460131 -4.96673 0
M  V30 11871 H 1078.16 2.77672 -5.39429 0
M  V30 11872 H 1076.9 2.56733 -4.14656 0
M  V30 11873 H 1075.91 0.671161 -5.45688 0
M  V30 11874 H 1077.13 0.903093 -6.73068 0
M  V30 11875 H 1075.08 2.9673 -5.85053 0
M  V30 11876 H 1074.99 2.00468 -7.28937 0
M  V30 11877 H 1076.26 3.18119 -7.11632 0
M  V30 11878 N 1080.49 1.57075 -0.12858 0
M  V30 11879 C 1081.44 2.17084 0.835308 0
M  V30 11880 C 1082.43 1.12268 1.26855 0
M  V30 11881 O 1083.64 1.30554 1.23917 0
M  V30 11882 H 1080.01 0.694866 0.287516 0
M  V30 11883 H 1081.99 2.96839 0.304798 0
M  V30 11884 C 1080.73 2.79237 2.07177 0
M  V30 11885 H 1080.06 3.59594 1.74735 0
M  V30 11886 H 1081.5 3.24751 2.72604 0
M  V30 11887 C 1079.96 1.76803 2.86779 0
M  V30 11888 O 1080.49 1.22723 3.82494 0
M  V30 11889 N 1078.69 1.46525 2.50956 0
M  V30 11890 H 1078.24 1.90694 1.73187 0
M  V30 11891 H 1078.2 0.782326 3.04511 0
M  V30 11892 N 1081.97 -0.145205 1.5693 0
M  V30 11893 C 1082.92 -1.19841 1.99351 0
M  V30 11894 C 1083.91 -1.44371 0.886197 0
M  V30 11895 O 1085.12 -1.44642 1.07138 0
M  V30 11896 H 1081.49 -0.403437 0.63462 0
M  V30 11897 H 1083.46 -0.813932 2.87085 0
M  V30 11898 C 1082.21 -2.52377 2.39167 0
M  V30 11899 H 1081.54 -2.34332 3.23927 0
M  V30 11900 H 1082.98 -3.24694 2.72671 0
M  V30 11901 C 1081.43 -3.1305 1.24503 0
M  V30 11902 O 1081.96 -3.97962 0.546739 0
M  V30 11903 N 1080.17 -2.72528 1.00882 0
M  V30 11904 H 1079.72 -2.03576 1.57843 0
M  V30 11905 H 1079.68 -3.13456 0.24351 0
M  V30 11906 N 1083.45 -1.52049 -0.414609 0
M  V30 11907 C 1084.38 -1.7122 -1.52369 0
M  V30 11908 C 1085.39 -0.592634 -1.5163 0
M  V30 11909 O 1086.58 -0.867634 -1.55995 0
M  V30 11910 C 1083.68 -1.73247 -2.91271 0
M  V30 11911 C 1082.85 -3.02153 -3.16263 0
M  V30 11912 C 1081.91 -2.96066 -4.35007 0
M  V30 11913 O 1080.94 -3.69981 -4.32554 0
M  V30 11914 N 1082.14 -2.13478 -5.39822 0
M  V30 11915 H 1084.91 -2.66902 -1.3632 0
M  V30 11916 H 1082.47 -1.50218 -0.603842 0
M  V30 11917 H 1084.46 -1.66714 -3.68766 0
M  V30 11918 H 1083.03 -0.85062 -3.00804 0
M  V30 11919 H 1082.25 -3.22379 -2.2686 0
M  V30 11920 H 1083.54 -3.87439 -3.29801 0
M  V30 11921 H 1082.94 -1.52844 -5.44661 0
M  V30 11922 H 1081.49 -2.12805 -6.16082 0
M  V30 11923 N 1084.93 0.6715 -1.42579 0
M  V30 11924 C 1086.17 1.42731 -1.42516 0
M  V30 11925 C 1086.49 1.95545 -0.0462407 0
M  V30 11926 O 1087.69 2.71391 0.0769798 0
M  V30 11927 C 1086.15 2.58215 -2.50705 0
M  V30 11928 C 1085.76 2.12086 -3.94618 0
M  V30 11929 C 1087.5 3.35705 -2.59813 0
M  V30 11930 C 1085.41 3.24672 -4.9431 0
M  V30 11931 H 1084.34 0.536218 -0.530081 0
M  V30 11932 H 1086.99 0.726655 -1.68499 0
M  V30 11933 H 1085.37 3.30665 -2.17892 0
M  V30 11934 H 1086.55 1.46768 -4.36802 0
M  V30 11935 H 1084.86 1.47526 -3.89391 0
M  V30 11936 H 1087.46 4.1956 -3.31472 0
M  V30 11937 H 1087.8 3.82517 -1.64276 0
M  V30 11938 H 1088.33 2.70326 -2.91836 0
M  V30 11939 H 1085.07 2.82848 -5.91335 0
M  V30 11940 H 1084.59 3.88761 -4.56755 0
M  V30 11941 H 1086.27 3.90088 -5.16179 0
M  V30 11942 N 1086.4 1.28806 0.908124 0
M  V30 11943 C 1087.82 1.06634 1.18749 0
M  V30 11944 C 1088.02 -0.187729 2.00624 0
M  V30 11945 O 1087.08 -0.88784 2.36376 0
M  V30 11946 C 1088.39 2.31703 1.91661 0
M  V30 11947 C 1089.94 2.36939 2.04521 0
M  V30 11948 C 1090.41 3.61789 2.80843 0
M  V30 11949 N 1091.9 3.62462 2.88402 0
M  V30 11950 C 1092.64 4.55746 3.47971 0
M  V30 11951 N 1092.13 5.59353 4.08774 0
M  V30 11952 N 1093.93 4.43331 3.45564 0
M  V30 11953 H 1086.08 2.09299 0.36164 0
M  V30 11954 H 1088.34 0.921479 0.222668 0
M  V30 11955 H 1088.05 3.23096 1.38931 0
M  V30 11956 H 1087.92 2.38556 2.92183 0
M  V30 11957 H 1090.31 1.4604 2.5643 0
M  V30 11958 H 1090.39 2.34077 1.03159 0
M  V30 11959 H 1090.03 4.53035 2.29612 0
M  V30 11960 H 1089.96 3.61907 3.82532 0
M  V30 11961 H 1092.45 2.87544 2.45208 0
M  V30 11962 H 1092.77 6.26668 4.52224 0
M  V30 11963 H 1091.11 5.63173 4.07261 0
M  V30 11964 H 1094.3 3.61587 2.97276 0
M  V30 11965 H 1094.48 5.16216 3.91695 0
M  V30 11966 N 1087.88 -1.11734 1.11145 0
M  V30 11967 C 1089.11 -1.87755 0.881062 0
M  V30 11968 C 1089.53 -1.79461 -0.563496 0
M  V30 11969 O 1088.89 -1.15481 -1.39763 0
M  V30 11970 C 1088.94 -3.34641 1.34342 0
M  V30 11971 O 1088.04 -4.09195 0.513157 0
M  V30 11972 H 1087.38 -0.583111 0.317613 0
M  V30 11973 H 1089.91 -1.41256 1.48013 0
M  V30 11974 H 1089.92 -3.85486 1.33658 0
M  V30 11975 H 1088.6 -3.39994 2.39534 0
M  V30 11976 H 1087.17 -3.68269 0.585833 0
M  V30 11977 N 1089.36 -0.901303 -1.29284 0
M  V30 11978 C 1090.29 -0.396909 -2.30102 0
M  V30 11979 C 1091.27 0.528919 -1.61668 0
M  V30 11980 O 1092.46 0.439306 -1.89166 0
M  V30 11981 C 1089.59 0.375006 -3.45269 0
M  V30 11982 C 1088.54 -0.46054 -4.25515 0
M  V30 11983 C 1087.87 0.438967 -5.32895 0
M  V30 11984 C 1089.17 -1.7113 -4.93469 0
M  V30 11985 H 1090.86 -1.23943 -2.72541 0
M  V30 11986 H 1088.41 -0.597428 -1.31022 0
M  V30 11987 H 1090.36 0.738622 -4.14876 0
M  V30 11988 H 1089.08 1.25132 -3.01678 0
M  V30 11989 H 1087.74 -0.80651 -3.57618 0
M  V30 11990 H 1087.39 1.31346 -4.85548 0
M  V30 11991 H 1087.09 -0.116406 -5.87485 0
M  V30 11992 H 1088.61 0.79874 -6.05353 0
M  V30 11993 H 1090.03 -1.41732 -5.55504 0
M  V30 11994 H 1088.42 -2.20811 -5.57999 0
M  V30 11995 H 1089.49 -2.44636 -4.18666 0
M  V30 11996 N 1090.84 1.42931 -0.663954 0
M  V30 11997 C 1092.07 2.06028 -0.189808 0
M  V30 11998 C 1092.48 1.49827 1.14879 0
M  V30 11999 O 1091.84 0.633778 1.71142 0
M  V30 12000 C 1091.89 3.61349 -0.104343 0
M  V30 12001 O 1091.61 4.15463 -1.39004 0
M  V30 12002 C 1093.11 4.4154 0.394599 0
M  V30 12003 H 1090.33 0.664259 -0.0948744 0
M  V30 12004 H 1092.87 1.83255 -0.907632 0
M  V30 12005 H 1091.03 3.83271 0.564103 0
M  V30 12006 H 1091.44 5.09233 -1.25626 0
M  V30 12007 H 1092.92 5.50525 0.403329 0
M  V30 12008 H 1093.39 4.1534 1.4279 0
M  V30 12009 H 1094 4.24612 -0.241729 0
M  V30 12010 N 1092.32 0.406567 1.52266 0
M  V30 12011 C 1093.26 -0.420182 2.26943 0
M  V30 12012 C 1094.23 -1.04323 1.29251 0
M  V30 12013 O 1095.42 -1.06799 1.5811 0
M  V30 12014 C 1092.56 -1.5323 3.09216 0
M  V30 12015 C 1091.67 -0.930419 4.21862 0
M  V30 12016 C 1090.81 -2.01502 4.91498 0
M  V30 12017 C 1089.84 -1.38994 5.9611 0
M  V30 12018 N 1088.98 -2.41458 6.59274 0
M  V30 12019 H 1093.82 0.223066 2.97164 0
M  V30 12020 H 1091.36 0.121842 1.46595 0
M  V30 12021 H 1093.32 -2.18803 3.5522 0
M  V30 12022 H 1091.95 -2.14561 2.41171 0
M  V30 12023 H 1091 -0.163809 3.80047 0
M  V30 12024 H 1092.31 -0.433785 4.9691 0
M  V30 12025 H 1091.46 -2.74807 5.40894 0
M  V30 12026 H 1090.2 -2.5453 4.16012 0
M  V30 12027 H 1089.21 -0.642213 5.46036 0
M  V30 12028 H 1090.43 -0.867386 6.73538 0
M  V30 12029 H 1088.38 -2.93623 5.86619 0
M  V30 12030 H 1088.3 -1.96599 7.2999 0
M  V30 12031 H 1089.56 -3.14341 7.13309 0
M  V30 12032 N 1093.79 -1.57004 0.136909 0
M  V30 12033 C 1095.02 -1.99866 -0.523177 0
M  V30 12034 C 1095.43 -1.01584 -1.59616 0
M  V30 12035 O 1094.78 -0.00326426 -1.837 0
M  V30 12036 C 1094.84 -3.39157 -1.19217 0
M  V30 12037 C 1094.5 -4.56231 -0.265 0
M  V30 12038 C 1095.5 -5.17457 0.503412 0
M  V30 12039 C 1093.18 -5.02009 -0.170846 0
M  V30 12040 C 1095.18 -6.22863 1.35353 0
M  V30 12041 C 1092.86 -6.07273 0.682884 0
M  V30 12042 C 1093.86 -6.67568 1.44369 0
M  V30 12043 O 1093.55 -7.70795 2.28321 0
M  V30 12044 H 1093.28 -0.661005 -0.141593 0
M  V30 12045 H 1095.84 -2.04159 0.225445 0
M  V30 12046 H 1094.07 -3.31672 -1.98823 0
M  V30 12047 H 1095.76 -3.66191 -1.75096 0
M  V30 12048 H 1096.52 -4.82994 0.440648 0
M  V30 12049 H 1092.4 -4.54813 -0.752744 0
M  V30 12050 H 1095.94 -6.69855 1.94783 0
M  V30 12051 H 1091.84 -6.41163 0.746978 0
M  V30 12052 H 1092.61 -7.87971 2.21458 0
M  V30 12053 N 1095.27 0.136881 -1.57004 0
M  V30 12054 C 1096.52 0.847775 -1.83899 0
M  V30 12055 C 1096.85 1.80709 -0.719332 0
M  V30 12056 O 1096.1 1.93527 0.290838 0
M  V30 12057 C 1096.4 1.64711 -3.17183 0
M  V30 12058 C 1096.07 0.833683 -4.43126 0
M  V30 12059 C 1094.73 0.609306 -4.77327 0
M  V30 12060 C 1097.08 0.265504 -5.20523 0
M  V30 12061 C 1094.41 -0.193793 -5.8638 0
M  V30 12062 C 1096.76 -0.524688 -6.3042 0
M  V30 12063 C 1095.43 -0.759548 -6.63164 0
M  V30 12064 H 1094.7 0.310223 -0.672936 0
M  V30 12065 H 1097.34 0.110937 -1.91178 0
M  V30 12066 H 1095.65 2.45435 -3.054 0
M  V30 12067 H 1097.34 2.20081 -3.3521 0
M  V30 12068 H 1093.93 1.01864 -4.16319 0
M  V30 12069 H 1098.12 0.426109 -4.94467 0
M  V30 12070 H 1093.37 -0.385153 -6.10186 0
M  V30 12071 H 1097.55 -0.972033 -6.89583 0
M  V30 12072 H 1095.18 -1.38369 -7.47501 0
M  V30 12073 N 1096.75 1.52266 0.40654 0
M  V30 12074 C 1097.68 1.78755 1.50229 0
M  V30 12075 C 1098.66 0.638652 1.57655 0
M  V30 12076 O 1099.85 0.884505 1.72888 0
M  V30 12077 C 1096.98 1.94057 2.88026 0
M  V30 12078 C 1095.93 3.09667 2.95449 0
M  V30 12079 C 1095.26 3.10196 4.35526 0
M  V30 12080 C 1096.56 4.49077 2.66697 0
M  V30 12081 H 1098.25 2.70511 1.28313 0
M  V30 12082 H 1095.8 1.30167 0.615836 0
M  V30 12083 H 1097.75 2.11171 3.64671 0
M  V30 12084 H 1096.47 0.989755 3.11242 0
M  V30 12085 H 1095.13 2.92308 2.2125 0
M  V30 12086 H 1094.78 2.12831 4.55754 0
M  V30 12087 H 1094.48 3.87847 4.41416 0
M  V30 12088 H 1096 3.29443 5.14101 0
M  V30 12089 H 1097.42 4.66628 3.33064 0
M  V30 12090 H 1095.82 5.28665 2.8396 0
M  V30 12091 H 1096.89 4.56995 1.62122 0
M  V30 12092 N 1098.23 -0.663929 1.42933 0
M  V30 12093 C 1099.16 -1.78946 1.43217 0
M  V30 12094 C 1100.17 -1.59426 0.329727 0
M  V30 12095 O 1101.36 -1.68344 0.5935 0
M  V30 12096 C 1098.46 -3.16217 1.21902 0
M  V30 12097 C 1097.64 -3.6249 2.44785 0
M  V30 12098 C 1096.69 -4.78529 2.18853 0
M  V30 12099 O 1095.72 -4.88516 2.92131 0
M  V30 12100 N 1096.92 -5.67994 1.19845 0
M  V30 12101 H 1099.69 -1.79184 2.40236 0
M  V30 12102 H 1097.25 -0.847404 1.37952 0
M  V30 12103 H 1099.24 -3.91517 1.02454 0
M  V30 12104 H 1097.81 -3.10814 0.333676 0
M  V30 12105 H 1097.03 -2.77751 2.79729 0
M  V30 12106 H 1098.32 -3.90151 3.26588 0
M  V30 12107 H 1097.72 -5.62588 0.59259 0
M  V30 12108 H 1096.27 -6.4306 1.06382 0
M  V30 12109 N 1099.71 -1.29285 -0.901281 0
M  V30 12110 C 1100.98 -1.07847 -1.63182 0
M  V30 12111 C 1101.36 0.377927 -2.07689 0
M  V30 12112 O 1100.71 1.36642 -1.83143 0
M  V30 12113 C 1100.92 -2.06457 -2.81383 0
M  V30 12114 C 1102.27 -2.37289 -3.52107 0
M  V30 12115 O 1103.29 -2.0464 -2.91549 0
M  V30 12116 O 1102.15 -2.93067 -4.61274 0
M  V30 12117 H 1099.25 -0.413073 -0.71645 0
M  V30 12118 H 1101.79 -1.40651 -0.949488 0
M  V30 12119 H 1100.56 -3.04561 -2.4568 0
M  V30 12120 H 1100.19 -1.74374 -3.57323 0
M  V30 12121 N 1101.18 1.11143 -1.11736 0
M  V30 12122 C 1102.15 2.15456 -0.78174 0
M  V30 12123 C 1103.15 1.59547 0.200383 0
M  V30 12124 O 1104.34 1.74183 -0.0244893 0
M  V30 12125 C 1101.47 3.40523 -0.160364 0
M  V30 12126 H 1102.66 2.46658 -1.70586 0
M  V30 12127 H 1100.22 1.26381 -0.919644 0
M  V30 12128 H 1100.95 3.14932 0.773835 0
M  V30 12129 H 1100.74 3.82386 -0.867378 0
M  V30 12130 H 1102.23 4.17559 0.0582175 0
M  V30 12131 N 1102.66 0.908147 1.28804 0
M  V30 12132 C 1103.91 0.538404 1.95211 0
M  V30 12133 C 1104.24 -0.916886 1.71533 0
M  V30 12134 O 1103.49 -1.66643 1.02609 0
M  V30 12135 C 1103.79 0.787327 3.4862 0
M  V30 12136 C 1103.46 2.22129 3.92389 0
M  V30 12137 C 1102.12 2.61336 4.04051 0
M  V30 12138 C 1104.47 3.15471 4.14883 0
M  V30 12139 C 1101.8 3.93048 4.3558 0
M  V30 12140 C 1104.15 4.46741 4.47889 0
M  V30 12141 C 1102.82 4.85809 4.57761 0
M  V30 12142 H 1102.09 0.197016 0.714329 0
M  V30 12143 H 1104.73 1.14841 1.53244 0
M  V30 12144 H 1103.04 0.0944731 3.91686 0
M  V30 12145 H 1104.73 0.480503 3.98111 0
M  V30 12146 H 1101.32 1.90704 3.83836 0
M  V30 12147 H 1105.51 2.86391 4.05332 0
M  V30 12148 H 1100.76 4.23027 4.41428 0
M  V30 12149 H 1104.94 5.19087 4.64243 0
M  V30 12150 H 1102.57 5.87904 4.81947 0
M  V30 12151 N 1104.14 -1.42577 0.671525 0
M  V30 12152 C 1105.07 -2.2915 -0.0477361 0
M  V30 12153 C 1106.09 -1.43503 -0.768805 0
M  V30 12154 O 1107.27 -1.67256 -0.623509 0
M  V30 12155 C 1104.37 -3.20851 -1.09122 0
M  V30 12156 C 1103.55 -4.35134 -0.44463 0
M  V30 12157 C 1102.61 -5.07579 -1.38745 0
M  V30 12158 O 1101.63 -5.62215 -0.889015 0
M  V30 12159 N 1102.83 -5.12786 -2.72086 0
M  V30 12160 H 1105.6 -2.9152 0.695415 0
M  V30 12161 H 1103.16 -1.53467 0.515689 0
M  V30 12162 H 1105.15 -3.66183 -1.72315 0
M  V30 12163 H 1103.72 -2.59956 -1.73614 0
M  V30 12164 H 1102.94 -3.9249 0.36675 0
M  V30 12165 H 1104.23 -5.088 0.00595927 0
M  V30 12166 H 1103.63 -4.69802 -3.15123 0
M  V30 12167 H 1102.19 -5.61774 -3.30535 0
M  V30 12168 N 1105.62 -0.414636 -1.52048 0
M  V30 12169 C 1106.55 0.399119 -2.30064 0
M  V30 12170 C 1107.53 1.04126 -1.34506 0
M  V30 12171 O 1108.71 1.04923 -1.63416 0
M  V30 12172 C 1105.84 1.51305 -3.12608 0
M  V30 12173 C 1104.8 0.995621 -4.16259 0
M  V30 12174 C 1104.12 2.20357 -4.87183 0
M  V30 12175 C 1105.42 0.0458178 -5.2228 0
M  V30 12176 H 1107.12 -0.251879 -2.98339 0
M  V30 12177 H 1104.66 -0.122579 -1.43477 0
M  V30 12178 H 1106.62 2.08936 -3.65956 0
M  V30 12179 H 1105.34 2.19201 -2.42113 0
M  V30 12180 H 1104 0.441676 -3.6393 0
M  V30 12181 H 1103.65 2.8682 -4.13211 0
M  V30 12182 H 1103.35 1.86385 -5.57256 0
M  V30 12183 H 1104.87 2.78584 -5.43345 0
M  V30 12184 H 1106.29 0.531102 -5.70835 0
M  V30 12185 H 1104.68 -0.20536 -5.99749 0
M  V30 12186 H 1105.75 -0.897807 -4.76516 0
M  V30 12187 N 1107.1 1.56929 -0.145233 0
M  V30 12188 C 1108.51 1.58196 0.211194 0
M  V30 12189 C 1108.71 1.15941 1.64803 0
M  V30 12190 O 1107.77 0.858888 2.37443 0
M  V30 12191 C 1109.08 3.00665 -0.0459569 0
M  V30 12192 C 1110.63 3.12995 0.0178913 0
M  V30 12193 C 1111.1 4.5751 -0.211905 0
M  V30 12194 N 1112.6 4.62928 -0.158772 0
M  V30 12195 C 1113.33 5.72555 -0.311111 0
M  V30 12196 N 1112.83 6.90838 -0.521074 0
M  V30 12197 N 1114.62 5.61549 -0.248838 0
M  V30 12198 H 1106.77 1.8269 -1.08342 0
M  V30 12199 H 1109.03 0.845514 -0.428731 0
M  V30 12200 H 1108.74 3.35962 -1.0403 0
M  V30 12201 H 1108.61 3.71125 0.674246 0
M  V30 12202 H 1111 2.7754 1.00278 0
M  V30 12203 H 1111.08 2.45025 -0.734612 0
M  V30 12204 H 1110.73 4.93669 -1.19389 0
M  V30 12205 H 1110.66 5.23604 0.560901 0
M  V30 12206 H 1113.15 3.779 -0.00107283 0
M  V30 12207 H 1113.46 7.70248 -0.62747 0
M  V30 12208 H 1111.8 6.92761 -0.557374 0
M  V30 12209 H 1115 4.68022 -0.0855821 0
M  V30 12210 H 1115.17 6.46937 -0.370997 0
M  V30 12211 N 1108.58 -0.128553 1.57075 0
M  V30 12212 C 1109.81 -0.851214 1.8825 0
M  V30 12213 C 1110.21 -1.74402 0.733531 0
M  V30 12214 O 1109.56 -1.81149 -0.305108 0
M  V30 12215 C 1109.62 -1.74451 3.14336 0
M  V30 12216 C 1109.28 -1.02699 4.45311 0
M  V30 12217 C 1110.28 -0.37224 5.18566 0
M  V30 12218 C 1107.96 -1.01101 4.9202 0
M  V30 12219 C 1109.96 0.2889 6.36745 0
M  V30 12220 C 1107.65 -0.346063 6.10119 0
M  V30 12221 C 1108.64 0.302744 6.82329 0
M  V30 12222 O 1108.33 0.9571 7.98182 0
M  V30 12223 H 1108.06 -0.250529 0.627863 0
M  V30 12224 H 1110.62 -0.120418 2.05047 0
M  V30 12225 H 1108.85 -2.51671 2.93596 0
M  V30 12226 H 1110.54 -2.34075 3.31608 0
M  V30 12227 H 1111.3 -0.376271 4.83538 0
M  V30 12228 H 1107.18 -1.50543 4.35727 0
M  V30 12229 H 1110.73 0.795901 6.93045 0
M  V30 12230 H 1106.62 -0.339762 6.44605 0
M  V30 12231 H 1107.39 0.860616 8.13963 0
M  V30 12232 N 1110.05 -1.5248 -0.398459 0
M  V30 12233 C 1110.98 -1.79549 -1.49279 0
M  V30 12234 C 1111.96 -0.647004 -1.57315 0
M  V30 12235 O 1113.15 -0.893661 -1.72416 0
M  V30 12236 C 1110.28 -1.95582 -2.86993 0
M  V30 12237 C 1109.23 -3.1123 -2.93803 0
M  V30 12238 C 1108.56 -3.12501 -4.33874 0
M  V30 12239 C 1109.86 -4.50485 -2.64312 0
M  V30 12240 H 1111.55 -2.71187 -1.26877 0
M  V30 12241 H 1109.1 -1.30492 -0.608924 0
M  V30 12242 H 1111.05 -2.13102 -3.63546 0
M  V30 12243 H 1109.78 -1.00625 -3.10712 0
M  V30 12244 H 1108.44 -2.93477 -2.19697 0
M  V30 12245 H 1108.08 -2.15245 -4.54619 0
M  V30 12246 H 1107.78 -3.90183 -4.39353 0
M  V30 12247 H 1109.31 -3.32164 -5.12347 0
M  V30 12248 H 1110.72 -4.68387 -3.30585 0
M  V30 12249 H 1109.12 -5.30163 -2.81153 0
M  V30 12250 H 1110.19 -4.57848 -1.59696 0
M  V30 12251 N 1111.53 0.65634 -1.43283 0
M  V30 12252 C 1112.81 1.41339 -1.35213 0
M  V30 12253 C 1113.19 2.111 0.00158494 0
M  V30 12254 O 1112.54 2.0457 1.018 0
M  V30 12255 C 1112.75 2.40066 -2.53317 0
M  V30 12256 C 1114.09 3.04159 -2.96264 0
M  V30 12257 O 1115.12 2.50393 -2.53341 0
M  V30 12258 O 1113.98 4.01633 -3.70612 0
M  V30 12259 H 1111.07 0.631325 -0.534189 0
M  V30 12260 H 1113.62 0.68351 -1.55326 0
M  V30 12261 H 1112.39 1.87444 -3.43483 0
M  V30 12262 H 1112.01 3.20509 -2.35287 0
M  V30 12263 N 1113.01 1.29761 0.894412 0
M  V30 12264 C 1113.94 1.17902 2.01547 0
M  V30 12265 C 1114.92 0.0719402 1.69948 0
M  V30 12266 O 1116.11 0.252338 1.92554 0
M  V30 12267 C 1113.24 0.860262 3.36477 0
M  V30 12268 C 1112.19 1.92424 3.82305 0
M  V30 12269 C 1111.52 1.45868 5.14419 0
M  V30 12270 C 1112.82 3.33391 4.02054 0
M  V30 12271 H 1114.51 2.11688 2.11727 0
M  V30 12272 H 1112.06 1.01916 1.01731 0
M  V30 12273 H 1114.01 0.763987 4.14417 0
M  V30 12274 H 1112.73 -0.113289 3.26403 0
M  V30 12275 H 1111.39 2.00999 3.06586 0
M  V30 12276 H 1111.04 0.473654 5.00765 0
M  V30 12277 H 1110.74 2.17028 5.46052 0
M  V30 12278 H 1112.26 1.37601 5.94894 0
M  V30 12279 H 1113.68 3.27628 4.7046 0
M  V30 12280 H 1112.07 4.02555 4.4505 0
M  V30 12281 H 1113.14 3.75978 3.06216 0
M  V30 12282 N 1114.49 -1.10549 1.12324 0
M  V30 12283 C 1115.71 -1.8681 0.900927 0
M  V30 12284 C 1116.14 -1.80049 -0.54443 0
M  V30 12285 O 1115.5 -1.16957 -1.38531 0
M  V30 12286 C 1115.54 -3.33197 1.37883 0
M  V30 12287 O 1114.65 -4.08628 0.556529 0
M  V30 12288 H 1113.99 -0.579709 0.32378 0
M  V30 12289 H 1116.52 -1.39678 1.49503 0
M  V30 12290 H 1116.53 -3.84047 1.37739 0
M  V30 12291 H 1115.2 -3.37435 2.43127 0
M  V30 12292 H 1113.78 -3.67627 0.62486 0
M  V30 12293 N 1115.97 -0.914965 -1.28321 0
M  V30 12294 C 1117.19 -0.564023 -1.99583 0
M  V30 12295 C 1117.62 0.847821 -1.6791 0
M  V30 12296 O 1116.97 1.56682 -0.912171 0
M  V30 12297 C 1117.02 -0.781368 -3.52033 0
M  V30 12298 O 1116.13 0.159072 -4.12093 0
M  V30 12299 H 1115.47 -0.218565 -0.626997 0
M  V30 12300 H 1118 -1.23074 -1.63444 0
M  V30 12301 H 1118.01 -0.691946 -4.0209 0
M  V30 12302 H 1116.68 -1.81059 -3.7442 0
M  V30 12303 H 1115.26 0.0208145 -3.72894 0
M  V30 12304 N 1117.44 1.42219 -0.679077 0
M  V30 12305 C 1118.39 2.32599 0.00820028 0
M  V30 12306 C 1119.39 1.50059 0.786046 0
M  V30 12307 O 1120.59 1.66103 0.693528 0
M  V30 12308 H 1116.97 0.751694 0.0214483 0
M  V30 12309 H 1118.94 2.88257 -0.77138 0
M  V30 12310 C 1117.69 3.3468 0.942581 0
M  V30 12311 H 1117.01 3.98234 0.353463 0
M  V30 12312 H 1118.45 4.00496 1.39208 0
M  V30 12313 C 1116.91 2.67275 2.05099 0
M  V30 12314 O 1117.44 2.50793 3.13793 0
M  V30 12315 N 1115.64 2.26232 1.82394 0
M  V30 12316 H 1115.19 2.39838 0.939983 0
M  V30 12317 H 1115.15 1.81465 2.56744 0
M  V30 12318 N 1118.92 0.422693 1.51826 0
M  V30 12319 C 1119.87 -0.396088 2.27376 0
M  V30 12320 C 1120.84 -1.02946 1.30351 0
M  V30 12321 O 1122.02 -1.05116 1.59233 0
M  V30 12322 C 1119.16 -1.49942 3.10824 0
M  V30 12323 C 1118.28 -0.885623 4.22825 0
M  V30 12324 C 1117.41 -1.96278 4.93608 0
M  V30 12325 C 1116.45 -1.32664 5.97551 0
M  V30 12326 N 1115.59 -2.34452 6.61798 0
M  V30 12327 H 1120.43 0.254571 2.96911 0
M  V30 12328 H 1117.96 0.137383 1.46457 0
M  V30 12329 H 1119.92 -2.15023 3.57521 0
M  V30 12330 H 1118.55 -2.11991 2.43433 0
M  V30 12331 H 1117.6 -0.123491 3.80199 0
M  V30 12332 H 1118.92 -0.381057 4.97342 0
M  V30 12333 H 1118.07 -2.69055 5.43778 0
M  V30 12334 H 1116.81 -2.50103 4.18688 0
M  V30 12335 H 1115.81 -0.584262 5.46687 0
M  V30 12336 H 1117.04 -0.7959 6.7442 0
M  V30 12337 H 1114.99 -2.87385 5.897 0
M  V30 12338 H 1114.9 -1.88845 7.32034 0
M  V30 12339 H 1116.17 -3.06757 7.16603 0
M  V30 12340 N 1120.4 -1.5685 0.153553 0
M  V30 12341 C 1121.65 -1.95509 -0.495911 0
M  V30 12342 C 1121.96 -1.04129 -1.65579 0
M  V30 12343 O 1123.17 -1.32394 -2.37032 0
M  V30 12344 C 1121.62 -3.47579 -0.933622 0
M  V30 12345 C 1121.23 -4.47555 0.199684 0
M  V30 12346 C 1122.98 -3.95092 -1.55251 0
M  V30 12347 C 1120.88 -5.90843 -0.256663 0
M  V30 12348 H 1119.81 -0.729919 -0.189035 0
M  V30 12349 H 1122.46 -1.81938 0.238947 0
M  V30 12350 H 1120.85 -3.56506 -1.72394 0
M  V30 12351 H 1122.02 -4.50329 0.976744 0
M  V30 12352 H 1120.33 -4.09997 0.727394 0
M  V30 12353 H 1122.93 -4.99588 -1.90567 0
M  V30 12354 H 1123.27 -3.37015 -2.4439 0
M  V30 12355 H 1123.81 -3.89109 -0.826969 0
M  V30 12356 H 1120.55 -6.52753 0.599515 0
M  V30 12357 H 1120.07 -5.91414 -0.999458 0
M  V30 12358 H 1121.75 -6.43131 -0.70649 0
M  V30 12359 N 1121.88 0.120221 -1.57141 0
M  V30 12360 C 1122.81 1.1732 -1.96898 0
M  V30 12361 C 1123.82 1.37722 -0.868134 0
M  V30 12362 O 1125.01 1.36818 -1.14643 0
M  V30 12363 C 1122.11 2.53343 -2.25102 0
M  V30 12364 C 1121.28 2.53559 -3.56408 0
M  V30 12365 C 1120.34 3.71319 -3.72838 0
M  V30 12366 O 1119.37 3.54961 -4.44962 0
M  V30 12367 N 1120.57 4.89836 -3.11514 0
M  V30 12368 H 1123.34 0.835023 -2.87832 0
M  V30 12369 H 1120.9 0.309508 -1.58914 0
M  V30 12370 H 1122.89 3.30679 -2.3331 0
M  V30 12371 H 1121.46 2.79347 -1.403 0
M  V30 12372 H 1120.68 1.61946 -3.59398 0
M  V30 12373 H 1121.97 2.5076 -4.42716 0
M  V30 12374 H 1121.37 5.0603 -2.52884 0
M  V30 12375 H 1119.92 5.64853 -3.25246 0
M  V30 12376 N 1123.36 1.52689 0.390367 0
M  V30 12377 C 1124.29 1.72118 1.49836 0
M  V30 12378 C 1125.27 0.568986 1.5232 0
M  V30 12379 O 1126.45 0.798623 1.70746 0
M  V30 12380 C 1123.58 1.77754 2.88307 0
M  V30 12381 C 1122.62 2.99492 3.03655 0
M  V30 12382 S 1123.46 4.59496 2.74998 0
M  V30 12383 C 1124.61 4.67946 4.15665 0
M  V30 12384 H 1124.85 2.65826 1.3313 0
M  V30 12385 H 1122.38 1.42964 0.583153 0
M  V30 12386 H 1124.34 1.81687 3.68103 0
M  V30 12387 H 1123 0.851406 3.02341 0
M  V30 12388 H 1122.19 2.99973 4.05009 0
M  V30 12389 H 1121.79 2.93544 2.3175 0
M  V30 12390 H 1124.09 4.46476 5.09573 0
M  V30 12391 H 1125.03 5.69945 4.202 0
M  V30 12392 H 1125.44 3.96799 4.01511 0
M  V30 12393 N 1124.83 -0.648732 1.43629 0
M  V30 12394 C 1126.08 -1.40446 1.44768 0
M  V30 12395 C 1126.4 -1.95447 0.0773445 0
M  V30 12396 O 1127.6 -2.71479 -0.0337942 0
M  V30 12397 C 1126.06 -2.54194 2.54781 0
M  V30 12398 C 1125.67 -2.05781 3.97942 0
M  V30 12399 C 1127.41 -3.31529 2.65121 0
M  V30 12400 C 1125.32 -3.16767 4.99412 0
M  V30 12401 H 1124.25 -0.527717 0.538545 0
M  V30 12402 H 1126.9 -0.699756 1.69634 0
M  V30 12403 H 1125.28 -3.27156 2.23125 0
M  V30 12404 H 1126.45 -1.398 4.39081 0
M  V30 12405 H 1124.77 -1.41312 3.91688 0
M  V30 12406 H 1127.37 -4.14233 3.38105 0
M  V30 12407 H 1127.71 -3.79855 1.70341 0
M  V30 12408 H 1128.24 -2.65649 2.961 0
M  V30 12409 H 1124.98 -2.73404 5.9576 0
M  V30 12410 H 1124.5 -3.81445 4.62882 0
M  V30 12411 H 1126.18 -3.81827 5.22319 0
M  V30 12412 N 1126.31 -1.30234 -0.887518 0
M  V30 12413 C 1127.24 -1.12212 -1.99853 0
M  V30 12414 C 1128.26 -0.0660929 -1.62666 0
M  V30 12415 O 1129.45 -0.311853 -1.75755 0
M  V30 12416 C 1126.55 -0.688591 -3.31831 0
M  V30 12417 C 1125.72 -1.82581 -3.97471 0
M  V30 12418 C 1124.78 -1.38126 -5.07748 0
M  V30 12419 O 1123.8 -2.08805 -5.29518 0
M  V30 12420 N 1125.01 -0.258868 -5.79923 0
M  V30 12421 H 1127.77 -2.07901 -2.15864 0
M  V30 12422 H 1125.33 -1.22336 -1.06045 0
M  V30 12423 H 1127.32 -0.374252 -4.02966 0
M  V30 12424 H 1125.89 0.176185 -3.12103 0
M  V30 12425 H 1125.11 -2.3084 -3.19541 0
M  V30 12426 H 1126.4 -2.58798 -4.38065 0
M  V30 12427 H 1125.8 0.330131 -5.64736 0
M  V30 12428 H 1124.36 -0.00396813 -6.518 0
M  V30 12429 N 1127.79 1.09952 -1.12909 0
M  V30 12430 C 1128.74 2.16436 -0.801514 0
M  V30 12431 C 1129.71 1.64444 0.233976 0
M  V30 12432 O 1130.89 1.90497 0.10743 0
M  V30 12433 C 1128.03 3.4406 -0.267753 0
M  V30 12434 C 1127.15 4.09979 -1.36165 0
M  V30 12435 C 1126.28 5.25341 -0.786803 0
M  V30 12436 C 1125.32 5.83172 -1.85948 0
M  V30 12437 N 1124.46 6.89904 -1.30298 0
M  V30 12438 H 1129.3 2.43799 -1.71365 0
M  V30 12439 H 1126.83 1.19665 -0.855499 0
M  V30 12440 H 1128.79 4.17157 0.0598031 0
M  V30 12441 H 1127.42 3.17031 0.607528 0
M  V30 12442 H 1126.47 3.34801 -1.8059 0
M  V30 12443 H 1127.79 4.48999 -2.17259 0
M  V30 12444 H 1126.94 6.05312 -0.410211 0
M  V30 12445 H 1125.68 4.87669 0.055279 0
M  V30 12446 H 1124.68 5.01867 -2.24521 0
M  V30 12447 H 1125.91 6.22907 -2.70487 0
M  V30 12448 H 1123.85 6.54221 -0.482806 0
M  V30 12449 H 1123.77 7.27662 -2.05046 0
M  V30 12450 H 1125.04 7.73643 -0.953779 0
M  V30 12451 N 1129.27 0.921757 1.27833 0
M  V30 12452 C 1130.5 0.575202 1.98744 0
M  V30 12453 C 1130.91 -0.845405 1.68815 0
M  V30 12454 O 1130.27 -1.56106 0.94536 0
M  V30 12455 C 1130.32 0.784389 3.52888 0
M  V30 12456 O 1130.04 2.1491 3.81766 0
M  V30 12457 C 1131.54 0.445744 4.41053 0
M  V30 12458 H 1128.76 0.218525 0.634419 0
M  V30 12459 H 1131.31 1.23715 1.62834 0
M  V30 12460 H 1129.46 0.169323 3.8703 0
M  V30 12461 H 1129.87 2.19469 4.76375 0
M  V30 12462 H 1131.35 0.64284 5.48244 0
M  V30 12463 H 1131.83 -0.618433 4.34824 0
M  V30 12464 H 1132.43 1.03869 4.12421 0
M  V30 12465 N 1130.75 -1.41857 0.686609 0
M  V30 12466 C 1131.97 -2.06219 0.221037 0
M  V30 12467 C 1132.4 -1.51298 -1.11762 0
M  V30 12468 O 1131.75 -0.636253 -1.69769 0
M  V30 12469 C 1131.8 -3.60153 0.179425 0
M  V30 12470 O 1130.91 -4.03577 -0.848481 0
M  V30 12471 H 1130.25 -0.654787 0.110228 0
M  V30 12472 H 1132.78 -1.81783 0.938948 0
M  V30 12473 H 1132.79 -4.07999 0.00725332 0
M  V30 12474 H 1131.46 -3.99498 1.15647 0
M  V30 12475 H 1130.04 -3.67255 -0.646393 0
M  V30 12476 N 1132.22 -0.430739 -1.51599 0
M  V30 12477 C 1133.47 0.137929 -2.0203 0
M  V30 12478 C 1133.8 1.43287 -1.31526 0
M  V30 12479 O 1133.05 1.9121 -0.416814 0
M  V30 12480 C 1133.35 0.410694 -3.55032 0
M  V30 12481 C 1133.02 -0.797634 -4.43789 0
M  V30 12482 C 1131.68 -1.12902 -4.67768 0
M  V30 12483 C 1134.03 -1.60403 -4.95904 0
M  V30 12484 C 1131.36 -2.2676 -5.41107 0
M  V30 12485 C 1133.71 -2.73354 -5.70491 0
M  V30 12486 C 1132.38 -3.06955 -5.92735 0
M  V30 12487 H 1131.65 0.0504718 -0.739279 0
M  V30 12488 H 1134.29 -0.576585 -1.82614 0
M  V30 12489 H 1132.6 1.20703 -3.72744 0
M  V30 12490 H 1134.3 0.864006 -3.91581 0
M  V30 12491 H 1130.89 -0.529397 -4.25318 0
M  V30 12492 H 1135.07 -1.36122 -4.77268 0
M  V30 12493 H 1130.33 -2.53114 -5.56546 0
M  V30 12494 H 1134.5 -3.36213 -6.09864 0
M  V30 12495 H 1132.13 -3.95293 -6.49344 0
M  V30 12496 N 1133.7 1.56767 -0.161869 0
M  V30 12497 C 1135.11 1.83265 0.356466 0
M  V30 12498 C 1135.46 1.08127 1.63716 0
M  V30 12499 O 1134.59 0.33127 2.13849 0
M  V30 12500 C 1135.18 3.32437 0.653521 0
M  V30 12501 C 1133.74 3.59465 1.11633 0
M  V30 12502 C 1132.89 2.76909 0.147204 0
M  V30 12503 H 1135.84 1.53926 -0.386308 0
M  V30 12504 H 1135.86 3.49401 1.50662 0
M  V30 12505 H 1135.37 3.87098 -0.278766 0
M  V30 12506 H 1133.48 3.10206 2.06404 0
M  V30 12507 H 1133.59 4.67853 1.03202 0
M  V30 12508 H 1131.95 2.46457 0.642739 0
M  V30 12509 H 1132.74 3.34346 -0.778938 0
M  V30 12510 N 1135.18 -0.111886 1.57202 0
M  V30 12511 C 1136.09 -1.1556 2.04165 0
M  V30 12512 C 1137.11 -1.44898 0.963354 0
M  V30 12513 O 1138.28 -1.55873 1.27536 0
M  V30 12514 C 1135.35 -2.46048 2.44256 0
M  V30 12515 C 1134.41 -2.24043 3.66201 0
M  V30 12516 C 1133.64 -3.4831 4.04371 0
M  V30 12517 O 1133.86 -4.55895 3.42806 0
M  V30 12518 O 1132.8 -3.38891 4.9743 0
M  V30 12519 H 1136.62 -0.786778 2.93332 0
M  V30 12520 H 1134.21 -0.323196 1.45862 0
M  V30 12521 H 1136.09 -3.22916 2.70745 0
M  V30 12522 H 1134.77 -2.8239 1.58233 0
M  V30 12523 H 1133.67 -1.4501 3.44852 0
M  V30 12524 H 1135.01 -1.92602 4.52952 0
M  V30 12525 N 1136.66 -1.52894 -0.382264 0
M  V30 12526 C 1137.61 -1.78799 -1.48774 0
M  V30 12527 C 1138.6 -0.65624 -1.56173 0
M  V30 12528 O 1139.81 -0.838856 -1.59258 0
M  V30 12529 H 1136.18 -0.565855 -0.49529 0
M  V30 12530 H 1138.15 -2.7136 -1.24122 0
M  V30 12531 C 1136.9 -1.97987 -2.85826 0
M  V30 12532 H 1136.22 -2.84505 -2.80886 0
M  V30 12533 H 1137.66 -2.20099 -3.62398 0
M  V30 12534 C 1136.12 -0.75427 -3.28348 0
M  V30 12535 O 1136.65 0.0650749 -4.01647 0
M  V30 12536 N 1134.86 -0.582457 -2.84703 0
M  V30 12537 H 1134.41 -1.25034 -2.2522 0
M  V30 12538 H 1134.36 0.236208 -3.13511 0
M  V30 12539 N 1138.14 0.641106 -1.43971 0
M  V30 12540 C 1139.38 1.40291 -1.46445 0
M  V30 12541 C 1139.72 1.93978 -0.0929004 0
M  V30 12542 O 1138.99 1.73043 0.888043 0
M  V30 12543 C 1139.27 2.57551 -2.51673 0
M  V30 12544 C 1139.13 2.09279 -3.98149 0
M  V30 12545 C 1140.45 3.59752 -2.53508 0
M  V30 12546 H 1137.57 0.508771 -0.533218 0
M  V30 12547 H 1140.21 0.725767 -1.75592 0
M  V30 12548 H 1138.36 3.15319 -2.2695 0
M  V30 12549 H 1140.03 1.56418 -4.33971 0
M  V30 12550 H 1138.27 1.40545 -4.10402 0
M  V30 12551 H 1138.94 2.93655 -4.67409 0
M  V30 12552 H 1141.42 3.11766 -2.75574 0
M  V30 12553 H 1140.3 4.39332 -3.29057 0
M  V30 12554 H 1140.56 4.13156 -1.57335 0
M  V30 12555 N 1139.62 1.30703 0.880598 0
M  V30 12556 C 1140.55 1.20033 2.00286 0
M  V30 12557 C 1141.53 0.0899614 1.69862 0
M  V30 12558 O 1142.71 0.272747 1.92275 0
M  V30 12559 C 1139.84 0.895902 3.35546 0
M  V30 12560 C 1138.8 1.96468 3.80242 0
M  V30 12561 C 1138.12 1.51316 5.12843 0
M  V30 12562 C 1139.42 3.37637 3.98496 0
M  V30 12563 H 1141.12 2.13922 2.0947 0
M  V30 12564 H 1138.66 1.02989 1.00644 0
M  V30 12565 H 1140.61 0.807899 4.13583 0
M  V30 12566 H 1139.34 -0.0786636 3.26505 0
M  V30 12567 H 1138 2.0424 3.04437 0
M  V30 12568 H 1137.65 0.52674 5.00234 0
M  V30 12569 H 1137.35 2.22807 5.43719 0
M  V30 12570 H 1138.87 1.43903 5.93401 0
M  V30 12571 H 1140.28 3.326 4.66959 0
M  V30 12572 H 1138.68 4.07253 4.40755 0
M  V30 12573 H 1139.75 3.79205 3.02211 0
M  V30 12574 N 1141.09 -1.09351 1.1349 0
M  V30 12575 C 1142.04 -2.18099 0.808426 0
M  V30 12576 C 1143.04 -1.68099 -0.209571 0
M  V30 12577 O 1144.24 -1.79877 -0.0666417 0
M  V30 12578 H 1140.62 -0.711432 0.243658 0
M  V30 12579 H 1142.59 -2.42867 1.73373 0
M  V30 12580 C 1141.34 -3.46475 0.291615 0
M  V30 12581 H 1140.66 -3.85319 1.06627 0
M  V30 12582 H 1142.1 -4.23878 0.101616 0
M  V30 12583 C 1140.56 -3.22245 -0.982827 0
M  V30 12584 O 1141.09 -3.44947 -2.0585 0
M  V30 12585 N 1139.29 -2.75845 -0.914218 0
M  V30 12586 H 1138.84 -2.57571 -0.03872 0
M  V30 12587 H 1138.8 -2.60011 -1.76753 0
M  V30 12588 N 1142.57 -0.928524 -1.27343 0
M  V30 12589 C 1143.52 -0.418768 -2.28799 0
M  V30 12590 C 1144.51 0.497334 -1.61935 0
M  V30 12591 O 1145.72 0.376945 -1.76009 0
M  V30 12592 H 1142.09 -0.116855 -0.742865 0
M  V30 12593 H 1144.07 -1.28725 -2.69207 0
M  V30 12594 C 1142.81 0.312422 -3.46294 0
M  V30 12595 H 1142.14 -0.383317 -3.97958 0
M  V30 12596 H 1143.58 0.633514 -4.19241 0
M  V30 12597 C 1142.04 1.5257 -3.00373 0
M  V30 12598 O 1142.57 2.62443 -3.04116 0
M  V30 12599 N 1140.77 1.37782 -2.5586 0
M  V30 12600 H 1140.32 0.483908 -2.53014 0
M  V30 12601 H 1140.28 2.19085 -2.25498 0
M  V30 12602 N 1144.05 1.41491 -0.694123 0
M  V30 12603 C 1144.98 2.33462 -0.0422169 0
M  V30 12604 C 1145.96 1.51739 0.76872 0
M  V30 12605 O 1147.15 1.8028 0.721985 0
M  V30 12606 C 1144.28 3.35545 0.895925 0
M  V30 12607 C 1143.23 4.27568 0.192188 0
M  V30 12608 C 1142.56 5.20014 1.24459 0
M  V30 12609 C 1143.86 5.1376 -0.940626 0
M  V30 12610 H 1145.55 2.88225 -0.810363 0
M  V30 12611 H 1143.1 1.38586 -0.39114 0
M  V30 12612 H 1145.05 3.9881 1.36121 0
M  V30 12613 H 1143.77 2.79129 1.69572 0
M  V30 12614 H 1142.43 3.65726 -0.25305 0
M  V30 12615 H 1142.08 4.59913 2.03687 0
M  V30 12616 H 1141.78 5.82417 0.778734 0
M  V30 12617 H 1143.3 5.86155 1.71041 0
M  V30 12618 H 1144.72 5.70601 -0.555692 0
M  V30 12619 H 1143.11 5.85097 -1.33349 0
M  V30 12620 H 1144.18 4.51011 -1.78093 0
M  V30 12621 N 1145.53 0.438773 1.51369 0
M  V30 12622 C 1146.47 -0.37195 2.27783 0
M  V30 12623 C 1147.44 -1.01558 1.31435 0
M  V30 12624 O 1148.63 -1.03421 1.60339 0
M  V30 12625 C 1145.77 -1.46636 3.12397 0
M  V30 12626 C 1144.88 -0.840727 4.2374 0
M  V30 12627 C 1144.02 -1.91031 4.95662 0
M  V30 12628 C 1143.06 -1.26318 5.98924 0
M  V30 12629 N 1142.19 -2.27419 6.64248 0
M  V30 12630 H 1147.03 0.286048 2.96624 0
M  V30 12631 H 1144.57 0.152909 1.46303 0
M  V30 12632 H 1146.53 -2.11219 3.59781 0
M  V30 12633 H 1145.16 -2.09397 2.45668 0
M  V30 12634 H 1144.21 -0.0831588 3.80309 0
M  V30 12635 H 1145.52 -0.328285 4.97719 0
M  V30 12636 H 1144.68 -2.63272 5.46601 0
M  V30 12637 H 1143.42 -2.45649 4.21317 0
M  V30 12638 H 1142.42 -0.526246 5.47276 0
M  V30 12639 H 1143.65 -0.724324 6.75226 0
M  V30 12640 H 1141.59 -2.81114 5.92715 0
M  V30 12641 H 1141.51 -1.81071 7.33996 0
M  V30 12642 H 1142.78 -2.99139 7.19817 0
M  V30 12643 N 1147.01 -1.56678 0.170181 0
M  V30 12644 C 1147.94 -2.13747 -0.799203 0
M  V30 12645 C 1148.92 -1.06725 -1.22673 0
M  V30 12646 O 1150.1 -1.34694 -1.3187 0
M  V30 12647 C 1147.23 -2.67611 -2.07611 0
M  V30 12648 C 1146.27 -3.86994 -1.7927 0
M  V30 12649 S 1147.11 -5.26771 -0.962951 0
M  V30 12650 C 1148.26 -5.84039 -2.25054 0
M  V30 12651 H 1148.5 -2.95637 -0.313976 0
M  V30 12652 H 1146.03 -1.54336 -0.0444708 0
M  V30 12653 H 1147.99 -2.99291 -2.80954 0
M  V30 12654 H 1146.65 -1.85808 -2.53247 0
M  V30 12655 H 1145.84 -4.23006 -2.74011 0
M  V30 12656 H 1145.44 -3.56195 -1.14023 0
M  V30 12657 H 1147.73 -5.96883 -3.20525 0
M  V30 12658 H 1148.68 -6.81145 -1.93513 0
M  V30 12659 H 1149.09 -5.12449 -2.36763 0
M  V30 12660 N 1148.48 0.103547 -1.57259 0
M  V30 12661 C 1149.41 1.12714 -2.04494 0
M  V30 12662 C 1150.39 1.42278 -0.932255 0
M  V30 12663 O 1151.58 1.52453 -1.20298 0
M  V30 12664 C 1148.71 2.44927 -2.46228 0
M  V30 12665 C 1147.66 2.2979 -3.61082 0
M  V30 12666 C 1146.99 3.67105 -3.88765 0
M  V30 12667 C 1148.29 1.7455 -4.9227 0
M  V30 12668 H 1149.98 0.734198 -2.90258 0
M  V30 12669 H 1147.53 0.351725 -1.39638 0
M  V30 12670 H 1149.48 3.16798 -2.77879 0
M  V30 12671 H 1148.21 2.8614 -1.57453 0
M  V30 12672 H 1146.87 1.60366 -3.29664 0
M  V30 12673 H 1146.51 4.05831 -2.97171 0
M  V30 12674 H 1146.21 3.57825 -4.66084 0
M  V30 12675 H 1147.74 4.40456 -4.22884 0
M  V30 12676 H 1149.15 2.36253 -5.22358 0
M  V30 12677 H 1147.55 1.76051 -5.73695 0
M  V30 12678 H 1148.62 0.704242 -4.79759 0
M  V30 12679 N 1149.96 1.53094 0.37415 0
M  V30 12680 C 1150.89 1.81901 1.46404 0
M  V30 12681 C 1151.87 0.671949 1.56265 0
M  V30 12682 O 1153.06 0.920978 1.70973 0
M  V30 12683 C 1150.19 2.00123 2.83845 0
M  V30 12684 C 1149.14 3.15864 2.88814 0
M  V30 12685 C 1148.47 3.19364 4.28848 0
M  V30 12686 C 1149.77 4.54633 2.57112 0
M  V30 12687 H 1151.46 2.73172 1.22546 0
M  V30 12688 H 1149.01 1.31444 0.588087 0
M  V30 12689 H 1150.96 2.18859 3.6011 0
M  V30 12690 H 1149.68 1.05555 3.09072 0
M  V30 12691 H 1148.34 2.96935 2.15 0
M  V30 12692 H 1147.99 2.2245 4.51137 0
M  V30 12693 H 1147.69 3.97123 4.3309 0
M  V30 12694 H 1149.22 3.40273 5.06997 0
M  V30 12695 H 1150.63 4.73587 3.23091 0
M  V30 12696 H 1149.03 5.34569 2.72683 0
M  V30 12697 H 1150.1 4.60331 1.52392 0
M  V30 12698 N 1151.44 -0.633461 1.44309 0
M  V30 12699 C 1152.37 -1.75676 1.53819 0
M  V30 12700 C 1153.35 -1.65537 0.391365 0
M  V30 12701 O 1154.54 -1.84332 0.611181 0
M  V30 12702 C 1151.67 -3.14197 1.47979 0
M  V30 12703 C 1150.62 -3.39122 2.61113 0
M  V30 12704 C 1149.95 -4.77648 2.40325 0
M  V30 12705 C 1151.25 -3.31914 4.03274 0
M  V30 12706 H 1152.94 -1.67974 2.47841 0
M  V30 12707 H 1150.49 -0.8067 1.19283 0
M  V30 12708 H 1152.44 -3.92553 1.53233 0
M  V30 12709 H 1151.16 -3.22677 0.504718 0
M  V30 12710 H 1149.82 -2.63145 2.55245 0
M  V30 12711 H 1149.47 -4.82829 1.41016 0
M  V30 12712 H 1149.17 -4.95284 3.16177 0
M  V30 12713 H 1150.69 -5.58237 2.47394 0
M  V30 12714 H 1152.11 -4.00178 4.10524 0
M  V30 12715 H 1150.5 -3.61085 4.7931 0
M  V30 12716 H 1151.57 -2.29761 4.2701 0
M  V30 12717 N 1152.92 -1.31168 -0.873655 0
M  V30 12718 C 1153.87 -1.15107 -1.9681 0
M  V30 12719 C 1154.85 -0.0630813 -1.60776 0
M  V30 12720 O 1156.04 -0.28761 -1.74648 0
M  V30 12721 C 1153.17 -0.856705 -3.32439 0
M  V30 12722 C 1152.26 -1.9855 -3.74752 0
M  V30 12723 N 1152.65 -3.23213 -3.89059 0
M  V30 12724 C 1150.95 -1.8844 -4.04235 0
M  V30 12725 C 1151.65 -3.97026 -4.25141 0
M  V30 12726 N 1150.63 -3.25165 -4.35624 0
M  V30 12727 H 1154.43 -2.09643 -2.05978 0
M  V30 12728 H 1151.94 -1.22672 -1.06421 0
M  V30 12729 H 1153.94 -0.722635 -4.10589 0
M  V30 12730 H 1152.6 0.0804676 -3.246 0
M  V30 12731 H 1153.61 -3.58372 -3.73885 0
M  V30 12732 H 1150.29 -1.02164 -4.04807 0
M  V30 12733 H 1151.68 -5.04437 -4.43839 0
M  V30 12734 N 1154.4 1.08748 -1.14068 0
M  V30 12735 C 1155.35 2.13762 -0.793087 0
M  V30 12736 C 1156.33 1.59442 0.216123 0
M  V30 12737 O 1157.52 1.7699 0.0189888 0
M  V30 12738 C 1154.65 3.42249 -0.268432 0
M  V30 12739 C 1153.74 4.03459 -1.30696 0
M  V30 12740 N 1154.13 4.39126 -2.51002 0
M  V30 12741 C 1152.43 4.30748 -1.15637 0
M  V30 12742 C 1153.13 4.87438 -3.17457 0
M  V30 12743 N 1152.1 4.85326 -2.44866 0
M  V30 12744 H 1155.91 2.39152 -1.70831 0
M  V30 12745 H 1153.42 1.26046 -1.02403 0
M  V30 12746 H 1155.42 4.169 -0.00113254 0
M  V30 12747 H 1154.08 3.18309 0.641032 0
M  V30 12748 H 1155.09 4.30266 -2.88256 0
M  V30 12749 H 1151.76 4.1638 -0.305636 0
M  V30 12750 H 1153.15 5.24443 -4.20011 0
M  V30 12751 N 1155.87 0.935264 1.26849 0
M  V30 12752 C 1156.82 0.430895 2.28574 0
M  V30 12753 C 1157.82 -0.488739 1.62196 0
M  V30 12754 O 1159.02 -0.367605 1.76206 0
M  V30 12755 H 1155.4 0.120793 0.742235 0
M  V30 12756 H 1157.37 1.3015 2.68521 0
M  V30 12757 C 1156.12 -0.294053 3.46454 0
M  V30 12758 H 1155.44 0.404416 3.97749 0
M  V30 12759 H 1156.88 -0.611272 4.19571 0
M  V30 12760 C 1155.34 -1.50975 3.01178 0
M  V30 12761 O 1155.87 -2.60826 3.05504 0
M  V30 12762 N 1154.08 -1.36423 2.56587 0
M  V30 12763 H 1153.62 -0.470483 2.53267 0
M  V30 12764 H 1153.58 -2.17886 2.26656 0
M  V30 12765 N 1157.35 -1.41121 0.701616 0
M  V30 12766 C 1158.77 -1.55162 0.373766 0
M  V30 12767 C 1158.97 -1.6759 -1.11875 0
M  V30 12768 O 1158.02 -1.65768 -1.90465 0
M  V30 12769 C 1159.34 -2.78758 1.12759 0
M  V30 12770 C 1160.89 -2.92561 1.11253 0
M  V30 12771 C 1161.36 -4.19052 1.84822 0
M  V30 12772 N 1162.85 -4.26023 1.81821 0
M  V30 12773 C 1163.59 -5.22771 2.3558 0
M  V30 12774 N 1163.08 -6.25512 2.97836 0
M  V30 12775 N 1164.88 -5.14752 2.25802 0
M  V30 12776 H 1157.03 -1.31299 1.66956 0
M  V30 12777 H 1159.29 -0.633894 0.704898 0
M  V30 12778 H 1159 -2.75804 2.18231 0
M  V30 12779 H 1158.87 -3.70456 0.710095 0
M  V30 12780 H 1161.26 -2.95026 0.0660506 0
M  V30 12781 H 1161.34 -2.0202 1.56913 0
M  V30 12782 H 1160.98 -4.17349 2.89452 0
M  V30 12783 H 1160.91 -5.08577 1.36592 0
M  V30 12784 H 1163.4 -3.52411 1.36438 0
M  V30 12785 H 1163.72 -6.95736 3.36409 0
M  V30 12786 H 1162.06 -6.25997 3.01916 0
M  V30 12787 H 1165.25 -4.33414 1.76833 0
M  V30 12788 H 1165.42 -5.89983 2.68001 0
M  V30 12789 N 1158.83 -0.446794 -1.51134 0
M  V30 12790 C 1160.08 0.116493 -2.02165 0
M  V30 12791 C 1160.41 1.41884 -1.33039 0
M  V30 12792 O 1159.66 1.90757 -0.437071 0
M  V30 12793 C 1159.96 0.373015 -3.55448 0
M  V30 12794 C 1159.63 -0.844659 -4.42918 0
M  V30 12795 C 1158.29 -1.17857 -4.66544 0
M  V30 12796 C 1160.64 -1.65653 -4.94174 0
M  V30 12797 C 1157.97 -2.32486 -5.38672 0
M  V30 12798 C 1160.32 -2.7939 -5.6756 0
M  V30 12799 C 1158.98 -3.13224 -5.89446 0
M  V30 12800 H 1158.25 0.0426279 -0.739773 0
M  V30 12801 H 1160.9 -0.595921 -1.81992 0
M  V30 12802 H 1159.21 1.16742 -3.74003 0
M  V30 12803 H 1160.9 0.822425 -3.92476 0
M  V30 12804 H 1157.49 -0.574478 -4.24733 0
M  V30 12805 H 1161.68 -1.41176 -4.75797 0
M  V30 12806 H 1156.93 -2.59003 -5.5383 0
M  V30 12807 H 1161.11 -3.42662 -6.06264 0
M  V30 12808 H 1158.73 -4.02158 -6.45115 0
M  V30 12809 N 1160.31 1.56586 -0.178487 0
M  V30 12810 C 1161.24 2.21313 0.744486 0
M  V30 12811 C 1162.22 1.17098 1.23377 0
M  V30 12812 O 1163.4 1.45551 1.28563 0
M  V30 12813 C 1160.53 2.8595 1.97103 0
M  V30 12814 C 1159.49 3.96266 1.61732 0
M  V30 12815 C 1158.81 4.47987 2.91911 0
M  V30 12816 C 1160.11 5.15503 0.839868 0
M  V30 12817 H 1161.81 2.98698 0.204938 0
M  V30 12818 H 1159.35 1.43672 0.0971306 0
M  V30 12819 H 1161.31 3.29909 2.6218 0
M  V30 12820 H 1160.03 2.05946 2.53484 0
M  V30 12821 H 1158.69 3.52974 0.990208 0
M  V30 12822 H 1158.34 3.64765 3.46346 0
M  V30 12823 H 1158.04 5.22413 2.68995 0
M  V30 12824 H 1159.56 4.94637 3.58004 0
M  V30 12825 H 1160.98 5.5611 1.39337 0
M  V30 12826 H 1159.37 5.95891 0.709473 0
M  V30 12827 H 1160.44 4.84628 -0.162396 0
M  V30 12828 N 1161.79 -0.095206 1.57312 0
M  V30 12829 C 1163.03 -0.804335 1.87909 0
M  V30 12830 C 1163.39 -1.75907 0.769465 0
M  V30 12831 O 1164.59 -2.51155 0.957846 0
M  V30 12832 C 1162.86 -1.51405 3.23746 0
M  V30 12833 S 1164.42 -2.26147 3.76036 0
M  V30 12834 H 1161.24 -0.267976 0.658567 0
M  V30 12835 H 1163.84 -0.0614682 1.95403 0
M  V30 12836 H 1162.55 -0.805066 4.02426 0
M  V30 12837 H 1162.08 -2.29681 3.1939 0
M  V30 12838 H 1164.09 -3.52284 3.49443 0
M  V30 12839 N 1163.26 -1.53291 -0.366026 0
M  V30 12840 C 1164.49 -1.73359 -1.12934 0
M  V30 12841 C 1164.91 -0.462352 -1.83051 0
M  V30 12842 O 1164.26 0.564711 -1.73543 0
M  V30 12843 C 1164.32 -2.89873 -2.15999 0
M  V30 12844 O 1164.04 -4.12079 -1.48737 0
M  V30 12845 C 1165.54 -3.21811 -3.04881 0
M  V30 12846 H 1162.76 -0.579827 -0.337701 0
M  V30 12847 H 1165.3 -2.00033 -0.425081 0
M  V30 12848 H 1163.46 -2.65595 -2.82025 0
M  V30 12849 H 1163.87 -4.77322 -2.17404 0
M  V30 12850 H 1165.34 -4.06744 -3.7318 0
M  V30 12851 H 1165.82 -2.37156 -3.69667 0
M  V30 12852 H 1166.43 -3.48013 -2.44473 0
M  V30 12853 N 1164.74 0.6258 -1.44643 0
M  V30 12854 C 1165.98 1.39676 -1.49232 0
M  V30 12855 C 1166.35 1.91601 -0.123682 0
M  V30 12856 O 1167.55 2.68764 -0.0442486 0
M  V30 12857 C 1165.82 2.52704 -2.52736 0
M  V30 12858 S 1167.38 3.40795 -2.76413 0
M  V30 12859 H 1164.2 0.476436 -0.527759 0
M  V30 12860 H 1166.8 0.72394 -1.81602 0
M  V30 12861 H 1165.5 2.12876 -3.50873 0
M  V30 12862 H 1165.03 3.24806 -2.21956 0
M  V30 12863 H 1167.05 4.5031 -2.08412 0
M  V30 12864 N 1166.22 1.31629 0.866686 0
M  V30 12865 C 1167.5 1.12136 1.60265 0
M  V30 12866 C 1167.88 -0.322729 2.08618 0
M  V30 12867 O 1167.23 -1.31738 1.86701 0
M  V30 12868 C 1167.44 2.13845 2.7581 0
M  V30 12869 C 1168.78 2.46541 3.45692 0
M  V30 12870 O 1169.81 2.12298 2.86021 0
M  V30 12871 O 1168.67 3.05194 4.53342 0
M  V30 12872 H 1165.76 0.431923 0.705246 0
M  V30 12873 H 1168.31 1.43119 0.911863 0
M  V30 12874 H 1167.08 3.10967 2.37518 0
M  V30 12875 H 1166.7 1.83786 3.52574 0
M  V30 12876 N 1167.7 -1.08142 1.14644 0
M  V30 12877 C 1168.66 -2.13308 0.83859 0
M  V30 12878 C 1169.66 -1.60022 -0.158012 0
M  V30 12879 O 1170.85 -1.74057 0.0706621 0
M  V30 12880 C 1167.98 -3.39978 0.250591 0
M  V30 12881 H 1169.18 -2.42049 1.77066 0
M  V30 12882 H 1166.73 -1.23899 0.952828 0
M  V30 12883 H 1167.47 -3.16873 -0.690064 0
M  V30 12884 H 1167.25 -3.79952 0.968456 0
M  V30 12885 H 1168.74 -4.17567 0.0525115 0
M  V30 12886 N 1169.18 -0.941978 -1.26351 0
M  V30 12887 C 1170.42 -0.590845 -1.94002 0
M  V30 12888 C 1170.76 0.868004 -1.73722 0
M  V30 12889 O 1170.03 1.62111 -1.07472 0
M  V30 12890 C 1170.31 -0.934901 -3.47752 0
M  V30 12891 C 1170.17 -2.44855 -3.77314 0
M  V30 12892 C 1171.49 -0.450888 -4.37784 0
M  V30 12893 H 1168.61 -0.21613 -0.704597 0
M  V30 12894 H 1171.25 -1.17634 -1.49205 0
M  V30 12895 H 1169.4 -0.436648 -3.86038 0
M  V30 12896 H 1171.07 -3.01959 -3.48738 0
M  V30 12897 H 1169.31 -2.89169 -3.23363 0
M  V30 12898 H 1169.98 -2.6398 -4.84787 0
M  V30 12899 H 1172.46 -0.878107 -4.06729 0
M  V30 12900 H 1171.34 -0.720439 -5.44152 0
M  V30 12901 H 1171.6 0.649162 -4.37308 0
M  V30 12902 N 1170.66 1.40747 -0.709091 0
M  V30 12903 C 1171.9 2.01796 -0.254976 0
M  V30 12904 C 1172.26 1.55202 1.13711 0
M  V30 12905 O 1171.55 0.759312 1.75912 0
M  V30 12906 C 1171.74 3.56404 -0.266685 0
M  V30 12907 C 1171.57 4.18005 -1.65837 0
M  V30 12908 C 1170.34 4.51719 -2.26447 0
M  V30 12909 C 1172.54 4.43302 -2.60744 0
M  V30 12910 N 1170.52 4.9868 -3.58039 0
M  V30 12911 C 1171.89 4.92185 -3.77033 0
M  V30 12912 C 1173.95 4.25332 -2.58839 0
M  V30 12913 C 1172.65 5.24984 -4.91715 0
M  V30 12914 C 1174.68 4.59228 -3.72644 0
M  V30 12915 C 1174.04 5.08294 -4.87664 0
M  V30 12916 H 1170.14 0.769549 -0.138991 0
M  V30 12917 H 1172.72 1.71081 -0.929488 0
M  V30 12918 H 1170.89 3.86562 0.377365 0
M  V30 12919 H 1172.63 4.04188 0.203528 0
M  V30 12920 H 1169.38 4.38631 -1.78605 0
M  V30 12921 H 1169.8 5.2655 -4.25528 0
M  V30 12922 H 1174.45 3.86623 -1.71121 0
M  V30 12923 H 1172.16 5.6261 -5.80082 0
M  V30 12924 H 1175.75 4.4697 -3.72437 0
M  V30 12925 H 1174.63 5.3403 -5.74267 0
M  V30 12926 N 1172.13 0.454803 1.50895 0
M  V30 12927 C 1173.38 -0.10577 2.02224 0
M  V30 12928 C 1173.71 -1.41176 1.33789 0
M  V30 12929 O 1172.96 -1.90522 0.447181 0
M  V30 12930 C 1173.26 -0.354159 3.55641 0
M  V30 12931 C 1172.93 0.868136 4.42464 0
M  V30 12932 C 1171.59 1.2033 4.65912 0
M  V30 12933 C 1173.94 1.68272 4.93289 0
M  V30 12934 C 1171.27 2.3534 5.37431 0
M  V30 12935 C 1173.62 2.82396 5.6607 0
M  V30 12936 C 1172.29 3.16346 5.87777 0
M  V30 12937 H 1171.56 -0.0387041 0.739989 0
M  V30 12938 H 1174.2 0.605564 1.81673 0
M  V30 12939 H 1172.51 -1.14757 3.74617 0
M  V30 12940 H 1174.21 -0.8016 3.92906 0
M  V30 12941 H 1170.8 0.596995 4.24422 0
M  V30 12942 H 1174.98 1.43698 4.75042 0
M  V30 12943 H 1170.24 2.61936 5.52449 0
M  V30 12944 H 1174.41 3.45873 6.04438 0
M  V30 12945 H 1172.04 4.05574 6.42973 0
M  V30 12946 N 1173.61 -1.56489 0.186789 0
M  V30 12947 C 1174.86 -1.97634 -0.454831 0
M  V30 12948 C 1175.19 -1.07334 -1.61843 0
M  V30 12949 O 1174.47 -0.123612 -1.94107 0
M  V30 12950 C 1174.75 -3.48071 -0.922962 0
M  V30 12951 C 1174.6 -4.49149 0.241877 0
M  V30 12952 C 1175.92 -4.01994 -1.79134 0
M  V30 12953 H 1173.04 -0.718555 -0.163854 0
M  V30 12954 H 1175.68 -1.87984 0.27604 0
M  V30 12955 H 1173.83 -3.56425 -1.54575 0
M  V30 12956 H 1175.5 -4.52841 0.87936 0
M  V30 12957 H 1173.75 -4.24468 0.894964 0
M  V30 12958 H 1174.42 -5.51851 -0.128051 0
M  V30 12959 H 1176.89 -3.96367 -1.26618 0
M  V30 12960 H 1175.77 -5.07641 -2.08787 0
M  V30 12961 H 1176.03 -3.46747 -2.74261 0
M  V30 12962 N 1175.09 0.086862 -1.5736 0
M  V30 12963 C 1176.34 0.784846 -1.87648 0
M  V30 12964 C 1176.69 1.7594 -0.778647 0
M  V30 12965 O 1175.98 1.90349 0.218612 0
M  V30 12966 C 1176.18 1.54537 -3.22263 0
M  V30 12967 C 1176.01 0.645971 -4.45036 0
M  V30 12968 C 1174.78 0.288589 -5.04475 0
M  V30 12969 C 1176.97 -0.0506915 -5.14275 0
M  V30 12970 N 1174.96 -0.618109 -6.1078 0
M  V30 12971 C 1176.33 -0.815144 -6.14618 0
M  V30 12972 C 1178.38 -0.123748 -4.97746 0
M  V30 12973 C 1177.09 -1.64584 -7.00218 0
M  V30 12974 C 1179.11 -0.94137 -5.8386 0
M  V30 12975 C 1178.47 -1.69392 -6.83729 0
M  V30 12976 H 1174.57 0.263103 -0.736411 0
M  V30 12977 H 1177.16 0.0470027 -1.94643 0
M  V30 12978 H 1175.33 2.25403 -3.16304 0
M  V30 12979 H 1177.06 2.19119 -3.40248 0
M  V30 12980 H 1173.81 0.638093 -4.69282 0
M  V30 12981 H 1174.24 -1.06426 -6.68583 0
M  V30 12982 H 1178.88 0.443728 -4.20465 0
M  V30 12983 H 1176.6 -2.22435 -7.76884 0
M  V30 12984 H 1180.18 -1.00068 -5.7313 0
M  V30 12985 H 1179.06 -2.31639 -7.49208 0
M  V30 12986 N 1176.57 1.53483 0.357892 0
M  V30 12987 C 1177.81 1.71233 1.09776 0
M  V30 12988 C 1178.17 0.462401 1.86761 0
M  V30 12989 O 1177.46 -0.544746 1.83693 0
M  V30 12990 C 1177.66 2.90654 2.07978 0
M  V30 12991 C 1177.48 4.27141 1.40644 0
M  V30 12992 C 1176.25 4.91868 1.15732 0
M  V30 12993 C 1178.45 5.07392 0.840118 0
M  V30 12994 N 1176.43 6.12261 0.448282 0
M  V30 12995 C 1177.81 6.19451 0.260863 0
M  V30 12996 C 1179.86 4.92377 0.739558 0
M  V30 12997 C 1178.56 7.18135 -0.409153 0
M  V30 12998 C 1180.59 5.91341 0.0833084 0
M  V30 12999 C 1179.95 7.02728 -0.485038 0
M  V30 13000 H 1176.05 0.679764 0.386582 0
M  V30 13001 H 1178.63 1.90893 0.383158 0
M  V30 13002 H 1176.81 2.7252 2.76744 0
M  V30 13003 H 1178.54 2.97192 2.74698 0
M  V30 13004 H 1175.29 4.51157 1.44064 0
M  V30 13005 H 1175.72 6.76912 0.108905 0
M  V30 13006 H 1180.36 4.06441 1.16472 0
M  V30 13007 H 1178.08 8.03657 -0.846247 0
M  V30 13008 H 1181.66 5.818 0.00632482 0
M  V30 13009 H 1180.54 7.77992 -0.984802 0
M  V30 13010 N 1178.05 -0.61812 1.44973 0
M  V30 13011 C 1179.29 -1.37944 1.48658 0
M  V30 13012 C 1179.62 -1.93805 0.123749 0
M  V30 13013 O 1178.9 -1.74434 -0.860401 0
M  V30 13014 C 1179.18 -2.53515 2.55739 0
M  V30 13015 C 1179.04 -2.02918 4.01428 0
M  V30 13016 C 1180.35 -3.55674 2.59199 0
M  V30 13017 H 1177.47 -0.500223 0.541244 0
M  V30 13018 H 1180.12 -0.69774 1.76725 0
M  V30 13019 H 1178.27 -3.11669 2.31937 0
M  V30 13020 H 1179.94 -1.49494 4.36405 0
M  V30 13021 H 1178.18 -1.33999 4.12586 0
M  V30 13022 H 1178.85 -2.86181 4.72021 0
M  V30 13023 H 1181.33 -3.07343 2.80499 0
M  V30 13024 H 1180.2 -4.34042 3.36004 0
M  V30 13025 H 1180.46 -4.10601 1.63888 0
M  V30 13026 N 1179.52 -1.32087 -0.859693 0
M  V30 13027 C 1180.47 -1.20549 -1.98924 0
M  V30 13028 C 1181.47 -0.111422 -1.69033 0
M  V30 13029 O 1182.67 -0.27401 -1.77902 0
M  V30 13030 H 1179.05 -0.373538 -0.652667 0
M  V30 13031 H 1181.02 -2.16091 -2.05785 0
M  V30 13032 C 1179.77 -0.940226 -3.34746 0
M  V30 13033 H 1179.09 -1.77427 -3.58273 0
M  V30 13034 H 1180.53 -0.899712 -4.14344 0
M  V30 13035 C 1178.99 0.357042 -3.35003 0
M  V30 13036 O 1179.52 1.37054 -3.77596 0
M  V30 13037 N 1177.72 0.37723 -2.88141 0
M  V30 13038 H 1177.27 -0.448051 -2.53674 0
M  V30 13039 H 1177.23 1.24509 -2.88695 0
M  V30 13040 N 1181 1.07532 -1.15215 0
M  V30 13041 C 1181.95 2.12909 -0.815714 0
M  V30 13042 C 1182.94 1.59662 0.1992 0
M  V30 13043 O 1184.13 1.77 0.000215597 0
M  V30 13044 C 1181.26 3.41945 -0.304717 0
M  V30 13045 C 1180.34 4.0205 -1.34968 0
M  V30 13046 N 1180.73 4.36439 -2.55646 0
M  V30 13047 C 1179.03 4.29498 -1.20199 0
M  V30 13048 C 1179.73 4.84044 -3.22609 0
M  V30 13049 N 1178.71 4.82702 -2.5 0
M  V30 13050 H 1182.51 2.37327 -1.73358 0
M  V30 13051 H 1180.02 1.24952 -1.03734 0
M  V30 13052 H 1182.02 4.16875 -0.0453503 0
M  V30 13053 H 1180.68 3.18971 0.607235 0
M  V30 13054 H 1181.69 4.27184 -2.92804 0
M  V30 13055 H 1178.37 4.16032 -0.349781 0
M  V30 13056 H 1179.76 5.19959 -4.2555 0
M  V30 13057 N 1182.48 0.948665 1.2585 0
M  V30 13058 C 1183.71 0.617229 1.97479 0
M  V30 13059 C 1184.12 -0.809406 1.7057 0
M  V30 13060 O 1183.48 -1.54066 0.97826 0
M  V30 13061 C 1183.53 0.859065 3.51144 0
M  V30 13062 O 1183.25 2.2296 3.77121 0
M  V30 13063 C 1184.75 0.539197 4.40009 0
M  V30 13064 H 1181.97 0.231933 0.629641 0
M  V30 13065 H 1184.52 1.27141 1.60173 0
M  V30 13066 H 1182.67 0.25138 3.86584 0
M  V30 13067 H 1183.09 2.29524 4.71613 0
M  V30 13068 H 1184.56 0.758986 5.46757 0
M  V30 13069 H 1185.04 -0.526062 4.36038 0
M  V30 13070 H 1185.64 1.12594 4.10125 0
M  V30 13071 N 1183.96 -1.40369 0.716545 0
M  V30 13072 C 1184.87 -2.34508 0.065658 0
M  V30 13073 C 1185.88 -1.57352 -0.742723 0
M  V30 13074 O 1187.06 -1.89735 -0.675456 0
M  V30 13075 C 1184.13 -3.36262 -0.844337 0
M  V30 13076 C 1183.19 -4.29292 -0.0257971 0
M  V30 13077 C 1182.42 -5.26185 -0.892452 0
M  V30 13078 O 1182.64 -5.29071 -2.13166 0
M  V30 13079 O 1181.58 -6.0099 -0.330933 0
M  V30 13080 H 1185.4 -2.91789 0.842184 0
M  V30 13081 H 1182.99 -1.41579 0.477034 0
M  V30 13082 H 1184.87 -3.98661 -1.36555 0
M  V30 13083 H 1183.54 -2.81393 -1.59999 0
M  V30 13084 H 1182.45 -3.70175 0.540512 0
M  V30 13085 H 1183.78 -4.87316 0.69166 0
M  V30 13086 N 1185.44 -0.462799 -1.50652 0
M  V30 13087 C 1186.68 0.0951853 -2.02576 0
M  V30 13088 C 1187.02 1.40113 -1.34469 0
M  V30 13089 O 1186.29 1.88793 -0.467702 0
M  V30 13090 C 1186.57 0.287603 -3.5895 0
M  V30 13091 C 1186.43 -1.03878 -4.37641 0
M  V30 13092 C 1187.75 1.04593 -4.27491 0
M  V30 13093 H 1184.86 0.0331191 -0.736255 0
M  V30 13094 H 1187.51 -0.606772 -1.80051 0
M  V30 13095 H 1185.66 0.885514 -3.78274 0
M  V30 13096 H 1187.33 -1.67263 -4.29908 0
M  V30 13097 H 1185.57 -1.6374 -4.01711 0
M  V30 13098 H 1186.24 -0.857889 -5.45293 0
M  V30 13099 H 1188.72 0.539213 -4.12591 0
M  V30 13100 H 1187.59 1.14935 -5.36732 0
M  V30 13101 H 1187.86 2.08045 -3.90089 0
M  V30 13102 N 1186.91 1.56388 -0.195085 0
M  V30 13103 C 1188.14 2.01963 0.449289 0
M  V30 13104 C 1188.56 1.07522 1.55192 0
M  V30 13105 O 1187.91 0.0800915 1.82324 0
M  V30 13106 C 1187.97 3.47231 1.00561 0
M  V30 13107 O 1187.69 4.38068 -0.0530241 0
M  V30 13108 C 1189.19 4.08324 1.72587 0
M  V30 13109 H 1186.41 0.661452 0.112792 0
M  V30 13110 H 1188.95 2.02231 -0.303788 0
M  V30 13111 H 1187.11 3.47663 1.70907 0
M  V30 13112 H 1187.52 5.23256 0.361076 0
M  V30 13113 H 1188.99 5.11821 2.06744 0
M  V30 13114 H 1189.47 3.51782 2.62956 0
M  V30 13115 H 1190.08 4.11665 1.06826 0
M  V30 13116 N 1188.39 -0.0785156 1.57404 0
M  V30 13117 C 1189.64 -0.777722 1.86103 0
M  V30 13118 C 1189.95 -1.79079 0.786771 0
M  V30 13119 O 1191.16 -2.53908 0.961393 0
M  V30 13120 C 1189.62 -1.43407 3.30095 0
M  V30 13121 C 1189.22 -0.459912 4.45633 0
M  V30 13122 C 1190.97 -2.11603 3.68 0
M  V30 13123 C 1188.88 -1.12179 5.80663 0
M  V30 13124 H 1187.81 -0.294205 0.694233 0
M  V30 13125 H 1190.46 -0.0309003 1.83474 0
M  V30 13126 H 1188.84 -2.22892 3.27315 0
M  V30 13127 H 1190.01 0.304642 4.59792 0
M  V30 13128 H 1188.33 0.117242 4.16235 0
M  V30 13129 H 1190.92 -2.61887 4.66175 0
M  V30 13130 H 1191.27 -2.91244 2.9746 0
M  V30 13131 H 1191.8 -1.38958 3.72741 0
M  V30 13132 H 1188.54 -0.365842 6.54478 0
M  V30 13133 H 1188.06 -1.85737 5.70317 0
M  V30 13134 H 1189.74 -1.64355 6.25777 0
M  V30 13135 N 1189.87 -1.5367 -0.349747 0
M  V30 13136 C 1191.28 -1.62135 -0.925704 0
M  V30 13137 C 1191.63 -0.498725 -1.89756 0
M  V30 13138 O 1190.76 0.372481 -2.1317 0
M  V30 13139 C 1191.35 -2.93885 -1.68573 0
M  V30 13140 C 1189.91 -3.04632 -2.2108 0
M  V30 13141 C 1189.06 -2.57541 -1.02801 0
M  V30 13142 H 1192.01 -1.58182 -0.128065 0
M  V30 13143 H 1192.03 -2.82577 -2.54815 0
M  V30 13144 H 1191.54 -3.75571 -0.978153 0
M  V30 13145 H 1189.64 -2.27567 -2.95032 0
M  V30 13146 H 1189.76 -4.09993 -2.47876 0
M  V30 13147 H 1188.12 -2.12798 -1.39962 0
M  V30 13148 H 1188.9 -3.4166 -0.335157 0
M  V30 13149 N 1191.35 0.610423 -1.45298 0
M  V30 13150 C 1192.58 1.39419 -1.52466 0
M  V30 13151 C 1192.99 1.88563 -0.1551 0
M  V30 13152 O 1192.33 1.62692 0.853061 0
M  V30 13153 C 1192.39 2.63515 -2.44541 0
M  V30 13154 C 1192.06 2.36028 -3.91331 0
M  V30 13155 C 1193.05 1.96567 -4.81308 0
M  V30 13156 C 1190.74 2.49028 -4.36223 0
M  V30 13157 C 1192.73 1.70461 -6.14184 0
M  V30 13158 C 1190.42 2.22536 -5.6914 0
M  V30 13159 C 1191.42 1.83314 -6.5794 0
M  V30 13160 O 1191.1 1.57131 -7.88394 0
M  V30 13161 H 1190.84 0.433278 -0.518889 0
M  V30 13162 H 1193.39 0.751803 -1.91147 0
M  V30 13163 H 1191.62 3.30463 -2.00826 0
M  V30 13164 H 1193.31 3.25554 -2.42424 0
M  V30 13165 H 1194.08 1.86062 -4.4789 0
M  V30 13166 H 1189.95 2.78524 -3.67349 0
M  V30 13167 H 1193.5 1.39773 -6.83454 0
M  V30 13168 H 1189.4 2.32657 -6.02114 0
M  V30 13169 H 1190.16 1.71207 -8.00394 0
M  V30 13170 N 1192.83 1.32541 0.852676 0
M  V30 13171 C 1193.76 1.24254 1.97694 0
M  V30 13172 C 1194.74 0.125971 1.69633 0
M  V30 13173 O 1195.92 0.31347 1.91653 0
M  V30 13174 C 1193.05 0.966874 3.3357 0
M  V30 13175 C 1192.01 2.0449 3.75989 0
M  V30 13176 C 1191.33 1.6216 5.09518 0
M  V30 13177 C 1192.63 3.46013 3.91244 0
M  V30 13178 H 1194.33 2.18317 2.04886 0
M  V30 13179 H 1191.87 1.05101 0.984371 0
M  V30 13180 H 1193.83 0.895444 4.11776 0
M  V30 13181 H 1192.55 -0.0093893 3.26599 0
M  V30 13182 H 1191.21 2.10651 3.00036 0
M  V30 13183 H 1190.86 0.632729 4.99005 0
M  V30 13184 H 1190.56 2.3429 5.38871 0
M  V30 13185 H 1192.08 1.56457 5.90215 0
M  V30 13186 H 1193.49 3.4243 4.59799 0
M  V30 13187 H 1191.89 4.1651 4.32017 0
M  V30 13188 H 1192.96 3.8553 2.941 0
M  V30 13189 N 1194.3 -1.0692 1.15784 0
M  V30 13190 C 1195.27 -2.12407 0.861167 0
M  V30 13191 C 1196.27 -1.6018 -0.141031 0
M  V30 13192 O 1197.46 -1.73972 0.0891192 0
M  V30 13193 C 1194.59 -3.39693 0.286636 0
M  V30 13194 H 1195.78 -2.40157 1.79623 0
M  V30 13195 H 1193.34 -1.22881 0.965916 0
M  V30 13196 H 1194.07 -3.17587 -0.656417 0
M  V30 13197 H 1193.86 -3.78903 1.0087 0
M  V30 13198 H 1195.35 -4.17488 0.0967971 0
M  V30 13199 N 1195.78 -0.955326 -1.25345 0
M  V30 13200 C 1197.01 -0.627693 -1.97149 0
M  V30 13201 C 1197.43 0.800349 -1.70997 0
M  V30 13202 O 1196.78 1.53545 -0.986417 0
M  V30 13203 C 1196.83 -0.877675 -3.50684 0
M  V30 13204 O 1196.55 -2.24957 -3.75934 0
M  V30 13205 C 1198.06 -0.562524 -4.39716 0
M  V30 13206 H 1195.28 -0.235269 -0.628402 0
M  V30 13207 H 1197.82 -1.27989 -1.59496 0
M  V30 13208 H 1195.97 -0.271878 -3.86445 0
M  V30 13209 H 1196.39 -2.32022 -4.70389 0
M  V30 13210 H 1197.86 -0.787972 -5.46347 0
M  V30 13211 H 1198.34 0.50293 -4.36311 0
M  V30 13212 H 1198.95 -1.14767 -4.09522 0
M  V30 13213 N 1197.26 1.39987 -0.723979 0
M  V30 13214 C 1198.54 1.94637 -0.1939 0
M  V30 13215 C 1198.92 1.66156 1.30212 0
M  V30 13216 O 1198.27 0.983783 2.06238 0
M  V30 13217 C 1198.48 3.4517 -0.515652 0
M  V30 13218 C 1199.82 4.22113 -0.458919 0
M  V30 13219 O 1200.85 3.53318 -0.452198 0
M  V30 13220 O 1199.71 5.44695 -0.443783 0
M  V30 13221 H 1196.8 0.826394 -0.0316615 0
M  V30 13222 H 1199.35 1.49548 -0.802085 0
M  V30 13223 H 1198.12 3.5929 -1.55004 0
M  V30 13224 H 1197.74 3.97413 0.122067 0
M  V30 13225 N 1198.74 0.470782 1.50404 0
M  V30 13226 C 1199.99 -0.0844409 2.02624 0
M  V30 13227 C 1200.32 -1.39398 1.3521 0
M  V30 13228 O 1199.59 -1.88542 0.477707 0
M  V30 13229 C 1199.88 -0.268563 3.59097 0
M  V30 13230 C 1199.73 1.06198 4.37084 0
M  V30 13231 C 1201.05 -1.02324 4.28039 0
M  V30 13232 H 1198.17 -0.0292141 0.736421 0
M  V30 13233 H 1200.81 0.616312 1.79726 0
M  V30 13234 H 1198.96 -0.865441 3.78738 0
M  V30 13235 H 1200.63 1.69541 4.29015 0
M  V30 13236 H 1198.87 1.65868 4.00837 0
M  V30 13237 H 1199.55 0.886795 5.4483 0
M  V30 13238 H 1202.02 -0.517325 4.12872 0
M  V30 13239 H 1200.9 -1.12087 5.37334 0
M  V30 13240 H 1201.16 -2.05974 3.91187 0
M  V30 13241 N 1200.22 -1.56282 0.203376 0
M  V30 13242 C 1201.45 -2.02198 -0.438572 0
M  V30 13243 C 1201.86 -1.08343 -1.54619 0
M  V30 13244 O 1201.22 -0.0897594 -1.82279 0
M  V30 13245 C 1201.27 -3.4776 -0.987184 0
M  V30 13246 O 1200.99 -4.38034 0.0762552 0
M  V30 13247 C 1202.49 -4.09234 -1.70419 0
M  V30 13248 H 1199.71 -0.662041 -0.109282 0
M  V30 13249 H 1202.25 -2.02067 0.314509 0
M  V30 13250 H 1200.41 -3.48564 -1.69061 0
M  V30 13251 H 1200.82 -5.2344 -0.333322 0
M  V30 13252 H 1202.3 -5.1291 -2.04027 0
M  V30 13253 H 1202.77 -3.53172 -2.61087 0
M  V30 13254 H 1203.38 -4.12226 -1.04641 0
M  V30 13255 N 1201.7 0.070167 -1.57444 0
M  V30 13256 C 1202.94 0.774338 -1.89165 0
M  V30 13257 C 1203.3 1.7466 -0.797353 0
M  V30 13258 O 1204.5 2.49599 -0.997682 0
M  V30 13259 C 1202.77 1.46235 -3.26114 0
M  V30 13260 S 1204.33 2.20136 -3.79586 0
M  V30 13261 H 1201.15 0.257464 -0.662747 0
M  V30 13262 H 1203.75 0.0303734 -1.95476 0
M  V30 13263 H 1202.45 0.740942 -4.03656 0
M  V30 13264 H 1201.99 2.24571 -3.23004 0
M  V30 13265 H 1204 3.4668 -3.55003 0
M  V30 13266 N 1203.17 1.53854 0.341593 0
M  V30 13267 C 1204.42 1.71447 1.08322 0
M  V30 13268 C 1204.75 0.477289 1.88243 0
M  V30 13269 O 1204.03 -0.525695 1.87261 0
M  V30 13270 C 1204.31 2.97917 2.02281 0
M  V30 13271 C 1204.16 4.31847 1.25809 0
M  V30 13272 C 1205.48 3.20065 3.0207 0
M  V30 13273 H 1202.6 0.623847 0.392408 0
M  V30 13274 H 1205.24 1.86527 0.361594 0
M  V30 13275 H 1203.39 2.85191 2.63815 0
M  V30 13276 H 1205.07 4.56427 0.668737 0
M  V30 13277 H 1203.31 4.30169 0.560119 0
M  V30 13278 H 1203.98 5.16522 1.94704 0
M  V30 13279 H 1206.46 3.32135 2.50651 0
M  V30 13280 H 1205.33 4.09947 3.65013 0
M  V30 13281 H 1205.59 2.36452 3.73554 0
M  V30 13282 N 1204.65 -0.602709 1.4562 0
M  V30 13283 C 1205.9 -1.35889 1.49595 0
M  V30 13284 C 1206.22 -1.9449 0.141002 0
M  V30 13285 O 1205.49 -1.77438 -0.830209 0
M  V30 13286 H 1204.07 -0.504478 0.550918 0
M  V30 13287 H 1206.73 -0.707376 1.8161 0
M  V30 13288 H 1205.83 -2.17583 2.2375 0
M  V30 13289 N 1206.13 -1.32992 -0.845635 0
M  V30 13290 C 1207.54 -1.21616 -1.41656 0
M  V30 13291 C 1207.89 0.167687 -1.95482 0
M  V30 13292 O 1207.02 1.06692 -1.8827 0
M  V30 13293 C 1207.61 -2.2018 -2.575 0
M  V30 13294 C 1206.17 -2.12664 -3.10565 0
M  V30 13295 C 1205.32 -2.08042 -1.83341 0
M  V30 13296 H 1208.27 -1.44688 -0.651993 0
M  V30 13297 H 1208.29 -1.80558 -3.34931 0
M  V30 13298 H 1207.8 -3.20888 -2.18294 0
M  V30 13299 H 1205.9 -1.15235 -3.54333 0
M  V30 13300 H 1206.02 -3.02902 -3.71197 0
M  V30 13301 H 1204.38 -1.53416 -2.03312 0
M  V30 13302 H 1205.16 -3.10547 -1.46339 0
M  V30 13303 N 1207.61 1.06304 -1.1635 0
M  V30 13304 C 1208.86 1.78747 -0.943074 0
M  V30 13305 C 1209.18 1.87646 0.530483 0
M  V30 13306 O 1208.45 1.38506 1.38538 0
M  V30 13307 H 1207.03 0.662072 -0.345932 0
M  V30 13308 H 1209.69 1.28413 -1.46615 0
M  V30 13309 H 1208.78 2.80828 -1.3617 0
M  V30 13310 N 1209.09 0.96196 1.24836 0
M  V30 13311 C 1210.05 0.492443 2.23847 0
M  V30 13312 C 1211.05 -0.40788 1.55541 0
M  V30 13313 O 1212.24 -0.204143 1.73 0
M  V30 13314 C 1209.37 -0.287578 3.39685 0
M  V30 13315 H 1210.56 1.36767 2.66899 0
M  V30 13316 H 1208.12 0.745967 1.3735 0
M  V30 13317 H 1208.85 -1.18015 3.02064 0
M  V30 13318 H 1208.64 0.358431 3.90458 0
M  V30 13319 H 1210.13 -0.605297 4.1319 0
M  V30 13320 N 1210.56 -1.39601 0.731392 0
M  V30 13321 C 1211.51 -2.27907 0.0651931 0
M  V30 13322 C 1212.5 -1.44075 -0.716334 0
M  V30 13323 O 1213.69 -1.6702 -0.585936 0
M  V30 13324 C 1210.82 -3.32763 -0.844023 0
M  V30 13325 C 1209.9 -4.24062 -0.0568388 0
M  V30 13326 N 1210.3 -4.96448 0.968146 0
M  V30 13327 C 1208.59 -4.45075 -0.287037 0
M  V30 13328 C 1209.29 -5.6353 1.44252 0
M  V30 13329 N 1208.27 -5.38236 0.761772 0
M  V30 13330 H 1212.07 -2.81324 0.850539 0
M  V30 13331 H 1209.59 -1.5224 0.565396 0
M  V30 13332 H 1211.58 -3.94888 -1.33674 0
M  V30 13333 H 1210.24 -2.80905 -1.62857 0
M  V30 13334 H 1211.25 -5.00011 1.34942 0
M  V30 13335 H 1207.93 -4.04167 -1.04667 0
M  V30 13336 H 1209.32 -6.31487 2.29508 0
M  V30 13337 N 1212.04 -0.478751 -1.50152 0
M  V30 13338 C 1212.99 0.311426 -2.28689 0
M  V30 13339 C 1213.96 0.980375 -1.34082 0
M  V30 13340 O 1215.14 0.991337 -1.63025 0
M  V30 13341 C 1212.28 1.38302 -3.16175 0
M  V30 13342 C 1211.4 0.728084 -4.2582 0
M  V30 13343 C 1210.53 1.77822 -5.00552 0
M  V30 13344 C 1209.57 1.10395 -6.02063 0
M  V30 13345 N 1208.71 2.09728 -6.70044 0
M  V30 13346 H 1213.55 -0.364592 -2.95761 0
M  V30 13347 H 1211.09 -0.191645 -1.45846 0
M  V30 13348 H 1213.04 2.01606 -3.65255 0
M  V30 13349 H 1211.67 2.0281 -2.51133 0
M  V30 13350 H 1210.73 -0.0177026 -3.80396 0
M  V30 13351 H 1212.04 0.196209 -4.98414 0
M  V30 13352 H 1211.19 2.48687 -5.53389 0
M  V30 13353 H 1209.93 2.34392 -4.27682 0
M  V30 13354 H 1208.94 0.38096 -5.48479 0
M  V30 13355 H 1210.16 0.545045 -6.76909 0
M  V30 13356 H 1208.11 2.65301 -5.9996 0
M  V30 13357 H 1208.02 1.61546 -7.38538 0
M  V30 13358 H 1209.29 2.7995 -7.27495 0
M  V30 13359 N 1213.52 1.56172 -0.211661 0
M  V30 13360 C 1214.77 1.97648 0.421871 0
M  V30 13361 C 1215.09 1.10026 1.60995 0
M  V30 13362 O 1214.36 0.175109 1.95116 0
M  V30 13363 H 1212.94 0.729914 0.158852 0
M  V30 13364 H 1215.6 1.92542 -0.302254 0
M  V30 13365 H 1214.7 3.02834 0.754868 0
M  V30 13366 N 1215 -0.0618163 1.57479 0
M  V30 13367 C 1215.93 -1.09931 2.01116 0
M  V30 13368 C 1216.94 -1.34405 0.91865 0
M  V30 13369 O 1218.13 -1.32469 1.19642 0
M  V30 13370 C 1215.23 -2.44814 2.34349 0
M  V30 13371 C 1214.41 -2.40157 3.65573 0
M  V30 13372 C 1213.46 -3.57226 3.86363 0
M  V30 13373 O 1212.49 -3.38202 4.5783 0
M  V30 13374 N 1213.69 -4.77937 3.2948 0
M  V30 13375 H 1216.46 -0.727621 2.90733 0
M  V30 13376 H 1214.02 -0.250315 1.59953 0
M  V30 13377 H 1216.01 -3.21792 2.45422 0
M  V30 13378 H 1214.58 -2.73947 1.50571 0
M  V30 13379 H 1213.8 -1.48496 3.65161 0
M  V30 13380 H 1215.09 -2.34156 4.51717 0
M  V30 13381 H 1214.49 -4.96296 2.7149 0
M  V30 13382 H 1213.04 -5.52392 3.45986 0
M  V30 13383 N 1216.48 -1.54033 -0.333429 0
M  V30 13384 C 1217.7 -1.76031 -1.09672 0
M  V30 13385 C 1218.13 -0.502844 -1.81254 0
M  V30 13386 O 1217.48 0.54509 -1.72912 0
M  V30 13387 C 1217.53 -2.947 -2.07809 0
M  V30 13388 O 1216.64 -2.65555 -3.15522 0
M  V30 13389 H 1215.98 -0.583611 -0.316692 0
M  V30 13390 H 1218.51 -2.01026 -0.380732 0
M  V30 13391 H 1218.52 -3.21771 -2.50853 0
M  V30 13392 H 1217.19 -3.85895 -1.55106 0
M  V30 13393 H 1215.77 -2.49403 -2.77223 0
M  V30 13394 N 1217.95 0.594978 -1.45938 0
M  V30 13395 C 1219.2 1.35561 -1.50834 0
M  V30 13396 C 1219.53 1.93584 -0.154566 0
M  V30 13397 O 1218.81 1.75781 0.832541 0
M  V30 13398 C 1219.09 2.49414 -2.5974 0
M  V30 13399 C 1218.94 1.96506 -4.04605 0
M  V30 13400 C 1220.26 3.51505 -2.64825 0
M  V30 13401 H 1217.38 0.491549 -0.549134 0
M  V30 13402 H 1220.02 0.669536 -1.77812 0
M  V30 13403 H 1218.17 3.07939 -2.36866 0
M  V30 13404 H 1219.85 1.42533 -4.38728 0
M  V30 13405 H 1218.09 1.27418 -4.14665 0
M  V30 13406 H 1218.76 2.78636 -4.76515 0
M  V30 13407 H 1221.24 3.02841 -2.85353 0
M  V30 13408 H 1220.11 4.28641 -3.42867 0
M  V30 13409 H 1220.37 4.07942 -1.70399 0
M  V30 13410 N 1219.43 1.33438 0.838571 0
M  V30 13411 C 1220.68 1.24259 1.58879 0
M  V30 13412 C 1220.99 -0.189957 1.94675 0
M  V30 13413 O 1222.2 -0.40376 2.68481 0
M  V30 13414 C 1220.66 2.1773 2.86569 0
M  V30 13415 C 1220.26 3.66156 2.58135 0
M  V30 13416 C 1222.01 2.17424 3.64591 0
M  V30 13417 C 1219.92 4.5154 3.81923 0
M  V30 13418 H 1218.85 0.461534 0.59624 0
M  V30 13419 H 1221.5 1.58504 0.924588 0
M  V30 13420 H 1219.88 1.76418 3.54532 0
M  V30 13421 H 1221.05 4.1591 1.98382 0
M  V30 13422 H 1219.37 3.68754 1.93416 0
M  V30 13423 H 1221.96 2.78446 4.56478 0
M  V30 13424 H 1222.31 1.16939 3.99539 0
M  V30 13425 H 1222.84 2.571 3.03553 0
M  V30 13426 H 1219.58 5.52902 3.52107 0
M  V30 13427 H 1219.1 4.06529 4.41015 0
M  V30 13428 H 1220.78 4.65359 4.495 0
M  V30 13429 N 1220.91 -1.05686 1.16912 0
M  V30 13430 C 1222.14 -1.82821 0.979348 0
M  V30 13431 C 1222.56 -1.82196 -0.467575 0
M  V30 13432 O 1221.92 -1.22727 -1.33445 0
M  V30 13433 C 1221.97 -3.2705 1.51891 0
M  V30 13434 O 1221.07 -4.05899 0.729341 0
M  V30 13435 H 1220.41 -0.565455 0.348076 0
M  V30 13436 H 1222.94 -1.33211 1.55293 0
M  V30 13437 H 1222.95 -3.77859 1.53904 0
M  V30 13438 H 1221.63 -3.26819 2.5722 0
M  V30 13439 H 1220.2 -3.64646 0.780221 0
M  V30 13440 N 1222.39 -0.968567 -1.24324 0
M  V30 13441 C 1223.32 -0.518323 -2.27674 0
M  V30 13442 C 1224.3 0.442479 -1.64244 0
M  V30 13443 O 1225.48 0.338416 -1.91229 0
M  V30 13444 C 1222.61 0.191459 -3.46772 0
M  V30 13445 C 1221.57 -0.685449 -4.22476 0
M  V30 13446 C 1220.89 0.155873 -5.34473 0
M  V30 13447 C 1222.19 -1.97047 -4.83704 0
M  V30 13448 H 1223.89 -1.38215 -2.65588 0
M  V30 13449 H 1221.43 -0.66604 -1.27671 0
M  V30 13450 H 1223.39 0.517667 -4.18208 0
M  V30 13451 H 1222.11 1.08965 -3.07887 0
M  V30 13452 H 1220.77 -0.994942 -3.52841 0
M  V30 13453 H 1220.42 1.05424 -4.91828 0
M  V30 13454 H 1220.12 -0.427655 -5.86042 0
M  V30 13455 H 1221.64 0.476733 -6.08736 0
M  V30 13456 H 1223.06 -1.70979 -5.4721 0
M  V30 13457 H 1221.45 -2.50079 -5.45509 0
M  V30 13458 H 1222.52 -2.66484 -4.0511 0
M  V30 13459 N 1223.87 1.39211 -0.738786 0
M  V30 13460 C 1225.14 1.9442 -0.214533 0
M  V30 13461 C 1225.52 1.67528 1.28443 0
M  V30 13462 O 1224.87 1.0056 2.05183 0
M  V30 13463 C 1225.08 3.44603 -0.552232 0
M  V30 13464 C 1226.43 4.21602 -0.503663 0
M  V30 13465 O 1227.45 3.52819 -0.489647 0
M  V30 13466 O 1226.31 5.44194 -0.50153 0
M  V30 13467 H 1223.41 0.826011 -0.0404247 0
M  V30 13468 H 1225.95 1.48689 -0.817902 0
M  V30 13469 H 1224.72 3.57626 -1.58806 0
M  V30 13470 H 1224.35 3.9752 0.0799096 0
M  V30 13471 N 1225.34 0.486708 1.49896 0
M  V30 13472 C 1226.27 -0.288898 2.31706 0
M  V30 13473 C 1227.26 -0.975901 1.3932 0
M  V30 13474 O 1228.44 -0.970065 1.68236 0
M  V30 13475 C 1225.57 -1.36218 3.19471 0
M  V30 13476 C 1224.52 -0.795884 4.20535 0
M  V30 13477 C 1223.85 -1.96862 4.97141 0
M  V30 13478 C 1225.15 0.203421 5.21904 0
M  V30 13479 H 1226.84 0.393934 2.96797 0
M  V30 13480 H 1224.39 0.190894 1.42729 0
M  V30 13481 H 1226.34 -1.91238 3.75508 0
M  V30 13482 H 1225.07 -2.074 2.52295 0
M  V30 13483 H 1223.73 -0.267538 3.65622 0
M  V30 13484 H 1223.37 -2.66779 4.26425 0
M  V30 13485 H 1223.07 -1.59585 5.65514 0
M  V30 13486 H 1224.6 -2.52343 5.56017 0
M  V30 13487 H 1226.01 -0.258144 5.72719 0
M  V30 13488 H 1224.41 0.491273 5.98086 0
M  V30 13489 H 1225.48 1.12414 4.7169 0
M  V30 13490 N 1226.82 -1.56058 0.219941 0
M  V30 13491 C 1228.05 -2.02358 -0.416497 0
M  V30 13492 C 1228.46 -1.09903 -1.54007 0
M  V30 13493 O 1227.8 -0.100635 -1.83424 0
M  V30 13494 C 1227.87 -3.45 -1.01072 0
M  V30 13495 C 1227.53 -4.56994 -0.0227891 0
M  V30 13496 C 1228.53 -5.14061 0.776997 0
M  V30 13497 C 1226.21 -5.02209 0.0954981 0
M  V30 13498 C 1228.21 -6.14813 1.68179 0
M  V30 13499 C 1225.89 -6.02799 1.00383 0
M  V30 13500 C 1226.89 -6.58977 1.79552 0
M  V30 13501 O 1226.58 -7.57608 2.68858 0
M  V30 13502 H 1226.31 -0.667581 -0.106355 0
M  V30 13503 H 1228.87 -2.02677 0.333348 0
M  V30 13504 H 1227.1 -3.41745 -1.80962 0
M  V30 13505 H 1228.78 -3.74958 -1.55439 0
M  V30 13506 H 1229.55 -4.79979 0.696053 0
M  V30 13507 H 1225.43 -4.58164 -0.510599 0
M  V30 13508 H 1228.97 -6.58588 2.30017 0
M  V30 13509 H 1224.87 -6.36302 1.08579 0
M  V30 13510 H 1225.64 -7.75124 2.62915 0
M  V30 13511 N 1228.3 0.053464 -1.57509 0
M  V30 13512 C 1229.53 0.761533 -1.92375 0
M  V30 13513 C 1229.94 1.70179 -0.817585 0
M  V30 13514 O 1229.3 1.81313 0.207843 0
M  V30 13515 C 1229.35 1.53954 -3.27078 0
M  V30 13516 O 1229.07 0.637054 -4.33443 0
M  V30 13517 C 1230.57 2.34697 -3.76075 0
M  V30 13518 H 1227.79 0.215483 -0.635459 0
M  V30 13519 H 1230.34 0.0182624 -2.04492 0
M  V30 13520 H 1228.49 2.23492 -3.16434 0
M  V30 13521 H 1228.91 1.18006 -5.11053 0
M  V30 13522 H 1230.38 2.84716 -4.72906 0
M  V30 13523 H 1230.86 3.15041 -3.06016 0
M  V30 13524 H 1231.46 1.70281 -3.89724 0
M  V30 13525 N 1229.78 1.54207 0.325255 0
M  V30 13526 C 1231.02 1.74055 1.07164 0
M  V30 13527 C 1231.38 0.502722 1.85302 0
M  V30 13528 O 1232.58 0.578525 2.62501 0
M  V30 13529 C 1230.86 2.97994 1.97319 0
M  V30 13530 S 1232.41 3.38737 2.78931 0
M  V30 13531 H 1229.23 0.612059 0.361808 0
M  V30 13532 H 1231.83 1.92381 0.347837 0
M  V30 13533 H 1230.54 3.86235 1.38747 0
M  V30 13534 H 1230.07 2.82187 2.74106 0
M  V30 13535 H 1232.08 2.93904 3.99794 0
M  V30 13536 N 1231.26 -0.58723 1.46251 0
M  V30 13537 C 1232.17 -1.72455 1.59048 0
M  V30 13538 C 1233.18 -1.67416 0.47413 0
M  V30 13539 O 1234.36 -1.87406 0.737633 0
M  V30 13540 C 1231.42 -3.08953 1.57318 0
M  V30 13541 C 1230.49 -3.25291 2.80151 0
M  V30 13542 C 1229.72 -4.55277 2.78493 0
M  V30 13543 O 1229.94 -5.38883 1.8698 0
M  V30 13544 O 1228.88 -4.74765 3.69975 0
M  V30 13545 H 1232.7 -1.64606 2.55223 0
M  V30 13546 H 1230.29 -0.753742 1.28993 0
M  V30 13547 H 1232.17 -3.90239 1.59033 0
M  V30 13548 H 1230.84 -3.17249 0.643025 0
M  V30 13549 H 1229.75 -2.43515 2.83991 0
M  V30 13550 H 1231.08 -3.21883 3.7236 0
M  V30 13551 N 1232.74 -1.33881 -0.831482 0
M  V30 13552 C 1233.67 -1.27384 -1.95693 0
M  V30 13553 C 1234.65 -0.152943 -1.69411 0
M  V30 13554 O 1235.83 -0.34392 -1.9113 0
M  V30 13555 C 1232.96 -1.01982 -3.31989 0
M  V30 13556 C 1231.92 -2.10445 -3.72689 0
M  V30 13557 C 1231.24 -1.70245 -5.06873 0
M  V30 13558 C 1232.54 -3.52194 -3.8569 0
M  V30 13559 H 1234.24 -2.21549 -2.01386 0
M  V30 13560 H 1231.78 -1.06653 -0.967526 0
M  V30 13561 H 1233.73 -0.960841 -4.103 0
M  V30 13562 H 1232.46 -0.0425709 -3.26572 0
M  V30 13563 H 1231.12 -2.15398 -2.96647 0
M  V30 13564 H 1230.77 -0.712036 -4.97935 0
M  V30 13565 H 1230.47 -2.42834 -5.35075 0
M  V30 13566 H 1231.99 -1.65827 -5.87651 0
M  V30 13567 H 1233.4 -3.49701 -4.54293 0
M  V30 13568 H 1231.8 -4.23331 -4.25336 0
M  V30 13569 H 1232.87 -3.9016 -2.87929 0
M  V30 13570 N 1234.21 1.05064 -1.1747 0
M  V30 13571 C 1235.49 1.74999 -0.873776 0
M  V30 13572 C 1235.87 2.01615 0.625676 0
M  V30 13573 O 1235.22 1.65324 1.57734 0
M  V30 13574 C 1235.43 3.04231 -1.7101 0
M  V30 13575 C 1236.78 3.78157 -1.93087 0
M  V30 13576 O 1237.8 3.14104 -1.6798 0
M  V30 13577 O 1236.66 4.93255 -2.3529 0
M  V30 13578 H 1233.75 0.761042 -0.323641 0
M  V30 13579 H 1236.3 1.1122 -1.28172 0
M  V30 13580 H 1235.07 2.80621 -2.72704 0
M  V30 13581 H 1234.69 3.75746 -1.30002 0
M  V30 13582 N 1235.69 0.975146 1.23809 0
M  V30 13583 C 1236.62 0.530389 2.27396 0
M  V30 13584 C 1237.6 -0.433763 1.64476 0
M  V30 13585 O 1238.79 -0.32827 1.91405 0
M  V30 13586 C 1235.92 -0.173066 3.46869 0
M  V30 13587 C 1234.87 0.707844 4.22106 0
M  V30 13588 C 1234.2 -0.127527 5.34548 0
M  V30 13589 C 1235.5 1.99609 4.82652 0
M  V30 13590 H 1237.19 1.39622 2.64851 0
M  V30 13591 H 1234.74 0.672802 1.27316 0
M  V30 13592 H 1236.69 -0.495481 4.18477 0
M  V30 13593 H 1235.41 -1.0733 3.0846 0
M  V30 13594 H 1234.07 1.01364 3.52308 0
M  V30 13595 H 1233.72 -1.02814 4.9238 0
M  V30 13596 H 1233.42 0.458728 5.85807 0
M  V30 13597 H 1234.95 -0.444443 6.0898 0
M  V30 13598 H 1236.36 1.73878 5.46296 0
M  V30 13599 H 1234.76 2.52969 5.44175 0
M  V30 13600 H 1235.83 2.68629 4.03691 0
M  V30 13601 N 1237.17 -1.38817 0.746158 0
M  V30 13602 C 1238.4 -2.0457 0.309605 0
M  V30 13603 C 1238.81 -1.5627 -1.05948 0
M  V30 13604 O 1238.17 -0.73248 -1.67156 0
M  V30 13605 C 1238.22 -3.60126 0.314843 0
M  V30 13606 O 1237.94 -4.06652 1.6299 0
M  V30 13607 C 1239.44 -4.4309 -0.136497 0
M  V30 13608 H 1236.66 -0.657597 0.133441 0
M  V30 13609 H 1239.21 -1.77651 1.01293 0
M  V30 13610 H 1237.36 -3.85908 -0.339685 0
M  V30 13611 H 1237.78 -5.01042 1.55103 0
M  V30 13612 H 1239.25 -5.5194 -0.0816714 0
M  V30 13613 H 1239.73 -4.22959 -1.18332 0
M  V30 13614 H 1240.33 -4.22481 0.488879 0
M  V30 13615 N 1238.65 -0.49465 -1.49636 0
M  V30 13616 C 1239.6 0.300929 -2.30645 0
M  V30 13617 C 1240.59 0.968687 -1.38971 0
M  V30 13618 O 1241.8 0.897101 -1.56052 0
M  V30 13619 H 1238.17 0.1159 -0.743015 0
M  V30 13620 H 1240.14 -0.402387 -2.95674 0
M  V30 13621 C 1238.89 1.35638 -3.20153 0
M  V30 13622 H 1238.21 0.851946 -3.90617 0
M  V30 13623 H 1239.65 1.88515 -3.79787 0
M  V30 13624 C 1238.11 2.37112 -2.39331 0
M  V30 13625 O 1238.64 3.42867 -2.09298 0
M  V30 13626 N 1236.85 2.09421 -2.01473 0
M  V30 13627 H 1236.4 1.23441 -2.26097 0
M  V30 13628 H 1236.35 2.77545 -1.47703 0
M  V30 13629 N 1240.13 1.55939 -0.228214 0
M  V30 13630 C 1241.06 2.2357 0.6737 0
M  V30 13631 C 1242.04 1.20964 1.1959 0
M  V30 13632 O 1243.22 1.49568 1.23867 0
M  V30 13633 C 1240.35 2.92076 1.87906 0
M  V30 13634 C 1239.31 4.01211 1.49043 0
M  V30 13635 C 1238.63 4.57047 2.77511 0
M  V30 13636 C 1239.93 5.17914 0.67544 0
M  V30 13637 H 1241.63 2.99199 0.109806 0
M  V30 13638 H 1239.17 1.43908 0.0513732 0
M  V30 13639 H 1241.12 3.38083 2.51551 0
M  V30 13640 H 1239.85 2.13906 2.46803 0
M  V30 13641 H 1238.51 3.55945 0.877411 0
M  V30 13642 H 1238.16 3.75599 3.34566 0
M  V30 13643 H 1237.86 5.30707 2.52239 0
M  V30 13644 H 1239.38 5.05776 3.42087 0
M  V30 13645 H 1240.79 5.60261 1.21575 0
M  V30 13646 H 1239.19 5.97847 0.519536 0
M  V30 13647 H 1240.26 4.83866 -0.316495 0
M  V30 13648 N 1241.6 -0.0451101 1.57535 0
M  V30 13649 C 1242.85 -0.738072 1.87711 0
M  V30 13650 C 1243.17 -1.7737 0.824579 0
M  V30 13651 O 1244.37 -2.51812 1.01503 0
M  V30 13652 C 1242.83 -1.36373 3.33062 0
M  V30 13653 C 1242.44 -0.365283 4.46508 0
M  V30 13654 C 1244.18 -2.0375 3.72406 0
M  V30 13655 C 1242.09 -0.998371 5.82912 0
M  V30 13656 H 1241.02 -0.279413 0.700317 0
M  V30 13657 H 1243.67 0.00802425 1.83498 0
M  V30 13658 H 1242.05 -2.15899 3.31969 0
M  V30 13659 H 1243.22 0.402102 4.59042 0
M  V30 13660 H 1241.54 0.205505 4.15893 0
M  V30 13661 H 1244.14 -2.51939 4.71625 0
M  V30 13662 H 1244.48 -2.84869 3.03571 0
M  V30 13663 H 1245.01 -1.3102 3.75604 0
M  V30 13664 H 1241.75 -0.226935 6.55107 0
M  V30 13665 H 1241.27 -1.73598 5.74129 0
M  V30 13666 H 1242.95 -1.51044 6.29122 0
M  V30 13667 N 1243.08 -1.54377 -0.317073 0
M  V30 13668 C 1244.01 -1.8721 -1.39552 0
M  V30 13669 C 1244.99 -0.729483 -1.53664 0
M  V30 13670 O 1246.18 -0.983799 -1.67437 0
M  V30 13671 C 1243.31 -2.1052 -2.76222 0
M  V30 13672 C 1242.26 -3.26366 -2.76892 0
M  V30 13673 C 1241.59 -3.35061 -4.16699 0
M  V30 13674 C 1242.89 -4.63862 -2.40061 0
M  V30 13675 H 1244.58 -2.77532 -1.12323 0
M  V30 13676 H 1242.13 -1.33536 -0.538897 0
M  V30 13677 H 1244.08 -2.32073 -3.51739 0
M  V30 13678 H 1242.81 -1.16953 -3.04942 0
M  V30 13679 H 1241.46 -3.0471 -2.03831 0
M  V30 13680 H 1241.11 -2.39041 -4.4257 0
M  V30 13681 H 1240.81 -4.12923 -4.18053 0
M  V30 13682 H 1242.34 -3.58856 -4.94019 0
M  V30 13683 H 1243.75 -4.85252 -3.05292 0
M  V30 13684 H 1242.15 -5.44321 -2.52655 0
M  V30 13685 H 1243.22 -4.6567 -1.35202 0
M  V30 13686 N 1244.56 0.579466 -1.4656 0
M  V30 13687 C 1245.81 1.33756 -1.52038 0
M  V30 13688 C 1246.14 1.93725 -0.173423 0
M  V30 13689 O 1245.39 1.77167 0.831293 0
M  V30 13690 C 1245.69 2.48417 -2.56951 0
M  V30 13691 C 1245.36 2.0642 -4.00876 0
M  V30 13692 C 1244.02 1.94682 -4.4006 0
M  V30 13693 C 1246.37 1.74066 -4.91274 0
M  V30 13694 C 1243.7 1.48852 -5.67503 0
M  V30 13695 C 1246.05 1.29714 -6.19158 0
M  V30 13696 C 1244.71 1.16555 -6.57245 0
M  V30 13697 H 1243.98 0.489447 -0.556347 0
M  V30 13698 H 1246.63 0.652176 -1.80053 0
M  V30 13699 H 1244.94 3.22416 -2.2261 0
M  V30 13700 H 1246.63 3.06629 -2.58418 0
M  V30 13701 H 1243.22 2.16492 -3.69904 0
M  V30 13702 H 1247.41 1.82019 -4.61717 0
M  V30 13703 H 1242.66 1.3731 -5.95782 0
M  V30 13704 H 1246.84 1.03734 -6.88631 0
M  V30 13705 H 1244.46 0.808193 -7.55892 0
M  V30 13706 N 1246.04 1.3432 0.824371 0
M  V30 13707 C 1247.26 1.2982 1.61745 0
M  V30 13708 C 1247.69 -0.125298 1.87682 0
M  V30 13709 O 1247.05 -1.08658 1.45131 0
M  V30 13710 C 1247.09 2.09327 2.93623 0
M  V30 13711 O 1246.2 1.4618 3.85623 0
M  V30 13712 H 1245.54 0.445929 0.491979 0
M  V30 13713 H 1248.07 1.77101 1.02452 0
M  V30 13714 H 1248.08 2.20629 3.43201 0
M  V30 13715 H 1246.75 3.12825 2.74069 0
M  V30 13716 H 1245.33 1.43611 3.44137 0
M  V30 13717 N 1247.52 -1.0444 1.18026 0
M  V30 13718 C 1248.45 -2.14297 0.927314 0
M  V30 13719 C 1249.43 -1.69575 -0.13357 0
M  V30 13720 O 1250.61 -1.94191 0.0182439 0
M  V30 13721 C 1247.74 -3.44397 0.448134 0
M  V30 13722 C 1246.7 -4.02723 1.44907 0
M  V30 13723 C 1246.02 -5.28257 0.827555 0
M  V30 13724 C 1247.32 -4.39331 2.82463 0
M  V30 13725 H 1249.02 -2.35715 1.84605 0
M  V30 13726 H 1246.56 -1.13281 0.889012 0
M  V30 13727 H 1248.52 -4.20606 0.258554 0
M  V30 13728 H 1247.24 -3.22654 -0.506159 0
M  V30 13729 H 1245.9 -3.28591 1.62552 0
M  V30 13730 H 1245.55 -5.02822 -0.13381 0
M  V30 13731 H 1245.25 -5.68242 1.49581 0
M  V30 13732 H 1246.77 -6.07147 0.64842 0
M  V30 13733 H 1248.18 -5.06543 2.68491 0
M  V30 13734 H 1246.58 -4.90355 3.45936 0
M  V30 13735 H 1247.65 -3.4933 3.36299 0
M  V30 13736 N 1248.99 -0.981699 -1.2329 0
M  V30 13737 C 1250.22 -0.669025 -1.96313 0
M  V30 13738 C 1250.64 0.757624 -1.72168 0
M  V30 13739 O 1250 1.51626 -0.993942 0
M  V30 13740 C 1250.05 -0.966875 -3.47396 0
M  V30 13741 O 1249.15 -0.0595933 -4.12357 0
M  V30 13742 H 1248.5 -0.251493 -0.61453 0
M  V30 13743 H 1251.03 -1.31564 -1.56691 0
M  V30 13744 H 1251.04 -0.904112 -3.97857 0
M  V30 13745 H 1249.71 -2.00651 -3.64296 0
M  V30 13746 H 1248.29 -0.176878 -3.7248 0
M  V30 13747 N 1250.47 1.3842 -0.753509 0
M  V30 13748 C 1251.72 1.99359 -0.306416 0
M  V30 13749 C 1252.03 1.60492 1.11811 0
M  V30 13750 O 1253.24 2.14401 1.66567 0
M  V30 13751 C 1251.7 3.56453 -0.496895 0
M  V30 13752 C 1251.3 4.04272 -1.9305 0
M  V30 13753 C 1253.05 4.24351 -0.11251 0
M  V30 13754 C 1250.96 5.54007 -2.06955 0
M  V30 13755 H 1249.89 0.745812 -0.110818 0
M  V30 13756 H 1252.54 1.58185 -0.930039 0
M  V30 13757 H 1250.92 3.95515 0.195912 0
M  V30 13758 H 1252.09 3.765 -2.65677 0
M  V30 13759 H 1250.41 3.49098 -2.26979 0
M  V30 13760 H 1253 5.34344 -0.195161 0
M  V30 13761 H 1253.35 4.05668 0.934849 0
M  V30 13762 H 1253.88 3.90528 -0.757168 0
M  V30 13763 H 1250.62 5.77594 -3.09944 0
M  V30 13764 H 1250.14 5.83522 -1.38788 0
M  V30 13765 H 1251.82 6.19704 -1.85945 0
M  V30 13766 N 1251.95 0.502579 1.49372 0
M  V30 13767 C 1253.18 -0.0403087 2.07361 0
M  V30 13768 C 1253.6 -1.29918 1.36026 0
M  V30 13769 O 1252.96 -1.76428 0.417488 0
M  V30 13770 C 1253.01 -0.275362 3.59547 0
M  V30 13771 O 1252.11 -1.34975 3.89686 0
M  V30 13772 H 1251.45 0.0269268 0.663454 0
M  V30 13773 H 1253.98 0.702652 1.92156 0
M  V30 13774 H 1253.99 -0.506392 4.04845 0
M  V30 13775 H 1252.67 0.644382 4.10878 0
M  V30 13776 H 1251.24 -1.10355 3.56197 0
M  V30 13777 N 1253.43 -1.55816 0.23648 0
M  V30 13778 C 1254.67 -1.98981 -0.391725 0
M  V30 13779 C 1255.01 -1.12428 -1.58346 0
M  V30 13780 O 1254.28 -0.185303 -1.93615 0
M  V30 13781 C 1254.57 -3.50831 -0.811759 0
M  V30 13782 C 1254.42 -4.48152 0.384648 0
M  V30 13783 C 1255.74 -4.07489 -1.66254 0
M  V30 13784 H 1252.86 -0.723404 -0.140911 0
M  V30 13785 H 1255.5 -1.87011 0.335706 0
M  V30 13786 H 1253.65 -3.61162 -1.43157 0
M  V30 13787 H 1255.32 -4.49814 1.02298 0
M  V30 13788 H 1253.56 -4.21406 1.02955 0
M  V30 13789 H 1254.23 -5.51979 0.0475809 0
M  V30 13790 H 1256.71 -4.00195 -1.13944 0
M  V30 13791 H 1255.59 -5.14026 -1.92531 0
M  V30 13792 H 1255.85 -3.55297 -2.6309 0
M  V30 13793 N 1254.91 0.036755 -1.57557 0
M  V30 13794 C 1256.13 0.744813 -1.93565 0
M  V30 13795 C 1256.56 1.68508 -0.835863 0
M  V30 13796 O 1255.91 1.80091 0.208986 0
M  V30 13797 C 1255.96 1.48461 -3.28621 0
M  V30 13798 O 1255.07 2.59739 -3.20327 0
M  V30 13799 H 1254.41 0.200866 -0.632889 0
M  V30 13800 H 1256.94 -0.00547543 -2.04599 0
M  V30 13801 H 1256.95 1.85622 -3.63329 0
M  V30 13802 H 1255.62 0.794953 -4.08232 0
M  V30 13803 H 1254.2 2.25176 -2.97237 0
M  V30 13804 N 1256.39 1.54543 0.308881 0
M  V30 13805 C 1257.32 1.87947 1.38557 0
M  V30 13806 C 1258.3 0.737622 1.53275 0
M  V30 13807 O 1259.48 0.992664 1.66913 0
M  V30 13808 C 1256.61 2.11982 2.75102 0
M  V30 13809 C 1255.57 3.2783 2.75158 0
M  V30 13810 C 1254.89 3.37266 4.14917 0
M  V30 13811 C 1256.19 4.65129 2.37598 0
M  V30 13812 H 1257.89 2.78123 1.1085 0
M  V30 13813 H 1255.43 1.3382 0.531808 0
M  V30 13814 H 1257.38 2.33935 3.50503 0
M  V30 13815 H 1256.11 1.18569 3.04317 0
M  V30 13816 H 1254.77 3.05787 2.02212 0
M  V30 13817 H 1254.42 2.41384 4.41296 0
M  V30 13818 H 1254.12 4.15135 4.15857 0
M  V30 13819 H 1255.64 3.61471 4.92109 0
M  V30 13820 H 1257.05 4.86865 3.02714 0
M  V30 13821 H 1255.45 5.45653 2.49765 0
M  V30 13822 H 1256.52 4.6638 1.32731 0
M  V30 13823 N 1257.86 -0.571685 1.46866 0
M  V30 13824 C 1259.11 -1.32948 1.52745 0
M  V30 13825 C 1259.44 -1.93631 0.183694 0
M  V30 13826 O 1258.69 -1.77605 -0.821886 0
M  V30 13827 C 1258.99 -2.47051 2.58264 0
M  V30 13828 C 1258.66 -2.04291 4.01965 0
M  V30 13829 C 1257.32 -1.92345 4.41086 0
M  V30 13830 C 1259.67 -1.71458 4.9219 0
M  V30 13831 C 1257 -1.4584 5.68285 0
M  V30 13832 C 1259.35 -1.26429 6.19837 0
M  V30 13833 C 1258.02 -1.13068 6.57854 0
M  V30 13834 H 1257.29 -0.48649 0.558935 0
M  V30 13835 H 1259.93 -0.642618 1.80396 0
M  V30 13836 H 1258.24 -3.21231 2.24316 0
M  V30 13837 H 1259.94 -3.05254 2.6004 0
M  V30 13838 H 1256.53 -2.14527 3.71047 0
M  V30 13839 H 1260.71 -1.79567 4.62676 0
M  V30 13840 H 1255.97 -1.34148 5.96502 0
M  V30 13841 H 1260.14 -1.00081 6.89171 0
M  V30 13842 H 1257.77 -0.768094 7.5631 0
M  V30 13843 N 1259.34 -1.34755 -0.817236 0
M  V30 13844 C 1260.27 -1.29452 -1.94331 0
M  V30 13845 C 1261.25 -0.170902 -1.69239 0
M  V30 13846 O 1262.44 -0.364173 -1.90755 0
M  V30 13847 C 1259.57 -1.05497 -3.30889 0
M  V30 13848 C 1258.52 -2.14386 -3.70436 0
M  V30 13849 C 1257.85 -1.75612 -5.05039 0
M  V30 13850 C 1259.15 -3.56265 -3.81933 0
M  V30 13851 H 1260.84 -2.23672 -1.99025 0
M  V30 13852 H 1258.39 -1.07674 -0.956159 0
M  V30 13853 H 1260.34 -1.0043 -4.09257 0
M  V30 13854 H 1259.06 -0.0772059 -3.26509 0
M  V30 13855 H 1257.72 -2.18532 -2.94345 0
M  V30 13856 H 1257.37 -0.764809 -4.97152 0
M  V30 13857 H 1257.07 -2.48495 -5.3247 0
M  V30 13858 H 1258.6 -1.72051 -5.85859 0
M  V30 13859 H 1260.01 -3.545 -4.50558 0
M  V30 13860 H 1258.41 -4.27818 -4.20822 0
M  V30 13861 H 1259.48 -3.93192 -2.83775 0
M  V30 13862 N 1260.82 1.03812 -1.18578 0
M  V30 13863 C 1261.75 2.11436 -0.858502 0
M  V30 13864 C 1262.73 1.61594 0.180604 0
M  V30 13865 O 1263.91 1.88408 0.058995 0
M  V30 13866 C 1261.04 3.37514 -0.283154 0
M  V30 13867 C 1260.09 4.0621 -1.29985 0
M  V30 13868 S 1260.92 4.52936 -2.85673 0
M  V30 13869 C 1262.08 5.82245 -2.29656 0
M  V30 13870 H 1262.31 2.38871 -1.76997 0
M  V30 13871 H 1259.84 1.16617 -1.01192 0
M  V30 13872 H 1261.8 4.10478 0.0422898 0
M  V30 13873 H 1260.46 3.08189 0.60647 0
M  V30 13874 H 1259.65 4.96845 -0.84621 0
M  V30 13875 H 1259.26 3.39374 -1.57166 0
M  V30 13876 H 1261.55 6.56321 -1.68074 0
M  V30 13877 H 1262.49 6.32375 -3.18602 0
M  V30 13878 H 1262.9 5.37472 -1.72581 0
M  V30 13879 N 1262.3 0.988223 1.22768 0
M  V30 13880 C 1263.54 0.662441 1.91676 0
M  V30 13881 C 1263.88 -0.802931 1.76824 0
M  V30 13882 O 1263.15 -1.58011 1.13415 0
M  V30 13883 C 1263.43 1.06332 3.44043 0
M  V30 13884 C 1263.29 2.5869 3.67967 0
M  V30 13885 C 1264.61 0.613058 4.35809 0
M  V30 13886 H 1261.73 0.242132 0.69609 0
M  V30 13887 H 1264.37 1.23091 1.44736 0
M  V30 13888 H 1262.52 0.579623 3.84152 0
M  V30 13889 H 1264.19 3.14694 3.37291 0
M  V30 13890 H 1262.43 3.00971 3.12408 0
M  V30 13891 H 1263.1 2.8179 4.74656 0
M  V30 13892 H 1265.58 1.02846 4.0319 0
M  V30 13893 H 1264.46 0.921901 5.41103 0
M  V30 13894 H 1264.72 -0.48641 4.39416 0
M  V30 13895 N 1263.78 -1.38018 0.760839 0
M  V30 13896 C 1264.71 -2.28037 0.0862629 0
M  V30 13897 C 1265.69 -1.45757 -0.720679 0
M  V30 13898 O 1266.87 -1.7511 -0.697766 0
M  V30 13899 C 1264 -3.26949 -0.884437 0
M  V30 13900 C 1263.04 -4.26189 -0.162839 0
M  V30 13901 S 1263.88 -5.23193 1.14148 0
M  V30 13902 C 1265.03 -6.25658 0.174043 0
M  V30 13903 H 1265.27 -2.84902 0.849596 0
M  V30 13904 H 1262.8 -1.44129 0.55374 0
M  V30 13905 H 1264.76 -3.84447 -1.43913 0
M  V30 13906 H 1263.42 -2.69052 -1.6208 0
M  V30 13907 H 1262.61 -4.9593 -0.89829 0
M  V30 13908 H 1262.21 -3.72624 0.320537 0
M  V30 13909 H 1264.5 -6.74303 -0.657423 0
M  V30 13910 H 1265.45 -7.03108 0.839319 0
M  V30 13911 H 1265.86 -5.6411 -0.209887 0
M  V30 13912 N 1265.25 -0.510493 -1.49103 0
M  V30 13913 C 1266.19 0.309697 -2.26089 0
M  V30 13914 C 1267.16 0.962061 -1.31084 0
M  V30 13915 O 1268.35 0.990296 -1.60391 0
M  V30 13916 C 1265.48 1.43693 -3.06708 0
M  V30 13917 C 1264.52 0.897978 -4.1694 0
M  V30 13918 S 1265.35 -0.218781 -5.35053 0
M  V30 13919 C 1266.51 0.911396 -6.19229 0
M  V30 13920 H 1266.74 -0.343702 -2.95307 0
M  V30 13921 H 1264.28 -0.295944 -1.51537 0
M  V30 13922 H 1266.23 2.08277 -3.53739 0
M  V30 13923 H 1264.9 2.06198 -2.36941 0
M  V30 13924 H 1264.09 1.74303 -4.729 0
M  V30 13925 H 1263.69 0.329192 -3.72548 0
M  V30 13926 H 1265.98 1.8145 -6.5275 0
M  V30 13927 H 1266.93 0.390201 -7.07024 0
M  V30 13928 H 1267.33 1.18301 -5.51965 0
M  V30 13929 N 1266.73 1.55688 -0.24474 0
M  V30 13930 C 1267.96 2.0329 0.384808 0
M  V30 13931 C 1268.37 1.12405 1.51692 0
M  V30 13932 O 1267.73 0.138056 1.81977 0
M  V30 13933 C 1267.78 3.50255 0.894635 0
M  V30 13934 O 1267.5 4.37677 -0.192365 0
M  V30 13935 C 1269 4.13608 1.59509 0
M  V30 13936 H 1266.22 0.664706 0.0916908 0
M  V30 13937 H 1268.77 2.01162 -0.367973 0
M  V30 13938 H 1266.92 3.52924 1.5976 0
M  V30 13939 H 1267.34 5.2414 0.194424 0
M  V30 13940 H 1268.81 5.1814 1.90356 0
M  V30 13941 H 1269.29 3.5997 2.51631 0
M  V30 13942 H 1269.89 4.14856 0.936749 0
M  V30 13943 N 1268.21 -0.0283989 1.57574 0
M  V30 13944 C 1269.17 -1.01346 2.05576 0
M  V30 13945 C 1270.17 -1.28999 0.960001 0
M  V30 13946 O 1271.36 -1.23991 1.2236 0
M  V30 13947 C 1268.49 -2.34611 2.47327 0
M  V30 13948 H 1269.69 -0.598809 2.93861 0
M  V30 13949 H 1267.24 -0.27524 1.53857 0
M  V30 13950 H 1267.98 -2.80823 1.622 0
M  V30 13951 H 1267.76 -2.1587 3.27326 0
M  V30 13952 H 1269.25 -3.05332 2.84889 0
M  V30 13953 N 1269.69 -1.54705 -0.300681 0
M  V30 13954 C 1270.91 -1.78318 -1.05913 0
M  V30 13955 C 1271.34 -0.541177 -1.80147 0
M  V30 13956 O 1270.7 0.508291 -1.74029 0
M  V30 13957 C 1270.74 -2.99041 -2.01511 0
M  V30 13958 O 1269.85 -2.72188 -3.09818 0
M  V30 13959 H 1269.19 -0.590197 -0.304242 0
M  V30 13960 H 1271.72 -2.01789 -0.338006 0
M  V30 13961 H 1271.73 -3.2702 -2.43971 0
M  V30 13962 H 1270.4 -3.89098 -1.46886 0
M  V30 13963 H 1268.98 -2.55227 -2.71871 0
M  V30 13964 N 1271.17 0.563888 -1.47167 0
M  V30 13965 C 1272.12 1.66687 -1.55562 0
M  V30 13966 C 1273.1 1.55455 -0.415024 0
M  V30 13967 O 1274.29 1.64051 -0.664557 0
M  V30 13968 C 1271.42 3.05469 -1.56665 0
M  V30 13969 C 1270.51 3.21928 -2.76085 0
M  V30 13970 N 1270.9 3.08477 -4.00844 0
M  V30 13971 C 1269.2 3.52913 -2.72706 0
M  V30 13972 C 1269.9 3.27447 -4.80784 0
M  V30 13973 N 1268.87 3.53474 -4.12986 0
M  V30 13974 H 1272.68 1.54846 -2.498 0
M  V30 13975 H 1270.19 0.76846 -1.43068 0
M  V30 13976 H 1272.19 3.84655 -1.60768 0
M  V30 13977 H 1270.85 3.18427 -0.635174 0
M  V30 13978 H 1271.86 2.85944 -4.31806 0
M  V30 13979 H 1268.53 3.7244 -1.88666 0
M  V30 13980 H 1269.92 3.22072 -5.89677 0
M  V30 13981 N 1272.64 1.35187 0.810078 0
M  V30 13982 C 1273.57 1.30481 1.93641 0
M  V30 13983 C 1274.56 0.179875 1.69146 0
M  V30 13984 O 1275.74 0.374284 1.90559 0
M  V30 13985 C 1272.87 1.07251 3.30325 0
M  V30 13986 C 1271.82 2.16348 3.69293 0
M  V30 13987 C 1271.15 1.78288 5.04101 0
M  V30 13988 C 1272.45 3.58285 3.80038 0
M  V30 13989 H 1274.14 2.24725 1.97836 0
M  V30 13990 H 1271.69 1.08179 0.950436 0
M  V30 13991 H 1273.64 1.02599 4.08719 0
M  V30 13992 H 1272.37 0.0945203 3.26463 0
M  V30 13993 H 1271.03 2.2009 2.93182 0
M  V30 13994 H 1270.67 0.791163 4.96739 0
M  V30 13995 H 1270.37 2.51315 5.31144 0
M  V30 13996 H 1271.9 1.75155 5.84938 0
M  V30 13997 H 1273.31 3.56884 4.48672 0
M  V30 13998 H 1271.71 4.30044 4.18548 0
M  V30 13999 H 1272.78 3.94691 2.81685 0
M  V30 14000 N 1274.12 -1.03182 1.19127 0
M  V30 14001 C 1275.35 -1.79904 1.01578 0
M  V30 14002 C 1275.76 -1.84044 -0.438697 0
M  V30 14003 O 1275.1 -1.28117 -1.3165 0
M  V30 14004 C 1275.17 -3.26473 1.50519 0
M  V30 14005 C 1274.83 -3.45975 2.98581 0
M  V30 14006 C 1275.83 -3.36436 3.96367 0
M  V30 14007 C 1273.51 -3.72284 3.37209 0
M  V30 14008 C 1275.51 -3.52925 5.30775 0
M  V30 14009 C 1273.19 -3.8842 4.71777 0
M  V30 14010 C 1274.19 -3.78742 5.68369 0
M  V30 14011 O 1273.88 -3.94405 7.005 0
M  V30 14012 H 1273.61 -0.573103 0.35851 0
M  V30 14013 H 1276.16 -1.30871 1.5831 0
M  V30 14014 H 1274.39 -3.76517 0.881593 0
M  V30 14015 H 1276.08 -3.84781 1.29223 0
M  V30 14016 H 1276.85 -3.16064 3.6787 0
M  V30 14017 H 1272.73 -3.78911 2.62579 0
M  V30 14018 H 1276.27 -3.45288 6.06153 0
M  V30 14019 H 1272.17 -4.08288 4.99971 0
M  V30 14020 H 1272.94 -4.11514 7.0753 0
M  V30 14021 N 1275.6 -0.99472 -1.22242 0
M  V30 14022 C 1276.85 -0.671602 -1.91039 0
M  V30 14023 C 1277.18 0.796543 -1.77441 0
M  V30 14024 O 1276.43 1.59179 -1.13845 0
M  V30 14025 C 1276.73 -1.02561 -3.42368 0
M  V30 14026 C 1276.4 -2.48632 -3.76155 0
M  V30 14027 C 1275.06 -2.88549 -3.85088 0
M  V30 14028 C 1277.41 -3.43302 -3.92165 0
M  V30 14029 C 1274.74 -4.22121 -4.07469 0
M  V30 14030 C 1277.09 -4.76534 -4.1605 0
M  V30 14031 C 1275.75 -5.1619 -4.23207 0
M  V30 14032 H 1275.02 -0.245756 -0.69906 0
M  V30 14033 H 1277.67 -1.25125 -1.44969 0
M  V30 14034 H 1275.98 -0.364073 -3.90105 0
M  V30 14035 H 1277.67 -0.753612 -3.93855 0
M  V30 14036 H 1274.26 -2.16693 -3.69787 0
M  V30 14037 H 1278.45 -3.13633 -3.8464 0
M  V30 14038 H 1273.7 -4.52431 -4.11238 0
M  V30 14039 H 1277.88 -5.49835 -4.27381 0
M  V30 14040 H 1275.5 -6.19708 -4.40303 0
M  V30 14041 N 1277.08 1.37613 -0.768148 0
M  V30 14042 C 1278.32 2.00532 -0.340335 0
M  V30 14043 C 1278.68 1.59885 1.07026 0
M  V30 14044 O 1277.97 0.833239 1.72533 0
M  V30 14045 C 1278.17 3.54952 -0.417608 0
M  V30 14046 C 1278 4.10595 -1.83417 0
M  V30 14047 C 1276.77 4.41708 -2.45402 0
M  V30 14048 C 1278.96 4.31844 -2.79312 0
M  V30 14049 N 1276.95 4.83045 -3.78868 0
M  V30 14050 C 1278.32 4.75751 -3.97569 0
M  V30 14051 C 1280.37 4.13971 -2.76645 0
M  V30 14052 C 1279.07 5.03656 -5.13539 0
M  V30 14053 C 1281.1 4.4301 -3.91786 0
M  V30 14054 C 1280.46 4.87153 -5.08784 0
M  V30 14055 H 1276.56 0.762961 -0.171505 0
M  V30 14056 H 1279.15 1.66984 -1.00121 0
M  V30 14057 H 1277.32 3.87815 0.213071 0
M  V30 14058 H 1279.05 4.04687 0.0319154 0
M  V30 14059 H 1275.8 4.30661 -1.97048 0
M  V30 14060 H 1276.23 5.08028 -4.47478 0
M  V30 14061 H 1280.87 3.79017 -1.87365 0
M  V30 14062 H 1278.59 5.375 -6.03423 0
M  V30 14063 H 1282.17 4.30772 -3.91059 0
M  V30 14064 H 1281.05 5.09192 -5.964 0
M  V30 14065 N 1278.56 0.518393 1.4883 0
M  V30 14066 C 1279.83 -0.0837498 1.95421 0
M  V30 14067 C 1280.21 -1.52435 1.46037 0
M  V30 14068 O 1279.56 -2.18093 0.681736 0
M  V30 14069 C 1279.77 0.0215333 3.48993 0
M  V30 14070 C 1281.12 -0.143615 4.24357 0
M  V30 14071 O 1282.14 -0.0528223 3.56161 0
M  V30 14072 O 1281 -0.332231 5.45489 0
M  V30 14073 H 1278.1 -0.0857132 0.822546 0
M  V30 14074 H 1280.64 0.582169 1.59402 0
M  V30 14075 H 1279.41 1.02549 3.77623 0
M  V30 14076 H 1279.04 -0.683756 3.91677 0
M  V30 14077 N 1280.03 -1.55556 0.252993 0
M  V30 14078 C 1281.28 -1.99385 -0.370599 0
M  V30 14079 C 1281.61 -1.14101 -1.57145 0
M  V30 14080 O 1280.89 -0.205828 -1.93408 0
M  V30 14081 C 1281.17 -3.51672 -0.774503 0
M  V30 14082 C 1281.02 -4.47719 0.432159 0
M  V30 14083 C 1282.34 -4.0923 -1.61923 0
M  V30 14084 H 1279.46 -0.724858 -0.133231 0
M  V30 14085 H 1282.1 -1.86644 0.355522 0
M  V30 14086 H 1280.25 -3.62661 -1.39318 0
M  V30 14087 H 1281.93 -4.48704 1.07063 0
M  V30 14088 H 1280.17 -4.2029 1.07419 0
M  V30 14089 H 1280.84 -5.51898 0.106123 0
M  V30 14090 H 1283.32 -4.01381 -1.09693 0
M  V30 14091 H 1282.19 -5.16039 -1.87068 0
M  V30 14092 H 1282.45 -3.58067 -2.59307 0
M  V30 14093 N 1281.51 0.0200419 -1.57587 0
M  V30 14094 C 1282.76 0.704552 -1.90808 0
M  V30 14095 C 1283.11 1.72479 -0.852568 0
M  V30 14096 O 1282.41 1.91105 0.137682 0
M  V30 14097 C 1282.6 1.40729 -3.28527 0
M  V30 14098 C 1282.43 0.456634 -4.47376 0
M  V30 14099 C 1281.2 0.0743638 -5.05245 0
M  V30 14100 C 1283.4 -0.268767 -5.13597 0
M  V30 14101 N 1281.38 -0.876606 -6.07609 0
M  V30 14102 C 1282.75 -1.07509 -6.10608 0
M  V30 14103 C 1284.81 -0.334748 -4.96773 0
M  V30 14104 C 1283.51 -1.94135 -6.92607 0
M  V30 14105 C 1285.53 -1.18816 -5.79342 0
M  V30 14106 C 1284.9 -1.98238 -6.7593 0
M  V30 14107 H 1281 0.231633 -0.746907 0
M  V30 14108 H 1283.58 -0.0355944 -1.94667 0
M  V30 14109 H 1281.75 2.11785 -3.25579 0
M  V30 14110 H 1283.48 2.04491 -3.49236 0
M  V30 14111 H 1280.24 0.43848 -4.71566 0
M  V30 14112 H 1280.66 -1.34687 -6.63467 0
M  V30 14113 H 1285.3 0.264995 -4.21969 0
M  V30 14114 H 1283.02 -2.55185 -7.6675 0
M  V30 14115 H 1286.61 -1.24286 -5.6837 0
M  V30 14116 H 1285.49 -2.63208 -7.38709 0
M  V30 14117 N 1282.99 1.54862 0.292472 0
M  V30 14118 C 1284.22 1.78291 1.04383 0
M  V30 14119 C 1284.63 0.546703 1.81129 0
M  V30 14120 O 1283.97 -0.493286 1.76953 0
M  V30 14121 C 1284.03 2.94321 2.06435 0
M  V30 14122 C 1283.7 4.32095 1.48806 0
M  V30 14123 C 1284.69 5.11808 0.91369 0
M  V30 14124 C 1282.38 4.78714 1.52112 0
M  V30 14125 C 1284.37 6.36266 0.380053 0
M  V30 14126 C 1282.06 6.03132 0.983613 0
M  V30 14127 C 1283.06 6.81744 0.41406 0
M  V30 14128 O 1282.75 8.03817 -0.115268 0
M  V30 14129 H 1282.48 0.598147 0.314954 0
M  V30 14130 H 1285.03 2.02655 0.334661 0
M  V30 14131 H 1283.26 2.65602 2.81056 0
M  V30 14132 H 1284.95 3.05249 2.67541 0
M  V30 14133 H 1285.72 4.76931 0.880988 0
M  V30 14134 H 1281.6 4.17549 1.95382 0
M  V30 14135 H 1285.14 6.9757 -0.0651481 0
M  V30 14136 H 1281.04 6.37494 1.01349 0
M  V30 14137 H 1281.81 8.185 -0.00277496 0
M  V30 14138 N 1284.47 -0.556076 1.47464 0
M  V30 14139 C 1285.72 -1.30955 1.53407 0
M  V30 14140 C 1286.03 -1.94559 0.201485 0
M  V30 14141 O 1287.24 -2.71144 0.138925 0
M  V30 14142 C 1285.69 -2.37476 2.70431 0
M  V30 14143 C 1285.3 -1.80057 4.10224 0
M  V30 14144 C 1287.04 -3.13997 2.85668 0
M  V30 14145 C 1284.95 -2.84365 5.18547 0
M  V30 14146 H 1283.88 -0.4924 0.571015 0
M  V30 14147 H 1286.53 -0.590459 1.73741 0
M  V30 14148 H 1284.91 -3.12304 2.43479 0
M  V30 14149 H 1286.09 -1.11593 4.47083 0
M  V30 14150 H 1284.4 -1.16116 3.99882 0
M  V30 14151 H 1287 -3.91892 3.63764 0
M  V30 14152 H 1287.34 -3.68253 1.94153 0
M  V30 14153 H 1287.88 -2.46281 3.12395 0
M  V30 14154 H 1284.62 -2.34963 6.11942 0
M  V30 14155 H 1284.14 -3.51235 4.86203 0
M  V30 14156 H 1285.81 -3.47836 5.45545 0
M  V30 14157 N 1285.95 -1.35615 -0.802897 0
M  V30 14158 C 1287.18 -1.32025 -1.58911 0
M  V30 14159 C 1287.59 0.103539 -1.88916 0
M  V30 14160 O 1286.93 1.06699 -1.49536 0
M  V30 14161 C 1286.99 -2.06313 -2.94406 0
M  V30 14162 C 1286.65 -3.5548 -2.87198 0
M  V30 14163 C 1287.65 -4.5 -2.60377 0
M  V30 14164 C 1285.34 -3.9818 -3.06199 0
M  V30 14165 C 1287.33 -5.85194 -2.5264 0
M  V30 14166 C 1285.02 -5.33469 -2.98084 0
M  V30 14167 C 1286.02 -6.26788 -2.71341 0
M  V30 14168 O 1285.7 -7.59594 -2.63195 0
M  V30 14169 H 1285.44 -0.454943 -0.500003 0
M  V30 14170 H 1287.99 -1.79106 -1.00549 0
M  V30 14171 H 1286.22 -1.53875 -3.54766 0
M  V30 14172 H 1287.91 -1.95755 -3.55577 0
M  V30 14173 H 1288.67 -4.18327 -2.45413 0
M  V30 14174 H 1284.55 -3.25927 -3.26025 0
M  V30 14175 H 1288.1 -6.58003 -2.31686 0
M  V30 14176 H 1283.99 -5.64754 -3.12607 0
M  V30 14177 H 1284.76 -7.69562 -2.78776 0
M  V30 14178 N 1287.43 1.02549 -1.19673 0
M  V30 14179 C 1288.38 2.09257 -0.905282 0
M  V30 14180 C 1289.36 1.60363 0.131302 0
M  V30 14181 O 1290.55 1.76842 -0.0748563 0
M  V30 14182 C 1287.68 3.40345 -0.449474 0
M  V30 14183 C 1286.77 3.95964 -1.51899 0
M  V30 14184 N 1287.16 4.25203 -2.73926 0
M  V30 14185 C 1285.46 4.24013 -1.38307 0
M  V30 14186 C 1286.16 4.69925 -3.42849 0
M  V30 14187 N 1285.13 4.71664 -2.70248 0
M  V30 14188 H 1288.93 2.29761 -1.83268 0
M  V30 14189 H 1286.45 1.2044 -1.0894 0
M  V30 14190 H 1288.45 4.16308 -0.222121 0
M  V30 14191 H 1287.11 3.2126 0.471402 0
M  V30 14192 H 1288.12 4.14381 -3.10658 0
M  V30 14193 H 1284.79 4.14174 -0.52592 0
M  V30 14194 H 1286.18 5.01442 -4.4722 0
M  V30 14195 N 1288.9 1.00119 1.21713 0
M  V30 14196 C 1290.15 0.681723 1.9068 0
M  V30 14197 C 1290.48 -0.787121 1.77861 0
M  V30 14198 O 1289.73 -1.58573 1.14687 0
M  V30 14199 C 1290.03 1.04376 3.41819 0
M  V30 14200 C 1289.7 2.50624 3.74831 0
M  V30 14201 C 1288.36 2.90587 3.83552 0
M  V30 14202 C 1290.71 3.45377 3.90339 0
M  V30 14203 C 1288.04 4.24276 4.05225 0
M  V30 14204 C 1290.39 4.78734 4.13517 0
M  V30 14205 C 1289.06 5.18427 4.20464 0
M  V30 14206 H 1288.33 0.24946 0.697747 0
M  V30 14207 H 1290.97 1.25892 1.44304 0
M  V30 14208 H 1289.28 0.384756 3.89906 0
M  V30 14209 H 1290.98 0.774488 3.9345 0
M  V30 14210 H 1287.57 2.18651 3.68632 0
M  V30 14211 H 1291.75 3.15669 3.82971 0
M  V30 14212 H 1287.01 4.54605 4.08833 0
M  V30 14213 H 1291.18 5.52094 4.24459 0
M  V30 14214 H 1288.81 6.22034 4.3701 0
M  V30 14215 N 1290.38 -1.37203 0.775435 0
M  V30 14216 C 1291.62 -2.01439 0.346649 0
M  V30 14217 C 1291.99 -1.60223 -1.05795 0
M  V30 14218 O 1293.19 -2.16947 -1.58706 0
M  V30 14219 C 1291.46 -3.54031 0.489584 0
M  V30 14220 S 1293.02 -4.38555 0.146606 0
M  V30 14221 H 1289.83 -0.698417 0.133173 0
M  V30 14222 H 1292.44 -1.67338 1.01086 0
M  V30 14223 H 1291.14 -3.81516 1.51241 0
M  V30 14224 H 1290.67 -3.92936 -0.19105 0
M  V30 14225 H 1292.69 -4.8482 -1.05661 0
M  V30 14226 N 1291.86 -0.526279 -1.48553 0
M  V30 14227 C 1292.81 0.238513 -2.29564 0
M  V30 14228 C 1293.78 0.937222 -1.37133 0
M  V30 14229 O 1294.96 0.93897 -1.66096 0
M  V30 14230 C 1292.1 1.28173 -3.20415 0
M  V30 14231 C 1291.21 0.592244 -4.27921 0
M  V30 14232 C 1290.35 1.61808 -5.05956 0
M  V30 14233 C 1289.39 0.911846 -6.0527 0
M  V30 14234 N 1288.53 1.88305 -6.76377 0
M  V30 14235 H 1293.37 -0.458502 -2.94452 0
M  V30 14236 H 1290.9 -0.237948 -1.45163 0
M  V30 14237 H 1292.86 1.89883 -3.71484 0
M  V30 14238 H 1291.49 1.94718 -2.57458 0
M  V30 14239 H 1290.54 -0.138714 -3.80147 0
M  V30 14240 H 1291.85 0.0375427 -4.98786 0
M  V30 14241 H 1291.01 2.30956 -5.61021 0
M  V30 14242 H 1289.75 2.20667 -4.34922 0
M  V30 14243 H 1288.75 0.206273 -5.49413 0
M  V30 14244 H 1289.98 0.329415 -6.78301 0
M  V30 14245 H 1287.92 2.46079 -6.08096 0
M  V30 14246 H 1287.84 1.37969 -7.43304 0
M  V30 14247 H 1289.11 2.56663 -7.36033 0
M  V30 14248 N 1293.34 1.5542 -0.261239 0
M  V30 14249 C 1294.3 2.20683 0.619011 0
M  V30 14250 C 1295.3 1.18042 1.09192 0
M  V30 14251 O 1296.49 1.43035 0.99432 0
M  V30 14252 C 1293.62 2.86179 1.85242 0
M  V30 14253 H 1294.82 2.99859 0.0493924 0
M  V30 14254 H 1292.37 1.56296 -0.0117687 0
M  V30 14255 H 1293.1 2.10978 2.4629 0
M  V30 14256 H 1292.89 3.61381 1.52138 0
M  V30 14257 H 1294.38 3.36081 2.47869 0
M  V30 14258 N 1294.82 -0.0116844 1.57596 0
M  V30 14259 C 1295.76 -1.00684 2.07681 0
M  V30 14260 C 1296.73 -1.34858 0.969666 0
M  V30 14261 O 1297.92 -1.44896 1.24136 0
M  V30 14262 C 1295.06 -2.29729 2.57524 0
M  V30 14263 C 1294.17 -2.0156 3.82096 0
M  V30 14264 C 1293.31 -3.24601 4.20485 0
M  V30 14265 C 1292.34 -2.92066 5.37925 0
M  V30 14266 N 1291.48 -4.0761 5.71663 0
M  V30 14267 H 1296.32 -0.572787 2.92443 0
M  V30 14268 H 1293.86 -0.271184 1.44579 0
M  V30 14269 H 1295.82 -3.05152 2.84496 0
M  V30 14270 H 1294.45 -2.70824 1.75653 0
M  V30 14271 H 1293.5 -1.16556 3.62103 0
M  V30 14272 H 1294.81 -1.73572 4.67626 0
M  V30 14273 H 1293.96 -4.08379 4.48677 0
M  V30 14274 H 1292.7 -3.55718 3.3364 0
M  V30 14275 H 1291.71 -2.06693 5.09468 0
M  V30 14276 H 1292.93 -2.62209 6.26437 0
M  V30 14277 H 1290.88 -4.38645 4.87777 0
M  V30 14278 H 1290.8 -3.83105 6.51741 0
M  V30 14279 H 1292.06 -4.92211 6.04441 0
M  V30 14280 N 1296.29 -1.55015 -0.284256 0
M  V30 14281 C 1297.54 -1.74297 -1.01506 0
M  V30 14282 C 1297.86 -0.545134 -1.8785 0
M  V30 14283 O 1299.06 -0.620118 -2.64323 0
M  V30 14284 C 1297.52 -3.08438 -1.85456 0
M  V30 14285 C 1297.13 -4.35753 -1.04034 0
M  V30 14286 C 1298.87 -3.37073 -2.58035 0
M  V30 14287 C 1296.78 -5.60938 -1.87358 0
M  V30 14288 H 1295.71 -0.649656 -0.382705 0
M  V30 14289 H 1298.36 -1.81484 -0.271239 0
M  V30 14290 H 1296.74 -2.95259 -2.63891 0
M  V30 14291 H 1297.91 -4.59816 -0.300954 0
M  V30 14292 H 1296.23 -4.14178 -0.429616 0
M  V30 14293 H 1298.83 -4.27806 -3.20759 0
M  V30 14294 H 1299.17 -2.56698 -3.27738 0
M  V30 14295 H 1299.7 -3.51299 -1.86638 0
M  V30 14296 H 1296.44 -6.44029 -1.22096 0
M  V30 14297 H 1295.96 -5.41035 -2.58923 0
M  V30 14298 H 1297.64 -5.98819 -2.44999 0
M  V30 14299 N 1297.77 0.548248 -1.47757 0
M  V30 14300 C 1298.72 1.65453 -1.60916 0
M  V30 14301 C 1299.69 1.59836 -0.451831 0
M  V30 14302 O 1300.87 1.78536 -0.673023 0
M  V30 14303 C 1298.01 3.0376 -1.6378 0
M  V30 14304 C 1297.13 3.19747 -2.90492 0
M  V30 14305 C 1296.26 4.48505 -2.84635 0
M  V30 14306 C 1295.3 4.57956 -4.06132 0
M  V30 14307 N 1294.44 5.78079 -3.98458 0
M  V30 14308 H 1299.28 1.53545 -2.55398 0
M  V30 14309 H 1296.81 0.747826 -1.26673 0
M  V30 14310 H 1298.77 3.8386 -1.63424 0
M  V30 14311 H 1297.4 3.14483 -0.728036 0
M  V30 14312 H 1296.45 2.3302 -3.00676 0
M  V30 14313 H 1297.77 3.22594 -3.8044 0
M  V30 14314 H 1296.92 5.36875 -2.82577 0
M  V30 14315 H 1295.66 4.48151 -1.92385 0
M  V30 14316 H 1294.66 3.67995 -4.08484 0
M  V30 14317 H 1295.89 4.60062 -4.9952 0
M  V30 14318 H 1293.84 5.78657 -3.09017 0
M  V30 14319 H 1293.75 5.82342 -4.82093 0
M  V30 14320 H 1295.02 6.68786 -4.00431 0
M  V30 14321 N 1299.25 1.36039 0.795694 0
M  V30 14322 C 1300.5 1.29663 1.55023 0
M  V30 14323 C 1300.82 -0.125588 1.94595 0
M  V30 14324 O 1300.09 -1.06447 1.64456 0
M  V30 14325 H 1298.67 0.476962 0.574906 0
M  V30 14326 H 1301.33 1.70265 0.948471 0
M  V30 14327 H 1300.43 1.91982 2.46068 0
M  V30 14328 N 1300.73 -1.01913 1.20215 0
M  V30 14329 C 1301.96 -1.78817 1.0348 0
M  V30 14330 C 1302.37 -1.84499 -0.419152 0
M  V30 14331 O 1301.71 -1.29506 -1.30284 0
M  V30 14332 C 1301.77 -3.24858 1.53973 0
M  V30 14333 C 1301.44 -3.42788 3.02234 0
M  V30 14334 C 1302.43 -3.32213 3.99914 0
M  V30 14335 C 1300.12 -3.68687 3.41138 0
M  V30 14336 C 1302.11 -3.47276 5.34489 0
M  V30 14337 C 1299.8 -3.83394 4.7587 0
M  V30 14338 C 1300.8 -3.72693 5.72354 0
M  V30 14339 O 1300.48 -3.86953 7.04643 0
M  V30 14340 H 1300.22 -0.569268 0.364568 0
M  V30 14341 H 1302.77 -1.29184 1.59689 0
M  V30 14342 H 1301 -3.7556 0.921478 0
M  V30 14343 H 1302.69 -3.83388 1.33297 0
M  V30 14344 H 1303.46 -3.12145 3.71202 0
M  V30 14345 H 1299.33 -3.76104 2.66583 0
M  V30 14346 H 1302.88 -3.3884 6.09782 0
M  V30 14347 H 1298.78 -4.02962 5.04273 0
M  V30 14348 H 1299.54 -4.03986 7.11855 0
M  V30 14349 N 1302.21 -1.00763 -1.2118 0
M  V30 14350 C 1303.14 -0.528468 -2.23024 0
M  V30 14351 C 1304.15 0.384348 -1.58198 0
M  V30 14352 O 1305.34 0.184127 -1.77548 0
M  V30 14353 C 1302.44 0.251693 -3.37964 0
M  V30 14354 C 1301.61 -0.660838 -4.32379 0
M  V30 14355 C 1300.67 0.0701723 -5.26153 0
M  V30 14356 O 1299.7 -0.549355 -5.66543 0
M  V30 14357 N 1300.9 1.34791 -5.64634 0
M  V30 14358 H 1303.67 -1.40428 -2.64764 0
M  V30 14359 H 1301.23 -0.884085 -1.3563 0
M  V30 14360 H 1303.22 0.749746 -3.97694 0
M  V30 14361 H 1301.79 1.02872 -2.95188 0
M  V30 14362 H 1301.01 -1.33934 -3.7075 0
M  V30 14363 H 1302.3 -1.28177 -4.9239 0
M  V30 14364 H 1301.69 1.87232 -5.33817 0
M  V30 14365 H 1300.25 1.79086 -6.26715 0
M  V30 14366 N 1303.68 1.3679 -0.7827 0
M  V30 14367 C 1305.1 1.52719 -0.463594 0
M  V30 14368 C 1305.3 1.73827 1.01914 0
M  V30 14369 O 1304.36 1.76591 1.80477 0
M  V30 14370 C 1305.67 2.71709 -1.2882 0
M  V30 14371 C 1307.22 2.85577 -1.2812 0
M  V30 14372 C 1307.69 4.07564 -2.0894 0
M  V30 14373 N 1309.18 4.14697 -2.0635 0
M  V30 14374 C 1309.92 5.08147 -2.65659 0
M  V30 14375 N 1309.41 6.07083 -3.33799 0
M  V30 14376 N 1311.21 5.00712 -2.55429 0
M  V30 14377 H 1303.36 1.21342 -1.74327 0
M  V30 14378 H 1305.62 0.591719 -0.740657 0
M  V30 14379 H 1305.33 2.62612 -2.3394 0
M  V30 14380 H 1305.2 3.65686 -0.924873 0
M  V30 14381 H 1307.59 2.94139 -0.237947 0
M  V30 14382 H 1307.67 1.92528 -1.68424 0
M  V30 14383 H 1307.31 3.99763 -3.13293 0
M  V30 14384 H 1307.24 4.99748 -1.66011 0
M  V30 14385 H 1309.73 3.43856 -1.56752 0
M  V30 14386 H 1310.05 6.74939 -3.764 0
M  V30 14387 H 1308.39 6.07329 -3.379 0
M  V30 14388 H 1311.58 4.22367 -2.01802 0
M  V30 14389 H 1311.76 5.73354 -3.01943 0
M  V30 14390 N 1305.16 0.53415 1.48272 0
M  V30 14391 C 1306.09 -0.215037 2.32508 0
M  V30 14392 C 1307.07 -0.931083 1.42355 0
M  V30 14393 O 1308.26 -0.916051 1.71237 0
M  V30 14394 C 1305.39 -1.25985 3.23643 0
M  V30 14395 C 1304.34 -0.661692 4.22854 0
M  V30 14396 C 1303.67 -1.80946 5.03153 0
M  V30 14397 C 1304.97 0.369358 5.20992 0
M  V30 14398 H 1306.66 0.488158 2.95394 0
M  V30 14399 H 1304.21 0.236206 1.4205 0
M  V30 14400 H 1306.16 -1.79195 3.81402 0
M  V30 14401 H 1304.89 -1.99268 2.58766 0
M  V30 14402 H 1303.54 -0.151082 3.66289 0
M  V30 14403 H 1303.19 -2.53077 4.34696 0
M  V30 14404 H 1302.89 -1.41513 5.70305 0
M  V30 14405 H 1304.42 -2.34526 5.63764 0
M  V30 14406 H 1305.83 -0.0758076 5.7325 0
M  V30 14407 H 1304.23 0.681301 5.9622 0
M  V30 14408 H 1305.3 1.27363 4.67875 0
M  V30 14409 N 1306.64 -1.55279 0.269478 0
M  V30 14410 C 1307.89 -1.98649 -0.349522 0
M  V30 14411 C 1308.2 -1.16125 -1.57399 0
M  V30 14412 O 1309.41 -1.49612 -2.26558 0
M  V30 14413 C 1307.86 -3.53547 -0.673224 0
M  V30 14414 C 1307.47 -4.44841 0.531119 0
M  V30 14415 C 1309.22 -4.05519 -1.25516 0
M  V30 14416 C 1307.12 -5.91119 0.182317 0
M  V30 14417 H 1306.05 -0.74193 -0.13437 0
M  V30 14418 H 1308.7 -1.79664 0.373246 0
M  V30 14419 H 1307.09 -3.68311 -1.45474 0
M  V30 14420 H 1308.26 -4.41843 1.3081 0
M  V30 14421 H 1306.58 -4.03472 1.02952 0
M  V30 14422 H 1309.17 -5.12347 -1.52984 0
M  V30 14423 H 1309.52 -3.54215 -2.18718 0
M  V30 14424 H 1310.05 -3.94172 -0.536059 0
M  V30 14425 H 1306.79 -6.46507 1.08206 0
M  V30 14426 H 1306.31 -5.97199 -0.558008 0
M  V30 14427 H 1307.99 -6.466 -0.227484 0
M  V30 14428 N 1308.12 0.00332656 -1.576 0
M  V30 14429 C 1309.34 0.703587 -1.95101 0
M  V30 14430 C 1309.77 1.66697 -0.871418 0
M  V30 14431 O 1309.13 1.80494 0.170739 0
M  V30 14432 C 1309.17 1.41457 -3.31696 0
M  V30 14433 O 1308.28 2.52885 -3.25765 0
M  V30 14434 H 1307.62 0.187396 -0.637008 0
M  V30 14435 H 1310.15 -0.0488727 -2.04542 0
M  V30 14436 H 1310.16 1.77874 -3.67185 0
M  V30 14437 H 1308.83 0.708182 -4.09826 0
M  V30 14438 H 1307.41 2.18821 -3.01947 0
M  V30 14439 N 1309.6 1.55164 0.276031 0
M  V30 14440 C 1311.01 1.66367 0.847293 0
M  V30 14441 C 1311.36 0.588692 1.8716 0
M  V30 14442 O 1310.48 -0.27035 2.14705 0
M  V30 14443 C 1311.08 3.01593 1.5436 0
M  V30 14444 C 1309.64 3.14833 2.06293 0
M  V30 14445 C 1308.78 2.62152 0.903959 0
M  V30 14446 H 1311.74 1.58613 0.0524478 0
M  V30 14447 H 1311.76 2.94412 2.41043 0
M  V30 14448 H 1311.27 3.7981 0.797849 0
M  V30 14449 H 1309.37 2.41384 2.83839 0
M  V30 14450 H 1309.48 4.21353 2.28032 0
M  V30 14451 H 1307.85 2.19233 1.29649 0
M  V30 14452 H 1308.63 3.4287 0.171765 0
M  V30 14453 N 1311.07 -0.540404 1.48045 0
M  V30 14454 C 1312.35 -1.30148 1.46017 0
M  V30 14455 C 1312.73 -2.10445 0.166171 0
M  V30 14456 O 1312.08 -2.12013 -0.852223 0
M  V30 14457 C 1312.29 -2.19177 2.71593 0
M  V30 14458 C 1313.64 -2.79655 3.19497 0
M  V30 14459 O 1314.66 -2.2947 2.72437 0
M  V30 14460 O 1313.52 -3.70912 4.01356 0
M  V30 14461 H 1310.61 -0.586879 0.582668 0
M  V30 14462 H 1313.16 -0.557918 1.60267 0
M  V30 14463 H 1311.93 -1.59556 3.57292 0
M  V30 14464 H 1311.56 -3.00798 2.60012 0
M  V30 14465 N 1312.55 -1.36459 -0.788468 0
M  V30 14466 C 1313.79 -1.32124 -1.55957 0
M  V30 14467 C 1314.16 0.0981565 -1.91749 0
M  V30 14468 O 1315.36 0.266067 -2.6748 0
M  V30 14469 C 1313.63 -2.219 -2.8017 0
M  V30 14470 S 1315.19 -2.35257 -3.70405 0
M  V30 14471 H 1312.01 -0.469279 -0.534133 0
M  V30 14472 H 1314.61 -1.72039 -0.928587 0
M  V30 14473 H 1313.31 -3.23976 -2.51928 0
M  V30 14474 H 1312.84 -1.83008 -3.48241 0
M  V30 14475 H 1314.86 -1.55077 -4.71344 0
M  V30 14476 N 1314.03 1.01274 -1.20754 0
M  V30 14477 C 1315.27 1.7647 -1.03139 0
M  V30 14478 C 1315.63 1.87157 0.428531 0
M  V30 14479 O 1316.84 2.58839 0.724973 0
M  V30 14480 C 1315.11 3.14346 -1.70063 0
M  V30 14481 S 1316.67 4.05531 -1.67602 0
M  V30 14482 H 1313.48 0.60729 -0.369756 0
M  V30 14483 H 1316.09 1.21232 -1.53372 0
M  V30 14484 H 1314.79 3.04197 -2.75486 0
M  V30 14485 H 1314.32 3.74659 -1.19977 0
M  V30 14486 H 1316.34 4.91071 -0.711623 0
M  V30 14487 N 1315.51 1.01404 1.20644 0
M  V30 14488 C 1316.74 0.719995 1.93648 0
M  V30 14489 C 1317.15 -0.722872 1.74846 0
M  V30 14490 O 1316.49 -1.50172 1.05802 0
M  V30 14491 C 1316.55 0.972637 3.46092 0
M  V30 14492 C 1316.22 2.40412 3.88653 0
M  V30 14493 C 1317.21 3.38481 3.94622 0
M  V30 14494 C 1314.9 2.74418 4.20714 0
M  V30 14495 C 1316.89 4.68619 4.32059 0
M  V30 14496 C 1314.58 4.04769 4.57826 0
M  V30 14497 C 1315.58 5.01681 4.63471 0
M  V30 14498 O 1315.27 6.297 4.99733 0
M  V30 14499 H 1315 0.263849 0.622382 0
M  V30 14500 H 1317.55 1.35741 1.54154 0
M  V30 14501 H 1315.78 0.278057 3.85699 0
M  V30 14502 H 1317.47 0.670572 4.00323 0
M  V30 14503 H 1318.24 3.13545 3.7002 0
M  V30 14504 H 1314.12 1.99675 4.15513 0
M  V30 14505 H 1317.66 5.4426 4.3638 0
M  V30 14506 H 1313.56 4.29486 4.81884 0
M  V30 14507 H 1314.32 6.3395 5.17735 0
M  V30 14508 N 1316.99 -1.36373 0.789944 0
M  V30 14509 C 1318.26 -1.9349 0.286543 0
M  V30 14510 C 1318.64 -1.7218 -1.22136 0
M  V30 14511 O 1317.99 -1.08106 -2.01309 0
M  V30 14512 C 1318.2 -3.42316 0.679749 0
M  V30 14513 C 1319.55 -4.19442 0.659791 0
M  V30 14514 O 1320.57 -3.50758 0.620256 0
M  V30 14515 O 1319.43 -5.41957 0.703159 0
M  V30 14516 H 1316.53 -0.823942 0.0710537 0
M  V30 14517 H 1319.07 -1.45551 0.872523 0
M  V30 14518 H 1317.85 -3.51485 1.7197 0
M  V30 14519 H 1317.47 -3.97542 0.0676823 0
M  V30 14520 N 1318.47 -0.542005 -1.47987 0
M  V30 14521 C 1319.43 0.203537 -2.28294 0
M  V30 14522 C 1320.43 0.856762 -1.36074 0
M  V30 14523 O 1321.62 0.71496 -1.58852 0
M  V30 14524 C 1318.75 1.29581 -3.15312 0
M  V30 14525 H 1319.94 -0.501701 -2.95674 0
M  V30 14526 H 1317.5 -0.298378 -1.53426 0
M  V30 14527 H 1318.23 2.03393 -2.5259 0
M  V30 14528 H 1318.02 0.832398 -3.83163 0
M  V30 14529 H 1319.51 1.81988 -3.75859 0
M  V30 14530 N 1319.94 1.55134 -0.277709 0
M  V30 14531 C 1321.19 1.99654 0.33833 0
M  V30 14532 C 1321.52 1.16612 1.55666 0
M  V30 14533 O 1320.77 0.224428 1.94409 0
M  V30 14534 C 1321.07 3.49182 0.762028 0
M  V30 14535 C 1320.74 4.49524 -0.351958 0
M  V30 14536 C 1319.4 4.76682 -0.657833 0
M  V30 14537 C 1321.75 5.09406 -1.10247 0
M  V30 14538 C 1319.08 5.6099 -1.71776 0
M  V30 14539 C 1321.43 5.94866 -2.15214 0
M  V30 14540 C 1320.1 6.20344 -2.46434 0
M  V30 14541 H 1319.37 0.730584 0.123804 0
M  V30 14542 H 1322.01 1.87446 -0.391961 0
M  V30 14543 H 1320.32 3.58879 1.57204 0
M  V30 14544 H 1322.02 3.81037 1.24947 0
M  V30 14545 H 1318.61 4.28475 -0.103438 0
M  V30 14546 H 1322.79 4.88446 -0.879422 0
M  V30 14547 H 1318.05 5.78975 -1.96463 0
M  V30 14548 H 1322.22 6.403 -2.73842 0
M  V30 14549 H 1319.85 6.85464 -3.28699 0
M  V30 14550 N 1321.42 0.00503138 1.57599 0
M  V30 14551 C 1322.67 -0.677979 1.89964 0
M  V30 14552 C 1322.98 -1.74657 0.88059 0
M  V30 14553 O 1324.19 -2.48455 1.09463 0
M  V30 14554 C 1322.65 -1.25708 3.37232 0
M  V30 14555 C 1322.25 -0.223045 4.47444 0
M  V30 14556 C 1324 -1.91799 3.787 0
M  V30 14557 C 1321.9 -0.812416 5.85793 0
M  V30 14558 H 1320.83 -0.256991 0.708852 0
M  V30 14559 H 1323.49 0.0663988 1.8338 0
M  V30 14560 H 1321.87 -2.05228 3.3867 0
M  V30 14561 H 1323.04 0.54794 4.57531 0
M  V30 14562 H 1321.36 0.337714 4.15028 0
M  V30 14563 H 1323.95 -2.36808 4.79402 0
M  V30 14564 H 1324.3 -2.75067 3.1248 0
M  V30 14565 H 1324.83 -1.19004 3.79583 0
M  V30 14566 H 1321.57 -0.0184031 6.55497 0
M  V30 14567 H 1321.09 -1.55244 5.79361 0
M  V30 14568 H 1322.77 -1.30952 6.33609 0
M  V30 14569 N 1322.9 -1.55308 -0.267798 0
M  V30 14570 C 1324.15 -1.7642 -1.00019 0
M  V30 14571 C 1324.48 -0.566559 -1.85752 0
M  V30 14572 O 1323.75 0.435752 -1.89556 0
M  V30 14573 C 1324.04 -3.07229 -1.87836 0
M  V30 14574 C 1323.89 -4.37358 -1.05061 0
M  V30 14575 C 1325.21 -3.34113 -2.86455 0
M  V30 14576 H 1322.33 -0.641859 -0.362197 0
M  V30 14577 H 1324.97 -1.8804 -0.272188 0
M  V30 14578 H 1323.12 -2.97454 -2.49907 0
M  V30 14579 H 1324.79 -4.59098 -0.450208 0
M  V30 14580 H 1323.03 -4.32351 -0.354242 0
M  V30 14581 H 1323.71 -5.25223 -1.69838 0
M  V30 14582 H 1326.18 -3.43715 -2.34519 0
M  V30 14583 H 1325.06 -4.26896 -3.45038 0
M  V30 14584 H 1325.32 -2.54005 -3.61848 0
M  V30 14585 N 1324.38 0.532545 -1.4833 0
M  V30 14586 C 1325.61 1.31141 -1.59642 0
M  V30 14587 C 1326.02 1.87476 -0.254835 0
M  V30 14588 O 1325.36 1.66985 0.765622 0
M  V30 14589 C 1325.42 2.50182 -2.58165 0
M  V30 14590 C 1325.08 2.14953 -4.03292 0
M  V30 14591 C 1326.08 1.70777 -4.91051 0
M  V30 14592 C 1323.77 2.25555 -4.4881 0
M  V30 14593 C 1325.76 1.37665 -6.22356 0
M  V30 14594 C 1323.45 1.92055 -5.80136 0
M  V30 14595 C 1324.45 1.48181 -6.66732 0
M  V30 14596 O 1324.13 1.15119 -7.95615 0
M  V30 14597 H 1323.87 0.405164 -0.541127 0
M  V30 14598 H 1326.42 0.649423 -1.94863 0
M  V30 14599 H 1324.65 3.19353 -2.1806 0
M  V30 14600 H 1326.34 3.12246 -2.5934 0
M  V30 14601 H 1327.1 1.62059 -4.57124 0
M  V30 14602 H 1322.98 2.5866 -3.81597 0
M  V30 14603 H 1326.53 1.03348 -6.89902 0
M  V30 14604 H 1322.42 2.00413 -6.136 0
M  V30 14605 H 1323.19 1.28539 -8.08344 0
M  V30 14606 N 1325.86 1.36875 0.78122 0
M  V30 14607 C 1327.13 1.22101 1.52809 0
M  V30 14608 C 1327.51 -0.189402 2.10249 0
M  V30 14609 O 1326.86 -1.19598 1.94701 0
M  V30 14610 C 1327.07 2.30953 2.61652 0
M  V30 14611 C 1328.42 2.68027 3.29313 0
M  V30 14612 O 1329.44 2.30058 2.71941 0
M  V30 14613 O 1328.3 3.33407 4.33015 0
M  V30 14614 H 1325.4 0.4759 0.676349 0
M  V30 14615 H 1327.94 1.48629 0.818998 0
M  V30 14616 H 1326.71 3.25443 2.17261 0
M  V30 14617 H 1326.34 2.05837 3.40172 0
M  V30 14618 N 1327.33 -1.00632 1.21289 0
M  V30 14619 C 1328.56 -1.77967 1.05524 0
M  V30 14620 C 1328.98 -1.84621 -0.395023 0
M  V30 14621 O 1328.33 -1.30664 -1.27409 0
M  V30 14622 C 1328.38 -3.21939 1.64432 0
M  V30 14623 O 1328.11 -3.15669 3.03784 0
M  V30 14624 C 1329.61 -4.1578 1.5376 0
M  V30 14625 H 1326.83 -0.559341 0.370646 0
M  V30 14626 H 1329.37 -1.26604 1.60598 0
M  V30 14627 H 1327.53 -3.70415 1.13453 0
M  V30 14628 H 1327.94 -4.06112 3.31924 0
M  V30 14629 H 1329.41 -5.14602 1.99722 0
M  V30 14630 H 1329.89 -4.36438 0.491811 0
M  V30 14631 H 1330.5 -3.73192 2.0398 0
M  V30 14632 N 1328.81 -1.02043 -1.20104 0
M  V30 14633 C 1329.76 -0.593945 -2.23027 0
M  V30 14634 C 1330.73 0.387931 -1.61506 0
M  V30 14635 O 1331.91 0.286504 -1.88637 0
M  V30 14636 C 1329.05 0.0577309 -3.45052 0
M  V30 14637 C 1328.17 -0.969169 -4.20988 0
M  V30 14638 C 1327.3 -0.288143 -5.30418 0
M  V30 14639 C 1326.34 -1.30154 -5.98102 0
M  V30 14640 N 1325.48 -0.646912 -6.99113 0
M  V30 14641 H 1330.32 -1.47623 -2.58866 0
M  V30 14642 H 1327.85 -0.738901 -1.27195 0
M  V30 14643 H 1329.81 0.452726 -4.14736 0
M  V30 14644 H 1328.44 0.90364 -3.09894 0
M  V30 14645 H 1327.49 -1.48229 -3.50332 0
M  V30 14646 H 1328.81 -1.73972 -4.67477 0
M  V30 14647 H 1327.96 0.162149 -6.06483 0
M  V30 14648 H 1326.7 0.514683 -4.84977 0
M  V30 14649 H 1325.7 -1.76218 -5.20795 0
M  V30 14650 H 1326.93 -2.10571 -6.45629 0
M  V30 14651 H 1324.88 0.135976 -6.55859 0
M  V30 14652 H 1324.79 -1.35548 -7.43749 0
M  V30 14653 H 1326.06 -0.220339 -7.79189 0
M  V30 14654 N 1330.29 1.35952 -0.797165 0
M  V30 14655 C 1331.57 1.93335 -0.2968 0
M  V30 14656 C 1331.95 1.72825 1.21222 0
M  V30 14657 O 1331.3 1.09172 2.00733 0
M  V30 14658 C 1331.51 3.41951 -0.697894 0
M  V30 14659 C 1332.85 4.19087 -0.682026 0
M  V30 14660 O 1333.88 3.50424 -0.638849 0
M  V30 14661 O 1332.74 5.41577 -0.73189 0
M  V30 14662 H 1329.83 0.823554 -0.0754223 0
M  V30 14663 H 1332.38 1.45086 -0.88023 0
M  V30 14664 H 1331.15 3.50569 -1.73831 0
M  V30 14665 H 1330.77 3.97501 -0.088764 0
M  V30 14666 N 1331.77 0.549846 1.47697 0
M  V30 14667 C 1333.18 0.11453 1.86348 0
M  V30 14668 C 1333.53 -1.31368 1.45729 0
M  V30 14669 O 1332.66 -1.98707 0.856989 0
M  V30 14670 C 1333.25 0.201072 3.38203 0
M  V30 14671 C 1331.81 -0.179162 3.75973 0
M  V30 14672 C 1330.96 0.551951 2.71751 0
M  V30 14673 H 1333.91 0.759989 1.39319 0
M  V30 14674 H 1333.93 -0.582216 3.76019 0
M  V30 14675 H 1333.44 1.24065 3.67736 0
M  V30 14676 H 1331.54 -1.22013 3.52056 0
M  V30 14677 H 1331.65 0.174273 4.78783 0
M  V30 14678 H 1330.02 -0.00411819 2.547 0
M  V30 14679 H 1330.8 1.59254 3.04127 0
M  V30 14680 N 1333.25 -1.54984 0.285932 0
M  V30 14681 C 1334.21 -2.2164 -0.583824 0
M  V30 14682 C 1335.21 -1.19764 -1.073 0
M  V30 14683 O 1336.4 -1.44598 -0.971439 0
M  V30 14684 C 1333.53 -2.8909 -1.80665 0
M  V30 14685 H 1334.72 -2.999 -0.00168109 0
M  V30 14686 H 1332.28 -1.56257 0.0366325 0
M  V30 14687 H 1333.01 -2.14869 -2.42903 0
M  V30 14688 H 1332.8 -3.63756 -1.4637 0
M  V30 14689 H 1334.29 -3.39982 -2.42491 0
M  V30 14690 N 1334.72 -0.0133892 -1.57594 0
M  V30 14691 C 1335.97 0.669624 -1.91426 0
M  V30 14692 C 1336.3 1.72675 -0.888656 0
M  V30 14693 O 1335.58 1.94288 0.0908138 0
M  V30 14694 C 1335.86 1.30051 -3.35796 0
M  V30 14695 C 1335.71 0.254021 -4.49082 0
M  V30 14696 C 1337.03 2.22297 -3.79832 0
M  V30 14697 H 1334.15 0.241958 -0.69615 0
M  V30 14698 H 1336.79 -0.0674278 -1.8988 0
M  V30 14699 H 1334.94 1.92871 -3.37243 0
M  V30 14700 H 1336.62 -0.375524 -4.59769 0
M  V30 14701 H 1334.86 -0.422267 -4.3174 0
M  V30 14702 H 1335.53 0.734756 -5.47088 0
M  V30 14703 H 1338.01 1.69481 -3.8002 0
M  V30 14704 H 1336.88 2.634 -4.81572 0
M  V30 14705 H 1337.14 3.10764 -3.14449 0
M  V30 14706 N 1336.2 1.55448 0.259558 0
M  V30 14707 C 1337.43 1.80727 1.00723 0
M  V30 14708 C 1337.85 0.587354 1.79431 0
M  V30 14709 O 1337.2 -0.443819 1.77021 0
M  V30 14710 C 1337.25 3.04064 1.95517 0
M  V30 14711 O 1336.97 4.21346 1.19996 0
M  V30 14712 C 1338.48 3.42049 2.81988 0
M  V30 14713 H 1335.7 0.601713 0.296956 0
M  V30 14714 H 1338.24 2.02486 0.286273 0
M  V30 14715 H 1336.39 2.84392 2.63058 0
M  V30 14716 H 1336.81 4.91164 1.84006 0
M  V30 14717 H 1338.28 4.31485 3.44274 0
M  V30 14718 H 1338.76 2.62059 3.52451 0
M  V30 14719 H 1339.37 3.64027 2.19918 0
M  V30 14720 N 1337.68 -0.524672 1.4861 0
M  V30 14721 C 1338.59 -1.65554 1.6622 0
M  V30 14722 C 1339.61 -1.65254 0.54471 0
M  V30 14723 O 1340.78 -1.84109 0.816454 0
M  V30 14724 C 1337.85 -3.02003 1.7028 0
M  V30 14725 C 1336.91 -3.13116 2.93695 0
M  V30 14726 C 1336.14 -4.43055 2.97553 0
M  V30 14727 O 1336.36 -5.30468 2.09667 0
M  V30 14728 O 1335.3 -4.58646 3.89779 0
M  V30 14729 H 1339.12 -1.53633 2.61974 0
M  V30 14730 H 1336.71 -0.698354 1.32073 0
M  V30 14731 H 1338.59 -3.83143 1.75441 0
M  V30 14732 H 1337.27 -3.14236 0.777002 0
M  V30 14733 H 1336.17 -2.31251 2.94064 0
M  V30 14734 H 1337.51 -3.058 3.85677 0
M  V30 14735 N 1339.16 -1.37287 -0.77395 0
M  V30 14736 C 1340.4 -1.33577 -1.53391 0
M  V30 14737 C 1340.76 0.0798979 -1.92234 0
M  V30 14738 O 1340.05 1.03803 -1.61045 0
M  V30 14739 C 1340.25 -2.20667 -2.81142 0
M  V30 14740 C 1340.08 -3.70559 -2.54786 0
M  V30 14741 C 1338.85 -4.39675 -2.49025 0
M  V30 14742 C 1341.04 -4.63472 -2.22932 0
M  V30 14743 N 1339.03 -5.75121 -2.14729 0
M  V30 14744 C 1340.4 -5.87279 -1.98756 0
M  V30 14745 C 1342.45 -4.51879 -2.09068 0
M  V30 14746 C 1341.15 -7.00793 -1.62117 0
M  V30 14747 C 1343.18 -5.65276 -1.7383 0
M  V30 14748 C 1342.54 -6.88132 -1.50513 0
M  V30 14749 H 1338.64 -0.544075 -0.561699 0
M  V30 14750 H 1341.23 -1.72487 -0.903115 0
M  V30 14751 H 1339.4 -1.83976 -3.42063 0
M  V30 14752 H 1341.13 -2.08231 -3.47019 0
M  V30 14753 H 1337.88 -3.92653 -2.64804 0
M  V30 14754 H 1338.31 -6.46696 -2.00284 0
M  V30 14755 H 1342.95 -3.57468 -2.25779 0
M  V30 14756 H 1340.67 -7.9514 -1.44145 0
M  V30 14757 H 1344.25 -5.58276 -1.63765 0
M  V30 14758 H 1343.13 -7.74391 -1.23648 0
M  V30 14759 N 1340.64 0.999871 -1.21821 0
M  V30 14760 C 1341.88 1.74098 -1.04009 0
M  V30 14761 C 1342.22 1.89499 0.424716 0
M  V30 14762 O 1341.49 1.43306 1.31505 0
M  V30 14763 C 1341.77 3.1506 -1.74382 0
M  V30 14764 C 1341.63 3.0735 -3.28414 0
M  V30 14765 C 1342.95 4.1409 -1.49055 0
M  V30 14766 H 1340.06 0.631935 -0.379245 0
M  V30 14767 H 1342.71 1.16534 -1.50066 0
M  V30 14768 H 1340.86 3.64206 -1.35227 0
M  V30 14769 H 1342.53 2.65879 -3.76969 0
M  V30 14770 H 1340.77 2.44325 -3.58452 0
M  V30 14771 H 1341.44 4.07069 -3.72825 0
M  V30 14772 H 1343.92 3.73672 -1.83054 0
M  V30 14773 H 1342.79 5.10853 -2.008 0
M  V30 14774 H 1343.06 4.40085 -0.421641 0
M  V30 14775 N 1342.11 1.02678 1.19562 0
M  V30 14776 C 1343.04 0.626359 2.24942 0
M  V30 14777 C 1344.03 -0.363612 1.66168 0
M  V30 14778 O 1345.21 -0.246793 1.92625 0
M  V30 14779 C 1342.34 -0.0257912 3.4729 0
M  V30 14780 C 1341.29 0.886237 4.18724 0
M  V30 14781 C 1340.62 0.0993081 5.34608 0
M  V30 14782 C 1341.92 2.19901 4.73752 0
M  V30 14783 H 1343.61 1.50729 2.58691 0
M  V30 14784 H 1341.16 0.726195 1.24348 0
M  V30 14785 H 1343.11 -0.317545 4.20202 0
M  V30 14786 H 1341.84 -0.941511 3.12735 0
M  V30 14787 H 1340.5 1.16215 3.47692 0
M  V30 14788 H 1340.14 -0.81838 4.96298 0
M  V30 14789 H 1339.84 0.706776 5.83334 0
M  V30 14790 H 1341.37 -0.185754 6.10317 0
M  V30 14791 H 1342.78 1.96892 5.3843 0
M  V30 14792 H 1341.18 2.75821 5.32956 0
M  V30 14793 H 1342.25 2.85509 3.91934 0
M  V30 14794 N 1343.59 -1.35528 0.804364 0
M  V30 14795 C 1344.56 -2.28153 0.21885 0
M  V30 14796 C 1345.56 -1.49486 -0.592511 0
M  V30 14797 O 1346.75 -1.69274 -0.411319 0
M  V30 14798 C 1343.88 -3.33736 -0.695195 0
M  V30 14799 H 1345.07 -2.81446 1.03576 0
M  V30 14800 H 1342.62 -1.45345 0.574854 0
M  V30 14801 H 1343.36 -2.85625 -1.53587 0
M  V30 14802 H 1343.14 -3.91931 -0.115143 0
M  V30 14803 H 1344.63 -4.02872 -1.09925 0
M  V30 14804 N 1345.07 -0.557671 -1.47404 0
M  V30 14805 C 1345.98 0.19289 -2.33806 0
M  V30 14806 C 1347 0.911424 -1.4822 0
M  V30 14807 O 1348.17 0.880214 -1.81147 0
M  V30 14808 C 1345.24 1.20937 -3.24923 0
M  V30 14809 C 1344.3 0.498209 -4.26399 0
M  V30 14810 C 1343.53 1.46626 -5.13163 0
M  V30 14811 O 1343.76 2.70111 -5.0239 0
M  V30 14812 O 1342.69 0.990497 -5.93694 0
M  V30 14813 H 1346.52 -0.515861 -2.99287 0
M  V30 14814 H 1344.1 -0.318283 -1.4597 0
M  V30 14815 H 1345.98 1.7961 -3.81206 0
M  V30 14816 H 1344.66 1.90003 -2.6207 0
M  V30 14817 H 1343.56 -0.129736 -3.73875 0
M  V30 14818 H 1344.9 -0.151015 -4.91968 0
M  V30 14819 N 1346.55 1.54831 -0.294147 0
M  V30 14820 C 1347.48 2.26226 0.57827 0
M  V30 14821 C 1348.46 1.25928 1.14351 0
M  V30 14822 O 1349.65 1.54687 1.17412 0
M  V30 14823 C 1346.78 2.99783 1.75349 0
M  V30 14824 C 1345.73 4.07171 1.31892 0
M  V30 14825 C 1345.06 4.68406 2.57876 0
M  V30 14826 C 1346.36 5.20313 0.455167 0
M  V30 14827 H 1348.05 2.99395 -0.0171936 0
M  V30 14828 H 1345.6 1.43997 -0.00970944 0
M  V30 14829 H 1347.55 3.48448 2.36986 0
M  V30 14830 H 1346.27 2.24181 2.37509 0
M  V30 14831 H 1344.93 3.59346 0.725653 0
M  V30 14832 H 1344.58 3.89451 3.18335 0
M  V30 14833 H 1344.28 5.40927 2.29502 0
M  V30 14834 H 1345.8 5.1983 3.20327 0
M  V30 14835 H 1347.22 5.64913 0.977026 0
M  V30 14836 H 1345.61 5.99512 0.265501 0
M  V30 14837 H 1346.68 4.82088 -0.521434 0
M  V30 14838 N 1348.03 0.0217466 1.57585 0
M  V30 14839 C 1349.27 -0.659463 1.91778 0
M  V30 14840 C 1349.61 -1.72201 0.897801 0
M  V30 14841 O 1348.88 -1.94333 -0.080509 0
M  V30 14842 C 1349.16 -1.28269 3.36481 0
M  V30 14843 C 1349.02 -0.230201 4.49211 0
M  V30 14844 C 1350.34 -2.20279 3.81005 0
M  V30 14845 H 1347.46 -0.238263 0.697424 0
M  V30 14846 H 1350.1 0.0774967 1.89842 0
M  V30 14847 H 1348.25 -1.9108 3.38262 0
M  V30 14848 H 1349.92 0.399901 4.59563 0
M  V30 14849 H 1348.16 0.445157 4.3151 0
M  V30 14850 H 1348.83 -0.705732 5.4747 0
M  V30 14851 H 1351.31 -1.67463 3.80914 0
M  V30 14852 H 1350.19 -2.60842 4.82962 0
M  V30 14853 H 1350.45 -3.09092 3.16093 0
M  V30 14854 N 1349.51 -1.55583 -0.251311 0
M  V30 14855 C 1350.47 -1.89148 -1.29443 0
M  V30 14856 C 1351.47 -0.7676 -1.41296 0
M  V30 14857 O 1352.66 -1.03563 -1.40073 0
M  V30 14858 C 1349.79 -2.11601 -2.67279 0
M  V30 14859 H 1350.98 -2.82416 -1.00901 0
M  V30 14860 H 1348.54 -1.48407 -0.490398 0
M  V30 14861 H 1349.27 -1.20787 -3.00967 0
M  V30 14862 H 1349.06 -2.93449 -2.60058 0
M  V30 14863 H 1350.55 -2.38768 -3.42607 0
M  V30 14864 N 1350.98 0.516783 -1.48886 0
M  V30 14865 C 1351.93 1.62003 -1.64389 0
M  V30 14866 C 1352.9 1.58842 -0.485633 0
M  V30 14867 O 1354.09 1.77068 -0.710742 0
M  V30 14868 C 1351.23 3.00218 -1.70186 0
M  V30 14869 C 1350.34 3.13513 -2.97209 0
M  V30 14870 C 1349.47 4.42366 -2.94084 0
M  V30 14871 C 1348.51 4.49238 -4.15754 0
M  V30 14872 N 1347.65 5.69497 -4.10631 0
M  V30 14873 H 1352.49 1.48093 -2.58597 0
M  V30 14874 H 1350.03 0.720788 -1.2823 0
M  V30 14875 H 1351.98 3.80307 -1.71529 0
M  V30 14876 H 1350.61 3.12868 -0.794578 0
M  V30 14877 H 1349.67 2.26589 -3.05551 0
M  V30 14878 H 1350.98 3.14451 -3.87197 0
M  V30 14879 H 1350.13 5.3076 -2.93902 0
M  V30 14880 H 1348.87 4.43969 -2.01847 0
M  V30 14881 H 1347.88 3.59248 -4.16198 0
M  V30 14882 H 1349.1 4.49363 -5.09166 0
M  V30 14883 H 1347.05 5.71973 -3.21222 0
M  V30 14884 H 1346.96 5.71985 -4.94337 0
M  V30 14885 H 1348.23 6.60142 -4.14527 0
M  V30 14886 N 1352.46 1.37696 0.766659 0
M  V30 14887 C 1353.39 1.36576 1.89392 0
M  V30 14888 C 1354.37 0.233597 1.68488 0
M  V30 14889 O 1355.56 0.434719 1.89272 0
M  V30 14890 C 1352.69 1.17705 3.26746 0
M  V30 14891 C 1351.64 2.27987 3.62224 0
M  V30 14892 C 1350.97 1.94235 4.98174 0
M  V30 14893 C 1352.27 3.70195 3.68447 0
M  V30 14894 H 1353.96 2.30905 1.90587 0
M  V30 14895 H 1351.51 1.11148 0.915538 0
M  V30 14896 H 1353.46 1.15551 4.05248 0
M  V30 14897 H 1352.18 0.198334 3.25997 0
M  V30 14898 H 1350.84 2.29306 2.86032 0
M  V30 14899 H 1350.49 0.948796 4.93971 0
M  V30 14900 H 1350.19 2.68086 5.2288 0
M  V30 14901 H 1351.72 1.93676 5.7907 0
M  V30 14902 H 1353.13 3.70978 4.37091 0
M  V30 14903 H 1351.53 4.43142 4.04654 0
M  V30 14904 H 1352.6 4.03453 2.68986 0
M  V30 14905 N 1353.94 -0.993397 1.22349 0
M  V30 14906 C 1354.85 -2.11771 1.00947 0
M  V30 14907 C 1355.87 -1.73949 -0.0420679 0
M  V30 14908 O 1357.04 -2.00837 0.150548 0
M  V30 14909 C 1354.11 -3.41654 0.589359 0
M  V30 14910 C 1353.17 -3.93579 1.71446 0
M  V30 14911 C 1352.4 -5.17264 1.3143 0
M  V30 14912 O 1352.62 -5.70074 0.192876 0
M  V30 14913 O 1351.56 -5.62929 2.13059 0
M  V30 14914 H 1355.38 -2.32708 1.95142 0
M  V30 14915 H 1352.97 -1.10144 1.00939 0
M  V30 14916 H 1354.85 -4.19813 0.365403 0
M  V30 14917 H 1353.53 -3.22077 -0.323738 0
M  V30 14918 H 1352.43 -3.16596 1.99294 0
M  V30 14919 H 1353.77 -4.17588 2.6054 0
M  V30 14920 N 1355.42 -1.03311 -1.19015 0
M  V30 14921 C 1356.69 -0.646539 -1.84606 0
M  V30 14922 C 1357.07 0.87449 -1.92135 0
M  V30 14923 O 1356.42 1.77291 -1.44154 0
M  V30 14924 C 1356.63 -1.31354 -3.23338 0
M  V30 14925 C 1357.98 -1.43949 -3.99455 0
M  V30 14926 O 1359 -1.27104 -3.32751 0
M  V30 14927 O 1357.86 -1.71328 -5.1895 0
M  V30 14928 H 1354.96 -0.225267 -0.795728 0
M  V30 14929 H 1357.5 -1.13152 -1.2647 0
M  V30 14930 H 1356.28 -2.3521 -3.12717 0
M  V30 14931 H 1355.9 -0.816688 -3.89122 0
M  V30 14932 N 1356.9 1.35099 -0.81154 0
M  V30 14933 C 1358.31 1.81082 -0.454543 0
M  V30 14934 C 1358.66 1.67361 1.02395 0
M  V30 14935 O 1357.78 1.20707 1.79607 0
M  V30 14936 C 1358.38 3.2877 -0.818274 0
M  V30 14937 C 1356.94 3.72877 -0.513808 0
M  V30 14938 C 1356.08 2.57008 -1.04125 0
M  V30 14939 H 1359.03 1.23007 -1.00274 0
M  V30 14940 H 1359.06 3.80318 -0.117683 0
M  V30 14941 H 1358.57 3.38725 -1.89439 0
M  V30 14942 H 1356.67 3.68468 0.553368 0
M  V30 14943 H 1356.78 4.67455 -1.0499 0
M  V30 14944 H 1355.15 2.5045 -0.463337 0
M  V30 14945 H 1355.93 2.69738 -2.12358 0
M  V30 14946 N 1358.37 0.56548 1.47106 0
M  V30 14947 C 1359.79 0.225855 1.57994 0
M  V30 14948 C 1359.99 -1.27173 1.56299 0
M  V30 14949 O 1359.05 -2.05242 1.47078 0
M  V30 14950 C 1360.36 0.859829 2.88145 0
M  V30 14951 C 1361.91 0.831821 3.01744 0
M  V30 14952 C 1362.38 1.44502 4.34607 0
M  V30 14953 N 1363.87 1.40857 4.41263 0
M  V30 14954 C 1364.61 1.85258 5.42648 0
M  V30 14955 N 1364.1 2.37553 6.508 0
M  V30 14956 N 1365.9 1.76279 5.33744 0
M  V30 14957 H 1358.05 1.53837 1.46451 0
M  V30 14958 H 1360.31 0.642013 0.697512 0
M  V30 14959 H 1360.02 1.91264 2.95146 0
M  V30 14960 H 1359.89 0.357762 3.755 0
M  V30 14961 H 1362.28 -0.212319 2.94335 0
M  V30 14962 H 1362.36 1.37173 2.1591 0
M  V30 14963 H 1362 2.48827 4.42773 0
M  V30 14964 H 1361.93 0.880479 5.19187 0
M  V30 14965 H 1364.42 1.02614 3.63702 0
M  V30 14966 H 1364.74 2.69335 7.24347 0
M  V30 14967 H 1363.08 2.41569 6.51667 0
M  V30 14968 H 1366.27 1.35195 4.48152 0
M  V30 14969 H 1366.45 2.11199 6.12616 0
M  V30 14970 N 1359.85 -1.54672 0.302354 0
M  V30 14971 C 1360.76 -2.27251 -0.582578 0
M  V30 14972 C 1361.78 -1.30819 -1.14727 0
M  V30 14973 O 1362.95 -1.63803 -1.17177 0
M  V30 14974 C 1360.02 -3.00016 -1.73757 0
M  V30 14975 C 1359.08 -4.11988 -1.20682 0
M  V30 14976 C 1358.31 -4.81273 -2.30676 0
M  V30 14977 O 1358.54 -4.49927 -3.50602 0
M  V30 14978 O 1357.47 -5.68647 -1.97291 0
M  V30 14979 H 1361.3 -3.03699 0.00621365 0
M  V30 14980 H 1358.88 -1.49242 0.0687684 0
M  V30 14981 H 1360.76 -3.45652 -2.41045 0
M  V30 14982 H 1359.44 -2.26462 -2.31294 0
M  V30 14983 H 1358.35 -3.70749 -0.499625 0
M  V30 14984 H 1359.68 -4.87524 -0.676858 0
M  V30 14985 N 1361.33 -0.0301034 -1.57571 0
M  V30 14986 C 1362.28 0.951421 -2.10277 0
M  V30 14987 C 1363.25 1.3224 -1.00508 0
M  V30 14988 O 1364.43 1.41554 -1.27934 0
M  V30 14989 C 1361.57 2.2282 -2.63525 0
M  V30 14990 C 1360.69 1.91359 -3.87306 0
M  V30 14991 C 1359.82 3.13339 -4.28943 0
M  V30 14992 C 1358.86 2.77701 -5.4548 0
M  V30 14993 N 1358 3.9231 -5.82269 0
M  V30 14994 H 1362.84 0.495049 -2.93859 0
M  V30 14995 H 1360.37 0.232756 -1.45247 0
M  V30 14996 H 1362.33 2.97502 -2.92487 0
M  V30 14997 H 1360.96 2.66072 -1.82772 0
M  V30 14998 H 1360.01 1.06915 -3.65066 0
M  V30 14999 H 1361.33 1.61112 -4.72064 0
M  V30 15000 H 1360.48 3.9634 -4.59347 0
M  V30 15001 H 1359.22 3.46747 -3.42954 0
M  V30 15002 H 1358.22 1.93113 -5.14769 0
M  V30 15003 H 1359.45 2.45508 -6.33169 0
M  V30 15004 H 1357.39 4.25559 -4.99235 0
M  V30 15005 H 1357.31 3.65691 -6.61669 0
M  V30 15006 H 1358.58 4.76012 -6.17279 0
M  V30 15007 N 1362.81 1.55714 0.243056 0
M  V30 15008 C 1363.76 1.87031 1.30397 0
M  V30 15009 C 1364.74 0.731497 1.43311 0
M  V30 15010 O 1365.93 0.9935 1.46487 0
M  V30 15011 C 1363.06 2.17185 2.65868 0
M  V30 15012 C 1362.15 3.37403 2.56944 0
M  V30 15013 N 1362.54 4.56575 2.17653 0
M  V30 15014 C 1360.84 3.4059 2.87949 0
M  V30 15015 C 1361.54 5.38715 2.19455 0
M  V30 15016 N 1360.52 4.77875 2.59108 0
M  V30 15017 H 1364.32 2.76697 0.990755 0
M  V30 15018 H 1361.83 1.55992 0.451675 0
M  V30 15019 H 1363.83 2.37787 3.42437 0
M  V30 15020 H 1362.49 1.28819 2.98053 0
M  V30 15021 H 1363.5 4.82129 1.89134 0
M  V30 15022 H 1360.18 2.62506 3.24648 0
M  V30 15023 H 1361.57 6.44066 1.91385 0
M  V30 15024 N 1364.29 -0.50888 1.49158 0
M  V30 15025 C 1365.53 -1.2635 1.58247 0
M  V30 15026 C 1365.86 -1.92677 0.265654 0
M  V30 15027 O 1365.12 -1.80931 -0.745818 0
M  V30 15028 C 1365.42 -2.35875 2.6851 0
M  V30 15029 C 1365.08 -1.87059 4.10268 0
M  V30 15030 C 1363.74 -1.73464 4.48847 0
M  V30 15031 C 1366.1 -1.50429 4.9902 0
M  V30 15032 C 1363.42 -1.21606 5.73959 0
M  V30 15033 C 1365.78 -1.00026 6.24642 0
M  V30 15034 C 1364.44 -0.850646 6.62058 0
M  V30 15035 H 1363.71 -0.462346 0.579066 0
M  V30 15036 H 1366.36 -0.565528 1.82959 0
M  V30 15037 H 1364.66 -3.11428 2.37739 0
M  V30 15038 H 1366.36 -2.9395 2.72753 0
M  V30 15039 H 1362.95 -1.98597 3.79812 0
M  V30 15040 H 1367.13 -1.59782 4.69876 0
M  V30 15041 H 1362.39 -1.08728 6.01655 0
M  V30 15042 H 1366.56 -0.707608 6.92796 0
M  V30 15043 H 1364.19 -0.446627 7.58887 0
M  V30 15044 N 1365.76 -1.381 -0.759346 0
M  V30 15045 C 1366.71 -1.34972 -1.89434 0
M  V30 15046 C 1367.71 -0.236499 -1.67741 0
M  V30 15047 O 1368.91 -0.405218 -1.7538 0
M  V30 15048 H 1365.29 -0.420922 -0.62316 0
M  V30 15049 H 1367.26 -2.3076 -1.89189 0
M  V30 15050 C 1366.01 -1.18594 -3.2685 0
M  V30 15051 H 1365.33 -2.03514 -3.44125 0
M  V30 15052 H 1366.77 -1.20458 -4.06529 0
M  V30 15053 C 1365.23 0.107562 -3.36728 0
M  V30 15054 O 1365.76 1.08668 -3.86722 0
M  V30 15055 N 1363.97 0.162455 -2.90146 0
M  V30 15056 H 1363.51 -0.634985 -2.49651 0
M  V30 15057 H 1363.47 1.02751 -2.97136 0
M  V30 15058 N 1367.24 0.986894 -1.22875 0
M  V30 15059 C 1368.17 2.09628 -1.0285 0
M  V30 15060 C 1369.15 1.70019 0.0525118 0
M  V30 15061 O 1370.34 1.93883 -0.110874 0
M  V30 15062 C 1367.47 3.41866 -0.61194 0
M  V30 15063 C 1366.42 3.95351 -1.63956 0
M  V30 15064 C 1365.75 5.23707 -1.07865 0
M  V30 15065 C 1367.05 4.25354 -3.03102 0
M  V30 15066 H 1368.74 2.26639 -1.95641 0
M  V30 15067 H 1366.29 1.0891 -0.942048 0
M  V30 15068 H 1368.24 4.18893 -0.458936 0
M  V30 15069 H 1366.97 3.24701 0.35164 0
M  V30 15070 H 1365.62 3.20462 -1.78045 0
M  V30 15071 H 1365.27 5.02888 -0.106246 0
M  V30 15072 H 1364.97 5.60459 -1.76522 0
M  V30 15073 H 1366.5 6.03362 -0.937359 0
M  V30 15074 H 1367.91 4.93156 -2.92353 0
M  V30 15075 H 1366.31 4.73292 -3.68938 0
M  V30 15076 H 1367.38 3.32887 -3.52583 0
M  V30 15077 N 1368.72 1.0394 1.18466 0
M  V30 15078 C 1369.96 0.750905 1.90107 0
M  V30 15079 C 1370.32 -0.708278 1.78458 0
M  V30 15080 O 1371.53 -1.11033 2.44796 0
M  V30 15081 C 1369.8 1.20259 3.3656 0
M  V30 15082 S 1371.36 1.03954 4.26308 0
M  V30 15083 H 1368.17 0.273061 0.656475 0
M  V30 15084 H 1370.78 1.33143 1.43154 0
M  V30 15085 H 1369.48 2.26 3.42567 0
M  V30 15086 H 1369.01 0.615804 3.8855 0
M  V30 15087 H 1371.03 -0.0437629 4.96181 0
M  V30 15088 N 1370.2 -1.34667 0.818693 0
M  V30 15089 C 1371.13 -2.32134 0.252239 0
M  V30 15090 C 1372.11 -1.58044 -0.628982 0
M  V30 15091 O 1373.29 -1.86049 -0.55674 0
M  V30 15092 C 1370.42 -3.42249 -0.590183 0
M  V30 15093 C 1369.38 -4.27562 0.193547 0
M  V30 15094 C 1368.7 -5.29107 -0.771349 0
M  V30 15095 C 1370 -5.03205 1.39936 0
M  V30 15096 H 1371.7 -2.79758 1.06657 0
M  V30 15097 H 1369.24 -1.34502 0.514325 0
M  V30 15098 H 1371.2 -4.09445 -0.996616 0
M  V30 15099 H 1369.92 -2.93262 -1.43752 0
M  V30 15100 H 1368.58 -3.61962 0.581297 0
M  V30 15101 H 1368.23 -4.76384 -1.61453 0
M  V30 15102 H 1367.93 -5.87063 -0.251201 0
M  V30 15103 H 1369.45 -5.99174 -1.17573 0
M  V30 15104 H 1370.87 -5.6328 1.06717 0
M  V30 15105 H 1369.26 -5.70715 1.85485 0
M  V30 15106 H 1370.33 -4.33145 2.17976 0
M  V30 15107 N 1371.68 -0.573274 -1.46804 0
M  V30 15108 C 1372.59 0.168081 -2.33997 0
M  V30 15109 C 1373.6 0.895652 -1.49178 0
M  V30 15110 O 1374.78 0.860951 -1.8207 0
M  V30 15111 C 1371.84 1.17483 -3.26188 0
M  V30 15112 C 1370.9 0.452956 -4.26904 0
M  V30 15113 C 1370.14 1.41175 -5.1469 0
M  V30 15114 O 1370.36 2.64767 -5.05227 0
M  V30 15115 O 1369.29 0.927472 -5.94711 0
M  V30 15116 H 1373.12 -0.547576 -2.98723 0
M  V30 15117 H 1370.71 -0.333747 -1.45624 0
M  V30 15118 H 1372.59 1.75557 -3.8309 0
M  V30 15119 H 1371.26 1.87213 -2.6407 0
M  V30 15120 H 1370.17 -0.169383 -3.73716 0
M  V30 15121 H 1371.5 -0.203186 -4.9178 0
M  V30 15122 N 1373.15 1.5451 -0.310553 0
M  V30 15123 C 1374.06 2.27557 0.570518 0
M  V30 15124 C 1375.08 1.31426 1.14032 0
M  V30 15125 O 1376.26 1.64423 1.16306 0
M  V30 15126 C 1373.32 3.00933 1.72163 0
M  V30 15127 C 1372.38 4.12623 1.18495 0
M  V30 15128 C 1371.62 4.8249 2.28121 0
M  V30 15129 O 1371.84 4.5178 3.48211 0
M  V30 15130 O 1370.77 5.69686 1.94273 0
M  V30 15131 H 1374.6 3.03692 -0.0223195 0
M  V30 15132 H 1372.18 1.49203 -0.0766821 0
M  V30 15133 H 1374.07 3.46925 2.39208 0
M  V30 15134 H 1372.74 2.27685 2.3009 0
M  V30 15135 H 1371.65 3.71008 0.479956 0
M  V30 15136 H 1372.98 4.87876 0.650994 0
M  V30 15137 N 1374.63 0.0384594 1.57553 0
M  V30 15138 C 1376.05 -0.318006 1.564 0
M  V30 15139 C 1376.25 -1.72287 1.04496 0
M  V30 15140 O 1375.31 -2.42722 0.695861 0
M  V30 15141 C 1376.62 -0.158079 3.00284 0
M  V30 15142 C 1378.17 -0.230143 3.12153 0
M  V30 15143 C 1378.64 -0.0988948 4.57893 0
M  V30 15144 N 1380.13 -0.15558 4.62939 0
M  V30 15145 C 1380.87 -0.077948 5.73347 0
M  V30 15146 N 1380.36 0.0513054 6.92781 0
M  V30 15147 N 1382.16 -0.132612 5.61944 0
M  V30 15148 H 1374.31 0.957014 1.89618 0
M  V30 15149 H 1376.57 0.370396 0.872646 0
M  V30 15150 H 1376.28 0.810032 3.42245 0
M  V30 15151 H 1376.15 -0.924413 3.65697 0
M  V30 15152 H 1378.54 -1.18872 2.70099 0
M  V30 15153 H 1378.62 0.56673 2.49443 0
M  V30 15154 H 1378.26 0.856301 5.00629 0
M  V30 15155 H 1378.19 -0.91475 5.18594 0
M  V30 15156 H 1380.68 -0.255245 3.77037 0
M  V30 15157 H 1381 0.103595 7.72731 0
M  V30 15158 H 1379.34 0.0862166 6.94947 0
M  V30 15159 H 1382.53 -0.232056 4.67524 0
M  V30 15160 H 1382.71 -0.0686506 6.47964 0
M  V30 15161 N 1376.11 -1.55841 -0.234795 0
M  V30 15162 C 1377.39 -1.69008 -0.984665 0
M  V30 15163 C 1377.77 -0.581882 -2.02922 0
M  V30 15164 O 1377.12 0.412998 -2.24737 0
M  V30 15165 C 1377.33 -3.09796 -1.60708 0
M  V30 15166 C 1378.67 -3.68784 -2.10436 0
M  V30 15167 O 1379.7 -3.12674 -1.70627 0
M  V30 15168 O 1378.56 -4.67175 -2.83567 0
M  V30 15169 H 1375.65 -0.68786 -0.459105 0
M  V30 15170 H 1378.2 -1.68166 -0.227623 0
M  V30 15171 H 1376.97 -3.81908 -0.852169 0
M  V30 15172 H 1376.59 -3.147 -2.43001 0
M  V30 15173 N 1377.59 0.500963 -1.49426 0
M  V30 15174 C 1378.84 1.25427 -1.60124 0
M  V30 15175 C 1379.19 1.90288 -0.284312 0
M  V30 15176 O 1378.48 1.77741 0.715459 0
M  V30 15177 C 1378.68 2.34448 -2.69757 0
M  V30 15178 C 1378.51 1.80278 -4.11983 0
M  V30 15179 C 1377.28 1.61577 -4.7877 0
M  V30 15180 C 1379.47 1.31462 -4.97215 0
M  V30 15181 N 1377.46 1.02337 -6.0531 0
M  V30 15182 C 1378.83 0.843562 -6.14235 0
M  V30 15183 C 1380.88 1.20035 -4.83214 0
M  V30 15184 C 1379.59 0.269543 -7.18795 0
M  V30 15185 C 1381.61 0.640304 -5.87924 0
M  V30 15186 C 1380.97 0.179474 -7.04171 0
M  V30 15187 H 1377.07 0.448932 -0.6403 0
M  V30 15188 H 1379.66 0.561377 -1.86431 0
M  V30 15189 H 1377.83 3.01198 -2.45223 0
M  V30 15190 H 1379.56 3.01487 -2.69977 0
M  V30 15191 H 1376.31 1.85946 -4.3557 0
M  V30 15192 H 1376.74 0.746441 -6.72872 0
M  V30 15193 H 1381.38 1.54263 -3.93653 0
M  V30 15194 H 1379.1 -0.0849963 -8.08055 0
M  V30 15195 H 1382.68 0.554669 -5.7915 0
M  V30 15196 H 1381.56 -0.247125 -7.83811 0
M  V30 15197 N 1379.07 1.38501 0.752011 0
M  V30 15198 C 1380 1.38577 1.87933 0
M  V30 15199 C 1380.98 0.251454 1.68231 0
M  V30 15200 O 1382.16 0.45477 1.888 0
M  V30 15201 C 1379.29 1.21164 3.25479 0
M  V30 15202 C 1378.25 2.31816 3.59785 0
M  V30 15203 C 1377.57 1.99508 4.96085 0
M  V30 15204 C 1378.87 3.74082 3.645 0
M  V30 15205 H 1380.57 2.32913 1.88127 0
M  V30 15206 H 1378.11 1.12113 0.903698 0
M  V30 15207 H 1380.07 1.19842 4.04 0
M  V30 15208 H 1378.79 0.232899 3.25769 0
M  V30 15209 H 1377.45 2.32327 2.83584 0
M  V30 15210 H 1377.1 1.00114 4.92936 0
M  V30 15211 H 1376.8 2.73617 5.20007 0
M  V30 15212 H 1378.32 1.99807 5.76983 0
M  V30 15213 H 1379.74 3.75593 4.33131 0
M  V30 15214 H 1378.13 4.47409 3.99931 0
M  V30 15215 H 1379.2 4.06284 2.64692 0
M  V30 15216 N 1380.55 -0.980364 1.23396 0
M  V30 15217 C 1381.96 -1.53622 1.061 0
M  V30 15218 C 1382.31 -1.92648 -0.371645 0
M  V30 15219 O 1381.43 -1.76051 -1.25837 0
M  V30 15220 C 1382.03 -2.79159 1.91979 0
M  V30 15221 C 1380.59 -3.31144 1.78943 0
M  V30 15222 C 1379.73 -2.04135 1.87681 0
M  V30 15223 H 1382.68 -0.800047 1.37058 0
M  V30 15224 H 1382.71 -3.52011 1.4446 0
M  V30 15225 H 1382.22 -2.50723 2.96242 0
M  V30 15226 H 1380.32 -3.64459 0.774634 0
M  V30 15227 H 1380.43 -4.009 2.62329 0
M  V30 15228 H 1378.8 -2.18271 1.31262 0
M  V30 15229 H 1379.58 -1.78081 2.93499 0
M  V30 15230 N 1382.02 -1.04567 -1.17913 0
M  V30 15231 C 1383.27 -0.750538 -1.87647 0
M  V30 15232 C 1383.59 0.72423 -1.81052 0
M  V30 15233 O 1382.86 1.52292 -1.23223 0
M  V30 15234 H 1381.44 -0.274636 -0.694683 0
M  V30 15235 H 1384.1 -1.32349 -1.43072 0
M  V30 15236 H 1383.2 -1.05987 -2.93553 0
M  V30 15237 N 1383.5 1.34231 -0.825823 0
M  V30 15238 C 1384.43 2.28261 -0.207234 0
M  V30 15239 C 1385.45 1.51159 0.604554 0
M  V30 15240 O 1386.64 1.7315 0.43376 0
M  V30 15241 C 1383.74 3.30991 0.727868 0
M  V30 15242 C 1382.91 4.3738 -0.0417267 0
M  V30 15243 C 1381.97 5.19854 0.81474 0
M  V30 15244 O 1380.99 5.68612 0.25867 0
M  V30 15245 N 1382.2 5.39849 2.1341 0
M  V30 15246 H 1384.96 2.81986 -1.0151 0
M  V30 15247 H 1382.52 1.46785 -0.683056 0
M  V30 15248 H 1384.51 3.83065 1.3055 0
M  V30 15249 H 1383.08 2.7764 1.43647 0
M  V30 15250 H 1382.3 3.85983 -0.800686 0
M  V30 15251 H 1383.59 5.05581 -0.571395 0
M  V30 15252 H 1382.99 5.01914 2.60958 0
M  V30 15253 H 1381.55 5.95029 2.66052 0
M  V30 15254 N 1384.98 0.581051 1.46498 0
M  V30 15255 C 1386.39 0.154032 1.86064 0
M  V30 15256 C 1386.74 -1.28247 1.48483 0
M  V30 15257 O 1385.87 -1.96845 0.898945 0
M  V30 15258 C 1386.46 0.272764 3.377 0
M  V30 15259 C 1385.02 -0.0993724 3.76269 0
M  V30 15260 C 1384.17 0.60947 2.70519 0
M  V30 15261 H 1387.12 0.78937 1.37676 0
M  V30 15262 H 1387.14 -0.502326 3.7717 0
M  V30 15263 H 1386.65 1.31837 3.65021 0
M  V30 15264 H 1384.75 -1.14517 3.54565 0
M  V30 15265 H 1384.87 0.275791 4.78306 0
M  V30 15266 H 1383.23 0.0499083 2.54651 0
M  V30 15267 H 1384.01 1.65669 3.0068 0
M  V30 15268 N 1386.46 -1.54343 0.318742 0
M  V30 15269 C 1387.7 -2.00777 -0.285699 0
M  V30 15270 C 1388.04 -1.20664 -1.52164 0
M  V30 15271 O 1387.31 -0.287674 -1.92361 0
M  V30 15272 C 1387.59 -3.54641 -0.624649 0
M  V30 15273 C 1387.45 -4.45483 0.621663 0
M  V30 15274 C 1388.77 -4.15729 -1.4442 0
M  V30 15275 H 1385.89 -0.729856 -0.102367 0
M  V30 15276 H 1388.53 -1.84968 0.434364 0
M  V30 15277 H 1386.68 -3.68243 -1.23811 0
M  V30 15278 H 1388.35 -4.43759 1.25998 0
M  V30 15279 H 1386.59 -4.15356 1.25148 0
M  V30 15280 H 1387.26 -5.50951 0.340106 0
M  V30 15281 H 1389.74 -4.05672 -0.925699 0
M  V30 15282 H 1388.62 -5.23509 -1.65013 0
M  V30 15283 H 1388.88 -3.68743 -2.43887 0
M  V30 15284 N 1387.94 -0.0468143 -1.5753 0
M  V30 15285 C 1388.87 0.927092 -2.14306 0
M  V30 15286 C 1389.85 1.32745 -1.06362 0
M  V30 15287 O 1391.03 1.40293 -1.34281 0
M  V30 15288 C 1388.16 2.20343 -2.68452 0
M  V30 15289 C 1387.12 1.94328 -3.81341 0
M  V30 15290 C 1386.44 3.28379 -4.21985 0
M  V30 15291 C 1387.74 1.26835 -5.06666 0
M  V30 15292 H 1389.44 0.454199 -2.95935 0
M  V30 15293 H 1386.98 0.217029 -1.42355 0
M  V30 15294 H 1388.93 2.8887 -3.0681 0
M  V30 15295 H 1387.66 2.6983 -1.84009 0
M  V30 15296 H 1386.32 1.28214 -3.43448 0
M  V30 15297 H 1385.97 3.75658 -3.34499 0
M  V30 15298 H 1385.67 3.11772 -4.98068 0
M  V30 15299 H 1387.19 3.98145 -4.6294 0
M  V30 15300 H 1388.6 1.85389 -5.42498 0
M  V30 15301 H 1387 1.20569 -5.87863 0
M  V30 15302 H 1388.07 0.243759 -4.84287 0
M  V30 15303 N 1389.41 1.55964 0.226527 0
M  V30 15304 C 1390.32 1.95169 1.30178 0
M  V30 15305 C 1391.34 0.854831 1.51554 0
M  V30 15306 O 1392.52 1.15798 1.64781 0
M  V30 15307 C 1389.58 2.25612 2.63249 0
M  V30 15308 C 1388.64 3.4884 2.50219 0
M  V30 15309 C 1387.88 3.77822 3.76944 0
M  V30 15310 O 1388.1 3.08556 4.79739 0
M  V30 15311 O 1387.03 4.7132 3.74354 0
M  V30 15312 H 1390.86 2.86794 0.999145 0
M  V30 15313 H 1388.44 1.43109 0.42898 0
M  V30 15314 H 1390.33 2.4641 3.41848 0
M  V30 15315 H 1389 1.37162 2.93203 0
M  V30 15316 H 1387.91 3.33326 1.69836 0
M  V30 15317 H 1389.24 4.37657 2.25205 0
M  V30 15318 N 1390.89 -0.493031 1.4969 0
M  V30 15319 C 1391.84 -1.61449 1.67442 0
M  V30 15320 C 1392.83 -1.60553 0.540296 0
M  V30 15321 O 1394.04 -1.64965 0.720167 0
M  V30 15322 H 1390.42 -0.535337 0.528127 0
M  V30 15323 H 1392.39 -1.43631 2.61558 0
M  V30 15324 C 1391.14 -2.99537 1.76559 0
M  V30 15325 H 1390.46 -3.00936 2.63206 0
M  V30 15326 H 1391.9 -3.77521 1.93013 0
M  V30 15327 C 1390.36 -3.32984 0.512176 0
M  V30 15328 O 1390.89 -4.00096 -0.35857 0
M  V30 15329 N 1389.09 -2.882 0.372734 0
M  V30 15330 H 1388.64 -2.3376 1.08232 0
M  V30 15331 H 1388.6 -3.10945 -0.464804 0
M  V30 15332 N 1392.37 -1.38898 -0.744656 0
M  V30 15333 C 1393.3 -1.39571 -1.87195 0
M  V30 15334 C 1394.28 -0.260372 -1.68095 0
M  V30 15335 O 1395.47 -0.464776 -1.88556 0
M  V30 15336 C 1392.6 -1.22889 -3.24832 0
M  V30 15337 C 1391.55 -2.33721 -3.58551 0
M  V30 15338 C 1390.88 -2.02136 -4.9502 0
M  V30 15339 C 1392.18 -3.7601 -3.62511 0
M  V30 15340 H 1393.87 -2.33908 -1.86889 0
M  V30 15341 H 1391.42 -1.12591 -0.897739 0
M  V30 15342 H 1393.37 -1.21983 -4.03359 0
M  V30 15343 H 1392.09 -0.250172 -3.2564 0
M  V30 15344 H 1390.75 -2.33828 -2.82348 0
M  V30 15345 H 1390.4 -1.02726 -4.92399 0
M  V30 15346 H 1390.1 -2.76371 -5.18549 0
M  V30 15347 H 1391.62 -2.02864 -5.75915 0
M  V30 15348 H 1393.04 -3.77885 -4.31133 0
M  V30 15349 H 1391.44 -4.49524 -3.97553 0
M  V30 15350 H 1392.51 -4.07682 -2.62533 0
M  V30 15351 N 1393.85 0.973806 -1.23914 0
M  V30 15352 C 1395.07 1.7564 -1.10296 0
M  V30 15353 C 1395.5 1.84984 0.340954 0
M  V30 15354 O 1394.86 1.31629 1.24674 0
M  V30 15355 C 1394.9 3.15809 -1.7406 0
M  V30 15356 O 1394.01 3.99911 -1.00722 0
M  V30 15357 H 1393.35 0.540133 -0.386202 0
M  V30 15358 H 1395.88 1.22197 -1.64101 0
M  V30 15359 H 1395.89 3.66359 -1.79568 0
M  V30 15360 H 1394.56 3.08324 -2.79122 0
M  V30 15361 H 1393.14 3.58405 -1.02956 0
M  V30 15362 N 1395.33 1.05191 1.17357 0
M  V30 15363 C 1396.26 0.610878 2.20909 0
M  V30 15364 C 1397.27 -0.325369 1.59515 0
M  V30 15365 O 1398.46 -0.118104 1.78109 0
M  V30 15366 C 1395.56 -0.126086 3.38665 0
M  V30 15367 C 1394.73 0.820857 4.29629 0
M  V30 15368 C 1393.79 0.125154 5.26051 0
M  V30 15369 O 1392.82 0.759245 5.64114 0
M  V30 15370 N 1394.02 -1.13742 5.69248 0
M  V30 15371 H 1396.79 1.50158 2.5937 0
M  V30 15372 H 1394.35 0.933814 1.32256 0
M  V30 15373 H 1396.34 -0.601627 4.00203 0
M  V30 15374 H 1394.91 -0.918459 2.98803 0
M  V30 15375 H 1394.13 1.47602 3.65523 0
M  V30 15376 H 1395.42 1.46363 4.87294 0
M  V30 15377 H 1394.81 -1.67291 5.40398 0
M  V30 15378 H 1393.37 -1.55703 6.3293 0
M  V30 15379 N 1396.8 -1.33791 0.83293 0
M  V30 15380 C 1398.03 -2.0272 0.438111 0
M  V30 15381 C 1398.45 -1.62279 -0.951163 0
M  V30 15382 O 1397.81 -0.812406 -1.62079 0
M  V30 15383 C 1397.86 -3.5623 0.559698 0
M  V30 15384 O 1396.96 -4.10292 -0.41646 0
M  V30 15385 H 1396.31 -0.639438 0.178928 0
M  V30 15386 H 1398.84 -1.70821 1.12612 0
M  V30 15387 H 1398.85 -4.0563 0.439148 0
M  V30 15388 H 1397.52 -3.8501 1.5729 0
M  V30 15389 H 1396.1 -3.72034 -0.25396 0
M  V30 15390 N 1398.28 -0.588812 -1.46187 0
M  V30 15391 C 1399.53 -0.0744093 -2.01563 0
M  V30 15392 C 1399.84 1.29578 -1.46523 0
M  V30 15393 O 1401.05 1.90186 -1.93756 0
M  V30 15394 C 1399.51 -0.082408 -3.59806 0
M  V30 15395 C 1399.11 -1.45129 -4.23842 0
M  V30 15396 C 1400.86 0.377732 -4.22816 0
M  V30 15397 C 1398.77 -1.41668 -5.74181 0
M  V30 15398 H 1397.7 -0.0240481 -0.753616 0
M  V30 15399 H 1400.35 -0.741364 -1.67857 0
M  V30 15400 H 1398.73 0.650832 -3.90615 0
M  V30 15401 H 1399.9 -2.20474 -4.04633 0
M  V30 15402 H 1398.22 -1.85196 -3.7295 0
M  V30 15403 H 1400.81 0.42251 -5.33028 0
M  V30 15404 H 1401.16 1.39655 -3.92176 0
M  V30 15405 H 1401.69 -0.301638 -3.96655 0
M  V30 15406 H 1398.43 -2.4125 -6.09491 0
M  V30 15407 H 1397.95 -0.705524 -5.95636 0
M  V30 15408 H 1399.63 -1.13221 -6.37016 0
M  V30 15409 N 1399.76 1.54172 -0.326923 0
M  V30 15410 C 1400.69 2.21958 0.571588 0
M  V30 15411 C 1401.71 1.22067 1.0772 0
M  V30 15412 O 1402.89 1.48517 0.990202 0
M  V30 15413 C 1399.99 2.87307 1.79744 0
M  V30 15414 C 1399.17 4.13366 1.42995 0
M  V30 15415 C 1398.23 4.62276 2.5137 0
M  V30 15416 O 1397.25 5.2688 2.15373 0
M  V30 15417 N 1398.45 4.36789 3.82355 0
M  V30 15418 H 1401.22 2.99699 -0.00885848 0
M  V30 15419 H 1398.78 1.61201 -0.150279 0
M  V30 15420 H 1400.77 3.1695 2.51644 0
M  V30 15421 H 1399.34 2.13252 2.28566 0
M  V30 15422 H 1398.56 3.9045 0.542444 0
M  V30 15423 H 1399.85 4.95396 1.16017 0
M  V30 15424 H 1399.25 3.85086 4.14397 0
M  V30 15425 H 1397.81 4.71079 4.50475 0
M  V30 15426 N 1401.24 0.0551678 1.57503 0
M  V30 15427 C 1402.17 -0.915714 2.14795 0
M  V30 15428 C 1403.15 -1.32179 1.07065 0
M  V30 15429 O 1404.33 -1.39579 1.35023 0
M  V30 15430 C 1401.46 -2.18916 2.69616 0
M  V30 15431 C 1400.42 -1.92303 3.82366 0
M  V30 15432 C 1399.74 -3.26136 4.23721 0
M  V30 15433 C 1401.04 -1.24146 5.07331 0
M  V30 15434 H 1402.74 -0.438499 2.96171 0
M  V30 15435 H 1400.28 -0.209477 1.42468 0
M  V30 15436 H 1402.24 -2.87239 3.08337 0
M  V30 15437 H 1400.96 -2.6885 1.85437 0
M  V30 15438 H 1399.62 -1.26391 3.44123 0
M  V30 15439 H 1399.27 -3.73879 3.36487 0
M  V30 15440 H 1398.97 -3.09126 4.99715 0
M  V30 15441 H 1400.49 -3.95684 4.65045 0
M  V30 15442 H 1401.91 -1.8251 5.43473 0
M  V30 15443 H 1400.3 -1.17449 5.88494 0
M  V30 15444 H 1401.37 -0.218073 4.84409 0
M  V30 15445 N 1402.72 -1.56081 -0.218252 0
M  V30 15446 C 1403.94 -1.83681 -0.963119 0
M  V30 15447 C 1404.37 -0.635909 -1.77025 0
M  V30 15448 O 1403.72 0.415327 -1.76479 0
M  V30 15449 C 1403.77 -3.09302 -1.85376 0
M  V30 15450 O 1402.88 -2.88228 -2.94955 0
M  V30 15451 H 1402.22 -0.605495 -0.272529 0
M  V30 15452 H 1404.75 -2.03297 -0.230567 0
M  V30 15453 H 1404.76 -3.39493 -2.26294 0
M  V30 15454 H 1403.43 -3.96337 -1.26054 0
M  V30 15455 H 1402.01 -2.69279 -2.57959 0
M  V30 15456 N 1404.2 0.485086 -1.49949 0
M  V30 15457 C 1405.14 1.5848 -1.67788 0
M  V30 15458 C 1406.11 1.57776 -0.519216 0
M  V30 15459 O 1407.3 1.75521 -0.748141 0
M  V30 15460 C 1404.44 2.9654 -1.76516 0
M  V30 15461 C 1403.55 3.07139 -3.03792 0
M  V30 15462 C 1402.69 4.36029 -3.03401 0
M  V30 15463 C 1401.72 4.40318 -4.2519 0
M  V30 15464 N 1400.86 5.60659 -4.22618 0
M  V30 15465 H 1405.7 1.42575 -2.6168 0
M  V30 15466 H 1403.24 0.693426 -1.29731 0
M  V30 15467 H 1405.2 3.76583 -1.79557 0
M  V30 15468 H 1403.83 3.11112 -0.860764 0
M  V30 15469 H 1402.88 2.20057 -3.10289 0
M  V30 15470 H 1404.19 3.06167 -3.9378 0
M  V30 15471 H 1403.34 5.24407 -3.05094 0
M  V30 15472 H 1402.08 4.39588 -2.11219 0
M  V30 15473 H 1401.09 3.50339 -4.23725 0
M  V30 15474 H 1402.31 4.38461 -5.18583 0
M  V30 15475 H 1400.26 5.6503 -3.33282 0
M  V30 15476 H 1400.18 5.61371 -5.06359 0
M  V30 15477 H 1401.44 6.51201 -4.28436 0
M  V30 15478 N 1405.67 1.39291 0.737279 0
M  V30 15479 C 1406.62 1.37829 1.85127 0
M  V30 15480 C 1407.59 0.238321 1.64381 0
M  V30 15481 O 1408.78 0.433081 1.8582 0
M  V30 15482 C 1405.92 1.22531 3.22615 0
M  V30 15483 C 1405.03 2.46052 3.55081 0
M  V30 15484 C 1404.16 2.2336 4.81958 0
M  V30 15485 C 1403.2 3.42569 5.0726 0
M  V30 15486 N 1402.34 3.19209 6.2534 0
M  V30 15487 H 1407.18 2.33056 1.85712 0
M  V30 15488 H 1404.72 1.15772 0.907484 0
M  V30 15489 H 1406.67 1.11673 4.01976 0
M  V30 15490 H 1405.3 0.30934 3.21314 0
M  V30 15491 H 1404.36 2.67521 2.70438 0
M  V30 15492 H 1405.67 3.3485 3.69698 0
M  V30 15493 H 1404.82 2.09732 5.69295 0
M  V30 15494 H 1403.56 1.31953 4.6951 0
M  V30 15495 H 1402.57 3.56698 4.18386 0
M  V30 15496 H 1403.79 4.34874 5.21595 0
M  V30 15497 H 1401.74 2.30464 6.14184 0
M  V30 15498 H 1401.65 4.01562 6.40534 0
M  V30 15499 H 1402.92 3.09269 7.15523 0
M  V30 15500 N 1407.15 -0.967221 1.24429 0
M  V30 15501 C 1408.38 -1.7452 1.11133 0
M  V30 15502 C 1408.79 -1.85785 -0.336087 0
M  V30 15503 O 1408.15 -1.34652 -1.23188 0
M  V30 15504 C 1408.2 -3.16544 1.74591 0
M  V30 15505 O 1407.92 -3.05845 3.13673 0
M  V30 15506 C 1409.42 -4.10677 1.6691 0
M  V30 15507 H 1406.64 -0.547267 0.388253 0
M  V30 15508 H 1409.19 -1.2143 1.64545 0
M  V30 15509 H 1407.34 -3.66618 1.2518 0
M  V30 15510 H 1407.76 -3.95346 3.44676 0
M  V30 15511 H 1409.23 -5.07987 2.15992 0
M  V30 15512 H 1409.71 -4.34652 0.630411 0
M  V30 15513 H 1410.31 -3.66514 2.15749 0
M  V30 15514 N 1408.63 -1.05812 -1.16797 0
M  V30 15515 C 1409.88 -0.773066 -1.87487 0
M  V30 15516 C 1410.21 0.698471 -1.81204 0
M  V30 15517 O 1409.48 1.51129 -1.22434 0
M  V30 15518 C 1409.77 -1.2621 -3.37258 0
M  V30 15519 C 1409.62 -2.79704 -3.52258 0
M  V30 15520 C 1410.94 -0.866104 -4.31494 0
M  V30 15521 H 1408.06 -0.282304 -0.680789 0
M  V30 15522 H 1410.7 -1.3132 -1.37314 0
M  V30 15523 H 1408.85 -0.802608 -3.80119 0
M  V30 15524 H 1410.52 -3.33824 -3.1837 0
M  V30 15525 H 1408.76 -3.18673 -2.94329 0
M  V30 15526 H 1409.44 -3.08985 -4.57419 0
M  V30 15527 H 1411.91 -1.26178 -3.96508 0
M  V30 15528 H 1410.79 -1.23581 -5.34807 0
M  V30 15529 H 1411.05 0.229391 -4.41504 0
M  V30 15530 N 1410.11 1.33347 -0.840014 0
M  V30 15531 C 1411.35 1.97745 -0.436274 0
M  V30 15532 C 1411.68 1.66538 1.00475 0
M  V30 15533 O 1410.94 0.938137 1.71748 0
M  V30 15534 C 1411.24 3.52239 -0.605173 0
M  V30 15535 C 1410.9 4.03398 -2.01446 0
M  V30 15536 C 1409.56 4.1708 -2.39994 0
M  V30 15537 C 1411.92 4.3071 -2.93494 0
M  V30 15538 C 1409.24 4.55409 -3.69891 0
M  V30 15539 C 1411.6 4.70491 -4.22873 0
M  V30 15540 C 1410.26 4.82379 -4.61375 0
M  V30 15541 H 1409.53 0.723599 -0.159644 0
M  V30 15542 H 1412.18 1.59003 -1.06725 0
M  V30 15543 H 1410.48 3.91648 0.109116 0
M  V30 15544 H 1412.18 4.00069 -0.273056 0
M  V30 15545 H 1408.77 3.93224 -1.70508 0
M  V30 15546 H 1412.95 4.19661 -2.64949 0
M  V30 15547 H 1408.21 4.62806 -3.99525 0
M  V30 15548 H 1412.38 4.9058 -4.94271 0
M  V30 15549 H 1410.01 5.11835 -5.62075 0
M  V30 15550 N 1411.59 0.596556 1.45873 0
M  V30 15551 C 1412.83 0.0875879 2.02611 0
M  V30 15552 C 1413.16 -1.27438 1.46538 0
M  V30 15553 O 1412.44 -1.83815 0.635779 0
M  V30 15554 C 1412.72 0.0367394 3.60081 0
M  V30 15555 C 1412.58 1.42859 4.26511 0
M  V30 15556 C 1413.89 -0.656795 4.35171 0
M  V30 15557 H 1411.01 0.0333031 0.736247 0
M  V30 15558 H 1413.66 0.766413 1.73857 0
M  V30 15559 H 1411.81 -0.541345 3.8471 0
M  V30 15560 H 1413.48 2.0529 4.13102 0
M  V30 15561 H 1411.72 1.99243 3.85337 0
M  V30 15562 H 1412.39 1.34535 5.35354 0
M  V30 15563 H 1414.87 -0.165553 4.15771 0
M  V30 15564 H 1413.74 -0.661445 5.449 0
M  V30 15565 H 1414 -1.72079 4.07236 0
M  V30 15566 N 1413.06 -1.53996 0.335095 0
M  V30 15567 C 1414 -2.21007 -0.568424 0
M  V30 15568 C 1414.97 -1.19112 -1.10685 0
M  V30 15569 O 1416.16 -1.47898 -1.1687 0
M  V30 15570 C 1413.29 -2.88086 -1.78113 0
M  V30 15571 C 1412.33 -4.03798 -1.37292 0
M  V30 15572 S 1413.16 -5.34005 -0.399865 0
M  V30 15573 C 1414.32 -6.04582 -1.6196 0
M  V30 15574 H 1414.55 -2.973 0.000770174 0
M  V30 15575 H 1412.09 -1.53939 0.119169 0
M  V30 15576 H 1414.04 -3.27353 -2.4769 0
M  V30 15577 H 1412.71 -2.11575 -2.32153 0
M  V30 15578 H 1411.9 -4.49637 -2.27689 0
M  V30 15579 H 1411.5 -3.66264 -0.75673 0
M  V30 15580 H 1413.79 -6.27462 -2.55534 0
M  V30 15581 H 1414.74 -6.97804 -1.20315 0
M  V30 15582 H 1415.14 -5.34634 -1.81181 0
M  V30 15583 N 1414.54 -0.0635198 -1.57472 0
M  V30 15584 C 1415.77 0.616735 -1.97494 0
M  V30 15585 C 1416.18 1.63646 -0.941568 0
M  V30 15586 O 1415.54 1.82355 0.0727768 0
M  V30 15587 C 1415.59 1.29268 -3.37597 0
M  V30 15588 O 1415.31 0.313781 -4.36975 0
M  V30 15589 C 1416.81 2.06154 -3.92448 0
M  V30 15590 H 1414.03 0.167753 -0.649692 0
M  V30 15591 H 1416.58 -0.133475 -2.04064 0
M  V30 15592 H 1414.73 1.99404 -3.3214 0
M  V30 15593 H 1415.15 0.797723 -5.18398 0
M  V30 15594 H 1416.62 2.48853 -4.92723 0
M  V30 15595 H 1417.1 2.91474 -3.28541 0
M  V30 15596 H 1417.7 1.40903 -4.01281 0
M  V30 15597 N 1416.02 1.56195 0.209972 0
M  V30 15598 C 1417.3 1.70553 0.957653 0
M  V30 15599 C 1417.68 0.614091 2.01971 0
M  V30 15600 O 1417.02 -0.377192 2.25365 0
M  V30 15601 C 1417.23 3.12314 1.55759 0
M  V30 15602 C 1418.58 3.72085 2.04543 0
M  V30 15603 O 1419.61 3.15349 1.65631 0
M  V30 15604 O 1418.47 4.71627 2.76099 0
M  V30 15605 H 1415.56 0.695077 0.448104 0
M  V30 15606 H 1418.11 1.68507 0.20084 0
M  V30 15607 H 1416.88 3.83215 0.791302 0
M  V30 15608 H 1416.5 3.18526 2.37964 0
M  V30 15609 N 1417.5 -0.477127 1.50204 0
M  V30 15610 C 1418.44 -1.57587 1.68626 0
M  V30 15611 C 1419.41 -1.57499 0.527576 0
M  V30 15612 O 1420.6 -1.75121 0.757438 0
M  V30 15613 C 1417.74 -2.956 1.78086 0
M  V30 15614 C 1416.85 -3.05523 3.05417 0
M  V30 15615 C 1415.99 -4.34414 3.05709 0
M  V30 15616 C 1415.03 -4.38057 4.27519 0
M  V30 15617 N 1414.16 -5.5841 4.25585 0
M  V30 15618 H 1419 -1.41185 2.62433 0
M  V30 15619 H 1416.54 -0.686537 1.30096 0
M  V30 15620 H 1418.5 -3.75626 1.81552 0
M  V30 15621 H 1417.13 -3.10651 0.877251 0
M  V30 15622 H 1416.18 -2.18409 3.11451 0
M  V30 15623 H 1417.49 -3.04075 3.95398 0
M  V30 15624 H 1416.65 -5.22782 3.07871 0
M  V30 15625 H 1415.39 -4.38462 2.13548 0
M  V30 15626 H 1414.39 -3.48087 4.25577 0
M  V30 15627 H 1415.62 -4.35705 5.20901 0
M  V30 15628 H 1413.56 -5.63255 3.36274 0
M  V30 15629 H 1413.48 -5.58677 5.09328 0
M  V30 15630 H 1414.75 -6.4892 4.31884 0
M  V30 15631 N 1418.98 -1.3968 -0.729882 0
M  V30 15632 C 1420.21 -1.40263 -1.5169 0
M  V30 15633 C 1420.61 0.00325293 -1.892 0
M  V30 15634 O 1419.96 0.986225 -1.54982 0
M  V30 15635 C 1420.02 -2.21629 -2.83056 0
M  V30 15636 C 1419.68 -3.70204 -2.67951 0
M  V30 15637 C 1420.68 -4.63169 -2.36158 0
M  V30 15638 C 1418.37 -4.13851 -2.84662 0
M  V30 15639 C 1420.36 -5.97763 -2.21265 0
M  V30 15640 C 1418.05 -5.4852 -2.69387 0
M  V30 15641 C 1419.04 -6.4029 -2.37734 0
M  V30 15642 O 1418.73 -7.72478 -2.22561 0
M  V30 15643 H 1418.46 -0.480808 -0.475184 0
M  V30 15644 H 1421.02 -1.84184 -0.909136 0
M  V30 15645 H 1419.25 -1.72465 -3.46111 0
M  V30 15646 H 1420.94 -2.14328 -3.447 0
M  V30 15647 H 1421.7 -4.30748 -2.22893 0
M  V30 15648 H 1417.58 -3.42751 -3.0829 0
M  V30 15649 H 1421.13 -6.69359 -1.96481 0
M  V30 15650 H 1417.02 -5.8053 -2.82232 0
M  V30 15651 H 1417.79 -7.83258 -2.37591 0
M  V30 15652 N 1420.45 0.960609 -1.2494 0
M  V30 15653 C 1421.42 2.03791 -1.04891 0
M  V30 15654 C 1422.42 1.608 -0.00375792 0
M  V30 15655 O 1423.61 1.72463 -0.24539 0
M  V30 15656 C 1420.74 3.35733 -0.591309 0
M  V30 15657 H 1421.93 2.2301 -2.00516 0
M  V30 15658 H 1419.49 1.13686 -1.07263 0
M  V30 15659 H 1420.22 3.22207 0.367816 0
M  V30 15660 H 1420.01 3.68283 -1.34574 0
M  V30 15661 H 1421.5 4.14921 -0.472283 0
M  V30 15662 N 1421.93 1.0643 1.16234 0
M  V30 15663 C 1422.88 0.676311 2.20669 0
M  V30 15664 C 1423.85 -0.327721 1.62835 0
M  V30 15665 O 1425.03 -0.216296 1.8957 0
M  V30 15666 C 1422.17 0.0703726 3.45028 0
M  V30 15667 C 1421.29 1.12475 4.17101 0
M  V30 15668 C 1420.42 0.484806 5.28983 0
M  V30 15669 C 1419.46 1.52262 5.9286 0
M  V30 15670 N 1418.6 0.905938 6.96231 0
M  V30 15671 H 1423.44 1.57129 2.53209 0
M  V30 15672 H 1420.98 0.7856 1.24365 0
M  V30 15673 H 1422.93 -0.298488 4.16131 0
M  V30 15674 H 1421.56 -0.788002 3.13034 0
M  V30 15675 H 1420.62 1.6113 3.44589 0
M  V30 15676 H 1421.93 1.91202 4.60698 0
M  V30 15677 H 1421.08 0.0630553 6.06667 0
M  V30 15678 H 1419.82 -0.334332 4.86553 0
M  V30 15679 H 1418.83 1.95425 5.13896 0
M  V30 15680 H 1420.05 2.34388 6.37369 0
M  V30 15681 H 1418 0.107536 6.55912 0
M  V30 15682 H 1417.91 1.63058 7.38206 0
M  V30 15683 H 1419.18 0.509378 7.77834 0
M  V30 15684 N 1423.41 -1.329 0.847073 0
M  V30 15685 C 1424.64 -2.0171 0.460497 0
M  V30 15686 C 1425.05 -1.63699 -0.940649 0
M  V30 15687 O 1424.41 -0.854454 -1.61262 0
M  V30 15688 C 1424.46 -3.56799 0.581108 0
M  V30 15689 O 1424.18 -3.93442 1.92705 0
M  V30 15690 C 1425.68 -4.42882 0.192552 0
M  V30 15691 H 1422.9 -0.645887 0.181853 0
M  V30 15692 H 1425.45 -1.69648 1.14192 0
M  V30 15693 H 1423.6 -3.87364 -0.0524924 0
M  V30 15694 H 1424.02 -4.88157 1.91841 0
M  V30 15695 H 1425.49 -5.51025 0.327969 0
M  V30 15696 H 1425.97 -4.30571 -0.866315 0
M  V30 15697 H 1426.57 -4.17691 0.800918 0
M  V30 15698 N 1424.89 -0.604284 -1.45555 0
M  V30 15699 C 1425.8 0.118409 -2.34301 0
M  V30 15700 C 1426.81 0.863807 -1.51044 0
M  V30 15701 O 1427.99 0.822138 -1.83856 0
M  V30 15702 C 1425.06 1.10538 -3.28606 0
M  V30 15703 C 1424.12 0.362301 -4.27768 0
M  V30 15704 C 1423.35 1.30226 -5.17568 0
M  V30 15705 O 1423.57 2.53991 -5.10729 0
M  V30 15706 O 1422.51 0.801116 -5.96545 0
M  V30 15707 H 1426.33 -0.610816 -2.97494 0
M  V30 15708 H 1423.92 -0.364562 -1.44884 0
M  V30 15709 H 1425.8 1.67392 -3.86727 0
M  V30 15710 H 1424.47 1.81569 -2.67982 0
M  V30 15711 H 1423.38 -0.248616 -3.73273 0
M  V30 15712 H 1424.71 -0.307454 -4.91239 0
M  V30 15713 N 1426.37 1.53816 -0.343257 0
M  V30 15714 C 1427.31 2.26505 0.529002 0
M  V30 15715 C 1428.31 1.28639 1.1022 0
M  V30 15716 O 1429.51 1.46348 1.04797 0
M  V30 15717 H 1425.89 0.727789 0.189279 0
M  V30 15718 H 1427.86 2.98211 -0.106096 0
M  V30 15719 C 1426.61 3.05062 1.6683 0
M  V30 15720 H 1425.93 3.80198 1.23651 0
M  V30 15721 H 1427.37 3.59138 2.2538 0
M  V30 15722 C 1425.83 2.14543 2.59756 0
M  V30 15723 O 1426.36 1.74132 3.61996 0
M  V30 15724 N 1424.57 1.79628 2.28434 0
M  V30 15725 H 1424.11 2.12688 1.45332 0
M  V30 15726 H 1424.07 1.19345 2.90868 0
M  V30 15727 N 1427.84 0.0718701 1.57436 0
M  V30 15728 C 1429.09 -0.597231 1.93493 0
M  V30 15729 C 1429.42 -1.69614 0.951906 0
M  V30 15730 O 1428.67 -1.95673 -0.0324554 0
M  V30 15731 C 1428.97 -1.21336 3.36173 0
M  V30 15732 C 1428.64 -0.240582 4.50258 0
M  V30 15733 C 1427.3 0.0270368 4.81192 0
M  V30 15734 C 1429.65 0.424924 5.19465 0
M  V30 15735 C 1426.98 0.967249 5.78672 0
M  V30 15736 C 1429.33 1.35346 6.17952 0
M  V30 15737 C 1428 1.62954 6.47304 0
M  V30 15738 H 1427.27 -0.218542 0.70804 0
M  V30 15739 H 1429.91 0.142762 1.90967 0
M  V30 15740 H 1428.22 -2.02909 3.35164 0
M  V30 15741 H 1429.92 -1.73836 3.61361 0
M  V30 15742 H 1426.51 -0.459352 4.26131 0
M  V30 15743 H 1430.69 0.231285 4.95761 0
M  V30 15744 H 1425.95 1.1884 5.99739 0
M  V30 15745 H 1430.12 1.87509 6.70681 0
M  V30 15746 H 1427.75 2.3597 7.2265 0
M  V30 15747 N 1429.32 -1.56304 -0.201686 0
M  V30 15748 C 1430.27 -1.94021 -1.24999 0
M  V30 15749 C 1431.24 -0.799926 -1.45569 0
M  V30 15750 O 1432.42 -1.05752 -1.58811 0
M  V30 15751 C 1429.56 -2.27935 -2.59113 0
M  V30 15752 C 1428.68 -3.54995 -2.46176 0
M  V30 15753 C 1427.81 -3.78262 -3.72949 0
M  V30 15754 C 1426.85 -4.9877 -3.54817 0
M  V30 15755 N 1425.99 -5.18325 -4.73586 0
M  V30 15756 H 1430.83 -2.834 -0.92134 0
M  V30 15757 H 1428.37 -1.40252 -0.44359 0
M  V30 15758 H 1430.32 -2.45613 -3.37239 0
M  V30 15759 H 1428.95 -1.41705 -2.90034 0
M  V30 15760 H 1428.01 -3.45401 -1.59381 0
M  V30 15761 H 1429.32 -4.43277 -2.28708 0
M  V30 15762 H 1428.47 -3.96144 -4.59516 0
M  V30 15763 H 1427.21 -2.88299 -3.93364 0
M  V30 15764 H 1426.22 -4.80818 -2.66635 0
M  V30 15765 H 1427.44 -5.90237 -3.35854 0
M  V30 15766 H 1425.39 -4.31308 -4.94277 0
M  V30 15767 H 1425.3 -6.00774 -4.58919 0
M  V30 15768 H 1426.57 -5.40659 -5.61523 0
M  V30 15769 N 1430.8 0.469154 -1.50455 0
M  V30 15770 C 1432.05 1.21788 -1.60781 0
M  V30 15771 C 1432.36 1.93054 -0.314576 0
M  V30 15772 O 1433.57 2.69873 -0.296773 0
M  V30 15773 C 1432.02 2.21305 -2.83817 0
M  V30 15774 C 1431.63 1.55833 -4.20024 0
M  V30 15775 C 1433.38 2.96808 -3.03489 0
M  V30 15776 C 1431.28 2.53648 -5.34244 0
M  V30 15777 H 1430.21 0.45827 -0.598752 0
M  V30 15778 H 1432.86 0.488159 -1.76888 0
M  V30 15779 H 1431.25 2.97577 -2.61273 0
M  V30 15780 H 1432.42 0.853371 -4.52829 0
M  V30 15781 H 1430.74 0.926046 -4.05972 0
M  V30 15782 H 1433.33 3.70017 -3.85994 0
M  V30 15783 H 1433.68 3.56307 -2.15293 0
M  V30 15784 H 1434.21 2.27648 -3.26223 0
M  V30 15785 H 1430.95 1.98885 -6.246 0
M  V30 15786 H 1430.47 3.22291 -5.05854 0
M  V30 15787 H 1432.15 3.15438 -5.64897 0
M  V30 15788 N 1432.28 1.40065 0.722464 0
M  V30 15789 C 1433.24 1.39544 1.81825 0
M  V30 15790 C 1434.24 0.290385 1.58156 0
M  V30 15791 O 1435.43 0.54894 1.65325 0
M  V30 15792 C 1432.56 1.18041 3.19811 0
M  V30 15793 H 1433.76 2.37063 1.83687 0
M  V30 15794 H 1431.31 1.25813 0.927404 0
M  V30 15795 H 1432.04 0.212536 3.23603 0
M  V30 15796 H 1431.83 1.98079 3.38389 0
M  V30 15797 H 1433.32 1.20447 3.99853 0
M  V30 15798 N 1433.76 -0.95397 1.25448 0
M  V30 15799 C 1435 -1.69866 1.10235 0
M  V30 15800 C 1435.33 -1.91204 -0.356552 0
M  V30 15801 O 1434.59 -1.4811 -1.27914 0
M  V30 15802 C 1434.89 -3.08613 1.80258 0
M  V30 15803 C 1434.55 -3.07072 3.30178 0
M  V30 15804 C 1433.21 -3.0636 3.71076 0
M  V30 15805 C 1435.57 -3.00351 4.25956 0
M  V30 15806 C 1432.89 -2.96675 5.06163 0
M  V30 15807 C 1435.25 -2.92209 5.61067 0
M  V30 15808 C 1433.91 -2.89832 6.01293 0
M  V30 15809 H 1433.18 -0.621583 0.40338 0
M  V30 15810 H 1435.83 -1.11448 1.55729 0
M  V30 15811 H 1434.13 -3.70578 1.27197 0
M  V30 15812 H 1435.83 -3.65055 1.6594 0
M  V30 15813 H 1432.42 -3.084 2.97637 0
M  V30 15814 H 1436.6 -3.0002 3.9535 0
M  V30 15815 H 1431.86 -2.93204 5.36508 0
M  V30 15816 H 1436.03 -2.8597 6.34976 0
M  V30 15817 H 1433.66 -2.82084 7.05927 0
M  V30 15818 N 1435.24 -1.07045 -1.15668 0
M  V30 15819 C 1436.47 -0.811567 -1.89992 0
M  V30 15820 C 1436.87 0.638628 -1.78096 0
M  V30 15821 O 1436.22 1.44953 -1.12846 0
M  V30 15822 C 1436.28 -1.13665 -3.41058 0
M  V30 15823 C 1435.94 -2.58681 -3.7674 0
M  V30 15824 C 1436.94 -3.56923 -3.78023 0
M  V30 15825 C 1434.62 -2.94178 -4.07142 0
M  V30 15826 C 1436.62 -4.88699 -4.09209 0
M  V30 15827 C 1434.31 -4.26152 -4.37993 0
M  V30 15828 C 1435.3 -5.23222 -4.39007 0
M  V30 15829 O 1434.99 -6.52826 -4.6912 0
M  V30 15830 H 1434.72 -0.293243 -0.609085 0
M  V30 15831 H 1437.28 -1.42941 -1.47502 0
M  V30 15832 H 1435.51 -0.461762 -3.83933 0
M  V30 15833 H 1437.2 -0.860808 -3.96667 0
M  V30 15834 H 1437.96 -3.30842 -3.54639 0
M  V30 15835 H 1433.84 -2.19272 -4.05513 0
M  V30 15836 H 1437.39 -5.6446 -4.09915 0
M  V30 15837 H 1433.28 -4.51988 -4.60844 0
M  V30 15838 H 1434.05 -6.5793 -4.86898 0
M  V30 15839 N 1436.71 1.32449 -0.85411 0
M  V30 15840 C 1437.64 2.31383 -0.313697 0
M  V30 15841 C 1438.62 1.59656 0.586858 0
M  V30 15842 O 1439.81 1.87459 0.507216 0
M  V30 15843 C 1436.94 3.43693 0.499235 0
M  V30 15844 C 1435.89 4.26899 -0.306839 0
M  V30 15845 C 1435.22 5.30966 0.630795 0
M  V30 15846 C 1436.52 4.99318 -1.53229 0
M  V30 15847 H 1438.21 2.76832 -1.14037 0
M  V30 15848 H 1435.76 1.33091 -0.549805 0
M  V30 15849 H 1437.71 4.11944 0.887709 0
M  V30 15850 H 1436.44 2.96971 1.35926 0
M  V30 15851 H 1435.1 3.60294 -0.677061 0
M  V30 15852 H 1434.74 4.80498 1.48765 0
M  V30 15853 H 1434.44 5.87522 0.0954635 0
M  V30 15854 H 1435.97 6.0208 1.01646 0
M  V30 15855 H 1437.38 5.60253 -1.21614 0
M  V30 15856 H 1435.78 5.65596 -2.00552 0
M  V30 15857 H 1436.85 4.27213 -2.29383 0
M  V30 15858 N 1438.19 0.611994 1.45232 0
M  V30 15859 C 1439.42 0.113618 2.07089 0
M  V30 15860 C 1439.84 -1.1947 1.45288 0
M  V30 15861 O 1439.2 -1.72845 0.547207 0
M  V30 15862 C 1439.25 -0.00789978 3.60599 0
M  V30 15863 O 1438.35 -1.05697 3.98625 0
M  V30 15864 H 1437.69 0.076066 0.659629 0
M  V30 15865 H 1440.22 0.843253 1.86415 0
M  V30 15866 H 1440.23 -0.204692 4.07486 0
M  V30 15867 H 1438.91 0.947386 4.04966 0
M  V30 15868 H 1437.48 -0.836291 3.63401 0
M  V30 15869 N 1439.67 -1.53632 0.351409 0
M  V30 15870 C 1440.62 -2.22041 -0.517867 0
M  V30 15871 C 1441.6 -1.21057 -1.0599 0
M  V30 15872 O 1442.8 -1.46569 -0.992298 0
M  V30 15873 C 1439.92 -3.00259 -1.66432 0
M  V30 15874 C 1439.01 -4.08607 -1.13584 0
M  V30 15875 N 1439.4 -5.04727 -0.329217 0
M  V30 15876 C 1437.7 -4.23059 -1.412 0
M  V30 15877 C 1438.4 -5.81685 -0.0415005 0
M  V30 15878 N 1437.38 -5.39875 -0.635288 0
M  V30 15879 H 1441.18 -2.93711 0.105386 0
M  V30 15880 H 1438.69 -1.61623 0.15868 0
M  V30 15881 H 1440.69 -3.47774 -2.29911 0
M  V30 15882 H 1439.35 -2.30117 -2.29077 0
M  V30 15883 H 1440.36 -5.17891 0.0303777 0
M  V30 15884 H 1437.04 -3.64139 -2.04227 0
M  V30 15885 H 1438.43 -6.69128 0.609686 0
M  V30 15886 N 1441.15 -0.0802183 -1.57396 0
M  V30 15887 C 1442.08 0.913777 -2.10197 0
M  V30 15888 C 1443.09 1.25588 -1.03593 0
M  V30 15889 O 1444.28 1.21159 -1.31083 0
M  V30 15890 C 1441.38 2.2272 -2.55439 0
M  V30 15891 C 1440.55 2.06268 -3.8571 0
M  V30 15892 C 1439.61 3.20989 -4.16956 0
M  V30 15893 O 1438.64 2.95608 -4.8642 0
M  V30 15894 N 1439.84 4.46331 -3.71172 0
M  V30 15895 H 1442.61 0.462908 -2.96103 0
M  V30 15896 H 1440.17 0.105287 -1.61557 0
M  V30 15897 H 1442.16 2.98389 -2.73397 0
M  V30 15898 H 1440.73 2.59278 -1.74624 0
M  V30 15899 H 1439.95 1.15016 -3.77048 0
M  V30 15900 H 1441.24 1.92535 -4.70965 0
M  V30 15901 H 1440.64 4.69837 -3.15071 0
M  V30 15902 H 1439.19 5.18999 -3.94314 0
M  V30 15903 N 1442.63 1.56409 0.193394 0
M  V30 15904 C 1444.04 1.50032 0.544298 0
M  V30 15905 C 1444.24 0.780546 1.85768 0
M  V30 15906 O 1443.3 0.331769 2.50311 0
M  V30 15907 C 1444.61 2.94705 0.597463 0
M  V30 15908 C 1446.16 3.05386 0.686179 0
M  V30 15909 C 1446.63 4.51473 0.770439 0
M  V30 15910 N 1448.12 4.55631 0.833921 0
M  V30 15911 C 1448.86 5.65982 0.919314 0
M  V30 15912 N 1448.36 6.8602 0.966904 0
M  V30 15913 N 1450.15 5.539 0.956634 0
M  V30 15914 H 1442.3 2.01619 -0.668096 0
M  V30 15915 H 1444.56 0.917589 -0.238191 0
M  V30 15916 H 1444.27 3.50431 -0.298509 0
M  V30 15917 H 1444.14 3.48151 1.45157 0
M  V30 15918 H 1446.53 2.49708 1.57258 0
M  V30 15919 H 1446.61 2.55062 -0.194165 0
M  V30 15920 H 1446.25 5.07777 -0.111619 0
M  V30 15921 H 1446.18 4.99531 1.66661 0
M  V30 15922 H 1448.68 3.69198 0.80632 0
M  V30 15923 H 1448.99 7.6587 1.03262 0
M  V30 15924 H 1447.33 6.88674 0.935552 0
M  V30 15925 H 1450.52 4.59044 0.916304 0
M  V30 15926 H 1450.7 6.39926 1.01972 0
M  V30 15927 N 1444.1 -0.461169 1.50702 0
M  V30 15928 C 1445.03 -1.56576 1.73223 0
M  V30 15929 C 1446.01 -1.59855 0.581401 0
M  V30 15930 O 1447.2 -1.75964 0.821602 0
M  V30 15931 C 1444.33 -2.94835 1.83548 0
M  V30 15932 C 1443.28 -3.06421 2.98815 0
M  V30 15933 C 1442.61 -4.46425 2.94293 0
M  V30 15934 C 1443.91 -2.82714 4.3917 0
M  V30 15935 H 1445.6 -1.37982 2.65709 0
M  V30 15936 H 1443.15 -0.662362 1.27862 0
M  V30 15937 H 1445.1 -3.72047 1.97887 0
M  V30 15938 H 1443.83 -3.14608 0.876906 0
M  V30 15939 H 1442.49 -2.31644 2.84142 0
M  V30 15940 H 1442.13 -4.63131 1.96262 0
M  V30 15941 H 1441.83 -4.55111 3.71682 0
M  V30 15942 H 1443.36 -5.25644 3.10695 0
M  V30 15943 H 1444.77 -3.4967 4.54317 0
M  V30 15944 H 1443.17 -3.02835 5.18084 0
M  V30 15945 H 1444.24 -1.78492 4.50853 0
M  V30 15946 N 1445.58 -1.40446 -0.715026 0
M  V30 15947 C 1446.51 -1.35159 -1.83868 0
M  V30 15948 C 1447.49 -0.221884 -1.61079 0
M  V30 15949 O 1448.68 -0.405635 -1.84084 0
M  V30 15950 C 1445.8 -1.10358 -3.20217 0
M  V30 15951 C 1444.85 -2.25787 -3.61832 0
M  V30 15952 S 1445.68 -3.88183 -3.68882 0
M  V30 15953 C 1446.84 -3.65647 -5.07989 0
M  V30 15954 H 1447.07 -2.30252 -1.88073 0
M  V30 15955 H 1444.6 -1.26738 -0.881859 0
M  V30 15956 H 1446.56 -0.967343 -3.9894 0
M  V30 15957 H 1445.22 -0.169178 -3.13644 0
M  V30 15958 H 1444.42 -2.04078 -4.60834 0
M  V30 15959 H 1444.02 -2.35717 -2.90368 0
M  V30 15960 H 1446.31 -3.24149 -5.94923 0
M  V30 15961 H 1447.25 -4.64182 -5.34734 0
M  V30 15962 H 1447.66 -2.99322 -4.78609 0
M  V30 15963 N 1447.06 0.947303 -1.25952 0
M  V30 15964 C 1448.34 1.66964 -1.01894 0
M  V30 15965 C 1448.72 2.06192 0.452555 0
M  V30 15966 O 1448.06 1.78098 1.43156 0
M  V30 15967 C 1448.27 2.88643 -1.96179 0
M  V30 15968 C 1449.62 3.60432 -2.24441 0
M  V30 15969 O 1450.65 2.98737 -1.93996 0
M  V30 15970 O 1449.51 4.7154 -2.76247 0
M  V30 15971 H 1446.6 0.730875 -0.386976 0
M  V30 15972 H 1449.15 0.999577 -1.37137 0
M  V30 15973 H 1447.92 2.565 -2.95506 0
M  V30 15974 H 1447.54 3.63377 -1.61379 0
M  V30 15975 N 1448.54 1.07657 1.15099 0
M  V30 15976 C 1449.45 0.711198 2.2356 0
M  V30 15977 C 1450.46 -0.278932 1.7175 0
M  V30 15978 O 1451.64 -0.124788 2.01013 0
M  V30 15979 C 1448.71 0.117855 3.465 0
M  V30 15980 C 1447.77 1.16162 4.13286 0
M  V30 15981 C 1447 0.596494 5.30356 0
M  V30 15982 O 1447.22 -0.586474 5.67377 0
M  V30 15983 O 1446.16 1.34288 5.86729 0
M  V30 15984 H 1449.98 1.61578 2.5715 0
M  V30 15985 H 1447.57 0.84973 1.22882 0
M  V30 15986 H 1449.45 -0.210613 4.20873 0
M  V30 15987 H 1448.12 -0.760008 3.14652 0
M  V30 15988 H 1447.03 1.54249 3.4082 0
M  V30 15989 H 1448.36 2.01149 4.49221 0
M  V30 15990 N 1450.02 -1.31994 0.861122 0
M  V30 15991 C 1450.96 -2.28729 0.308476 0
M  V30 15992 C 1451.93 -1.55338 -0.588148 0
M  V30 15993 O 1453.12 -1.8353 -0.52168 0
M  V30 15994 C 1450.26 -3.4158 -0.491621 0
M  V30 15995 C 1449.37 -4.29839 0.431522 0
M  V30 15996 C 1448.51 -5.29826 -0.381836 0
M  V30 15997 C 1447.55 -6.09728 0.538296 0
M  V30 15998 N 1446.68 -7.01696 -0.238274 0
M  V30 15999 H 1451.52 -2.75389 1.13863 0
M  V30 16000 H 1449.06 -1.35485 0.572911 0
M  V30 16001 H 1451.02 -4.05738 -0.971193 0
M  V30 16002 H 1449.65 -2.96054 -1.28654 0
M  V30 16003 H 1448.7 -3.66204 1.02951 0
M  V30 16004 H 1450.01 -4.85658 1.13742 0
M  V30 16005 H 1449.17 -5.99618 -0.924297 0
M  V30 16006 H 1447.9 -4.7464 -1.12107 0
M  V30 16007 H 1446.91 -5.38834 1.09259 0
M  V30 16008 H 1448.13 -6.67 1.27625 0
M  V30 16009 H 1446.08 -6.4893 -0.960486 0
M  V30 16010 H 1446 -7.54896 0.408466 0
M  V30 16011 H 1447.27 -7.75764 -0.762252 0
M  V30 16012 N 1451.49 -0.619688 -1.44906 0
M  V30 16013 C 1452.74 -0.11981 -2.02446 0
M  V30 16014 C 1453.07 1.2509 -1.48546 0
M  V30 16015 O 1452.35 1.82781 -0.664942 0
M  V30 16016 C 1452.63 -0.0940205 -3.59977 0
M  V30 16017 C 1452.48 -1.49626 -4.24184 0
M  V30 16018 C 1453.8 0.58748 -4.36161 0
M  V30 16019 H 1450.92 -0.0450119 -0.735624 0
M  V30 16020 H 1453.56 -0.793975 -1.72615 0
M  V30 16021 H 1451.71 0.480073 -3.85522 0
M  V30 16022 H 1453.39 -2.11836 -4.09784 0
M  V30 16023 H 1451.63 -2.05348 -3.82119 0
M  V30 16024 H 1452.3 -1.43035 -5.33146 0
M  V30 16025 H 1454.78 0.0993863 -4.15981 0
M  V30 16026 H 1453.65 0.574672 -5.45883 0
M  V30 16027 H 1453.91 1.65579 -4.09922 0
M  V30 16028 N 1452.97 1.53444 -0.359552 0
M  V30 16029 C 1454.25 1.93467 0.288106 0
M  V30 16030 C 1454.63 1.29256 1.66901 0
M  V30 16031 O 1453.98 0.449402 2.24037 0
M  V30 16032 C 1454.19 3.47297 0.344359 0
M  V30 16033 C 1455.54 4.20515 0.587585 0
M  V30 16034 O 1456.56 3.53646 0.425818 0
M  V30 16035 O 1455.42 5.39003 0.902119 0
M  V30 16036 H 1452.51 0.809033 0.171451 0
M  V30 16037 H 1455.06 1.64625 -0.411896 0
M  V30 16038 H 1453.83 3.86292 -0.624064 0
M  V30 16039 H 1453.45 3.82353 1.0905 0
M  V30 16040 N 1454.45 0.0885642 1.57351 0
M  V30 16041 C 1455.7 -0.57753 1.94403 0
M  V30 16042 C 1456.03 -1.68238 0.970029 0
M  V30 16043 O 1455.3 -1.945 0.00198684 0
M  V30 16044 C 1455.59 -1.13882 3.41618 0
M  V30 16045 C 1455.44 -0.0394686 4.49783 0
M  V30 16046 C 1456.76 -2.03922 3.90005 0
M  V30 16047 H 1453.88 -0.208468 0.706902 0
M  V30 16048 H 1456.52 0.157945 1.89342 0
M  V30 16049 H 1454.67 -1.76561 3.46061 0
M  V30 16050 H 1456.34 0.594458 4.57454 0
M  V30 16051 H 1454.59 0.627775 4.29234 0
M  V30 16052 H 1455.26 -0.472897 5.49971 0
M  V30 16053 H 1457.73 -1.51156 3.87674 0
M  V30 16054 H 1456.61 -2.40123 4.93591 0
M  V30 16055 H 1456.87 -2.95407 3.28918 0
M  V30 16056 N 1455.93 -1.56509 -0.185096 0
M  V30 16057 C 1457.18 -1.804 -0.902158 0
M  V30 16058 C 1457.49 -0.663496 -1.84003 0
M  V30 16059 O 1458.7 -0.786963 -2.59844 0
M  V30 16060 C 1457.15 -3.19608 -1.65466 0
M  V30 16061 C 1456.76 -4.41487 -0.761109 0
M  V30 16062 C 1458.5 -3.52801 -2.36076 0
M  V30 16063 C 1456.41 -5.71717 -1.51305 0
M  V30 16064 H 1455.34 -0.67268 -0.340614 0
M  V30 16065 H 1457.99 -1.82842 -0.155273 0
M  V30 16066 H 1456.37 -3.11443 -2.44579 0
M  V30 16067 H 1457.55 -4.60799 -0.00791878 0
M  V30 16068 H 1455.86 -4.16072 -0.165344 0
M  V30 16069 H 1458.46 -4.47339 -2.92902 0
M  V30 16070 H 1458.8 -2.77021 -3.10749 0
M  V30 16071 H 1459.34 -3.62457 -1.63919 0
M  V30 16072 H 1456.08 -6.5049 -0.808907 0
M  V30 16073 H 1455.6 -5.56406 -2.23992 0
M  V30 16074 H 1457.27 -6.13188 -2.0642 0
M  V30 16075 N 1457.41 0.45317 -1.50944 0
M  V30 16076 C 1458.66 1.20076 -1.62064 0
M  V30 16077 C 1458.97 1.92709 -0.335034 0
M  V30 16078 O 1460.17 2.69543 -0.32538 0
M  V30 16079 C 1458.63 2.18283 -2.86148 0
M  V30 16080 C 1458.24 1.5137 -4.21653 0
M  V30 16081 C 1459.98 2.93572 -3.0662 0
M  V30 16082 C 1457.89 2.47968 -5.36904 0
M  V30 16083 H 1456.82 0.451894 -0.603579 0
M  V30 16084 H 1459.47 0.46937 -1.77396 0
M  V30 16085 H 1457.85 2.94789 -2.64415 0
M  V30 16086 H 1459.03 0.805295 -4.53709 0
M  V30 16087 H 1457.34 0.882935 -4.06931 0
M  V30 16088 H 1459.94 3.65903 -3.89897 0
M  V30 16089 H 1460.28 3.54003 -2.1906 0
M  V30 16090 H 1460.81 2.24175 -3.28619 0
M  V30 16091 H 1457.55 1.92249 -6.26674 0
M  V30 16092 H 1457.07 3.16907 -5.09244 0
M  V30 16093 H 1458.75 3.09428 -5.6821 0
M  V30 16094 N 1458.88 1.40823 0.707568 0
M  V30 16095 C 1459.81 1.44485 1.83429 0
M  V30 16096 C 1460.8 0.304848 1.67346 0
M  V30 16097 O 1461.98 0.514605 1.87258 0
M  V30 16098 C 1459.11 1.31458 3.21459 0
M  V30 16099 C 1458.06 2.43145 3.52228 0
M  V30 16100 C 1457.39 2.15189 4.89487 0
M  V30 16101 C 1458.69 3.85489 3.52414 0
M  V30 16102 H 1460.38 2.38781 1.80622 0
M  V30 16103 H 1457.93 1.14931 0.867572 0
M  V30 16104 H 1459.88 1.32635 3.99983 0
M  V30 16105 H 1458.61 0.336422 3.24863 0
M  V30 16106 H 1457.27 2.41231 2.76049 0
M  V30 16107 H 1456.91 1.15745 4.89502 0
M  V30 16108 H 1456.61 2.90022 5.11039 0
M  V30 16109 H 1458.14 2.18062 5.70334 0
M  V30 16110 H 1459.55 3.89183 4.20963 0
M  V30 16111 H 1457.95 4.59906 3.85495 0
M  V30 16112 H 1459.02 4.14499 2.51632 0
M  V30 16113 N 1460.36 -0.94061 1.26453 0
M  V30 16114 C 1461.61 -1.68132 1.1142 0
M  V30 16115 C 1461.92 -1.92587 -0.342006 0
M  V30 16116 O 1463.13 -2.64489 -0.613018 0
M  V30 16117 C 1461.59 -3.02758 1.94591 0
M  V30 16118 C 1461.19 -2.86049 3.4479 0
M  V30 16119 C 1462.94 -3.80516 1.88169 0
M  V30 16120 C 1460.85 -4.1615 4.20206 0
M  V30 16121 H 1459.78 -0.630591 0.413366 0
M  V30 16122 H 1462.43 -1.04602 1.50767 0
M  V30 16123 H 1460.81 -3.67272 1.48078 0
M  V30 16124 H 1461.98 -2.3038 3.99076 0
M  V30 16125 H 1460.3 -2.21732 3.52454 0
M  V30 16126 H 1462.89 -4.76904 2.41799 0
M  V30 16127 H 1463.24 -4.07477 0.852531 0
M  V30 16128 H 1463.77 -3.22776 2.32509 0
M  V30 16129 H 1460.51 -3.94373 5.23593 0
M  V30 16130 H 1460.03 -4.71531 3.707 0
M  V30 16131 H 1461.71 -4.84602 4.28684 0
M  V30 16132 N 1461.84 -1.08266 -1.14527 0
M  V30 16133 C 1463.09 -0.811459 -1.85531 0
M  V30 16134 C 1463.42 0.662726 -1.82861 0
M  V30 16135 O 1462.67 1.50296 -1.25338 0
M  V30 16136 C 1462.97 -1.27675 -3.33817 0
M  V30 16137 C 1462.64 -2.7585 -3.56676 0
M  V30 16138 C 1461.3 -3.16319 -3.62623 0
M  V30 16139 C 1463.65 -3.71446 -3.65619 0
M  V30 16140 C 1460.98 -4.51183 -3.75035 0
M  V30 16141 C 1463.33 -5.06083 -3.79556 0
M  V30 16142 C 1461.99 -5.4616 -3.83752 0
M  V30 16143 H 1461.26 -0.296934 -0.678904 0
M  V30 16144 H 1463.91 -1.35533 -1.35288 0
M  V30 16145 H 1462.22 -0.65244 -3.86329 0
M  V30 16146 H 1463.91 -1.04369 -3.8718 0
M  V30 16147 H 1460.5 -2.43526 -3.52694 0
M  V30 16148 H 1464.69 -3.41301 -3.60316 0
M  V30 16149 H 1459.94 -4.81689 -3.76545 0
M  V30 16150 H 1464.12 -5.80022 -3.85418 0
M  V30 16151 H 1461.74 -6.50661 -3.93121 0
M  V30 16152 N 1463.32 1.31536 -0.86811 0
M  V30 16153 C 1464.25 2.31037 -0.33822 0
M  V30 16154 C 1465.23 1.60269 0.569892 0
M  V30 16155 O 1466.42 1.87987 0.487305 0
M  V30 16156 C 1463.55 3.44203 0.462753 0
M  V30 16157 C 1462.5 4.26549 -0.3521 0
M  V30 16158 C 1461.83 5.31605 0.574443 0
M  V30 16159 C 1463.13 4.97665 -1.58516 0
M  V30 16160 H 1464.82 2.75607 -1.16967 0
M  V30 16161 H 1462.37 1.325 -0.56389 0
M  V30 16162 H 1464.32 4.12862 0.843967 0
M  V30 16163 H 1463.04 2.98396 1.32769 0
M  V30 16164 H 1461.7 3.59555 -0.715237 0
M  V30 16165 H 1461.35 4.82048 1.43661 0
M  V30 16166 H 1461.05 5.87591 0.0331436 0
M  V30 16167 H 1462.57 6.03124 0.952541 0
M  V30 16168 H 1463.99 5.58931 -1.27549 0
M  V30 16169 H 1462.38 5.63437 -2.06539 0
M  V30 16170 H 1463.45 4.24756 -2.33902 0
M  V30 16171 N 1464.8 0.627364 1.44575 0
M  V30 16172 C 1465.71 -0.0811184 2.3446 0
M  V30 16173 C 1466.72 -0.839668 1.52399 0
M  V30 16174 O 1467.9 -0.792784 1.8514 0
M  V30 16175 C 1464.96 -1.05296 3.30323 0
M  V30 16176 C 1464.03 -0.294201 4.28291 0
M  V30 16177 C 1463.26 -1.21975 5.19575 0
M  V30 16178 O 1463.48 -2.45834 5.14706 0
M  V30 16179 O 1462.42 -0.70611 5.97744 0
M  V30 16180 H 1466.24 0.658067 2.96485 0
M  V30 16181 H 1463.83 0.387565 1.44285 0
M  V30 16182 H 1465.71 -1.61218 3.89341 0
M  V30 16183 H 1464.38 -1.77283 2.70837 0
M  V30 16184 H 1463.29 0.307969 3.7283 0
M  V30 16185 H 1464.62 0.385567 4.90687 0
M  V30 16186 N 1466.28 -1.53251 0.367684 0
M  V30 16187 C 1467.22 -2.258 -0.477802 0
M  V30 16188 C 1468.19 -1.26554 -1.07579 0
M  V30 16189 O 1469.38 -1.5534 -1.10788 0
M  V30 16190 C 1466.52 -3.05216 -1.6105 0
M  V30 16191 C 1465.63 -4.19357 -1.03748 0
M  V30 16192 C 1464.77 -4.86211 -2.13945 0
M  V30 16193 C 1463.8 -5.9238 -1.5412 0
M  V30 16194 N 1462.94 -6.52916 -2.58158 0
M  V30 16195 H 1467.78 -2.97635 0.147367 0
M  V30 16196 H 1465.32 -1.46857 0.084495 0
M  V30 16197 H 1467.28 -3.49536 -2.27772 0
M  V30 16198 H 1465.91 -2.35632 -2.20629 0
M  V30 16199 H 1464.96 -3.79507 -0.260476 0
M  V30 16200 H 1466.27 -4.95645 -0.560105 0
M  V30 16201 H 1465.42 -5.33725 -2.88483 0
M  V30 16202 H 1464.16 -4.09399 -2.65035 0
M  V30 16203 H 1463.17 -5.44225 -0.780968 0
M  V30 16204 H 1464.39 -6.71112 -1.03852 0
M  V30 16205 H 1462.34 -5.78956 -3.08457 0
M  V30 16206 H 1462.26 -7.2475 -2.15113 0
M  V30 16207 H 1463.52 -7.05079 -3.32392 0
M  V30 16208 N 1467.75 -0.0969077 -1.57302 0
M  V30 16209 C 1469.16 0.431942 -1.81635 0
M  V30 16210 C 1469.52 1.68047 -1.01264 0
M  V30 16211 O 1468.64 2.15036 -0.24256 0
M  V30 16212 C 1469.24 0.790426 -3.29451 0
M  V30 16213 C 1467.79 1.26401 -3.54542 0
M  V30 16214 C 1466.94 0.26158 -2.76063 0
M  V30 16215 H 1469.89 -0.322328 -1.55392 0
M  V30 16216 H 1469.91 1.64981 -3.42873 0
M  V30 16217 H 1469.43 -0.118463 -3.87919 0
M  V30 16218 H 1467.53 2.19055 -3.01406 0
M  V30 16219 H 1467.64 1.22459 -4.63185 0
M  V30 16220 H 1466 0.7441 -2.43588 0
M  V30 16221 H 1466.79 -0.640018 -3.37281 0
M  V30 16222 N 1469.23 1.56605 0.176793 0
M  V30 16223 C 1470.48 1.81682 0.894302 0
M  V30 16224 C 1470.81 0.67311 1.82481 0
M  V30 16225 O 1470.06 -0.339995 1.92724 0
M  V30 16226 C 1470.36 3.12888 1.7273 0
M  V30 16227 C 1470.03 4.40861 0.946186 0
M  V30 16228 C 1468.69 4.75622 0.730586 0
M  V30 16229 C 1471.04 5.19679 0.397889 0
M  V30 16230 C 1468.37 5.86683 -0.0444995 0
M  V30 16231 C 1470.72 6.31551 -0.36408 0
M  V30 16232 C 1469.38 6.64883 -0.59053 0
M  V30 16233 H 1468.65 0.664823 0.327248 0
M  V30 16234 H 1471.3 1.90834 0.159555 0
M  V30 16235 H 1469.61 2.99055 2.53128 0
M  V30 16236 H 1471.3 3.295 2.2854 0
M  V30 16237 H 1467.89 4.13592 1.12426 0
M  V30 16238 H 1472.08 4.93223 0.55181 0
M  V30 16239 H 1467.33 6.10968 -0.229739 0
M  V30 16240 H 1471.51 6.91833 -0.796223 0
M  V30 16241 H 1469.13 7.50781 -1.19301 0
M  V30 16242 N 1470.71 -0.445159 1.51182 0
M  V30 16243 C 1471.64 -1.55788 1.68115 0
M  V30 16244 C 1472.65 -1.52793 0.561964 0
M  V30 16245 O 1473.84 -1.57711 0.836029 0
M  V30 16246 C 1470.94 -2.94702 1.67344 0
M  V30 16247 C 1470.12 -3.22286 2.9572 0
M  V30 16248 C 1469.18 -4.40884 2.87241 0
M  V30 16249 O 1468.2 -4.3992 3.61191 0
M  V30 16250 N 1469.4 -5.44013 2.02558 0
M  V30 16251 H 1472.17 -1.4167 2.64102 0
M  V30 16252 H 1469.73 -0.633984 1.48971 0
M  V30 16253 H 1471.72 -3.7205 1.5925 0
M  V30 16254 H 1470.29 -3.02457 0.789842 0
M  V30 16255 H 1469.51 -2.33309 3.17743 0
M  V30 16256 H 1470.8 -3.3754 3.80715 0
M  V30 16257 H 1470.2 -5.47629 1.4184 0
M  V30 16258 H 1468.75 -6.20245 2.0035 0
M  V30 16259 N 1472.19 -1.41197 -0.700089 0
M  V30 16260 C 1473.13 -1.42688 -1.81407 0
M  V30 16261 C 1474.1 -0.28182 -1.63692 0
M  V30 16262 O 1475.29 -0.482196 -1.84606 0
M  V30 16263 C 1472.43 -1.31041 -3.19252 0
M  V30 16264 C 1471.54 -2.5538 -3.48432 0
M  V30 16265 C 1470.68 -2.3606 -4.75867 0
M  V30 16266 C 1469.72 -3.55898 -4.97999 0
M  V30 16267 N 1468.85 -3.35676 -6.16657 0
M  V30 16268 H 1473.69 -2.37898 -1.79467 0
M  V30 16269 H 1471.23 -1.18137 -0.87647 0
M  V30 16270 H 1473.19 -1.22292 -3.98874 0
M  V30 16271 H 1471.82 -0.394422 -3.20381 0
M  V30 16272 H 1470.87 -2.74598 -2.6325 0
M  V30 16273 H 1472.18 -3.44535 -3.6069 0
M  V30 16274 H 1471.34 -2.24752 -5.63535 0
M  V30 16275 H 1470.08 -1.44355 -4.65846 0
M  V30 16276 H 1469.08 -3.67665 -4.08781 0
M  V30 16277 H 1470.31 -4.4855 -5.09882 0
M  V30 16278 H 1468.25 -2.46667 -6.07858 0
M  V30 16279 H 1468.17 -4.18404 -6.29662 0
M  V30 16280 H 1469.44 -3.28132 -7.07071 0
M  V30 16281 N 1473.67 0.933891 -1.2695 0
M  V30 16282 C 1474.89 1.72042 -1.15828 0
M  V30 16283 C 1475.32 1.85975 0.28193 0
M  V30 16284 O 1474.67 1.35528 1.20423 0
M  V30 16285 C 1474.72 3.10112 -1.84019 0
M  V30 16286 O 1473.83 3.96504 -1.13394 0
M  V30 16287 H 1473.17 0.527573 -0.40319 0
M  V30 16288 H 1475.7 1.16914 -1.67905 0
M  V30 16289 H 1475.71 3.60461 -1.91133 0
M  V30 16290 H 1474.38 2.99287 -2.8879 0
M  V30 16291 H 1472.96 3.54948 -1.14307 0
M  V30 16292 N 1475.14 1.08871 1.13951 0
M  V30 16293 C 1476.09 0.722966 2.19184 0
M  V30 16294 C 1477.06 -0.293108 1.63493 0
M  V30 16295 O 1478.25 -0.176036 1.89986 0
M  V30 16296 C 1475.39 0.143542 3.44801 0
M  V30 16297 C 1474.5 1.21297 4.14622 0
M  V30 16298 C 1473.63 0.596902 5.27836 0
M  V30 16299 C 1472.67 1.64803 5.89497 0
M  V30 16300 N 1471.81 1.05341 6.94152 0
M  V30 16301 H 1476.65 1.62464 2.49819 0
M  V30 16302 H 1474.19 0.811803 1.22671 0
M  V30 16303 H 1476.14 -0.210153 4.1667 0
M  V30 16304 H 1474.77 -0.721426 3.14635 0
M  V30 16305 H 1473.83 1.68403 3.41093 0
M  V30 16306 H 1475.14 2.00931 4.56539 0
M  V30 16307 H 1474.29 0.191724 6.06397 0
M  V30 16308 H 1473.03 -0.231052 4.87152 0
M  V30 16309 H 1472.04 2.06282 5.09635 0
M  V30 16310 H 1473.26 2.47855 6.32254 0
M  V30 16311 H 1471.21 0.24664 6.55536 0
M  V30 16312 H 1471.12 1.7868 7.34581 0
M  V30 16313 H 1472.39 0.674253 7.76578 0
M  V30 16314 N 1476.62 -1.31073 0.875073 0
M  V30 16315 C 1477.87 -1.96518 0.488549 0
M  V30 16316 C 1478.2 -1.69144 -0.960243 0
M  V30 16317 O 1477.45 -0.983344 -1.69201 0
M  V30 16318 C 1477.75 -3.50511 0.698351 0
M  V30 16319 C 1477.42 -3.97915 2.12071 0
M  V30 16320 C 1476.08 -4.10571 2.50968 0
M  V30 16321 C 1478.43 -4.22777 3.0481 0
M  V30 16322 C 1475.76 -4.45442 3.81836 0
M  V30 16323 C 1478.11 -4.59114 4.35198 0
M  V30 16324 C 1476.77 -4.69977 4.74002 0
M  V30 16325 H 1476.04 -0.719111 0.178773 0
M  V30 16326 H 1478.69 -1.56117 1.10904 0
M  V30 16327 H 1477 -3.918 -0.00523937 0
M  V30 16328 H 1478.69 -3.99205 0.379031 0
M  V30 16329 H 1475.28 -3.88565 1.80874 0
M  V30 16330 H 1479.47 -4.12489 2.75983 0
M  V30 16331 H 1474.72 -4.52051 4.11655 0
M  V30 16332 H 1478.9 -4.77303 5.07105 0
M  V30 16333 H 1476.52 -4.96753 5.75448 0
M  V30 16334 N 1478.1 -0.635022 -1.4424 0
M  V30 16335 C 1479.03 0.0543561 -2.33437 0
M  V30 16336 C 1480.01 0.830807 -1.48431 0
M  V30 16337 O 1481.2 0.795913 -1.77141 0
M  V30 16338 C 1478.33 1.03391 -3.31553 0
M  V30 16339 C 1477.28 0.368824 -4.26408 0
M  V30 16340 C 1476.61 1.45855 -5.14422 0
M  V30 16341 C 1477.91 -0.727381 -5.1721 0
M  V30 16342 H 1479.6 -0.690489 -2.91329 0
M  V30 16343 H 1477.15 -0.3335 -1.40085 0
M  V30 16344 H 1479.1 1.52495 -3.9284 0
M  V30 16345 H 1477.82 1.80969 -2.71878 0
M  V30 16346 H 1476.48 -0.101605 -3.66459 0
M  V30 16347 H 1476.13 2.22531 -4.51098 0
M  V30 16348 H 1475.83 1.0189 -5.78699 0
M  V30 16349 H 1477.35 1.95132 -5.78581 0
M  V30 16350 H 1478.77 -0.319272 -5.7241 0
M  V30 16351 H 1477.17 -1.09041 -5.9011 0
M  V30 16352 H 1478.24 -1.59292 -4.57989 0
M  V30 16353 N 1479.58 1.53054 -0.375806 0
M  V30 16354 C 1480.51 2.23664 0.500685 0
M  V30 16355 C 1481.52 1.25432 1.03782 0
M  V30 16356 O 1482.71 1.51592 0.942451 0
M  V30 16357 C 1479.81 2.9288 1.70513 0
M  V30 16358 C 1478.99 4.17706 1.29772 0
M  V30 16359 C 1478.04 4.7004 2.36536 0
M  V30 16360 O 1477.07 5.33466 1.98502 0
M  V30 16361 N 1478.27 4.48732 3.68266 0
M  V30 16362 H 1481.04 2.99519 -0.104201 0
M  V30 16363 H 1478.6 1.60641 -0.201488 0
M  V30 16364 H 1480.59 3.24795 2.41433 0
M  V30 16365 H 1479.16 2.20416 2.21665 0
M  V30 16366 H 1478.38 3.91978 0.41795 0
M  V30 16367 H 1479.67 4.98837 1.00197 0
M  V30 16368 H 1479.07 3.98075 4.01936 0
M  V30 16369 H 1477.62 4.85172 4.3526 0
M  V30 16370 N 1481.06 0.105248 1.57248 0
M  V30 16371 C 1481.99 -0.846915 2.176 0
M  V30 16372 C 1482.97 -1.28706 1.11216 0
M  V30 16373 O 1484.15 -1.35213 1.39396 0
M  V30 16374 C 1481.28 -2.10228 2.76445 0
M  V30 16375 C 1480.24 -1.80041 3.8829 0
M  V30 16376 C 1479.56 -3.12491 4.33882 0
M  V30 16377 C 1480.86 -1.07943 5.11024 0
M  V30 16378 H 1482.56 -0.344052 2.97417 0
M  V30 16379 H 1480.1 -0.164045 1.43063 0
M  V30 16380 H 1482.06 -2.77284 3.17319 0
M  V30 16381 H 1480.78 -2.62815 1.93897 0
M  V30 16382 H 1479.44 -1.15379 3.4797 0
M  V30 16383 H 1479.09 -3.62985 3.48211 0
M  V30 16384 H 1478.79 -2.93072 5.09296 0
M  V30 16385 H 1480.31 -3.80688 4.77398 0
M  V30 16386 H 1481.72 -1.65127 5.49004 0
M  V30 16387 H 1480.12 -0.986674 5.91933 0
M  V30 16388 H 1481.19 -0.0638511 4.84858 0
M  V30 16389 N 1482.53 -1.56697 -0.168486 0
M  V30 16390 C 1483.95 -1.50879 -0.52036 0
M  V30 16391 C 1484.15 -0.810001 -1.84503 0
M  V30 16392 O 1483.21 -0.371549 -2.49751 0
M  V30 16393 C 1484.52 -2.95618 -0.550502 0
M  V30 16394 C 1486.07 -3.06439 -0.637508 0
M  V30 16395 C 1486.54 -4.52642 -0.698516 0
M  V30 16396 N 1488.03 -4.569 -0.761328 0
M  V30 16397 C 1488.77 -5.67373 -0.829155 0
M  V30 16398 N 1488.26 -6.87471 -0.857642 0
M  V30 16399 N 1490.06 -5.55352 -0.868392 0
M  V30 16400 H 1482.21 -2.00531 0.700087 0
M  V30 16401 H 1484.47 -0.913683 0.252759 0
M  V30 16402 H 1484.18 -3.49912 0.354222 0
M  V30 16403 H 1484.05 -3.50416 -1.396 0
M  V30 16404 H 1486.44 -2.52178 -1.53266 0
M  V30 16405 H 1486.52 -2.54721 0.234719 0
M  V30 16406 H 1486.16 -5.07535 0.192387 0
M  V30 16407 H 1486.09 -5.0212 -1.58693 0
M  V30 16408 H 1488.58 -3.70434 -0.747482 0
M  V30 16409 H 1488.9 -7.67416 -0.910648 0
M  V30 16410 H 1487.24 -6.90076 -0.825872 0
M  V30 16411 H 1490.43 -4.60444 -0.843158 0
M  V30 16412 H 1490.61 -6.41468 -0.917789 0
M  V30 16413 N 1484.01 0.437135 -1.51416 0
M  V30 16414 C 1484.96 1.53061 -1.72745 0
M  V30 16415 C 1485.93 1.56045 -0.569149 0
M  V30 16416 O 1487.11 1.73052 -0.803602 0
M  V30 16417 C 1484.25 2.90774 -1.85861 0
M  V30 16418 C 1483.37 2.97318 -3.1341 0
M  V30 16419 C 1482.5 4.26156 -3.1712 0
M  V30 16420 C 1481.54 4.26568 -4.38983 0
M  V30 16421 N 1480.68 5.4693 -4.40241 0
M  V30 16422 H 1485.52 1.34177 -2.66084 0
M  V30 16423 H 1483.06 0.651803 -1.31871 0
M  V30 16424 H 1485.01 3.7068 -1.91447 0
M  V30 16425 H 1483.64 3.08216 -0.959306 0
M  V30 16426 H 1482.7 2.10074 -3.17132 0
M  V30 16427 H 1484.01 2.93485 -4.03321 0
M  V30 16428 H 1483.16 5.14435 -3.21623 0
M  V30 16429 H 1481.9 4.32646 -2.25098 0
M  V30 16430 H 1480.91 3.36681 -4.34656 0
M  V30 16431 H 1482.13 4.21741 -5.3227 0
M  V30 16432 H 1480.08 5.54141 -3.51089 0
M  V30 16433 H 1479.99 5.44977 -5.23962 0
M  V30 16434 H 1481.26 6.37241 -4.48937 0
M  V30 16435 N 1485.49 1.41566 0.692592 0
M  V30 16436 C 1486.91 1.24101 1.00355 0
M  V30 16437 C 1487.11 0.132485 2.01064 0
M  V30 16438 O 1486.16 -0.502142 2.47457 0
M  V30 16439 C 1487.48 2.59142 1.52532 0
M  V30 16440 C 1489.02 2.66348 1.64401 0
M  V30 16441 C 1489.5 4.01713 2.19978 0
M  V30 16442 N 1490.99 4.03575 2.27335 0
M  V30 16443 C 1491.72 5.05118 2.71373 0
M  V30 16444 N 1491.22 6.1705 3.14994 0
M  V30 16445 N 1493.01 4.92479 2.70963 0
M  V30 16446 H 1485.16 2.12385 0.0254859 0
M  V30 16447 H 1487.43 0.945118 0.0738684 0
M  V30 16448 H 1487.13 3.41026 0.85989 0
M  V30 16449 H 1487.01 2.81833 2.50699 0
M  V30 16450 H 1489.39 1.84821 2.30055 0
M  V30 16451 H 1489.48 2.47464 0.647717 0
M  V30 16452 H 1489.12 4.8369 1.54939 0
M  V30 16453 H 1489.05 4.1794 3.20365 0
M  V30 16454 H 1491.54 3.2276 1.96556 0
M  V30 16455 H 1491.85 6.90399 3.47231 0
M  V30 16456 H 1490.2 6.20582 3.12895 0
M  V30 16457 H 1493.39 4.04117 2.36236 0
M  V30 16458 H 1493.56 5.71752 3.04965 0
M  V30 16459 N 1486.97 -0.927146 1.27443 0
M  V30 16460 C 1487.9 -2.04483 1.12735 0
M  V30 16461 C 1488.88 -1.70076 0.0286662 0
M  V30 16462 O 1490.06 -1.93133 0.203252 0
M  V30 16463 C 1487.19 -3.38557 0.774352 0
M  V30 16464 C 1486.15 -3.87078 1.82632 0
M  V30 16465 C 1485.47 -5.17964 1.32729 0
M  V30 16466 C 1486.77 -4.10409 3.23051 0
M  V30 16467 H 1488.47 -2.17046 2.06231 0
M  V30 16468 H 1486.01 -1.04292 0.992937 0
M  V30 16469 H 1487.97 -4.16227 0.658273 0
M  V30 16470 H 1486.69 -3.26009 -0.196321 0
M  V30 16471 H 1485.35 -3.11602 1.93132 0
M  V30 16472 H 1485 -5.01808 0.346059 0
M  V30 16473 H 1484.7 -5.51398 2.03061 0
M  V30 16474 H 1486.22 -5.98203 1.22416 0
M  V30 16475 H 1487.64 -4.78646 3.15549 0
M  V30 16476 H 1486.03 -4.5515 3.91099 0
M  V30 16477 H 1487.1 -3.15685 3.68064 0
M  V30 16478 N 1488.45 -1.09474 -1.13372 0
M  V30 16479 C 1489.69 -0.840753 -1.86308 0
M  V30 16480 C 1490.05 0.622327 -1.81635 0
M  V30 16481 O 1491.25 0.992265 -2.49815 0
M  V30 16482 C 1489.52 -1.3618 -3.30439 0
M  V30 16483 S 1491.08 -1.24176 -4.20863 0
M  V30 16484 H 1487.9 -0.304071 -0.642699 0
M  V30 16485 H 1490.5 -1.39822 -1.36639 0
M  V30 16486 H 1489.21 -2.42087 -3.31394 0
M  V30 16487 H 1488.74 -0.800485 -3.8517 0
M  V30 16488 H 1490.75 -0.193021 -4.95824 0
M  V30 16489 N 1489.92 1.30607 -0.882012 0
M  V30 16490 C 1491.17 1.95869 -0.497978 0
M  V30 16491 C 1491.49 1.69991 0.955405 0
M  V30 16492 O 1490.76 1.02188 1.67136 0
M  V30 16493 H 1489.34 0.724699 -0.181165 0
M  V30 16494 H 1492.01 1.59193 -1.12444 0
M  V30 16495 H 1491.1 3.04917 -0.665754 0
M  V30 16496 N 1491.4 0.642663 1.43901 0
M  V30 16497 C 1492.63 0.157518 2.06801 0
M  V30 16498 C 1493.05 -1.16361 1.47789 0
M  V30 16499 O 1492.41 -1.71645 0.583747 0
M  V30 16500 C 1492.46 0.0685904 3.60535 0
M  V30 16501 O 1491.56 -0.972183 4.00777 0
M  V30 16502 H 1490.9 0.0900406 0.657867 0
M  V30 16503 H 1493.43 0.882604 1.84584 0
M  V30 16504 H 1493.44 -0.118212 4.07829 0
M  V30 16505 H 1492.12 1.03307 4.02865 0
M  V30 16506 H 1490.7 -0.75902 3.65094 0
M  V30 16507 N 1492.88 -1.52852 0.383918 0
M  V30 16508 C 1494.11 -2.06406 -0.202764 0
M  V30 16509 C 1494.53 -1.25421 -1.40183 0
M  V30 16510 O 1493.89 -0.277876 -1.79158 0
M  V30 16511 C 1493.94 -3.56281 -0.556414 0
M  V30 16512 O 1493.04 -3.77904 -1.65113 0
M  V30 16513 H 1492.38 -0.663523 -0.0251737 0
M  V30 16514 H 1494.91 -1.97074 0.54983 0
M  V30 16515 H 1494.92 -3.99629 -0.822249 0
M  V30 16516 H 1493.6 -4.14665 0.320253 0
M  V30 16517 H 1492.17 -3.46448 -1.37943 0
M  V30 16518 N 1494.36 -0.113586 -1.5719 0
M  V30 16519 C 1495.61 0.546529 -1.95297 0
M  V30 16520 C 1495.94 1.66674 -0.996671 0
M  V30 16521 O 1495.21 1.94472 -0.0329298 0
M  V30 16522 C 1495.5 1.08433 -3.43387 0
M  V30 16523 C 1495.35 -0.0320929 -4.49789 0
M  V30 16524 C 1496.67 1.97691 -3.932 0
M  V30 16525 H 1493.79 0.197195 -0.710129 0
M  V30 16526 H 1496.43 -0.188048 -1.89067 0
M  V30 16527 H 1494.58 1.71033 -3.48827 0
M  V30 16528 H 1496.25 -0.66716 -4.5645 0
M  V30 16529 H 1494.49 -0.695983 -4.2818 0
M  V30 16530 H 1495.17 0.385341 -5.50653 0
M  V30 16531 H 1497.64 1.4497 -3.90029 0
M  V30 16532 H 1496.52 2.3224 -4.97349 0
M  V30 16533 H 1496.78 2.90137 -3.33576 0
M  V30 16534 N 1495.84 1.56784 0.160173 0
M  V30 16535 C 1496.77 2.00298 1.20012 0
M  V30 16536 C 1497.75 0.880356 1.45546 0
M  V30 16537 O 1498.93 1.14724 1.56691 0
M  V30 16538 C 1496.06 2.37238 2.53645 0
M  V30 16539 C 1495.02 3.52563 2.42658 0
M  V30 16540 C 1494.34 3.75278 3.80881 0
M  V30 16541 C 1495.64 4.85657 1.92183 0
M  V30 16542 H 1497.34 2.87423 0.838362 0
M  V30 16543 H 1494.88 1.3828 0.401838 0
M  V30 16544 H 1496.84 2.66278 3.2661 0
M  V30 16545 H 1495.56 1.47035 2.9163 0
M  V30 16546 H 1494.22 3.23669 1.72146 0
M  V30 16547 H 1493.87 2.82347 4.1628 0
M  V30 16548 H 1493.57 4.52882 3.74396 0
M  V30 16549 H 1495.09 4.0673 4.55415 0
M  V30 16550 H 1496.51 5.13501 2.54931 0
M  V30 16551 H 1494.9 5.66975 1.96619 0
M  V30 16552 H 1495.97 4.76908 0.876742 0
M  V30 16553 N 1497.32 -0.429099 1.51646 0
M  V30 16554 C 1498.23 -1.54648 1.76412 0
M  V30 16555 C 1499.24 -1.61455 0.648703 0
M  V30 16556 O 1500.42 -1.78544 0.931888 0
M  V30 16557 C 1497.48 -2.90562 1.89142 0
M  V30 16558 C 1496.54 -2.93804 3.13014 0
M  V30 16559 C 1495.78 -4.23235 3.25127 0
M  V30 16560 O 1496 -5.1606 2.42979 0
M  V30 16561 O 1494.93 -4.32929 4.18158 0
M  V30 16562 H 1498.76 -1.36661 2.71215 0
M  V30 16563 H 1496.34 -0.612946 1.36247 0
M  V30 16564 H 1498.23 -3.7121 1.99453 0
M  V30 16565 H 1496.9 -3.08659 0.975272 0
M  V30 16566 H 1495.81 -2.12082 3.08175 0
M  V30 16567 H 1497.14 -2.80654 4.04344 0
M  V30 16568 N 1498.79 -1.41931 -0.685074 0
M  V30 16569 C 1500.04 -1.43062 -1.44585 0
M  V30 16570 C 1500.39 -0.0425175 -1.92353 0
M  V30 16571 O 1499.69 0.933507 -1.67321 0
M  V30 16572 C 1499.88 -2.38099 -2.6654 0
M  V30 16573 C 1499.71 -3.86013 -2.30704 0
M  V30 16574 C 1498.48 -4.54622 -2.20559 0
M  V30 16575 C 1500.68 -4.76711 -1.93005 0
M  V30 16576 N 1498.66 -5.87613 -1.77719 0
M  V30 16577 C 1500.03 -5.9873 -1.61005 0
M  V30 16578 C 1502.09 -4.6426 -1.79907 0
M  V30 16579 C 1500.79 -7.09684 -1.17221 0
M  V30 16580 C 1502.82 -5.75187 -1.37529 0
M  V30 16581 C 1502.18 -6.96311 -1.06445 0
M  V30 16582 H 1498.28 -0.578696 -0.525961 0
M  V30 16583 H 1500.86 -1.77882 -0.791591 0
M  V30 16584 H 1499.03 -2.05358 -3.29671 0
M  V30 16585 H 1500.76 -2.29878 -3.33074 0
M  V30 16586 H 1497.52 -4.08698 -2.39296 0
M  V30 16587 H 1497.94 -6.58124 -1.58751 0
M  V30 16588 H 1502.58 -3.71104 -2.02588 0
M  V30 16589 H 1500.3 -8.02698 -0.932855 0
M  V30 16590 H 1503.89 -5.67561 -1.27929 0
M  V30 16591 H 1502.77 -7.80687 -0.741497 0
M  V30 16592 N 1500.27 0.920374 -1.27933 0
M  V30 16593 C 1501.68 1.48385 -1.13309 0
M  V30 16594 C 1502.03 1.94202 0.279307 0
M  V30 16595 O 1501.16 1.81855 1.17294 0
M  V30 16596 C 1501.75 2.69681 -2.05079 0
M  V30 16597 C 1500.31 3.22229 -1.94539 0
M  V30 16598 C 1499.46 1.94948 -1.97207 0
M  V30 16599 H 1502.41 0.733744 -1.40719 0
M  V30 16600 H 1502.43 3.44717 -1.6109 0
M  V30 16601 H 1501.94 2.36304 -3.07867 0
M  V30 16602 H 1500.04 3.60348 -0.94764 0
M  V30 16603 H 1500.16 3.87927 -2.81157 0
M  V30 16604 H 1498.52 2.1176 -1.41527 0
M  V30 16605 H 1499.3 1.63875 -3.01662 0
M  V30 16606 N 1501.75 1.10074 1.1279 0
M  V30 16607 C 1502.98 0.862906 1.88047 0
M  V30 16608 C 1503.39 -0.586346 1.79464 0
M  V30 16609 O 1502.75 -1.40402 1.16591 0
M  V30 16610 C 1502.8 1.29784 3.37399 0
M  V30 16611 O 1502.52 2.69026 3.4577 0
M  V30 16612 C 1504.02 1.09336 4.29605 0
M  V30 16613 H 1501.24 0.309981 0.595108 0
M  V30 16614 H 1503.79 1.46444 1.42738 0
M  V30 16615 H 1501.94 0.740056 3.80266 0
M  V30 16616 H 1502.36 2.87532 4.38663 0
M  V30 16617 H 1503.83 1.44687 5.327 0
M  V30 16618 H 1504.31 0.031679 4.39189 0
M  V30 16619 H 1504.91 1.63743 3.92516 0
M  V30 16620 N 1503.23 -1.30138 0.888926 0
M  V30 16621 C 1504.18 -2.29979 0.348212 0
M  V30 16622 C 1505.17 -1.60329 -0.546894 0
M  V30 16623 O 1506.38 -1.74767 -0.43089 0
M  V30 16624 H 1502.75 -0.746107 0.0939563 0
M  V30 16625 H 1504.72 -2.73038 1.20385 0
M  V30 16626 C 1503.47 -3.45169 -0.418762 0
M  V30 16627 H 1502.79 -3.98949 0.260761 0
M  V30 16628 H 1504.23 -4.17094 -0.762133 0
M  V30 16629 C 1502.69 -2.95539 -1.61734 0
M  V30 16630 O 1503.22 -2.95902 -2.7167 0
M  V30 16631 N 1501.43 -2.51502 -1.45585 0
M  V30 16632 H 1500.98 -2.51406 -0.561483 0
M  V30 16633 H 1500.93 -2.18654 -2.25916 0
M  V30 16634 N 1504.71 -0.650285 -1.43559 0
M  V30 16635 C 1506.12 -0.24263 -1.85117 0
M  V30 16636 C 1506.47 1.21017 -1.54432 0
M  V30 16637 O 1505.59 1.92332 -0.991839 0
M  V30 16638 C 1506.19 -0.433575 -3.36014 0
M  V30 16639 C 1504.75 -0.0802635 -3.76314 0
M  V30 16640 C 1503.89 -0.737844 -2.67303 0
M  V30 16641 H 1506.84 -0.854158 -1.33753 0
M  V30 16642 H 1506.87 0.321801 -3.79137 0
M  V30 16643 H 1506.38 -1.49102 -3.58316 0
M  V30 16644 H 1504.48 0.974703 -3.59625 0
M  V30 16645 H 1504.59 -0.503683 -4.76445 0
M  V30 16646 H 1502.96 -0.171349 -2.54123 0
M  V30 16647 H 1503.74 -1.79826 -2.92434 0
M  V30 16648 N 1506.18 1.52647 -0.392018 0
M  V30 16649 C 1507.12 2.24183 0.476934 0
M  V30 16650 C 1508.13 1.26526 1.02446 0
M  V30 16651 O 1509.32 1.52583 0.92632 0
M  V30 16652 C 1506.42 2.94672 1.67397 0
M  V30 16653 C 1505.59 4.19058 1.25335 0
M  V30 16654 C 1504.65 4.72522 2.31537 0
M  V30 16655 O 1503.68 5.35541 1.92833 0
M  V30 16656 N 1504.88 4.52613 3.63486 0
M  V30 16657 H 1507.64 2.99391 -0.135963 0
M  V30 16658 H 1505.2 1.60419 -0.218514 0
M  V30 16659 H 1507.2 3.27338 2.37975 0
M  V30 16660 H 1505.77 2.22755 2.19315 0
M  V30 16661 H 1504.99 3.92399 0.376352 0
M  V30 16662 H 1506.27 4.99871 0.94901 0
M  V30 16663 H 1505.67 4.02316 3.97692 0
M  V30 16664 H 1504.23 4.89761 4.3009 0
M  V30 16665 N 1507.66 0.121921 1.57128 0
M  V30 16666 C 1508.63 -0.812905 2.143 0
M  V30 16667 C 1509.63 -1.19261 1.07858 0
M  V30 16668 O 1510.82 -1.11764 1.33621 0
M  V30 16669 C 1507.95 -2.09969 2.68562 0
M  V30 16670 H 1509.14 -0.315992 2.98231 0
M  V30 16671 H 1506.69 -0.12734 1.5578 0
M  V30 16672 H 1507.43 -2.64085 1.88228 0
M  V30 16673 H 1507.21 -1.83688 3.46412 0
M  V30 16674 H 1508.7 -2.76788 3.12695 0
M  V30 16675 N 1509.14 -1.56867 -0.151857 0
M  V30 16676 C 1510.09 -1.94315 -1.19271 0
M  V30 16677 C 1511.07 -0.813807 -1.38802 0
M  V30 16678 O 1512.27 -1.07722 -1.40446 0
M  V30 16679 C 1509.4 -2.32316 -2.52753 0
M  V30 16680 C 1508.48 -3.5181 -2.36835 0
M  V30 16681 N 1508.87 -4.68488 -1.90663 0
M  V30 16682 C 1507.17 -3.56799 -2.67602 0
M  V30 16683 C 1507.87 -5.50594 -1.87673 0
M  V30 16684 N 1506.85 -4.92169 -2.30805 0
M  V30 16685 H 1510.65 -2.82003 -0.827747 0
M  V30 16686 H 1508.16 -1.58361 -0.359958 0
M  V30 16687 H 1510.16 -2.57347 -3.27991 0
M  V30 16688 H 1508.82 -1.45977 -2.90036 0
M  V30 16689 H 1509.83 -4.92336 -1.60703 0
M  V30 16690 H 1506.51 -2.80988 -3.08791 0
M  V30 16691 H 1507.9 -6.54129 -1.53509 0
M  V30 16692 N 1510.62 0.421051 -1.51871 0
M  V30 16693 C 1512.03 1.00033 -1.5764 0
M  V30 16694 C 1512.38 1.91875 -0.409665 0
M  V30 16695 O 1511.51 2.11201 0.471516 0
M  V30 16696 C 1512.1 1.82099 -2.85701 0
M  V30 16697 C 1510.66 2.35049 -2.93988 0
M  V30 16698 C 1509.81 1.14703 -2.52465 0
M  V30 16699 H 1512.76 0.201715 -1.57413 0
M  V30 16700 H 1512.78 2.67719 -2.70382 0
M  V30 16701 H 1512.29 1.15229 -3.706 0
M  V30 16702 H 1510.39 3.05327 -2.13556 0
M  V30 16703 H 1510.5 2.66731 -3.97984 0
M  V30 16704 H 1508.87 1.49736 -2.06037 0
M  V30 16705 H 1509.65 0.494171 -3.39725 0
M  V30 16706 N 1512.1 1.42293 0.677538 0
M  V30 16707 C 1513.33 1.45797 1.46379 0
M  V30 16708 C 1513.73 0.0669696 1.89081 0
M  V30 16709 O 1513.08 -0.928025 1.58535 0
M  V30 16710 C 1513.14 2.31982 2.74635 0
M  V30 16711 C 1512.8 3.79894 2.54026 0
M  V30 16712 C 1513.8 4.71615 2.18805 0
M  V30 16713 C 1511.49 4.24131 2.69106 0
M  V30 16714 C 1513.48 6.05563 1.98927 0
M  V30 16715 C 1511.17 5.5814 2.48844 0
M  V30 16716 C 1512.16 6.48672 2.13807 0
M  V30 16717 O 1511.85 7.80206 1.93737 0
M  V30 16718 H 1511.58 0.498113 0.457012 0
M  V30 16719 H 1514.14 1.87432 0.840151 0
M  V30 16720 H 1512.37 1.85191 3.39472 0
M  V30 16721 H 1514.06 2.26974 3.36508 0
M  V30 16722 H 1514.82 4.38723 2.06753 0
M  V30 16723 H 1510.7 3.53957 2.95357 0
M  V30 16724 H 1514.25 6.7619 1.71502 0
M  V30 16725 H 1510.14 5.90605 2.60491 0
M  V30 16726 H 1510.91 7.91536 2.08357 0
M  V30 16727 N 1513.57 -0.913576 1.28419 0
M  V30 16728 C 1514.82 -1.66273 1.15584 0
M  V30 16729 C 1515.15 -1.92242 -0.295541 0
M  V30 16730 O 1514.4 -1.52104 -1.23137 0
M  V30 16731 C 1514.7 -3.02722 1.89985 0
M  V30 16732 C 1514.37 -2.96413 3.3978 0
M  V30 16733 C 1513.03 -2.94399 3.80635 0
M  V30 16734 C 1515.38 -2.86648 4.35296 0
M  V30 16735 C 1512.71 -2.80422 5.15345 0
M  V30 16736 C 1515.06 -2.74211 5.7008 0
M  V30 16737 C 1513.73 -2.70556 6.1021 0
M  V30 16738 H 1513 -0.608435 0.422951 0
M  V30 16739 H 1515.64 -1.06438 1.59196 0
M  V30 16740 H 1513.95 -3.66344 1.38923 0
M  V30 16741 H 1515.65 -3.59591 1.7747 0
M  V30 16742 H 1512.24 -2.98775 3.07297 0
M  V30 16743 H 1516.42 -2.87291 4.04695 0
M  V30 16744 H 1511.68 -2.75987 5.45565 0
M  V30 16745 H 1515.85 -2.65624 6.43752 0
M  V30 16746 H 1513.48 -2.59483 7.14544 0
M  V30 16747 N 1515.05 -1.1067 -1.12204 0
M  V30 16748 C 1516.3 -0.861787 -1.84241 0
M  V30 16749 C 1516.65 0.60611 -1.82604 0
M  V30 16750 O 1515.95 1.44133 -1.26239 0
M  V30 16751 C 1516.14 -1.34727 -3.31034 0
M  V30 16752 C 1515.97 -2.86083 -3.46968 0
M  V30 16753 C 1514.74 -3.54113 -3.6046 0
M  V30 16754 C 1516.94 -3.84175 -3.41927 0
M  V30 16755 N 1514.92 -4.93767 -3.64784 0
M  V30 16756 C 1516.29 -5.09853 -3.52775 0
M  V30 16757 C 1518.35 -3.76847 -3.25408 0
M  V30 16758 C 1517.05 -6.29067 -3.48808 0
M  V30 16759 C 1519.07 -4.95564 -3.22755 0
M  V30 16760 C 1518.44 -6.20091 -3.34166 0
M  V30 16761 H 1514.54 -0.368386 -0.689794 0
M  V30 16762 H 1517.12 -1.40954 -1.34314 0
M  V30 16763 H 1515.29 -0.826806 -3.79498 0
M  V30 16764 H 1517.02 -1.04633 -3.9094 0
M  V30 16765 H 1513.78 -3.04564 -3.62682 0
M  V30 16766 H 1514.2 -5.66552 -3.70604 0
M  V30 16767 H 1518.84 -2.81485 -3.15478 0
M  V30 16768 H 1516.56 -7.24716 -3.57509 0
M  V30 16769 H 1520.15 -4.91606 -3.11151 0
M  V30 16770 H 1519.03 -7.10412 -3.32091 0
M  V30 16771 N 1516.53 1.29665 -0.895815 0
M  V30 16772 C 1517.46 2.26842 -0.327939 0
M  V30 16773 C 1518.48 1.54151 0.523578 0
M  V30 16774 O 1519.66 1.75205 0.341367 0
M  V30 16775 C 1516.76 3.34384 0.551393 0
M  V30 16776 C 1515.94 4.36544 -0.273514 0
M  V30 16777 C 1515 5.23442 0.538031 0
M  V30 16778 O 1514.02 5.69184 -0.0431025 0
M  V30 16779 N 1515.22 5.50402 1.84493 0
M  V30 16780 H 1517.99 2.76208 -1.16315 0
M  V30 16781 H 1515.55 1.42958 -0.759903 0
M  V30 16782 H 1517.54 3.89446 1.10062 0
M  V30 16783 H 1516.11 2.84864 1.28728 0
M  V30 16784 H 1515.33 3.81196 -1.00416 0
M  V30 16785 H 1516.62 5.01842 -0.838589 0
M  V30 16786 H 1516.02 5.15041 2.33985 0
M  V30 16787 H 1514.58 6.08295 2.34137 0
M  V30 16788 N 1518.01 0.657889 1.43212 0
M  V30 16789 C 1519.25 0.176848 2.03634 0
M  V30 16790 C 1519.61 -1.18833 1.50807 0
M  V30 16791 O 1520.81 -1.76305 2.02904 0
M  V30 16792 C 1519.08 0.191578 3.56886 0
M  V30 16793 S 1520.64 -0.220935 4.38243 0
M  V30 16794 H 1517.46 0.0742555 0.707112 0
M  V30 16795 H 1520.06 0.867268 1.7521 0
M  V30 16796 H 1518.77 1.18781 3.92835 0
M  V30 16797 H 1518.3 -0.519229 3.89958 0
M  V30 16798 H 1520.31 -1.45865 4.74276 0
M  V30 16799 N 1519.49 -1.52437 0.400108 0
M  V30 16800 C 1520.42 -2.29672 -0.421054 0
M  V30 16801 C 1521.4 -1.33506 -1.05405 0
M  V30 16802 O 1522.58 -1.62408 -1.06477 0
M  V30 16803 C 1519.71 -3.1115 -1.54281 0
M  V30 16804 C 1518.67 -4.1529 -1.0353 0
M  V30 16805 C 1517.99 -4.85058 -2.24996 0
M  V30 16806 C 1519.29 -5.22212 -0.0956529 0
M  V30 16807 H 1520.99 -2.98565 0.2234 0
M  V30 16808 H 1518.53 -1.43588 0.108883 0
M  V30 16809 H 1520.49 -3.63945 -2.12419 0
M  V30 16810 H 1519.21 -2.4001 -2.21501 0
M  V30 16811 H 1517.87 -3.63492 -0.476383 0
M  V30 16812 H 1517.52 -4.10455 -2.9075 0
M  V30 16813 H 1517.22 -5.55452 -1.91694 0
M  V30 16814 H 1518.74 -5.40661 -2.83756 0
M  V30 16815 H 1520.15 -5.70302 -0.585548 0
M  V30 16816 H 1518.55 -5.99917 0.148121 0
M  V30 16817 H 1519.62 -4.77351 0.852296 0
M  V30 16818 N 1520.96 -0.130252 -1.57061 0
M  V30 16819 C 1521.91 0.815767 -2.15902 0
M  V30 16820 C 1522.88 1.2558 -1.08715 0
M  V30 16821 O 1524.07 1.33132 -1.36677 0
M  V30 16822 C 1521.21 2.0561 -2.77162 0
M  V30 16823 C 1520.32 1.6634 -3.98692 0
M  V30 16824 C 1519.45 2.85425 -4.48002 0
M  V30 16825 C 1518.49 2.42449 -5.62036 0
M  V30 16826 N 1517.63 3.54486 -6.0604 0
M  V30 16827 H 1522.47 0.307164 -2.96413 0
M  V30 16828 H 1520.01 0.139913 -1.46433 0
M  V30 16829 H 1521.97 2.78298 -3.10815 0
M  V30 16830 H 1520.6 2.5391 -1.99323 0
M  V30 16831 H 1519.65 0.834817 -3.71127 0
M  V30 16832 H 1520.96 1.30765 -4.81354 0
M  V30 16833 H 1520.11 3.66325 -4.83623 0
M  V30 16834 H 1518.85 3.24235 -3.64312 0
M  V30 16835 H 1517.86 1.59985 -5.26008 0
M  V30 16836 H 1519.08 2.04744 -6.475 0
M  V30 16837 H 1517.03 3.92948 -5.25289 0
M  V30 16838 H 1516.95 3.22871 -6.83586 0
M  V30 16839 H 1518.21 4.35792 -6.46302 0
M  V30 16840 N 1522.44 1.56945 0.143535 0
M  V30 16841 C 1523.39 1.99479 1.19628 0
M  V30 16842 C 1524.39 0.887733 1.44276 0
M  V30 16843 O 1525.59 1.07292 1.44528 0
M  V30 16844 H 1521.97 0.635049 0.402761 0
M  V30 16845 H 1523.94 2.87171 0.810877 0
M  V30 16846 C 1522.69 2.39436 2.52123 0
M  V30 16847 H 1522.01 3.24176 2.33987 0
M  V30 16848 H 1523.45 2.73017 3.24404 0
M  V30 16849 C 1521.91 1.24836 3.12918 0
M  V30 16850 O 1522.44 0.550973 3.97903 0
M  V30 16851 N 1520.64 1.01172 2.7242 0
M  V30 16852 H 1520.19 1.5806 2.03408 0
M  V30 16853 H 1520.15 0.246846 3.13429 0
M  V30 16854 N 1523.92 -0.412991 1.52093 0
M  V30 16855 C 1524.88 -1.48555 1.7454 0
M  V30 16856 C 1525.88 -1.48563 0.615283 0
M  V30 16857 O 1527.07 -1.50155 0.883119 0
M  V30 16858 C 1524.21 -2.87984 1.82423 0
M  V30 16859 H 1525.4 -1.29945 2.70285 0
M  V30 16860 H 1522.95 -0.643241 1.4245 0
M  V30 16861 H 1523.69 -3.11969 0.885777 0
M  V30 16862 H 1523.47 -2.89381 2.64577 0
M  V30 16863 H 1524.96 -3.65745 2.01545 0
M  V30 16864 N 1525.4 -1.4265 -0.669982 0
M  V30 16865 C 1526.33 -1.49298 -1.79534 0
M  V30 16866 C 1527.31 -0.34911 -1.66479 0
M  V30 16867 O 1528.5 -0.564072 -1.85828 0
M  V30 16868 C 1525.63 -1.39935 -3.17861 0
M  V30 16869 C 1524.58 -2.52398 -3.45657 0
M  V30 16870 C 1523.91 -2.28092 -4.8361 0
M  V30 16871 C 1525.21 -3.94697 -3.4207 0
M  V30 16872 H 1526.9 -2.43486 -1.74227 0
M  V30 16873 H 1524.45 -1.17191 -0.836796 0
M  V30 16874 H 1526.4 -1.43193 -3.96325 0
M  V30 16875 H 1525.12 -0.422436 -3.23857 0
M  V30 16876 H 1523.78 -2.48465 -2.69556 0
M  V30 16877 H 1523.43 -1.28683 -4.86261 0
M  V30 16878 H 1523.13 -3.03469 -5.0317 0
M  V30 16879 H 1524.65 -2.33107 -5.64352 0
M  V30 16880 H 1526.07 -4.00207 -4.10496 0
M  V30 16881 H 1524.46 -4.69965 -3.73166 0
M  V30 16882 H 1525.53 -4.21025 -2.40554 0
M  V30 16883 N 1526.88 0.906753 -1.28902 0
M  V30 16884 C 1527.84 1.99158 -1.1344 0
M  V30 16885 C 1528.84 1.60639 -0.0719551 0
M  V30 16886 O 1530.03 1.71267 -0.318317 0
M  V30 16887 C 1527.16 3.32923 -0.733172 0
M  V30 16888 H 1528.36 2.14305 -2.09794 0
M  V30 16889 H 1525.91 1.09034 -1.11988 0
M  V30 16890 H 1526.64 3.23477 0.230826 0
M  V30 16891 H 1526.43 3.62244 -1.50073 0
M  V30 16892 H 1527.92 4.12544 -0.64784 0
M  V30 16893 N 1528.36 1.11264 1.11616 0
M  V30 16894 C 1529.58 0.882802 1.87121 0
M  V30 16895 C 1530 -0.567279 1.80076 0
M  V30 16896 O 1529.36 -1.39158 1.18074 0
M  V30 16897 C 1529.41 1.33355 3.36004 0
M  V30 16898 O 1529.13 2.72678 3.42897 0
M  V30 16899 C 1530.63 1.13886 4.28421 0
M  V30 16900 H 1527.85 0.316275 0.591786 0
M  V30 16901 H 1530.39 1.4795 1.41177 0
M  V30 16902 H 1528.55 0.780347 3.79459 0
M  V30 16903 H 1528.96 2.92168 4.35589 0
M  V30 16904 H 1530.44 1.50329 5.31136 0
M  V30 16905 H 1530.91 0.078259 4.3913 0
M  V30 16906 H 1531.52 1.67896 3.90757 0
M  V30 16907 N 1529.83 -1.29188 0.902679 0
M  V30 16908 C 1531.11 -1.90365 0.449496 0
M  V30 16909 C 1531.49 -1.81911 -1.07105 0
M  V30 16910 O 1530.84 -1.24778 -1.91423 0
M  V30 16911 C 1531.05 -3.35324 0.967418 0
M  V30 16912 C 1532.4 -4.12342 1.0129 0
M  V30 16913 O 1533.42 -3.44239 0.915293 0
M  V30 16914 O 1532.28 -5.34048 1.15994 0
M  V30 16915 H 1529.37 -0.814956 0.140628 0
M  V30 16916 H 1531.92 -1.37633 0.992739 0
M  V30 16917 H 1530.69 -3.35646 2.0114 0
M  V30 16918 H 1530.31 -3.95539 0.404358 0
M  V30 16919 N 1531.31 -0.665475 -1.42861 0
M  V30 16920 C 1532.26 0.030395 -2.3258 0
M  V30 16921 C 1533.25 0.800329 -1.49302 0
M  V30 16922 O 1534.46 0.709346 -1.65434 0
M  V30 16923 H 1530.83 0.0286201 -0.751455 0
M  V30 16924 H 1532.81 -0.743838 -2.8898 0
M  V30 16925 C 1531.55 0.974474 -3.33765 0
M  V30 16926 H 1530.88 0.391447 -3.97879 0
M  V30 16927 H 1532.32 1.43023 -3.99149 0
M  V30 16928 C 1530.78 2.0764 -2.65306 0
M  V30 16929 O 1531.31 3.16172 -2.47787 0
M  V30 16930 N 1529.51 1.84544 -2.24481 0
M  V30 16931 H 1529.06 0.962826 -2.3893 0
M  V30 16932 H 1529.02 2.58464 -1.79007 0
M  V30 16933 N 1532.79 1.52222 -0.408187 0
M  V30 16934 C 1533.74 2.2381 0.435101 0
M  V30 16935 C 1534.72 1.24908 1.01424 0
M  V30 16936 O 1535.92 1.50151 0.937216 0
M  V30 16937 C 1533.04 3.06229 1.55173 0
M  V30 16938 C 1532.13 4.12541 0.98341 0
M  V30 16939 N 1532.52 5.05602 0.141664 0
M  V30 16940 C 1530.82 4.28008 1.25401 0
M  V30 16941 C 1531.52 5.81438 -0.174417 0
M  V30 16942 N 1530.5 5.41861 0.434479 0
M  V30 16943 H 1534.3 2.93117 -0.214323 0
M  V30 16944 H 1531.81 1.60923 -0.218556 0
M  V30 16945 H 1533.81 3.56067 2.16845 0
M  V30 16946 H 1532.47 2.3846 2.20379 0
M  V30 16947 H 1533.48 5.17422 -0.222569 0
M  V30 16948 H 1530.16 3.71468 1.90572 0
M  V30 16949 H 1531.55 6.66404 -0.857609 0
M  V30 16950 N 1534.27 0.138579 1.5699 0
M  V30 16951 C 1535.51 -0.51539 1.96142 0
M  V30 16952 C 1535.85 -1.65067 1.02306 0
M  V30 16953 O 1535.12 -1.94395 0.0638645 0
M  V30 16954 C 1535.4 -1.02956 3.45068 0
M  V30 16955 C 1535.26 0.103646 4.49681 0
M  V30 16956 C 1536.58 -1.91411 3.96295 0
M  V30 16957 H 1533.7 -0.185873 0.713176 0
M  V30 16958 H 1536.34 0.218103 1.88744 0
M  V30 16959 H 1534.49 -1.65462 3.51503 0
M  V30 16960 H 1536.16 0.739693 4.55331 0
M  V30 16961 H 1534.4 0.764014 4.27019 0
M  V30 16962 H 1535.07 -0.297688 5.51197 0
M  V30 16963 H 1537.55 -1.38746 3.92286 0
M  V30 16964 H 1536.43 -2.24298 5.0098 0
M  V30 16965 H 1536.69 -2.84793 3.38149 0
M  V30 16966 N 1535.75 -1.57019 -0.13521 0
M  V30 16967 C 1536.71 -1.98229 -1.15056 0
M  V30 16968 C 1537.71 -0.870295 -1.35213 0
M  V30 16969 O 1538.9 -1.13668 -1.32005 0
M  V30 16970 C 1536.03 -2.30844 -2.50846 0
M  V30 16971 H 1537.22 -2.89123 -0.796744 0
M  V30 16972 H 1534.78 -1.51636 -0.378962 0
M  V30 16973 H 1535.51 -1.42779 -2.91178 0
M  V30 16974 H 1535.3 -3.11931 -2.37574 0
M  V30 16975 H 1536.79 -2.63524 -3.23952 0
M  V30 16976 N 1537.22 0.404919 -1.52309 0
M  V30 16977 C 1538.45 1.17139 -1.70182 0
M  V30 16978 C 1538.86 1.84642 -0.412805 0
M  V30 16979 O 1538.21 1.72873 0.621347 0
M  V30 16980 C 1538.27 2.27402 -2.78439 0
M  V30 16981 C 1537.93 1.8 -4.20058 0
M  V30 16982 C 1538.93 1.28546 -5.03758 0
M  V30 16983 C 1536.61 1.86706 -4.66311 0
M  V30 16984 C 1538.61 0.84425 -6.31784 0
M  V30 16985 C 1536.29 1.42197 -5.94326 0
M  V30 16986 C 1537.29 0.911418 -6.76892 0
M  V30 16987 O 1536.98 0.472762 -8.02509 0
M  V30 16988 H 1536.71 0.357845 -0.573518 0
M  V30 16989 H 1539.27 0.481939 -1.99666 0
M  V30 16990 H 1537.5 2.99724 -2.44341 0
M  V30 16991 H 1539.19 2.89143 -2.8487 0
M  V30 16992 H 1539.95 1.22734 -4.69213 0
M  V30 16993 H 1535.83 2.25389 -4.02145 0
M  V30 16994 H 1539.37 0.445063 -6.96179 0
M  V30 16995 H 1535.27 1.47689 -6.28377 0
M  V30 16996 H 1536.04 0.595689 -8.16329 0
M  V30 16997 N 1538.7 1.43003 0.662408 0
M  V30 16998 C 1539.93 1.47766 1.45533 0
M  V30 16999 C 1540.35 0.0940298 1.87865 0
M  V30 17000 O 1539.71 -0.910252 1.56793 0
M  V30 17001 C 1539.76 2.42084 2.6726 0
M  V30 17002 O 1538.86 1.90076 3.65985 0
M  V30 17003 H 1538.2 0.500167 0.436725 0
M  V30 17004 H 1540.73 1.87823 0.811399 0
M  V30 17005 H 1540.74 2.5908 3.15185 0
M  V30 17006 H 1539.42 3.42601 2.3579 0
M  V30 17007 H 1538 1.82695 3.2508 0
M  V30 17008 N 1540.18 -0.899904 1.29381 0
M  V30 17009 C 1541.11 -2.00914 1.103 0
M  V30 17010 C 1542.13 -1.62721 0.050568 0
M  V30 17011 O 1543.31 -1.76044 0.295068 0
M  V30 17012 C 1540.41 -3.32473 0.656896 0
M  V30 17013 C 1539.59 -3.99195 1.7878 0
M  V30 17014 C 1538.65 -5.09043 1.33274 0
M  V30 17015 O 1537.67 -5.31486 2.03742 0
M  V30 17016 N 1538.87 -5.80143 0.203519 0
M  V30 17017 H 1541.64 -2.17838 2.05832 0
M  V30 17018 H 1539.2 -1.07208 1.21318 0
M  V30 17019 H 1541.19 -4.03305 0.335783 0
M  V30 17020 H 1539.76 -3.11921 -0.205959 0
M  V30 17021 H 1538.98 -3.21729 2.2778 0
M  V30 17022 H 1540.27 -4.40515 2.54606 0
M  V30 17023 H 1539.67 -5.64395 -0.384005 0
M  V30 17024 H 1538.23 -6.51774 -0.0582282 0
M  V30 17025 N 1541.66 -1.11854 -1.11024 0
M  V30 17026 C 1542.9 -0.871362 -1.83126 0
M  V30 17027 C 1543.24 0.601437 -1.84652 0
M  V30 17028 O 1542.51 1.44427 -1.30273 0
M  V30 17029 C 1542.8 -1.4391 -3.30094 0
M  V30 17030 C 1542.65 -2.97983 -3.36937 0
M  V30 17031 C 1543.97 -1.09361 -4.26296 0
M  V30 17032 H 1541.09 -0.317994 -0.664867 0
M  V30 17033 H 1543.73 -1.38414 -1.3016 0
M  V30 17034 H 1541.88 -1.00297 -3.7533 0
M  V30 17035 H 1543.55 -3.50231 -3.00227 0
M  V30 17036 H 1541.79 -3.33827 -2.77023 0
M  V30 17037 H 1542.46 -3.32797 -4.40398 0
M  V30 17038 H 1544.94 -1.47018 -3.89262 0
M  V30 17039 H 1543.82 -1.51756 -5.27505 0
M  V30 17040 H 1544.08 -0.0049637 -4.421 0
M  V30 17041 N 1543.14 1.28707 -0.909517 0
M  V30 17042 C 1544.38 1.95154 -0.540481 0
M  V30 17043 C 1544.71 1.7163 0.91506 0
M  V30 17044 O 1543.97 1.02786 1.66534 0
M  V30 17045 C 1544.27 3.48536 -0.791037 0
M  V30 17046 C 1543.93 3.92153 -2.22546 0
M  V30 17047 C 1542.59 4.03772 -2.61766 0
M  V30 17048 C 1544.95 4.14547 -3.15912 0
M  V30 17049 C 1542.27 4.35162 -3.93511 0
M  V30 17050 C 1544.63 4.47414 -4.47218 0
M  V30 17051 C 1543.29 4.57244 -4.86296 0
M  V30 17052 H 1542.56 0.714119 -0.197776 0
M  V30 17053 H 1545.21 1.53122 -1.15004 0
M  V30 17054 H 1543.51 3.91676 -0.0986412 0
M  V30 17055 H 1545.21 3.98059 -0.48474 0
M  V30 17056 H 1541.8 3.83633 -1.91113 0
M  V30 17057 H 1545.98 4.05027 -2.86822 0
M  V30 17058 H 1541.24 4.40977 -4.23496 0
M  V30 17059 H 1545.41 4.6369 -5.19581 0
M  V30 17060 H 1543.04 4.81321 -5.88416 0
M  V30 17061 N 1544.61 0.673042 1.42506 0
M  V30 17062 C 1545.56 -0.00638067 2.30799 0
M  V30 17063 C 1546.53 -0.794524 1.45865 0
M  V30 17064 O 1547.72 -0.767129 1.74699 0
M  V30 17065 C 1544.86 -0.952923 3.31683 0
M  V30 17066 C 1543.97 -0.158787 4.31708 0
M  V30 17067 C 1543.1 -1.10092 5.19666 0
M  V30 17068 C 1542.14 -0.29837 6.11372 0
M  V30 17069 N 1541.28 -1.19312 6.91888 0
M  V30 17070 H 1546.12 0.75237 2.88346 0
M  V30 17071 H 1543.66 0.382763 1.42033 0
M  V30 17072 H 1545.62 -1.51552 3.887 0
M  V30 17073 H 1544.25 -1.67832 2.75739 0
M  V30 17074 H 1543.3 0.520406 3.76823 0
M  V30 17075 H 1544.61 0.464385 4.96634 0
M  V30 17076 H 1543.76 -1.7335 5.81407 0
M  V30 17077 H 1542.5 -1.75798 4.54914 0
M  V30 17078 H 1541.51 0.347437 5.48701 0
M  V30 17079 H 1542.73 0.354569 6.78174 0
M  V30 17080 H 1540.68 -1.83661 6.29765 0
M  V30 17081 H 1540.6 -0.624986 7.53412 0
M  V30 17082 H 1541.86 -1.81323 7.58118 0
M  V30 17083 N 1546.09 -1.52004 0.416254 0
M  V30 17084 C 1547 -2.30947 -0.412403 0
M  V30 17085 C 1548.02 -1.38969 -1.04707 0
M  V30 17086 O 1549.19 -1.72044 -1.04703 0
M  V30 17087 C 1546.26 -3.12078 -1.51024 0
M  V30 17088 C 1545.32 -4.19805 -0.897892 0
M  V30 17089 C 1544.55 -4.97059 -1.94341 0
M  V30 17090 O 1544.78 -4.74695 -3.16261 0
M  V30 17091 O 1543.71 -5.81715 -1.54567 0
M  V30 17092 H 1547.54 -3.02817 0.231473 0
M  V30 17093 H 1545.12 -1.4832 0.179283 0
M  V30 17094 H 1547 -3.6258 -2.14741 0
M  V30 17095 H 1545.68 -2.42995 -2.13858 0
M  V30 17096 H 1544.59 -3.73433 -0.223236 0
M  V30 17097 H 1545.92 -4.91201 -0.31336 0
M  V30 17098 N 1547.57 -0.146903 -1.56914 0
M  V30 17099 C 1548.8 0.511181 -2.00486 0
M  V30 17100 C 1549.21 1.58425 -1.02699 0
M  V30 17101 O 1548.57 1.82484 -0.0239878 0
M  V30 17102 C 1548.62 1.11191 -3.43975 0
M  V30 17103 O 1548.34 0.0817094 -4.38024 0
M  V30 17104 C 1549.84 1.85061 -4.02824 0
M  V30 17105 H 1547.06 0.133078 -0.657671 0
M  V30 17106 H 1549.61 -0.241457 -2.0307 0
M  V30 17107 H 1547.76 1.81517 -3.42243 0
M  V30 17108 H 1548.18 0.52181 -5.21898 0
M  V30 17109 H 1549.65 2.22385 -5.05222 0
M  V30 17110 H 1550.13 2.73649 -3.4353 0
M  V30 17111 H 1550.73 1.19434 -4.08186 0
M  V30 17112 N 1549.05 1.57088 0.126881 0
M  V30 17113 C 1550.29 1.84709 0.837287 0
M  V30 17114 C 1550.63 0.731496 1.79897 0
M  V30 17115 O 1549.9 -0.263319 1.92709 0
M  V30 17116 C 1550.19 3.22893 1.59412 0
M  V30 17117 C 1550.04 4.45041 0.652578 0
M  V30 17118 C 1551.36 3.58547 2.5521 0
M  V30 17119 H 1548.48 0.671862 0.302937 0
M  V30 17120 H 1551.12 1.89727 0.101783 0
M  V30 17121 H 1549.27 3.18746 2.22112 0
M  V30 17122 H 1550.94 4.61287 0.0350382 0
M  V30 17123 H 1549.18 4.33785 -0.0364578 0
M  V30 17124 H 1549.85 5.38381 1.21861 0
M  V30 17125 H 1552.33 3.63434 2.0262 0
M  V30 17126 H 1551.21 4.56227 3.05202 0
M  V30 17127 H 1551.47 2.85552 3.37509 0
M  V30 17128 O 1550.57 -0.271318 1.59205 0
M  V30 17129 H 1551.26 -0.916383 1.70652 0
M  V30 END ATOM
M  V30 BEGIN BOND
M  V30 END BOND
M  V30 END CTAB
M  END
$$$$
