drugbank_target|Q9UQF2 C-Jun-amino-terminal kinase-interacting protein 1 (DB01782; DB07218; DB07272; DB07276; DB11157)
 OpenBabel12092120403D

  0  0  0     0  0            999 V3000
M  V30 BEGIN CTAB
M  V30 COUNTS 10588 10733 0 0 0
M  V30 BEGIN ATOM
M  V30 1 H -0.908 1.98254 -0.117106 0
M  V30 2 N 0 1.576 0 0
M  V30 3 C 0.933 2.03868 1.02534 0
M  V30 4 C 1.911 0.928543 1.3348 0
M  V30 5 O 3.095 1.19667 1.45644 0
M  V30 6 C 0.222 2.43627 2.35294 0
M  V30 7 C -0.732 3.65373 2.2001 0
M  V30 8 S 0.101 5.13292 1.52614 0
M  V30 9 C 1.257 5.56322 2.86805 0
M  V30 10 H 1.49 2.90518 0.631377 0
M  V30 11 H -0.977 1.52953 0.210867 0
M  V30 12 H 0.981 2.67203 3.11629 0
M  V30 13 H -0.358 1.57376 2.7183 0
M  V30 14 H -1.165 3.90944 3.18086 0
M  V30 15 H -1.563 3.418 1.51819 0
M  V30 16 H 0.729 5.58782 3.83104 0
M  V30 17 H 1.672 6.56266 2.65933 0
M  V30 18 H 2.08 4.83886 2.90714 0
M  V30 19 N 1.4781 -0.272755 1.55222 0
M  V30 20 C 2.4411 -1.32041 1.87344 0
M  V30 21 C 3.4411 -1.42342 0.74803 0
M  V30 22 O 4.6311 -1.41488 1.0162 0
M  V30 23 C 1.7631 -2.70173 2.07893 0
M  V30 24 H 2.9561 -1.04789 2.80997 0
M  V30 25 H 0.5091 -0.51083 1.47717 0
M  V30 26 H 1.2441 -3.02605 1.16622 0
M  V30 27 H 1.0291 -2.64082 2.89833 0
M  V30 28 H 2.5191 -3.45869 2.34017 0
M  V30 29 N 2.9562 -1.48159 -0.537278 0
M  V30 30 C 3.8662 -1.64807 -1.6696 0
M  V30 31 C 4.8822 -0.530651 -1.65711 0
M  V30 32 O 6.0582 -0.800784 -1.84796 0
M  V30 33 C 3.1232 -1.67708 -3.03438 0
M  V30 34 C 2.1842 -2.91025 -3.156 0
M  V30 35 C 1.4172 -2.93778 -4.45567 0
M  V30 36 O 1.6402 -2.05153 -5.3223 0
M  V30 37 O 0.5742 -3.85868 -4.61941 0
M  V30 38 H 4.4002 -2.6066 -1.55853 0
M  V30 39 H 1.9852 -1.31475 -0.709549 0
M  V30 40 H 3.8672 -1.7218 -3.84619 0
M  V30 41 H 2.5422 -0.750278 -3.14885 0
M  V30 42 H 1.4492 -2.92089 -2.33741 0
M  V30 43 H 2.7822 -3.83065 -3.09066 0
M  V30 44 N 4.4343 0.785586 -1.36625 0
M  V30 45 C 5.8503 1.08419 -1.17122 0
M  V30 46 C 6.0503 2.015 0.00208491 0
M  V30 47 O 5.1063 2.43551 0.666278 0
M  V30 48 C 6.4193 1.69498 -2.48377 0
M  V30 49 C 7.9673 1.81821 -2.54775 0
M  V30 50 C 8.4423 2.46315 -3.86126 0
M  V30 51 N 9.9333 2.53779 -3.87492 0
M  V30 52 C 10.6683 3.045 -4.85868 0
M  V30 53 N 10.1643 3.55499 -5.94637 0
M  V30 54 N 11.9573 3.03247 -4.73284 0
M  V30 55 H 4.1083 0.167264 -2.1174 0
M  V30 56 H 6.3713 0.13682 -0.938075 0
M  V30 57 H 6.0773 1.08571 -3.34522 0
M  V30 58 H 5.9513 2.6896 -2.64462 0
M  V30 59 H 8.3383 2.41884 -1.69045 0
M  V30 60 H 8.4193 0.811532 -2.42586 0
M  V30 61 H 8.0633 1.86895 -4.72263 0
M  V30 62 H 7.9933 3.47561 -3.95612 0
M  V30 63 H 10.4843 2.17672 -3.08913 0
M  V30 64 H 10.7973 3.92562 -6.65669 0
M  V30 65 H 9.1423 3.5364 -5.98301 0
M  V30 66 H 12.3333 2.62696 -3.87438 0
M  V30 67 H 12.5063 3.42467 -5.50109 0
M  V30 68 N 5.9124 1.20967 1.01018 0
M  V30 69 C 6.8224 0.980157 2.13143 0
M  V30 70 C 7.8384 -0.0660665 1.73875 0
M  V30 71 O 9.0144 0.122821 2.01025 0
M  V30 72 C 6.0794 0.54216 3.42435 0
M  V30 73 C 5.1404 1.65999 3.95908 0
M  V30 74 C 4.3734 1.2428 5.19028 0
M  V30 75 O 4.5964 0.114196 5.70286 0
M  V30 76 O 3.5304 2.05271 5.65816 0
M  V30 77 H 7.3564 1.91913 2.35379 0
M  V30 78 H 4.9414 0.994099 1.11526 0
M  V30 79 H 6.8234 0.30744 4.20277 0
M  V30 80 H 5.4984 -0.36815 3.216 0
M  V30 81 H 4.4054 1.94906 3.19316 0
M  V30 82 H 5.7384 2.54753 4.21143 0
M  V30 83 N 7.3905 -1.2043 1.01659 0
M  V30 84 C 8.6155 -1.94318 0.724942 0
M  V30 85 C 9.0405 -1.74266 -0.708034 0
M  V30 86 O 8.3985 -1.03694 -1.48719 0
M  V30 87 C 8.4465 -3.44486 1.06591 0
M  V30 88 O 7.5505 -4.12017 0.177599 0
M  V30 89 H 6.8915 -0.60708 0.26898 0
M  V30 90 H 9.4215 -1.52861 1.35995 0
M  V30 91 H 9.4315 -3.95106 1.01762 0
M  V30 92 H 8.1065 -3.58404 2.10997 0
M  V30 93 H 6.6835 -3.71821 0.283421 0
M  V30 94 N 8.8686 -0.792821 -1.36206 0
M  V30 95 C 10.1166 -0.366062 -1.98757 0
M  V30 96 C 10.4376 1.0668 -1.63231 0
M  V30 97 O 9.7076 1.73587 -0.907978 0
M  V30 98 H 8.2876 -0.132364 -0.735179 0
M  V30 99 H 10.9496 -1.01562 -1.66347 0
M  V30 100 H 10.0456 -0.460638 -3.08682 0
M  V30 101 N 10.3467 1.47872 -0.545128 0
M  V30 102 C 11.5947 2.02093 -0.016553 0
M  V30 103 C 11.9157 1.42305 1.3332 0
M  V30 104 O 11.1857 0.593853 1.86682 0
M  V30 105 H 9.7657 0.746993 -0.00313038 0
M  V30 106 H 12.4277 1.81414 -0.712397 0
M  V30 107 H 11.5237 3.11996 0.0805422 0
M  V30 108 N 11.8248 0.280983 1.55075 0
M  V30 109 C 12.7548 -0.597469 2.25727 0
M  V30 110 C 13.7358 -1.15417 1.24952 0
M  V30 111 O 14.9208 -1.18722 1.53684 0
M  V30 112 C 12.0508 -1.7789 2.98283 0
M  V30 113 C 11.0048 -1.35347 4.06036 0
M  V30 114 C 10.3308 -2.61846 4.66198 0
M  V30 115 C 11.6308 -0.499354 5.19907 0
M  V30 116 H 13.3248 -0.00824265 2.99399 0
M  V30 117 H 10.8708 -0.0025244 1.44 0
M  V30 118 H 12.8238 -2.39937 3.46422 0
M  V30 119 H 11.5478 -2.39405 2.22155 0
M  V30 120 H 10.2068 -0.756156 3.58717 0
M  V30 121 H 9.8548 -3.21632 3.86732 0
M  V30 122 H 9.5548 -2.3409 5.38958 0
M  V30 123 H 11.0788 -3.24732 5.1709 0
M  V30 124 H 12.4928 -1.02498 5.64063 0
M  V30 125 H 10.8898 -0.316424 5.99265 0
M  V30 126 H 11.9598 0.480459 4.82514 0
M  V30 127 N 13.3029 -1.57598 0.00835791 0
M  V30 128 C 14.5509 -1.90551 -0.6734 0
M  V30 129 C 14.8719 -0.883301 -1.73847 0
M  V30 130 O 14.1419 0.0781442 -1.95744 0
M  V30 131 H 12.7219 -0.703312 -0.251717 0
M  V30 132 H 15.3839 -1.94833 0.0512592 0
M  V30 133 H 14.4799 -2.9056 -1.13935 0
M  V30 134 N 14.781 0.264519 -1.55364 0
M  V30 135 C 16.029 0.993021 -1.76021 0
M  V30 136 C 16.35 1.86511 -0.569099 0
M  V30 137 O 15.62 1.91438 0.415735 0
M  V30 138 H 14.2 0.369639 -0.649135 0
M  V30 139 H 16.862 0.286707 -1.9278 0
M  V30 140 H 15.958 1.62502 -2.66457 0
M  V30 141 N 16.2591 1.48442 0.529413 0
M  V30 142 C 17.5071 1.56179 1.28267 0
M  V30 143 C 17.8281 0.237721 1.93546 0
M  V30 144 O 17.0981 -0.740779 1.81354 0
M  V30 145 H 15.6781 0.575367 0.476405 0
M  V30 146 H 18.3401 1.84909 0.61602 0
M  V30 147 H 17.4361 2.34312 2.06165 0
M  V30 148 N 17.7372 -0.778329 1.37039 0
M  V30 149 C 18.7002 -1.87301 1.32102 0
M  V30 150 C 19.7002 -1.59198 0.226405 0
M  V30 151 O 20.8902 -1.67403 0.481861 0
M  V30 152 C 18.0222 -3.24309 1.05055 0
M  V30 153 H 19.2152 -1.93093 2.29467 0
M  V30 154 H 16.7682 -0.977358 1.21973 0
M  V30 155 H 17.5032 -3.24196 0.0819373 0
M  V30 156 H 17.2882 -3.46098 1.84279 0
M  V30 157 H 18.7782 -4.04382 1.04234 0
M  V30 158 N 19.2153 -1.21501 -1.00376 0
M  V30 159 C 20.1783 -0.976927 -2.07337 0
M  V30 160 C 21.1783 0.0525322 -1.60714 0
M  V30 161 O 22.3683 -0.184869 -1.73216 0
M  V30 162 C 19.5003 -0.473423 -3.37597 0
M  V30 163 H 20.6933 -1.92587 -2.29892 0
M  V30 164 H 18.2463 -1.03217 -1.17371 0
M  V30 165 H 18.9813 0.480379 -3.20722 0
M  V30 166 H 18.7663 -1.216 -3.72768 0
M  V30 167 H 20.2563 -0.32675 -4.1632 0
M  V30 168 N 20.6934 1.19889 -1.02296 0
M  V30 169 C 21.9184 1.9393 -0.735237 0
M  V30 170 C 22.3434 1.74639 0.698782 0
M  V30 171 O 21.7014 1.04481 1.48167 0
M  V30 172 C 21.7494 3.43916 -1.08417 0
M  V30 173 O 20.8534 4.11917 -0.199446 0
M  V30 174 H 20.1944 0.605645 -0.272196 0
M  V30 175 H 22.7244 1.52137 -1.36804 0
M  V30 176 H 22.7344 3.9456 -1.03856 0
M  V30 177 H 21.4094 3.5728 -2.12894 0
M  V30 178 H 19.9864 3.71666 -0.303136 0
M  V30 179 N 22.1715 0.800033 1.35784 0
M  V30 180 C 23.5825 0.439142 1.81462 0
M  V30 181 C 23.9335 -1.03813 1.66485 0
M  V30 182 O 23.0585 -1.80626 1.19177 0
M  V30 183 C 23.6535 0.790314 3.29453 0
M  V30 184 C 22.2125 0.482111 3.733 0
M  V30 185 C 21.3595 1.01938 2.57883 0
M  V30 186 H 24.3105 0.992254 1.23855 0
M  V30 187 H 24.3315 0.0853677 3.80404 0
M  V30 188 H 23.8435 1.86554 3.40322 0
M  V30 189 H 21.9445 -0.584652 3.67984 0
M  V30 190 H 22.0575 1.01015 4.6833 0
M  V30 191 H 20.4215 0.442043 2.50835 0
M  V30 192 H 21.2045 2.10059 2.71533 0
M  V30 193 N 23.6496 -1.47581 0.552962 0
M  V30 194 C 25.0606 -1.86324 0.118463 0
M  V30 195 C 25.4116 -1.46006 -1.3106 0
M  V30 196 O 24.5366 -0.861182 -1.98526 0
M  V30 197 C 25.1316 -3.3816 0.20821 0
M  V30 198 C 23.6906 -3.7601 -0.171226 0
M  V30 199 C 22.8376 -2.71634 0.557686 0
M  V30 200 H 25.7886 -1.39159 0.762928 0
M  V30 201 H 25.8096 -3.76141 -0.574278 0
M  V30 202 H 25.3216 -3.67473 1.24841 0
M  V30 203 H 23.4226 -3.52313 -1.21269 0
M  V30 204 H 23.5356 -4.78745 0.184379 0
M  V30 205 H 21.8996 -2.547 0.00125792 0
M  V30 206 H 22.6826 -3.0379 1.59896 0
M  V30 207 N 25.1277 -0.289203 -1.54924 0
M  V30 208 C 26.0907 0.579144 -2.21762 0
M  V30 209 C 27.0907 1.07047 -1.1999 0
M  V30 210 O 28.2807 0.968384 -1.44803 0
M  V30 211 C 25.4127 1.80055 -2.8947 0
M  V30 212 H 26.6057 -0.00464908 -2.999 0
M  V30 213 H 24.1587 -0.0399306 -1.56249 0
M  V30 214 H 24.8937 2.42449 -2.15381 0
M  V30 215 H 24.6787 1.45602 -3.64064 0
M  V30 216 H 26.1687 2.41773 -3.40493 0
M  V30 217 N 26.6058 1.57591 -0.0167156 0
M  V30 218 C 27.5688 2.08393 0.954204 0
M  V30 219 C 28.5688 0.996531 1.26198 0
M  V30 220 O 29.7588 1.25858 1.20438 0
M  V30 221 C 26.8908 2.5394 2.27436 0
M  V30 222 H 28.0838 2.95455 0.514451 0
M  V30 223 H 25.6368 1.54582 0.231089 0
M  V30 224 H 26.3718 1.70171 2.76066 0
M  V30 225 H 26.1568 3.33371 2.06412 0
M  V30 226 H 27.6468 2.93512 2.97053 0
M  V30 227 N 28.0839 -0.256276 1.55502 0
M  V30 228 C 29.3089 -1.00766 1.81276 0
M  V30 229 C 29.7339 -1.78524 0.59252 0
M  V30 230 O 29.0919 -1.75413 -0.45827 0
M  V30 231 C 29.1399 -1.92869 3.04687 0
M  V30 232 O 28.2439 -3.019 2.80945 0
M  V30 233 H 27.5849 -0.287224 0.598664 0
M  V30 234 H 30.1149 -0.280109 2.02674 0
M  V30 235 H 30.1249 -2.34511 3.33869 0
M  V30 236 H 28.7999 -1.35689 3.93143 0
M  V30 237 H 27.3769 -2.64454 2.62904 0
M  V30 238 N 29.562 -1.4872 -0.521534 0
M  V30 239 C 30.973 -1.50607 -1.10337 0
M  V30 240 C 31.324 -0.280612 -1.94183 0
M  V30 241 O 30.449 0.611507 -2.0758 0
M  V30 242 C 31.044 -2.72903 -2.00772 0
M  V30 243 C 29.603 -2.77634 -2.54158 0
M  V30 244 C 28.75 -2.44241 -1.31307 0
M  V30 245 H 31.701 -1.55714 -0.306388 0
M  V30 246 H 31.722 -2.519 -2.85178 0
M  V30 247 H 31.234 -3.62077 -1.39721 0
M  V30 248 H 29.335 -1.92689 -3.18907 0
M  V30 249 H 29.448 -3.79283 -2.92714 0
M  V30 250 H 27.812 -1.95577 -1.63161 0
M  V30 251 H 28.595 -3.35666 -0.719943 0
M  V30 252 N 31.0401 0.771051 -1.3745 0
M  V30 253 C 32.2871 1.52963 -1.32697 0
M  V30 254 C 32.6151 1.94299 0.0883274 0
M  V30 255 O 31.8701 1.64397 1.0617 0
M  V30 256 C 32.1691 2.80676 -2.2126 0
M  V30 257 C 31.8351 2.58389 -3.69521 0
M  V30 258 C 30.4971 2.52019 -4.09927 0
M  V30 259 C 32.8491 2.38469 -4.63446 0
M  V30 260 C 30.1771 2.23721 -5.42371 0
M  V30 261 C 32.5291 2.11694 -5.96128 0
M  V30 262 C 31.1931 2.03769 -6.35637 0
M  V30 263 H 30.4631 0.559732 -0.485573 0
M  V30 264 H 33.1101 0.888083 -1.69662 0
M  V30 265 H 31.4151 3.49392 -1.77291 0
M  V30 266 H 33.1121 3.38557 -2.14895 0
M  V30 267 H 29.7021 2.6421 -3.37478 0
M  V30 268 H 33.8861 2.4238 -4.33089 0
M  V30 269 H 29.1421 2.16081 -5.71943 0
M  V30 270 H 33.3161 1.9528 -6.6846 0
M  V30 271 H 30.9431 1.81606 -7.38189 0
M  V30 272 N 32.5182 1.22032 0.997298 0
M  V30 273 C 33.4482 1.01065 2.10495 0
M  V30 274 C 34.4292 -0.0669542 1.69968 0
M  V30 275 O 35.6142 0.0943987 1.9397 0
M  V30 276 C 32.7442 0.582874 3.42374 0
M  V30 277 C 31.6982 1.60592 3.96729 0
M  V30 278 C 31.0242 1.03412 5.24605 0
M  V30 279 C 32.3242 2.99478 4.27914 0
M  V30 280 H 34.0182 1.93708 2.28292 0
M  V30 281 H 31.5642 0.932761 1.09707 0
M  V30 282 H 33.5172 0.423332 4.19268 0
M  V30 283 H 32.2412 -0.379213 3.24391 0
M  V30 284 H 30.9002 1.75316 3.21963 0
M  V30 285 H 30.5482 0.063518 5.0296 0
M  V30 286 H 30.2482 1.71754 5.61938 0
M  V30 287 H 31.7722 0.886066 6.04137 0
M  V30 288 H 33.1862 2.88153 4.95622 0
M  V30 289 H 31.5832 3.64903 4.76409 0
M  V30 290 H 32.6532 3.49742 3.3587 0
M  V30 291 N 33.9963 -1.19345 1.0293 0
M  V30 292 C 35.2443 -1.88665 0.724574 0
M  V30 293 C 35.5653 -1.80036 -0.749144 0
M  V30 294 O 34.8353 -1.2111 -1.53978 0
M  V30 295 H 33.4153 -0.698406 0.265025 0
M  V30 296 H 36.0773 -1.44885 1.30362 0
M  V30 297 H 35.1733 -2.94987 1.01926 0
M  V30 298 N 35.4744 -0.807222 -1.35358 0
M  V30 299 C 36.4044 -0.232509 -2.3234 0
M  V30 300 C 37.3854 0.642386 -1.57504 0
M  V30 301 O 38.5704 0.572526 -1.85569 0
M  V30 302 C 35.7004 0.619238 -3.41735 0
M  V30 303 C 34.6544 -0.157215 -4.27711 0
M  V30 304 C 33.9804 0.816273 -5.28433 0
M  V30 305 C 35.2804 -1.35656 -5.04376 0
M  V30 306 H 36.9744 -1.04276 -2.80654 0
M  V30 307 H 34.5204 -0.50288 -1.34934 0
M  V30 308 H 36.4734 1.03137 -4.08584 0
M  V30 309 H 35.1974 1.46239 -2.92031 0
M  V30 310 H 33.8564 -0.550525 -3.62443 0
M  V30 311 H 33.5044 1.65494 -4.74996 0
M  V30 312 H 33.2044 0.301067 -5.86828 0
M  V30 313 H 34.7284 1.22659 -5.98153 0
M  V30 314 H 36.1424 -1.01927 -5.64166 0
M  V30 315 H 34.5394 -1.8063 -5.7227 0
M  V30 316 H 35.6094 -2.14288 -4.34981 0
M  V30 317 N 36.9525 1.47285 -0.560781 0
M  V30 318 C 37.9025 2.27073 0.205384 0
M  V30 319 C 38.8865 1.34569 0.882044 0
M  V30 320 O 40.0785 1.58899 0.77976 0
M  V30 321 C 37.2075 3.20414 1.23247 0
M  V30 322 C 36.2935 4.20399 0.559041 0
M  V30 323 N 36.6845 5.04423 -0.372927 0
M  V30 324 C 34.9825 4.38536 0.812522 0
M  V30 325 C 35.6835 5.76655 -0.764446 0
M  V30 326 N 34.6595 5.43471 -0.11848 0
M  V30 327 H 38.4615 2.89422 -0.511117 0
M  V30 328 H 35.9755 1.57868 -0.380975 0
M  V30 329 H 37.9725 3.76262 1.79534 0
M  V30 330 H 36.6325 2.59623 1.95002 0
M  V30 331 H 37.6435 5.1248 -0.747287 0
M  V30 332 H 34.3205 3.88913 1.51832 0
M  V30 333 H 35.7105 6.54238 -1.53045 0
M  V30 334 N 38.4306 0.297415 1.54768 0
M  V30 335 C 39.6796 -0.313669 1.99246 0
M  V30 336 C 39.9926 -1.55281 1.18942 0
M  V30 337 O 41.1986 -2.23825 1.5367 0
M  V30 338 C 39.6546 -0.609407 3.54703 0
M  V30 339 C 39.2626 0.611192 4.43811 0
M  V30 340 C 41.0066 -1.18188 4.07715 0
M  V30 341 C 38.9136 0.288805 5.90694 0
M  V30 342 H 37.8436 -0.120979 0.744231 0
M  V30 343 H 40.4946 0.40556 1.78962 0
M  V30 344 H 38.8766 -1.38813 3.70873 0
M  V30 345 H 40.0506 1.3875 4.39414 0
M  V30 346 H 38.3656 1.10205 4.01552 0
M  V30 347 H 40.9626 -1.43727 5.15021 0
M  V30 348 H 41.3056 -2.12299 3.58099 0
M  V30 349 H 41.8386 -0.464944 3.95074 0
M  V30 350 H 38.5776 1.19838 6.44453 0
M  V30 351 H 38.0976 -0.450305 5.98107 0
M  V30 352 H 39.7766 -0.110933 6.46905 0
M  V30 353 N 39.9087 -1.5758 0.0250728 0
M  V30 354 C 40.8717 -2.08896 -0.943139 0
M  V30 355 C 41.8717 -1.00321 -1.25668 0
M  V30 356 O 43.0617 -1.26495 -1.19769 0
M  V30 357 C 40.1937 -2.55143 -2.26086 0
M  V30 358 H 41.3867 -2.95723 -0.498775 0
M  V30 359 H 38.9397 -1.54703 -0.222888 0
M  V30 360 H 39.6747 -1.71633 -2.75159 0
M  V30 361 H 39.4597 -3.34461 -2.04641 0
M  V30 362 H 40.9497 -2.95083 -2.95492 0
M  V30 363 N 41.3868 0.248026 -1.55636 0
M  V30 364 C 42.6118 0.998028 -1.81808 0
M  V30 365 C 43.0368 1.78207 -0.601979 0
M  V30 366 O 42.3948 1.75653 0.448961 0
M  V30 367 C 42.4428 1.9125 -3.05705 0
M  V30 368 O 41.5468 3.00406 -2.82542 0
M  V30 369 H 40.8878 0.284045 -0.600179 0
M  V30 370 H 43.4178 0.269357 -2.02819 0
M  V30 371 H 43.4278 2.32737 -3.35108 0
M  V30 372 H 42.1028 1.33602 -3.93857 0
M  V30 373 H 40.6798 2.63056 -2.64303 0
M  V30 374 N 42.8649 1.48995 0.513639 0
M  V30 375 C 44.2759 1.5119 1.09537 0
M  V30 376 C 44.6269 0.290906 1.94031 0
M  V30 377 O 43.7519 -0.60049 2.07902 0
M  V30 378 C 44.3469 2.73964 1.99322 0
M  V30 379 C 42.9059 2.78978 2.52682 0
M  V30 380 C 42.0529 2.44934 1.30009 0
M  V30 381 H 45.0039 1.55875 0.298125 0
M  V30 382 H 45.0249 2.53409 2.83838 0
M  V30 383 H 44.5369 3.62813 1.37799 0
M  V30 384 H 42.6379 1.94378 3.1788 0
M  V30 385 H 42.7509 3.8083 2.90698 0
M  V30 386 H 41.1149 1.9644 1.62122 0
M  V30 387 H 41.8979 3.36043 0.702131 0
M  V30 388 N 44.343 -0.763751 1.37857 0
M  V30 389 C 45.754 -1.3405 1.29952 0
M  V30 390 C 46.105 -1.96138 -0.0492898 0
M  V30 391 O 45.23 -1.94372 -0.951239 0
M  V30 392 C 45.825 -2.43729 2.35333 0
M  V30 393 C 44.384 -2.97151 2.31037 0
M  V30 394 C 43.531 -1.70438 2.18738 0
M  V30 395 H 46.482 -0.563396 1.48363 0
M  V30 396 H 46.503 -3.23412 2.00462 0
M  V30 397 H 46.015 -1.9851 3.33489 0
M  V30 398 H 44.116 -3.46724 1.3643 0
M  V30 399 H 44.229 -3.52221 3.24772 0
M  V30 400 H 42.593 -1.93673 1.65418 0
M  V30 401 H 43.376 -1.27312 3.18821 0
M  V30 402 N 45.8211 -1.22559 -0.990812 0
M  V30 403 C 46.7691 -0.994798 -2.10253 0
M  V30 404 C 47.7631 0.0627798 -1.69284 0
M  V30 405 O 48.9691 -0.0898392 -1.79776 0
M  V30 406 H 45.3441 -0.304527 -0.687581 0
M  V30 407 H 47.3151 -1.93812 -2.26891 0
M  V30 408 C 46.0641 -0.591439 -3.42633 0
M  V30 409 H 45.3871 -1.3969 -3.74602 0
M  V30 410 H 46.8271 -0.469385 -4.21394 0
M  V30 411 C 45.2861 0.699232 -3.29564 0
M  V30 412 O 45.8161 1.75112 -3.61523 0
M  V30 413 N 44.0221 0.671182 -2.82743 0
M  V30 414 H 43.5691 -0.185136 -2.56934 0
M  V30 415 H 43.5271 1.53502 -2.7438 0
M  V30 416 N 47.2992 1.18797 -1.03562 0
M  V30 417 C 48.5462 1.8865 -0.736023 0
M  V30 418 C 48.8742 1.80041 0.735889 0
M  V30 419 O 48.1292 1.19179 1.55225 0
M  V30 420 C 48.4282 3.38692 -1.14117 0
M  V30 421 C 48.0942 3.67504 -2.6125 0
M  V30 422 C 46.7562 3.75078 -3.01447 0
M  V30 423 C 49.1082 3.80293 -3.56408 0
M  V30 424 C 46.4362 3.92915 -4.35701 0
M  V30 425 C 48.7882 3.99645 -4.90374 0
M  V30 426 C 47.4522 4.05453 -5.30249 0
M  V30 427 H 46.7222 0.690321 -0.26933 0
M  V30 428 H 49.3692 1.40641 -1.29971 0
M  V30 429 H 47.6742 3.88645 -0.496202 0
M  V30 430 H 49.3712 3.91072 -0.886789 0
M  V30 431 H 45.9612 3.62223 -2.29113 0
M  V30 432 H 50.1452 3.73779 -3.26501 0
M  V30 433 H 45.4012 3.95653 -4.66121 0
M  V30 434 H 49.5752 4.08482 -5.64017 0
M  V30 435 H 47.2022 4.19027 -6.34288 0
M  V30 436 N 48.7773 0.814389 1.34928 0
M  V30 437 C 50.1933 0.499084 1.51596 0
M  V30 438 C 50.3933 -0.978319 1.76157 0
M  V30 439 O 49.4493 -1.76309 1.80752 0
M  V30 440 C 50.7623 1.35121 2.68631 0
M  V30 441 C 52.3103 1.34746 2.82511 0
M  V30 442 C 52.7853 2.18388 4.0258 0
M  V30 443 N 54.2763 2.15966 4.09772 0
M  V30 444 C 55.0113 2.77437 5.01813 0
M  V30 445 N 54.5073 3.47866 5.99134 0
M  V30 446 N 56.3003 2.67037 4.94619 0
M  V30 447 H 48.4513 1.7711 1.17243 0
M  V30 448 H 50.7143 0.754256 0.574284 0
M  V30 449 H 50.4203 2.40001 2.57085 0
M  V30 450 H 50.2943 1.00991 3.63429 0
M  V30 451 H 52.6813 0.30648 2.93504 0
M  V30 452 H 52.7623 1.72869 1.88547 0
M  V30 453 H 52.4063 3.2253 3.92347 0
M  V30 454 H 52.3363 1.77621 4.9574 0
M  V30 455 H 54.8273 1.64729 3.40107 0
M  V30 456 H 55.1403 3.92038 6.65977 0
M  V30 457 H 53.4853 3.51972 5.99284 0
M  V30 458 H 56.6763 2.11597 4.17546 0
M  V30 459 H 56.8493 3.15232 5.66156 0
M  V30 460 N 50.2554 -1.46986 0.568584 0
M  V30 461 C 51.1854 -2.32946 -0.160753 0
M  V30 462 C 52.1664 -1.44487 -0.897631 0
M  V30 463 O 53.3514 -1.73327 -0.875867 0
M  V30 464 C 50.4814 -3.26494 -1.18403 0
M  V30 465 C 49.4354 -4.24282 -0.562895 0
M  V30 466 C 48.7614 -5.07236 -1.69163 0
M  V30 467 C 50.0614 -5.19989 0.490761 0
M  V30 468 H 51.7554 -2.94175 0.556916 0
M  V30 469 H 49.3014 -1.4146 0.26927 0
M  V30 470 H 51.2544 -3.85477 -1.70251 0
M  V30 471 H 49.9784 -2.63343 -1.93179 0
M  V30 472 H 48.6374 -3.66541 -0.0656164 0
M  V30 473 H 48.2854 -4.4048 -2.42871 0
M  V30 474 H 47.9854 -5.7345 -1.28174 0
M  V30 475 H 49.5094 -5.6908 -2.21314 0
M  V30 476 H 50.9234 -5.73271 0.0579047 0
M  V30 477 H 49.3204 -5.94469 0.820165 0
M  V30 478 H 50.3904 -4.64777 1.3824 0
M  V30 479 N 51.7335 -0.305618 -1.54608 0
M  V30 480 C 52.9615 0.304775 -2.04643 0
M  V30 481 C 53.3765 1.47167 -1.18268 0
M  V30 482 O 52.7335 1.81296 -0.209328 0
M  V30 483 C 52.7845 0.756564 -3.53495 0
M  V30 484 O 52.5055 -0.36389 -4.36586 0
M  V30 485 C 54.0065 1.43163 -4.19546 0
M  V30 486 H 51.2265 0.0655481 -0.667791 0
M  V30 487 H 53.7705 -0.446592 -1.99564 0
M  V30 488 H 51.9255 1.45794 -3.58919 0
M  V30 489 H 52.3395 -0.0113121 -5.24499 0
M  V30 490 H 53.8135 1.69886 -5.25207 0
M  V30 491 H 54.2905 2.37318 -3.69563 0
M  V30 492 H 54.8965 0.773307 -4.18211 0
M  V30 493 N 53.2116 1.57565 -0.0334293 0
M  V30 494 C 54.1616 2.06978 0.956237 0
M  V30 495 C 55.1456 0.971193 1.28283 0
M  V30 496 O 56.3376 1.23471 1.26822 0
M  V30 497 C 53.4666 2.60393 2.23719 0
M  V30 498 C 52.5526 3.7719 1.93877 0
M  V30 499 N 52.9436 4.87639 1.34321 0
M  V30 500 C 51.2416 3.85758 2.23845 0
M  V30 501 C 51.9426 5.68825 1.21709 0
M  V30 502 N 50.9186 5.1587 1.71404 0
M  V30 503 H 54.7206 2.89773 0.490815 0
M  V30 504 H 52.2346 1.61492 0.171478 0
M  V30 505 H 54.2316 2.94088 2.95496 0
M  V30 506 H 52.8916 1.79031 2.70884 0
M  V30 507 H 53.9026 5.07803 1.01767 0
M  V30 508 H 50.5796 3.1531 2.73653 0
M  V30 509 H 51.9696 6.67631 0.75621 0
M  V30 510 N 54.6897 -0.239769 1.55765 0
M  V30 511 C 55.9667 -0.990056 1.68693 0
M  V30 512 C 56.3467 -2.03107 0.5754 0
M  V30 513 O 55.6947 -2.24604 -0.42017 0
M  V30 514 C 55.9047 -1.61696 3.09282 0
M  V30 515 C 57.2527 -2.11613 3.6811 0
M  V30 516 O 58.2767 -1.71624 3.12127 0
M  V30 517 O 57.1357 -2.85057 4.66267 0
M  V30 518 H 54.2297 -0.461299 0.686391 0
M  V30 519 H 56.7757 -0.232991 1.68093 0
M  V30 520 H 55.5477 -0.864357 3.81634 0
M  V30 521 H 55.1707 -2.44005 3.13923 0
M  V30 522 N 56.1678 -1.49265 -0.50573 0
M  V30 523 C 57.4168 -1.57761 -1.25675 0
M  V30 524 C 57.7298 -0.267371 -1.93764 0
M  V30 525 O 58.9358 -0.230827 -2.70517 0
M  V30 526 C 57.3918 -2.78332 -2.28165 0
M  V30 527 C 56.9998 -4.16096 -1.66037 0
M  V30 528 C 58.7438 -2.96155 -3.04125 0
M  V30 529 C 56.6508 -5.27895 -2.6661 0
M  V30 530 H 55.5808 -0.587391 -0.472745 0
M  V30 531 H 58.2318 -1.75644 -0.53118 0
M  V30 532 H 56.6138 -2.53934 -3.03865 0
M  V30 533 H 57.7878 -4.50612 -0.963622 0
M  V30 534 H 56.1028 -4.03591 -1.02484 0
M  V30 535 H 58.6998 -3.76849 -3.79327 0
M  V30 536 H 59.0428 -2.06534 -3.61455 0
M  V30 537 H 59.5758 -3.2057 -2.35541 0
M  V30 538 H 56.3148 -6.1956 -2.14068 0
M  V30 539 H 55.8348 -4.97839 -3.34539 0
M  V30 540 H 57.5138 -5.57031 -3.29129 0
M  V30 541 N 57.6459 0.756429 -1.3826 0
M  V30 542 C 58.8709 1.55077 -1.37717 0
M  V30 543 C 59.2959 1.88073 0.03164 0
M  V30 544 O 58.6539 1.50364 1.01293 0
M  V30 545 C 58.7019 2.8283 -2.23695 0
M  V30 546 O 57.8059 3.77862 -1.6521 0
M  V30 547 H 57.1469 0.469152 -0.469885 0
M  V30 548 H 59.6769 0.935019 -1.81985 0
M  V30 549 H 59.6869 3.31783 -2.37453 0
M  V30 550 H 58.3619 2.58144 -3.2609 0
M  V30 551 H 56.9389 3.36555 -1.60578 0
M  V30 552 N 59.124 1.23083 0.984299 0
M  V30 553 C 60.054 1.03292 2.09411 0
M  V30 554 C 61.035 -0.048923 1.7003 0
M  V30 555 O 62.22 0.114967 1.93859 0
M  V30 556 C 59.35 0.619155 3.41736 0
M  V30 557 C 58.304 1.64791 3.95004 0
M  V30 558 C 57.63 1.0897 5.23478 0
M  V30 559 C 58.93 3.03999 4.24714 0
M  V30 560 H 60.624 1.96119 2.26225 0
M  V30 561 H 58.17 0.944344 1.08711 0
M  V30 562 H 60.123 0.467777 4.18796 0
M  V30 563 H 58.847 -0.344786 3.24775 0
M  V30 564 H 57.506 1.78721 3.20085 0
M  V30 565 H 57.154 0.11686 5.02864 0
M  V30 566 H 56.854 1.77704 5.60085 0
M  V30 567 H 58.378 0.950093 6.03163 0
M  V30 568 H 59.792 2.93393 4.92538 0
M  V30 569 H 58.189 3.69936 4.72512 0
M  V30 570 H 59.259 3.53285 3.32142 0
M  V30 571 N 60.6021 -1.18246 1.0419 0
M  V30 572 C 61.5121 -2.25574 0.644476 0
M  V30 573 C 62.5281 -1.70845 -0.329826 0
M  V30 574 O 63.7041 -2.00554 -0.184443 0
M  V30 575 C 60.7691 -3.46697 0.014877 0
M  V30 576 C 59.8301 -4.16554 1.03834 0
M  V30 577 C 59.0631 -5.31894 0.438692 0
M  V30 578 O 59.2861 -5.65385 -0.754752 0
M  V30 579 O 58.2201 -5.90459 1.168 0
M  V30 580 H 62.0461 -2.61836 1.53869 0
M  V30 581 H 59.6311 -1.25352 0.812854 0
M  V30 582 H 61.5131 -4.20062 -0.335538 0
M  V30 583 H 60.1881 -3.12255 -0.853138 0
M  V30 584 H 59.0951 -3.45251 1.44057 0
M  V30 585 H 60.4281 -4.54998 1.87716 0
M  V30 586 N 62.0802 -0.821533 -1.34494 0
M  V30 587 C 62.9902 -0.244355 -2.33324 0
M  V30 588 C 64.0062 0.620527 -1.62559 0
M  V30 589 O 65.1822 0.528754 -1.94335 0
M  V30 590 C 62.2472 0.585368 -3.41723 0
M  V30 591 C 61.3082 -0.301752 -4.28238 0
M  V30 592 C 60.5412 0.488466 -5.3146 0
M  V30 593 O 60.7642 1.72186 -5.4379 0
M  V30 594 O 59.6982 -0.12848 -6.01763 0
M  V30 595 H 63.5242 -1.06231 -2.84515 0
M  V30 596 H 61.1092 -0.583645 -1.37528 0
M  V30 597 H 62.9912 1.05747 -4.07916 0
M  V30 598 H 61.6662 1.38068 -2.92778 0
M  V30 599 H 60.5732 -0.821315 -3.64973 0
M  V30 600 H 61.9062 -1.06138 -4.8062 0
M  V30 601 N 63.5583 1.46682 -0.576371 0
M  V30 602 C 64.8053 2.02412 -0.0595339 0
M  V30 603 C 65.1333 1.44859 1.29793 0
M  V30 604 O 64.3883 0.601099 1.8624 0
M  V30 605 C 64.6873 3.57345 0.062886 0
M  V30 606 C 64.3533 4.33908 -1.22616 0
M  V30 607 C 63.0153 4.54544 -1.57933 0
M  V30 608 C 65.3673 4.77919 -2.07948 0
M  V30 609 C 62.6953 5.16444 -2.78393 0
M  V30 610 C 65.0473 5.41149 -3.27629 0
M  V30 611 C 63.7113 5.60014 -3.63236 0
M  V30 612 H 62.9813 0.74068 -0.021785 0
M  V30 613 H 65.6283 1.76128 -0.751735 0
M  V30 614 H 63.9333 3.82729 0.838178 0
M  V30 615 H 65.6303 3.98136 0.478439 0
M  V30 616 H 62.2203 4.18138 -0.941202 0
M  V30 617 H 66.4043 4.61738 -1.81967 0
M  V30 618 H 61.6603 5.29242 -3.06126 0
M  V30 619 H 65.8343 5.74211 -3.94023 0
M  V30 620 H 63.4613 6.07748 -4.56669 0
M  V30 621 N 65.0364 0.313813 1.54444 0
M  V30 622 C 65.9464 -0.565714 2.27677 0
M  V30 623 C 66.9624 -1.13754 1.31666 0
M  V30 624 O 68.1384 -1.15959 1.64668 0
M  V30 625 C 65.2034 -1.71528 3.01296 0
M  V30 626 C 64.2644 -1.17624 4.12872 0
M  V30 627 C 63.4974 -2.27102 4.8297 0
M  V30 628 O 63.7204 -3.47256 4.52514 0
M  V30 629 O 62.6544 -1.9307 5.70094 0
M  V30 630 H 66.4804 0.0287296 3.03686 0
M  V30 631 H 64.0654 0.0798312 1.49187 0
M  V30 632 H 65.9474 -2.38476 3.4743 0
M  V30 633 H 64.6224 -2.29608 2.2817 0
M  V30 634 H 63.5294 -0.472124 3.71109 0
M  V30 635 H 64.8624 -0.640695 4.88012 0
M  V30 636 N 66.5145 -1.57545 0.0417849 0
M  V30 637 C 67.7915 -1.83642 -0.673433 0
M  V30 638 C 68.1715 -0.928298 -1.89594 0
M  V30 639 O 67.5195 0.0129955 -2.28496 0
M  V30 640 C 67.7295 -3.33155 -1.03964 0
M  V30 641 C 69.0775 -3.99941 -1.42592 0
M  V30 642 O 70.1015 -3.37725 -1.13226 0
M  V30 643 O 68.9605 -5.09619 -1.9736 0
M  V30 644 H 66.0545 -0.757638 -0.331533 0
M  V30 645 H 68.6005 -1.69554 0.070433 0
M  V30 646 H 67.3725 -3.9093 -0.170098 0
M  V30 647 H 66.9955 -3.52396 -1.84126 0
M  V30 648 N 67.9926 0.231505 -1.5589 0
M  V30 649 C 68.9026 1.308 -1.94752 0
M  V30 650 C 69.9186 1.51826 -0.849989 0
M  V30 651 O 71.0946 1.6515 -1.15271 0
M  V30 652 C 68.1596 2.63968 -2.24771 0
M  V30 653 C 67.2206 2.51331 -3.48039 0
M  V30 654 C 66.4536 3.78148 -3.76616 0
M  V30 655 O 66.6766 4.80722 -3.07022 0
M  V30 656 O 65.6106 3.75857 -4.70123 0
M  V30 657 H 69.4366 1.0083 -2.86474 0
M  V30 658 H 67.0216 0.433547 -1.42971 0
M  V30 659 H 68.9036 3.42633 -2.45318 0
M  V30 660 H 67.5786 2.9364 -1.36225 0
M  V30 661 H 66.4856 1.709 -3.32782 0
M  V30 662 H 67.8186 2.26601 -4.36936 0
M  V30 663 N 69.4707 1.49531 0.497807 0
M  V30 664 C 70.7477 1.49682 1.25915 0
M  V30 665 C 71.1277 0.226339 2.09883 0
M  V30 666 O 70.4757 -0.791189 2.14365 0
M  V30 667 C 70.6857 2.77755 2.11313 0
M  V30 668 C 72.0337 3.27371 2.70395 0
M  V30 669 O 73.0577 2.78894 2.21578 0
M  V30 670 O 71.9167 4.11808 3.59272 0
M  V30 671 H 69.0107 0.599228 0.56996 0
M  V30 672 H 71.5567 1.61798 0.511816 0
M  V30 673 H 70.3287 3.61713 1.49264 0
M  V30 674 H 69.9517 2.68515 2.93233 0
M  V30 675 N 70.9488 -0.749086 1.3866 0
M  V30 676 C 71.8788 -1.8764 1.38973 0
M  V30 677 C 72.8598 -1.68178 0.255004 0
M  V30 678 O 74.0448 -1.88704 0.458754 0
M  V30 679 C 71.1748 -3.25222 1.21851 0
M  V30 680 C 70.1288 -3.59295 2.32575 0
M  V30 681 C 69.4548 -4.95663 2.00555 0
M  V30 682 C 70.7548 -3.63709 3.7485 0
M  V30 683 H 72.4488 -1.87635 2.3331 0
M  V30 684 H 69.9948 -0.901329 1.12303 0
M  V30 685 H 71.9478 -4.03746 1.20695 0
M  V30 686 H 70.6718 -3.25719 0.239775 0
M  V30 687 H 69.3308 -2.83093 2.32925 0
M  V30 688 H 68.9788 -4.92724 1.01154 0
M  V30 689 H 68.6788 -5.19429 2.74714 0
M  V30 690 H 70.2028 -5.7656 2.01024 0
M  V30 691 H 71.6168 -4.32338 3.76506 0
M  V30 692 H 70.0138 -3.98986 4.48252 0
M  V30 693 H 71.0838 -2.63834 4.06841 0
M  V30 694 N 72.4269 -1.23603 -0.977757 0
M  V30 695 C 73.6519 -1.09735 -1.75991 0
M  V30 696 C 74.0769 0.346858 -1.84874 0
M  V30 697 O 73.4349 1.25093 -1.3123 0
M  V30 698 C 73.4829 -1.73051 -3.16363 0
M  V30 699 O 72.5869 -0.994452 -4.0023 0
M  V30 700 H 71.9279 -0.384476 -0.541364 0
M  V30 701 H 74.4579 -1.6371 -1.2272 0
M  V30 702 H 74.4679 -1.78398 -3.66931 0
M  V30 703 H 73.1429 -2.78137 -3.09213 0
M  V30 704 H 71.7199 -1.01812 -3.58732 0
M  V30 705 N 73.905 1.17692 -1.04816 0
M  V30 706 C 74.815 2.25229 -0.65643 0
M  V30 707 C 75.831 1.71018 0.320761 0
M  V30 708 O 77.007 2.00649 0.173805 0
M  V30 709 C 74.072 3.46684 -0.0332629 0
M  V30 710 C 73.133 4.15997 -1.06042 0
M  V30 711 C 72.366 5.31654 -0.466893 0
M  V30 712 O 72.589 5.65777 0.724758 0
M  V30 713 O 71.523 5.89831 -1.1993 0
M  V30 714 H 75.349 2.61016 -1.55255 0
M  V30 715 H 72.934 1.24919 -0.81949 0
M  V30 716 H 74.816 4.20234 0.313256 0
M  V30 717 H 73.491 3.12703 0.836566 0
M  V30 718 H 72.398 3.44482 -1.45886 0
M  V30 719 H 73.731 4.53996 -1.90127 0
M  V30 720 N 75.3831 0.828654 1.34056 0
M  V30 721 C 76.6321 0.415828 1.97367 0
M  V30 722 C 76.9451 -1.02796 1.6641 0
M  V30 723 O 78.1511 -1.54497 2.23255 0
M  V30 724 C 76.6071 0.692601 3.53173 0
M  V30 725 C 76.2151 2.15038 3.93017 0
M  V30 726 C 77.9591 0.346222 4.23086 0
M  V30 727 C 75.8661 2.37174 5.41758 0
M  V30 728 H 74.7961 0.151755 0.738571 0
M  V30 729 H 77.4471 1.01581 1.52819 0
M  V30 730 H 75.8291 0.0223764 3.95994 0
M  V30 731 H 77.0031 2.86024 3.61285 0
M  V30 732 H 75.3181 2.45875 3.36057 0
M  V30 733 H 77.9151 0.48937 5.32456 0
M  V30 734 H 78.2581 -0.709842 4.10204 0
M  V30 735 H 78.7911 0.971258 3.85761 0
M  V30 736 H 75.5301 3.41308 5.59633 0
M  V30 737 H 75.0501 1.70738 5.74986 0
M  V30 738 H 76.7291 2.19818 6.08514 0
M  V30 739 N 76.8612 -1.46375 0.584142 0
M  V30 740 C 78.0892 -2.06761 0.0759296 0
M  V30 741 C 78.5042 -1.43266 -1.22965 0
M  V30 742 O 77.8612 -0.538458 -1.74376 0
M  V30 743 C 77.9122 -3.61375 -0.0950384 0
M  V30 744 O 77.6332 -4.22495 1.15887 0
M  V30 745 C 79.1342 -4.38693 -0.637434 0
M  V30 746 H 76.3542 -0.668479 0.0581075 0
M  V30 747 H 78.8982 -1.8798 0.805218 0
M  V30 748 H 77.0532 -3.79578 -0.774554 0
M  V30 749 H 77.4672 -5.15385 0.973598 0
M  V30 750 H 78.9412 -5.47464 -0.706237 0
M  V30 751 H 79.4182 -4.06836 -1.65472 0
M  V30 752 H 80.0242 -4.25299 0.00725967 0
M  V30 753 N 78.3393 -0.321999 -1.54275 0
M  V30 754 C 79.6163 0.335232 -1.92706 0
M  V30 755 C 79.9963 1.70006 -1.25145 0
M  V30 756 O 79.3443 2.25067 -0.394596 0
M  V30 757 C 79.5543 0.429008 -3.46353 0
M  V30 758 C 80.9023 0.690029 -4.18956 0
M  V30 759 O 81.9263 0.511992 -3.52501 0
M  V30 760 O 80.7853 1.03338 -5.36641 0
M  V30 761 H 77.8793 0.191143 -0.804608 0
M  V30 762 H 80.4253 -0.3716 -1.65581 0
M  V30 763 H 79.1973 -0.529611 -3.87699 0
M  V30 764 H 78.8203 1.18348 -3.79578 0
M  V30 765 N 79.8174 1.5752 -0.0501392 0
M  V30 766 C 80.7274 2.14952 0.939827 0
M  V30 767 C 81.7434 1.10706 1.34239 0
M  V30 768 O 82.9194 1.42869 1.41952 0
M  V30 769 C 79.9844 2.68232 2.19665 0
M  V30 770 C 79.0454 3.87272 1.85253 0
M  V30 771 C 78.2784 4.38002 3.04943 0
M  V30 772 O 78.5014 3.87811 4.18281 0
M  V30 773 O 77.4354 5.29602 2.86017 0
M  V30 774 H 81.2614 2.9986 0.481392 0
M  V30 775 H 78.8464 1.4841 0.171699 0
M  V30 776 H 80.7284 3.02475 2.93406 0
M  V30 777 H 79.4034 1.86395 2.64648 0
M  V30 778 H 78.3104 3.5792 1.0883 0
M  V30 779 H 79.6434 4.70336 1.4507 0
M  V30 780 N 81.2955 -0.223234 1.56011 0
M  V30 781 C 82.5355 -0.954962 1.8072 0
M  V30 782 C 82.8995 -1.81598 0.623384 0
M  V30 783 O 84.1005 -2.58132 0.749745 0
M  V30 784 C 82.3715 -1.77313 3.10314 0
M  V30 785 S 83.9305 -2.56073 3.56332 0
M  V30 786 H 80.7485 -0.320812 0.634508 0
M  V30 787 H 83.3505 -0.220686 1.9425 0
M  V30 788 H 82.0545 -1.13071 3.94516 0
M  V30 789 H 81.5855 -2.54974 2.99586 0
M  V30 790 H 83.6005 -3.79619 3.19536 0
M  V30 791 N 82.7736 -1.49793 -0.48987 0
M  V30 792 C 84.0216 -1.59525 -1.24081 0
M  V30 793 C 84.3426 -0.288953 -1.92847 0
M  V30 794 O 83.6126 0.692436 -1.83254 0
M  V30 795 H 82.1926 -0.587796 -0.460983 0
M  V30 796 H 84.8546 -1.86477 -0.566778 0
M  V30 797 H 83.9506 -2.39696 -1.99881 0
M  V30 798 N 84.2517 0.741722 -1.39055 0
M  V30 799 C 85.5007 1.49656 -1.35225 0
M  V30 800 C 85.8137 1.95533 0.0512708 0
M  V30 801 O 87.0197 2.7067 0.212138 0
M  V30 802 C 85.4757 2.70389 -2.37525 0
M  V30 803 C 85.0837 2.31489 -3.83558 0
M  V30 804 C 86.8277 3.48236 -2.42759 0
M  V30 805 C 84.7347 3.48903 -4.77515 0
M  V30 806 H 83.6647 0.56197 -0.502699 0
M  V30 807 H 86.3157 0.809727 -1.64668 0
M  V30 808 H 84.6977 3.41113 -2.01142 0
M  V30 809 H 85.8717 1.68354 -4.28945 0
M  V30 810 H 84.1867 1.66749 -3.81554 0
M  V30 811 H 86.7837 4.35558 -3.1015 0
M  V30 812 H 87.1267 3.90229 -1.45008 0
M  V30 813 H 87.6597 2.84535 -2.78002 0
M  V30 814 H 84.3987 3.11966 -5.76504 0
M  V30 815 H 83.9187 4.11041 -4.36813 0
M  V30 816 H 85.5977 4.15328 -4.96096 0
M  V30 817 N 85.7298 1.2412 0.971189 0
M  V30 818 C 86.9548 1.10667 1.75407 0
M  V30 819 C 87.3798 -0.337048 1.85056 0
M  V30 820 O 86.7378 -1.24396 1.31892 0
M  V30 821 C 86.7858 1.74726 3.15441 0
M  V30 822 O 85.8898 1.01566 3.99697 0
M  V30 823 H 85.2308 0.387341 0.539317 0
M  V30 824 H 87.7608 1.64358 1.2185 0
M  V30 825 H 87.7708 1.80341 3.6598 0
M  V30 826 H 86.4458 2.79773 3.07734 0
M  V30 827 H 85.0228 1.03713 3.58187 0
M  V30 828 N 87.2079 -1.17134 1.05439 0
M  V30 829 C 88.1379 -2.2342 0.678649 0
M  V30 830 C 89.1189 -1.66971 -0.32476 0
M  V30 831 O 90.3039 -1.93149 -0.201802 0
M  V30 832 C 87.4339 -3.47256 0.0552099 0
M  V30 833 C 86.3879 -4.16543 0.98365 0
M  V30 834 C 85.7139 -5.34231 0.223961 0
M  V30 835 C 87.0139 -4.68495 2.3089 0
M  V30 836 H 88.7079 -2.55105 1.56722 0
M  V30 837 H 86.2539 -1.2262 0.754998 0
M  V30 838 H 88.2069 -4.20828 -0.21946 0
M  V30 839 H 86.9309 -3.14846 -0.868319 0
M  V30 840 H 85.5899 -3.44887 1.24293 0
M  V30 841 H 85.2379 -4.98071 -0.702412 0
M  V30 842 H 84.9379 -5.81527 0.842627 0
M  V30 843 H 86.4619 -6.10585 -0.0433671 0
M  V30 844 H 87.8759 -5.33691 2.09396 0
M  V30 845 H 86.2729 -5.26379 2.88176 0
M  V30 846 H 87.3429 -3.85169 2.94572 0
M  V30 847 N 88.686 -0.835752 -1.33615 0
M  V30 848 C 89.618 -0.224151 -2.28101 0
M  V30 849 C 90.631 0.593331 -1.51603 0
M  V30 850 O 91.82 0.420911 -1.73466 0
M  V30 851 C 88.92 0.703309 -3.31522 0
M  V30 852 C 88.093 -0.0741528 -4.37337 0
M  V30 853 C 87.152 0.776176 -5.20444 0
M  V30 854 O 86.178 0.216506 -5.68788 0
M  V30 855 N 87.38 2.09401 -5.41416 0
M  V30 856 H 90.145 -1.03598 -2.81225 0
M  V30 857 H 87.706 -0.69392 -1.46275 0
M  V30 858 H 89.698 1.27707 -3.84022 0
M  V30 859 H 88.268 1.41585 -2.78698 0
M  V30 860 H 87.488 -0.82928 -3.85378 0
M  V30 861 H 88.776 -0.608863 -5.05144 0
M  V30 862 H 88.174 2.57229 -5.03835 0
M  V30 863 H 86.731 2.61633 -5.96985 0
M  V30 864 N 90.1641 1.46063 -0.591896 0
M  V30 865 C 91.4041 2.04228 -0.0838014 0
M  V30 866 C 91.7681 1.45231 1.25587 0
M  V30 867 O 92.9691 1.94653 1.85375 0
M  V30 868 C 91.2401 3.57389 -0.0286282 0
M  V30 869 S 92.7991 4.3678 0.420557 0
M  V30 870 H 89.6171 0.709762 -0.0419319 0
M  V30 871 H 92.2191 1.78983 -0.786465 0
M  V30 872 H 90.9231 3.97843 -1.00743 0
M  V30 873 H 90.4541 3.87185 0.69652 0
M  V30 874 H 92.4691 4.67131 1.67341 0
M  V30 875 N 91.6422 0.330177 1.54103 0
M  V30 876 C 92.5892 -0.532762 2.24567 0
M  V30 877 C 93.5592 -1.10635 1.23892 0
M  V30 878 O 94.7442 -1.14546 1.5259 0
M  V30 879 C 91.8842 -1.6845 3.01195 0
M  V30 880 C 90.9972 -1.13951 4.167 0
M  V30 881 C 90.1322 -2.25746 4.80845 0
M  V30 882 C 89.1712 -1.6853 5.88442 0
M  V30 883 N 88.3082 -2.74014 6.46421 0
M  V30 884 H 93.1482 0.0746905 2.97906 0
M  V30 885 H 90.6852 0.048632 1.4702 0
M  V30 886 H 92.6432 -2.36234 3.43874 0
M  V30 887 H 91.2732 -2.26314 2.30178 0
M  V30 888 H 90.3252 -0.35301 3.78758 0
M  V30 889 H 91.6372 -0.680892 4.94131 0
M  V30 890 H 90.7912 -3.01422 5.26526 0
M  V30 891 H 89.5302 -2.74947 4.0281 0
M  V30 892 H 88.5352 -0.913543 5.42157 0
M  V30 893 H 89.7602 -1.20198 6.68378 0
M  V30 894 H 87.7062 -3.22494 5.71256 0
M  V30 895 H 87.6232 -2.32735 7.19285 0
M  V30 896 H 88.8912 -3.49499 6.96757 0
M  V30 897 N 93.1203 -1.57491 0.0584922 0
M  V30 898 C 94.3973 -1.84346 -0.653918 0
M  V30 899 C 94.7773 -0.948355 -1.88599 0
M  V30 900 O 94.1253 -0.0112403 -2.28497 0
M  V30 901 C 94.3353 -3.34239 -1.00425 0
M  V30 902 C 95.6833 -4.01431 -1.38342 0
M  V30 903 O 96.7073 -3.38907 -1.09637 0
M  V30 904 O 95.5663 -5.11683 -1.91943 0
M  V30 905 H 92.6603 -0.761112 -0.323478 0
M  V30 906 H 95.2063 -1.6947 0.0884125 0
M  V30 907 H 93.9783 -3.91089 -0.128625 0
M  V30 908 H 93.6013 -3.54329 -1.80378 0
M  V30 909 N 94.5984 0.214957 -1.56127 0
M  V30 910 C 95.8264 0.955092 -1.83536 0
M  V30 911 C 96.2414 1.77677 -0.638472 0
M  V30 912 O 95.5984 1.78219 0.392968 0
M  V30 913 C 95.6494 1.86734 -3.09536 0
M  V30 914 O 95.3704 1.07887 -4.24608 0
M  V30 915 C 96.8714 2.72082 -3.4998 0
M  V30 916 H 94.0914 0.279611 -0.609966 0
M  V30 917 H 96.6354 0.228197 -2.03223 0
M  V30 918 H 94.7904 2.5481 -2.91806 0
M  V30 919 H 95.2044 1.69872 -4.9623 0
M  V30 920 H 96.6784 3.31782 -4.41163 0
M  V30 921 H 97.1554 3.44806 -2.7204 0
M  V30 922 H 97.7614 2.09409 -3.70173 0
M  V30 923 N 96.0765 1.50051 0.48192 0
M  V30 924 C 97.0065 1.71046 1.58951 0
M  V30 925 C 97.9875 0.559288 1.60642 0
M  V30 926 O 99.1725 0.797243 1.77081 0
M  V30 927 C 96.3025 1.79462 2.97339 0
M  V30 928 C 95.2565 2.94558 3.10515 0
M  V30 929 C 94.5825 2.88105 4.50444 0
M  V30 930 C 95.8825 4.35227 2.88747 0
M  V30 931 H 97.5765 2.6378 1.41635 0
M  V30 932 H 95.1225 1.26936 0.679942 0
M  V30 933 H 97.0755 1.92734 3.74742 0
M  V30 934 H 95.7995 0.833412 3.15788 0
M  V30 935 H 94.4585 2.80918 2.35543 0
M  V30 936 H 94.1065 1.89853 4.65795 0
M  V30 937 H 93.8065 3.65366 4.60197 0
M  V30 938 H 95.3305 3.03412 5.29881 0
M  V30 939 H 96.7445 4.49449 3.55905 0
M  V30 940 H 95.1415 5.13856 3.09955 0
M  V30 941 H 96.2115 4.48347 1.84696 0
M  V30 942 N 97.5546 -0.734337 1.39446 0
M  V30 943 C 98.7796 -1.52866 1.40167 0
M  V30 944 C 99.2046 -1.881 -0.00171513 0
M  V30 945 O 98.5626 -1.51957 -0.988879 0
M  V30 946 C 98.6106 -2.79235 2.28167 0
M  V30 947 O 97.7146 -3.75185 1.71201 0
M  V30 948 H 97.0556 -0.461618 0.477289 0
M  V30 949 H 99.5856 -0.905949 1.8345 0
M  V30 950 H 99.5956 -3.27963 2.42702 0
M  V30 951 H 98.2706 -2.52923 3.30156 0
M  V30 952 H 96.8476 -3.33958 1.65912 0
M  V30 953 N 99.0327 -1.24633 -0.964593 0
M  V30 954 C 99.9627 -1.06611 -2.07741 0
M  V30 955 C 100.944 0.0218666 -1.70086 0
M  V30 956 O 102.129 -0.145793 -1.93652 0
M  V30 957 C 99.2587 -0.673444 -3.40708 0
M  V30 958 C 98.2127 -1.71054 -3.92332 0
M  V30 959 C 97.5387 -1.17285 -5.21678 0
M  V30 960 C 98.8387 -3.10718 -4.19824 0
M  V30 961 H 100.533 -1.99693 -2.23076 0
M  V30 962 H 98.0787 -0.96152 -1.07195 0
M  V30 963 H 100.032 -0.534345 -4.17998 0
M  V30 964 H 98.7557 0.293073 -3.25282 0
M  V30 965 H 97.4147 -1.83791 -3.17201 0
M  V30 966 H 97.0627 -0.196847 -5.02615 0
M  V30 967 H 96.7627 -1.86592 -5.57187 0
M  V30 968 H 98.2867 -1.04593 -6.01575 0
M  V30 969 H 99.7007 -3.01192 -4.87808 0
M  V30 970 H 98.0977 -3.77406 -4.66567 0
M  V30 971 H 99.1677 -3.58524 -3.26479 0
M  V30 972 N 100.511 1.16574 -1.06058 0
M  V30 973 C 101.927 1.3904 -0.783585 0
M  V30 974 C 102.127 1.91784 0.618145 0
M  V30 975 O 101.183 2.11511 1.37911 0
M  V30 976 C 102.496 2.37329 -1.84649 0
M  V30 977 C 104.044 2.51018 -1.86973 0
M  V30 978 C 104.519 3.52588 -2.92311 0
M  V30 979 N 106.01 3.60113 -2.91329 0
M  V30 980 C 106.745 4.38486 -3.69482 0
M  V30 981 N 106.241 5.20302 -4.57447 0
M  V30 982 N 108.034 4.33446 -3.57885 0
M  V30 983 H 100.185 0.806725 -1.96483 0
M  V30 984 H 102.448 0.417117 -0.851303 0
M  V30 985 H 102.154 2.05663 -2.85299 0
M  V30 986 H 102.028 3.36946 -1.6955 0
M  V30 987 H 104.415 2.81989 -0.869827 0
M  V30 988 H 104.496 1.51445 -2.0615 0
M  V30 989 H 104.14 3.22354 -3.92492 0
M  V30 990 H 104.07 4.51886 -2.70383 0
M  V30 991 H 106.561 3.01707 -2.27555 0
M  V30 992 H 106.874 5.77311 -5.13743 0
M  V30 993 H 105.219 5.19653 -4.61503 0
M  V30 994 H 108.41 3.68586 -2.88551 0
M  V30 995 H 108.583 4.94279 -4.19037 0
M  V30 996 N 101.989 0.842826 1.3317 0
M  V30 997 C 103.4 0.496651 1.79973 0
M  V30 998 C 103.751 -0.984641 1.69703 0
M  V30 999 O 102.876 -1.76743 1.24863 0
M  V30 1000 C 103.471 0.894727 3.26772 0
M  V30 1001 C 102.03 0.600629 3.71577 0
M  V30 1002 C 101.177 1.10091 2.5451 0
M  V30 1003 H 104.128 1.03116 1.20635 0
M  V30 1004 H 104.149 0.206347 3.7994 0
M  V30 1005 H 103.661 1.97287 3.34215 0
M  V30 1006 H 101.762 -0.467284 3.69658 0
M  V30 1007 H 101.875 1.15863 4.64879 0
M  V30 1008 H 100.239 0.52162 2.49301 0
M  V30 1009 H 101.022 2.18591 2.64713 0
M  V30 1010 N 103.467 -1.45747 0.599634 0
M  V30 1011 C 104.878 -1.85853 0.177681 0
M  V30 1012 C 105.229 -1.50102 -1.26348 0
M  V30 1013 O 104.354 -0.923905 -1.95686 0
M  V30 1014 C 104.949 -3.37326 0.315688 0
M  V30 1015 C 103.508 -3.76365 -0.0515144 0
M  V30 1016 C 102.655 -2.69722 0.643822 0
M  V30 1017 H 105.606 -1.36661 0.806814 0
M  V30 1018 H 105.627 -3.77778 -0.454321 0
M  V30 1019 H 105.139 -3.63315 1.36468 0
M  V30 1020 H 103.24 -3.55993 -1.09999 0
M  V30 1021 H 103.353 -4.77916 0.336594 0
M  V30 1022 H 101.717 -2.54567 0.0822881 0
M  V30 1023 H 102.5 -2.98549 1.6948 0
M  V30 1024 N 104.945 -0.338344 -1.53925 0
M  V30 1025 C 106.361 0.0137736 -1.59594 0
M  V30 1026 C 106.561 1.49186 -1.35447 0
M  V30 1027 O 105.617 2.24987 -1.14616 0
M  V30 1028 C 106.93 -0.41773 -2.97784 0
M  V30 1029 C 108.478 -0.369633 -3.1081 0
M  V30 1030 C 108.953 -0.776524 -4.51369 0
M  V30 1031 N 110.444 -0.730506 -4.57403 0
M  V30 1032 C 111.179 -1.01736 -5.64303 0
M  V30 1033 N 110.675 -1.3721 -6.79077 0
M  V30 1034 N 112.468 -0.941942 -5.54151 0
M  V30 1035 H 104.619 -1.3012 -1.67876 0
M  V30 1036 H 106.882 -0.530082 -0.78595 0
M  V30 1037 H 106.588 -1.44811 -3.20504 0
M  V30 1038 H 106.462 0.209729 -3.76616 0
M  V30 1039 H 108.849 0.651568 -2.87817 0
M  V30 1040 H 108.93 -1.03223 -2.34049 0
M  V30 1041 H 108.574 -1.79571 -4.75096 0
M  V30 1042 H 108.504 -0.0914649 -5.26521 0
M  V30 1043 H 110.995 -0.468783 -3.74981 0
M  V30 1044 H 111.308 -1.57597 -7.5656 0
M  V30 1045 H 109.653 -1.4105 -6.80536 0
M  V30 1046 H 112.844 -0.664184 -4.63364 0
M  V30 1047 H 113.017 -1.16884 -6.37371 0
M  V30 1048 N 106.423 1.57458 -0.0668435 0
M  V30 1049 C 107.386 2.11323 0.887422 0
M  V30 1050 C 108.386 1.03618 1.22964 0
M  V30 1051 O 109.576 1.29626 1.16373 0
M  V30 1052 C 106.708 2.61048 2.19242 0
M  V30 1053 H 107.901 2.96942 0.420194 0
M  V30 1054 H 105.454 1.55239 0.181793 0
M  V30 1055 H 106.189 1.78868 2.70512 0
M  V30 1056 H 105.974 3.39769 1.95702 0
M  V30 1057 H 107.464 3.02814 2.87565 0
M  V30 1058 N 107.901 -0.206675 1.56239 0
M  V30 1059 C 109.149 -0.927007 1.79586 0
M  V30 1060 C 109.47 -1.8427 0.637929 0
M  V30 1061 O 108.74 -1.92849 -0.344398 0
M  V30 1062 H 107.32 -0.345292 0.662407 0
M  V30 1063 H 109.982 -0.21496 1.93711 0
M  V30 1064 H 109.078 -1.52501 2.72305 0
M  V30 1065 N 109.379 -1.50304 -0.473955 0
M  V30 1066 C 110.309 -1.71886 -1.58042 0
M  V30 1067 C 111.29 -0.567799 -1.60344 0
M  V30 1068 O 112.475 -0.806623 -1.76656 0
M  V30 1069 C 109.605 -1.81036 -2.96384 0
M  V30 1070 C 108.559 -2.962 -3.08949 0
M  V30 1071 C 107.885 -2.9049 -4.48909 0
M  V30 1072 C 109.185 -4.36752 -2.86434 0
M  V30 1073 H 110.879 -2.64527 -1.40234 0
M  V30 1074 H 108.425 -1.27295 -0.673201 0
M  V30 1075 H 110.378 -1.94719 -3.73714 0
M  V30 1076 H 109.102 -0.850147 -3.15341 0
M  V30 1077 H 107.761 -2.82164 -2.3405 0
M  V30 1078 H 107.409 -1.92321 -4.64781 0
M  V30 1079 H 107.109 -3.67802 -4.58253 0
M  V30 1080 H 108.633 -3.06218 -5.28264 0
M  V30 1081 H 110.047 -4.5133 -3.53517 0
M  V30 1082 H 108.444 -5.15493 -3.07225 0
M  V30 1083 H 109.514 -4.49321 -1.82316 0
M  V30 1084 N 110.857 0.726932 -1.39834 0
M  V30 1085 C 111.787 1.85405 -1.41941 0
M  V30 1086 C 112.768 1.67751 -0.281728 0
M  V30 1087 O 113.953 1.8795 -0.488717 0
M  V30 1088 C 111.083 3.23243 -1.2701 0
M  V30 1089 C 110.037 3.55549 -2.38262 0
M  V30 1090 C 109.363 4.9241 -2.08415 0
M  V30 1091 C 110.663 3.577 -3.80589 0
M  V30 1092 H 112.357 1.83899 -2.36266 0
M  V30 1093 H 109.903 0.883349 -1.13723 0
M  V30 1094 H 111.856 4.01775 -1.27103 0
M  V30 1095 H 110.58 3.25296 -0.291564 0
M  V30 1096 H 109.239 2.79351 -2.37399 0
M  V30 1097 H 108.887 4.91052 -1.0898 0
M  V30 1098 H 108.587 5.14992 -2.82943 0
M  V30 1099 H 110.111 5.73289 -2.10171 0
M  V30 1100 H 111.525 4.26293 -3.83337 0
M  V30 1101 H 109.922 3.91804 -4.54543 0
M  V30 1102 H 110.992 2.57328 -4.10987 0
M  V30 1103 N 112.336 1.25143 0.95797 0
M  V30 1104 C 113.561 1.12521 1.74223 0
M  V30 1105 C 113.986 -0.317402 1.85403 0
M  V30 1106 O 113.344 -1.2299 1.33204 0
M  V30 1107 C 113.392 1.78062 3.1357 0
M  V30 1108 O 112.496 1.058 3.98598 0
M  V30 1109 H 111.837 0.39304 0.535178 0
M  V30 1110 H 114.367 1.65641 1.201 0
M  V30 1111 H 114.377 1.84213 3.64046 0
M  V30 1112 H 113.052 2.83021 3.04749 0
M  V30 1113 H 111.629 1.07506 3.57067 0
M  V30 1114 N 113.814 -1.1601 1.06675 0
M  V30 1115 C 114.777 -2.18724 0.685001 0
M  V30 1116 C 115.777 -1.58496 -0.271246 0
M  V30 1117 O 116.967 -1.74119 -0.0531156 0
M  V30 1118 C 114.099 -3.40899 0.00853648 0
M  V30 1119 H 115.292 -2.54011 1.59431 0
M  V30 1120 H 112.845 -1.30352 0.862441 0
M  V30 1121 H 113.58 -3.11173 -0.913337 0
M  V30 1122 H 113.365 -3.8587 0.696204 0
M  V30 1123 H 114.855 -4.16886 -0.24414 0
M  V30 1124 N 115.292 -0.849877 -1.32721 0
M  V30 1125 C 116.54 -0.450032 -1.97026 0
M  V30 1126 C 116.861 0.996604 -1.67609 0
M  V30 1127 O 116.131 1.6958 -0.980786 0
M  V30 1128 H 114.711 -0.163426 -0.728904 0
M  V30 1129 H 117.373 -1.08526 -1.6189 0
M  V30 1130 H 116.469 -0.591146 -3.0645 0
M  V30 1131 N 116.77 1.45427 -0.607355 0
M  V30 1132 C 118.018 2.01841 -0.102253 0
M  V30 1133 C 118.339 1.47832 1.27164 0
M  V30 1134 O 117.609 0.672497 1.83995 0
M  V30 1135 H 116.189 0.746188 -0.0348101 0
M  V30 1136 H 118.851 1.78229 -0.7887 0
M  V30 1137 H 117.947 3.12057 -0.0518585 0
M  V30 1138 N 118.248 0.346503 1.53744 0
M  V30 1139 C 119.496 -0.248612 2.00565 0
M  V30 1140 C 119.817 -1.5083 1.23593 0
M  V30 1141 O 119.087 -1.92858 0.343912 0
M  V30 1142 H 117.667 -0.0948564 0.740953 0
M  V30 1143 H 120.329 0.468341 1.89189 0
M  V30 1144 H 119.425 -0.488994 3.08245 0
M  V30 1145 N 119.726 -1.57421 0.075193 0
M  V30 1146 C 120.974 -1.93236 -0.591974 0
M  V30 1147 C 121.295 -0.956241 -1.69944 0
M  V30 1148 O 120.565 -0.00494792 -1.95899 0
M  V30 1149 H 119.145 -0.713355 -0.22166 0
M  V30 1150 H 121.807 -1.9444 0.133848 0
M  V30 1151 H 120.903 -2.95131 -1.01509 0
M  V30 1152 N 121.204 0.198386 -1.56346 0
M  V30 1153 C 122.167 1.22952 -1.93431 0
M  V30 1154 C 123.167 1.38611 -0.815092 0
M  V30 1155 O 124.357 1.36479 -1.08255 0
M  V30 1156 C 121.489 2.59946 -2.20546 0
M  V30 1157 H 122.682 0.912626 -2.85677 0
M  V30 1158 H 120.235 0.43977 -1.49986 0
M  V30 1159 H 120.97 2.96696 -1.30927 0
M  V30 1160 H 120.755 2.49953 -3.02102 0
M  V30 1161 H 122.245 3.3431 -2.50253 0
M  V30 1162 N 122.682 1.50554 0.465978 0
M  V30 1163 C 123.93 1.61479 1.21528 0
M  V30 1164 C 124.251 0.319596 1.92363 0
M  V30 1165 O 123.521 -0.663194 1.84333 0
M  V30 1166 H 122.101 0.595055 0.451573 0
M  V30 1167 H 124.763 1.87355 0.53704 0
M  V30 1168 H 123.859 2.42846 1.96042 0
M  V30 1169 N 124.16 -0.719506 1.40217 0
M  V30 1170 C 125.385 -1.51371 1.4178 0
M  V30 1171 C 125.81 -1.88091 0.0182355 0
M  V30 1172 O 125.168 -1.52997 -0.972707 0
M  V30 1173 C 125.216 -2.768 2.31115 0
M  V30 1174 O 124.32 -3.73349 1.7517 0
M  V30 1175 H 123.661 -0.456529 0.482159 0
M  V30 1176 H 126.191 -0.88644 1.844 0
M  V30 1177 H 126.201 -3.25371 2.46167 0
M  V30 1178 H 124.876 -2.49407 3.3282 0
M  V30 1179 H 123.453 -3.32179 1.69444 0
M  V30 1180 N 125.638 -1.25649 -0.95132 0
M  V30 1181 C 127.054 -1.02542 -1.223 0
M  V30 1182 C 127.254 0.255715 -1.99871 0
M  V30 1183 O 126.31 0.967558 -2.33226 0
M  V30 1184 C 127.623 -2.25065 -1.99415 0
M  V30 1185 C 129.171 -2.29861 -2.12446 0
M  V30 1186 C 129.646 -3.52048 -2.92961 0
M  V30 1187 N 131.137 -3.52465 -3.00538 0
M  V30 1188 C 131.872 -4.43672 -3.63239 0
M  V30 1189 N 131.368 -5.45157 -4.27523 0
M  V30 1190 N 133.161 -4.31346 -3.60412 0
M  V30 1191 H 125.312 -2.07951 -0.432471 0
M  V30 1192 H 127.575 -0.91339 -0.253816 0
M  V30 1193 H 127.281 -3.18194 -1.49817 0
M  V30 1194 H 127.155 -2.28502 -3.00111 0
M  V30 1195 H 129.542 -1.37252 -2.61239 0
M  V30 1196 H 129.623 -2.3044 -1.11044 0
M  V30 1197 H 129.267 -4.44981 -2.44856 0
M  V30 1198 H 129.197 -3.48715 -3.94596 0
M  V30 1199 H 131.688 -2.79056 -2.54826 0
M  V30 1200 H 132.001 -6.10958 -4.73234 0
M  V30 1201 H 130.346 -5.49025 -4.26141 0
M  V30 1202 H 133.537 -3.51288 -3.09377 0
M  V30 1203 H 133.71 -5.02624 -4.0899 0
M  V30 1204 N 127.117 1.15442 -1.07289 0
M  V30 1205 C 128.047 2.22312 -0.714107 0
M  V30 1206 C 129.028 1.67467 0.298155 0
M  V30 1207 O 130.213 1.93445 0.171048 0
M  V30 1208 C 127.343 3.47124 -0.110448 0
M  V30 1209 C 126.297 4.14926 -1.04979 0
M  V30 1210 C 125.623 5.33807 -0.308924 0
M  V30 1211 C 126.923 4.64762 -2.38314 0
M  V30 1212 H 128.617 2.5258 -1.6076 0
M  V30 1213 H 126.163 1.21404 -0.77441 0
M  V30 1214 H 128.116 4.21124 0.152482 0
M  V30 1215 H 126.84 3.16187 0.81812 0
M  V30 1216 H 125.499 3.42866 -1.29764 0
M  V30 1217 H 125.147 4.99126 0.623084 0
M  V30 1218 H 124.847 5.80113 -0.935036 0
M  V30 1219 H 126.371 6.10576 -0.0537771 0
M  V30 1220 H 127.785 5.30292 -2.1786 0
M  V30 1221 H 126.182 5.21728 -2.96514 0
M  V30 1222 H 127.252 3.80434 -3.00663 0
M  V30 1223 N 128.595 0.856903 1.32268 0
M  V30 1224 C 129.527 0.260412 2.27716 0
M  V30 1225 C 130.54 -0.569137 1.52528 0
M  V30 1226 O 131.729 -0.39326 1.74114 0
M  V30 1227 C 128.829 -0.650477 3.32599 0
M  V30 1228 C 128.002 0.14372 4.37164 0
M  V30 1229 C 127.061 -0.69328 5.21613 0
M  V30 1230 O 126.087 -0.12599 5.69061 0
M  V30 1231 N 127.289 -2.00761 5.44679 0
M  V30 1232 H 130.054 1.08059 2.79541 0
M  V30 1233 H 127.615 0.717103 1.45152 0
M  V30 1234 H 129.607 -1.21581 3.86005 0
M  V30 1235 H 128.177 -1.37133 2.80915 0
M  V30 1236 H 127.397 0.890486 3.8401 0
M  V30 1237 H 128.685 0.68915 5.04111 0
M  V30 1238 H 128.083 -2.49181 5.07863 0
M  V30 1239 H 126.64 -2.52103 6.01072 0
M  V30 1240 N 130.073 -1.45103 0.615059 0
M  V30 1241 C 131.036 -2.29025 -0.0895485 0
M  V30 1242 C 132.036 -1.40174 -0.787906 0
M  V30 1243 O 133.226 -1.62217 -0.634933 0
M  V30 1244 C 130.358 -3.21376 -1.13711 0
M  V30 1245 H 131.551 -2.92807 0.648382 0
M  V30 1246 H 129.104 -1.51749 0.374444 0
M  V30 1247 H 129.839 -2.6241 -1.90556 0
M  V30 1248 H 129.624 -3.86834 -0.640475 0
M  V30 1249 H 131.114 -3.84459 -1.63036 0
M  V30 1250 N 131.551 -0.354651 -1.53558 0
M  V30 1251 C 132.461 0.50515 -2.29097 0
M  V30 1252 C 133.477 1.10223 -1.34636 0
M  V30 1253 O 134.653 1.11553 -1.67684 0
M  V30 1254 C 131.718 1.63479 -3.05738 0
M  V30 1255 C 130.779 1.06636 -4.15845 0
M  V30 1256 C 130.012 2.14217 -4.88822 0
M  V30 1257 O 130.235 3.35137 -4.61562 0
M  V30 1258 O 129.169 1.77887 -5.75013 0
M  V30 1259 H 132.995 -0.109237 -3.03503 0
M  V30 1260 H 130.58 -0.119357 -1.48922 0
M  V30 1261 H 132.462 2.2918 -3.5363 0
M  V30 1262 H 131.137 2.23478 -2.34178 0
M  V30 1263 H 130.044 0.373565 -3.7223 0
M  V30 1264 H 131.377 0.511081 -4.89539 0
M  V30 1265 N 133.029 1.57378 -0.0835403 0
M  V30 1266 C 133.962 2.09016 0.915833 0
M  V30 1267 C 134.94 0.997993 1.2837 0
M  V30 1268 O 136.124 1.27219 1.39096 0
M  V30 1269 C 133.251 2.55757 2.22049 0
M  V30 1270 C 132.297 3.76522 2.00333 0
M  V30 1271 S 133.13 5.20661 1.25191 0
M  V30 1272 C 134.286 5.70743 2.56912 0
M  V30 1273 H 134.519 2.93457 0.476492 0
M  V30 1274 H 132.052 1.53856 0.129493 0
M  V30 1275 H 134.01 2.83346 2.97027 0
M  V30 1276 H 132.671 1.71564 2.63106 0
M  V30 1277 H 131.864 4.07256 2.96916 0
M  V30 1278 H 131.466 3.49367 1.33488 0
M  V30 1279 H 133.758 5.78304 3.52946 0
M  V30 1280 H 134.701 6.6944 2.30772 0
M  V30 1281 H 135.109 4.98616 2.64655 0
M  V30 1282 N 134.507 -0.190092 1.56449 0
M  V30 1283 C 135.437 -1.23816 1.97969 0
M  V30 1284 C 136.418 -1.47201 0.852395 0
M  V30 1285 O 137.603 -1.58854 1.1171 0
M  V30 1286 C 134.733 -2.5813 2.3235 0
M  V30 1287 C 133.687 -2.49348 3.47864 0
M  V30 1288 C 133.013 -3.8798 3.67934 0
M  V30 1289 C 134.313 -2.01424 4.81898 0
M  V30 1290 H 136.007 -0.89311 2.85769 0
M  V30 1291 H 133.553 -0.428177 1.37487 0
M  V30 1292 H 135.506 -3.31637 2.59991 0
M  V30 1293 H 134.23 -2.94386 1.41438 0
M  V30 1294 H 132.889 -1.78297 3.20321 0
M  V30 1295 H 132.537 -4.21597 2.74344 0
M  V30 1296 H 132.237 -3.82978 4.45648 0
M  V30 1297 H 133.761 -4.63101 3.97957 0
M  V30 1298 H 135.175 -2.64693 5.08538 0
M  V30 1299 H 133.572 -2.07413 5.63116 0
M  V30 1300 H 134.642 -0.967677 4.75146 0
M  V30 1301 N 135.985 -1.50799 -0.457987 0
M  V30 1302 C 136.917 -1.66786 -1.57211 0
M  V30 1303 C 137.93 -0.548962 -1.53265 0
M  V30 1304 O 139.119 -0.8226 -1.58416 0
M  V30 1305 C 136.219 -1.64834 -2.96113 0
M  V30 1306 C 135.392 -2.92971 -3.24787 0
M  V30 1307 C 134.451 -2.83485 -4.43309 0
M  V30 1308 O 133.477 -3.5744 -4.42973 0
M  V30 1309 N 134.679 -1.97929 -5.45714 0
M  V30 1310 H 137.444 -2.62889 -1.43909 0
M  V30 1311 H 135.005 -1.48427 -0.646617 0
M  V30 1312 H 136.997 -1.56084 -3.7339 0
M  V30 1313 H 135.567 -0.764118 -3.03117 0
M  V30 1314 H 134.787 -3.15749 -2.36 0
M  V30 1315 H 136.075 -3.77834 -3.40762 0
M  V30 1316 H 135.473 -1.37182 -5.48815 0
M  V30 1317 H 134.03 -1.95073 -6.21924 0
M  V30 1318 N 137.463 0.71206 -1.40597 0
M  V30 1319 C 138.396 1.83582 -1.35546 0
M  V30 1320 C 139.374 1.61032 -0.225284 0
M  V30 1321 O 140.558 1.83998 -0.409519 0
M  V30 1322 C 137.685 3.19983 -1.11034 0
M  V30 1323 C 136.731 3.61355 -2.2655 0
M  V30 1324 S 137.564 3.68062 -3.88961 0
M  V30 1325 C 138.72 5.07216 -3.66719 0
M  V30 1326 H 138.953 1.87586 -2.30648 0
M  V30 1327 H 136.486 0.879182 -1.26924 0
M  V30 1328 H 138.444 3.98734 -0.975761 0
M  V30 1329 H 137.105 3.13608 -0.175798 0
M  V30 1330 H 136.298 4.60403 -2.0505 0
M  V30 1331 H 135.9 2.8987 -2.36329 0
M  V30 1332 H 138.192 5.94238 -3.25404 0
M  V30 1333 H 139.135 5.33753 -4.6531 0
M  V30 1334 H 139.543 4.77976 -3.00332 0
M  V30 1335 N 138.941 1.26152 0.944643 0
M  V30 1336 C 140.218 1.02247 1.66748 0
M  V30 1337 C 140.598 -0.448202 2.06287 0
M  V30 1338 O 139.946 -1.42779 1.78399 0
M  V30 1339 C 140.156 1.96788 2.88228 0
M  V30 1340 C 141.504 2.25201 3.59958 0
M  V30 1341 O 142.528 1.94626 2.98327 0
M  V30 1342 O 141.387 2.77242 4.70956 0
M  V30 1343 H 138.481 0.388517 0.730057 0
M  V30 1344 H 141.027 1.37348 0.99668 0
M  V30 1345 H 139.799 2.96047 2.55875 0
M  V30 1346 H 139.422 1.62145 3.63035 0
M  V30 1347 N 140.419 -1.14872 1.07899 0
M  V30 1348 C 141.349 -2.2193 0.725887 0
M  V30 1349 C 142.33 -1.67622 -0.28927 0
M  V30 1350 O 143.515 -1.93533 -0.160787 0
M  V30 1351 C 140.645 -3.47061 0.128856 0
M  V30 1352 C 139.599 -4.14363 1.07178 0
M  V30 1353 C 138.925 -5.33636 0.337229 0
M  V30 1354 C 140.225 -4.63492 2.40775 0
M  V30 1355 H 141.919 -2.51724 1.62097 0
M  V30 1356 H 139.465 -1.20991 0.780838 0
M  V30 1357 H 141.418 -4.21199 -0.130147 0
M  V30 1358 H 140.142 -3.16617 -0.80134 0
M  V30 1359 H 138.801 -3.42173 1.3158 0
M  V30 1360 H 138.449 -4.99449 -0.596606 0
M  V30 1361 H 138.149 -5.79609 0.965788 0
M  V30 1362 H 139.673 -6.10539 0.0861567 0
M  V30 1363 H 141.087 -5.2913 2.20669 0
M  V30 1364 H 139.484 -5.20148 2.99276 0
M  V30 1365 H 140.554 -3.78834 3.02676 0
M  V30 1366 N 141.898 -0.863906 -1.31812 0
M  V30 1367 C 143.147 -0.46801 -1.96195 0
M  V30 1368 C 143.46 0.983474 -1.69077 0
M  V30 1369 O 144.666 1.48523 -2.27273 0
M  V30 1370 C 143.122 -0.785995 -3.51212 0
M  V30 1371 C 142.73 -2.25383 -3.87178 0
M  V30 1372 C 144.474 -0.458274 -4.22019 0
M  V30 1373 C 142.381 -2.51455 -5.3528 0
M  V30 1374 H 141.311 -0.171283 -0.734287 0
M  V30 1375 H 143.962 -1.05597 -1.50072 0
M  V30 1376 H 142.344 -0.127359 -3.95795 0
M  V30 1377 H 143.518 -2.95502 -3.53575 0
M  V30 1378 H 141.833 -2.54698 -3.2942 0
M  V30 1379 H 144.43 -0.630369 -5.30971 0
M  V30 1380 H 144.773 0.600834 -4.11941 0
M  V30 1381 H 145.306 -1.07319 -3.8305 0
M  V30 1382 H 142.045 -3.56025 -5.50387 0
M  V30 1383 H 141.565 -1.85923 -5.70257 0
M  V30 1384 H 143.244 -2.35874 -6.02472 0
M  V30 1385 N 143.376 1.44774 -0.622745 0
M  V30 1386 C 144.653 1.95522 -0.0551974 0
M  V30 1387 C 145.033 1.5649 1.41683 0
M  V30 1388 O 144.381 0.834848 2.12703 0
M  V30 1389 C 144.591 3.4796 -0.269242 0
M  V30 1390 C 145.939 4.24306 -0.158014 0
M  V30 1391 O 146.963 3.55637 -0.200162 0
M  V30 1392 O 145.822 5.46471 -0.0558693 0
M  V30 1393 H 142.916 0.826556 0.0271015 0
M  V30 1394 H 145.462 1.54866 -0.693864 0
M  V30 1395 H 144.234 3.6939 -1.29099 0
M  V30 1396 H 143.857 3.95543 0.403966 0
M  V30 1397 N 144.854 0.36279 1.53368 0
M  V30 1398 C 145.817 -0.472679 2.24273 0
M  V30 1399 C 146.817 -1.012 1.24961 0
M  V30 1400 O 148.007 -0.898194 1.49259 0
M  V30 1401 C 145.139 -1.66039 2.97731 0
M  V30 1402 H 146.332 0.14773 2.99536 0
M  V30 1403 H 143.885 0.114434 1.55881 0
M  V30 1404 H 144.62 -2.31896 2.26704 0
M  V30 1405 H 144.405 -1.28066 3.70596 0
M  V30 1406 H 145.895 -2.25252 3.51641 0
M  V30 1407 N 146.332 -1.57332 0.0918853 0
M  V30 1408 C 147.56 -1.98574 -0.581048 0
M  V30 1409 C 147.975 -0.970903 -1.61923 0
M  V30 1410 O 147.332 0.0399054 -1.82456 0
M  V30 1411 C 147.383 -3.39872 -1.23164 0
M  V30 1412 O 147.104 -4.37469 -0.234989 0
M  V30 1413 C 148.605 -3.96099 -1.99049 0
M  V30 1414 H 145.825 -0.65261 -0.156018 0
M  V30 1415 H 148.369 -2.0379 0.170225 0
M  V30 1416 H 146.524 -3.35679 -1.93386 0
M  V30 1417 H 146.938 -5.19751 -0.70418 0
M  V30 1418 H 148.412 -4.97127 -2.39934 0
M  V30 1419 H 148.889 -3.3374 -2.85507 0
M  V30 1420 H 149.495 -4.03755 -1.3365 0
M  V30 1421 N 147.81 0.181792 -1.56548 0
M  V30 1422 C 149.058 0.89832 -1.81038 0
M  V30 1423 C 149.379 1.83232 -0.667164 0
M  V30 1424 O 148.649 1.93372 0.313673 0
M  V30 1425 H 147.229 0.33471 -0.667816 0
M  V30 1426 H 149.891 0.184116 -1.94028 0
M  V30 1427 H 148.987 1.4815 -2.74696 0
M  V30 1428 N 149.288 1.51039 0.449983 0
M  V30 1429 C 150.565 1.53612 1.21089 0
M  V30 1430 C 150.945 0.292997 2.09057 0
M  V30 1431 O 150.293 -0.72259 2.16774 0
M  V30 1432 C 150.503 2.84337 2.0237 0
M  V30 1433 C 151.851 3.35807 2.59843 0
M  V30 1434 O 152.875 2.85802 2.12593 0
M  V30 1435 O 151.734 4.23029 3.45989 0
M  V30 1436 H 148.828 0.617057 0.550608 0
M  V30 1437 H 151.374 1.63344 0.460082 0
M  V30 1438 H 150.146 3.66278 1.37681 0
M  V30 1439 H 149.769 2.77708 2.84542 0
M  V30 1440 N 150.766 -0.704594 1.40972 0
M  V30 1441 C 151.994 -1.49354 1.43182 0
M  V30 1442 C 152.409 -1.88768 0.0345508 0
M  V30 1443 O 151.766 -1.56184 -0.944081 0
M  V30 1444 C 151.817 -2.76187 2.33244 0
M  V30 1445 O 151.538 -2.38436 3.67532 0
M  V30 1446 C 153.039 -3.7 2.44162 0
M  V30 1447 H 150.259 -0.460559 0.487982 0
M  V30 1448 H 152.803 -0.868261 1.85153 0
M  V30 1449 H 150.958 -3.34974 1.94606 0
M  V30 1450 H 151.372 -3.20126 4.15475 0
M  V30 1451 H 152.846 -4.55803 3.11364 0
M  V30 1452 H 153.323 -4.13867 1.47006 0
M  V30 1453 H 153.929 -3.17121 2.83398 0
M  V30 1454 N 152.244 -1.26651 -0.937939 0
M  V30 1455 C 153.655 -1.1125 -1.49934 0
M  V30 1456 C 154.006 0.306077 -1.93798 0
M  V30 1457 O 153.131 1.19792 -1.80219 0
M  V30 1458 C 153.726 -2.01339 -2.72485 0
M  V30 1459 C 152.285 -1.90074 -3.24883 0
M  V30 1460 C 151.432 -1.94498 -1.97651 0
M  V30 1461 H 154.383 -1.39693 -0.753091 0
M  V30 1462 H 154.404 -1.56319 -3.46907 0
M  V30 1463 H 153.916 -3.04577 -2.40529 0
M  V30 1464 H 152.017 -0.897827 -3.61621 0
M  V30 1465 H 152.13 -2.75778 -3.9177 0
M  V30 1466 H 150.494 -1.38591 -2.13693 0
M  V30 1467 H 151.277 -2.99372 -1.68022 0
M  V30 1468 N 153.722 1.14298 -1.08507 0
M  V30 1469 C 154.97 1.84993 -0.813763 0
M  V30 1470 C 155.291 1.83405 0.662393 0
M  V30 1471 O 154.561 1.28319 1.48024 0
M  V30 1472 H 153.141 0.684966 -0.298045 0
M  V30 1473 H 155.803 1.385 -1.37126 0
M  V30 1474 H 154.899 2.89788 -1.15884 0
M  V30 1475 N 155.201 0.870884 1.31352 0
M  V30 1476 C 156.164 0.332243 2.26779 0
M  V30 1477 C 157.164 -0.517302 1.52252 0
M  V30 1478 O 158.354 -0.326477 1.71113 0
M  V30 1479 C 155.486 -0.528066 3.36785 0
M  V30 1480 H 156.679 1.17469 2.75937 0
M  V30 1481 H 154.232 0.64655 1.423 0
M  V30 1482 H 154.967 -1.39167 2.92922 0
M  V30 1483 H 154.752 0.0802582 3.92018 0
M  V30 1484 H 156.242 -0.897179 4.07849 0
M  V30 1485 N 156.679 -1.44442 0.630414 0
M  V30 1486 C 157.589 -2.34476 -0.0761693 0
M  V30 1487 C 158.605 -1.52576 -0.836449 0
M  V30 1488 O 159.781 -1.85307 -0.788874 0
M  V30 1489 C 156.846 -3.30545 -1.04599 0
M  V30 1490 C 155.907 -4.28352 -0.28516 0
M  V30 1491 C 155.14 -5.19831 -1.20878 0
M  V30 1492 O 155.363 -5.15223 -2.44747 0
M  V30 1493 O 154.297 -5.97892 -0.693491 0
M  V30 1494 H 158.123 -2.96345 0.664324 0
M  V30 1495 H 155.708 -1.44203 0.39061 0
M  V30 1496 H 157.59 -3.89681 -1.60396 0
M  V30 1497 H 156.265 -2.7121 -1.76711 0
M  V30 1498 H 155.172 -3.72764 0.315837 0
M  V30 1499 H 156.505 -4.90605 0.395924 0
M  V30 1500 N 158.157 -0.370918 -1.53173 0
M  V30 1501 C 159.434 0.273754 -1.93675 0
M  V30 1502 C 159.814 1.65938 -1.3049 0
M  V30 1503 O 159.162 2.23698 -0.465999 0
M  V30 1504 C 159.372 0.318602 -3.47543 0
M  V30 1505 C 160.72 0.556392 -4.20939 0
M  V30 1506 O 161.744 0.399587 -3.53952 0
M  V30 1507 O 160.603 0.862133 -5.39657 0
M  V30 1508 H 157.697 0.165448 -0.810281 0
M  V30 1509 H 160.243 -0.42409 -1.64315 0
M  V30 1510 H 159.015 -0.652687 -3.85818 0
M  V30 1511 H 158.638 1.06212 -3.83151 0
M  V30 1512 N 159.635 1.57281 -0.100228 0
M  V30 1513 C 160.912 1.86014 0.604812 0
M  V30 1514 C 161.292 0.998025 1.86018 0
M  V30 1515 O 160.64 0.0718184 2.28387 0
M  V30 1516 C 160.85 3.36784 0.915278 0
M  V30 1517 C 162.198 4.04957 1.27651 0
M  V30 1518 O 163.222 3.41695 1.00613 0
M  V30 1519 O 162.081 5.16593 1.7831 0
M  V30 1520 H 159.175 0.76942 0.303185 0
M  V30 1521 H 161.721 1.69176 -0.133313 0
M  V30 1522 H 160.493 3.91292 0.0248896 0
M  V30 1523 H 160.116 3.58987 1.70921 0
M  V30 1524 N 161.113 -0.173488 1.56642 0
M  V30 1525 C 162.023 -1.23482 1.99473 0
M  V30 1526 C 163.039 -1.48567 0.905752 0
M  V30 1527 O 164.215 -1.60758 1.21321 0
M  V30 1528 C 161.28 -2.55444 2.34413 0
M  V30 1529 C 160.341 -2.38241 3.57127 0
M  V30 1530 C 159.574 -3.63909 3.90392 0
M  V30 1531 O 159.797 -4.68996 3.24653 0
M  V30 1532 O 158.731 -3.58149 4.83749 0
M  V30 1533 H 162.557 -0.901279 2.90018 0
M  V30 1534 H 160.142 -0.380185 1.44482 0
M  V30 1535 H 162.024 -3.33292 2.57865 0
M  V30 1536 H 160.699 -2.88382 1.4703 0
M  V30 1537 H 159.606 -1.58431 3.38896 0
M  V30 1538 H 160.939 -2.10228 4.45045 0
M  V30 1539 N 162.591 -1.51276 -0.441967 0
M  V30 1540 C 163.501 -1.75092 -1.56141 0
M  V30 1541 C 164.517 -0.634963 -1.62001 0
M  V30 1542 O 165.693 -0.916686 -1.79329 0
M  V30 1543 C 162.758 -1.86666 -2.92158 0
M  V30 1544 C 161.819 -3.10506 -2.96453 0
M  V30 1545 C 161.052 -3.21519 -4.25982 0
M  V30 1546 O 161.275 -2.38586 -5.18105 0
M  V30 1547 O 160.209 -4.14465 -4.36466 0
M  V30 1548 H 164.035 -2.70044 -1.38961 0
M  V30 1549 H 161.62 -1.35722 -0.624499 0
M  V30 1550 H 163.502 -1.96292 -3.72891 0
M  V30 1551 H 162.177 -0.949014 -3.09476 0
M  V30 1552 H 161.084 -3.06363 -2.14692 0
M  V30 1553 H 162.417 -4.01945 -2.84079 0
M  V30 1554 N 164.069 0.697108 -1.41344 0
M  V30 1555 C 165.346 1.45154 -1.31109 0
M  V30 1556 C 165.726 2.11009 0.0620449 0
M  V30 1557 O 165.074 2.01571 1.07618 0
M  V30 1558 C 165.284 2.47223 -2.46337 0
M  V30 1559 C 166.632 3.1252 -2.87431 0
M  V30 1560 O 167.656 2.57547 -2.46065 0
M  V30 1561 O 166.515 4.12083 -3.58957 0
M  V30 1562 H 163.609 0.646365 -0.515889 0
M  V30 1563 H 166.155 0.727716 -1.53305 0
M  V30 1564 H 164.927 1.97204 -3.37974 0
M  V30 1565 H 164.55 3.27116 -2.2601 0
M  V30 1566 N 165.547 1.27147 0.931209 0
M  V30 1567 C 166.824 1.0401 1.65654 0
M  V30 1568 C 167.204 -0.426297 2.06751 0
M  V30 1569 O 166.552 -1.40879 1.79904 0
M  V30 1570 C 166.762 1.99834 2.86125 0
M  V30 1571 C 168.11 2.29007 3.57549 0
M  V30 1572 O 169.134 1.97779 2.96246 0
M  V30 1573 O 167.993 2.82222 4.67989 0
M  V30 1574 H 165.087 0.396239 0.725895 0
M  V30 1575 H 167.633 1.38397 0.982056 0
M  V30 1576 H 166.405 2.98744 2.52721 0
M  V30 1577 H 166.028 1.65987 3.61295 0
M  V30 1578 N 167.025 -1.13721 1.09112 0
M  V30 1579 C 168.302 -1.81155 0.737706 0
M  V30 1580 C 168.682 -1.96253 -0.777683 0
M  V30 1581 O 168.03 -1.52807 -1.69889 0
M  V30 1582 C 168.24 -3.16392 1.47299 0
M  V30 1583 C 169.588 -3.91787 1.63671 0
M  V30 1584 O 170.612 -3.26005 1.43524 0
M  V30 1585 O 169.471 -5.0977 1.96969 0
M  V30 1586 H 166.565 -0.783518 0.26463 0
M  V30 1587 H 169.111 -1.20676 1.19312 0
M  V30 1588 H 167.883 -3.0061 2.50498 0
M  V30 1589 H 167.506 -3.8457 1.00953 0
M  V30 1590 N 168.503 -0.877838 -1.30888 0
M  V30 1591 C 169.413 -0.343096 -2.32078 0
M  V30 1592 C 170.429 0.551022 -1.65045 0
M  V30 1593 O 171.605 0.445854 -1.96403 0
M  V30 1594 C 168.67 0.439905 -3.43898 0
M  V30 1595 C 167.731 -0.483111 -4.26573 0
M  V30 1596 C 166.964 0.262616 -5.33053 0
M  V30 1597 O 167.187 1.48967 -5.50604 0
M  V30 1598 O 166.121 -0.383593 -6.00676 0
M  V30 1599 H 169.947 -1.18203 -2.79753 0
M  V30 1600 H 167.532 -0.64145 -1.34929 0
M  V30 1601 H 169.414 0.883504 -4.12034 0
M  V30 1602 H 168.089 1.25526 -2.98371 0
M  V30 1603 H 166.996 -0.975374 -3.61161 0
M  V30 1604 H 168.329 -1.26427 -4.75686 0
M  V30 1605 N 169.982 1.44106 -0.638065 0
M  V30 1606 C 170.892 2.34513 0.0637334 0
M  V30 1607 C 171.908 1.53018 0.828346 0
M  V30 1608 O 173.084 1.85723 0.779036 0
M  V30 1609 C 170.149 3.31095 1.02844 0
M  V30 1610 C 169.21 4.28497 0.26244 0
M  V30 1611 C 168.443 5.20465 1.1812 0
M  V30 1612 O 168.666 5.16514 2.42011 0
M  V30 1613 O 167.6 5.98251 0.661774 0
M  V30 1614 H 171.426 2.95989 -0.68003 0
M  V30 1615 H 169.011 1.43994 -0.398252 0
M  V30 1616 H 170.893 3.90526 1.58327 0
M  V30 1617 H 169.568 2.72144 1.7527 0
M  V30 1618 H 168.475 3.72592 -0.335602 0
M  V30 1619 H 169.808 4.90388 -0.421936 0
M  V30 1620 N 171.46 0.379036 1.52974 0
M  V30 1621 C 172.876 0.0285448 1.59574 0
M  V30 1622 C 173.076 -1.45542 1.39355 0
M  V30 1623 O 172.132 -2.2187 1.20541 0
M  V30 1624 C 173.445 0.496535 2.96572 0
M  V30 1625 C 174.993 0.451909 3.0972 0
M  V30 1626 C 175.468 0.895924 4.49152 0
M  V30 1627 N 176.959 0.851522 4.55306 0
M  V30 1628 C 177.694 1.16661 5.61407 0
M  V30 1629 N 177.19 1.55166 6.752 0
M  V30 1630 N 178.983 1.08853 5.51459 0
M  V30 1631 H 171.134 1.34525 1.64367 0
M  V30 1632 H 173.397 0.550733 0.771619 0
M  V30 1633 H 173.103 1.53258 3.16552 0
M  V30 1634 H 172.977 -0.109802 3.7704 0
M  V30 1635 H 175.364 -0.575029 2.89443 0
M  V30 1636 H 175.445 1.09392 2.3123 0
M  V30 1637 H 175.089 1.92104 4.70168 0
M  V30 1638 H 175.019 0.23103 5.26093 0
M  V30 1639 H 177.51 0.568038 3.73606 0
M  V30 1640 H 177.823 1.776 7.52116 0
M  V30 1641 H 176.168 1.59044 6.76557 0
M  V30 1642 H 179.359 0.786803 4.6144 0
M  V30 1643 H 179.532 1.33742 6.34048 0
M  V30 1644 N 172.938 -1.57226 0.108567 0
M  V30 1645 C 173.901 -2.13602 -0.831082 0
M  V30 1646 C 174.901 -1.06841 -1.20173 0
M  V30 1647 O 176.091 -1.32666 -1.12895 0
M  V30 1648 C 173.223 -2.66769 -2.12243 0
M  V30 1649 H 174.416 -2.97951 -0.341317 0
M  V30 1650 H 171.969 -1.55667 -0.14057 0
M  V30 1651 H 172.704 -1.85977 -2.65675 0
M  V30 1652 H 172.489 -3.44839 -1.86625 0
M  V30 1653 H 173.979 -3.10332 -2.79435 0
M  V30 1654 N 174.416 0.165178 -1.56732 0
M  V30 1655 C 175.379 1.18822 -1.95995 0
M  V30 1656 C 176.379 1.3685 -0.84431 0
M  V30 1657 O 177.569 1.34152 -1.11126 0
M  V30 1658 C 174.701 2.5521 -2.26011 0
M  V30 1659 H 175.894 0.851825 -2.87548 0
M  V30 1660 H 173.447 0.407857 -1.50885 0
M  V30 1661 H 174.182 2.93852 -1.37191 0
M  V30 1662 H 173.967 2.43489 -3.07336 0
M  V30 1663 H 175.457 3.28927 -2.57288 0
M  V30 1664 N 175.894 1.51508 0.433938 0
M  V30 1665 C 177.31 1.39759 0.770682 0
M  V30 1666 C 177.51 0.482594 1.95636 0
M  V30 1667 O 176.566 -0.0609691 2.52426 0
M  V30 1668 C 177.879 2.81851 1.04787 0
M  V30 1669 C 179.427 2.91025 1.1521 0
M  V30 1670 C 179.902 4.34032 1.46219 0
M  V30 1671 N 181.393 4.37154 1.53136 0
M  V30 1672 C 182.128 5.4484 1.78709 0
M  V30 1673 N 181.624 6.62682 2.02051 0
M  V30 1674 N 183.417 5.32324 1.80519 0
M  V30 1675 H 175.568 2.09548 -0.346892 0
M  V30 1676 H 177.831 0.943446 -0.0928074 0
M  V30 1677 H 177.537 3.50815 0.249304 0
M  V30 1678 H 177.411 3.21386 1.97461 0
M  V30 1679 H 179.798 2.22257 1.94128 0
M  V30 1680 H 179.879 2.54983 0.204281 0
M  V30 1681 H 179.523 5.03351 0.678274 0
M  V30 1682 H 179.453 4.6759 2.42212 0
M  V30 1683 H 181.944 3.52197 1.36987 0
M  V30 1684 H 182.257 7.40543 2.20943 0
M  V30 1685 H 180.602 6.65791 1.99366 0
M  V30 1686 H 183.793 4.39246 1.61805 0
M  V30 1687 H 183.966 6.16328 2.00111 0
M  V30 1688 N 177.372 -0.689602 1.41712 0
M  V30 1689 C 178.788 -1.00093 1.24312 0
M  V30 1690 C 178.988 -2.01036 0.136729 0
M  V30 1691 O 178.044 -2.47562 -0.496918 0
M  V30 1692 C 179.357 -1.51985 2.59463 0
M  V30 1693 C 180.905 -1.63838 2.66695 0
M  V30 1694 C 181.38 -2.1913 4.02177 0
M  V30 1695 N 182.871 -2.26483 4.04054 0
M  V30 1696 C 183.606 -2.70306 5.0569 0
M  V30 1697 N 183.102 -3.13691 6.17713 0
M  V30 1698 N 184.895 -2.69923 4.9305 0
M  V30 1699 H 177.046 -0.0210029 2.1239 0
M  V30 1700 H 179.309 -0.0718733 0.945272 0
M  V30 1701 H 179.015 -0.85269 3.41207 0
M  V30 1702 H 178.889 -2.50103 2.82362 0
M  V30 1703 H 181.276 -2.29664 1.85306 0
M  V30 1704 H 181.357 -0.642492 2.476 0
M  V30 1705 H 181.001 -1.53918 4.84016 0
M  V30 1706 H 180.931 -3.19482 4.18615 0
M  V30 1707 H 183.422 -1.95874 3.23174 0
M  V30 1708 H 183.735 -3.45773 6.9113 0
M  V30 1709 H 182.08 -3.11585 6.21241 0
M  V30 1710 H 185.271 -2.35382 4.04614 0
M  V30 1711 H 185.444 -3.03758 5.72394 0
M  V30 1712 N 178.85 -1.27639 -0.924453 0
M  V30 1713 C 180.261 -1.12834 -1.48746 0
M  V30 1714 C 180.612 0.285505 -1.94112 0
M  V30 1715 O 179.737 1.17874 -1.81479 0
M  V30 1716 C 180.332 -2.04217 -2.70334 0
M  V30 1717 C 178.891 -1.93509 -3.22848 0
M  V30 1718 C 178.038 -1.96583 -1.95577 0
M  V30 1719 H 180.989 -1.40484 -0.738233 0
M  V30 1720 H 181.01 -1.59989 -3.4523 0
M  V30 1721 H 180.522 -3.07111 -2.37285 0
M  V30 1722 H 178.623 -0.936131 -3.60649 0
M  V30 1723 H 178.736 -2.79917 -3.88823 0
M  V30 1724 H 177.1 -1.4085 -2.12211 0
M  V30 1725 H 177.883 -3.01137 -1.64837 0
M  V30 1726 N 180.328 1.1314 -1.09713 0
M  V30 1727 C 181.576 1.84119 -0.833338 0
M  V30 1728 C 181.897 1.84097 0.642904 0
M  V30 1729 O 181.167 1.29881 1.46655 0
M  V30 1730 H 179.747 0.681766 -0.305293 0
M  V30 1731 H 182.409 1.37038 -1.38588 0
M  V30 1732 H 181.505 2.88543 -1.18951 0
M  V30 1733 N 181.806 0.884767 1.30421 0
M  V30 1734 C 182.769 0.356277 2.26414 0
M  V30 1735 C 183.769 -0.501124 1.52792 0
M  V30 1736 O 184.959 -0.30831 1.7145 0
M  V30 1737 C 182.091 -0.492316 3.37326 0
M  V30 1738 H 183.284 1.20389 2.74675 0
M  V30 1739 H 180.837 0.661607 1.41607 0
M  V30 1740 H 181.572 -1.36052 2.94381 0
M  V30 1741 H 181.357 0.121832 3.91911 0
M  V30 1742 H 182.847 -0.853871 4.08777 0
M  V30 1743 N 183.284 -1.43765 0.645699 0
M  V30 1744 C 184.532 -2.01499 0.155731 0
M  V30 1745 C 184.853 -1.51151 -1.232 0
M  V30 1746 O 184.123 -0.721044 -1.82148 0
M  V30 1747 H 182.703 -0.745003 0.0545817 0
M  V30 1748 H 185.365 -1.76075 0.835677 0
M  V30 1749 H 184.461 -3.1181 0.134577 0
M  V30 1750 N 184.763 -0.387143 -1.52771 0
M  V30 1751 C 186.174 0.0873634 -1.86495 0
M  V30 1752 C 186.525 1.46336 -1.30691 0
M  V30 1753 O 185.65 2.068 -0.637409 0
M  V30 1754 C 186.245 0.165305 -3.38396 0
M  V30 1755 C 184.804 0.584101 -3.7184 0
M  V30 1756 C 183.951 -0.255279 -2.76122 0
M  V30 1757 H 186.902 -0.605104 -1.46711 0
M  V30 1758 H 186.923 0.984848 -3.67534 0
M  V30 1759 H 186.435 -0.836301 -3.78982 0
M  V30 1760 H 184.536 1.59315 -3.36823 0
M  V30 1761 H 184.649 0.343749 -4.77865 0
M  V30 1762 H 183.013 0.279126 -2.53166 0
M  V30 1763 H 183.796 -1.25482 -3.19545 0
M  V30 1764 N 186.241 1.57166 -0.116904 0
M  V30 1765 C 187.652 1.82169 0.408809 0
M  V30 1766 C 188.003 1.03393 1.66746 0
M  V30 1767 O 187.128 0.269886 2.1471 0
M  V30 1768 C 187.723 3.30429 0.748466 0
M  V30 1769 C 186.282 3.5612 1.21882 0
M  V30 1770 C 185.429 2.76374 0.226452 0
M  V30 1771 H 188.38 1.5497 -0.342063 0
M  V30 1772 H 188.401 3.44943 1.60607 0
M  V30 1773 H 187.913 3.87737 -0.167784 0
M  V30 1774 H 186.014 3.04168 2.15204 0
M  V30 1775 H 186.127 4.64705 1.16559 0
M  V30 1776 H 184.491 2.44515 0.713063 0
M  V30 1777 H 185.274 3.3644 -0.682859 0
M  V30 1778 N 187.719 -0.156864 1.56817 0
M  V30 1779 C 188.666 -1.19394 1.97519 0
M  V30 1780 C 189.636 -1.4322 0.841265 0
M  V30 1781 O 190.821 -1.55719 1.10255 0
M  V30 1782 C 187.961 -2.52483 2.35258 0
M  V30 1783 C 187.074 -2.35914 3.61896 0
M  V30 1784 C 186.209 -3.61969 3.88782 0
M  V30 1785 C 185.248 -3.40395 5.08722 0
M  V30 1786 N 184.385 -4.58556 5.31668 0
M  V30 1787 H 189.225 -0.839845 2.85921 0
M  V30 1788 H 186.762 -0.403264 1.41464 0
M  V30 1789 H 188.72 -3.30071 2.55165 0
M  V30 1790 H 187.35 -2.85859 1.49949 0
M  V30 1791 H 186.402 -1.49429 3.49821 0
M  V30 1792 H 187.714 -2.15926 4.49641 0
M  V30 1793 H 186.868 -4.47989 4.09135 0
M  V30 1794 H 185.607 -3.84951 2.9944 0
M  V30 1795 H 184.612 -2.52763 4.88253 0
M  V30 1796 H 185.837 -3.18822 5.99608 0
M  V30 1797 H 183.783 -4.81729 4.45279 0
M  V30 1798 H 183.7 -4.41535 6.13664 0
M  V30 1799 H 184.968 -5.45817 5.5651 0
M  V30 1800 N 189.197 -1.51736 -0.425897 0
M  V30 1801 C 190.16 -1.73271 -1.50032 0
M  V30 1802 C 191.16 -0.602639 -1.4908 0
M  V30 1803 O 192.35 -0.87033 -1.509 0
M  V30 1804 C 189.482 -1.79969 -2.89523 0
M  V30 1805 H 190.675 -2.69172 -1.32237 0
M  V30 1806 H 188.228 -1.41899 -0.65532 0
M  V30 1807 H 188.963 -0.859241 -3.1271 0
M  V30 1808 H 188.748 -2.62109 -2.91619 0
M  V30 1809 H 190.238 -1.9843 -3.67444 0
M  V30 1810 N 190.675 0.682077 -1.42076 0
M  V30 1811 C 191.585 1.82535 -1.47371 0
M  V30 1812 C 192.601 1.7017 -0.363079 0
M  V30 1813 O 193.777 1.91848 -0.612875 0
M  V30 1814 C 190.842 3.18624 -1.36674 0
M  V30 1815 C 189.903 3.42999 -2.58167 0
M  V30 1816 C 189.136 4.72595 -2.4797 0
M  V30 1817 O 189.359 5.50006 -1.5116 0
M  V30 1818 O 188.293 4.98054 -3.37974 0
M  V30 1819 H 192.119 1.81023 -2.43853 0
M  V30 1820 H 189.704 0.836887 -1.2376 0
M  V30 1821 H 191.586 3.99847 -1.33043 0
M  V30 1822 H 190.261 3.20789 -0.433138 0
M  V30 1823 H 189.168 2.61653 -2.67373 0
M  V30 1824 H 190.501 3.45659 -3.50401 0
M  V30 1825 N 192.153 1.28127 0.917671 0
M  V30 1826 C 193.378 1.18007 1.70555 0
M  V30 1827 C 193.803 -0.258257 1.86319 0
M  V30 1828 O 193.161 -1.1869 1.37049 0
M  V30 1829 C 193.209 1.87948 3.07746 0
M  V30 1830 O 192.313 1.18427 3.9503 0
M  V30 1831 H 191.654 0.409867 0.522403 0
M  V30 1832 H 194.184 1.69379 1.1477 0
M  V30 1833 H 194.194 1.95701 3.58001 0
M  V30 1834 H 192.869 2.92573 2.95591 0
M  V30 1835 H 191.446 1.18811 3.53466 0
M  V30 1836 N 193.631 -1.12557 1.10312 0
M  V30 1837 C 194.879 -1.83675 0.843091 0
M  V30 1838 C 195.2 -1.84435 -0.633131 0
M  V30 1839 O 194.47 -1.30657 -1.45964 0
M  V30 1840 H 193.05 -0.680138 0.308904 0
M  V30 1841 H 195.712 -1.36301 1.39313 0
M  V30 1842 H 194.808 -2.87908 1.2048 0
M  V30 1843 N 195.109 -0.891671 -1.2995 0
M  V30 1844 C 196.041 -0.320695 -2.26945 0
M  V30 1845 C 197.054 0.528497 -1.53983 0
M  V30 1846 O 198.243 0.346959 -1.75096 0
M  V30 1847 C 195.343 0.562066 -3.34207 0
M  V30 1848 C 194.516 -0.259576 -4.36629 0
M  V30 1849 C 193.575 0.554739 -5.23268 0
M  V30 1850 O 192.601 -0.0249311 -5.69195 0
M  V30 1851 N 193.803 1.8625 -5.4981 0
M  V30 1852 H 196.568 -1.15432 -2.76578 0
M  V30 1853 H 194.129 -0.755336 -1.432 0
M  V30 1854 H 196.121 1.11304 -3.89093 0
M  V30 1855 H 194.691 1.29637 -2.84452 0
M  V30 1856 H 193.911 -0.991986 -3.81514 0
M  V30 1857 H 195.199 -0.822564 -5.02107 0
M  V30 1858 H 194.597 2.35628 -5.14292 0
M  V30 1859 H 193.154 2.36078 -6.07545 0
M  V30 1860 N 196.587 1.43421 -0.653314 0
M  V30 1861 C 197.497 2.34568 0.0388565 0
M  V30 1862 C 198.513 1.53888 0.81207 0
M  V30 1863 O 199.689 1.86539 0.759294 0
M  V30 1864 C 196.754 3.32167 0.993269 0
M  V30 1865 C 195.815 4.28751 0.216977 0
M  V30 1866 C 195.048 5.21688 1.12593 0
M  V30 1867 O 195.271 5.19052 2.36519 0
M  V30 1868 O 194.205 5.98919 0.598284 0
M  V30 1869 H 198.031 2.95251 -0.711386 0
M  V30 1870 H 195.616 1.43564 -0.413502 0
M  V30 1871 H 197.498 3.92183 1.54176 0
M  V30 1872 H 196.173 2.73987 1.72374 0
M  V30 1873 H 195.08 3.72215 -0.375101 0
M  V30 1874 H 196.413 4.89913 -0.473924 0
M  V30 1875 N 198.065 0.39524 1.52563 0
M  V30 1876 C 199.476 -0.0774719 1.86539 0
M  V30 1877 C 199.827 -1.45641 1.31466 0
M  V30 1878 O 198.952 -2.06459 0.648367 0
M  V30 1879 C 199.547 -0.147356 3.38479 0
M  V30 1880 C 198.106 -0.564373 3.72145 0
M  V30 1881 C 197.253 0.269919 2.75983 0
M  V30 1882 H 200.204 0.612876 1.46388 0
M  V30 1883 H 200.225 -0.965343 3.68051 0
M  V30 1884 H 199.737 0.856387 3.78534 0
M  V30 1885 H 197.838 -1.57527 3.37663 0
M  V30 1886 H 197.951 -0.318402 4.78041 0
M  V30 1887 H 196.315 -0.265696 2.5331 0
M  V30 1888 H 197.098 1.27175 3.18875 0
M  V30 1889 N 199.544 -1.57102 0.125237 0
M  V30 1890 C 200.507 -2.14471 -0.80838 0
M  V30 1891 C 201.507 -1.0811 -1.19033 0
M  V30 1892 O 202.697 -1.33856 -1.11482 0
M  V30 1893 C 199.829 -2.69005 -2.09402 0
M  V30 1894 H 201.022 -2.98297 -0.309696 0
M  V30 1895 H 198.575 -1.55807 -0.124051 0
M  V30 1896 H 199.31 -1.88785 -2.63687 0
M  V30 1897 H 199.095 -3.46799 -1.82957 0
M  V30 1898 H 200.585 -3.13278 -2.76128 0
M  V30 1899 N 201.022 0.148545 -1.56898 0
M  V30 1900 C 202.247 0.880385 -1.87787 0
M  V30 1901 C 202.672 1.74018 -0.714093 0
M  V30 1902 O 202.03 1.78153 0.336343 0
M  V30 1903 C 202.078 1.71422 -3.17249 0
M  V30 1904 O 201.182 2.8183 -3.01074 0
M  V30 1905 H 200.523 0.245301 -0.617028 0
M  V30 1906 H 203.053 0.139826 -2.04122 0
M  V30 1907 H 203.063 2.10954 -3.49231 0
M  V30 1908 H 201.738 1.08284 -4.01556 0
M  V30 1909 H 200.315 2.45715 -2.80497 0
M  V30 1910 N 202.5 1.5196 0.417844 0
M  V30 1911 C 203.916 1.40569 0.755816 0
M  V30 1912 C 204.116 0.503316 1.95113 0
M  V30 1913 O 203.172 -0.0341925 2.52477 0
M  V30 1914 C 204.485 2.82947 1.01791 0
M  V30 1915 C 206.033 2.92231 1.12116 0
M  V30 1916 C 206.508 4.35559 1.41608 0
M  V30 1917 N 207.999 4.38753 1.48491 0
M  V30 1918 C 208.734 5.46705 1.7292 0
M  V30 1919 N 208.23 6.64788 1.95011 0
M  V30 1920 N 210.023 5.34209 1.74863 0
M  V30 1921 H 202.174 2.09168 -0.369098 0
M  V30 1922 H 204.437 0.942409 -0.102809 0
M  V30 1923 H 204.143 3.5106 0.212081 0
M  V30 1924 H 204.017 3.23462 1.94042 0
M  V30 1925 H 206.404 2.24304 1.9176 0
M  V30 1926 H 206.485 2.55185 0.177225 0
M  V30 1927 H 206.129 5.04042 0.624848 0
M  V30 1928 H 206.059 4.70133 2.37239 0
M  V30 1929 H 208.55 3.5363 1.33244 0
M  V30 1930 H 208.863 7.42845 2.13076 0
M  V30 1931 H 207.208 6.67869 1.92293 0
M  V30 1932 H 210.399 4.40937 1.57137 0
M  V30 1933 H 210.572 6.18415 1.93563 0
M  V30 1934 N 203.978 -0.674533 1.42435 0
M  V30 1935 C 205.226 -1.43175 1.42637 0
M  V30 1936 C 205.547 -1.94951 0.0438992 0
M  V30 1937 O 204.817 -1.7308 -0.917607 0
M  V30 1938 H 203.397 -0.531307 0.525092 0
M  V30 1939 H 206.059 -0.797006 1.77859 0
M  V30 1940 H 205.155 -2.28463 2.12629 0
M  V30 1941 N 205.456 -1.28612 -0.910864 0
M  V30 1942 C 206.388 -1.08589 -2.01844 0
M  V30 1943 C 207.401 -0.0367419 -1.62759 0
M  V30 1944 O 208.59 -0.280101 -1.76289 0
M  V30 1945 C 205.69 -0.628626 -3.33019 0
M  V30 1946 C 204.863 -1.75382 -4.00699 0
M  V30 1947 C 203.922 -1.28945 -5.10156 0
M  V30 1948 O 202.948 -1.9922 -5.33198 0
M  V30 1949 N 204.15 -0.154224 -5.80295 0
M  V30 1950 H 206.915 -2.03973 -2.19579 0
M  V30 1951 H 204.476 -1.20403 -1.08234 0
M  V30 1952 H 206.468 -0.301508 -4.03575 0
M  V30 1953 H 205.038 0.232451 -3.11735 0
M  V30 1954 H 204.258 -2.25039 -3.23653 0
M  V30 1955 H 205.546 -2.50854 -4.42662 0
M  V30 1956 H 204.944 0.43194 -5.64049 0
M  V30 1957 H 203.501 0.113599 -6.51701 0
M  V30 1958 N 206.934 1.1197 -1.10907 0
M  V30 1959 C 208.182 1.83225 -0.852819 0
M  V30 1960 C 208.503 1.84769 0.623341 0
M  V30 1961 O 207.773 1.3143 1.45269 0
M  V30 1962 H 206.353 0.67849 -0.312507 0
M  V30 1963 H 209.015 1.3556 -1.40033 0
M  V30 1964 H 208.111 2.87265 -1.22005 0
M  V30 1965 N 208.412 0.89855 1.29475 0
M  V30 1966 C 209.344 0.332726 2.26772 0
M  V30 1967 C 210.357 -0.520323 1.54261 0
M  V30 1968 O 211.546 -0.337668 1.75277 0
M  V30 1969 C 208.646 -0.544334 3.345 0
M  V30 1970 C 207.819 0.282728 4.36485 0
M  V30 1971 C 206.878 -0.526982 5.23555 0
M  V30 1972 O 205.904 0.0551165 5.69173 0
M  V30 1973 N 207.106 -1.83331 5.5079 0
M  V30 1974 H 209.871 1.16897 2.75962 0
M  V30 1975 H 207.432 0.762919 1.42798 0
M  V30 1976 H 209.424 -1.09239 3.89678 0
M  V30 1977 H 207.994 -1.28127 2.85136 0
M  V30 1978 H 207.214 1.01221 3.80983 0
M  V30 1979 H 208.502 0.84918 5.01664 0
M  V30 1980 H 207.9 -2.32898 5.15534 0
M  V30 1981 H 206.457 -2.32852 6.08788 0
M  V30 1982 N 209.89 -1.43072 0.660911 0
M  V30 1983 C 211.115 -2.06584 0.183805 0
M  V30 1984 C 211.54 -1.49257 -1.14472 0
M  V30 1985 O 210.898 -0.605528 -1.70889 0
M  V30 1986 C 210.946 -3.60418 0.114434 0
M  V30 1987 O 210.05 -4.01981 -0.921137 0
M  V30 1988 H 209.391 -0.656669 0.0983994 0
M  V30 1989 H 211.921 -1.83447 0.906006 0
M  V30 1990 H 211.931 -4.07946 -0.0663394 0
M  V30 1991 H 210.606 -4.01519 1.08422 0
M  V30 1992 H 209.183 -3.66029 -0.71253 0
M  V30 1993 N 211.368 -0.403325 -1.52352 0
M  V30 1994 C 212.3 0.4603 -2.2453 0
M  V30 1995 C 213.313 1.01505 -1.27282 0
M  V30 1996 O 214.502 0.914982 -1.53266 0
M  V30 1997 C 211.602 1.65208 -2.95905 0
M  V30 1998 C 210.775 1.22224 -4.19976 0
M  V30 1999 C 209.834 2.28028 -4.74226 0
M  V30 2000 O 208.86 1.88857 -5.36956 0
M  V30 2001 N 210.062 3.6012 -4.55295 0
M  V30 2002 H 212.827 -0.158156 -2.99282 0
M  V30 2003 H 210.388 -0.230402 -1.60252 0
M  V30 2004 H 212.38 2.35541 -3.29093 0
M  V30 2005 H 210.95 2.17658 -2.24374 0
M  V30 2006 H 210.17 0.34725 -3.92668 0
M  V30 2007 H 211.458 0.911924 -5.00561 0
M  V30 2008 H 210.856 3.94698 -4.05253 0
M  V30 2009 H 209.413 4.26447 -4.92936 0
M  V30 2010 N 212.846 1.57033 -0.133567 0
M  V30 2011 C 214.094 1.953 0.519848 0
M  V30 2012 C 214.415 1.01866 1.66278 0
M  V30 2013 O 213.685 0.0776513 1.95746 0
M  V30 2014 H 212.265 0.721091 0.195032 0
M  V30 2015 H 214.927 1.93809 -0.205921 0
M  V30 2016 H 214.023 2.98695 0.904854 0
M  V30 2017 N 214.325 -0.140222 1.56975 0
M  V30 2018 C 215.257 -1.19818 1.95388 0
M  V30 2019 C 216.27 -1.38816 0.850525 0
M  V30 2020 O 217.459 -1.38267 1.12891 0
M  V30 2021 C 214.559 -2.56189 2.21857 0
M  V30 2022 C 213.732 -2.58077 3.5315 0
M  V30 2023 C 212.791 -3.76037 3.6808 0
M  V30 2024 O 211.817 -3.60598 4.40406 0
M  V30 2025 N 213.019 -4.93763 3.05251 0
M  V30 2026 H 215.784 -0.871609 2.86746 0
M  V30 2027 H 213.345 -0.32972 1.58507 0
M  V30 2028 H 215.337 -3.33623 2.2908 0
M  V30 2029 H 213.907 -2.81111 1.36731 0
M  V30 2030 H 213.127 -1.6651 3.57307 0
M  V30 2031 H 214.415 -2.56377 4.39486 0
M  V30 2032 H 213.813 -5.09209 2.46419 0
M  V30 2033 H 212.37 -5.68949 3.18026 0
M  V30 2034 N 215.803 -1.52179 -0.40978 0
M  V30 2035 C 217.028 -1.70347 -1.18308 0
M  V30 2036 C 217.453 -0.411887 -1.83535 0
M  V30 2037 O 216.811 0.630587 -1.6998 0
M  V30 2038 C 216.859 -2.83977 -2.22238 0
M  V30 2039 O 215.963 -2.495 -3.28365 0
M  V30 2040 H 215.304 -0.567103 -0.345384 0
M  V30 2041 H 217.834 -1.98879 -0.480445 0
M  V30 2042 H 217.844 -3.0887 -2.66577 0
M  V30 2043 H 216.519 -3.77685 -1.74146 0
M  V30 2044 H 215.096 -2.35277 -2.89308 0
M  V30 2045 N 217.281 0.66697 -1.42791 0
M  V30 2046 C 218.213 1.7925 -1.42836 0
M  V30 2047 C 219.226 1.59496 -0.326333 0
M  V30 2048 O 220.415 1.6847 -0.589916 0
M  V30 2049 C 217.515 3.16476 -1.21229 0
M  V30 2050 C 216.688 3.63011 -2.44013 0
M  V30 2051 C 215.747 4.78993 -2.17834 0
M  V30 2052 O 214.773 4.89137 -2.91091 0
M  V30 2053 N 215.975 5.68248 -1.18635 0
M  V30 2054 H 218.74 1.79695 -2.39854 0
M  V30 2055 H 216.301 0.850338 -1.37771 0
M  V30 2056 H 218.293 3.91734 -1.01621 0
M  V30 2057 H 216.863 3.10884 -0.32706 0
M  V30 2058 H 216.083 2.78346 -2.79137 0
M  V30 2059 H 217.371 3.90845 -3.25757 0
M  V30 2060 H 216.769 5.62712 -0.580615 0
M  V30 2061 H 215.326 6.43285 -1.05013 0
M  V30 2062 N 218.759 1.29093 0.90403 0
M  V30 2063 C 220.007 1.16583 1.65085 0
M  V30 2064 C 220.328 -0.283933 1.92922 0
M  V30 2065 O 219.598 -1.19509 1.55224 0
M  V30 2066 H 218.178 0.428467 0.611903 0
M  V30 2067 H 220.84 1.61959 1.08422 0
M  V30 2068 H 219.936 1.71266 2.6091 0
M  V30 2069 N 220.237 -1.11381 1.11499 0
M  V30 2070 C 221.648 -1.6465 0.880191 0
M  V30 2071 C 221.999 -1.87199 -0.587434 0
M  V30 2072 O 221.124 -1.60667 -1.44966 0
M  V30 2073 C 221.719 -2.99105 1.59128 0
M  V30 2074 C 220.278 -3.49279 1.40289 0
M  V30 2075 C 219.425 -2.24077 1.63354 0
M  V30 2076 H 222.376 -0.950123 1.27116 0
M  V30 2077 H 222.397 -3.66107 1.03664 0
M  V30 2078 H 221.909 -2.82661 2.65941 0
M  V30 2079 H 220.01 -3.70887 0.356888 0
M  V30 2080 H 220.123 -4.2803 2.15238 0
M  V30 2081 H 218.487 -2.31733 1.05698 0
M  V30 2082 H 219.27 -2.10175 2.71443 0
M  V30 2083 N 221.715 -0.905404 -1.28997 0
M  V30 2084 C 222.963 -0.533192 -1.9494 0
M  V30 2085 C 223.284 0.924618 -1.71685 0
M  V30 2086 O 222.554 1.65268 -1.05183 0
M  V30 2087 H 221.134 -0.194194 -0.721317 0
M  V30 2088 H 223.796 -1.15294 -1.57141 0
M  V30 2089 H 222.892 -0.72059 -3.03667 0
M  V30 2090 N 223.193 1.4272 -0.668489 0
M  V30 2091 C 224.418 2.06484 -0.194758 0
M  V30 2092 C 224.843 1.49862 1.13679 0
M  V30 2093 O 224.201 0.614582 1.70565 0
M  V30 2094 C 224.249 3.60353 -0.133546 0
M  V30 2095 O 223.353 4.02464 0.899806 0
M  V30 2096 H 222.694 0.656137 -0.10188 0
M  V30 2097 H 225.224 1.82964 -0.915722 0
M  V30 2098 H 225.234 4.07976 0.0447041 0
M  V30 2099 H 223.909 4.00938 -1.1055 0
M  V30 2100 H 222.486 3.66402 0.693109 0
M  V30 2101 N 224.671 0.411399 1.52136 0
M  V30 2102 C 225.919 -0.163322 2.01439 0
M  V30 2103 C 226.24 -1.45453 1.29879 0
M  V30 2104 O 225.51 -1.91225 0.4254 0
M  V30 2105 H 224.09 -0.0633447 0.744309 0
M  V30 2106 H 226.752 0.548161 1.87033 0
M  V30 2107 H 225.848 -0.357817 3.10042 0
M  V30 2108 N 226.149 -1.5696 0.141893 0
M  V30 2109 C 227.426 -1.87553 -0.555281 0
M  V30 2110 C 227.806 -1.04699 -1.83306 0
M  V30 2111 O 227.154 -0.132346 -2.28116 0
M  V30 2112 C 227.364 -3.39093 -0.825664 0
M  V30 2113 C 228.712 -4.08199 -1.16869 0
M  V30 2114 O 229.736 -3.44242 -0.915185 0
M  V30 2115 O 228.595 -5.21139 -1.6455 0
M  V30 2116 H 225.689 -0.777188 -0.282679 0
M  V30 2117 H 228.235 -1.68763 0.17812 0
M  V30 2118 H 227.007 -3.91221 0.0788633 0
M  V30 2119 H 226.63 -3.63393 -1.61343 0
M  V30 2120 N 227.627 0.131896 -1.57047 0
M  V30 2121 C 228.855 0.856461 -1.88341 0
M  V30 2122 C 229.27 1.74042 -0.731757 0
M  V30 2123 O 228.627 1.80051 0.297945 0
M  V30 2124 C 228.678 1.70064 -3.18999 0
M  V30 2125 O 228.399 0.852278 -4.2973 0
M  V30 2126 C 229.9 2.53148 -3.63911 0
M  V30 2127 H 227.12 0.246885 -0.62393 0
M  V30 2128 H 229.664 0.120152 -2.04147 0
M  V30 2129 H 227.819 2.38984 -3.04902 0
M  V30 2130 H 228.233 1.43329 -5.04537 0
M  V30 2131 H 229.707 3.07931 -4.58129 0
M  V30 2132 H 230.184 3.29901 -2.89935 0
M  V30 2133 H 230.79 1.89492 -3.80753 0
M  V30 2134 N 229.106 1.52395 0.401703 0
M  V30 2135 C 230.336 1.70429 1.1678 0
M  V30 2136 C 230.744 0.416702 1.84554 0
M  V30 2137 O 230.087 -0.617697 1.73003 0
M  V30 2138 C 230.149 2.78919 2.26814 0
M  V30 2139 C 229.813 4.20437 1.79113 0
M  V30 2140 C 230.81 5.04028 1.27482 0
M  V30 2141 C 228.495 4.66704 1.85722 0
M  V30 2142 C 230.489 6.31961 0.830913 0
M  V30 2143 C 228.176 5.94625 1.40942 0
M  V30 2144 C 229.174 6.77082 0.897128 0
M  V30 2145 O 228.862 8.02607 0.455822 0
M  V30 2146 H 228.594 0.574272 0.356634 0
M  V30 2147 H 231.148 1.99767 0.477724 0
M  V30 2148 H 229.378 2.44973 2.99207 0
M  V30 2149 H 231.067 2.8548 2.88541 0
M  V30 2150 H 231.833 4.69471 1.21744 0
M  V30 2151 H 227.712 4.0262 2.24539 0
M  V30 2152 H 231.256 6.96271 0.430368 0
M  V30 2153 H 227.153 6.28688 1.46362 0
M  V30 2154 H 227.921 8.16453 0.578457 0
M  V30 2155 N 230.584 -0.659388 1.43143 0
M  V30 2156 C 232 -0.974337 1.26407 0
M  V30 2157 C 232.2 -2.007 0.179341 0
M  V30 2158 O 231.256 -2.4856 -0.444295 0
M  V30 2159 C 232.569 -1.46447 2.62628 0
M  V30 2160 C 234.117 -1.58144 2.7011 0
M  V30 2161 C 234.592 -2.1055 4.06734 0
M  V30 2162 N 236.083 -2.17861 4.08767 0
M  V30 2163 C 236.818 -2.59519 5.1131 0
M  V30 2164 N 236.314 -3.00518 6.24228 0
M  V30 2165 N 238.107 -2.59404 4.98664 0
M  V30 2166 H 230.258 0.0240528 2.12386 0
M  V30 2167 H 232.521 -0.0518065 0.946583 0
M  V30 2168 H 232.227 -0.780123 3.42939 0
M  V30 2169 H 232.101 -2.44058 2.87603 0
M  V30 2170 H 234.488 -2.25682 1.90136 0
M  V30 2171 H 234.569 -0.589828 2.48907 0
M  V30 2172 H 234.213 -1.43616 4.87172 0
M  V30 2173 H 234.143 -3.10531 4.25298 0
M  V30 2174 H 236.634 -1.88975 3.27257 0
M  V30 2175 H 236.947 -3.31036 6.98309 0
M  V30 2176 H 235.292 -2.98337 6.2771 0
M  V30 2177 H 238.483 -2.26747 4.09516 0
M  V30 2178 H 238.656 -2.91548 5.78709 0
M  V30 2179 N 232.062 -1.29571 -0.897171 0
M  V30 2180 C 233.473 -1.15964 -1.46319 0
M  V30 2181 C 233.824 0.244267 -1.94674 0
M  V30 2182 O 232.949 1.13998 -1.83939 0
M  V30 2183 C 233.544 -2.09906 -2.65942 0
M  V30 2184 C 232.103 -2.00314 -3.18671 0
M  V30 2185 C 231.25 -2.00687 -1.91363 0
M  V30 2186 H 234.201 -1.42019 -0.708268 0
M  V30 2187 H 234.222 -1.67276 -3.41759 0
M  V30 2188 H 233.734 -3.12075 -2.30718 0
M  V30 2189 H 231.835 -1.01242 -3.58582 0
M  V30 2190 H 231.948 -2.88102 -3.82798 0
M  V30 2191 H 230.312 -1.45319 -2.09175 0
M  V30 2192 H 231.095 -3.04566 -1.58413 0
M  V30 2193 N 233.54 1.10788 -1.12088 0
M  V30 2194 C 234.487 2.17025 -0.785407 0
M  V30 2195 C 235.457 1.64265 0.246191 0
M  V30 2196 O 236.642 1.90412 0.121584 0
M  V30 2197 C 233.782 3.44249 -0.242177 0
M  V30 2198 C 232.895 4.1098 -1.33115 0
M  V30 2199 C 232.03 5.25911 -0.747741 0
M  V30 2200 C 231.069 5.84538 -1.81609 0
M  V30 2201 N 230.206 6.90853 -1.25167 0
M  V30 2202 H 235.046 2.45066 -1.69548 0
M  V30 2203 H 232.583 1.20297 -0.846582 0
M  V30 2204 H 234.541 4.17101 0.0908026 0
M  V30 2205 H 233.171 3.16571 0.631072 0
M  V30 2206 H 232.223 3.36133 -1.78097 0
M  V30 2207 H 233.535 4.50601 -2.13917 0
M  V30 2208 H 232.689 6.056 -0.365216 0
M  V30 2209 H 231.428 4.87614 0.0915188 0
M  V30 2210 H 230.433 5.03522 -2.20785 0
M  V30 2211 H 231.658 6.249 -2.6585 0
M  V30 2212 H 229.604 6.54562 -0.434174 0
M  V30 2213 H 229.521 7.29166 -1.99633 0
M  V30 2214 H 230.789 7.7433 -0.896259 0
M  V30 2215 N 235.018 0.912232 1.28515 0
M  V30 2216 C 236.434 0.610159 1.47476 0
M  V30 2217 C 236.634 -0.844955 1.82928 0
M  V30 2218 O 235.69 -1.62416 1.93332 0
M  V30 2219 C 237.003 1.54675 2.57868 0
M  V30 2220 C 238.551 1.55331 2.71738 0
M  V30 2221 C 239.026 2.47649 3.85272 0
M  V30 2222 N 240.517 2.45767 3.92623 0
M  V30 2223 C 241.252 3.13896 4.79851 0
M  V30 2224 N 240.748 3.9135 5.71679 0
M  V30 2225 N 242.541 3.02991 4.73448 0
M  V30 2226 H 234.692 1.85318 1.03783 0
M  V30 2227 H 236.955 0.794777 0.516753 0
M  V30 2228 H 236.661 2.5841 2.38574 0
M  V30 2229 H 236.535 1.27671 3.54937 0
M  V30 2230 H 238.922 0.52335 2.90422 0
M  V30 2231 H 239.003 1.86378 1.75205 0
M  V30 2232 H 238.647 3.50745 3.67342 0
M  V30 2233 H 238.577 2.13904 4.81199 0
M  V30 2234 H 241.068 1.89503 3.26951 0
M  V30 2235 H 241.381 4.40359 6.35062 0
M  V30 2236 H 239.726 3.95455 5.71524 0
M  V30 2237 H 242.917 2.41987 4.007 0
M  V30 2238 H 243.09 3.5636 5.41213 0
M  V30 2239 N 236.496 -1.42363 0.676048 0
M  V30 2240 C 237.907 -1.84649 0.275948 0
M  V30 2241 C 238.258 -1.56588 -1.18214 0
M  V30 2242 O 237.383 -1.02634 -1.90513 0
M  V30 2243 C 237.978 -3.35178 0.494053 0
M  V30 2244 C 236.537 -3.76109 0.148061 0
M  V30 2245 C 235.684 -2.65931 0.785891 0
M  V30 2246 H 238.635 -1.32192 0.878121 0
M  V30 2247 H 238.656 -3.79655 -0.25343 0
M  V30 2248 H 238.168 -3.55571 1.55535 0
M  V30 2249 H 236.269 -3.61323 -0.909742 0
M  V30 2250 H 236.382 -4.7546 0.589454 0
M  V30 2251 H 234.746 -2.53773 0.217113 0
M  V30 2252 H 235.529 -2.89146 1.85067 0
M  V30 2253 N 237.974 -0.419461 -1.51915 0
M  V30 2254 C 239.202 0.152136 -2.0634 0
M  V30 2255 C 239.617 1.37988 -1.28859 0
M  V30 2256 O 238.974 1.79243 -0.343232 0
M  V30 2257 C 239.025 0.492266 -3.58133 0
M  V30 2258 O 238.746 -0.686736 -4.32684 0
M  V30 2259 C 240.247 1.11648 -4.2901 0
M  V30 2260 H 237.467 0.0158325 -0.670813 0
M  V30 2261 H 240.011 -0.593394 -1.95702 0
M  V30 2262 H 238.166 1.18769 -3.68745 0
M  V30 2263 H 238.58 -0.400341 -5.2297 0
M  V30 2264 H 240.054 1.3046 -5.36362 0
M  V30 2265 H 240.531 2.09251 -3.86148 0
M  V30 2266 H 241.137 0.460958 -4.22795 0
M  V30 2267 N 239.452 1.56882 -0.150215 0
M  V30 2268 C 240.68 2.00593 0.506948 0
M  V30 2269 C 241.095 1.03033 1.58208 0
M  V30 2270 O 240.452 0.0278396 1.82479 0
M  V30 2271 C 240.503 3.44209 1.10465 0
M  V30 2272 O 240.224 4.3804 0.0724636 0
M  V30 2273 C 241.725 4.03214 1.84211 0
M  V30 2274 H 238.945 0.65795 0.13169 0
M  V30 2275 H 241.489 2.03018 -0.245743 0
M  V30 2276 H 239.644 3.42625 1.80795 0
M  V30 2277 H 240.058 5.22007 0.510793 0
M  V30 2278 H 241.532 5.0569 2.21318 0
M  V30 2279 H 242.009 3.44107 2.72923 0
M  V30 2280 H 242.615 4.08437 1.18572 0
M  V30 2281 N 240.93 -0.123565 1.57115 0
M  V30 2282 C 241.86 -1.15309 2.03042 0
M  V30 2283 C 242.841 -1.43454 0.914061 0
M  V30 2284 O 244.026 -1.53973 1.18347 0
M  V30 2285 C 241.156 -2.48043 2.43089 0
M  V30 2286 C 240.11 -2.3437 3.58127 0
M  V30 2287 C 239.436 -3.72026 3.84059 0
M  V30 2288 C 240.736 -1.80804 4.90007 0
M  V30 2289 H 242.43 -0.771102 2.893 0
M  V30 2290 H 239.976 -0.369479 1.39179 0
M  V30 2291 H 241.929 -3.20311 2.73823 0
M  V30 2292 H 240.653 -2.88122 1.53796 0
M  V30 2293 H 239.312 -1.64551 3.27595 0
M  V30 2294 H 238.96 -4.09582 2.91979 0
M  V30 2295 H 238.66 -3.63732 4.6149 0
M  V30 2296 H 240.184 -4.45806 4.1724 0
M  V30 2297 H 241.598 -2.42886 5.19307 0
M  V30 2298 H 239.995 -1.83343 5.71407 0
M  V30 2299 H 241.065 -0.76528 4.78823 0
M  V30 2300 N 242.408 -1.52605 -0.393616 0
M  V30 2301 C 243.356 -1.77688 -1.50099 0
M  V30 2302 C 244.35 -0.644615 -1.56656 0
M  V30 2303 O 245.556 -0.826997 -1.59877 0
M  V30 2304 H 241.931 -0.562159 -0.499481 0
M  V30 2305 H 243.902 -2.7043 -1.26135 0
M  V30 2306 C 242.651 -1.95858 -2.87289 0
M  V30 2307 H 241.974 -2.8241 -2.82992 0
M  V30 2308 H 243.414 -2.174 -3.64024 0
M  V30 2309 C 241.873 -0.729848 -3.28899 0
M  V30 2310 O 242.403 0.0949217 -4.01588 0
M  V30 2311 N 240.609 -0.561283 -2.85128 0
M  V30 2312 H 240.156 -1.23357 -2.26143 0
M  V30 2313 H 240.114 0.2595 -3.13327 0
M  V30 2314 N 243.887 0.651787 -1.4349 0
M  V30 2315 C 244.817 1.77621 -1.51569 0
M  V30 2316 C 245.798 1.66022 -0.370253 0
M  V30 2317 O 246.983 1.85095 -0.587658 0
M  V30 2318 C 244.113 3.16056 -1.43966 0
M  V30 2319 C 243.067 3.4242 -2.56774 0
M  V30 2320 C 242.393 4.8067 -2.34223 0
M  V30 2321 C 243.693 3.37023 -3.99015 0
M  V30 2322 H 245.387 1.71117 -2.45681 0
M  V30 2323 H 242.933 0.821825 -1.18246 0
M  V30 2324 H 244.886 3.94472 -1.48221 0
M  V30 2325 H 243.61 3.23293 -0.463586 0
M  V30 2326 H 242.269 2.66375 -2.51873 0
M  V30 2327 H 241.917 4.84585 -1.34856 0
M  V30 2328 H 241.617 4.9927 -3.09844 0
M  V30 2329 H 243.141 5.61342 -2.40265 0
M  V30 2330 H 244.555 4.05374 -4.05395 0
M  V30 2331 H 242.952 3.67159 -4.74673 0
M  V30 2332 H 244.022 2.3518 -4.2405 0
M  V30 2333 N 245.365 1.30045 0.890287 0
M  V30 2334 C 246.612 1.18561 1.64163 0
M  V30 2335 C 246.94 -0.260852 1.92743 0
M  V30 2336 O 246.195 -1.20376 1.54299 0
M  V30 2337 C 246.494 1.95409 2.99249 0
M  V30 2338 C 246.16 3.45066 2.90242 0
M  V30 2339 C 244.822 3.85878 2.87492 0
M  V30 2340 C 247.174 4.4039 2.78758 0
M  V30 2341 C 244.502 5.20314 2.7109 0
M  V30 2342 C 246.854 5.74928 2.63894 0
M  V30 2343 C 245.518 6.14986 2.59516 0
M  V30 2344 H 244.788 0.433846 0.600715 0
M  V30 2345 H 247.435 1.61088 1.03552 0
M  V30 2346 H 245.74 1.45501 3.63781 0
M  V30 2347 H 247.437 1.8392 3.56334 0
M  V30 2348 H 244.027 3.12631 2.93189 0
M  V30 2349 H 248.211 4.09806 2.79952 0
M  V30 2350 H 243.467 5.50449 2.66112 0
M  V30 2351 H 247.641 6.48434 2.53981 0
M  V30 2352 H 245.268 7.19104 2.46565 0
M  V30 2353 N 246.843 -1.10192 1.12674 0
M  V30 2354 C 248.254 -1.63707 0.897604 0
M  V30 2355 C 248.605 -1.87812 -0.567546 0
M  V30 2356 O 247.73 -1.62196 -1.43253 0
M  V30 2357 C 248.325 -2.974 1.62292 0
M  V30 2358 C 246.884 -3.47772 1.43986 0
M  V30 2359 C 246.031 -2.22332 1.65722 0
M  V30 2360 H 248.982 -0.936587 1.28116 0
M  V30 2361 H 249.003 -3.64986 1.07541 0
M  V30 2362 H 248.515 -2.79824 2.68924 0
M  V30 2363 H 246.616 -3.70487 0.396206 0
M  V30 2364 H 246.729 -4.25723 2.19765 0
M  V30 2365 H 245.093 -2.30599 1.08149 0
M  V30 2366 H 245.876 -2.07285 2.73657 0
M  V30 2367 N 248.321 -0.919034 -1.28029 0
M  V30 2368 C 249.253 -0.368762 -2.26214 0
M  V30 2369 C 250.266 0.495716 -1.55069 0
M  V30 2370 O 251.455 0.30974 -1.75792 0
M  V30 2371 C 248.555 0.491049 -3.35324 0
M  V30 2372 C 247.728 -0.352133 -4.3598 0
M  V30 2373 C 246.787 0.443622 -5.24327 0
M  V30 2374 O 245.813 -0.14566 -5.69014 0
M  V30 2375 N 247.015 1.74545 -5.53637 0
M  V30 2376 H 249.78 -1.21273 -2.74068 0
M  V30 2377 H 247.341 -0.785541 -1.41566 0
M  V30 2378 H 249.333 1.03026 -3.91366 0
M  V30 2379 H 247.903 1.23574 -2.87138 0
M  V30 2380 H 247.123 -1.07269 -3.79324 0
M  V30 2381 H 248.411 -0.928883 -5.00249 0
M  V30 2382 H 247.809 2.24666 -5.19174 0
M  V30 2383 H 246.366 2.23138 -6.12416 0
M  V30 2384 N 249.799 1.42003 -0.683588 0
M  V30 2385 C 251.045 2.01712 -0.209825 0
M  V30 2386 C 251.378 1.53968 1.18353 0
M  V30 2387 O 250.653 0.745661 1.79639 0
M  V30 2388 C 250.936 3.59202 -0.254197 0
M  V30 2389 C 250.789 4.17102 -1.68363 0
M  V30 2390 C 252.108 4.38344 0.392709 0
M  V30 2391 H 249.227 0.732891 -0.0777189 0
M  V30 2392 H 251.869 1.68909 -0.87004 0
M  V30 2393 H 250.019 3.87278 0.307954 0
M  V30 2394 H 251.691 3.99946 -2.29871 0
M  V30 2395 H 249.934 3.72597 -2.22157 0
M  V30 2396 H 250.605 5.26249 -1.6663 0
M  V30 2397 H 253.081 4.16011 -0.0859162 0
M  V30 2398 H 251.957 5.47901 0.331063 0
M  V30 2399 H 252.218 4.16887 1.47164 0
M  V30 2400 N 251.277 0.427512 1.51691 0
M  V30 2401 C 252.688 -0.0378867 1.86662 0
M  V30 2402 C 253.039 -1.42819 1.34525 0
M  V30 2403 O 252.164 -2.05037 0.692014 0
M  V30 2404 C 252.759 -0.0755266 3.38716 0
M  V30 2405 C 251.318 -0.485309 3.73258 0
M  V30 2406 C 250.465 0.328399 2.75349 0
M  V30 2407 H 253.416 0.64379 1.45055 0
M  V30 2408 H 253.437 -0.887056 3.70016 0
M  V30 2409 H 252.949 0.936487 3.76632 0
M  V30 2410 H 251.05 -1.50329 3.40928 0
M  V30 2411 H 251.163 -0.21693 4.78609 0
M  V30 2412 H 249.527 -0.211905 2.53817 0
M  V30 2413 H 250.31 1.3391 3.16106 0
M  V30 2414 N 252.755 -1.56801 0.158532 0
M  V30 2415 C 254.171 -1.5837 -0.197774 0
M  V30 2416 C 254.371 -1.17334 -1.63814 0
M  V30 2417 O 253.427 -0.878988 -2.36707 0
M  V30 2418 C 254.74 -3.00615 0.0714459 0
M  V30 2419 C 256.288 -3.12999 0.00864533 0
M  V30 2420 C 256.763 -4.57313 0.250685 0
M  V30 2421 N 258.254 -4.62777 0.198014 0
M  V30 2422 C 258.989 -5.72271 0.359642 0
M  V30 2423 N 258.485 -6.90371 0.579625 0
M  V30 2424 N 260.278 -5.61318 0.296438 0
M  V30 2425 H 252.429 -1.81765 1.09887 0
M  V30 2426 H 254.692 -0.841849 0.435884 0
M  V30 2427 H 254.398 -3.35068 1.06874 0
M  V30 2428 H 254.272 -3.71683 -0.642757 0
M  V30 2429 H 256.659 -2.7838 -0.979217 0
M  V30 2430 H 256.74 -2.44393 0.755359 0
M  V30 2431 H 256.384 -4.92639 1.2357 0
M  V30 2432 H 256.314 -5.24061 -0.516489 0
M  V30 2433 H 258.805 -3.77885 0.0331115 0
M  V30 2434 H 259.118 -7.69689 0.69275 0
M  V30 2435 H 257.463 -6.92264 0.616087 0
M  V30 2436 H 260.654 -4.67932 0.125258 0
M  V30 2437 H 260.827 -6.46599 0.425831 0
M  V30 2438 N 254.233 0.115231 -1.57178 0
M  V30 2439 C 255.458 0.840354 -1.89612 0
M  V30 2440 C 255.883 1.72464 -0.750845 0
M  V30 2441 O 255.241 1.78826 0.298478 0
M  V30 2442 C 255.289 1.64654 -3.20814 0
M  V30 2443 O 254.393 2.7538 -3.06985 0
M  V30 2444 H 253.734 0.232158 -0.622092 0
M  V30 2445 H 256.264 0.0964977 -2.04372 0
M  V30 2446 H 256.274 2.03499 -3.53627 0
M  V30 2447 H 254.949 0.997416 -4.03763 0
M  V30 2448 H 253.526 2.3971 -2.85646 0
M  V30 2449 N 255.711 1.52812 0.385517 0
M  V30 2450 C 256.643 1.74096 1.49074 0
M  V30 2451 C 257.656 0.621462 1.50472 0
M  V30 2452 O 258.845 0.897245 1.54311 0
M  V30 2453 C 255.945 1.78774 2.87911 0
M  V30 2454 C 255.118 3.08134 3.10439 0
M  V30 2455 C 254.177 3.04313 4.29278 0
M  V30 2456 O 253.203 3.78168 4.25415 0
M  V30 2457 N 254.405 2.23741 5.35649 0
M  V30 2458 H 257.17 2.69455 1.31202 0
M  V30 2459 H 254.731 1.51343 0.575065 0
M  V30 2460 H 256.723 1.73721 3.65518 0
M  V30 2461 H 255.293 0.907869 2.99126 0
M  V30 2462 H 254.513 3.26649 2.20667 0
M  V30 2463 H 255.801 3.93662 3.22347 0
M  V30 2464 H 255.199 1.63211 5.41645 0
M  V30 2465 H 253.756 2.24524 6.11909 0
M  V30 2466 N 257.189 -0.644168 1.43834 0
M  V30 2467 C 258.466 -1.40188 1.36406 0
M  V30 2468 C 258.846 -2.11094 0.0163124 0
M  V30 2469 O 258.194 -2.05426 -1.00062 0
M  V30 2470 C 258.404 -2.3791 2.55343 0
M  V30 2471 C 259.752 -3.01637 2.98832 0
M  V30 2472 O 260.776 -2.48237 2.55455 0
M  V30 2473 O 259.635 -3.98477 3.74003 0
M  V30 2474 H 256.729 -0.626773 0.539523 0
M  V30 2475 H 259.275 -0.670317 1.559 0
M  V30 2476 H 258.047 -1.84525 3.4506 0
M  V30 2477 H 257.67 -3.18503 2.37995 0
M  V30 2478 N 258.668 -1.30515 -0.883378 0
M  V30 2479 C 259.896 -1.22359 -1.66841 0
M  V30 2480 C 260.311 0.213296 -1.87591 0
M  V30 2481 O 259.668 1.14075 -1.42454 0
M  V30 2482 C 259.719 -1.95011 -3.04389 0
M  V30 2483 O 259.44 -3.3309 -2.84575 0
M  V30 2484 C 260.941 -1.93532 -3.98824 0
M  V30 2485 H 258.161 -0.423371 -0.520575 0
M  V30 2486 H 260.705 -1.72167 -1.10357 0
M  V30 2487 H 258.86 -1.48997 -3.57601 0
M  V30 2488 H 259.274 -3.69907 -3.71846 0
M  V30 2489 H 260.748 -2.48902 -4.92699 0
M  V30 2490 H 261.225 -0.914627 -4.29571 0
M  V30 2491 H 261.831 -2.39364 -3.51547 0
M  V30 2492 N 260.146 1.09593 -1.13257 0
M  V30 2493 C 261.076 2.18214 -0.830946 0
M  V30 2494 C 262.057 1.68812 0.208966 0
M  V30 2495 O 263.242 1.9408 0.0682666 0
M  V30 2496 C 260.372 3.46051 -0.294296 0
M  V30 2497 C 259.326 4.08778 -1.26826 0
M  V30 2498 C 258.652 5.31419 -0.591449 0
M  V30 2499 C 259.952 4.51476 -2.62615 0
M  V30 2500 H 261.646 2.43703 -1.73923 0
M  V30 2501 H 259.192 1.17128 -0.837675 0
M  V30 2502 H 261.145 4.2134 -0.0709606 0
M  V30 2503 H 259.869 3.20079 0.649366 0
M  V30 2504 H 258.528 3.35505 -1.47756 0
M  V30 2505 H 258.176 5.01727 0.357633 0
M  V30 2506 H 257.876 5.74341 -1.24123 0
M  V30 2507 H 259.4 6.09433 -0.377355 0
M  V30 2508 H 260.814 5.17999 -2.45663 0
M  V30 2509 H 259.211 5.05277 -3.23752 0
M  V30 2510 H 260.281 3.63962 -3.20406 0
M  V30 2511 N 261.624 0.925811 1.2754 0
M  V30 2512 C 262.572 0.413897 2.28888 0
M  V30 2513 C 263.566 -0.500779 1.61829 0
M  V30 2514 O 264.772 -0.38069 1.75928 0
M  V30 2515 H 261.147 0.115274 0.743112 0
M  V30 2516 H 263.118 1.28151 2.69481 0
M  V30 2517 C 261.867 -0.319792 3.46226 0
M  V30 2518 H 261.19 0.374846 3.98039 0
M  V30 2519 H 262.63 -0.642435 4.19105 0
M  V30 2520 C 261.089 -1.53209 3.00048 0
M  V30 2521 O 261.619 -2.6309 3.03557 0
M  V30 2522 N 259.825 -1.38326 2.55566 0
M  V30 2523 H 259.372 -0.489292 2.5291 0
M  V30 2524 H 259.33 -2.19564 2.25031 0
M  V30 2525 N 263.102 -1.41638 0.69111 0
M  V30 2526 C 264.05 -2.32597 0.0115199 0
M  V30 2527 C 265.044 -1.5072 -0.773296 0
M  V30 2528 O 266.25 -1.66685 -0.67942 0
M  V30 2529 H 262.625 -0.751849 -0.0150746 0
M  V30 2530 H 264.596 -2.87593 0.795791 0
M  V30 2531 C 263.345 -3.35467 -0.914172 0
M  V30 2532 H 262.668 -3.9852 -0.319687 0
M  V30 2533 H 264.108 -4.01662 -1.35808 0
M  V30 2534 C 262.567 -2.69004 -2.02826 0
M  V30 2535 O 263.097 -2.53444 -3.11655 0
M  V30 2536 N 261.303 -2.2777 -1.80469 0
M  V30 2537 H 260.85 -2.40626 -0.919615 0
M  V30 2538 H 260.808 -1.83635 -2.55197 0
M  V30 2539 N 264.58 -0.43555 -1.51462 0
M  V30 2540 C 265.528 0.391205 -2.29287 0
M  V30 2541 C 266.522 1.02247 -1.35062 0
M  V30 2542 O 267.728 0.957646 -1.52411 0
M  V30 2543 H 264.103 0.144968 -0.737895 0
M  V30 2544 H 266.074 -0.286051 -2.97026 0
M  V30 2545 C 264.823 1.48096 -3.14583 0
M  V30 2546 H 264.146 1.00457 -3.86973 0
M  V30 2547 H 265.586 2.03273 -3.72097 0
M  V30 2548 C 264.045 2.46321 -2.29843 0
M  V30 2549 O 264.575 3.50815 -1.95682 0
M  V30 2550 N 262.781 2.17166 -1.931 0
M  V30 2551 H 262.328 1.32218 -2.21079 0
M  V30 2552 H 262.286 2.83127 -1.36698 0
M  V30 2553 N 266.058 1.56714 -0.166846 0
M  V30 2554 C 267.283 2.01557 0.488833 0
M  V30 2555 C 267.708 1.0463 1.56314 0
M  V30 2556 O 267.066 0.0251304 1.81283 0
M  V30 2557 C 267.114 3.4503 1.04818 0
M  V30 2558 O 266.218 3.51163 2.16236 0
M  V30 2559 H 265.559 0.653516 0.117526 0
M  V30 2560 H 268.089 2.02818 -0.269421 0
M  V30 2561 H 268.099 3.84243 1.37191 0
M  V30 2562 H 266.774 4.15077 0.261572 0
M  V30 2563 H 265.351 3.23807 1.84942 0
M  V30 2564 N 267.536 -0.106894 1.57237 0
M  V30 2565 C 268.466 -1.13148 2.04254 0
M  V30 2566 C 269.447 -1.42476 0.929224 0
M  V30 2567 O 270.632 -1.52709 1.19973 0
M  V30 2568 C 267.762 -2.4545 2.45706 0
M  V30 2569 C 266.716 -2.30558 3.60592 0
M  V30 2570 C 266.042 -3.67931 3.87983 0
M  V30 2571 C 267.342 -1.75597 4.91897 0
M  V30 2572 H 269.036 -0.740374 2.90101 0
M  V30 2573 H 266.582 -0.354696 1.39563 0
M  V30 2574 H 268.535 -3.17389 2.77205 0
M  V30 2575 H 267.259 -2.86475 1.56843 0
M  V30 2576 H 265.918 -1.61067 3.29322 0
M  V30 2577 H 265.566 -4.06462 2.96306 0
M  V30 2578 H 265.266 -3.58817 4.65322 0
M  V30 2579 H 266.79 -4.41356 4.21945 0
M  V30 2580 H 268.204 -2.37364 5.21854 0
M  V30 2581 H 266.601 -1.77272 5.73319 0
M  V30 2582 H 267.671 -0.714451 4.79608 0
M  V30 2583 N 269.014 -1.53014 -0.377408 0
M  V30 2584 C 270.262 -1.6829 -1.11906 0
M  V30 2585 C 270.583 -0.431206 -1.90173 0
M  V30 2586 O 269.853 0.554595 -1.87886 0
M  V30 2587 H 268.433 -0.620371 -0.416112 0
M  V30 2588 H 271.095 -1.90167 -0.426893 0
M  V30 2589 H 270.191 -2.53862 -1.8155 0
M  V30 2590 N 270.492 0.636531 -1.44174 0
M  V30 2591 C 271.439 1.74875 -1.50624 0
M  V30 2592 C 272.409 1.62275 -0.35442 0
M  V30 2593 O 273.594 1.82276 -0.563908 0
M  V30 2594 C 270.734 3.13102 -1.45125 0
M  V30 2595 C 269.847 3.36717 -2.7064 0
M  V30 2596 C 268.982 4.64885 -2.57013 0
M  V30 2597 C 268.021 4.8166 -3.77717 0
M  V30 2598 N 267.158 6.01101 -3.62798 0
M  V30 2599 H 271.998 1.68697 -2.45653 0
M  V30 2600 H 269.535 0.823004 -1.21922 0
M  V30 2601 H 271.493 3.93034 -1.39929 0
M  V30 2602 H 270.123 3.18308 -0.536671 0
M  V30 2603 H 269.175 2.50763 -2.86046 0
M  V30 2604 H 270.487 3.44993 -3.60252 0
M  V30 2605 H 269.641 5.52969 -2.49619 0
M  V30 2606 H 268.38 4.58957 -1.64953 0
M  V30 2607 H 267.385 3.92007 -3.85501 0
M  V30 2608 H 268.61 4.89406 -4.70807 0
M  V30 2609 H 266.556 5.96273 -2.73486 0
M  V30 2610 H 266.473 6.10409 -4.46023 0
M  V30 2611 H 267.741 6.91761 -3.59286 0
M  V30 2612 N 271.97 1.30982 0.876444 0
M  V30 2613 C 272.917 1.18085 1.98304 0
M  V30 2614 C 273.887 0.0682263 1.6596 0
M  V30 2615 O 275.072 0.239937 1.89285 0
M  V30 2616 C 272.212 0.887475 3.33493 0
M  V30 2617 C 271.325 2.08281 3.78475 0
M  V30 2618 C 270.46 1.72678 5.0235 0
M  V30 2619 C 269.499 2.88657 5.39762 0
M  V30 2620 N 268.636 2.53292 6.54819 0
M  V30 2621 H 273.476 2.1275 2.08666 0
M  V30 2622 H 271.013 1.05839 1.02159 0
M  V30 2623 H 272.971 0.697961 4.1132 0
M  V30 2624 H 271.601 -0.022315 3.22792 0
M  V30 2625 H 270.653 2.3833 2.96484 0
M  V30 2626 H 271.965 2.95108 4.02135 0
M  V30 2627 H 271.119 1.50151 5.87826 0
M  V30 2628 H 269.858 0.830327 4.8058 0
M  V30 2629 H 268.863 3.1184 4.52809 0
M  V30 2630 H 270.088 3.79002 5.63502 0
M  V30 2631 H 268.034 1.66163 6.34607 0
M  V30 2632 H 267.951 3.3365 6.7839 0
M  V30 2633 H 269.219 2.34143 7.43503 0
M  V30 2634 N 273.449 -1.08991 1.13837 0
M  V30 2635 C 274.399 -2.1393 0.788535 0
M  V30 2636 C 275.383 -1.59396 -0.219516 0
M  V30 2637 O 276.575 -1.76985 -0.0227557 0
M  V30 2638 C 273.704 -3.42305 0.261147 0
M  V30 2639 C 272.79 -4.03736 1.29837 0
M  V30 2640 N 273.181 -4.39659 2.50067 0
M  V30 2641 C 271.479 -4.30993 1.1472 0
M  V30 2642 C 272.18 -4.88113 3.16419 0
M  V30 2643 N 271.156 -4.85846 2.43832 0
M  V30 2644 H 274.958 -2.39516 1.70322 0
M  V30 2645 H 272.472 -1.26263 1.02134 0
M  V30 2646 H 274.469 -4.16899 -0.0077405 0
M  V30 2647 H 273.129 -3.18172 -0.647805 0
M  V30 2648 H 274.14 -4.30878 2.8734 0
M  V30 2649 H 270.817 -4.16444 0.296773 0
M  V30 2650 H 272.207 -5.25336 4.18894 0
M  V30 2651 N 274.927 -0.932562 -1.27047 0
M  V30 2652 C 276.152 -0.591474 -1.98787 0
M  V30 2653 C 276.577 0.824601 -1.69062 0
M  V30 2654 O 275.935 1.5541 -0.933677 0
M  V30 2655 C 275.983 -0.829808 -3.50922 0
M  V30 2656 O 275.087 0.102266 -4.12273 0
M  V30 2657 H 274.428 -0.227185 -0.623926 0
M  V30 2658 H 276.958 -1.25314 -1.61733 0
M  V30 2659 H 276.968 -0.747292 -4.01098 0
M  V30 2660 H 275.643 -1.86201 -3.7189 0
M  V30 2661 H 274.22 -0.0305761 -3.72887 0
M  V30 2662 N 276.405 1.4127 -0.698611 0
M  V30 2663 C 277.651 2.01979 -0.239972 0
M  V30 2664 C 278.006 1.54353 1.14861 0
M  V30 2665 O 277.299 0.746218 1.76471 0
M  V30 2666 C 277.493 3.56592 -0.240192 0
M  V30 2667 C 277.322 4.19226 -1.62726 0
M  V30 2668 C 276.092 4.53389 -2.23084 0
M  V30 2669 C 278.29 4.45228 -2.57443 0
M  V30 2670 N 276.272 5.01327 -3.54323 0
M  V30 2671 C 277.643 4.94973 -3.73365 0
M  V30 2672 C 279.698 4.27243 -2.55671 0
M  V30 2673 C 278.401 5.28624 -4.878 0
M  V30 2674 C 280.427 4.61985 -3.69221 0
M  V30 2675 C 279.789 5.11904 -4.83873 0
M  V30 2676 H 275.888 0.770561 -0.133269 0
M  V30 2677 H 278.472 1.71767 -0.916748 0
M  V30 2678 H 276.643 3.86271 0.406082 0
M  V30 2679 H 278.375 4.04025 0.23356 0
M  V30 2680 H 275.13 4.39946 -1.75341 0
M  V30 2681 H 275.554 5.29697 -4.21604 0
M  V30 2682 H 280.196 3.87884 -1.68243 0
M  V30 2683 H 277.914 5.66905 -5.75885 0
M  V30 2684 H 281.5 4.49725 -3.69105 0
M  V30 2685 H 280.38 5.38282 -5.70282 0
M  V30 2686 N 277.883 0.443576 1.51229 0
M  V30 2687 C 278.815 -0.400608 2.25672 0
M  V30 2688 C 279.828 -0.980945 1.29928 0
M  V30 2689 O 281.017 -0.874024 1.55638 0
M  V30 2690 C 278.117 -1.57304 3.00181 0
M  V30 2691 C 277.29 -1.11046 4.23069 0
M  V30 2692 C 276.349 -2.15374 4.80105 0
M  V30 2693 O 275.375 -1.74554 5.41774 0
M  V30 2694 N 276.577 -3.47922 4.64683 0
M  V30 2695 H 279.342 0.23745 2.98758 0
M  V30 2696 H 276.903 0.272809 1.59585 0
M  V30 2697 H 278.895 -2.26733 3.35223 0
M  V30 2698 H 277.465 -2.11632 2.30066 0
M  V30 2699 H 276.685 -0.243019 3.9345 0
M  V30 2700 H 277.973 -0.778888 5.02803 0
M  V30 2701 H 277.371 -3.83815 4.15575 0
M  V30 2702 H 275.928 -4.13228 5.0407 0
M  V30 2703 N 279.361 -1.56624 0.175154 0
M  V30 2704 C 280.638 -1.88688 -0.515373 0
M  V30 2705 C 281.018 -1.08564 -1.81044 0
M  V30 2706 O 280.366 -0.180703 -2.27784 0
M  V30 2707 C 280.576 -3.40768 -0.753552 0
M  V30 2708 C 281.924 -4.10587 -1.08184 0
M  V30 2709 O 282.948 -3.46106 -0.841961 0
M  V30 2710 O 281.807 -5.24512 -1.53459 0
M  V30 2711 H 278.901 -0.78301 -0.26613 0
M  V30 2712 H 281.447 -1.68347 0.213877 0
M  V30 2713 H 280.219 -3.90965 0.161829 0
M  V30 2714 H 279.842 -3.66733 -1.53598 0
M  V30 2715 N 280.839 0.0985539 -1.57292 0
M  V30 2716 C 282.255 0.45267 -1.53046 0
M  V30 2717 C 282.455 1.80713 -0.891342 0
M  V30 2718 O 281.511 2.4785 -0.482375 0
M  V30 2719 C 282.824 0.418341 -2.97776 0
M  V30 2720 C 284.372 0.500443 -3.08973 0
M  V30 2721 C 284.847 0.496297 -4.55303 0
M  V30 2722 N 286.338 0.557151 -4.59837 0
M  V30 2723 C 287.073 0.575726 -5.70502 0
M  V30 2724 N 286.569 0.550714 -6.90608 0
M  V30 2725 N 288.362 0.620277 -5.58667 0
M  V30 2726 H 280.513 -0.788673 -1.97215 0
M  V30 2727 H 282.776 -0.293188 -0.901524 0
M  V30 2728 H 282.482 -0.509659 -3.47988 0
M  V30 2729 H 282.356 1.2386 -3.56284 0
M  V30 2730 H 284.743 1.41886 -2.58751 0
M  V30 2731 H 284.824 -0.347894 -2.53423 0
M  V30 2732 H 284.468 -0.418162 -5.06176 0
M  V30 2733 H 284.398 1.3618 -5.08687 0
M  V30 2734 H 286.889 0.581816 -3.73394 0
M  V30 2735 H 287.202 0.568075 -7.70709 0
M  V30 2736 H 285.547 0.517816 -6.93068 0
M  V30 2737 H 288.738 0.637322 -4.63741 0
M  V30 2738 H 288.911 0.631283 -6.44918 0
M  V30 2739 N 282.317 1.53212 0.369288 0
M  V30 2740 C 283.563 1.69466 1.11397 0
M  V30 2741 C 283.896 0.443257 1.89074 0
M  V30 2742 O 283.171 -0.559386 1.86282 0
M  V30 2743 C 283.454 2.9422 2.07621 0
M  V30 2744 C 283.307 4.29508 1.33577 0
M  V30 2745 C 284.626 3.14565 3.07794 0
M  V30 2746 H 281.745 0.616667 0.403597 0
M  V30 2747 H 284.387 1.85845 0.395179 0
M  V30 2748 H 282.537 2.80387 2.68916 0
M  V30 2749 H 284.209 4.55147 0.750955 0
M  V30 2750 H 282.452 4.29088 0.637618 0
M  V30 2751 H 283.123 5.12926 2.03989 0
M  V30 2752 H 285.599 3.2756 2.56601 0
M  V30 2753 H 284.475 4.03297 3.72348 0
M  V30 2754 H 284.736 2.29675 3.77759 0
M  V30 2755 N 283.795 -0.628877 1.44509 0
M  V30 2756 C 285.02 -1.42048 1.5112 0
M  V30 2757 C 285.445 -1.87594 0.137818 0
M  V30 2758 O 284.803 -1.58873 -0.873437 0
M  V30 2759 C 284.851 -2.61541 2.48251 0
M  V30 2760 O 283.955 -3.61453 1.98559 0
M  V30 2761 H 283.296 -0.424942 0.510216 0
M  V30 2762 H 285.826 -0.767374 1.89664 0
M  V30 2763 H 285.836 -3.09057 2.66361 0
M  V30 2764 H 284.511 -2.27736 3.48007 0
M  V30 2765 H 283.088 -3.20731 1.90227 0
M  V30 2766 N 285.273 -1.31445 -0.869486 0
M  V30 2767 C 286.689 -1.10113 -1.15531 0
M  V30 2768 C 286.889 0.128087 -2.01092 0
M  V30 2769 O 285.945 0.817276 -2.38908 0
M  V30 2770 C 287.258 -2.37291 -1.84698 0
M  V30 2771 C 288.806 -2.42906 -1.97397 0
M  V30 2772 C 289.281 -3.69967 -2.69979 0
M  V30 2773 N 290.772 -3.70864 -2.77514 0
M  V30 2774 C 291.507 -4.65875 -3.34287 0
M  V30 2775 N 291.003 -5.71242 -3.91988 0
M  V30 2776 N 292.796 -4.53394 -3.3225 0
M  V30 2777 H 284.947 -2.1028 -0.299347 0
M  V30 2778 H 287.21 -0.927683 -0.195214 0
M  V30 2779 H 286.916 -3.27078 -1.29278 0
M  V30 2780 H 286.79 -2.47125 -2.84972 0
M  V30 2781 H 289.177 -1.53588 -2.51982 0
M  V30 2782 H 289.258 -2.37036 -0.961643 0
M  V30 2783 H 288.902 -4.59652 -2.16062 0
M  V30 2784 H 288.832 -3.73103 -3.7162 0
M  V30 2785 H 291.323 -2.94697 -2.36563 0
M  V30 2786 H 291.636 -6.39817 -4.33421 0
M  V30 2787 H 289.981 -5.75015 -3.90362 0
M  V30 2788 H 293.172 -3.70252 -2.8641 0
M  V30 2789 H 293.345 -5.27617 -3.76197 0
M  V30 2790 N 286.751 1.08385 -1.14413 0
M  V30 2791 C 287.976 1.85057 -0.936413 0
M  V30 2792 C 288.401 1.81055 0.509971 0
M  V30 2793 O 287.759 1.1958 1.36273 0
M  V30 2794 C 287.807 3.30505 -1.44217 0
M  V30 2795 O 286.911 4.07491 -0.634409 0
M  V30 2796 H 286.252 0.573425 -0.334784 0
M  V30 2797 H 288.782 1.36799 -1.52142 0
M  V30 2798 H 288.792 3.81348 -1.45043 0
M  V30 2799 H 287.467 3.32734 -2.49522 0
M  V30 2800 H 286.044 3.66368 -0.694902 0
M  V30 2801 N 288.23 0.939286 1.26551 0
M  V30 2802 C 289.455 0.602008 1.98471 0
M  V30 2803 C 289.88 -0.815624 1.69497 0
M  V30 2804 O 289.238 -1.54912 0.941905 0
M  V30 2805 C 289.286 0.848407 3.50477 0
M  V30 2806 O 288.39 -0.0804009 4.12322 0
M  V30 2807 H 287.731 0.23049 0.622712 0
M  V30 2808 H 290.261 1.2617 1.61066 0
M  V30 2809 H 290.271 0.768553 4.00696 0
M  V30 2810 H 288.946 1.88171 3.70897 0
M  V30 2811 H 287.523 0.0503508 3.72866 0
M  V30 2812 N 289.708 -1.40897 0.706093 0
M  V30 2813 C 290.933 -2.05895 0.249435 0
M  V30 2814 C 291.358 -1.52823 -1.09666 0
M  V30 2815 O 290.716 -0.659589 -1.68876 0
M  V30 2816 C 290.764 -3.59872 0.22904 0
M  V30 2817 O 289.868 -4.04708 -0.792784 0
M  V30 2818 H 289.209 -0.653206 0.119241 0
M  V30 2819 H 291.739 -1.80471 0.96391 0
M  V30 2820 H 291.749 -4.07951 0.0634791 0
M  V30 2821 H 290.424 -3.97866 1.21141 0
M  V30 2822 H 289.001 -3.68111 -0.59572 0
M  V30 2823 N 291.186 -0.45159 -1.50991 0
M  V30 2824 C 292.597 0.00818571 -1.86698 0
M  V30 2825 C 292.948 1.40661 -1.3678 0
M  V30 2826 O 292.073 2.0391 -0.724546 0
M  V30 2827 C 292.668 0.0216303 -3.38793 0
M  V30 2828 C 291.227 0.425865 -3.73983 0
M  V30 2829 C 290.374 -0.372163 -2.74791 0
M  V30 2830 H 293.325 -0.666785 -1.44013 0
M  V30 2831 H 293.346 0.828078 -3.7138 0
M  V30 2832 H 292.858 -0.996288 -3.75094 0
M  V30 2833 H 290.959 1.44886 -3.43277 0
M  V30 2834 H 291.072 0.140761 -4.78893 0
M  V30 2835 H 289.436 0.171498 -2.54122 0
M  V30 2836 H 290.219 -1.38922 -3.13935 0
M  V30 2837 N 292.664 1.56529 -0.183458 0
M  V30 2838 C 293.594 2.21549 0.737456 0
M  V30 2839 C 294.575 1.17489 1.23005 0
M  V30 2840 O 295.76 1.45959 1.281 0
M  V30 2841 C 292.89 2.86575 1.96194 0
M  V30 2842 C 291.844 3.96778 1.60473 0
M  V30 2843 C 291.17 4.48911 2.90487 0
M  V30 2844 C 292.47 5.15767 0.823497 0
M  V30 2845 H 294.164 2.98761 0.195453 0
M  V30 2846 H 291.71 1.43702 0.0925686 0
M  V30 2847 H 293.663 3.30739 2.61131 0
M  V30 2848 H 292.387 2.06749 2.52828 0
M  V30 2849 H 291.046 3.53286 0.978997 0
M  V30 2850 H 290.694 3.65862 3.45186 0
M  V30 2851 H 290.394 5.23265 2.67335 0
M  V30 2852 H 291.918 4.95771 3.56432 0
M  V30 2853 H 293.332 5.56549 1.37571 0
M  V30 2854 H 291.729 5.96114 0.690551 0
M  V30 2855 H 292.799 4.84574 -0.177782 0
M  V30 2856 N 294.142 -0.090211 1.57342 0
M  V30 2857 C 295.089 -1.10909 2.02405 0
M  V30 2858 C 296.059 -1.39523 0.901252 0
M  V30 2859 O 297.244 -1.50903 1.1676 0
M  V30 2860 C 294.384 -2.42277 2.45755 0
M  V30 2861 C 293.497 -2.20352 3.71576 0
M  V30 2862 C 292.632 -3.45154 4.03785 0
M  V30 2863 C 291.671 -3.18512 5.22701 0
M  V30 2864 N 290.808 -4.35593 5.50639 0
M  V30 2865 H 295.648 -0.71782 2.89225 0
M  V30 2866 H 293.185 -0.342901 1.43048 0
M  V30 2867 H 295.143 -3.18951 2.68935 0
M  V30 2868 H 293.773 -2.79242 1.61938 0
M  V30 2869 H 292.825 -1.34458 3.55844 0
M  V30 2870 H 294.137 -1.96661 4.58395 0
M  V30 2871 H 293.291 -4.30233 4.27767 0
M  V30 2872 H 292.03 -3.71904 3.15498 0
M  V30 2873 H 291.035 -2.31827 4.98534 0
M  V30 2874 H 292.26 -2.93103 6.12591 0
M  V30 2875 H 290.206 -4.6241 4.6531 0
M  V30 2876 H 290.123 -4.1511 6.31838 0
M  V30 2877 H 291.391 -5.21723 5.7916 0
M  V30 2878 N 295.62 -1.53406 -0.361157 0
M  V30 2879 C 296.848 -1.73717 -1.12383 0
M  V30 2880 C 297.263 -0.468161 -1.82904 0
M  V30 2881 O 296.62 0.559198 -1.73722 0
M  V30 2882 C 296.671 -2.90558 -2.15078 0
M  V30 2883 O 296.392 -4.12549 -1.47428 0
M  V30 2884 C 297.893 -3.22777 -3.03858 0
M  V30 2885 H 295.113 -0.580896 -0.335858 0
M  V30 2886 H 297.657 -2.00167 -0.418728 0
M  V30 2887 H 295.812 -2.66489 -2.8118 0
M  V30 2888 H 296.226 -4.78009 -2.15887 0
M  V30 2889 H 297.7 -4.07927 -3.71887 0
M  V30 2890 H 298.177 -2.38329 -3.68912 0
M  V30 2891 H 298.783 -3.48787 -2.43367 0
M  V30 2892 N 297.098 0.621204 -1.44841 0
M  V30 2893 C 298.346 1.37783 -1.47852 0
M  V30 2894 C 298.667 1.94653 -0.116224 0
M  V30 2895 O 297.937 1.76367 0.852737 0
M  V30 2896 H 296.517 0.511453 -0.544449 0
M  V30 2897 H 299.179 0.730446 -1.80694 0
M  V30 2898 H 298.275 2.20414 -2.20961 0
M  V30 2899 N 298.576 1.31904 0.862503 0
M  V30 2900 C 299.486 1.22161 2.00285 0
M  V30 2901 C 300.502 0.136785 1.73462 0
M  V30 2902 O 301.678 0.355994 1.98229 0
M  V30 2903 C 298.743 0.937093 3.33796 0
M  V30 2904 C 297.804 2.10957 3.73893 0
M  V30 2905 C 297.037 1.83853 5.01033 0
M  V30 2906 O 297.26 0.777274 5.65079 0
M  V30 2907 O 296.194 2.69741 5.38074 0
M  V30 2908 H 300.02 2.18008 2.11439 0
M  V30 2909 H 297.605 1.11716 0.991957 0
M  V30 2910 H 299.487 0.794583 4.13841 0
M  V30 2911 H 298.162 0.00871894 3.23699 0
M  V30 2912 H 297.069 2.30752 2.94456 0
M  V30 2913 H 298.402 3.02046 3.88625 0
M  V30 2914 N 300.054 -1.07777 1.14986 0
M  V30 2915 C 300.986 -2.14769 0.800436 0
M  V30 2916 C 301.999 -1.61739 -0.185595 0
M  V30 2917 O 303.188 -1.78462 0.0370358 0
M  V30 2918 C 300.288 -3.38481 0.168533 0
M  V30 2919 C 299.461 -4.20876 1.1909 0
M  V30 2920 C 298.52 -5.22976 0.581575 0
M  V30 2921 O 297.546 -5.55388 1.24633 0
M  V30 2922 N 298.748 -5.76976 -0.638706 0
M  V30 2923 H 301.513 -2.45348 1.72118 0
M  V30 2924 H 299.074 -1.23645 1.04515 0
M  V30 2925 H 301.066 -4.03916 -0.251764 0
M  V30 2926 H 299.636 -3.05651 -0.655467 0
M  V30 2927 H 298.856 -3.51322 1.78791 0
M  V30 2928 H 300.144 -4.7274 1.88133 0
M  V30 2929 H 299.542 -5.52886 -1.19723 0
M  V30 2930 H 298.099 -6.44061 -1.00142 0
M  V30 2931 N 301.532 -0.945985 -1.26051 0
M  V30 2932 C 302.76 -0.613025 -1.9761 0
M  V30 2933 C 303.175 0.813035 -1.70397 0
M  V30 2934 O 302.532 1.54274 -0.974979 0
M  V30 2935 C 302.583 -0.85159 -3.51326 0
M  V30 2936 O 302.304 -2.22157 -3.77595 0
M  V30 2937 C 303.805 -0.529831 -4.40122 0
M  V30 2938 H 301.025 -0.230593 -0.630133 0
M  V30 2939 H 303.569 -1.268 -1.60443 0
M  V30 2940 H 301.724 -0.243151 -3.86636 0
M  V30 2941 H 302.138 -2.2852 -4.721 0
M  V30 2942 H 303.612 -0.747348 -5.46917 0
M  V30 2943 H 304.089 0.535341 -4.35925 0
M  V30 2944 H 304.695 -1.11721 -4.10364 0
M  V30 2945 N 303.011 1.40521 -0.713556 0
M  V30 2946 C 304.422 1.83853 -0.324807 0
M  V30 2947 C 304.773 1.59667 1.14021 0
M  V30 2948 O 303.898 1.07649 1.87725 0
M  V30 2949 C 304.493 3.33751 -0.582746 0
M  V30 2950 C 303.052 3.75584 -0.247727 0
M  V30 2951 C 302.199 2.63753 -0.856121 0
M  V30 2952 H 305.15 1.29817 -0.91286 0
M  V30 2953 H 305.171 3.80194 0.152682 0
M  V30 2954 H 304.683 3.51322 -1.64908 0
M  V30 2955 H 302.784 3.63608 0.813624 0
M  V30 2956 H 302.897 4.7373 -0.715307 0
M  V30 2957 H 301.261 2.53108 -0.28432 0
M  V30 2958 H 302.044 2.84137 -1.92668 0
M  V30 2959 N 304.489 0.459591 1.5075 0
M  V30 2960 C 305.9 0.00171547 1.867 0
M  V30 2961 C 306.251 -1.39934 1.37525 0
M  V30 2962 O 305.376 -2.03523 0.735349 0
M  V30 2963 C 305.971 -0.00366298 3.388 0
M  V30 2964 C 304.53 -0.406026 3.74204 0
M  V30 2965 C 303.677 0.38673 2.7459 0
M  V30 2966 H 306.628 0.674413 1.43657 0
M  V30 2967 H 306.649 -0.808371 3.71814 0
M  V30 2968 H 306.161 1.01617 3.74561 0
M  V30 2969 H 304.262 -1.43063 3.4404 0
M  V30 2970 H 304.375 -0.115362 4.78961 0
M  V30 2971 H 302.739 -0.158019 2.54209 0
M  V30 2972 H 303.522 1.40585 3.13194 0
M  V30 2973 N 305.967 -1.56429 0.191757 0
M  V30 2974 C 306.917 -2.15548 -0.743184 0
M  V30 2975 C 307.901 -1.09531 -1.17863 0
M  V30 2976 O 309.093 -1.35602 -1.13759 0
M  V30 2977 C 306.222 -2.81577 -1.96391 0
M  V30 2978 C 305.308 -3.9478 -1.54951 0
M  V30 2979 N 305.699 -4.98677 -0.845876 0
M  V30 2980 C 303.997 -4.06319 -1.83905 0
M  V30 2981 C 304.698 -5.78183 -0.638724 0
M  V30 2982 N 303.674 -5.30495 -1.18643 0
M  V30 2983 H 307.476 -2.9324 -0.196839 0
M  V30 2984 H 304.99 -1.62398 -0.0081603 0
M  V30 2985 H 306.987 -3.22321 -2.64415 0
M  V30 2986 H 305.647 -2.05371 -2.51501 0
M  V30 2987 H 306.658 -5.15464 -0.501704 0
M  V30 2988 H 303.335 -3.41238 -2.40548 0
M  V30 2989 H 304.725 -6.71851 -0.0807929 0
M  V30 2990 N 307.445 0.0818655 -1.57387 0
M  V30 2991 C 308.355 1.11642 -2.06333 0
M  V30 2992 C 309.371 1.43033 -0.99083 0
M  V30 2993 O 310.547 1.53411 -1.30488 0
M  V30 2994 C 307.612 2.41342 -2.48907 0
M  V30 2995 C 306.673 2.17014 -3.7041 0
M  V30 2996 C 305.906 3.4053 -4.10944 0
M  V30 2997 O 306.129 4.4927 -3.51444 0
M  V30 2998 O 305.063 3.29336 -5.03807 0
M  V30 2999 H 308.889 0.730657 -2.9478 0
M  V30 3000 H 306.474 0.295301 -1.46452 0
M  V30 3001 H 308.356 3.17691 -2.76858 0
M  V30 3002 H 307.031 2.79319 -1.63593 0
M  V30 3003 H 305.938 1.38403 -3.47556 0
M  V30 3004 H 307.271 1.83923 -4.56545 0
M  V30 3005 N 308.923 1.53595 0.353017 0
M  V30 3006 C 309.873 1.77299 1.43349 0
M  V30 3007 C 310.857 0.627884 1.48143 0
M  V30 3008 O 312.049 0.88697 1.53173 0
M  V30 3009 C 309.178 1.97757 2.80619 0
M  V30 3010 C 308.264 3.18305 2.80254 0
M  V30 3011 N 308.655 4.39967 2.49526 0
M  V30 3012 C 306.953 3.19283 3.11407 0
M  V30 3013 C 307.654 5.21772 2.57156 0
M  V30 3014 N 306.63 4.58269 2.92388 0
M  V30 3015 H 310.432 2.68963 1.18474 0
M  V30 3016 H 307.946 1.52391 0.561306 0
M  V30 3017 H 309.943 2.1287 3.58458 0
M  V30 3018 H 308.603 1.07329 3.06448 0
M  V30 3019 H 309.614 4.67482 2.22893 0
M  V30 3020 H 306.291 2.3879 3.4247 0
M  V30 3021 H 307.681 6.2885 2.36638 0
M  V30 3022 N 310.401 -0.613514 1.45168 0
M  V30 3023 C 311.65 -1.36874 1.4815 0
M  V30 3024 C 311.963 -1.952 0.124982 0
M  V30 3025 O 313.169 -2.71481 0.0324176 0
M  V30 3026 C 311.625 -2.47905 2.60904 0
M  V30 3027 C 311.233 -1.96016 4.02842 0
M  V30 3028 C 312.977 -3.24965 2.73126 0
M  V30 3029 C 310.884 -3.04494 5.06988 0
M  V30 3030 H 309.814 -0.514428 0.551253 0
M  V30 3031 H 312.465 -0.658182 1.7129 0
M  V30 3032 H 310.847 -3.21618 2.31037 0
M  V30 3033 H 312.021 -1.29051 4.4236 0
M  V30 3034 H 310.336 -1.31719 3.95018 0
M  V30 3035 H 312.933 -4.05865 3.48106 0
M  V30 3036 H 313.276 -3.75588 1.79553 0
M  V30 3037 H 313.809 -2.5835 3.0249 0
M  V30 3038 H 310.548 -2.58795 6.0225 0
M  V30 3039 H 310.068 -3.70044 4.72046 0
M  V30 3040 H 311.747 -3.68976 5.31475 0
M  V30 3041 N 311.879 -1.3236 -0.855495 0
M  V30 3042 C 313.119 -1.24187 -1.62348 0
M  V30 3043 C 313.483 0.193597 -1.91021 0
M  V30 3044 O 314.684 0.39904 -2.65822 0
M  V30 3045 C 312.955 -2.07661 -2.90881 0
M  V30 3046 S 314.514 -2.16505 -3.81669 0
M  V30 3047 H 311.332 -0.442076 -0.556857 0
M  V30 3048 H 313.934 -1.67198 -1.01317 0
M  V30 3049 H 312.638 -3.11018 -2.67761 0
M  V30 3050 H 312.169 -1.65425 -3.56929 0
M  V30 3051 H 314.184 -1.31394 -4.78487 0
M  V30 3052 N 313.357 1.07166 -1.15556 0
M  V30 3053 C 314.287 2.16403 -0.877046 0
M  V30 3054 C 315.268 1.69217 0.173111 0
M  V30 3055 O 316.453 1.94181 0.027084 0
M  V30 3056 C 313.583 3.45349 -0.367632 0
M  V30 3057 C 312.537 4.05995 -1.35468 0
M  V30 3058 C 311.863 5.30045 -0.704038 0
M  V30 3059 C 313.163 4.45804 -2.72132 0
M  V30 3060 H 314.857 2.39959 -1.79053 0
M  V30 3061 H 312.403 1.15325 -0.862331 0
M  V30 3062 H 314.356 4.21095 -0.160317 0
M  V30 3063 H 313.08 3.21385 0.581326 0
M  V30 3064 H 311.739 3.32296 -1.54839 0
M  V30 3065 H 311.387 5.02373 0.251128 0
M  V30 3066 H 311.087 5.71579 -1.36277 0
M  V30 3067 H 312.611 6.08495 -0.50654 0
M  V30 3068 H 314.025 5.12671 -2.56595 0
M  V30 3069 H 312.422 4.98296 -3.34397 0
M  V30 3070 H 313.492 3.57083 -3.28054 0
M  V30 3071 N 314.835 0.952656 1.25548 0
M  V30 3072 C 316.06 0.623025 1.97821 0
M  V30 3073 C 316.485 -0.7976 1.70352 0
M  V30 3074 O 315.843 -1.53905 0.958283 0
M  V30 3075 C 315.891 0.885532 3.49558 0
M  V30 3076 O 314.995 -0.0366641 4.12384 0
M  V30 3077 H 314.336 0.237082 0.620232 0
M  V30 3078 H 316.866 1.27871 1.59719 0
M  V30 3079 H 316.876 0.811009 3.99858 0
M  V30 3080 H 315.551 1.92094 3.6888 0
M  V30 3081 H 314.128 0.0898954 3.72792 0
M  V30 3082 N 316.313 -1.40141 0.720998 0
M  V30 3083 C 317.59 -1.94677 0.189757 0
M  V30 3084 C 317.97 -1.65879 -1.30566 0
M  V30 3085 O 317.318 -0.979391 -2.06447 0
M  V30 3086 C 317.528 -3.45279 0.508304 0
M  V30 3087 C 318.876 -4.22209 0.449934 0
M  V30 3088 O 319.9 -3.53413 0.444677 0
M  V30 3089 O 318.759 -5.44788 0.432189 0
M  V30 3090 H 315.853 -0.826459 0.0299026 0
M  V30 3091 H 318.399 -1.49719 0.7989 0
M  V30 3092 H 317.171 -3.59619 1.54239 0
M  V30 3093 H 316.794 -3.97386 -0.130525 0
M  V30 3094 N 317.792 -0.46758 -1.50504 0
M  V30 3095 C 318.702 0.33382 -2.32213 0
M  V30 3096 C 319.718 0.999323 -1.42441 0
M  V30 3097 O 320.894 0.988068 -1.75497 0
M  V30 3098 C 317.959 1.4035 -3.17022 0
M  V30 3099 C 317.02 0.754961 -4.2261 0
M  V30 3100 C 316.253 1.77367 -5.03365 0
M  V30 3101 O 316.476 2.99976 -4.8515 0
M  V30 3102 O 315.41 1.34744 -5.86624 0
M  V30 3103 H 319.236 -0.334067 -3.01857 0
M  V30 3104 H 316.821 -0.229496 -1.47627 0
M  V30 3105 H 318.703 2.02318 -3.69656 0
M  V30 3106 H 317.378 2.05492 -2.5011 0
M  V30 3107 H 316.285 0.0964244 -3.73976 0
M  V30 3108 H 317.618 0.146545 -4.91982 0
M  V30 3109 N 319.27 1.56325 -0.20005 0
M  V30 3110 C 320.2 2.22318 0.713916 0
M  V30 3111 C 321.181 1.18788 1.21752 0
M  V30 3112 O 322.366 1.47309 1.26545 0
M  V30 3113 C 319.496 2.88639 1.93144 0
M  V30 3114 C 318.45 3.98457 1.56255 0
M  V30 3115 C 317.776 4.51967 2.85709 0
M  V30 3116 C 319.076 5.16612 0.768747 0
M  V30 3117 H 320.77 2.98952 0.163755 0
M  V30 3118 H 318.316 1.43792 0.0773219 0
M  V30 3119 H 320.269 3.33491 2.57608 0
M  V30 3120 H 318.993 2.09419 2.50621 0
M  V30 3121 H 317.652 3.54305 0.941471 0
M  V30 3122 H 317.3 3.69503 3.41287 0
M  V30 3123 H 317 5.26071 2.6177 0
M  V30 3124 H 318.524 4.99523 3.51154 0
M  V30 3125 H 319.938 5.57977 1.3166 0
M  V30 3126 H 318.335 5.96812 0.627286 0
M  V30 3127 H 319.405 4.84358 -0.229168 0
M  V30 3128 N 320.748 -0.0735177 1.57428 0
M  V30 3129 C 322.159 -0.625551 1.75908 0
M  V30 3130 C 322.51 -1.78 0.825261 0
M  V30 3131 O 321.635 -2.16398 0.00893964 0
M  V30 3132 C 322.23 -1.14155 3.18989 0
M  V30 3133 C 320.789 -1.63946 3.38819 0
M  V30 3134 C 319.936 -0.558151 2.71625 0
M  V30 3135 H 322.887 0.152647 1.57964 0
M  V30 3136 H 322.908 -2.0104 3.23053 0
M  V30 3137 H 322.42 -0.301116 3.8693 0
M  V30 3138 H 320.521 -2.50321 2.7599 0
M  V30 3139 H 320.634 -1.71759 4.47253 0
M  V30 3140 H 318.998 -1.00278 2.34129 0
M  V30 3141 H 319.781 0.272071 3.4222 0
M  V30 3142 N 322.226 -1.5378 -0.344866 0
M  V30 3143 C 323.637 -1.62428 -0.920552 0
M  V30 3144 C 323.988 -0.504747 -1.89596 0
M  V30 3145 O 323.113 0.365711 -2.13287 0
M  V30 3146 C 323.708 -2.94419 -1.67639 0
M  V30 3147 C 322.267 -3.05333 -2.20111 0
M  V30 3148 C 321.414 -2.57866 -1.01982 0
M  V30 3149 H 324.365 -1.58222 -0.123042 0
M  V30 3150 H 324.386 -2.83384 -2.53917 0
M  V30 3151 H 323.898 -3.7588 -0.966224 0
M  V30 3152 H 321.999 -2.28502 -2.94308 0
M  V30 3153 H 322.112 -4.10778 -2.46573 0
M  V30 3154 H 320.476 -2.13241 -1.39285 0
M  V30 3155 H 321.259 -3.41765 -0.324308 0
M  V30 3156 N 323.704 0.605807 -1.45491 0
M  V30 3157 C 324.636 1.73031 -1.5031 0
M  V30 3158 C 325.649 1.57968 -0.393687 0
M  V30 3159 O 326.838 1.65817 -0.660839 0
M  V30 3160 C 323.938 3.11049 -1.34543 0
M  V30 3161 C 323.111 3.52334 -2.59189 0
M  V30 3162 C 322.17 4.69323 -2.37954 0
M  V30 3163 O 321.196 4.7635 -3.11575 0
M  V30 3164 N 322.398 5.62705 -1.4263 0
M  V30 3165 H 325.163 1.6936 -2.4726 0
M  V30 3166 H 322.724 0.79114 -1.41254 0
M  V30 3167 H 324.716 3.87071 -1.18144 0
M  V30 3168 H 323.286 3.09217 -0.458623 0
M  V30 3169 H 322.506 2.66256 -2.90691 0
M  V30 3170 H 323.794 3.76677 -3.42041 0
M  V30 3171 H 323.192 5.59744 -0.818758 0
M  V30 3172 H 321.749 6.38252 -1.32202 0
M  V30 3173 N 325.182 1.32811 0.848464 0
M  V30 3174 C 326.407 1.26882 1.6406 0
M  V30 3175 C 326.832 -0.15913 1.87426 0
M  V30 3176 O 326.19 -1.11258 1.43148 0
M  V30 3177 C 326.238 2.03997 2.97351 0
M  V30 3178 O 325.342 1.39201 3.88197 0
M  V30 3179 H 324.683 0.436982 0.499943 0
M  V30 3180 H 327.213 1.75224 1.0563 0
M  V30 3181 H 327.223 2.14403 3.47124 0
M  V30 3182 H 325.898 3.0783 2.79666 0
M  V30 3183 H 324.475 1.37381 3.46671 0
M  V30 3184 N 326.66 -1.06551 1.16123 0
M  V30 3185 C 327.908 -1.78947 0.939267 0
M  V30 3186 C 328.229 -1.87532 -0.534476 0
M  V30 3187 O 327.499 -1.38211 -1.38833 0
M  V30 3188 H 326.079 -0.662807 0.344523 0
M  V30 3189 H 328.741 -1.28725 1.46342 0
M  V30 3190 H 327.837 -2.81117 1.35572 0
M  V30 3191 N 328.138 -0.959301 -1.25041 0
M  V30 3192 C 329.549 -0.65667 -1.74771 0
M  V30 3193 C 329.9 0.827852 -1.77879 0
M  V30 3194 O 329.025 1.64783 -1.40269 0
M  V30 3195 C 329.62 -1.1853 -3.1739 0
M  V30 3196 C 328.179 -0.932734 -3.6466 0
M  V30 3197 C 327.326 -1.32558 -2.43564 0
M  V30 3198 H 330.277 -1.13558 -1.10862 0
M  V30 3199 H 330.298 -0.547582 -3.76539 0
M  V30 3200 H 329.81 -2.26576 -3.15095 0
M  V30 3201 H 327.911 0.13257 -3.72364 0
M  V30 3202 H 328.024 -1.57248 -4.52559 0
M  V30 3203 H 326.388 -0.743956 -2.43593 0
M  V30 3204 H 327.171 -2.41537 -2.43957 0
M  V30 3205 N 329.616 1.39756 -0.72842 0
M  V30 3206 C 330.579 2.29012 -0.0927297 0
M  V30 3207 C 331.579 1.45992 0.674025 0
M  V30 3208 O 332.769 1.66749 0.50402 0
M  V30 3209 C 329.901 3.29396 0.878137 0
M  V30 3210 H 331.094 2.86729 -0.879011 0
M  V30 3211 H 328.647 1.48293 -0.493847 0
M  V30 3212 H 329.382 2.76722 1.69101 0
M  V30 3213 H 329.167 3.907 0.331051 0
M  V30 3214 H 330.657 3.96199 1.3197 0
M  V30 3215 N 331.094 0.475555 1.50254 0
M  V30 3216 C 332.505 0.0215174 1.86688 0
M  V30 3217 C 332.856 -1.38467 1.39001 0
M  V30 3218 O 331.981 -2.02732 0.756894 0
M  V30 3219 C 332.576 0.0322715 3.38785 0
M  V30 3220 C 331.135 -0.366314 3.74613 0
M  V30 3221 C 330.282 0.415832 2.74164 0
M  V30 3222 H 333.233 0.689612 1.42934 0
M  V30 3223 H 333.254 -0.76889 3.7265 0
M  V30 3224 H 332.766 1.05584 3.73462 0
M  V30 3225 H 330.867 -1.39406 3.45538 0
M  V30 3226 H 330.98 -0.064555 4.79057 0
M  V30 3227 H 329.344 -0.131048 2.54363 0
M  V30 3228 H 330.127 1.43899 3.11686 0
M  V30 3229 N 332.573 -1.56217 0.208337 0
M  V30 3230 C 333.801 -2.02337 -0.43215 0
M  V30 3231 C 334.216 -1.08834 -1.54275 0
M  V30 3232 O 333.573 -0.0955462 -1.8225 0
M  V30 3233 C 333.624 -3.48072 -0.976138 0
M  V30 3234 O 333.345 -4.38007 0.0901621 0
M  V30 3235 C 334.846 -4.09773 -1.69119 0
M  V30 3236 H 332.066 -0.662385 -0.10718 0
M  V30 3237 H 334.61 -2.01966 0.320923 0
M  V30 3238 H 332.765 -3.49099 -1.67954 0
M  V30 3239 H 333.179 -5.23543 -0.316701 0
M  V30 3240 H 334.653 -5.13556 -2.02397 0
M  V30 3241 H 335.13 -3.53999 -2.59964 0
M  V30 3242 H 335.736 -4.12556 -1.03332 0
M  V30 3243 N 334.051 0.0651679 -1.57465 0
M  V30 3244 C 335.279 0.775808 -1.91804 0
M  V30 3245 C 335.694 1.70782 -0.804916 0
M  V30 3246 O 335.051 1.81153 0.221311 0
M  V30 3247 C 335.102 1.56381 -3.25925 0
M  V30 3248 O 334.823 0.669248 -4.32958 0
M  V30 3249 C 336.324 2.37485 -3.7432 0
M  V30 3250 H 333.544 0.2202 -0.63384 0
M  V30 3251 H 336.088 0.0334587 -2.04473 0
M  V30 3252 H 334.243 2.25837 -3.14764 0
M  V30 3253 H 334.657 1.21801 -5.10162 0
M  V30 3254 H 336.131 2.88223 -4.70778 0
M  V30 3255 H 336.608 3.17307 -3.03666 0
M  V30 3256 H 337.214 1.73173 -3.88447 0
M  V30 3257 N 335.529 1.53961 0.336706 0
M  V30 3258 C 336.806 1.62171 1.09361 0
M  V30 3259 C 337.186 0.447263 2.06307 0
M  V30 3260 O 336.534 -0.559802 2.21537 0
M  V30 3261 C 336.744 2.98565 1.80721 0
M  V30 3262 C 338.092 3.54157 2.34218 0
M  V30 3263 O 339.116 3.00784 1.90807 0
M  V30 3264 O 337.975 4.47528 3.13657 0
M  V30 3265 H 335.069 0.6562 0.503319 0
M  V30 3266 H 337.615 1.66307 0.33765 0
M  V30 3267 H 336.387 3.75482 1.10132 0
M  V30 3268 H 336.01 2.9805 2.63158 0
M  V30 3269 N 337.007 -0.598083 1.45811 0
M  V30 3270 C 338.423 -0.919847 1.30426 0
M  V30 3271 C 338.623 -1.99759 0.264303 0
M  V30 3272 O 337.679 -2.50221 -0.338472 0
M  V30 3273 C 338.992 -1.35176 2.68603 0
M  V30 3274 C 340.54 -1.46546 2.76574 0
M  V30 3275 C 341.015 -1.9311 4.15298 0
M  V30 3276 N 342.506 -2.00328 4.1764 0
M  V30 3277 C 343.241 -2.37599 5.21856 0
M  V30 3278 N 342.737 -2.73771 6.36413 0
M  V30 3279 N 344.53 -2.38021 5.09218 0
M  V30 3280 H 336.681 0.114111 2.12093 0
M  V30 3281 H 338.944 -0.0116121 0.947929 0
M  V30 3282 H 338.65 -0.633969 3.45939 0
M  V30 3283 H 338.524 -2.3164 2.97696 0
M  V30 3284 H 340.911 -2.17415 1.99537 0
M  V30 3285 H 340.992 -0.483727 2.51185 0
M  V30 3286 H 340.636 -1.22824 4.92825 0
M  V30 3287 H 340.566 -2.92213 4.38086 0
M  V30 3288 H 343.057 -1.74925 3.34977 0
M  V30 3289 H 343.37 -3.0112 7.11721 0
M  V30 3290 H 341.715 -2.71445 6.39799 0
M  V30 3291 H 344.906 -2.09174 4.18765 0
M  V30 3292 H 345.079 -2.66741 5.90554 0
M  V30 3293 N 338.485 -1.33259 -0.841409 0
M  V30 3294 C 339.733 -1.24326 -1.59334 0
M  V30 3295 C 340.054 0.191564 -1.94057 0
M  V30 3296 O 339.324 1.11967 -1.60749 0
M  V30 3297 H 337.904 -0.457174 -0.590763 0
M  V30 3298 H 340.566 -1.66947 -1.00571 0
M  V30 3299 H 339.662 -1.8352 -2.52442 0
M  V30 3300 N 339.963 1.05934 -1.16686 0
M  V30 3301 C 341.191 1.8249 -0.974929 0
M  V30 3302 C 341.606 1.82679 0.476861 0
M  V30 3303 O 340.963 1.2486 1.33103 0
M  V30 3304 C 341.014 3.28943 -1.49929 0
M  V30 3305 O 340.735 3.28886 -2.89423 0
M  V30 3306 C 342.236 4.22215 -1.35089 0
M  V30 3307 H 339.456 0.575295 -0.345365 0
M  V30 3308 H 342 1.33631 -1.548 0
M  V30 3309 H 340.155 3.751 -0.968423 0
M  V30 3310 H 340.569 4.20493 -3.13506 0
M  V30 3311 H 342.043 5.22987 -1.76603 0
M  V30 3312 H 342.52 4.38195 -0.296935 0
M  V30 3313 H 343.126 3.81907 -1.87155 0
M  V30 3314 N 341.441 0.965919 1.2453 0
M  V30 3315 C 342.666 0.643971 1.97149 0
M  V30 3316 C 343.091 -0.779487 1.71189 0
M  V30 3317 O 342.449 -1.5288 0.974553 0
M  V30 3318 C 342.497 0.922557 3.48599 0
M  V30 3319 O 341.601 0.00707672 4.12399 0
M  V30 3320 H 340.942 0.243647 0.617683 0
M  V30 3321 H 343.472 1.29558 1.58353 0
M  V30 3322 H 343.482 0.853373 3.98976 0
M  V30 3323 H 342.157 1.95996 3.66822 0
M  V30 3324 H 340.734 0.12943 3.72675 0
M  V30 3325 N 342.919 -1.39368 0.735821 0
M  V30 3326 C 344.147 -2.04795 0.294393 0
M  V30 3327 C 344.562 -1.55478 -1.07107 0
M  V30 3328 O 343.919 -0.720038 -1.67695 0
M  V30 3329 C 343.97 -3.6035 0.288071 0
M  V30 3330 O 343.691 -4.07852 1.59963 0
M  V30 3331 C 345.192 -4.42976 -0.169422 0
M  V30 3332 H 342.412 -0.658571 0.128551 0
M  V30 3333 H 344.956 -1.78399 0.999701 0
M  V30 3334 H 343.111 -3.85645 -0.368355 0
M  V30 3335 H 343.525 -5.02181 1.51375 0
M  V30 3336 H 344.999 -5.51864 -0.122687 0
M  V30 3337 H 345.476 -4.22068 -1.21472 0
M  V30 3338 H 346.082 -4.22832 0.457469 0
M  V30 3339 N 344.397 -0.483516 -1.5 0
M  V30 3340 C 345.674 0.129337 -1.95172 0
M  V30 3341 C 346.054 1.55802 -1.4244 0
M  V30 3342 O 345.402 2.19625 -0.630649 0
M  V30 3343 C 345.612 0.0599251 -3.48949 0
M  V30 3344 C 346.96 0.242617 -4.23906 0
M  V30 3345 O 347.984 0.135933 -3.55941 0
M  V30 3346 O 346.843 0.459454 -5.44565 0
M  V30 3347 H 343.937 0.104887 -0.820322 0
M  V30 3348 H 346.483 -0.544807 -1.60717 0
M  V30 3349 H 345.255 -0.937079 -3.79914 0
M  V30 3350 H 344.878 0.774984 -3.89974 0
M  V30 3351 N 345.875 1.56104 -0.216619 0
M  V30 3352 C 347.1 2.0301 0.424462 0
M  V30 3353 C 347.525 1.0955 1.52907 0
M  V30 3354 O 346.883 0.0827914 1.81111 0
M  V30 3355 C 346.931 3.4819 0.937883 0
M  V30 3356 O 346.035 3.57865 2.04955 0
M  V30 3357 H 345.376 0.656925 0.0966755 0
M  V30 3358 H 347.906 2.01859 -0.33381 0
M  V30 3359 H 347.916 3.88413 1.24897 0
M  V30 3360 H 346.591 4.15699 0.129387 0
M  V30 3361 H 345.168 3.29527 1.74546 0
M  V30 3362 N 347.353 -0.0568162 1.57498 0
M  V30 3363 C 348.764 -0.606858 1.76562 0
M  V30 3364 C 349.115 -1.77114 0.844094 0
M  V30 3365 O 348.24 -2.16376 0.0318911 0
M  V30 3366 C 348.835 -1.10766 3.20182 0
M  V30 3367 C 347.394 -1.60344 3.40539 0
M  V30 3368 C 346.541 -0.529311 2.72201 0
M  V30 3369 H 349.492 0.169393 1.57793 0
M  V30 3370 H 349.513 -1.97602 3.25167 0
M  V30 3371 H 349.025 -0.26006 3.87228 0
M  V30 3372 H 347.126 -2.47379 2.78629 0
M  V30 3373 H 347.239 -1.67006 4.4905 0
M  V30 3374 H 345.603 -0.977893 2.35179 0
M  V30 3375 H 346.386 0.308352 3.41912 0
M  V30 3376 N 348.832 -1.54138 -0.328536 0
M  V30 3377 C 350.072 -1.73827 -1.07534 0
M  V30 3378 C 350.436 -0.498777 -1.85408 0
M  V30 3379 O 351.637 -0.572937 -2.62623 0
M  V30 3380 C 349.908 -2.97573 -1.97952 0
M  V30 3381 S 351.467 -3.38143 -2.79652 0
M  V30 3382 H 348.285 -0.611287 -0.36311 0
M  V30 3383 H 350.887 -1.92306 -0.351931 0
M  V30 3384 H 349.591 -3.85939 -1.39569 0
M  V30 3385 H 349.122 -2.81603 -2.74706 0
M  V30 3386 H 351.137 -2.93052 -4.00418 0
M  V30 3387 N 350.31 0.590341 -1.46126 0
M  V30 3388 C 351.726 0.912917 -1.30912 0
M  V30 3389 C 351.926 1.99616 -0.274893 0
M  V30 3390 O 350.982 2.50397 0.325197 0
M  V30 3391 C 352.295 1.3375 -2.69317 0
M  V30 3392 C 353.843 1.45077 -2.77348 0
M  V30 3393 C 354.318 1.90904 -4.16317 0
M  V30 3394 N 355.809 1.9811 -4.18696 0
M  V30 3395 C 356.544 2.34828 -5.23109 0
M  V30 3396 N 356.04 2.70393 -6.37856 0
M  V30 3397 N 357.833 2.35317 -5.10473 0
M  V30 3398 H 349.984 -0.125358 -2.1203 0
M  V30 3399 H 352.247 0.00658481 -0.947977 0
M  V30 3400 H 351.953 0.615614 -3.4627 0
M  V30 3401 H 351.827 2.30058 -2.9892 0
M  V30 3402 H 354.214 2.16353 -2.00687 0
M  V30 3403 H 354.295 0.4704 -2.51438 0
M  V30 3404 H 353.939 1.20209 -4.9347 0
M  V30 3405 H 353.869 2.89886 -4.39629 0
M  V30 3406 H 356.36 1.73146 -3.359 0
M  V30 3407 H 356.673 2.97341 -7.13308 0
M  V30 3408 H 355.018 2.68048 -6.41229 0
M  V30 3409 H 358.209 2.0695 -4.19868 0
M  V30 3410 H 358.382 2.63605 -5.9196 0
M  V30 3411 N 351.788 1.33704 0.83433 0
M  V30 3412 C 353.204 1.13137 1.12571 0
M  V30 3413 C 353.404 -0.0747261 2.01361 0
M  V30 3414 O 352.46 -0.753647 2.4099 0
M  V30 3415 C 353.773 2.42105 1.78342 0
M  V30 3416 C 355.321 2.48054 1.90888 0
M  V30 3417 C 355.796 3.76995 2.60075 0
M  V30 3418 N 357.287 3.78092 2.67584 0
M  V30 3419 C 358.022 4.74574 3.21818 0
M  V30 3420 N 357.518 5.81434 3.76705 0
M  V30 3421 N 359.311 4.62044 3.20112 0
M  V30 3422 H 351.462 2.11 0.243489 0
M  V30 3423 H 353.725 0.932532 0.17055 0
M  V30 3424 H 353.431 3.30391 1.20561 0
M  V30 3425 H 353.305 2.54594 2.7832 0
M  V30 3426 H 355.692 1.60215 2.47821 0
M  V30 3427 H 355.773 2.39502 0.898459 0
M  V30 3428 H 355.417 4.65219 2.03799 0
M  V30 3429 H 355.347 3.82825 3.61597 0
M  V30 3430 H 357.838 3.00865 2.28667 0
M  V30 3431 H 358.151 6.51084 4.16305 0
M  V30 3432 H 356.496 5.85163 3.7498 0
M  V30 3433 H 359.687 3.77716 2.76493 0
M  V30 3434 H 359.86 5.37406 3.62076 0
M  V30 3435 N 353.266 -1.05314 1.17247 0
M  V30 3436 C 354.491 -1.82509 0.985148 0
M  V30 3437 C 354.916 -1.82343 -0.461788 0
M  V30 3438 O 354.274 -1.23151 -1.33055 0
M  V30 3439 C 354.322 -3.26566 1.52929 0
M  V30 3440 O 353.426 -4.05666 0.742225 0
M  V30 3441 H 352.767 -0.564347 0.349869 0
M  V30 3442 H 355.297 -1.32718 1.55715 0
M  V30 3443 H 355.307 -3.77369 1.55103 0
M  V30 3444 H 353.982 -3.26001 2.58256 0
M  V30 3445 H 352.559 -3.64397 0.791794 0
M  V30 3446 N 354.744 -0.972509 -1.24016 0
M  V30 3447 C 355.972 -0.654803 -1.96265 0
M  V30 3448 C 356.387 0.776708 -1.72083 0
M  V30 3449 O 355.744 1.52171 -1.00748 0
M  V30 3450 C 355.795 -0.92592 -3.49441 0
M  V30 3451 O 355.516 -2.30116 -3.72798 0
M  V30 3452 C 357.017 -0.623068 -4.38899 0
M  V30 3453 H 354.237 -0.243907 -0.6251 0
M  V30 3454 H 356.781 -1.30175 -1.57717 0
M  V30 3455 H 354.936 -0.325108 -3.86033 0
M  V30 3456 H 355.35 -2.38483 -4.67147 0
M  V30 3457 H 356.824 -0.863189 -5.45209 0
M  V30 3458 H 357.301 0.442754 -4.36963 0
M  V30 3459 H 357.907 -1.204 -4.07902 0
M  V30 3460 N 356.222 1.38976 -0.743202 0
M  V30 3461 C 357.185 2.28901 -0.117014 0
M  V30 3462 C 358.185 1.46698 0.658503 0
M  V30 3463 O 359.375 1.67274 0.486305 0
M  V30 3464 C 356.507 3.30309 0.84315 0
M  V30 3465 H 357.7 2.8578 -0.909373 0
M  V30 3466 H 355.253 1.47761 -0.509547 0
M  V30 3467 H 355.988 2.785 1.66157 0
M  V30 3468 H 355.773 3.91029 0.289594 0
M  V30 3469 H 357.263 3.97577 1.2776 0
M  V30 3470 N 357.7 0.491464 1.49741 0
M  V30 3471 C 358.928 -0.0535151 2.06831 0
M  V30 3472 C 359.343 -1.31683 1.35296 0
M  V30 3473 O 358.7 -1.77402 0.42836 0
M  V30 3474 C 358.751 -0.320835 3.60073 0
M  V30 3475 O 358.472 0.892394 4.28915 0
M  V30 3476 C 359.973 -0.910519 4.33848 0
M  V30 3477 H 357.193 0.0161909 0.670805 0
M  V30 3478 H 359.737 0.68609 1.92647 0
M  V30 3479 H 357.892 -1.0104 3.73991 0
M  V30 3480 H 358.306 0.649401 5.20464 0
M  V30 3481 H 359.78 -1.04721 5.41976 0
M  V30 3482 H 360.257 -1.90589 3.95692 0
M  V30 3483 H 360.863 -0.258712 4.24512 0
M  V30 3484 N 359.178 -1.55987 0.224894 0
M  V30 3485 C 360.11 -2.17722 -0.716224 0
M  V30 3486 C 361.123 -1.14723 -1.15509 0
M  V30 3487 O 362.312 -1.41688 -1.08567 0
M  V30 3488 C 359.412 -2.74873 -1.98238 0
M  V30 3489 C 358.585 -4.03074 -1.69853 0
M  V30 3490 C 357.644 -4.44757 -2.81208 0
M  V30 3491 O 356.67 -5.11587 -2.49534 0
M  V30 3492 N 357.872 -4.10716 -4.10235 0
M  V30 3493 H 360.637 -2.99109 -0.188123 0
M  V30 3494 H 358.198 -1.6184 0.0440123 0
M  V30 3495 H 360.19 -2.99727 -2.7193 0
M  V30 3496 H 358.76 -1.9777 -2.42086 0
M  V30 3497 H 357.98 -3.86041 -0.797875 0
M  V30 3498 H 359.268 -4.86701 -1.48324 0
M  V30 3499 H 358.666 -3.57019 -4.38809 0
M  V30 3500 H 357.223 -4.40455 -4.80461 0
M  V30 3501 N 360.656 0.0484629 -1.57525 0
M  V30 3502 C 361.589 1.08755 -2.00618 0
M  V30 3503 C 362.567 1.36272 -0.887058 0
M  V30 3504 O 363.751 1.49255 -1.15131 0
M  V30 3505 C 360.878 2.42675 -2.36277 0
M  V30 3506 C 359.924 2.31142 -3.58435 0
M  V30 3507 S 360.757 1.68326 -5.08357 0
M  V30 3508 C 361.913 3.03776 -5.47239 0
M  V30 3509 H 362.146 0.720415 -2.88439 0
M  V30 3510 H 359.679 0.257801 -1.52233 0
M  V30 3511 H 361.637 3.19699 -2.57494 0
M  V30 3512 H 360.298 2.76541 -1.48942 0
M  V30 3513 H 359.491 3.29957 -3.80978 0
M  V30 3514 H 359.093 1.62258 -3.36969 0
M  V30 3515 H 361.385 4.00106 -5.46737 0
M  V30 3516 H 362.328 2.85988 -6.47778 0
M  V30 3517 H 362.736 3.05456 -4.74718 0
M  V30 3518 N 362.134 1.5431 0.320358 0
M  V30 3519 C 363.097 1.83195 1.3774 0
M  V30 3520 C 364.097 0.703906 1.44575 0
M  V30 3521 O 365.287 0.972214 1.44546 0
M  V30 3522 C 362.419 1.99487 2.76438 0
M  V30 3523 H 363.612 2.77642 1.1338 0
M  V30 3524 H 361.165 1.46076 0.556012 0
M  V30 3525 H 361.9 1.07262 3.06048 0
M  V30 3526 H 361.685 2.81575 2.7287 0
M  V30 3527 H 363.175 2.23271 3.52902 0
M  V30 3528 N 363.613 -0.582584 1.46437 0
M  V30 3529 C 365.024 -1.1647 1.45916 0
M  V30 3530 C 365.375 -1.95177 0.200077 0
M  V30 3531 O 364.5 -2.04874 -0.696819 0
M  V30 3532 C 365.095 -2.11885 2.64367 0
M  V30 3533 C 363.654 -2.65421 2.66887 0
M  V30 3534 C 362.801 -1.41294 2.38603 0
M  V30 3535 H 365.752 -0.370514 1.54314 0
M  V30 3536 H 365.773 -2.9535 2.39892 0
M  V30 3537 H 365.285 -1.54573 3.5599 0
M  V30 3538 H 363.386 -3.26602 1.79338 0
M  V30 3539 H 363.499 -3.08147 3.66854 0
M  V30 3540 H 361.863 -1.71109 1.88663 0
M  V30 3541 H 362.646 -0.858125 3.32402 0
M  V30 3542 N 365.091 -1.34144 -0.827227 0
M  V30 3543 C 366.502 -1.23557 -1.39966 0
M  V30 3544 C 366.853 0.140731 -1.95695 0
M  V30 3545 O 365.978 1.04087 -1.89723 0
M  V30 3546 C 366.573 -2.23708 -2.54441 0
M  V30 3547 C 365.132 -2.16924 -3.07605 0
M  V30 3548 C 364.279 -2.10549 -1.80456 0
M  V30 3549 H 367.23 -1.45573 -0.631991 0
M  V30 3550 H 367.251 -1.85157 -3.32411 0
M  V30 3551 H 366.763 -3.23866 -2.13851 0
M  V30 3552 H 364.864 -1.20107 -3.52711 0
M  V30 3553 H 364.977 -3.07988 -3.66988 0
M  V30 3554 H 363.341 -1.56203 -2.01178 0
M  V30 3555 H 364.124 -3.12535 -1.42046 0
M  V30 3556 N 366.569 1.04691 -1.17803 0
M  V30 3557 C 367.817 1.7743 -0.967617 0
M  V30 3558 C 368.138 1.88359 0.504574 0
M  V30 3559 O 367.408 1.40402 1.36617 0
M  V30 3560 H 365.988 0.657242 -0.355024 0
M  V30 3561 H 368.65 1.2638 -1.48371 0
M  V30 3562 H 367.746 2.78924 -1.40027 0
M  V30 3563 N 368.047 0.979072 1.23499 0
M  V30 3564 C 369.295 0.645941 1.91499 0
M  V30 3565 C 369.616 -0.822948 1.76784 0
M  V30 3566 O 368.886 -1.58854 1.14639 0
M  V30 3567 H 367.466 0.235919 0.708767 0
M  V30 3568 H 370.128 1.2426 1.50152 0
M  V30 3569 H 369.224 0.896411 2.9895 0
M  V30 3570 N 369.525 -1.3858 0.750561 0
M  V30 3571 C 370.936 -1.82927 0.373438 0
M  V30 3572 C 371.287 -1.62634 -1.09748 0
M  V30 3573 O 370.412 -1.12588 -1.84805 0
M  V30 3574 C 371.007 -3.32088 0.671029 0
M  V30 3575 C 369.566 -3.74795 0.34722 0
M  V30 3576 C 368.713 -2.61391 0.92575 0
M  V30 3577 H 371.664 -1.27351 0.946958 0
M  V30 3578 H 371.685 -3.80465 -0.0518269 0
M  V30 3579 H 371.197 -3.46826 1.74164 0
M  V30 3580 H 369.298 -3.65638 -0.716933 0
M  V30 3581 H 369.411 -4.71667 0.840656 0
M  V30 3582 H 367.775 -2.52265 0.351327 0
M  V30 3583 H 368.558 -2.78929 2.00133 0
M  V30 3584 N 371.003 -0.499398 -1.49478 0
M  V30 3585 C 372.414 -0.051215 -1.8663 0
M  V30 3586 C 372.765 1.36238 -1.41186 0
M  V30 3587 O 371.89 2.01502 -0.789051 0
M  V30 3588 C 372.485 -0.0861651 -3.3869 0
M  V30 3589 C 371.044 0.30667 -3.75149 0
M  V30 3590 C 370.191 -0.459397 -2.73468 0
M  V30 3591 H 373.142 -0.712264 -1.41818 0
M  V30 3592 H 373.163 0.709507 -3.73826 0
M  V30 3593 H 372.675 -1.11512 -3.71735 0
M  V30 3594 H 370.776 1.33892 -3.47712 0
M  V30 3595 H 370.889 -0.0116669 -4.79099 0
M  V30 3596 H 369.253 0.0905645 -2.54539 0
M  V30 3597 H 370.036 -1.4884 -3.09357 0
M  V30 3598 N 372.481 1.55866 -0.233164 0
M  V30 3599 C 373.444 2.1953 0.658715 0
M  V30 3600 C 374.444 1.16053 1.11303 0
M  V30 3601 O 375.634 1.41218 1.01996 0
M  V30 3602 C 372.766 2.82791 1.90373 0
M  V30 3603 H 373.959 2.99721 0.10347 0
M  V30 3604 H 371.512 1.56291 0.0164245 0
M  V30 3605 H 372.247 2.06501 2.50056 0
M  V30 3606 H 372.032 3.58578 1.58632 0
M  V30 3607 H 373.522 3.31556 2.53891 0
M  V30 3608 N 373.959 -0.0401083 1.57549 0
M  V30 3609 C 374.922 -1.02871 2.04817 0
M  V30 3610 C 375.922 -1.29708 0.950388 0
M  V30 3611 O 377.112 -1.24897 1.21435 0
M  V30 3612 C 374.244 -2.36443 2.45576 0
M  V30 3613 H 375.437 -0.620631 2.93408 0
M  V30 3614 H 372.99 -0.286667 1.53649 0
M  V30 3615 H 373.725 -2.82021 1.60108 0
M  V30 3616 H 373.51 -2.18296 3.25713 0
M  V30 3617 H 375 -3.07441 2.82612 0
M  V30 3618 N 375.437 -1.54477 -0.31217 0
M  V30 3619 C 376.848 -1.64344 -0.885891 0
M  V30 3620 C 377.199 -0.54485 -1.88483 0
M  V30 3621 O 376.324 0.320387 -2.14015 0
M  V30 3622 C 376.919 -2.97908 -1.61357 0
M  V30 3623 C 375.478 -3.09933 -2.13585 0
M  V30 3624 C 374.625 -2.59971 -0.964897 0
M  V30 3625 H 377.576 -1.58448 -0.0894528 0
M  V30 3626 H 377.597 -2.88706 -2.47848 0
M  V30 3627 H 377.109 -3.77845 -0.886277 0
M  V30 3628 H 375.21 -2.34694 -2.89395 0
M  V30 3629 H 375.323 -4.15916 -2.37804 0
M  V30 3630 H 373.687 -2.16147 -1.34731 0
M  V30 3631 H 374.47 -3.42376 -0.251742 0
M  V30 3632 N 376.915 0.57481 -1.46744 0
M  V30 3633 C 378.326 1.15695 -1.46532 0
M  V30 3634 C 378.677 1.95068 -0.210425 0
M  V30 3635 O 377.802 2.05241 0.685944 0
M  V30 3636 C 378.397 2.1048 -2.65487 0
M  V30 3637 C 376.956 2.64002 -2.68291 0
M  V30 3638 C 376.103 1.40026 -2.39349 0
M  V30 3639 H 379.054 0.362325 -1.54509 0
M  V30 3640 H 379.075 2.94074 -2.41455 0
M  V30 3641 H 378.587 1.52683 -3.56805 0
M  V30 3642 H 376.688 3.25646 -1.81067 0
M  V30 3643 H 376.801 3.06197 -3.68483 0
M  V30 3644 H 375.165 1.70106 -1.89568 0
M  V30 3645 H 375.948 0.840485 -3.32852 0
M  V30 3646 N 378.394 1.34581 0.820102 0
M  V30 3647 C 379.642 1.26845 1.57336 0
M  V30 3648 C 379.963 -0.160667 1.94337 0
M  V30 3649 O 379.233 -1.09396 1.6251 0
M  V30 3650 H 377.813 0.466514 0.583415 0
M  V30 3651 H 380.475 1.68526 0.979027 0
M  V30 3652 H 379.571 1.87513 2.4949 0
M  V30 3653 N 379.872 -1.04064 1.18357 0
M  V30 3654 C 381.12 -1.76915 0.977013 0
M  V30 3655 C 381.441 -1.88624 -0.494577 0
M  V30 3656 O 380.711 -1.41125 -1.3587 0
M  V30 3657 H 379.291 -0.65535 0.358504 0
M  V30 3658 H 381.953 -1.25592 1.49039 0
M  V30 3659 H 381.049 -2.78178 1.41504 0
M  V30 3660 N 381.35 -0.985608 -1.22978 0
M  V30 3661 C 382.766 -0.695104 -1.43668 0
M  V30 3662 C 382.966 0.736866 -1.87543 0
M  V30 3663 O 382.022 1.50868 -2.02473 0
M  V30 3664 C 383.335 -1.69447 -2.48412 0
M  V30 3665 C 384.883 -1.70909 -2.62219 0
M  V30 3666 C 385.358 -2.6969 -3.70178 0
M  V30 3667 N 386.849 -2.6824 -3.77626 0
M  V30 3668 C 387.584 -3.41339 -4.60733 0
M  V30 3669 N 387.08 -4.24015 -5.4789 0
M  V30 3670 N 388.873 -3.30079 -4.54977 0
M  V30 3671 H 381.024 -1.91054 -0.928016 0
M  V30 3672 H 383.287 -0.823553 -0.469536 0
M  V30 3673 H 382.993 -2.7188 -2.23102 0
M  V30 3674 H 382.867 -1.48147 -3.46889 0
M  V30 3675 H 385.254 -0.691785 -2.86877 0
M  V30 3676 H 385.335 -1.96276 -1.6404 0
M  V30 3677 H 384.979 -3.71566 -3.46268 0
M  V30 3678 H 384.909 -2.41595 -4.67909 0
M  V30 3679 H 387.4 -2.08243 -3.15346 0
M  V30 3680 H 387.713 -4.76636 -6.08308 0
M  V30 3681 H 386.058 -4.28104 -5.47496 0
M  V30 3682 H 389.249 -2.64937 -3.85909 0
M  V30 3683 H 389.422 -3.87308 -5.19516 0
M  V30 3684 N 382.828 1.3818 -0.7579 0
M  V30 3685 C 384.076 1.99624 -0.315361 0
M  V30 3686 C 384.397 1.60464 1.10799 0
M  V30 3687 O 383.667 0.863507 1.75842 0
M  V30 3688 H 382.247 0.73831 -0.113611 0
M  V30 3689 H 384.909 1.68878 -0.972952 0
M  V30 3690 H 384.005 3.09754 -0.381931 0
M  V30 3691 N 384.306 0.507319 1.49211 0
M  V30 3692 C 385.256 -0.287112 2.26185 0
M  V30 3693 C 386.24 -0.929983 1.31302 0
M  V30 3694 O 387.432 -0.836538 1.55984 0
M  V30 3695 C 384.561 -1.34718 3.15763 0
M  V30 3696 C 383.647 -0.710235 4.18111 0
M  V30 3697 N 384.038 0.190836 5.0544 0
M  V30 3698 C 382.336 -0.97009 4.35322 0
M  V30 3699 C 383.037 0.55606 5.79036 0
M  V30 3700 N 382.013 -0.0775232 5.43545 0
M  V30 3701 H 385.815 0.406445 2.91076 0
M  V30 3702 H 383.329 0.323814 1.59139 0
M  V30 3703 H 385.326 -1.92982 3.69545 0
M  V30 3704 H 383.986 -2.04235 2.52424 0
M  V30 3705 H 384.997 0.562047 5.14841 0
M  V30 3706 H 381.674 -1.65753 3.83187 0
M  V30 3707 H 383.064 1.2936 6.5933 0
M  V30 3708 N 385.784 -1.5574 0.241426 0
M  V30 3709 C 387.009 -2.0366 -0.392111 0
M  V30 3710 C 387.434 -1.11969 -1.51144 0
M  V30 3711 O 386.792 -0.111594 -1.80956 0
M  V30 3712 C 386.84 -3.49638 -0.882371 0
M  V30 3713 O 385.944 -3.6108 -1.99235 0
M  V30 3714 H 385.285 -0.658379 -0.0862122 0
M  V30 3715 H 387.815 -2.01302 0.365881 0
M  V30 3716 H 387.825 -3.90351 -1.18702 0
M  V30 3717 H 386.5 -4.15852 -0.0632361 0
M  V30 3718 H 385.077 -3.32262 -1.69282 0
M  V30 3719 N 387.262 0.0317525 -1.57568 0
M  V30 3720 C 388.212 1.04101 -2.02847 0
M  V30 3721 C 389.196 1.3219 -0.917317 0
M  V30 3722 O 390.388 1.31819 -1.18121 0
M  V30 3723 C 387.517 2.34295 -2.5092 0
M  V30 3724 C 386.603 2.09308 -3.68851 0
M  V30 3725 N 386.994 1.5437 -4.81667 0
M  V30 3726 C 385.292 2.39604 -3.76172 0
M  V30 3727 C 385.993 1.45126 -5.63306 0
M  V30 3728 N 384.969 1.92589 -5.08341 0
M  V30 3729 H 388.771 0.610217 -2.87495 0
M  V30 3730 H 386.285 0.238108 -1.60645 0
M  V30 3731 H 388.282 3.07404 -2.81617 0
M  V30 3732 H 386.942 2.78055 -1.67677 0
M  V30 3733 H 387.953 1.22678 -5.03161 0
M  V30 3734 H 384.63 2.86457 -3.03724 0
M  V30 3735 H 386.02 1.03163 -6.63933 0
M  V30 3736 N 388.74 1.54641 0.303973 0
M  V30 3737 C 390.156 1.45788 0.649463 0
M  V30 3738 C 390.356 0.64666 1.90842 0
M  V30 3739 O 389.412 0.153183 2.52035 0
M  V30 3740 C 390.725 2.89718 0.805227 0
M  V30 3741 C 392.273 2.99742 0.901305 0
M  V30 3742 C 392.748 4.44863 1.08909 0
M  V30 3743 N 394.239 4.48559 1.15536 0
M  V30 3744 C 394.974 5.58026 1.3189 0
M  V30 3745 N 394.47 6.77422 1.45161 0
M  V30 3746 N 396.263 5.45708 1.34755 0
M  V30 3747 H 388.414 2.05854 -0.523237 0
M  V30 3748 H 390.677 0.932186 -0.172431 0
M  V30 3749 H 390.383 3.51666 -0.0489108 0
M  V30 3750 H 390.257 3.36964 1.69513 0
M  V30 3751 H 392.644 2.3791 1.74593 0
M  V30 3752 H 392.725 2.55797 -0.0125531 0
M  V30 3753 H 392.369 5.07288 0.249241 0
M  V30 3754 H 392.299 4.86436 2.01713 0
M  V30 3755 H 394.79 3.6254 1.06646 0
M  V30 3756 H 395.103 7.56604 1.57387 0
M  V30 3757 H 393.448 6.80292 1.42223 0
M  V30 3758 H 396.639 4.51378 1.23996 0
M  V30 3759 H 396.812 6.3107 1.47157 0
M  V30 3760 N 390.218 -0.567019 1.47046 0
M  V30 3761 C 391.495 -1.3276 1.43646 0
M  V30 3762 C 391.875 -2.1071 0.128186 0
M  V30 3763 O 391.223 -2.10441 -0.890326 0
M  V30 3764 C 391.433 -2.2404 2.67595 0
M  V30 3765 C 392.781 -2.85372 3.14401 0
M  V30 3766 O 393.805 -2.34346 2.68254 0
M  V30 3767 O 392.664 -3.78091 3.946 0
M  V30 3768 H 389.758 -0.597293 0.571988 0
M  V30 3769 H 392.304 -0.586735 1.59234 0
M  V30 3770 H 391.076 -1.65975 3.54356 0
M  V30 3771 H 390.699 -3.05439 2.54544 0
M  V30 3772 N 391.696 -1.35014 -0.812953 0
M  V30 3773 C 393.112 -1.14914 -1.10757 0
M  V30 3774 C 393.312 0.0426818 -2.01455 0
M  V30 3775 O 392.368 0.715212 -2.42159 0
M  V30 3776 C 393.681 -2.44911 -1.74468 0
M  V30 3777 C 395.229 -2.5106 -1.86917 0
M  V30 3778 C 395.704 -3.81085 -2.54044 0
M  V30 3779 N 397.195 -3.82301 -2.61535 0
M  V30 3780 C 397.93 -4.79634 -3.14227 0
M  V30 3781 N 397.426 -5.87353 -3.67407 0
M  V30 3782 N 399.219 -4.67078 -3.12721 0
M  V30 3783 H 391.37 -2.1136 -0.20989 0
M  V30 3784 H 393.633 -0.935128 -0.155692 0
M  V30 3785 H 393.339 -3.32267 -1.15289 0
M  V30 3786 H 393.213 -2.58989 -2.74234 0
M  V30 3787 H 395.6 -1.64137 -2.45241 0
M  V30 3788 H 395.681 -2.40901 -0.860242 0
M  V30 3789 H 395.325 -4.68402 -1.96372 0
M  V30 3790 H 395.255 -3.88529 -3.55461 0
M  V30 3791 H 397.746 -3.04465 -2.23851 0
M  V30 3792 H 398.059 -6.57624 -4.05894 0
M  V30 3793 H 396.404 -5.91054 -3.65623 0
M  V30 3794 H 399.595 -3.82067 -2.70449 0
M  V30 3795 H 399.768 -5.43098 -3.53481 0
M  V30 3796 N 393.175 1.03435 -1.18907 0
M  V30 3797 C 394.424 1.76143 -0.982669 0
M  V30 3798 C 394.737 1.89416 0.487953 0
M  V30 3799 O 395.943 2.59041 0.813036 0
M  V30 3800 C 394.399 3.16722 -1.70924 0
M  V30 3801 C 394.007 3.11522 -3.21959 0
M  V30 3802 C 395.751 3.93764 -1.58588 0
M  V30 3803 C 393.658 4.46999 -3.87228 0
M  V30 3804 H 392.588 0.660292 -0.364047 0
M  V30 3805 H 395.239 1.158 -1.42347 0
M  V30 3806 H 393.621 3.775 -1.19623 0
M  V30 3807 H 394.795 2.60158 -3.80335 0
M  V30 3808 H 393.11 2.47978 -3.34508 0
M  V30 3809 H 395.707 4.93963 -2.04707 0
M  V30 3810 H 396.05 4.12794 -0.539142 0
M  V30 3811 H 396.583 3.39576 -2.07203 0
M  V30 3812 H 393.322 4.33174 -4.91976 0
M  V30 3813 H 392.842 4.98441 -3.33642 0
M  V30 3814 H 394.521 5.15898 -3.90459 0
M  V30 3815 N 394.653 0.992116 1.22453 0
M  V30 3816 C 395.603 0.512969 2.22155 0
M  V30 3817 C 396.587 -0.418416 1.55364 0
M  V30 3818 O 397.779 -0.245363 1.75291 0
M  V30 3819 C 394.908 -0.171822 3.4287 0
M  V30 3820 C 393.994 0.779822 4.16869 0
M  V30 3821 N 394.385 1.92734 4.6764 0
M  V30 3822 C 392.683 0.59554 4.42006 0
M  V30 3823 C 393.384 2.52458 5.24061 0
M  V30 3824 N 392.36 1.80735 5.12675 0
M  V30 3825 H 396.162 1.38817 2.5905 0
M  V30 3826 H 393.676 0.854277 1.38115 0
M  V30 3827 H 395.673 -0.532469 4.13486 0
M  V30 3828 H 394.333 -1.04317 3.07487 0
M  V30 3829 H 395.344 2.30816 4.63621 0
M  V30 3830 H 392.021 -0.229805 4.16867 0
M  V30 3831 H 393.411 3.49433 5.73887 0
M  V30 3832 N 396.131 -1.37776 0.765217 0
M  V30 3833 C 397.361 -2.03828 0.337277 0
M  V30 3834 C 397.769 -1.57841 -1.04321 0
M  V30 3835 O 397.112 -0.752043 -1.67601 0
M  V30 3836 C 397.174 -3.58292 0.294407 0
M  V30 3837 C 396.838 -4.27384 1.61838 0
M  V30 3838 C 397.835 -4.51956 2.56967 0
M  V30 3839 C 395.52 -4.65345 1.89102 0
M  V30 3840 C 397.514 -5.13536 3.77571 0
M  V30 3841 C 395.201 -5.26647 3.09978 0
M  V30 3842 C 396.199 -5.50679 4.04032 0
M  V30 3843 O 395.887 -6.10702 5.2278 0
M  V30 3844 H 395.619 -0.661292 0.140248 0
M  V30 3845 H 398.173 -1.77222 1.03834 0
M  V30 3846 H 396.403 -3.83918 -0.462983 0
M  V30 3847 H 398.092 -4.05763 -0.105581 0
M  V30 3848 H 398.858 -4.23048 2.37183 0
M  V30 3849 H 394.737 -4.45978 1.16725 0
M  V30 3850 H 398.281 -5.3221 4.50997 0
M  V30 3851 H 394.178 -5.54979 3.29649 0
M  V30 3852 H 394.946 -6.29183 5.23517 0
M  V30 3853 N 397.609 -0.515225 -1.4894 0
M  V30 3854 C 398.541 0.292481 -2.27326 0
M  V30 3855 C 399.554 0.917838 -1.3446 0
M  V30 3856 O 400.743 0.798772 -1.5963 0
M  V30 3857 C 397.843 1.42803 -3.07344 0
M  V30 3858 C 397.016 0.907347 -4.27885 0
M  V30 3859 C 396.075 1.92222 -4.89834 0
M  V30 3860 O 395.101 1.48506 -5.49486 0
M  V30 3861 N 396.303 3.25355 -4.80754 0
M  V30 3862 H 399.068 -0.379721 -2.97285 0
M  V30 3863 H 396.629 -0.348638 -1.58102 0
M  V30 3864 H 398.621 2.10481 -3.45658 0
M  V30 3865 H 397.191 2.00414 -2.39902 0
M  V30 3866 H 396.411 0.0550218 -3.94162 0
M  V30 3867 H 397.699 0.538108 -5.05946 0
M  V30 3868 H 397.097 3.6355 -4.33414 0
M  V30 3869 H 395.654 3.88707 -5.23211 0
M  V30 3870 N 399.087 1.5561 -0.249682 0
M  V30 3871 C 400.05 2.20217 0.635394 0
M  V30 3872 C 401.05 1.17227 1.10066 0
M  V30 3873 O 402.24 1.42292 1.00492 0
M  V30 3874 C 399.372 2.84794 1.87363 0
M  V30 3875 H 400.565 2.99814 0.0716752 0
M  V30 3876 H 398.118 1.563 -0.000153234 0
M  V30 3877 H 398.853 2.09142 2.47851 0
M  V30 3878 H 398.638 3.60241 1.5482 0
M  V30 3879 H 400.128 3.3423 2.5036 0
M  V30 3880 N 400.565 -0.0233959 1.57583 0
M  V30 3881 C 401.842 -0.748794 1.807 0
M  V30 3882 C 402.222 -1.9327 0.849106 0
M  V30 3883 O 401.57 -2.28247 -0.107468 0
M  V30 3884 C 401.78 -1.17651 3.28571 0
M  V30 3885 C 403.128 -1.59008 3.93702 0
M  V30 3886 O 404.152 -1.27094 3.32755 0
M  V30 3887 O 403.011 -2.18264 5.01022 0
M  V30 3888 H 400.105 -0.362578 0.743281 0
M  V30 3889 H 402.651 0.000261958 1.697 0
M  V30 3890 H 401.423 -0.331603 3.89892 0
M  V30 3891 H 401.046 -1.98541 3.44481 0
M  V30 3892 N 402.043 -1.548 -0.295768 0
M  V30 3893 C 403.289 -1.74588 -1.03184 0
M  V30 3894 C 403.622 -0.532962 -1.86744 0
M  V30 3895 O 402.897 0.469872 -1.88739 0
M  V30 3896 C 403.18 -3.03791 -1.93347 0
M  V30 3897 C 403.033 -4.35392 -1.12933 0
M  V30 3898 C 404.352 -3.28892 -2.92435 0
M  V30 3899 H 401.471 -0.635221 -0.373715 0
M  V30 3900 H 404.113 -1.87519 -0.30606 0
M  V30 3901 H 402.263 -2.92898 -2.55232 0
M  V30 3902 H 403.935 -4.58211 -0.532943 0
M  V30 3903 H 402.178 -4.31642 -0.432168 0
M  V30 3904 H 402.849 -5.22074 -1.79284 0
M  V30 3905 H 405.325 -3.39429 -2.4068 0
M  V30 3906 H 404.201 -4.20603 -3.52682 0
M  V30 3907 H 404.462 -2.47437 -3.6637 0
M  V30 3908 N 403.521 0.559213 -1.47345 0
M  V30 3909 C 404.937 0.884943 -1.32819 0
M  V30 3910 C 405.137 1.98988 -0.317173 0
M  V30 3911 O 404.193 2.51031 0.272011 0
M  V30 3912 C 405.506 1.28007 -2.72093 0
M  V30 3913 C 407.054 1.39161 -2.80363 0
M  V30 3914 C 407.529 1.82031 -4.20272 0
M  V30 3915 N 409.02 1.89185 -4.22804 0
M  V30 3916 C 409.755 2.2368 -5.27973 0
M  V30 3917 N 409.251 2.56802 -6.43447 0
M  V30 3918 N 411.044 2.24436 -5.15349 0
M  V30 3919 H 403.195 -0.170304 -2.11716 0
M  V30 3920 H 405.458 -0.0135247 -0.947904 0
M  V30 3921 H 405.164 0.542027 -3.47498 0
M  V30 3922 H 405.038 2.23665 -3.03733 0
M  V30 3923 H 407.425 2.12048 -2.05231 0
M  V30 3924 H 407.506 0.41696 -2.52379 0
M  V30 3925 H 407.15 1.09715 -4.95908 0
M  V30 3926 H 407.08 2.80495 -4.45679 0
M  V30 3927 H 409.571 1.65982 -3.39497 0
M  V30 3928 H 409.884 2.82144 -7.19454 0
M  V30 3929 H 408.229 2.54387 -6.46771 0
M  V30 3930 H 411.42 1.97998 -4.24163 0
M  V30 3931 H 411.593 2.50989 -5.97418 0
M  V30 3932 N 404.999 1.35443 0.805782 0
M  V30 3933 C 405.929 1.31095 1.93226 0
M  V30 3934 C 406.91 0.185244 1.69088 0
M  V30 3935 O 408.095 0.380332 1.90439 0
M  V30 3936 C 405.225 1.08299 3.29983 0
M  V30 3937 C 404.179 2.17519 3.68605 0
M  V30 3938 C 403.505 1.79887 5.03532 0
M  V30 3939 C 404.805 3.5949 3.78898 0
M  V30 3940 H 406.499 2.25352 1.97122 0
M  V30 3941 H 404.045 1.0848 0.946996 0
M  V30 3942 H 405.998 1.03897 4.08391 0
M  V30 3943 H 404.722 0.104885 3.26432 0
M  V30 3944 H 403.381 2.2102 2.92482 0
M  V30 3945 H 403.029 0.80693 4.96485 0
M  V30 3946 H 402.729 2.53001 5.30344 0
M  V30 3947 H 404.253 1.77011 5.84379 0
M  V30 3948 H 405.667 3.58307 4.47536 0
M  V30 3949 H 404.064 4.31371 4.1718 0
M  V30 3950 H 405.134 3.95584 2.80431 0
M  V30 3951 N 406.477 -1.02803 1.19454 0
M  V30 3952 C 407.387 -2.14575 0.948408 0
M  V30 3953 C 408.403 -1.73757 -0.091871 0
M  V30 3954 O 409.579 -2.01185 0.0929654 0
M  V30 3955 C 406.644 -3.43202 0.491265 0
M  V30 3956 C 405.705 -3.98328 1.60103 0
M  V30 3957 C 404.938 -5.20816 1.16561 0
M  V30 3958 O 405.161 -5.70392 0.0295238 0
M  V30 3959 O 404.095 -5.68801 1.96849 0
M  V30 3960 H 407.921 -2.38202 1.88397 0
M  V30 3961 H 405.506 -1.12989 0.977433 0
M  V30 3962 H 407.388 -4.20687 0.245015 0
M  V30 3963 H 406.063 -3.21018 -0.415851 0
M  V30 3964 H 404.97 -3.22174 1.90144 0
M  V30 3965 H 406.303 -4.24879 2.48473 0
M  V30 3966 N 407.956 -0.998596 -1.21925 0
M  V30 3967 C 408.919 -0.558679 -2.22287 0
M  V30 3968 C 409.919 0.361525 -1.56683 0
M  V30 3969 O 411.109 0.152695 -1.73529 0
M  V30 3970 C 408.241 0.18661 -3.40389 0
M  V30 3971 H 409.434 -1.4463 -2.62721 0
M  V30 3972 H 406.987 -0.786413 -1.35075 0
M  V30 3973 H 407.722 1.08996 -3.05435 0
M  V30 3974 H 407.507 -0.474188 -3.89222 0
M  V30 3975 H 408.997 0.482367 -4.14805 0
M  V30 3976 N 409.434 1.37368 -0.772513 0
M  V30 3977 C 410.662 2.03942 -0.348588 0
M  V30 3978 C 411.077 1.58264 1.02947 0
M  V30 3979 O 410.434 0.764246 1.65727 0
M  V30 3980 C 410.485 3.5946 -0.38351 0
M  V30 3981 O 410.206 4.03468 -1.70721 0
M  V30 3982 C 411.707 4.4327 0.0519152 0
M  V30 3983 H 408.927 0.654931 -0.145966 0
M  V30 3984 H 411.471 1.75686 -1.04665 0
M  V30 3985 H 409.626 3.86486 0.265978 0
M  V30 3986 H 410.04 4.97991 -1.64636 0
M  V30 3987 H 411.514 5.51995 -0.0236733 0
M  V30 3988 H 411.991 4.2514 1.10238 0
M  V30 3989 H 412.597 4.21471 -0.569415 0
M  V30 3990 N 410.912 0.523116 1.48665 0
M  V30 3991 C 411.822 -0.247406 2.33292 0
M  V30 3992 C 412.838 -0.945769 1.46052 0
M  V30 3993 O 414.014 -0.922253 1.79043 0
M  V30 3994 C 411.079 -1.28487 3.22012 0
M  V30 3995 C 410.14 -0.597592 4.2512 0
M  V30 3996 C 409.373 -1.58563 5.09601 0
M  V30 3997 O 409.596 -2.81763 4.95949 0
M  V30 3998 O 408.53 -1.12879 5.91221 0
M  V30 3999 H 412.356 0.445869 3.00409 0
M  V30 4000 H 409.941 0.284128 1.46673 0
M  V30 4001 H 411.823 -1.88459 3.7691 0
M  V30 4002 H 410.498 -1.96068 2.57564 0
M  V30 4003 H 409.405 0.0424407 3.74076 0
M  V30 4004 H 410.738 0.0361517 4.92187 0
M  V30 4005 N 412.39 -1.55475 0.257931 0
M  V30 4006 C 413.3 -2.2549 -0.647425 0
M  V30 4007 C 414.316 -1.2748 -1.18427 0
M  V30 4008 O 415.492 -1.6038 -1.2182 0
M  V30 4009 C 412.557 -2.94916 -1.82278 0
M  V30 4010 C 411.618 -4.08363 -1.32432 0
M  V30 4011 C 410.851 -4.74469 -2.44366 0
M  V30 4012 O 411.074 -4.39701 -3.63344 0
M  V30 4013 O 410.008 -5.62763 -2.13497 0
M  V30 4014 H 413.834 -3.03593 -0.0807707 0
M  V30 4015 H 411.419 -1.49377 0.0259962 0
M  V30 4016 H 413.301 -3.38606 -2.50846 0
M  V30 4017 H 411.976 -2.19744 -2.37685 0
M  V30 4018 H 410.883 -3.69166 -0.605605 0
M  V30 4019 H 412.216 -4.85385 -0.816211 0
M  V30 4020 N 413.868 0.0150385 -1.57593 0
M  V30 4021 C 415.117 0.702115 -1.89085 0
M  V30 4022 C 415.43 1.75764 -0.858277 0
M  V30 4023 O 416.636 2.49829 -1.0629 0
M  V30 4024 C 415.092 1.29992 -3.35604 0
M  V30 4025 C 414.7 0.280007 -4.47124 0
M  V30 4026 C 416.444 1.96606 -3.76227 0
M  V30 4027 C 414.351 0.886949 -5.84711 0
M  V30 4028 H 413.281 0.265997 -0.705522 0
M  V30 4029 H 415.932 -0.0430408 -1.8345 0
M  V30 4030 H 414.314 2.09525 -3.36029 0
M  V30 4031 H 415.488 -0.489631 -4.58191 0
M  V30 4032 H 413.803 -0.284835 -4.15425 0
M  V30 4033 H 416.4 2.42893 -4.76347 0
M  V30 4034 H 416.743 2.79024 -3.08952 0
M  V30 4035 H 417.276 1.23828 -3.78036 0
M  V30 4036 H 414.015 0.101876 -6.55421 0
M  V30 4037 H 413.535 1.6261 -5.77337 0
M  V30 4038 H 415.214 1.39011 -6.3189 0
M  V30 4039 N 415.346 1.54954 0.287554 0
M  V30 4040 C 416.576 1.78622 1.03816 0
M  V30 4041 C 416.984 0.552451 1.80955 0
M  V30 4042 O 416.327 -0.487665 1.77109 0
M  V30 4043 C 416.389 2.94975 2.055 0
M  V30 4044 C 416.053 4.32565 1.47433 0
M  V30 4045 C 417.05 5.12096 0.897436 0
M  V30 4046 C 414.735 4.79195 1.50591 0
M  V30 4047 C 416.729 6.36383 0.359851 0
M  V30 4048 C 414.416 6.03441 0.964459 0
M  V30 4049 C 415.414 6.81872 0.392413 0
M  V30 4050 O 415.102 8.03777 -0.140788 0
M  V30 4051 H 414.834 0.599144 0.313053 0
M  V30 4052 H 417.388 2.02761 0.328225 0
M  V30 4053 H 415.618 2.66493 2.80211 0
M  V30 4054 H 417.307 3.06097 2.6657 0
M  V30 4055 H 418.073 4.77209 0.865841 0
M  V30 4056 H 413.952 4.18167 1.94055 0
M  V30 4057 H 417.496 6.97545 -0.0872951 0
M  V30 4058 H 413.393 6.37813 0.993246 0
M  V30 4059 H 414.161 8.18495 -0.0287617 0
M  V30 4060 N 416.824 -0.551391 1.4764 0
M  V30 4061 C 417.754 -1.66757 1.63445 0
M  V30 4062 C 418.735 -1.63077 0.483742 0
M  V30 4063 O 419.92 -1.80607 0.71377 0
M  V30 4064 C 417.05 -3.05387 1.65396 0
M  V30 4065 C 416.004 -3.23918 2.79752 0
M  V30 4066 C 415.33 -4.63393 2.66779 0
M  V30 4067 C 416.63 -3.08735 4.21284 0
M  V30 4068 H 418.324 -1.53786 2.56886 0
M  V30 4069 H 415.87 -0.738415 1.23626 0
M  V30 4070 H 417.823 -3.83325 1.75043 0
M  V30 4071 H 416.547 -3.19332 0.685195 0
M  V30 4072 H 415.206 -2.48391 2.69625 0
M  V30 4073 H 414.854 -4.74144 1.67918 0
M  V30 4074 H 414.554 -4.7674 3.43501 0
M  V30 4075 H 416.078 -5.43458 2.78364 0
M  V30 4076 H 417.492 -3.76484 4.32357 0
M  V30 4077 H 415.889 -3.33588 4.98838 0
M  V30 4078 H 416.959 -2.0541 4.39243 0
M  V30 4079 N 418.302 -1.35869 -0.798587 0
M  V30 4080 C 419.53 -1.32722 -1.58722 0
M  V30 4081 C 419.945 0.0935631 -1.88568 0
M  V30 4082 O 419.302 1.04784 -1.49421 0
M  V30 4083 C 419.353 -2.13974 -2.91371 0
M  V30 4084 O 419.074 -3.50514 -2.62815 0
M  V30 4085 C 420.575 -2.18504 -3.85708 0
M  V30 4086 H 417.795 -0.45562 -0.492596 0
M  V30 4087 H 420.339 -1.78837 -0.991843 0
M  V30 4088 H 418.494 -1.71438 -3.47402 0
M  V30 4089 H 418.908 -3.92806 -3.47568 0
M  V30 4090 H 420.382 -2.79732 -4.75872 0
M  V30 4091 H 420.859 -1.18597 -4.22885 0
M  V30 4092 H 421.465 -2.61236 -3.35612 0
M  V30 4093 N 419.78 1.02168 -1.19998 0
M  V30 4094 C 421.191 1.57135 -1.00825 0
M  V30 4095 C 421.542 1.91276 0.436818 0
M  V30 4096 O 420.667 1.71679 1.3174 0
M  V30 4097 C 421.262 2.85514 -1.82393 0
M  V30 4098 C 419.821 3.37027 -1.67601 0
M  V30 4099 C 418.968 2.10388 -1.80644 0
M  V30 4100 H 421.919 0.846106 -1.34264 0
M  V30 4101 H 421.94 3.56711 -1.32429 0
M  V30 4102 H 421.452 2.60634 -2.87561 0
M  V30 4103 H 419.553 3.66878 -0.650485 0
M  V30 4104 H 419.666 4.09572 -2.4857 0
M  V30 4105 H 418.03 2.22601 -1.23778 0
M  V30 4106 H 418.813 1.8794 -2.87286 0
M  V30 4107 N 421.258 1.00505 1.21394 0
M  V30 4108 C 422.504 0.688793 1.90745 0
M  V30 4109 C 422.837 -0.778486 1.77914 0
M  V30 4110 O 422.112 -1.56433 1.15581 0
M  V30 4111 C 422.395 1.11063 3.42545 0
M  V30 4112 C 422.248 2.63737 3.64367 0
M  V30 4113 C 423.567 0.673059 4.34923 0
M  V30 4114 H 420.686 0.251702 0.692687 0
M  V30 4115 H 423.328 1.25074 1.43026 0
M  V30 4116 H 421.478 0.632508 3.83317 0
M  V30 4117 H 423.15 3.19313 3.32922 0
M  V30 4118 H 421.393 3.05248 3.08231 0
M  V30 4119 H 422.064 2.88305 4.70727 0
M  V30 4120 H 424.54 1.08392 4.01734 0
M  V30 4121 H 423.416 0.996383 5.39781 0
M  V30 4122 H 423.677 -0.425808 4.40045 0
M  V30 4123 N 422.737 -1.36956 0.779787 0
M  V30 4124 C 423.669 -2.28833 0.129639 0
M  V30 4125 C 424.682 -1.4902 -0.655511 0
M  V30 4126 O 425.871 -1.71578 -0.492279 0
M  V30 4127 C 422.971 -3.2833 -0.839792 0
M  V30 4128 C 422.144 -4.3727 -0.10675 0
M  V30 4129 C 421.203 -5.16789 -0.990717 0
M  V30 4130 O 420.229 -5.67406 -0.451516 0
M  V30 4131 N 421.431 -5.32294 -2.3161 0
M  V30 4132 H 424.196 -2.85268 0.918803 0
M  V30 4133 H 421.757 -1.49019 0.632841 0
M  V30 4134 H 423.749 -3.78413 -1.43477 0
M  V30 4135 H 422.319 -2.72605 -1.52988 0
M  V30 4136 H 421.539 -3.88478 0.669216 0
M  V30 4137 H 422.827 -5.07229 0.399464 0
M  V30 4138 H 422.225 -4.92768 -2.77843 0
M  V30 4139 H 420.782 -5.85656 -2.86095 0
M  V30 4140 N 424.215 -0.530993 -1.48385 0
M  V30 4141 C 425.631 -0.188919 -1.58478 0
M  V30 4142 C 425.831 1.30786 -1.53288 0
M  V30 4143 O 424.887 2.08619 -1.42248 0
M  V30 4144 C 426.2 -0.792343 -2.90073 0
M  V30 4145 C 427.748 -0.76117 -3.03604 0
M  V30 4146 C 428.223 -1.34319 -4.37861 0
M  V30 4147 N 429.714 -1.3052 -4.44431 0
M  V30 4148 C 430.449 -1.72543 -5.46824 0
M  V30 4149 N 429.945 -2.22299 -6.56167 0
M  V30 4150 N 431.738 -1.63773 -5.37712 0
M  V30 4151 H 423.889 -1.50377 -1.50002 0
M  V30 4152 H 426.152 -0.625559 -0.712306 0
M  V30 4153 H 425.858 -1.84323 -2.99529 0
M  V30 4154 H 425.732 -0.270026 -3.76232 0
M  V30 4155 H 428.119 0.280957 -2.93759 0
M  V30 4156 H 428.2 -1.32097 -2.19053 0
M  V30 4157 H 427.844 -2.38425 -4.4846 0
M  V30 4158 H 427.774 -0.759064 -5.21101 0
M  V30 4159 H 430.265 -0.940973 -3.65997 0
M  V30 4160 H 430.578 -2.52356 -7.30436 0
M  V30 4161 H 428.923 -2.26293 -6.57127 0
M  V30 4162 H 432.114 -1.24698 -4.51185 0
M  V30 4163 H 432.287 -1.96844 -6.17379 0
M  V30 4164 N 425.693 1.55336 -0.266172 0
M  V30 4165 C 427.104 1.85236 0.233315 0
M  V30 4166 C 427.455 1.18816 1.56132 0
M  V30 4167 O 426.58 0.473307 2.11161 0
M  V30 4168 C 427.175 3.36059 0.430113 0
M  V30 4169 C 425.734 3.66116 0.873842 0
M  V30 4170 C 424.881 2.77274 -0.0380016 0
M  V30 4171 H 427.832 1.51004 -0.488214 0
M  V30 4172 H 427.853 3.58681 1.26998 0
M  V30 4173 H 427.365 3.84373 -0.536588 0
M  V30 4174 H 425.466 3.23295 1.85233 0
M  V30 4175 H 425.579 4.73699 0.717358 0
M  V30 4176 H 423.943 2.50198 0.476759 0
M  V30 4177 H 424.726 3.284 -1.00042 0
M  V30 4178 N 427.171 -0.0066808 1.57599 0
M  V30 4179 C 428.582 -0.550379 1.78403 0
M  V30 4180 C 428.933 -1.74339 0.900014 0
M  V30 4181 O 428.058 -2.16166 0.100713 0
M  V30 4182 C 428.653 -1.00523 3.23544 0
M  V30 4183 C 427.212 -1.49428 3.45468 0
M  V30 4184 C 426.359 -0.442444 2.73748 0
M  V30 4185 H 429.31 0.219508 1.57175 0
M  V30 4186 H 429.331 -1.87157 3.31289 0
M  V30 4187 H 428.843 -0.136735 3.87859 0
M  V30 4188 H 426.944 -2.3839 2.86358 0
M  V30 4189 H 427.057 -1.52635 4.54136 0
M  V30 4190 H 425.421 -0.902578 2.38171 0
M  V30 4191 H 426.204 0.416973 3.40758 0
M  V30 4192 N 428.649 -1.55105 -0.279332 0
M  V30 4193 C 429.926 -1.66119 -1.03267 0
M  V30 4194 C 430.306 -0.523525 -2.04505 0
M  V30 4195 O 429.654 0.477194 -2.23462 0
M  V30 4196 C 429.864 -3.05067 -1.69515 0
M  V30 4197 C 431.212 -3.62606 -2.20912 0
M  V30 4198 O 432.236 -3.07659 -1.79512 0
M  V30 4199 O 431.095 -4.58861 -2.96831 0
M  V30 4200 H 428.189 -0.674429 -0.478618 0
M  V30 4201 H 430.735 -1.67446 -0.275694 0
M  V30 4202 H 429.507 -3.79311 -0.9612 0
M  V30 4203 H 429.13 -3.07611 -2.51915 0
M  V30 4204 N 430.127 0.543554 -1.4793 0
M  V30 4205 C 431.09 1.63156 -1.60975 0
M  V30 4206 C 432.09 1.53346 -0.483899 0
M  V30 4207 O 433.28 1.5726 -0.749339 0
M  V30 4208 C 430.412 3.02743 -1.56716 0
M  V30 4209 H 431.605 1.52934 -2.57975 0
M  V30 4210 H 429.158 0.764557 -1.36324 0
M  V30 4211 H 429.893 3.18484 -0.611418 0
M  V30 4212 H 429.678 3.11272 -2.38438 0
M  V30 4213 H 431.168 3.81871 -1.6901 0
M  V30 4214 N 431.605 1.3629 0.791371 0
M  V30 4215 C 432.568 1.30309 1.88553 0
M  V30 4216 C 433.568 0.211204 1.59407 0
M  V30 4217 O 434.758 0.465865 1.67855 0
M  V30 4218 C 431.89 1.01956 3.25297 0
M  V30 4219 H 433.083 2.27614 1.95273 0
M  V30 4220 H 430.636 1.21035 0.988953 0
M  V30 4221 H 431.371 0.050998 3.2426 0
M  V30 4222 H 431.156 1.80968 3.4784 0
M  V30 4223 H 432.646 1.0037 4.05359 0
M  V30 4224 N 433.083 -1.0153 1.20538 0
M  V30 4225 C 433.993 -2.13557 0.971113 0
M  V30 4226 C 435.009 -1.73845 -0.0734366 0
M  V30 4227 O 436.185 -2.01075 0.114299 0
M  V30 4228 C 433.25 -3.42661 0.527639 0
M  V30 4229 C 432.311 -3.96608 1.64319 0
M  V30 4230 C 431.544 -5.1955 1.22078 0
M  V30 4231 O 431.767 -5.70329 0.0900198 0
M  V30 4232 O 430.701 -5.66681 2.02871 0
M  V30 4233 H 434.527 -2.3619 1.90913 0
M  V30 4234 H 432.112 -1.11946 0.989362 0
M  V30 4235 H 433.994 -4.20404 0.289621 0
M  V30 4236 H 432.669 -3.21441 -0.381779 0
M  V30 4237 H 431.576 -3.20139 1.93551 0
M  V30 4238 H 432.909 -4.22219 2.52966 0
M  V30 4239 N 434.561 -1.01147 -1.20859 0
M  V30 4240 C 435.972 -0.730205 -1.71828 0
M  V30 4241 C 436.323 0.751662 -1.8123 0
M  V30 4242 O 435.448 1.58686 -1.47132 0
M  V30 4243 C 436.043 -1.31885 -3.12077 0
M  V30 4244 C 434.602 -1.08656 -3.60376 0
M  V30 4245 C 433.749 -1.42769 -2.37723 0
M  V30 4246 H 436.7 -1.18158 -1.05945 0
M  V30 4247 H 436.721 -0.706793 -3.73878 0
M  V30 4248 H 436.233 -2.39737 -3.05201 0
M  V30 4249 H 434.334 -0.0254814 -3.72591 0
M  V30 4250 H 434.447 -1.76301 -4.45483 0
M  V30 4251 H 432.811 -0.846603 -2.40218 0
M  V30 4252 H 433.594 -2.51666 -2.33493 0
M  V30 4253 N 436.039 1.36541 -0.78704 0
M  V30 4254 C 437.267 2.03561 -0.370199 0
M  V30 4255 C 437.682 1.59347 1.01263 0
M  V30 4256 O 437.039 0.781781 1.64907 0
M  V30 4257 C 437.09 3.59033 -0.421614 0
M  V30 4258 O 436.811 4.01634 -1.7499 0
M  V30 4259 C 438.312 4.433 0.00489763 0
M  V30 4260 H 435.532 0.653346 -0.152904 0
M  V30 4261 H 438.076 1.74566 -1.06522 0
M  V30 4262 H 436.231 3.86746 0.224971 0
M  V30 4263 H 436.645 4.96217 -1.69909 0
M  V30 4264 H 438.119 5.51939 -0.0822184 0
M  V30 4265 H 438.596 4.26285 1.05723 0
M  V30 4266 H 439.202 4.20843 -0.614085 0
M  V30 4267 N 437.518 0.538854 1.48102 0
M  V30 4268 C 438.743 0.0102694 2.07397 0
M  V30 4269 C 439.168 -1.26562 1.39153 0
M  V30 4270 O 438.526 -1.75357 0.460387 0
M  V30 4271 C 438.574 -0.187602 3.60112 0
M  V30 4272 O 437.678 -1.25432 3.92862 0
M  V30 4273 H 437.019 0.0430975 0.6626 0
M  V30 4274 H 439.549 0.749301 1.90385 0
M  V30 4275 H 439.559 -0.407517 4.0596 0
M  V30 4276 H 438.234 0.744386 4.09184 0
M  V30 4277 H 436.811 -1.01636 3.58782 0
M  V30 4278 N 438.996 -1.55193 0.274407 0
M  V30 4279 C 439.959 -2.212 -0.600279 0
M  V30 4280 C 440.959 -1.18963 -1.08187 0
M  V30 4281 O 442.149 -1.43873 -0.982158 0
M  V30 4282 C 439.281 -2.87739 -1.82809 0
M  V30 4283 H 440.474 -2.9989 -0.0239682 0
M  V30 4284 H 438.027 -1.5628 0.0250192 0
M  V30 4285 H 438.762 -2.13058 -2.44493 0
M  V30 4286 H 438.547 -3.62658 -1.49069 0
M  V30 4287 H 440.037 -3.38171 -2.45011 0
M  V30 4288 N 440.474 -0.00167713 -1.576 0
M  V30 4289 C 441.721 0.68282 -1.90641 0
M  V30 4290 C 442.049 1.73686 -0.875415 0
M  V30 4291 O 441.304 1.95334 0.119575 0
M  V30 4292 C 441.603 1.36189 -3.30435 0
M  V30 4293 C 441.269 0.440887 -4.48739 0
M  V30 4294 C 439.931 0.187312 -4.80835 0
M  V30 4295 C 442.283 -0.193134 -5.20842 0
M  V30 4296 C 439.611 -0.70855 -5.82406 0
M  V30 4297 C 441.963 -1.07688 -6.23367 0
M  V30 4298 C 440.627 -1.33962 -6.53919 0
M  V30 4299 H 439.897 0.249862 -0.697603 0
M  V30 4300 H 442.544 -0.0575642 -1.91413 0
M  V30 4301 H 440.849 2.17636 -3.25794 0
M  V30 4302 H 442.546 1.89759 -3.5326 0
M  V30 4303 H 439.136 0.648694 -4.23663 0
M  V30 4304 H 443.32 -0.0102445 -4.96299 0
M  V30 4305 H 438.576 -0.920097 -6.04437 0
M  V30 4306 H 442.75 -1.57451 -6.78367 0
M  V30 4307 H 440.377 -2.03549 -7.32442 0
M  V30 4308 N 441.952 1.55251 0.271103 0
M  V30 4309 C 442.882 1.9127 1.33933 0
M  V30 4310 C 443.863 0.77478 1.5143 0
M  V30 4311 O 445.048 1.03307 1.64442 0
M  V30 4312 C 442.178 2.18627 2.69851 0
M  V30 4313 C 441.132 3.34442 2.67081 0
M  V30 4314 C 440.458 3.47284 4.06569 0
M  V30 4315 C 441.758 4.70784 2.26185 0
M  V30 4316 H 443.452 2.80744 1.04035 0
M  V30 4317 H 440.998 1.35077 0.499017 0
M  V30 4318 H 442.951 2.42413 3.44694 0
M  V30 4319 H 441.675 1.25955 3.01335 0
M  V30 4320 H 440.334 3.10627 1.94695 0
M  V30 4321 H 439.982 2.52074 4.35279 0
M  V30 4322 H 439.682 4.25152 4.0561 0
M  V30 4323 H 441.206 3.73363 4.83148 0
M  V30 4324 H 442.62 4.94102 2.90751 0
M  V30 4325 H 441.017 5.51582 2.36384 0
M  V30 4326 H 442.087 4.69478 1.21319 0
M  V30 4327 N 443.43 -0.535701 1.48216 0
M  V30 4328 C 444.841 -1.11769 1.49548 0
M  V30 4329 C 445.192 -1.94442 0.26207 0
M  V30 4330 O 444.317 -2.06987 -0.631287 0
M  V30 4331 C 444.912 -2.03367 2.70975 0
M  V30 4332 C 443.471 -2.56795 2.75196 0
M  V30 4333 C 442.618 -1.33631 2.42977 0
M  V30 4334 H 445.569 -0.321232 1.55415 0
M  V30 4335 H 445.59 -2.87569 2.49167 0
M  V30 4336 H 445.102 -1.43169 3.60727 0
M  V30 4337 H 443.203 -3.20731 1.89638 0
M  V30 4338 H 443.316 -2.9632 3.76472 0
M  V30 4339 H 441.68 -1.6502 1.94012 0
M  V30 4340 H 442.463 -0.75194 3.34964 0
M  V30 4341 N 444.908 -1.36708 -0.784132 0
M  V30 4342 C 446.319 -1.27947 -1.35965 0
M  V30 4343 C 446.67 0.0784013 -1.96043 0
M  V30 4344 O 445.795 0.979989 -1.92938 0
M  V30 4345 C 446.39 -2.31689 -2.47195 0
M  V30 4346 C 444.949 -2.26601 -3.00548 0
M  V30 4347 C 444.096 -2.16184 -1.73666 0
M  V30 4348 H 447.047 -1.4751 -0.585358 0
M  V30 4349 H 447.068 -1.95638 -3.26352 0
M  V30 4350 H 446.58 -3.30506 -2.03439 0
M  V30 4351 H 444.681 -1.31268 -3.48711 0
M  V30 4352 H 444.794 -3.19508 -3.57004 0
M  V30 4353 H 443.158 -1.62524 -1.96107 0
M  V30 4354 H 443.941 -3.16896 -1.32031 0
M  V30 4355 N 446.386 1.0089 -1.21074 0
M  V30 4356 C 447.614 1.78191 -1.05145 0
M  V30 4357 C 448.029 1.84537 0.398952 0
M  V30 4358 O 447.386 1.30393 1.27687 0
M  V30 4359 C 447.437 3.22288 -1.63746 0
M  V30 4360 O 447.158 3.16315 -3.03111 0
M  V30 4361 C 448.659 4.16106 -1.52875 0
M  V30 4362 H 445.879 0.560129 -0.369454 0
M  V30 4363 H 448.423 1.26945 -1.60328 0
M  V30 4364 H 446.578 3.70655 -1.12664 0
M  V30 4365 H 446.992 4.06817 -3.31059 0
M  V30 4366 H 448.466 5.15026 -1.98626 0
M  V30 4367 H 448.943 4.36541 -0.482521 0
M  V30 4368 H 449.549 3.73625 -2.03185 0
M  V30 4369 N 447.864 1.01787 1.20321 0
M  V30 4370 C 448.774 0.598898 2.26827 0
M  V30 4371 C 449.79 -0.36418 1.70146 0
M  V30 4372 O 450.966 -0.224812 2.00141 0
M  V30 4373 C 448.031 -0.0549769 3.46656 0
M  V30 4374 C 447.092 0.954205 4.18561 0
M  V30 4375 C 446.325 0.331439 5.3267 0
M  V30 4376 O 446.548 -0.86851 5.63749 0
M  V30 4377 O 445.482 1.0488 5.92692 0
M  V30 4378 H 449.308 1.48562 2.64883 0
M  V30 4379 H 446.893 0.787434 1.26964 0
M  V30 4380 H 448.775 -0.420102 4.19301 0
M  V30 4381 H 447.45 -0.915876 3.10473 0
M  V30 4382 H 446.357 1.37072 3.48083 0
M  V30 4383 H 447.69 1.78511 4.58688 0
M  V30 4384 N 449.342 -1.36122 0.79427 0
M  V30 4385 C 450.567 -2.03891 0.379871 0
M  V30 4386 C 450.992 -1.59488 -0.997251 0
M  V30 4387 O 450.35 -0.765652 -1.64339 0
M  V30 4388 C 450.398 -3.57687 0.457442 0
M  V30 4389 O 449.502 -4.08931 -0.5338 0
M  V30 4390 H 448.843 -0.6443 0.160541 0
M  V30 4391 H 451.373 -1.73976 1.07673 0
M  V30 4392 H 451.383 -4.06721 0.322792 0
M  V30 4393 H 450.058 -3.89357 1.46199 0
M  V30 4394 H 448.635 -3.71154 -0.360409 0
M  V30 4395 N 450.82 -0.546701 -1.47814 0
M  V30 4396 C 452.236 -0.205717 -1.58269 0
M  V30 4397 C 452.436 1.29153 -1.54667 0
M  V30 4398 O 451.492 2.07098 -1.44453 0
M  V30 4399 C 452.805 -0.823065 -2.89216 0
M  V30 4400 C 454.353 -0.793328 -3.02779 0
M  V30 4401 C 454.828 -1.38955 -4.36412 0
M  V30 4402 N 456.319 -1.35227 -4.43021 0
M  V30 4403 C 457.054 -1.78333 -5.44963 0
M  V30 4404 N 456.55 -2.29246 -6.53772 0
M  V30 4405 N 458.343 -1.69467 -5.35945 0
M  V30 4406 H 450.494 -1.5196 -1.48398 0
M  V30 4407 H 452.757 -0.633078 -0.705632 0
M  V30 4408 H 452.463 -1.8749 -2.97558 0
M  V30 4409 H 452.337 -0.309915 -3.75925 0
M  V30 4410 H 454.724 0.249784 -2.94041 0
M  V30 4411 H 454.805 -1.34412 -2.17639 0
M  V30 4412 H 454.449 -2.43168 -4.45906 0
M  V30 4413 H 454.379 -0.814291 -5.20266 0
M  V30 4414 H 456.87 -0.979739 -3.64979 0
M  V30 4415 H 457.183 -2.60089 -7.27718 0
M  V30 4416 H 455.528 -2.3325 -6.5469 0
M  V30 4417 H 458.719 -1.29477 -4.49837 0
M  V30 4418 H 458.892 -2.03381 -6.15256 0
M  V30 4419 N 452.299 1.55045 -0.282633 0
M  V30 4420 C 453.232 2.18951 0.64311 0
M  V30 4421 C 454.21 1.15287 1.14664 0
M  V30 4422 O 455.394 1.43846 1.21822 0
M  V30 4423 C 452.521 2.81874 1.87789 0
M  V30 4424 C 451.567 3.98906 1.50919 0
M  V30 4425 S 452.4 5.3234 0.580884 0
M  V30 4426 C 453.556 5.98737 1.82387 0
M  V30 4427 H 453.789 2.97131 0.100138 0
M  V30 4428 H 451.322 1.54255 -0.0668514 0
M  V30 4429 H 453.28 3.18757 2.58658 0
M  V30 4430 H 451.941 2.03573 2.392 0
M  V30 4431 H 451.134 4.4165 2.42819 0
M  V30 4432 H 450.736 3.63485 0.88061 0
M  V30 4433 H 453.028 6.18427 2.76684 0
M  V30 4434 H 453.971 6.93318 1.4393 0
M  V30 4435 H 454.379 5.28177 1.99223 0
M  V30 4436 N 453.777 0.010035 1.57597 0
M  V30 4437 C 455.002 -0.687021 1.95691 0
M  V30 4438 C 455.427 -1.65952 0.885519 0
M  V30 4439 O 454.785 -1.80633 -0.15543 0
M  V30 4440 C 454.833 -1.3864 3.32884 0
M  V30 4441 O 453.937 -2.50115 3.27897 0
M  V30 4442 H 453.278 -0.181989 0.638573 0
M  V30 4443 H 455.808 0.0662122 2.04493 0
M  V30 4444 H 455.818 -1.74754 3.6868 0
M  V30 4445 H 454.493 -0.673411 4.10412 0
M  V30 4446 H 453.07 -2.16253 3.03791 0
M  V30 4447 N 455.255 -1.55392 -0.262866 0
M  V30 4448 C 456.501 -1.76737 -0.99458 0
M  V30 4449 C 456.834 -0.572453 -1.85571 0
M  V30 4450 O 456.109 0.429732 -1.89693 0
M  V30 4451 C 456.392 -3.07824 -1.8686 0
M  V30 4452 C 456.245 -4.3769 -1.03672 0
M  V30 4453 C 457.564 -3.35021 -2.85393 0
M  V30 4454 H 454.683 -0.643005 -0.360157 0
M  V30 4455 H 457.325 -1.88126 -0.266216 0
M  V30 4456 H 455.475 -2.98245 -2.48962 0
M  V30 4457 H 457.147 -4.59238 -0.43563 0
M  V30 4458 H 455.39 -4.32461 -0.340513 0
M  V30 4459 H 456.061 -5.25759 -1.6817 0
M  V30 4460 H 458.537 -3.44458 -2.33426 0
M  V30 4461 H 457.413 -4.27989 -3.43681 0
M  V30 4462 H 457.674 -2.55153 -3.61039 0
M  V30 4463 N 456.733 0.527833 -1.48498 0
M  V30 4464 C 457.958 1.313 -1.60546 0
M  V30 4465 C 458.383 1.86199 -0.26672 0
M  V30 4466 O 457.741 1.64513 0.761918 0
M  V30 4467 C 457.789 2.43818 -2.65678 0
M  V30 4468 O 456.893 3.46916 -2.22987 0
M  V30 4469 H 456.234 0.388784 -0.538277 0
M  V30 4470 H 458.764 0.634896 -1.945 0
M  V30 4471 H 458.774 2.89973 -2.87018 0
M  V30 4472 H 457.449 2.03222 -3.62869 0
M  V30 4473 H 456.026 3.06864 -2.11869 0
M  V30 4474 N 458.211 1.37122 0.776871 0
M  V30 4475 C 459.436 1.354 1.57104 0
M  V30 4476 C 459.861 -0.0595562 1.88006 0
M  V30 4477 O 459.219 -1.03514 1.48844 0
M  V30 4478 C 459.267 2.19472 2.8612 0
M  V30 4479 O 458.371 1.59582 3.80273 0
M  V30 4480 H 457.712 0.462869 0.476076 0
M  V30 4481 H 460.242 1.80577 0.961932 0
M  V30 4482 H 460.252 2.32502 3.35271 0
M  V30 4483 H 458.927 3.22222 2.62956 0
M  V30 4484 H 457.504 1.55564 3.38902 0
M  V30 4485 N 459.689 -1.00246 1.21608 0
M  V30 4486 C 460.966 -1.71336 0.943568 0
M  V30 4487 C 461.346 -2.03972 -0.543943 0
M  V30 4488 O 460.694 -1.71545 -1.50946 0
M  V30 4489 C 460.904 -2.97094 1.83128 0
M  V30 4490 C 462.252 -3.70071 2.08165 0
M  V30 4491 O 463.276 -3.07081 1.80498 0
M  V30 4492 O 462.135 -4.83376 2.54971 0
M  V30 4493 H 459.229 -0.747386 0.354039 0
M  V30 4494 H 461.775 -1.05967 1.32549 0
M  V30 4495 H 460.547 -2.69407 2.83788 0
M  V30 4496 H 460.17 -3.70204 1.45034 0
M  V30 4497 N 461.167 -1.02423 -1.1978 0
M  V30 4498 C 462.578 -0.748389 -1.71044 0
M  V30 4499 C 462.929 0.732398 -1.82017 0
M  V30 4500 O 462.054 1.57116 -1.48807 0
M  V30 4501 C 462.649 -1.35187 -3.1066 0
M  V30 4502 C 461.208 -1.12472 -3.59203 0
M  V30 4503 C 460.355 -1.45283 -2.36195 0
M  V30 4504 H 463.306 -1.19275 -1.04686 0
M  V30 4505 H 463.327 -0.746408 -3.73107 0
M  V30 4506 H 462.839 -2.4296 -3.02642 0
M  V30 4507 H 460.94 -0.0649983 -3.72543 0
M  V30 4508 H 461.053 -1.81016 -4.43588 0
M  V30 4509 H 459.417 -0.872034 -2.39307 0
M  V30 4510 H 460.2 -2.54129 -2.30811 0
M  V30 4511 N 462.645 1.35699 -0.801477 0
M  V30 4512 C 463.922 1.9324 -0.302937 0
M  V30 4513 C 464.302 1.73209 1.20672 0
M  V30 4514 O 463.65 1.09809 2.00385 0
M  V30 4515 C 463.86 3.41728 -0.708747 0
M  V30 4516 C 465.208 4.18868 -0.695328 0
M  V30 4517 O 466.232 3.5022 -0.649971 0
M  V30 4518 O 465.091 5.41342 -0.749081 0
M  V30 4519 H 462.185 0.82331 -0.0780367 0
M  V30 4520 H 464.731 1.44806 -0.884832 0
M  V30 4521 H 463.503 3.50015 -1.74944 0
M  V30 4522 H 463.126 3.97471 -0.101384 0
M  V30 4523 N 464.123 0.554532 1.47522 0
M  V30 4524 C 465.534 0.120446 1.86311 0
M  V30 4525 C 465.885 -1.30904 1.46145 0
M  V30 4526 O 465.01 -1.98434 0.863294 0
M  V30 4527 C 465.605 0.211808 3.38137 0
M  V30 4528 C 464.164 -0.167224 3.76028 0
M  V30 4529 C 463.311 0.560576 2.71575 0
M  V30 4530 H 466.262 0.764408 1.39077 0
M  V30 4531 H 466.283 -0.570275 3.76202 0
M  V30 4532 H 465.795 1.25232 3.6734 0
M  V30 4533 H 463.896 -1.20894 3.52442 0
M  V30 4534 H 464.009 0.189473 4.78725 0
M  V30 4535 H 462.373 0.00396836 2.547 0
M  V30 4536 H 463.156 1.60219 3.0362 0
M  V30 4537 N 465.601 -1.54893 0.290851 0
M  V30 4538 C 466.564 -2.21824 -0.576784 0
M  V30 4539 C 467.564 -1.20104 -1.06919 0
M  V30 4540 O 468.754 -1.44906 -0.966843 0
M  V30 4541 C 465.886 -2.89662 -1.79747 0
M  V30 4542 H 467.079 -2.99899 0.00784051 0
M  V30 4543 H 464.632 -1.56245 0.0415934 0
M  V30 4544 H 465.367 -2.15639 -2.42219 0
M  V30 4545 H 465.152 -3.64219 -1.45214 0
M  V30 4546 H 466.642 -3.4075 -2.4141 0
M  V30 4547 N 467.08 -0.0183926 -1.57589 0
M  V30 4548 C 468.043 0.951986 -2.08494 0
M  V30 4549 C 469.043 1.26092 -0.997874 0
M  V30 4550 O 470.233 1.20304 -1.25987 0
M  V30 4551 C 467.365 2.27165 -2.54182 0
M  V30 4552 H 468.558 0.511307 -2.95509 0
M  V30 4553 H 466.111 0.229444 -1.54607 0
M  V30 4554 H 466.846 2.75884 -1.70465 0
M  V30 4555 H 466.631 2.06057 -3.33591 0
M  V30 4556 H 468.121 2.9674 -2.93828 0
M  V30 4557 N 468.558 1.5553 0.254621 0
M  V30 4558 C 469.788 1.80784 1.00004 0
M  V30 4559 C 470.196 0.59071 1.79742 0
M  V30 4560 O 469.539 -0.449988 1.78103 0
M  V30 4561 C 469.601 2.99268 1.99196 0
M  V30 4562 C 469.265 4.35595 1.38224 0
M  V30 4563 C 470.262 5.13884 0.788611 0
M  V30 4564 C 467.947 4.82281 1.40393 0
M  V30 4565 C 469.941 6.37004 0.224783 0
M  V30 4566 C 467.628 6.05351 0.836243 0
M  V30 4567 C 468.626 6.82551 0.24769 0
M  V30 4568 O 468.314 8.03297 -0.311249 0
M  V30 4569 H 468.046 0.60565 0.300274 0
M  V30 4570 H 470.6 2.03411 0.285143 0
M  V30 4571 H 468.83 2.72377 2.74496 0
M  V30 4572 H 470.519 3.11682 2.60018 0
M  V30 4573 H 471.285 4.78938 0.764423 0
M  V30 4574 H 467.164 4.22189 1.85142 0
M  V30 4575 H 470.708 6.97203 -0.235235 0
M  V30 4576 H 466.605 6.39776 0.857733 0
M  V30 4577 H 467.373 8.1825 -0.20237 0
M  V30 4578 N 470.036 -0.519951 1.48776 0
M  V30 4579 C 471.447 -1.10177 1.50725 0
M  V30 4580 C 471.798 -1.94153 0.282678 0
M  V30 4581 O 470.923 -2.07645 -0.609298 0
M  V30 4582 C 471.518 -2.00482 2.73116 0
M  V30 4583 C 470.077 -2.53862 2.77905 0
M  V30 4584 C 469.224 -1.31047 2.44381 0
M  V30 4585 H 472.175 -0.30473 1.55747 0
M  V30 4586 H 472.196 -2.8491 2.52203 0
M  V30 4587 H 471.708 -1.39335 3.62225 0
M  V30 4588 H 469.809 -3.18702 1.93029 0
M  V30 4589 H 469.922 -2.9231 3.79594 0
M  V30 4590 H 468.286 -1.62953 1.95751 0
M  V30 4591 H 469.069 -0.71637 3.35743 0
M  V30 4592 N 471.514 -1.37532 -0.769588 0
M  V30 4593 C 472.739 -1.36231 -1.56384 0
M  V30 4594 C 473.164 0.0495849 -1.88035 0
M  V30 4595 O 472.522 1.02723 -1.49391 0
M  V30 4596 C 472.57 -2.20986 -2.84952 0
M  V30 4597 O 471.674 -1.61597 -3.79421 0
M  V30 4598 H 471.015 -0.465387 -0.473615 0
M  V30 4599 H 473.545 -1.81085 -0.952342 0
M  V30 4600 H 473.555 -2.34277 -3.34034 0
M  V30 4601 H 472.23 -3.23612 -2.61243 0
M  V30 4602 H 470.807 -1.57359 -3.38072 0
M  V30 4603 N 472.992 0.995999 -1.22138 0
M  V30 4604 C 474.22 1.77066 -1.07029 0
M  V30 4605 C 474.635 1.8495 0.379357 0
M  V30 4606 O 473.992 1.3174 1.26297 0
M  V30 4607 C 474.043 3.20533 -1.67155 0
M  V30 4608 O 473.764 3.13082 -3.06449 0
M  V30 4609 C 475.265 4.14461 -1.5728 0
M  V30 4610 H 472.485 0.556179 -0.375374 0
M  V30 4611 H 475.029 1.25238 -1.61666 0
M  V30 4612 H 473.184 3.6944 -1.16589 0
M  V30 4613 H 473.598 4.03283 -3.35355 0
M  V30 4614 H 475.072 5.1289 -2.04078 0
M  V30 4615 H 475.549 4.36005 -0.528795 0
M  V30 4616 H 476.155 3.71449 -2.07136 0
M  V30 4617 N 474.47 1.03057 1.19235 0
M  V30 4618 C 475.433 0.617418 2.20727 0
M  V30 4619 C 476.433 -0.319856 1.57587 0
M  V30 4620 O 477.623 -0.106633 1.73873 0
M  V30 4621 C 474.755 -0.096296 3.40764 0
M  V30 4622 H 475.948 1.51544 2.58794 0
M  V30 4623 H 473.501 0.821949 1.32942 0
M  V30 4624 H 474.236 -1.00859 3.08217 0
M  V30 4625 H 474.021 0.577217 3.87828 0
M  V30 4626 H 475.511 -0.372219 4.15938 0
M  V30 4627 N 475.948 -1.35272 0.808662 0
M  V30 4628 C 477.196 -1.98316 0.389233 0
M  V30 4629 C 477.517 -1.64465 -1.04767 0
M  V30 4630 O 476.787 -0.928175 -1.72516 0
M  V30 4631 H 475.367 -0.733585 0.140935 0
M  V30 4632 H 478.029 -1.6515 1.03496 0
M  V30 4633 H 477.125 -3.08123 0.496631 0
M  V30 4634 N 477.426 -0.562348 -1.47226 0
M  V30 4635 C 478.842 -0.222492 -1.58042 0
M  V30 4636 C 479.042 1.27505 -1.56028 0
M  V30 4637 O 478.098 2.05555 -1.46641 0
M  V30 4638 C 479.411 -0.853694 -2.88327 0
M  V30 4639 C 480.959 -0.825397 -3.01921 0
M  V30 4640 C 481.434 -1.43576 -4.34914 0
M  V30 4641 N 482.925 -1.39918 -4.41562 0
M  V30 4642 C 483.66 -1.84103 -5.43041 0
M  V30 4643 N 483.156 -2.36167 -6.51304 0
M  V30 4644 N 484.949 -1.75142 -5.34118 0
M  V30 4645 H 477.1 -1.53525 -1.46778 0
M  V30 4646 H 479.363 -0.640527 -0.698877 0
M  V30 4647 H 479.069 -1.90635 -2.95552 0
M  V30 4648 H 478.943 -0.34977 -3.75575 0
M  V30 4649 H 481.33 0.218583 -2.94289 0
M  V30 4650 H 481.411 -1.36713 -2.16202 0
M  V30 4651 H 481.055 -2.47884 -4.43301 0
M  V30 4652 H 480.985 -0.869427 -5.19373 0
M  V30 4653 H 483.476 -1.0184 -3.63919 0
M  V30 4654 H 483.789 -2.67793 -7.24919 0
M  V30 4655 H 482.134 -2.40181 -6.52179 0
M  V30 4656 H 485.325 -1.34241 -4.48439 0
M  V30 4657 H 485.498 -2.09895 -6.13065 0
M  V30 4658 N 478.904 1.54736 -0.299062 0
M  V30 4659 C 480.315 1.8569 0.193971 0
M  V30 4660 C 480.666 1.22101 1.53577 0
M  V30 4661 O 479.791 0.51799 2.10109 0
M  V30 4662 C 480.386 3.36895 0.358733 0
M  V30 4663 C 478.945 3.67887 0.795986 0
M  V30 4664 C 478.092 2.77131 -0.096807 0
M  V30 4665 H 481.043 1.49934 -0.520134 0
M  V30 4666 H 481.064 3.61294 1.19361 0
M  V30 4667 H 480.576 3.83148 -0.617998 0
M  V30 4668 H 478.677 3.27151 1.78334 0
M  V30 4669 H 478.79 4.75114 0.616718 0
M  V30 4670 H 477.154 2.51153 0.423581 0
M  V30 4671 H 477.937 3.26204 -1.06986 0
M  V30 4672 N 480.382 0.0267497 1.57577 0
M  V30 4673 C 481.332 -0.965003 2.06571 0
M  V30 4674 C 482.316 -1.28694 0.965746 0
M  V30 4675 O 483.508 -1.27345 1.22932 0
M  V30 4676 C 480.637 -2.24821 2.59443 0
M  V30 4677 C 479.723 -1.95474 3.76365 0
M  V30 4678 N 480.114 -1.36387 4.87065 0
M  V30 4679 C 478.412 -2.25478 3.84806 0
M  V30 4680 C 479.113 -1.24119 5.68304 0
M  V30 4681 N 478.089 -1.7359 5.15138 0
M  V30 4682 H 481.891 -0.503095 2.89562 0
M  V30 4683 H 479.405 -0.178322 1.61418 0
M  V30 4684 H 481.402 -2.9674 2.92833 0
M  V30 4685 H 480.062 -2.7164 1.77881 0
M  V30 4686 H 481.073 -1.03919 5.07367 0
M  V30 4687 H 477.75 -2.74987 3.14147 0
M  V30 4688 H 479.14 -0.784504 6.67304 0
M  V30 4689 N 481.861 -1.55662 -0.24637 0
M  V30 4690 C 483.272 -1.67953 -0.81539 0
M  V30 4691 C 483.623 -0.624302 -1.86002 0
M  V30 4692 O 482.748 0.229328 -2.15181 0
M  V30 4693 C 483.343 -3.04484 -1.48576 0
M  V30 4694 C 481.902 -3.18713 -2.00248 0
M  V30 4695 C 481.049 -2.6383 -0.853766 0
M  V30 4696 H 484 -1.58685 -0.0221692 0
M  V30 4697 H 484.021 -2.98959 -2.3538 0
M  V30 4698 H 483.533 -3.81264 -0.725222 0
M  V30 4699 H 481.634 -2.46757 -2.79181 0
M  V30 4700 H 481.747 -4.25628 -2.1995 0
M  V30 4701 H 480.111 -2.21667 -1.25442 0
M  V30 4702 H 480.894 -3.43135 -0.106302 0
M  V30 4703 N 483.339 0.512053 -1.4905 0
M  V30 4704 C 484.564 1.2959 -1.6193 0
M  V30 4705 C 484.989 1.85906 -0.286454 0
M  V30 4706 O 484.347 1.65312 0.744426 0
M  V30 4707 C 484.395 2.40987 -2.68249 0
M  V30 4708 O 483.499 3.44531 -2.26654 0
M  V30 4709 H 482.84 0.383053 -0.542371 0
M  V30 4710 H 485.37 0.614231 -1.95162 0
M  V30 4711 H 485.38 2.86913 -2.90078 0
M  V30 4712 H 484.055 1.99361 -3.65004 0
M  V30 4713 H 482.632 3.046 -2.15112 0
M  V30 4714 N 484.817 1.37938 0.762283 0
M  V30 4715 C 486.066 1.32989 1.51647 0
M  V30 4716 C 486.379 -0.0802922 1.95435 0
M  V30 4717 O 487.585 -0.252295 2.70325 0
M  V30 4718 C 486.041 2.33485 2.73885 0
M  V30 4719 C 485.649 3.80079 2.37157 0
M  V30 4720 C 487.393 2.37563 3.51801 0
M  V30 4721 C 485.3 4.72283 3.55954 0
M  V30 4722 H 484.23 0.494301 0.56937 0
M  V30 4723 H 486.881 1.63448 0.834083 0
M  V30 4724 H 485.263 1.96056 3.44061 0
M  V30 4725 H 486.437 4.26398 1.74704 0
M  V30 4726 H 484.752 3.79037 1.72395 0
M  V30 4727 H 487.349 3.0365 4.40114 0
M  V30 4728 H 487.692 1.39199 3.92338 0
M  V30 4729 H 488.225 2.73747 2.8863 0
M  V30 4730 H 484.964 5.7181 3.2049 0
M  V30 4731 H 484.484 4.30663 4.1748 0
M  V30 4732 H 486.163 4.89876 4.22647 0
M  V30 4733 N 486.295 -0.989507 1.22664 0
M  V30 4734 C 487.52 -1.77031 1.08051 0
M  V30 4735 C 487.945 -1.84535 -0.364483 0
M  V30 4736 O 487.303 -1.3003 -1.2634 0
M  V30 4737 C 487.351 -3.18 1.70024 0
M  V30 4738 O 486.455 -4.01161 0.956216 0
M  V30 4739 H 485.796 -0.545008 0.379292 0
M  V30 4740 H 488.326 -1.24277 1.62531 0
M  V30 4741 H 488.336 -3.68616 1.74888 0
M  V30 4742 H 487.011 -3.11853 2.75174 0
M  V30 4743 H 485.588 -3.59687 0.98384 0
M  V30 4744 N 487.773 -1.03688 -1.18687 0
M  V30 4745 C 488.683 -0.634908 -2.25845 0
M  V30 4746 C 489.699 0.337065 -1.70704 0
M  V30 4747 O 490.875 0.192943 -2.00474 0
M  V30 4748 C 487.94 -0.000180054 -3.467 0
M  V30 4749 C 487.001 -1.02067 -4.1699 0
M  V30 4750 C 486.234 -0.41614 -5.32075 0
M  V30 4751 O 486.457 0.778712 -5.65059 0
M  V30 4752 O 485.391 -1.14296 -5.90948 0
M  V30 4753 H 489.217 -1.52757 -2.62486 0
M  V30 4754 H 486.802 -0.807533 -1.25695 0
M  V30 4755 H 488.684 0.353342 -4.19916 0
M  V30 4756 H 487.359 0.866367 -3.11891 0
M  V30 4757 H 486.266 -1.42592 -3.45859 0
M  V30 4758 H 487.599 -1.85786 -4.5579 0
M  V30 4759 N 489.251 1.34841 -0.815825 0
M  V30 4760 C 490.161 2.33425 -0.234462 0
M  V30 4761 C 491.177 1.62295 0.627413 0
M  V30 4762 O 492.353 1.94109 0.536987 0
M  V30 4763 C 489.418 3.41471 0.599849 0
M  V30 4764 C 488.479 4.28362 -0.283596 0
M  V30 4765 C 487.712 5.31248 0.51099 0
M  V30 4766 O 487.935 5.43056 1.7449 0
M  V30 4767 O 486.869 6.01812 -0.10297 0
M  V30 4768 H 490.695 2.84962 -1.05024 0
M  V30 4769 H 488.28 1.37774 -0.577809 0
M  V30 4770 H 490.162 4.07464 1.07475 0
M  V30 4771 H 488.837 2.9219 1.39308 0
M  V30 4772 H 487.744 3.65318 -0.805836 0
M  V30 4773 H 489.077 4.81066 -1.041 0
M  V30 4774 N 490.729 0.570148 1.46925 0
M  V30 4775 C 491.639 -0.173061 2.33961 0
M  V30 4776 C 492.655 -0.898825 1.48987 0
M  V30 4777 O 493.831 -0.864825 1.81887 0
M  V30 4778 C 490.896 -1.18177 3.25937 0
M  V30 4779 C 489.957 -0.462041 4.26806 0
M  V30 4780 C 489.19 -1.4227 5.14388 0
M  V30 4781 O 489.413 -2.65842 5.04662 0
M  V30 4782 O 488.347 -0.940127 5.94513 0
M  V30 4783 H 492.173 0.541216 2.98839 0
M  V30 4784 H 489.758 0.330647 1.45695 0
M  V30 4785 H 491.64 -1.76372 3.82715 0
M  V30 4786 H 490.315 -1.87774 2.63671 0
M  V30 4787 H 489.222 0.161429 3.73752 0
M  V30 4788 H 490.555 0.192719 4.91823 0
M  V30 4789 N 492.207 -1.54576 0.307264 0
M  V30 4790 C 493.117 -2.27435 -0.57536 0
M  V30 4791 C 494.133 -1.31183 -1.14311 0
M  V30 4792 O 495.309 -1.64175 -1.16656 0
M  V30 4793 C 492.374 -3.00566 -1.72803 0
M  V30 4794 C 491.435 -4.12369 -1.19373 0
M  V30 4795 C 490.668 -4.82003 -2.29147 0
M  V30 4796 O 490.891 -4.51038 -3.49171 0
M  V30 4797 O 489.825 -5.69271 -1.95485 0
M  V30 4798 H 493.651 -3.03696 0.0158558 0
M  V30 4799 H 491.236 -1.49219 0.0735064 0
M  V30 4800 H 493.118 -3.46416 -2.39946 0
M  V30 4801 H 491.793 -2.27195 -2.30574 0
M  V30 4802 H 490.7 -3.70905 -0.487851 0
M  V30 4803 H 492.033 -4.87736 -0.661376 0
M  V30 4804 N 493.685 -0.035106 -1.57561 0
M  V30 4805 C 494.933 0.64096 -1.91667 0
M  V30 4806 C 495.254 1.72323 -0.912681 0
M  V30 4807 O 494.524 1.95849 0.0449089 0
M  V30 4808 H 493.104 0.239743 -0.707483 0
M  V30 4809 H 495.766 -0.084321 -1.94718 0
M  V30 4810 H 494.862 1.08987 -2.92452 0
M  V30 4811 N 495.163 1.55791 0.238111 0
M  V30 4812 C 496.41 1.78033 0.964907 0
M  V30 4813 C 496.738 0.600984 1.84982 0
M  V30 4814 O 495.993 -0.41536 1.91241 0
M  V30 4815 C 496.292 3.05869 1.84875 0
M  V30 4816 C 495.958 4.36808 1.11846 0
M  V30 4817 C 494.62 4.72388 0.916662 0
M  V30 4818 C 496.972 5.17717 0.60151 0
M  V30 4819 C 494.3 5.86406 0.185756 0
M  V30 4820 C 496.652 6.32494 -0.115972 0
M  V30 4821 C 495.316 6.66688 -0.329168 0
M  V30 4822 H 494.586 0.651469 0.353085 0
M  V30 4823 H 497.233 1.90061 0.234318 0
M  V30 4824 H 495.538 2.88891 2.64668 0
M  V30 4825 H 497.235 3.20278 2.41294 0
M  V30 4826 H 493.825 4.08862 1.28569 0
M  V30 4827 H 498.009 4.90678 0.744932 0
M  V30 4828 H 493.265 6.11399 0.0101886 0
M  V30 4829 H 497.439 6.94425 -0.524127 0
M  V30 4830 H 495.066 7.54884 -0.897474 0
M  V30 4831 N 496.642 -0.504142 1.49319 0
M  V30 4832 C 497.919 -1.26548 1.49147 0
M  V30 4833 C 498.299 -2.09977 0.21744 0
M  V30 4834 O 497.647 -2.14028 -0.800269 0
M  V30 4835 C 497.857 -2.12489 2.76857 0
M  V30 4836 C 499.205 -2.7178 3.26222 0
M  V30 4837 O 500.229 -2.22758 2.77952 0
M  V30 4838 O 499.088 -3.61015 4.10281 0
M  V30 4839 H 496.182 -0.572495 0.596806 0
M  V30 4840 H 498.728 -0.51867 1.61579 0
M  V30 4841 H 497.5 -1.50796 3.61077 0
M  V30 4842 H 497.123 -2.94368 2.6727 0
M  V30 4843 N 498.12 -1.38341 -0.754957 0
M  V30 4844 C 499.36 -1.35888 -1.52689 0
M  V30 4845 C 499.724 0.0513682 -1.91931 0
M  V30 4846 O 500.925 0.200761 -2.68049 0
M  V30 4847 C 499.196 -2.28666 -2.74676 0
M  V30 4848 S 500.755 -2.4422 -3.64558 0
M  V30 4849 H 497.573 -0.482165 -0.522531 0
M  V30 4850 H 500.175 -1.74253 -0.886358 0
M  V30 4851 H 498.879 -3.30023 -2.43953 0
M  V30 4852 H 498.41 -1.91445 -3.43675 0
M  V30 4853 H 500.425 -1.66525 -4.67423 0
M  V30 4854 N 499.598 0.982988 -1.23187 0
M  V30 4855 C 500.528 2.09301 -1.03515 0
M  V30 4856 C 501.509 1.70035 0.0471136 0
M  V30 4857 O 502.694 1.93847 -0.117029 0
M  V30 4858 C 499.824 3.4167 -0.622791 0
M  V30 4859 C 498.778 3.94828 -1.65211 0
M  V30 4860 C 498.104 5.23362 -1.09527 0
M  V30 4861 C 499.404 4.2439 -3.04451 0
M  V30 4862 H 501.098 2.26016 -1.96359 0
M  V30 4863 H 498.644 1.08611 -0.945501 0
M  V30 4864 H 500.597 4.18746 -0.472233 0
M  V30 4865 H 499.321 3.24811 0.341329 0
M  V30 4866 H 497.98 3.19895 -1.79061 0
M  V30 4867 H 497.628 5.02852 -0.122211 0
M  V30 4868 H 497.328 5.59895 -1.783 0
M  V30 4869 H 498.852 6.03062 -0.956511 0
M  V30 4870 H 500.266 4.92225 -2.93917 0
M  V30 4871 H 498.663 4.72118 -3.70438 0
M  V30 4872 H 499.733 3.31765 -3.53638 0
M  V30 4873 N 501.076 1.04316 1.18135 0
M  V30 4874 C 502.301 0.768047 1.92655 0
M  V30 4875 C 502.726 -0.66904 1.758 0
M  V30 4876 O 502.084 -1.46372 1.06981 0
M  V30 4877 C 502.132 1.14239 3.42026 0
M  V30 4878 O 501.236 0.269333 4.1152 0
M  V30 4879 H 500.577 0.282436 0.600937 0
M  V30 4880 H 503.107 1.39367 1.49793 0
M  V30 4881 H 503.117 1.10538 3.92741 0
M  V30 4882 H 501.792 2.18928 3.53615 0
M  V30 4883 H 500.369 0.366175 3.71098 0
M  V30 4884 N 502.554 -1.34406 0.822964 0
M  V30 4885 C 503.779 -2.0304 0.423034 0
M  V30 4886 C 504.204 -1.61568 -0.963196 0
M  V30 4887 O 503.562 -0.800339 -1.62678 0
M  V30 4888 C 503.61 -3.56636 0.53321 0
M  V30 4889 O 502.714 -4.09971 -0.446939 0
M  V30 4890 H 502.055 -0.64075 0.174171 0
M  V30 4891 H 504.585 -1.71653 1.11339 0
M  V30 4892 H 504.595 -4.05945 0.408991 0
M  V30 4893 H 503.27 -3.86168 1.54425 0
M  V30 4894 H 501.847 -3.71835 -0.281601 0
M  V30 4895 N 504.032 -0.577932 -1.46621 0
M  V30 4896 C 505.443 -0.150071 -1.86096 0
M  V30 4897 C 505.794 1.28563 -1.48209 0
M  V30 4898 O 504.919 1.97036 -0.894754 0
M  V30 4899 C 505.514 -0.265576 -3.37758 0
M  V30 4900 C 504.073 0.10738 -3.76247 0
M  V30 4901 C 503.22 -0.603711 -2.70649 0
M  V30 4902 H 506.171 -0.786438 -1.37844 0
M  V30 4903 H 506.192 0.510352 -3.77062 0
M  V30 4904 H 505.704 -1.3106 -3.65301 0
M  V30 4905 H 503.805 1.15272 -3.54321 0
M  V30 4906 H 503.918 -0.26561 -4.78363 0
M  V30 4907 H 502.282 -0.0444884 -2.54661 0
M  V30 4908 H 503.065 -1.65029 -3.01032 0
M  V30 4909 N 505.51 1.54411 -0.315457 0
M  V30 4910 C 506.42 2.27737 0.56329 0
M  V30 4911 C 507.436 1.31787 1.13614 0
M  V30 4912 O 508.612 1.64791 1.15784 0
M  V30 4913 C 505.677 3.01478 1.71207 0
M  V30 4914 C 504.738 4.12997 1.17185 0
M  V30 4915 C 503.971 4.83212 2.26588 0
M  V30 4916 O 504.194 4.52884 3.46775 0
M  V30 4917 O 503.128 5.70299 1.92463 0
M  V30 4918 H 506.954 3.03683 -0.0319614 0
M  V30 4919 H 504.539 1.49178 -0.0814188 0
M  V30 4920 H 506.421 3.47683 2.38106 0
M  V30 4921 H 505.096 2.28414 2.29366 0
M  V30 4922 H 504.003 3.71159 0.468174 0
M  V30 4923 H 505.336 4.8808 0.635501 0
M  V30 4924 N 506.988 0.0434614 1.5754 0
M  V30 4925 C 508.404 -0.313039 1.565 0
M  V30 4926 C 508.604 -1.71954 1.05043 0
M  V30 4927 O 507.66 -2.425 0.703564 0
M  V30 4928 C 508.973 -0.148544 3.00333 0
M  V30 4929 C 510.521 -0.220231 3.12224 0
M  V30 4930 C 510.996 -0.0843565 4.57922 0
M  V30 4931 N 512.487 -0.140881 4.62986 0
M  V30 4932 C 513.222 -0.0597443 5.73369 0
M  V30 4933 N 512.718 0.0733004 6.92761 0
M  V30 4934 N 514.511 -0.11477 5.61983 0
M  V30 4935 H 506.662 0.96303 1.89313 0
M  V30 4936 H 508.925 0.373164 0.871466 0
M  V30 4937 H 508.631 0.820894 3.41986 0
M  V30 4938 H 508.505 -0.912798 3.65989 0
M  V30 4939 H 510.892 -1.18014 2.70475 0
M  V30 4940 H 510.973 0.574646 2.49262 0
M  V30 4941 H 510.617 0.872192 5.00355 0
M  V30 4942 H 510.547 -0.898281 5.18882 0
M  V30 4943 H 513.038 -0.243273 3.77116 0
M  V30 4944 H 513.351 0.128128 7.72694 0
M  V30 4945 H 511.696 0.10828 6.94916 0
M  V30 4946 H 514.887 -0.217212 4.67596 0
M  V30 4947 H 515.06 -0.0480779 6.47982 0
M  V30 4948 N 508.466 -1.55915 -0.229846 0
M  V30 4949 C 509.429 -1.90914 -1.26824 0
M  V30 4950 C 510.429 -0.786999 -1.40225 0
M  V30 4951 O 511.619 -1.05484 -1.38632 0
M  V30 4952 C 508.751 -2.15264 -2.64337 0
M  V30 4953 H 509.944 -2.8378 -0.969998 0
M  V30 4954 H 507.497 -1.49069 -0.4699 0
M  V30 4955 H 508.232 -1.24923 -2.99274 0
M  V30 4956 H 508.017 -2.97005 -2.55989 0
M  V30 4957 H 509.507 -2.43467 -3.39284 0
M  V30 4958 N 509.944 0.496216 -1.49584 0
M  V30 4959 C 510.854 1.62352 -1.69349 0
M  V30 4960 C 511.87 1.64184 -0.576147 0
M  V30 4961 O 513.046 1.82517 -0.85144 0
M  V30 4962 C 510.111 2.98698 -1.76013 0
M  V30 4963 C 509.172 3.07454 -2.99617 0
M  V30 4964 C 508.405 4.37296 -3.05953 0
M  V30 4965 O 508.628 5.2637 -2.19752 0
M  V30 4966 O 507.562 4.51124 -3.9846 0
M  V30 4967 H 511.388 1.48606 -2.64859 0
M  V30 4968 H 508.973 0.673022 -1.33382 0
M  V30 4969 H 510.855 3.79725 -1.82721 0
M  V30 4970 H 509.53 3.12696 -0.836828 0
M  V30 4971 H 508.437 2.25597 -2.98424 0
M  V30 4972 H 509.77 2.98385 -3.91443 0
M  V30 4973 N 511.423 1.38739 0.74761 0
M  V30 4974 C 512.834 1.31507 1.32524 0
M  V30 4975 C 513.185 -0.0263963 1.96182 0
M  V30 4976 O 512.31 -0.92849 1.95469 0
M  V30 4977 C 512.905 2.38162 2.40966 0
M  V30 4978 C 511.464 2.34489 2.94434 0
M  V30 4979 C 510.611 2.20712 1.67873 0
M  V30 4980 H 513.562 1.4901 0.546043 0
M  V30 4981 H 513.583 2.04222 3.21051 0
M  V30 4982 H 513.095 3.35783 1.94605 0
M  V30 4983 H 511.196 1.40467 3.45108 0
M  V30 4984 H 511.309 3.28861 3.48407 0
M  V30 4985 H 509.673 1.67667 1.91729 0
M  V30 4986 H 510.456 3.20285 1.23582 0
M  V30 4987 N 512.901 -0.976442 1.23707 0
M  V30 4988 C 514.312 -1.53284 1.06587 0
M  V30 4989 C 514.663 -1.92765 -0.365526 0
M  V30 4990 O 513.788 -1.7645 -1.25277 0
M  V30 4991 C 514.383 -2.78548 1.92864 0
M  V30 4992 C 512.942 -3.30574 1.79994 0
M  V30 4993 C 512.089 -2.03538 1.88328 0
M  V30 4994 H 515.04 -0.795692 1.37311 0
M  V30 4995 H 515.061 -3.5155 1.45577 0
M  V30 4996 H 514.573 -2.49782 2.97037 0
M  V30 4997 H 512.674 -3.64211 0.786202 0
M  V30 4998 H 512.787 -4.00065 2.636 0
M  V30 4999 H 511.151 -2.17853 1.31954 0
M  V30 5000 H 511.934 -1.77149 2.94063 0
M  V30 5001 N 514.379 -1.04941 -1.1758 0
M  V30 5002 C 515.627 -0.756492 -1.87408 0
M  V30 5003 C 515.948 0.718478 -1.81281 0
M  V30 5004 O 515.218 1.519 -1.23706 0
M  V30 5005 H 513.798 -0.276841 -0.693807 0
M  V30 5006 H 516.46 -1.32803 -1.42652 0
M  V30 5007 H 515.556 -1.06918 -2.93215 0
M  V30 5008 N 515.857 1.33968 -0.830081 0
M  V30 5009 C 517.105 1.97672 -0.420734 0
M  V30 5010 C 517.426 1.66111 1.02138 0
M  V30 5011 O 516.696 0.955503 1.71017 0
M  V30 5012 H 515.276 0.73125 -0.152587 0
M  V30 5013 H 517.938 1.63483 -1.0611 0
M  V30 5014 H 517.034 3.07294 -0.545588 0
M  V30 5015 N 517.335 0.585699 1.46312 0
M  V30 5016 C 518.583 0.072278 2.01971 0
M  V30 5017 C 518.904 -1.29345 1.45928 0
M  V30 5018 O 518.174 -1.84973 0.645109 0
M  V30 5019 H 516.754 0.023729 0.746623 0
M  V30 5020 H 519.416 0.762155 1.7938 0
M  V30 5021 H 518.512 0.00552767 3.121 0
M  V30 5022 N 518.813 -1.54241 0.323641 0
M  V30 5023 C 520.059 -2.01572 -0.272089 0
M  V30 5024 C 520.414 -1.20774 -1.49771 0
M  V30 5025 O 519.707 -0.281821 -1.89516 0
M  V30 5026 C 519.901 -3.5129 -0.658031 0
M  V30 5027 C 519.73 -4.46582 0.528645 0
M  V30 5028 C 518.5 -4.94737 1.02777 0
M  V30 5029 C 520.698 -4.95416 1.38086 0
M  V30 5030 N 518.68 -5.73933 2.17885 0
M  V30 5031 C 520.051 -5.72537 2.3791 0
M  V30 5032 C 522.106 -4.77559 1.40861 0
M  V30 5033 C 520.809 -6.33702 3.40314 0
M  V30 5034 C 522.835 -5.39559 2.42136 0
M  V30 5035 C 522.197 -6.16532 3.40688 0
M  V30 5036 H 518.296 -0.779425 -0.0634072 0
M  V30 5037 H 520.88 -1.8922 0.458697 0
M  V30 5038 H 519.051 -3.63888 -1.35795 0
M  V30 5039 H 520.783 -3.85388 -1.23524 0
M  V30 5040 H 517.538 -4.69796 0.599046 0
M  V30 5041 H 517.962 -6.18209 2.75947 0
M  V30 5042 H 522.604 -4.17611 0.660352 0
M  V30 5043 H 520.322 -6.9277 4.16047 0
M  V30 5044 H 523.908 -5.27659 2.45086 0
M  V30 5045 H 522.788 -6.63655 4.1777 0
M  V30 5046 N 520.291 -0.0518155 -1.57515 0
M  V30 5047 C 521.707 0.304735 -1.56664 0
M  V30 5048 C 521.907 1.71395 -1.05953 0
M  V30 5049 O 520.963 2.42123 -0.716414 0
M  V30 5050 C 522.276 0.132614 -3.00407 0
M  V30 5051 C 523.824 0.20367 -3.12337 0
M  V30 5052 C 524.299 0.0600706 -4.57961 0
M  V30 5053 N 525.79 0.116326 -4.63054 0
M  V30 5054 C 526.525 0.0293363 -5.73392 0
M  V30 5055 N 526.021 -0.110038 -6.92713 0
M  V30 5056 N 527.814 0.0849651 -5.62036 0
M  V30 5057 H 519.965 -0.973056 -1.888 0
M  V30 5058 H 522.228 -0.377781 -0.869474 0
M  V30 5059 H 521.934 -0.839019 -3.41546 0
M  V30 5060 H 521.808 0.893376 -3.66468 0
M  V30 5061 H 524.195 1.16578 -2.71097 0
M  V30 5062 H 524.276 -0.587857 -2.48954 0
M  V30 5063 H 523.92 -0.898715 -4.99886 0
M  V30 5064 H 523.85 0.87075 -5.19351 0
M  V30 5065 H 526.341 0.22327 -3.7724 0
M  V30 5066 H 526.654 -0.169104 -7.72615 0
M  V30 5067 H 524.999 -0.145132 -6.94848 0
M  V30 5068 H 528.19 0.192411 -4.67704 0
M  V30 5069 H 528.363 0.0137131 -6.47999 0
M  V30 5070 N 521.769 1.56035 0.221574 0
M  V30 5071 C 523.017 1.78693 0.944102 0
M  V30 5072 C 523.338 0.620317 1.8487 0
M  V30 5073 O 522.608 -0.362784 1.92512 0
M  V30 5074 H 521.188 0.659082 0.351597 0
M  V30 5075 H 523.85 1.93497 0.233435 0
M  V30 5076 H 522.946 2.70837 1.55093 0
M  V30 5077 N 523.247 -0.488276 1.49845 0
M  V30 5078 C 524.472 -1.26997 1.63971 0
M  V30 5079 C 524.897 -1.85427 0.315994 0
M  V30 5080 O 524.255 -1.66475 -0.718032 0
M  V30 5081 C 524.303 -2.36689 2.72049 0
M  V30 5082 O 523.407 -3.40882 2.32107 0
M  V30 5083 H 522.748 -0.374376 0.548396 0
M  V30 5084 H 525.278 -0.583104 1.96115 0
M  V30 5085 H 525.288 -2.82262 2.94605 0
M  V30 5086 H 523.963 -1.93529 3.68129 0
M  V30 5087 H 522.54 -3.01139 2.19931 0
M  V30 5088 N 524.725 -1.39134 -0.740242 0
M  V30 5089 C 525.655 -1.40165 -1.86751 0
M  V30 5090 C 526.636 -0.265708 -1.68012 0
M  V30 5091 O 527.821 -0.47076 -1.88408 0
M  V30 5092 C 524.951 -1.2392 -3.2444 0
M  V30 5093 C 523.905 -2.34858 -3.57807 0
M  V30 5094 C 523.231 -2.03707 -4.94376 0
M  V30 5095 C 524.531 -3.77159 -3.61315 0
M  V30 5096 H 526.225 -2.345 -1.86145 0
M  V30 5097 H 523.771 -1.12875 -0.89416 0
M  V30 5098 H 525.724 -1.23263 -4.02969 0
M  V30 5099 H 524.448 -0.26051 -3.25559 0
M  V30 5100 H 523.107 -2.34723 -2.81604 0
M  V30 5101 H 522.755 -1.04289 -4.9207 0
M  V30 5102 H 522.455 -2.78016 -5.17669 0
M  V30 5103 H 523.979 -2.04691 -5.75268 0
M  V30 5104 H 525.393 -3.79252 -4.29931 0
M  V30 5105 H 523.79 -4.50784 -3.96124 0
M  V30 5106 H 524.86 -4.08513 -2.61238 0
M  V30 5107 N 526.204 0.969867 -1.24223 0
M  V30 5108 C 527.452 1.70918 -1.0785 0
M  V30 5109 C 527.773 1.91186 0.383763 0
M  V30 5110 O 527.043 1.48806 1.27411 0
M  V30 5111 H 525.623 0.633334 -0.396103 0
M  V30 5112 H 528.285 1.16689 -1.56108 0
M  V30 5113 H 527.381 2.69455 -1.57482 0
M  V30 5114 N 527.682 1.05563 1.17022 0
M  V30 5115 C 528.592 0.670758 2.24807 0
M  V30 5116 C 529.608 -0.309865 1.71219 0
M  V30 5117 O 530.784 -0.161025 2.00755 0
M  V30 5118 C 527.849 0.055337 3.46656 0
M  V30 5119 C 526.91 1.08688 4.15314 0
M  V30 5120 C 526.143 0.500736 5.31346 0
M  V30 5121 O 526.366 -0.688718 5.66227 0
M  V30 5122 O 525.3 1.23683 5.89055 0
M  V30 5123 H 529.126 1.56914 2.60023 0
M  V30 5124 H 526.711 0.827428 1.24395 0
M  V30 5125 H 528.593 -0.286492 4.20425 0
M  V30 5126 H 527.268 -0.816638 3.13229 0
M  V30 5127 H 526.175 1.48077 3.43546 0
M  V30 5128 H 527.508 1.93014 4.52777 0
M  V30 5129 N 529.16 -1.33526 0.837174 0
M  V30 5130 C 530.571 -1.80182 0.489017 0
M  V30 5131 C 530.922 -1.69285 -0.991826 0
M  V30 5132 O 530.047 -1.24113 -1.77271 0
M  V30 5133 C 530.642 -3.27149 0.880866 0
M  V30 5134 C 529.201 -3.71828 0.584872 0
M  V30 5135 C 528.348 -2.54974 1.09011 0
M  V30 5136 H 531.299 -1.21071 1.02603 0
M  V30 5137 H 531.32 -3.80024 0.190239 0
M  V30 5138 H 530.832 -3.35048 1.95869 0
M  V30 5139 H 528.933 -3.69457 -0.48295 0
M  V30 5140 H 529.046 -4.65366 1.13892 0
M  V30 5141 H 527.41 -2.4952 0.511047 0
M  V30 5142 H 528.193 -2.65637 2.17467 0
M  V30 5143 N 530.638 -0.59345 -1.46 0
M  V30 5144 C 532.049 -0.169801 -1.85926 0
M  V30 5145 C 532.4 1.26984 -1.49565 0
M  V30 5146 O 531.525 1.96076 -0.915602 0
M  V30 5147 C 532.12 -0.301385 -3.37457 0
M  V30 5148 C 530.679 0.0674684 -3.7634 0
M  V30 5149 C 529.826 -0.632383 -2.69993 0
M  V30 5150 H 532.777 -0.801014 -1.37002 0
M  V30 5151 H 532.798 0.470331 -3.77582 0
M  V30 5152 H 532.31 -1.34927 -3.63891 0
M  V30 5153 H 530.411 1.11507 -3.55523 0
M  V30 5154 H 530.524 -0.316332 -4.78055 0
M  V30 5155 H 528.888 -0.0714961 -2.546 0
M  V30 5156 H 529.671 -1.68212 -2.99265 0
M  V30 5157 N 532.116 1.54067 -0.331816 0
M  V30 5158 C 533.527 1.86059 0.15454 0
M  V30 5159 C 533.878 1.25331 1.50952 0
M  V30 5160 O 533.003 0.562441 2.08963 0
M  V30 5161 C 533.598 3.37581 0.287192 0
M  V30 5162 C 532.157 3.69493 0.717773 0
M  V30 5163 C 531.304 2.76863 -0.155569 0
M  V30 5164 H 534.255 1.48797 -0.55182 0
M  V30 5165 H 534.276 3.63744 1.11671 0
M  V30 5166 H 533.788 3.81751 -0.699131 0
M  V30 5167 H 531.889 3.3086 1.71354 0
M  V30 5168 H 532.002 4.76315 0.5158 0
M  V30 5169 H 530.366 2.51995 0.370213 0
M  V30 5170 H 531.149 3.23861 -1.13881 0
M  V30 5171 N 533.594 0.0601682 1.57485 0
M  V30 5172 C 535.005 -0.474217 1.80577 0
M  V30 5173 C 535.356 -1.70365 0.973147 0
M  V30 5174 O 534.481 -2.15544 0.192306 0
M  V30 5175 C 535.076 -0.867102 3.27516 0
M  V30 5176 C 533.635 -1.34642 3.51495 0
M  V30 5177 C 532.782 -0.32594 2.75378 0
M  V30 5178 H 535.733 0.285973 1.56102 0
M  V30 5179 H 535.754 -1.72938 3.38929 0
M  V30 5180 H 535.266 0.0278927 3.8809 0
M  V30 5181 H 533.367 -2.2603 2.96212 0
M  V30 5182 H 533.48 -1.33237 4.60201 0
M  V30 5183 H 531.844 -0.800749 2.41785 0
M  V30 5184 H 532.627 0.561125 3.38683 0
M  V30 5185 N 535.072 -1.5615 -0.213296 0
M  V30 5186 C 536.483 -1.69645 -0.779582 0
M  V30 5187 C 536.834 -0.663615 -1.84636 0
M  V30 5188 O 535.959 0.183633 -2.15619 0
M  V30 5189 C 536.554 -3.07567 -1.42084 0
M  V30 5190 C 535.113 -3.22889 -1.93442 0
M  V30 5191 C 534.26 -2.65581 -0.797612 0
M  V30 5192 H 537.211 -1.58696 0.0114951 0
M  V30 5193 H 537.232 -3.03884 -2.28986 0
M  V30 5194 H 536.744 -3.82716 -0.644187 0
M  V30 5195 H 534.845 -2.52623 -2.73884 0
M  V30 5196 H 534.958 -4.30197 -2.10872 0
M  V30 5197 H 533.322 -2.24278 -1.20712 0
M  V30 5198 H 534.105 -3.43284 -0.033494 0
M  V30 5199 N 536.55 0.480323 -1.50102 0
M  V30 5200 C 537.966 0.813295 -1.37323 0
M  V30 5201 C 538.166 1.97027 -0.422206 0
M  V30 5202 O 537.222 2.5212 0.138563 0
M  V30 5203 C 538.535 1.13404 -2.78496 0
M  V30 5204 C 540.083 1.24104 -2.87345 0
M  V30 5205 C 540.558 1.59497 -4.29331 0
M  V30 5206 N 542.049 1.66507 -4.32238 0
M  V30 5207 C 542.784 1.95378 -5.39087 0
M  V30 5208 N 542.28 2.22333 -6.56155 0
M  V30 5209 N 544.073 1.96803 -5.26522 0
M  V30 5210 H 536.224 -0.282291 -2.10516 0
M  V30 5211 H 538.487 -0.063752 -0.945854 0
M  V30 5212 H 538.193 0.357064 -3.49883 0
M  V30 5213 H 538.067 2.07251 -3.15162 0
M  V30 5214 H 540.454 2.00871 -2.16183 0
M  V30 5215 H 540.535 0.282593 -2.54234 0
M  V30 5216 H 540.179 0.832736 -5.01027 0
M  V30 5217 H 540.109 2.56477 -4.59921 0
M  V30 5218 H 542.6 1.47753 -3.47818 0
M  V30 5219 H 542.913 2.43611 -7.33399 0
M  V30 5220 H 541.258 2.19745 -6.59346 0
M  V30 5221 H 544.449 1.75235 -4.34062 0
M  V30 5222 H 544.622 2.18969 -6.09883 0
M  V30 5223 N 538.028 1.39524 0.732853 0
M  V30 5224 C 538.991 1.38189 1.82857 0
M  V30 5225 C 539.991 0.278624 1.58368 0
M  V30 5226 O 541.181 0.536639 1.65728 0
M  V30 5227 C 538.313 1.15661 3.2068 0
M  V30 5228 H 539.506 2.35692 1.85444 0
M  V30 5229 H 537.059 1.2512 0.936728 0
M  V30 5230 H 537.794 0.188482 3.23752 0
M  V30 5231 H 537.579 1.95559 3.39852 0
M  V30 5232 H 539.069 1.17472 4.00737 0
M  V30 5233 N 539.506 -0.963266 1.24736 0
M  V30 5234 C 540.731 -1.74699 1.11781 0
M  V30 5235 C 541.156 -1.85267 -0.325258 0
M  V30 5236 O 540.514 -1.32681 -1.23553 0
M  V30 5237 C 540.562 -3.14322 1.76731 0
M  V30 5238 O 539.666 -3.99043 1.04109 0
M  V30 5239 H 539.007 -0.53684 0.390767 0
M  V30 5240 H 541.537 -1.20801 1.65131 0
M  V30 5241 H 541.547 -3.64824 1.82668 0
M  V30 5242 H 540.222 -3.05946 2.81726 0
M  V30 5243 H 538.799 -3.5752 1.05991 0
M  V30 5244 N 540.985 -1.06182 -1.16461 0
M  V30 5245 C 541.915 -0.692861 -2.22984 0
M  V30 5246 C 542.896 0.314122 -1.67174 0
M  V30 5247 O 544.081 0.189499 -1.93273 0
M  V30 5248 C 541.211 -0.07732 -3.47214 0
M  V30 5249 C 540.165 -1.01015 -4.15909 0
M  V30 5250 C 539.491 -0.257973 -5.34077 0
M  V30 5251 C 540.791 -2.33868 -4.67015 0
M  V30 5252 H 542.485 -1.58343 -2.54102 0
M  V30 5253 H 540.031 -0.76279 -1.22137 0
M  V30 5254 H 541.984 0.19266 -4.20959 0
M  V30 5255 H 540.708 0.848254 -3.15392 0
M  V30 5256 H 539.367 -1.26486 -3.44088 0
M  V30 5257 H 539.015 0.670684 -4.98509 0
M  V30 5258 H 538.715 -0.879638 -5.80979 0
M  V30 5259 H 540.239 0.00448788 -6.106 0
M  V30 5260 H 541.653 -2.1279 -5.32347 0
M  V30 5261 H 540.05 -2.91522 -5.24533 0
M  V30 5262 H 541.12 -2.97019 -3.83286 0
M  V30 5263 N 542.463 1.3308 -0.844243 0
M  V30 5264 C 543.688 2.02341 -0.455282 0
M  V30 5265 C 544.113 1.6308 0.93737 0
M  V30 5266 O 543.471 0.826118 1.61385 0
M  V30 5267 C 543.519 3.55743 -0.58988 0
M  V30 5268 O 542.623 4.1063 0.38166 0
M  V30 5269 H 541.964 0.637898 -0.184343 0
M  V30 5270 H 544.494 1.6986 -1.14056 0
M  V30 5271 H 544.504 4.05243 -0.473522 0
M  V30 5272 H 543.179 3.83662 -1.60549 0
M  V30 5273 H 541.756 3.72236 0.22241 0
M  V30 5274 N 543.941 0.601185 1.45683 0
M  V30 5275 C 545.166 0.0982245 2.07167 0
M  V30 5276 C 545.591 -1.20546 1.44396 0
M  V30 5277 O 544.949 -1.73247 0.534347 0
M  V30 5278 C 544.997 -0.0346976 3.60583 0
M  V30 5279 O 544.101 -1.08657 3.97828 0
M  V30 5280 H 543.442 0.0711618 0.660176 0
M  V30 5281 H 545.972 0.829376 1.87036 0
M  V30 5282 H 545.982 -0.234969 4.07323 0
M  V30 5283 H 544.657 0.917265 4.05659 0
M  V30 5284 H 543.234 -0.863275 3.6277 0
M  V30 5285 N 545.419 -1.53889 0.339982 0
M  V30 5286 C 546.696 -1.93084 -0.312719 0
M  V30 5287 C 547.076 -1.2712 -1.68534 0
M  V30 5288 O 546.424 -0.420835 -2.24591 0
M  V30 5289 C 546.634 -3.4683 -0.388558 0
M  V30 5290 C 547.982 -4.19732 -0.641088 0
M  V30 5291 O 549.006 -3.53075 -0.470818 0
M  V30 5292 O 547.865 -5.3781 -0.970685 0
M  V30 5293 H 544.959 -0.806784 -0.18174 0
M  V30 5294 H 547.505 -1.65137 0.390898 0
M  V30 5295 H 546.277 -3.87055 0.574821 0
M  V30 5296 H 545.9 -3.80933 -1.1391 0
M  V30 5297 N 546.897 -0.0685191 -1.57451 0
M  V30 5298 C 548.125 0.610462 -1.97689 0
M  V30 5299 C 548.54 1.63346 -0.946758 0
M  V30 5300 O 547.897 1.82377 0.0669868 0
M  V30 5301 C 547.948 1.28196 -3.38006 0
M  V30 5302 O 547.669 0.299906 -4.37072 0
M  V30 5303 C 549.17 2.04907 -3.931 0
M  V30 5304 H 546.39 0.165689 -0.650222 0
M  V30 5305 H 548.934 -0.139953 -2.04021 0
M  V30 5306 H 547.089 1.98348 -3.32771 0
M  V30 5307 H 547.503 0.78126 -5.18649 0
M  V30 5308 H 548.977 2.47287 -4.93511 0
M  V30 5309 H 549.454 2.9043 -3.29465 0
M  V30 5310 H 550.06 1.39629 -4.01726 0
M  V30 5311 N 548.375 1.56261 0.205012 0
M  V30 5312 C 549.6 1.84491 0.947512 0
M  V30 5313 C 550.025 0.650894 1.76479 0
M  V30 5314 O 549.383 -0.40035 1.76824 0
M  V30 5315 C 549.431 3.10863 1.82747 0
M  V30 5316 O 548.535 2.90719 2.925 0
M  V30 5317 H 547.876 0.607783 0.267386 0
M  V30 5318 H 550.406 2.03485 0.213323 0
M  V30 5319 H 550.416 3.41399 2.23407 0
M  V30 5320 H 549.091 3.97392 1.2269 0
M  V30 5321 H 547.668 2.71457 2.55667 0
M  V30 5322 N 549.853 -0.472356 1.50355 0
M  V30 5323 C 550.816 -1.5529 1.68576 0
M  V30 5324 C 551.816 -1.50863 0.556511 0
M  V30 5325 O 553.006 -1.53505 0.823516 0
M  V30 5326 C 550.138 -2.94921 1.70981 0
M  V30 5327 H 551.331 -1.40451 2.64978 0
M  V30 5328 H 548.884 -0.698645 1.39816 0
M  V30 5329 H 549.619 -3.15204 0.762675 0
M  V30 5330 H 549.404 -2.99541 2.53017 0
M  V30 5331 H 550.894 -3.73372 1.87037 0
M  V30 5332 N 551.331 -1.39911 -0.725443 0
M  V30 5333 C 552.261 -1.42138 -1.85254 0
M  V30 5334 C 553.242 -0.283513 -1.67721 0
M  V30 5335 O 554.427 -0.490717 -1.87898 0
M  V30 5336 C 551.557 -1.27354 -3.23107 0
M  V30 5337 C 550.511 -2.3864 -3.55296 0
M  V30 5338 C 549.837 -2.08939 -4.92188 0
M  V30 5339 C 551.137 -3.8097 -3.57295 0
M  V30 5340 H 552.831 -2.36461 -1.83648 0
M  V30 5341 H 550.377 -1.13817 -0.882138 0
M  V30 5342 H 552.33 -1.2753 -4.01639 0
M  V30 5343 H 551.054 -0.295025 -3.25265 0
M  V30 5344 H 549.713 -2.37696 -2.79099 0
M  V30 5345 H 549.361 -1.09502 -4.90936 0
M  V30 5346 H 549.061 -2.83491 -5.14691 0
M  V30 5347 H 550.585 -2.10781 -5.73065 0
M  V30 5348 H 551.999 -3.8379 -4.25885 0
M  V30 5349 H 550.396 -4.5496 -3.9132 0
M  V30 5350 H 551.466 -4.11261 -2.5689 0
M  V30 5351 N 552.809 0.956637 -1.25245 0
M  V30 5352 C 554.034 1.74104 -1.12706 0
M  V30 5353 C 554.459 1.85436 0.315429 0
M  V30 5354 O 553.817 1.33334 1.22848 0
M  V30 5355 C 553.865 3.1338 -1.78396 0
M  V30 5356 O 552.969 3.98485 -1.06224 0
M  V30 5357 H 552.31 0.53476 -0.393609 0
M  V30 5358 H 554.84 1.19924 -1.65769 0
M  V30 5359 H 554.85 3.6385 -1.846 0
M  V30 5360 H 553.525 3.04448 -2.83345 0
M  V30 5361 H 552.102 3.56952 -1.07886 0
M  V30 5362 N 554.287 1.06798 1.15896 0
M  V30 5363 C 555.517 0.807522 1.90165 0
M  V30 5364 C 555.925 -0.642417 1.7796 0
M  V30 5365 O 555.268 -1.45193 1.12537 0
M  V30 5366 C 555.33 1.12939 3.41299 0
M  V30 5367 C 554.994 2.57879 3.7729 0
M  V30 5368 C 555.991 3.56118 3.78782 0
M  V30 5369 C 553.676 2.93311 4.07767 0
M  V30 5370 C 555.67 4.87827 4.10248 0
M  V30 5371 C 553.357 4.25219 4.38899 0
M  V30 5372 C 554.355 5.22287 4.4012 0
M  V30 5373 O 554.043 6.51826 4.70508 0
M  V30 5374 H 553.775 0.291946 0.609708 0
M  V30 5375 H 556.329 1.42627 1.47806 0
M  V30 5376 H 554.559 0.45359 3.84031 0
M  V30 5377 H 556.248 0.852363 3.9685 0
M  V30 5378 H 557.014 3.30086 3.55342 0
M  V30 5379 H 552.893 2.18409 4.05979 0
M  V30 5380 H 556.437 5.63586 4.11116 0
M  V30 5381 H 552.334 4.51006 4.61805 0
M  V30 5382 H 553.102 6.56893 4.88298 0
M  V30 5383 N 555.766 -1.3263 0.851289 0
M  V30 5384 C 557.043 -1.91982 0.374448 0
M  V30 5385 C 557.423 -1.77568 -1.14161 0
M  V30 5386 O 556.771 -1.1717 -1.96172 0
M  V30 5387 C 556.981 -3.38862 0.835088 0
M  V30 5388 C 558.329 -4.15999 0.850309 0
M  V30 5389 O 559.353 -3.47566 0.779505 0
M  V30 5390 O 558.212 -5.38189 0.949481 0
M  V30 5391 H 555.306 -0.819846 0.10854 0
M  V30 5392 H 557.852 -1.41422 0.937966 0
M  V30 5393 H 556.624 -3.43281 1.87814 0
M  V30 5394 H 556.247 -3.96821 0.248833 0
M  V30 5395 N 557.244 -0.608902 -1.45362 0
M  V30 5396 C 558.469 -0.10921 -2.07112 0
M  V30 5397 C 558.894 1.19779 -1.45033 0
M  V30 5398 O 558.252 1.72961 -0.543527 0
M  V30 5399 C 558.3 0.0155745 -3.60597 0
M  V30 5400 O 557.404 1.06546 -3.98399 0
M  V30 5401 H 556.745 -0.0746619 -0.659789 0
M  V30 5402 H 559.275 -0.839283 -1.86594 0
M  V30 5403 H 559.285 0.213364 -4.07442 0
M  V30 5404 H 557.96 -0.938765 -4.05167 0
M  V30 5405 H 556.537 0.844024 -3.63223 0
M  V30 5406 N 558.722 1.53707 -0.348139 0
M  V30 5407 C 559.968 2.01286 0.247332 0
M  V30 5408 C 560.301 1.23546 1.49834 0
M  V30 5409 O 559.576 0.324331 1.91777 0
M  V30 5410 C 559.859 3.55768 0.556858 0
M  V30 5411 C 559.712 4.44216 -0.706564 0
M  V30 5412 C 561.031 4.1841 1.3646 0
M  V30 5413 H 558.15 0.731677 0.0884201 0
M  V30 5414 H 560.792 1.84106 -0.469584 0
M  V30 5415 H 558.942 3.70539 1.16761 0
M  V30 5416 H 560.614 4.41274 -1.34444 0
M  V30 5417 H 558.857 4.12892 -1.33052 0
M  V30 5418 H 559.528 5.50202 -0.445186 0
M  V30 5419 H 562.004 4.07365 0.848113 0
M  V30 5420 H 560.88 5.26563 1.54992 0
M  V30 5421 H 561.141 3.7333 2.36805 0
M  V30 5422 N 560.2 0.0768682 1.57412 0
M  V30 5423 C 561.147 -0.888577 2.13009 0
M  V30 5424 C 562.117 -1.29198 1.0439 0
M  V30 5425 O 563.302 -1.37694 1.3208 0
M  V30 5426 C 560.442 -2.14899 2.70023 0
M  V30 5427 C 559.555 -1.79777 3.92816 0
M  V30 5428 C 558.69 -3.00467 4.38056 0
M  V30 5429 C 557.729 -2.61385 5.53484 0
M  V30 5430 N 556.866 -3.74851 5.93659 0
M  V30 5431 H 561.706 -0.407593 2.95199 0
M  V30 5432 H 559.243 -0.189534 1.45874 0
M  V30 5433 H 561.201 -2.88688 3.0119 0
M  V30 5434 H 559.831 -2.60529 1.9059 0
M  V30 5435 H 558.883 -0.960301 3.68079 0
M  V30 5436 H 560.195 -1.47027 4.76639 0
M  V30 5437 H 559.349 -3.82529 4.7091 0
M  V30 5438 H 558.088 -3.36413 3.53097 0
M  V30 5439 H 557.093 -1.77746 5.20275 0
M  V30 5440 H 558.318 -2.26603 6.40178 0
M  V30 5441 H 556.264 -4.1055 5.11649 0
M  V30 5442 H 556.181 -3.45887 6.72234 0
M  V30 5443 H 557.449 -4.57477 6.31138 0
M  V30 5444 N 561.678 -1.56367 -0.196722 0
M  V30 5445 C 562.908 -1.84371 -0.932254 0
M  V30 5446 C 563.316 -0.657013 -1.77426 0
M  V30 5447 O 562.659 0.383576 -1.79651 0
M  V30 5448 C 562.721 -3.06454 -1.87952 0
M  V30 5449 C 562.385 -4.40425 -1.21962 0
M  V30 5450 C 563.382 -5.16457 -0.597343 0
M  V30 5451 C 561.067 -4.8716 -1.22396 0
M  V30 5452 C 563.061 -6.37399 0.0117913 0
M  V30 5453 C 560.748 -6.08038 -0.610995 0
M  V30 5454 C 561.746 -6.83 0.00580487 0
M  V30 5455 O 561.434 -8.01589 0.609173 0
M  V30 5456 H 561.166 -0.616377 -0.277589 0
M  V30 5457 H 563.72 -2.04329 -0.209452 0
M  V30 5458 H 561.95 -2.82377 -2.64197 0
M  V30 5459 H 563.639 -3.21118 -2.48271 0
M  V30 5460 H 564.405 -4.81445 -0.586142 0
M  V30 5461 H 560.284 -4.2877 -1.69345 0
M  V30 5462 H 563.828 -6.9585 0.493836 0
M  V30 5463 H 559.725 -6.42519 -0.619693 0
M  V30 5464 H 560.493 -8.16935 0.505919 0
M  V30 5465 N 563.156 0.464375 -1.50603 0
M  V30 5466 C 564.384 1.23907 -1.65695 0
M  V30 5467 C 564.799 1.85658 -0.343027 0
M  V30 5468 O 564.156 1.69529 0.675739 0
M  V30 5469 C 564.207 2.3429 -2.75301 0
M  V30 5470 O 563.928 1.7507 -4.01599 0
M  V30 5471 C 565.429 3.25051 -3.01424 0
M  V30 5472 H 562.649 0.374485 -0.556778 0
M  V30 5473 H 565.193 0.55353 -1.96866 0
M  V30 5474 H 563.348 2.98607 -2.46804 0
M  V30 5475 H 563.762 2.47812 -4.62266 0
M  V30 5476 H 565.236 3.98699 -3.81763 0
M  V30 5477 H 565.713 3.84227 -2.12758 0
M  V30 5478 H 566.319 2.66463 -3.31477 0
M  V30 5479 N 564.634 1.40294 0.718013 0
M  V30 5480 C 565.564 1.43118 1.84498 0
M  V30 5481 C 566.545 0.292403 1.67568 0
M  V30 5482 O 567.73 0.500675 1.87635 0
M  V30 5483 C 564.86 1.29065 3.22427 0
M  V30 5484 C 563.814 2.40521 3.54025 0
M  V30 5485 C 563.14 2.11546 4.91073 0
M  V30 5486 C 564.44 3.82859 3.55269 0
M  V30 5487 H 566.134 2.37432 1.82391 0
M  V30 5488 H 563.68 1.14283 0.87609 0
M  V30 5489 H 565.633 1.29658 4.00957 0
M  V30 5490 H 564.357 0.312271 3.25104 0
M  V30 5491 H 563.016 2.39173 2.77834 0
M  V30 5492 H 562.664 1.12104 4.90348 0
M  V30 5493 H 562.364 2.86216 5.1318 0
M  V30 5494 H 563.888 2.13817 5.71939 0
M  V30 5495 H 565.302 3.86044 4.23843 0
M  V30 5496 H 563.699 4.57029 3.88902 0
M  V30 5497 H 564.769 4.12617 2.54706 0
M  V30 5498 N 566.112 -0.949982 1.2575 0
M  V30 5499 C 567.358 -1.69766 1.10938 0
M  V30 5500 C 567.691 -1.91056 -0.348028 0
M  V30 5501 O 566.966 -1.48488 -1.25625 0
M  V30 5502 C 567.249 -3.07779 1.86933 0
M  V30 5503 C 567.102 -2.9387 3.4053 0
M  V30 5504 C 568.421 -4.07749 1.65616 0
M  V30 5505 H 565.54 -0.616144 0.404396 0
M  V30 5506 H 568.182 -1.10394 1.54639 0
M  V30 5507 H 566.332 -3.58462 1.4979 0
M  V30 5508 H 568.004 -2.50476 3.87375 0
M  V30 5509 H 566.247 -2.29686 3.68004 0
M  V30 5510 H 566.918 -3.91719 3.88922 0
M  V30 5511 H 569.394 -3.65994 1.97959 0
M  V30 5512 H 568.27 -5.02348 2.21218 0
M  V30 5513 H 568.531 -4.38029 0.598595 0
M  V30 5514 N 567.59 -1.07411 -1.15328 0
M  V30 5515 C 568.836 -0.798831 -1.86404 0
M  V30 5516 C 569.169 0.673433 -1.8215 0
M  V30 5517 O 568.444 1.49428 -1.24505 0
M  V30 5518 C 568.727 -1.30846 -3.35487 0
M  V30 5519 C 568.58 -2.84532 -3.4837 0
M  V30 5520 C 569.899 -0.925486 -4.30259 0
M  V30 5521 H 567.018 -0.291659 -0.676834 0
M  V30 5522 H 569.66 -1.332 -1.35491 0
M  V30 5523 H 567.81 -0.854916 -3.78977 0
M  V30 5524 H 569.482 -3.3818 -3.13739 0
M  V30 5525 H 567.725 -3.22699 -2.8991 0
M  V30 5526 H 568.396 -3.15259 -4.53118 0
M  V30 5527 H 570.872 -1.3163 -3.94731 0
M  V30 5528 H 569.748 -1.3094 -5.33053 0
M  V30 5529 H 570.009 0.168525 -4.41779 0
M  V30 5530 N 569.068 1.32177 -0.85831 0
M  V30 5531 C 570.345 1.91781 -0.384624 0
M  V30 5532 C 570.725 1.78171 1.13217 0
M  V30 5533 O 570.073 1.18209 1.95548 0
M  V30 5534 C 570.283 3.38414 -0.853047 0
M  V30 5535 C 571.631 4.15542 -0.872359 0
M  V30 5536 O 572.655 3.47148 -0.797926 0
M  V30 5537 O 571.514 5.37678 -0.978009 0
M  V30 5538 H 568.608 0.819259 -0.112886 0
M  V30 5539 H 571.154 1.40923 -0.945453 0
M  V30 5540 H 569.926 3.4228 -1.89632 0
M  V30 5541 H 569.549 3.96683 -0.269874 0
M  V30 5542 N 570.547 0.616602 1.45037 0
M  V30 5543 C 571.457 -0.0985401 2.34393 0
M  V30 5544 C 572.473 -0.850971 1.51771 0
M  V30 5545 O 573.649 -0.806521 1.84546 0
M  V30 5546 C 570.714 -1.07748 3.29532 0
M  V30 5547 C 569.775 -0.326022 4.2806 0
M  V30 5548 C 569.008 -1.25833 5.18654 0
M  V30 5549 O 569.231 -2.49652 5.12864 0
M  V30 5550 O 568.165 -0.750512 5.97203 0
M  V30 5551 H 571.991 0.636016 2.96966 0
M  V30 5552 H 569.576 0.376832 1.44569 0
M  V30 5553 H 571.458 -1.64107 3.88133 0
M  V30 5554 H 570.133 -1.79291 2.69512 0
M  V30 5555 H 569.04 0.280253 3.73049 0
M  V30 5556 H 570.373 0.349091 4.9096 0
M  V30 5557 N 572.025 -1.5352 0.356285 0
M  V30 5558 C 572.975 -2.22204 -0.510815 0
M  V30 5559 C 573.959 -1.21393 -1.05605 0
M  V30 5560 O 575.151 -1.46883 -0.987639 0
M  V30 5561 C 572.28 -3.00786 -1.65478 0
M  V30 5562 C 571.366 -4.08965 -1.12287 0
M  V30 5563 N 571.757 -5.04829 -0.313191 0
M  V30 5564 C 570.055 -4.23505 -1.39856 0
M  V30 5565 C 570.756 -5.81695 -0.0230322 0
M  V30 5566 N 569.732 -5.40074 -0.618144 0
M  V30 5567 H 573.534 -2.93676 0.114711 0
M  V30 5568 H 571.048 -1.61572 0.163811 0
M  V30 5569 H 573.045 -3.48502 -2.28806 0
M  V30 5570 H 571.705 -2.30843 -2.28345 0
M  V30 5571 H 572.716 -5.17879 0.0468202 0
M  V30 5572 H 569.393 -3.64786 -2.0307 0
M  V30 5573 H 570.783 -6.68931 0.630927 0
M  V30 5574 N 573.503 -0.0852151 -1.57369 0
M  V30 5575 C 574.466 0.8627 -2.12344 0
M  V30 5576 C 575.466 1.21746 -1.05046 0
M  V30 5577 O 576.656 1.14852 -1.30976 0
M  V30 5578 C 573.788 2.1618 -2.63589 0
M  V30 5579 H 574.981 0.385511 -2.97412 0
M  V30 5580 H 572.534 0.163663 -1.55441 0
M  V30 5581 H 573.269 2.68406 -1.82013 0
M  V30 5582 H 573.054 1.91723 -3.4203 0
M  V30 5583 H 574.544 2.84011 -3.06149 0
M  V30 5584 N 574.981 1.5647 0.188427 0
M  V30 5585 C 575.913 1.91611 1.25769 0
M  V30 5586 C 576.926 0.807436 1.41366 0
M  V30 5587 O 578.115 1.08586 1.41673 0
M  V30 5588 C 575.215 2.13874 2.6289 0
M  V30 5589 C 574.388 3.45047 2.68815 0
M  V30 5590 C 573.447 3.56342 3.87178 0
M  V30 5591 O 572.473 4.29109 3.73971 0
M  V30 5592 N 573.675 2.89924 5.02916 0
M  V30 5593 H 576.44 2.8393 0.959373 0
M  V30 5594 H 574.001 1.57418 0.378306 0
M  V30 5595 H 575.993 2.18713 3.4051 0
M  V30 5596 H 574.563 1.28022 2.85183 0
M  V30 5597 H 573.783 3.52017 1.77419 0
M  V30 5598 H 575.071 4.31395 2.6977 0
M  V30 5599 H 574.469 2.30644 5.16546 0
M  V30 5600 H 573.026 3.0038 5.78459 0
M  V30 5601 N 576.459 -0.456382 1.50847 0
M  V30 5602 C 577.389 -1.56025 1.73719 0
M  V30 5603 C 578.37 -1.5967 0.586473 0
M  V30 5604 O 579.555 -1.75702 0.827185 0
M  V30 5605 C 576.685 -2.94251 1.84483 0
M  V30 5606 C 575.639 -3.05471 2.99786 0
M  V30 5607 C 574.965 -4.45489 2.95709 0
M  V30 5608 C 576.265 -2.81318 4.40065 0
M  V30 5609 H 577.959 -1.37138 2.66146 0
M  V30 5610 H 575.505 -0.658299 1.28072 0
M  V30 5611 H 577.458 -3.71417 1.99067 0
M  V30 5612 H 576.182 -3.14328 0.886891 0
M  V30 5613 H 574.841 -2.30741 2.84876 0
M  V30 5614 H 574.489 -4.62505 1.97732 0
M  V30 5615 H 574.189 -4.53929 3.73125 0
M  V30 5616 H 575.713 -5.24655 3.12362 0
M  V30 5617 H 577.127 -3.48226 4.55425 0
M  V30 5618 H 575.524 -3.01188 5.19043 0
M  V30 5619 H 576.594 -1.7706 4.51418 0
M  V30 5620 N 577.937 -1.40673 -0.710563 0
M  V30 5621 C 578.847 -1.43663 -1.85467 0
M  V30 5622 C 579.863 -0.328721 -1.70867 0
M  V30 5623 O 581.039 -0.574098 -1.93044 0
M  V30 5624 C 578.104 -1.30226 -3.21313 0
M  V30 5625 C 577.165 -2.51204 -3.48131 0
M  V30 5626 C 576.398 -2.38398 -4.77495 0
M  V30 5627 O 576.621 -1.40048 -5.5294 0
M  V30 5628 O 575.555 -3.2787 -5.04762 0
M  V30 5629 H 579.381 -2.40156 -1.859 0
M  V30 5630 H 576.966 -1.22049 -0.861652 0
M  V30 5631 H 578.848 -1.2496 -4.02446 0
M  V30 5632 H 577.523 -0.368419 -3.21597 0
M  V30 5633 H 576.43 -2.62048 -2.66987 0
M  V30 5634 H 577.763 -3.43366 -3.52648 0
M  V30 5635 N 579.415 0.9433 -1.26252 0
M  V30 5636 C 580.345 2.05902 -1.10122 0
M  V30 5637 C 581.326 1.70099 -0.00700552 0
M  V30 5638 O 582.511 1.93377 -0.178641 0
M  V30 5639 C 579.641 3.39516 -0.731175 0
M  V30 5640 C 578.595 3.89372 -1.77688 0
M  V30 5641 C 577.921 5.19613 -1.26122 0
M  V30 5642 C 579.221 4.14489 -3.17799 0
M  V30 5643 H 580.915 2.19655 -2.03451 0
M  V30 5644 H 578.461 1.05548 -0.979576 0
M  V30 5645 H 580.414 4.17031 -0.605215 0
M  V30 5646 H 579.138 3.25733 0.23782 0
M  V30 5647 H 577.797 3.14036 -1.89148 0
M  V30 5648 H 577.445 5.02208 -0.282128 0
M  V30 5649 H 577.145 5.53939 -1.96023 0
M  V30 5650 H 578.669 5.99713 -1.14789 0
M  V30 5651 H 580.083 4.82625 -3.09428 0
M  V30 5652 H 578.48 4.60094 -3.85271 0
M  V30 5653 H 579.55 3.20347 -3.64014 0
M  V30 5654 N 580.893 1.08022 1.14757 0
M  V30 5655 C 582.139 0.808705 1.85978 0
M  V30 5656 C 582.472 -0.663764 1.82504 0
M  V30 5657 O 581.747 -1.48765 1.25296 0
M  V30 5658 C 582.03 1.32623 3.34788 0
M  V30 5659 C 581.883 2.86375 3.46856 0
M  V30 5660 C 583.202 0.948291 4.29762 0
M  V30 5661 H 580.321 0.295244 0.675278 0
M  V30 5662 H 582.963 1.33917 1.34783 0
M  V30 5663 H 581.113 0.875002 3.78518 0
M  V30 5664 H 582.785 3.39839 3.11941 0
M  V30 5665 H 581.028 3.24232 2.88194 0
M  V30 5666 H 581.699 3.17658 4.51439 0
M  V30 5667 H 584.175 1.33722 3.94028 0
M  V30 5668 H 583.051 1.33765 5.32352 0
M  V30 5669 H 583.312 -0.145094 4.41862 0
M  V30 5670 N 582.371 -1.3172 0.865308 0
M  V30 5671 C 583.596 -2.01591 0.487415 0
M  V30 5672 C 584.021 -1.6455 -0.911307 0
M  V30 5673 O 583.379 -0.851689 -1.6005 0
M  V30 5674 C 583.427 -3.54759 0.646401 0
M  V30 5675 O 582.531 -4.11185 -0.316284 0
M  V30 5676 H 581.872 -0.634884 0.194468 0
M  V30 5677 H 584.402 -1.68024 1.16744 0
M  V30 5678 H 584.412 -4.04438 0.537932 0
M  V30 5679 H 583.087 -3.8106 1.66632 0
M  V30 5680 H 581.664 -3.72543 -0.163162 0
M  V30 5681 N 583.85 -0.624285 -1.44708 0
M  V30 5682 C 584.779 0.0717025 -2.3339 0
M  V30 5683 C 585.76 0.841814 -1.47809 0
M  V30 5684 O 586.946 0.809056 -1.76544 0
M  V30 5685 C 584.076 1.05852 -3.30776 0
M  V30 5686 C 583.029 0.400503 -4.26122 0
M  V30 5687 C 582.356 1.49674 -5.13324 0
M  V30 5688 C 583.656 -0.688924 -5.17737 0
M  V30 5689 H 585.35 -0.668819 -2.91834 0
M  V30 5690 H 582.896 -0.32308 -1.40329 0
M  V30 5691 H 584.849 1.5541 -3.91696 0
M  V30 5692 H 583.572 1.82984 -2.70526 0
M  V30 5693 H 582.231 -0.0743687 -3.66525 0
M  V30 5694 H 581.88 2.25877 -4.49431 0
M  V30 5695 H 581.58 1.06188 -5.77926 0
M  V30 5696 H 583.104 1.99427 -5.77115 0
M  V30 5697 H 584.518 -0.276724 -5.72632 0
M  V30 5698 H 582.915 -1.04652 -5.90904 0
M  V30 5699 H 583.985 -1.55884 -4.5916 0
M  V30 5700 N 585.328 1.53329 -0.364422 0
M  V30 5701 C 586.744 1.59594 -0.0133165 0
M  V30 5702 C 586.944 1.37959 1.46865 0
M  V30 5703 O 586 1.18418 2.2301 0
M  V30 5704 C 587.313 2.97032 -0.468213 0
M  V30 5705 C 588.861 3.10138 -0.422334 0
M  V30 5706 C 589.336 4.49986 -0.853024 0
M  V30 5707 N 590.827 4.56098 -0.808037 0
M  V30 5708 C 591.562 5.62495 -1.11299 0
M  V30 5709 N 591.058 6.7665 -1.48717 0
M  V30 5710 N 592.851 5.52473 -1.03586 0
M  V30 5711 H 585.002 1.65644 -1.32951 0
M  V30 5712 H 587.265 0.77684 -0.543345 0
M  V30 5713 H 586.971 3.18 -1.5023 0
M  V30 5714 H 586.845 3.76918 0.145775 0
M  V30 5715 H 589.232 2.88881 0.602622 0
M  V30 5716 H 589.313 2.32263 -1.0718 0
M  V30 5717 H 588.957 4.7198 -1.87609 0
M  V30 5718 H 588.887 5.26289 -0.180819 0
M  V30 5719 H 591.378 3.74131 -0.532361 0
M  V30 5720 H 591.691 7.53776 -1.70415 0
M  V30 5721 H 590.036 6.78044 -1.52581 0
M  V30 5722 H 593.227 4.6217 -0.742736 0
M  V30 5723 H 593.4 6.35295 -1.27686 0
M  V30 5724 N 586.806 0.0935595 1.57322 0
M  V30 5725 C 588.217 -0.435807 1.81542 0
M  V30 5726 C 588.568 -1.68263 1.00907 0
M  V30 5727 O 587.693 -2.15087 0.237983 0
M  V30 5728 C 588.288 -0.797436 3.29282 0
M  V30 5729 C 586.847 -1.27155 3.54272 0
M  V30 5730 C 585.994 -0.267455 2.76007 0
M  V30 5731 H 588.945 0.31902 1.5546 0
M  V30 5732 H 588.966 -1.6571 3.42521 0
M  V30 5733 H 588.478 0.110206 3.87943 0
M  V30 5734 H 586.579 -2.19696 3.00939 0
M  V30 5735 H 586.692 -1.23445 4.62923 0
M  V30 5736 H 585.056 -0.749282 2.43429 0
M  V30 5737 H 585.839 0.632839 3.37417 0
M  V30 5738 N 588.284 -1.56567 -0.180126 0
M  V30 5739 C 589.524 -1.83285 -0.904761 0
M  V30 5740 C 589.888 -0.673226 -1.7981 0
M  V30 5741 O 591.089 -0.820645 -2.55967 0
M  V30 5742 C 589.36 -3.15086 -1.68688 0
M  V30 5743 S 590.919 -3.63258 -2.46149 0
M  V30 5744 H 587.737 -0.643114 -0.303193 0
M  V30 5745 H 590.339 -1.94785 -0.167034 0
M  V30 5746 H 589.043 -3.97484 -1.02148 0
M  V30 5747 H 588.574 -3.06504 -2.46615 0
M  V30 5748 H 590.589 -3.29884 -3.70663 0
M  V30 5749 N 589.762 0.448376 -1.51087 0
M  V30 5750 C 591.009 1.19872 -1.63209 0
M  V30 5751 C 591.337 1.91451 -0.343062 0
M  V30 5752 O 590.592 1.83789 0.672321 0
M  V30 5753 C 590.891 2.24866 -2.77795 0
M  V30 5754 C 590.557 1.70378 -4.17471 0
M  V30 5755 C 589.219 1.55241 -4.55471 0
M  V30 5756 C 591.571 1.30203 -5.04675 0
M  V30 5757 C 588.899 0.983844 -5.78392 0
M  V30 5758 C 591.251 0.747798 -6.28165 0
M  V30 5759 C 589.915 0.583233 -6.64947 0
M  V30 5760 H 589.185 0.438642 -0.597222 0
M  V30 5761 H 591.832 0.49136 -1.85089 0
M  V30 5762 H 590.137 3.01598 -2.50092 0
M  V30 5763 H 591.834 2.82723 -2.84374 0
M  V30 5764 H 588.424 1.83134 -3.87505 0
M  V30 5765 H 592.608 1.40723 -4.75932 0
M  V30 5766 H 587.864 0.844007 -6.05546 0
M  V30 5767 H 592.038 0.427927 -6.95084 0
M  V30 5768 H 589.665 0.140532 -7.6007 0
M  V30 5769 N 591.24 1.41047 0.703093 0
M  V30 5770 C 592.488 1.39723 1.4602 0
M  V30 5771 C 592.809 0.00461257 1.94999 0
M  V30 5772 O 592.079 -0.952292 1.71196 0
M  V30 5773 H 590.659 0.514281 0.541779 0
M  V30 5774 H 593.321 1.76217 0.832678 0
M  V30 5775 H 592.417 2.07982 2.32701 0
M  V30 5776 N 592.718 -0.936591 1.26751 0
M  V30 5777 C 593.995 -1.66094 1.03306 0
M  V30 5778 C 594.375 -2.06568 -0.435058 0
M  V30 5779 O 593.723 -1.79305 -1.41641 0
M  V30 5780 C 593.933 -2.86969 1.98619 0
M  V30 5781 C 595.281 -3.58516 2.27489 0
M  V30 5782 O 596.305 -2.97082 1.96522 0
M  V30 5783 O 595.164 -4.69181 2.80235 0
M  V30 5784 H 592.258 -0.727568 0.393158 0
M  V30 5785 H 594.804 -0.987914 1.3798 0
M  V30 5786 H 593.576 -2.53985 2.9767 0
M  V30 5787 H 593.199 -3.61996 1.64454 0
M  V30 5788 N 594.196 -1.08629 -1.14182 0
M  V30 5789 C 595.426 -0.837673 -1.88856 0
M  V30 5790 C 595.834 0.614024 -1.78959 0
M  V30 5791 O 595.177 1.43384 -1.14833 0
M  V30 5792 C 595.239 -1.18355 -3.39459 0
M  V30 5793 C 594.903 -2.63848 -3.73139 0
M  V30 5794 C 595.9 -3.62099 -3.73069 0
M  V30 5795 C 593.585 -2.99761 -4.03049 0
M  V30 5796 C 595.579 -4.94292 -4.02435 0
M  V30 5797 C 593.266 -4.32147 -4.32078 0
M  V30 5798 C 594.264 -5.29223 -4.31755 0
M  V30 5799 O 593.952 -6.59229 -4.60079 0
M  V30 5800 H 593.684 -0.301609 -0.604986 0
M  V30 5801 H 596.238 -1.44961 -1.45518 0
M  V30 5802 H 594.468 -0.514628 -3.8326 0
M  V30 5803 H 596.157 -0.915391 -3.95443 0
M  V30 5804 H 596.923 -3.35698 -3.50046 0
M  V30 5805 H 592.802 -2.2484 -4.02453 0
M  V30 5806 H 596.346 -5.70055 -4.02098 0
M  V30 5807 H 592.243 -4.58296 -4.54571 0
M  V30 5808 H 593.011 -6.64578 -4.77785 0
M  V30 5809 N 595.674 1.31259 -0.872281 0
M  V30 5810 C 596.899 2.0133 -0.498099 0
M  V30 5811 C 597.324 1.65031 0.902568 0
M  V30 5812 O 596.682 0.860164 1.59596 0
M  V30 5813 C 596.73 3.54411 -0.665205 0
M  V30 5814 O 595.834 4.11347 0.294473 0
M  V30 5815 H 595.175 0.633844 -0.197832 0
M  V30 5816 H 597.705 1.67402 -1.17633 0
M  V30 5817 H 597.715 4.04147 -0.559373 0
M  V30 5818 H 596.39 3.80171 -1.68651 0
M  V30 5819 H 594.967 3.72624 0.143403 0
M  V30 5820 N 597.152 0.631951 1.44375 0
M  V30 5821 C 598.429 0.067646 1.95483 0
M  V30 5822 C 598.809 -1.40683 1.57389 0
M  V30 5823 O 598.157 -2.12167 0.848375 0
M  V30 5824 C 598.367 0.291392 3.47781 0
M  V30 5825 C 599.715 0.185028 4.24197 0
M  V30 5826 O 600.739 0.222803 3.55503 0
M  V30 5827 O 599.598 0.0906642 5.46425 0
M  V30 5828 H 596.692 -0.0218379 0.826712 0
M  V30 5829 H 599.238 0.703711 1.54421 0
M  V30 5830 H 598.01 1.31449 3.68561 0
M  V30 5831 H 597.633 -0.378772 3.95792 0
M  V30 5832 N 598.631 -1.53133 0.372548 0
M  V30 5833 C 599.541 -2.29671 -0.478379 0
M  V30 5834 C 600.557 -1.35913 -1.08644 0
M  V30 5835 O 601.733 -1.68975 -1.09588 0
M  V30 5836 C 598.798 -3.07625 -1.599 0
M  V30 5837 C 597.859 -4.17061 -1.01776 0
M  V30 5838 C 597.092 -4.91289 -2.08497 0
M  V30 5839 O 597.315 -4.65442 -3.29727 0
M  V30 5840 O 596.249 -5.7705 -1.71164 0
M  V30 5841 H 600.075 -3.03355 0.144649 0
M  V30 5842 H 597.66 -1.48773 0.136729 0
M  V30 5843 H 599.542 -3.56281 -2.25038 0
M  V30 5844 H 598.217 -2.3677 -2.2073 0
M  V30 5845 H 597.124 -3.72641 -0.330098 0
M  V30 5846 H 598.457 -4.90102 -0.453915 0
M  V30 5847 N 600.109 -0.101901 -1.5727 0
M  V30 5848 C 601.334 0.571759 -1.99363 0
M  V30 5849 C 601.759 1.60507 -0.980768 0
M  V30 5850 O 601.117 1.81231 0.0498517 0
M  V30 5851 C 601.165 1.18996 -3.404 0
M  V30 5852 O 600.269 2.30572 -3.41922 0
M  V30 5853 H 599.61 0.144449 -0.648098 0
M  V30 5854 H 602.14 -0.185325 -2.03759 0
M  V30 5855 H 602.15 1.52962 -3.78241 0
M  V30 5856 H 600.825 0.432984 -4.1364 0
M  V30 5857 H 599.402 1.98173 -3.15883 0
M  V30 5858 N 601.587 1.56661 0.17182 0
M  V30 5859 C 602.864 1.72838 0.915778 0
M  V30 5860 C 603.244 0.66316 2.00413 0
M  V30 5861 O 602.592 -0.322123 2.26218 0
M  V30 5862 C 602.802 3.16019 1.48097 0
M  V30 5863 C 604.15 3.76962 1.95408 0
M  V30 5864 O 605.174 3.19294 1.57892 0
M  V30 5865 O 604.033 4.78219 2.64516 0
M  V30 5866 H 601.127 0.705797 0.431021 0
M  V30 5867 H 603.673 1.68947 0.159689 0
M  V30 5868 H 602.445 3.85031 0.697618 0
M  V30 5869 H 602.068 3.24234 2.30126 0
M  V30 5870 N 603.065 -0.440357 1.51323 0
M  V30 5871 C 604.29 -1.21716 1.67928 0
M  V30 5872 C 604.715 -1.84328 0.374826 0
M  V30 5873 O 604.073 -1.68675 -0.664706 0
M  V30 5874 C 604.121 -2.27914 2.79442 0
M  V30 5875 O 603.225 -3.33325 2.42834 0
M  V30 5876 H 602.566 -0.35674 0.560029 0
M  V30 5877 H 605.096 -0.520417 1.97871 0
M  V30 5878 H 605.106 -2.72746 3.03436 0
M  V30 5879 H 603.781 -1.8172 3.741 0
M  V30 5880 H 602.358 -2.9399 2.294 0
M  V30 5881 N 604.543 -1.41418 -0.695603 0
M  V30 5882 C 605.506 -1.42988 -1.79129 0
M  V30 5883 C 606.506 -0.320514 -1.57573 0
M  V30 5884 O 607.696 -0.58039 -1.64247 0
M  V30 5885 C 604.828 -1.24122 -3.175 0
M  V30 5886 H 606.021 -2.40526 -1.7913 0
M  V30 5887 H 603.574 -1.2756 -0.903225 0
M  V30 5888 H 604.309 -0.274253 -3.23138 0
M  V30 5889 H 604.094 -2.045 -3.34547 0
M  V30 5890 H 605.584 -1.28056 -3.97481 0
M  V30 5891 N 606.021 0.929856 -1.27246 0
M  V30 5892 C 607.249 1.71144 -1.16265 0
M  V30 5893 C 607.664 1.867 0.280786 0
M  V30 5894 O 607.021 1.38249 1.19136 0
M  V30 5895 C 607.072 3.11222 -1.83911 0
M  V30 5896 O 606.793 2.96398 -3.22614 0
M  V30 5897 C 608.294 4.05541 -1.79028 0
M  V30 5898 H 605.514 0.535499 -0.404328 0
M  V30 5899 H 608.058 1.16492 -1.68077 0
M  V30 5900 H 606.213 3.6274 -1.36009 0
M  V30 5901 H 606.627 3.8494 -3.56261 0
M  V30 5902 H 608.101 5.01351 -2.30978 0
M  V30 5903 H 608.578 4.32589 -0.759168 0
M  V30 5904 H 609.184 3.59947 -2.26535 0
M  V30 5905 N 607.499 1.09233 1.13605 0
M  V30 5906 C 608.745 0.828385 1.8511 0
M  V30 5907 C 609.078 -0.64437 1.83198 0
M  V30 5908 O 608.353 -1.47428 1.26867 0
M  V30 5909 C 608.636 1.36167 3.33363 0
M  V30 5910 C 608.489 2.90038 3.438 0
M  V30 5911 C 609.808 0.993819 4.28732 0
M  V30 5912 H 606.927 0.30239 0.672108 0
M  V30 5913 H 609.569 1.35339 1.33355 0
M  V30 5914 H 607.719 0.9151 3.77569 0
M  V30 5915 H 609.391 3.43128 3.08319 0
M  V30 5916 H 607.634 3.27271 2.84739 0
M  V30 5917 H 608.305 3.22428 4.48045 0
M  V30 5918 H 610.781 1.37893 3.92587 0
M  V30 5919 H 609.657 1.39403 5.30903 0
M  V30 5920 H 609.918 -0.0982206 4.41991 0
M  V30 5921 N 608.977 -1.30795 0.87923 0
M  V30 5922 C 610.207 -2.00237 0.50881 0
M  V30 5923 C 610.615 -1.66115 -0.905682 0
M  V30 5924 O 609.958 -0.89138 -1.60624 0
M  V30 5925 C 610.02 -3.54508 0.597003 0
M  V30 5926 C 609.684 -4.12131 1.97477 0
M  V30 5927 C 610.681 -4.28552 2.94346 0
M  V30 5928 C 608.366 -4.47644 2.2786 0
M  V30 5929 C 610.36 -4.79689 4.19735 0
M  V30 5930 C 608.047 -4.98481 3.53496 0
M  V30 5931 C 609.045 -5.14456 4.49248 0
M  V30 5932 O 608.733 -5.64199 5.72656 0
M  V30 5933 H 608.465 -0.647026 0.195788 0
M  V30 5934 H 611.019 -1.67785 1.1848 0
M  V30 5935 H 609.249 -3.86461 -0.135945 0
M  V30 5936 H 610.938 -4.05198 0.238684 0
M  V30 5937 H 611.704 -4.01424 2.72183 0
M  V30 5938 H 607.583 -4.34481 1.54102 0
M  V30 5939 H 611.127 -4.92073 4.9448 0
M  V30 5940 H 607.024 -5.25044 3.75498 0
M  V30 5941 H 607.792 -5.82551 5.74957 0
M  V30 5942 N 610.455 -0.639598 -1.44038 0
M  V30 5943 C 611.732 -0.078012 -1.95444 0
M  V30 5944 C 612.112 1.39847 -1.58133 0
M  V30 5945 O 611.46 2.11714 -0.859614 0
M  V30 5946 C 611.67 -0.309832 -3.47622 0
M  V30 5947 C 613.018 -0.207521 -4.24093 0
M  V30 5948 O 614.042 -0.241653 -3.55379 0
M  V30 5949 O 612.901 -0.119641 -5.46369 0
M  V30 5950 H 609.995 0.0174534 -0.826816 0
M  V30 5951 H 612.541 -0.711891 -1.54046 0
M  V30 5952 H 611.313 -1.33401 -3.67858 0
M  V30 5953 H 610.936 0.357777 -3.95987 0
M  V30 5954 N 611.933 1.52934 -0.380664 0
M  V30 5955 C 612.881 2.27727 0.47361 0
M  V30 5956 C 613.875 1.31288 1.0705 0
M  V30 5957 O 615.081 1.4886 1.01197 0
M  V30 5958 H 611.456 0.732189 0.171475 0
M  V30 5959 H 613.427 2.97864 -0.178785 0
M  V30 5960 C 612.176 3.0904 1.59341 0
M  V30 5961 H 611.499 3.831 1.14343 0
M  V30 5962 H 612.939 3.64527 2.16555 0
M  V30 5963 C 611.398 2.20813 2.54447 0
M  V30 5964 O 611.928 1.82907 3.57642 0
M  V30 5965 N 610.134 1.85145 2.23986 0
M  V30 5966 H 609.681 2.16169 1.40103 0
M  V30 5967 H 609.639 1.26402 2.87871 0
M  V30 5968 N 613.412 0.11024 1.57214 0
M  V30 5969 C 614.652 -0.553061 1.96775 0
M  V30 5970 C 615.016 -1.64403 0.991753 0
M  V30 5971 O 616.217 -2.36561 1.27642 0
M  V30 5972 C 614.488 -1.08004 3.4069 0
M  V30 5973 S 616.047 -1.75309 4.02259 0
M  V30 5974 H 612.865 -0.18003 0.68783 0
M  V30 5975 H 615.467 0.193242 1.94543 0
M  V30 5976 H 614.171 -0.274735 4.09479 0
M  V30 5977 H 613.702 -1.86182 3.46554 0
M  V30 5978 H 615.717 -3.03834 3.923 0
M  V30 5979 N 614.89 -1.56749 -0.16351 0
M  V30 5980 C 615.853 -1.96121 -1.18613 0
M  V30 5981 C 616.853 -0.845765 -1.36761 0
M  V30 5982 O 618.043 -1.11268 -1.34033 0
M  V30 5983 C 615.175 -2.26282 -2.54969 0
M  V30 5984 H 616.368 -2.87639 -0.848764 0
M  V30 5985 H 613.921 -1.50928 -0.406251 0
M  V30 5986 H 614.656 -1.37504 -2.93706 0
M  V30 5987 H 614.441 -3.07595 -2.43162 0
M  V30 5988 H 615.931 -2.57638 -3.28653 0
M  V30 5989 N 616.368 0.432326 -1.51554 0
M  V30 5990 C 617.593 1.20824 -1.68571 0
M  V30 5991 C 618.018 1.84126 -0.384596 0
M  V30 5992 O 617.376 1.69025 0.655751 0
M  V30 5993 C 617.424 2.26429 -2.80646 0
M  V30 5994 O 616.528 3.32032 -2.44598 0
M  V30 5995 H 615.869 0.353765 -0.561913 0
M  V30 5996 H 618.399 0.509916 -1.98144 0
M  V30 5997 H 618.409 2.71133 -3.04878 0
M  V30 5998 H 617.084 1.79733 -3.75058 0
M  V30 5999 H 615.661 2.92769 -2.30956 0
M  V30 6000 N 617.846 1.41785 0.688094 0
M  V30 6001 C 619.092 1.41753 1.4503 0
M  V30 6002 C 619.425 0.0290745 1.94178 0
M  V30 6003 O 618.7 -0.944456 1.7003 0
M  V30 6004 C 618.983 2.43069 2.65686 0
M  V30 6005 C 618.836 3.91053 2.22256 0
M  V30 6006 C 620.155 2.41543 3.67893 0
M  V30 6007 H 617.274 0.516202 0.526027 0
M  V30 6008 H 619.916 1.73111 0.783105 0
M  V30 6009 H 618.066 2.1646 3.2261 0
M  V30 6010 H 619.738 4.28594 1.70602 0
M  V30 6011 H 617.981 4.05559 1.53963 0
M  V30 6012 H 618.652 4.57501 3.08863 0
M  V30 6013 H 621.128 2.65175 3.20658 0
M  V30 6014 H 620.004 3.14434 4.49914 0
M  V30 6015 H 620.265 1.43666 4.18106 0
M  V30 6016 N 619.324 -0.923095 1.27737 0
M  V30 6017 C 620.549 -1.71054 1.17283 0
M  V30 6018 C 620.974 -1.86208 -0.266153 0
M  V30 6019 O 620.332 -1.36545 -1.1927 0
M  V30 6020 C 620.38 -3.0854 1.86642 0
M  V30 6021 O 619.484 -3.95528 1.16752 0
M  V30 6022 H 618.825 -0.524136 0.407649 0
M  V30 6023 H 621.355 -1.15487 1.6889 0
M  V30 6024 H 621.365 -3.58828 1.94182 0
M  V30 6025 H 620.04 -2.96828 2.91317 0
M  V30 6026 H 618.617 -3.53967 1.17312 0
M  V30 6027 N 620.802 -1.09834 -1.13024 0
M  V30 6028 C 622.027 -0.85909 -1.88771 0
M  V30 6029 C 622.452 0.584402 -1.78791 0
M  V30 6030 O 621.81 1.41101 -1.13842 0
M  V30 6031 C 621.858 -1.30427 -3.36186 0
M  V30 6032 O 620.962 -0.465368 -4.09766 0
M  V30 6033 H 620.303 -0.310786 -0.586778 0
M  V30 6034 H 622.833 -1.46355 -1.42973 0
M  V30 6035 H 622.843 -1.2915 -3.8702 0
M  V30 6036 H 621.518 -2.3555 -3.42767 0
M  V30 6037 H 620.095 -0.542814 -3.68928 0
M  V30 6038 N 622.28 1.30327 -0.886154 0
M  V30 6039 C 623.691 1.78243 -0.555554 0
M  V30 6040 C 624.042 1.72849 0.928314 0
M  V30 6041 O 623.167 1.30607 1.72542 0
M  V30 6042 C 623.762 3.23654 -1.00168 0
M  V30 6043 C 622.321 3.69401 -0.722471 0
M  V30 6044 C 621.468 2.50753 -1.18399 0
M  V30 6045 H 624.419 1.1718 -1.07026 0
M  V30 6046 H 624.44 3.79056 -0.331152 0
M  V30 6047 H 623.952 3.27548 -2.08169 0
M  V30 6048 H 622.053 3.70995 0.345496 0
M  V30 6049 H 622.166 4.60818 -1.31085 0
M  V30 6050 H 620.53 2.47452 -0.603303 0
M  V30 6051 H 621.313 2.57383 -2.27176 0
M  V30 6052 N 623.758 0.647228 1.43697 0
M  V30 6053 C 624.988 0.16551 2.05936 0
M  V30 6054 C 625.396 -1.17164 1.48557 0
M  V30 6055 O 624.739 -1.73307 0.60914 0
M  V30 6056 C 624.801 -0.00648082 3.59499 0
M  V30 6057 C 624.465 1.25503 4.39429 0
M  V30 6058 C 625.462 2.18241 4.71876 0
M  V30 6059 C 623.147 1.49494 4.79538 0
M  V30 6060 C 625.141 3.33268 5.43333 0
M  V30 6061 C 622.828 2.64815 5.50742 0
M  V30 6062 C 623.826 3.56528 5.82561 0
M  V30 6063 O 623.514 4.69836 6.52311 0
M  V30 6064 H 623.246 0.0844124 0.670709 0
M  V30 6065 H 625.8 0.88638 1.8529 0
M  V30 6066 H 624.03 -0.782661 3.78697 0
M  V30 6067 H 625.719 -0.444794 4.03456 0
M  V30 6068 H 626.485 2.00946 4.41413 0
M  V30 6069 H 622.364 0.789912 4.54182 0
M  V30 6070 H 625.908 4.04874 5.68087 0
M  V30 6071 H 621.805 2.82047 5.8062 0
M  V30 6072 H 622.573 4.69024 6.70789 0
M  V30 6073 N 625.236 -1.5273 0.388769 0
M  V30 6074 C 626.146 -2.30165 -0.453993 0
M  V30 6075 C 627.162 -1.37058 -1.07197 0
M  V30 6076 O 628.338 -1.70127 -1.0779 0
M  V30 6077 C 625.403 -3.09303 -1.56628 0
M  V30 6078 C 624.464 -4.18117 -0.973467 0
M  V30 6079 C 623.697 -4.93472 -2.03275 0
M  V30 6080 O 623.92 -4.68913 -3.24772 0
M  V30 6081 O 622.854 -5.78833 -1.65034 0
M  V30 6082 H 626.68 -3.03185 0.176816 0
M  V30 6083 H 624.265 -1.4862 0.152501 0
M  V30 6084 H 626.147 -3.58648 -2.21246 0
M  V30 6085 H 624.822 -2.39098 -2.18206 0
M  V30 6086 H 623.729 -3.7297 -0.290556 0
M  V30 6087 H 625.062 -4.90556 -0.401908 0
M  V30 6088 N 626.714 -0.118576 -1.57153 0
M  V30 6089 C 627.939 0.550582 -1.99958 0
M  V30 6090 C 628.364 1.59458 -0.997736 0
M  V30 6091 O 627.722 1.81274 0.0306269 0
M  V30 6092 C 627.77 1.15379 -3.41643 0
M  V30 6093 O 626.874 2.26932 -3.44348 0
M  V30 6094 H 626.215 0.137567 -0.649593 0
M  V30 6095 H 628.745 -0.206926 -2.03551 0
M  V30 6096 H 628.755 1.48942 -3.79843 0
M  V30 6097 H 627.43 0.389087 -4.14076 0
M  V30 6098 H 626.007 1.94812 -3.17967 0
M  V30 6099 N 628.193 1.56834 0.155195 0
M  V30 6100 C 629.156 1.96748 1.17571 0
M  V30 6101 C 630.156 0.853006 1.3631 0
M  V30 6102 O 631.346 1.11978 1.33441 0
M  V30 6103 C 628.478 2.27631 2.53765 0
M  V30 6104 H 629.671 2.88085 0.833498 0
M  V30 6105 H 627.224 1.51141 0.398242 0
M  V30 6106 H 627.959 1.39059 2.92973 0
M  V30 6107 H 627.744 3.0888 2.41527 0
M  V30 6108 H 629.234 2.59377 3.27282 0
M  V30 6109 N 629.671 -0.424282 1.51781 0
M  V30 6110 C 630.92 -1.16961 1.64326 0
M  V30 6111 C 631.233 -1.92035 0.371749 0
M  V30 6112 O 632.439 -2.68873 0.37676 0
M  V30 6113 C 630.895 -2.12782 2.90262 0
M  V30 6114 C 630.503 -1.43295 4.24465 0
M  V30 6115 C 632.247 -2.87667 3.12166 0
M  V30 6116 C 630.154 -2.37676 5.41538 0
M  V30 6117 H 629.084 -0.440293 0.612093 0
M  V30 6118 H 631.735 -0.435431 1.78259 0
M  V30 6119 H 630.117 -2.8969 2.69992 0
M  V30 6120 H 631.291 -0.718564 4.55163 0
M  V30 6121 H 629.606 -0.805118 4.08542 0
M  V30 6122 H 632.203 -3.58395 3.96808 0
M  V30 6123 H 632.546 -3.49758 2.25776 0
M  V30 6124 H 633.079 -2.17863 3.32837 0
M  V30 6125 H 629.818 -1.80255 6.30229 0
M  V30 6126 H 629.338 -3.07132 5.15199 0
M  V30 6127 H 631.017 -2.98529 5.74012 0
M  V30 6128 N 631.149 -1.42148 -0.680565 0
M  V30 6129 C 632.397 -1.42029 -1.43779 0
M  V30 6130 C 632.718 -0.0356347 -1.94967 0
M  V30 6131 O 631.988 0.924936 -1.7269 0
M  V30 6132 H 630.568 -0.522835 -0.533529 0
M  V30 6133 H 633.23 -1.7752 -0.804538 0
M  V30 6134 H 632.326 -2.11658 -2.29363 0
M  V30 6135 N 632.627 0.916307 -1.28225 0
M  V30 6136 C 633.537 2.05165 -1.13775 0
M  V30 6137 C 634.553 1.73879 -0.0649418 0
M  V30 6138 O 635.729 1.99531 -0.273722 0
M  V30 6139 C 632.794 3.37385 -0.798267 0
M  V30 6140 C 631.855 3.82296 -1.95316 0
M  V30 6141 C 631.088 5.08206 -1.62978 0
M  V30 6142 O 631.311 5.6781 -0.542948 0
M  V30 6143 O 630.245 5.48768 -2.47261 0
M  V30 6144 H 634.071 2.20273 -2.09078 0
M  V30 6145 H 631.656 1.0373 -1.07519 0
M  V30 6146 H 633.538 4.16773 -0.62278 0
M  V30 6147 H 632.213 3.23458 0.125139 0
M  V30 6148 H 631.12 3.03746 -2.18378 0
M  V30 6149 H 632.453 4.00782 -2.85718 0
M  V30 6150 N 634.105 1.10431 1.1244 0
M  V30 6151 C 635.015 0.765502 2.21759 0
M  V30 6152 C 636.031 -0.236966 1.72379 0
M  V30 6153 O 637.207 -0.0757329 2.01258 0
M  V30 6154 C 634.272 0.202316 3.46109 0
M  V30 6155 C 633.333 1.26205 4.1033 0
M  V30 6156 C 632.566 0.725648 5.28744 0
M  V30 6157 O 632.789 -0.447942 5.68638 0
M  V30 6158 O 631.723 1.48555 5.83279 0
M  V30 6159 H 635.549 1.67801 2.53133 0
M  V30 6160 H 633.134 0.879443 1.20773 0
M  V30 6161 H 635.016 -0.107918 4.21262 0
M  V30 6162 H 633.691 -0.683052 3.16411 0
M  V30 6163 H 632.598 1.62514 3.36957 0
M  V30 6164 H 633.931 2.12044 4.44183 0
M  V30 6165 N 635.583 -1.29855 0.893053 0
M  V30 6166 C 636.813 -1.99686 0.530019 0
M  V30 6167 C 637.221 -1.67066 -0.888012 0
M  V30 6168 O 636.564 -0.908366 -1.5967 0
M  V30 6169 C 636.626 -3.53855 0.63457 0
M  V30 6170 C 636.29 -4.10013 2.01837 0
M  V30 6171 C 637.287 -4.25406 2.98874 0
M  V30 6172 C 634.972 -4.45202 2.32595 0
M  V30 6173 C 636.966 -4.7521 4.24799 0
M  V30 6174 C 634.653 -4.94704 3.58763 0
M  V30 6175 C 635.651 -5.09662 4.5468 0
M  V30 6176 O 635.339 -5.58093 5.78608 0
M  V30 6177 H 635.071 -0.644913 0.20264 0
M  V30 6178 H 637.625 -1.66518 1.20253 0
M  V30 6179 H 635.855 -3.86583 -0.0949477 0
M  V30 6180 H 637.544 -4.04922 0.281648 0
M  V30 6181 H 638.31 -3.98515 2.76425 0
M  V30 6182 H 634.189 -4.32822 1.58701 0
M  V30 6183 H 637.733 -4.86801 4.99671 0
M  V30 6184 H 633.63 -5.21032 3.81046 0
M  V30 6185 H 634.398 -5.7642 5.81104 0
M  V30 6186 N 637.061 -0.65484 -1.43351 0
M  V30 6187 C 637.971 0.0363603 -2.34572 0
M  V30 6188 C 638.987 0.810432 -1.53974 0
M  V30 6189 O 640.163 0.757308 -1.86619 0
M  V30 6190 C 637.228 0.989733 -3.32273 0
M  V30 6191 C 636.289 0.212414 -4.28774 0
M  V30 6192 C 635.522 1.12038 -5.21808 0
M  V30 6193 O 635.745 2.35967 -5.19303 0
M  V30 6194 O 634.679 0.59191 -5.98982 0
M  V30 6195 H 638.505 -0.714527 -2.95175 0
M  V30 6196 H 636.09 -0.415029 -1.4352 0
M  V30 6197 H 637.972 1.53759 -3.92347 0
M  V30 6198 H 636.647 1.72082 -2.74171 0
M  V30 6199 H 635.554 -0.379062 -3.72175 0
M  V30 6200 H 636.887 -0.479138 -4.89862 0
M  V30 6201 N 638.539 1.52521 -0.396863 0
M  V30 6202 C 639.449 2.30403 0.44178 0
M  V30 6203 C 640.465 1.37625 1.06468 0
M  V30 6204 O 641.641 1.70697 1.06886 0
M  V30 6205 C 638.706 3.1013 1.54986 0
M  V30 6206 C 637.767 4.18628 0.951279 0
M  V30 6207 C 637 4.94543 2.00655 0
M  V30 6208 O 637.223 4.70629 3.22281 0
M  V30 6209 O 636.157 5.797 1.61962 0
M  V30 6210 H 639.983 3.03087 -0.192892 0
M  V30 6211 H 637.568 1.48537 -0.16038 0
M  V30 6212 H 639.45 3.59816 2.19341 0
M  V30 6213 H 638.125 2.40251 2.16935 0
M  V30 6214 H 637.032 3.73119 0.270773 0
M  V30 6215 H 638.365 4.90763 0.375887 0
M  V30 6216 N 640.017 0.126909 1.57088 0
M  V30 6217 C 640.98 -0.806097 2.14557 0
M  V30 6218 C 641.98 -1.18918 1.08236 0
M  V30 6219 O 643.17 -1.11339 1.33975 0
M  V30 6220 C 640.302 -2.09116 2.69227 0
M  V30 6221 H 641.495 -0.306522 2.98329 0
M  V30 6222 H 639.048 -0.122393 1.5582 0
M  V30 6223 H 639.783 -2.63486 1.89065 0
M  V30 6224 H 639.568 -1.82588 3.46993 0
M  V30 6225 H 641.058 -2.75794 3.13572 0
M  V30 6226 N 641.495 -1.56914 -0.146875 0
M  V30 6227 C 642.906 -1.72799 -0.706928 0
M  V30 6228 C 643.257 -0.741329 -1.81656 0
M  V30 6229 O 642.382 0.0920162 -2.16204 0
M  V30 6230 C 642.977 -3.13317 -1.28911 0
M  V30 6231 C 641.536 -3.30803 -1.79573 0
M  V30 6232 C 640.683 -2.68725 -0.684252 0
M  V30 6233 H 643.634 -1.58504 0.0787931 0
M  V30 6234 H 643.655 -3.13323 -2.15891 0
M  V30 6235 H 643.167 -3.85104 -0.481284 0
M  V30 6236 H 641.268 -2.64012 -2.62923 0
M  V30 6237 H 641.381 -4.38754 -1.92436 0
M  V30 6238 H 639.745 -2.29196 -1.11091 0
M  V30 6239 H 640.528 -3.43117 0.112134 0
M  V30 6240 N 642.974 0.416227 -1.52004 0
M  V30 6241 C 644.39 0.754319 -1.40649 0
M  V30 6242 C 644.59 1.95059 -0.505392 0
M  V30 6243 O 643.646 2.5248 0.0315057 0
M  V30 6244 C 644.959 1.0149 -2.83055 0
M  V30 6245 C 646.507 1.11805 -2.9235 0
M  V30 6246 C 646.982 1.41144 -4.35709 0
M  V30 6247 N 648.473 1.48024 -4.38911 0
M  V30 6248 C 649.208 1.72338 -5.46889 0
M  V30 6249 N 648.704 1.94303 -6.64995 0
M  V30 6250 N 650.497 1.74294 -5.34395 0
M  V30 6251 H 642.648 -0.371324 -2.09129 0
M  V30 6252 H 644.911 -0.103811 -0.942299 0
M  V30 6253 H 644.617 0.208345 -3.51082 0
M  V30 6254 H 644.491 1.93697 -3.23668 0
M  V30 6255 H 646.878 1.91521 -2.24508 0
M  V30 6256 H 646.959 0.17451 -2.55204 0
M  V30 6257 H 646.603 0.619484 -5.04108 0
M  V30 6258 H 646.533 2.36739 -4.70385 0
M  V30 6259 H 649.024 1.32868 -3.53772 0
M  V30 6260 H 649.337 2.12286 -7.43071 0
M  V30 6261 H 647.682 1.91582 -6.68073 0
M  V30 6262 H 650.873 1.56667 -4.41104 0
M  V30 6263 H 651.046 1.92904 -6.18621 0
M  V30 6264 N 644.452 1.42507 0.673017 0
M  V30 6265 C 645.863 1.38347 1.25367 0
M  V30 6266 C 646.214 0.0776327 1.96046 0
M  V30 6267 O 645.339 -0.823571 2.00116 0
M  V30 6268 C 645.934 2.506 2.28002 0
M  V30 6269 C 644.493 2.49767 2.81591 0
M  V30 6270 C 643.64 2.293 1.55938 0
M  V30 6271 H 646.591 1.51695 0.466288 0
M  V30 6272 H 646.612 2.20953 3.09774 0
M  V30 6273 H 646.124 3.45627 1.76532 0
M  V30 6274 H 644.225 1.58563 3.37177 0
M  V30 6275 H 644.338 3.46867 3.30485 0
M  V30 6276 H 642.702 1.77594 1.82572 0
M  V30 6277 H 643.485 3.26385 1.06431 0
M  V30 6278 N 645.93 -0.909495 1.28709 0
M  V30 6279 C 646.862 -2.01729 1.08804 0
M  V30 6280 C 647.875 -1.62755 0.0384739 0
M  V30 6281 O 649.064 -1.76259 0.281977 0
M  V30 6282 C 646.164 -3.32952 0.63217 0
M  V30 6283 C 645.337 -4.00512 1.75809 0
M  V30 6284 C 644.396 -5.10019 1.29488 0
M  V30 6285 O 643.422 -5.32986 1.99787 0
M  V30 6286 N 644.624 -5.80278 0.1604 0
M  V30 6287 H 647.389 -2.19362 2.04207 0
M  V30 6288 H 644.95 -1.08106 1.20518 0
M  V30 6289 H 646.942 -4.03543 0.305802 0
M  V30 6290 H 645.512 -3.11759 -0.229134 0
M  V30 6291 H 644.732 -3.23413 2.25383 0
M  V30 6292 H 646.02 -4.42395 2.51325 0
M  V30 6293 H 645.418 -5.64094 -0.425937 0
M  V30 6294 H 643.975 -6.51713 -0.106663 0
M  V30 6295 N 647.408 -1.11026 -1.11852 0
M  V30 6296 C 648.819 -0.873203 -1.65021 0
M  V30 6297 C 649.17 0.595364 -1.86949 0
M  V30 6298 O 648.295 1.45645 -1.60051 0
M  V30 6299 C 648.89 -1.57859 -2.99777 0
M  V30 6300 C 647.449 -1.38807 -3.49871 0
M  V30 6301 C 646.596 -1.62403 -2.24768 0
M  V30 6302 H 649.547 -1.26712 -0.955503 0
M  V30 6303 H 649.568 -1.02111 -3.66543 0
M  V30 6304 H 649.08 -2.6474 -2.83786 0
M  V30 6305 H 647.181 -0.341163 -3.71035 0
M  V30 6306 H 647.294 -2.13421 -4.28938 0
M  V30 6307 H 645.658 -1.04714 -2.32179 0
M  V30 6308 H 646.441 -2.70549 -2.11324 0
M  V30 6309 N 648.886 1.2938 -0.899927 0
M  V30 6310 C 650.297 1.77644 -0.574427 0
M  V30 6311 C 650.648 1.73824 0.909928 0
M  V30 6312 O 649.773 1.32429 1.71147 0
M  V30 6313 C 650.368 3.22573 -1.03595 0
M  V30 6314 C 648.927 3.68614 -0.76161 0
M  V30 6315 C 648.074 2.49483 -1.21052 0
M  V30 6316 H 651.025 1.16038 -1.08263 0
M  V30 6317 H 651.046 3.78684 -0.371337 0
M  V30 6318 H 650.558 3.25321 -2.11631 0
M  V30 6319 H 648.659 3.7134 0.306127 0
M  V30 6320 H 648.772 4.59402 -1.35965 0
M  V30 6321 H 647.136 2.46798 -0.629515 0
M  V30 6322 H 647.919 2.54959 -2.29893 0
M  V30 6323 N 650.364 0.662433 1.43002 0
M  V30 6324 C 651.327 -0.0142016 2.29196 0
M  V30 6325 C 652.327 -0.741394 1.42688 0
M  V30 6326 O 653.517 -0.581257 1.64216 0
M  V30 6327 C 650.649 -1.03084 3.24941 0
M  V30 6328 H 651.842 0.7443 2.90517 0
M  V30 6329 H 649.395 0.424133 1.50435 0
M  V30 6330 H 650.13 -1.81826 2.68533 0
M  V30 6331 H 649.915 -0.512946 3.8873 0
M  V30 6332 H 651.405 -1.50308 3.89612 0
M  V30 6333 N 651.842 -1.52309 0.404946 0
M  V30 6334 C 653.082 -2.03677 -0.171779 0
M  V30 6335 C 653.446 -1.28419 -1.42733 0
M  V30 6336 O 654.647 -1.69991 -2.08222 0
M  V30 6337 C 652.918 -3.54951 -0.417701 0
M  V30 6338 S 654.477 -4.28114 -0.962472 0
M  V30 6339 H 651.295 -0.709445 -0.0469912 0
M  V30 6340 H 653.897 -1.874 0.556901 0
M  V30 6341 H 652.601 -4.07306 0.50295 0
M  V30 6342 H 652.132 -3.75462 -1.17437 0
M  V30 6343 H 654.147 -4.42589 -2.24342 0
M  V30 6344 N 653.32 -0.135238 -1.57019 0
M  V30 6345 C 654.25 0.805235 -2.19176 0
M  V30 6346 C 655.231 1.2656 -1.13651 0
M  V30 6347 O 656.416 1.32528 -1.4195 0
M  V30 6348 C 653.546 2.04914 -2.80406 0
M  V30 6349 C 652.5 1.72598 -3.91655 0
M  V30 6350 C 651.826 3.04154 -4.39766 0
M  V30 6351 C 653.126 0.981709 -5.12991 0
M  V30 6352 H 654.82 0.287232 -2.98019 0
M  V30 6353 H 652.366 0.136714 -1.4335 0
M  V30 6354 H 654.319 2.71178 -3.22553 0
M  V30 6355 H 653.043 2.59067 -1.98877 0
M  V30 6356 H 651.702 1.08717 -3.50109 0
M  V30 6357 H 651.35 3.56274 -3.55075 0
M  V30 6358 H 651.05 2.83299 -5.14796 0
M  V30 6359 H 652.574 3.71509 -4.84576 0
M  V30 6360 H 653.988 1.5462 -5.52056 0
M  V30 6361 H 652.385 0.873533 -5.93708 0
M  V30 6362 H 653.455 -0.0286887 -4.84892 0
M  V30 6363 N 654.798 1.5699 0.138552 0
M  V30 6364 C 656.023 1.88344 0.86841 0
M  V30 6365 C 656.448 0.725159 1.7356 0
M  V30 6366 O 655.806 -0.324992 1.78363 0
M  V30 6367 C 655.854 3.18334 1.69398 0
M  V30 6368 O 654.958 3.02863 2.79907 0
M  V30 6369 H 654.299 0.618577 0.241367 0
M  V30 6370 H 656.829 2.04207 0.126826 0
M  V30 6371 H 656.839 3.50567 2.08726 0
M  V30 6372 H 655.514 4.02238 1.05725 0
M  V30 6373 H 654.091 2.82056 2.43924 0
M  V30 6374 N 656.276 -0.40816 1.52223 0
M  V30 6375 C 657.186 -1.52202 1.78526 0
M  V30 6376 C 658.202 -1.60546 0.670892 0
M  V30 6377 O 659.378 -1.77242 0.956404 0
M  V30 6378 C 656.443 -2.87928 1.93128 0
M  V30 6379 C 655.504 -2.89463 3.17033 0
M  V30 6380 C 654.737 -4.18715 3.30929 0
M  V30 6381 O 654.96 -5.12662 2.50067 0
M  V30 6382 O 653.894 -4.27125 4.24084 0
M  V30 6383 H 657.72 -1.32911 2.73072 0
M  V30 6384 H 655.305 -0.594112 1.37079 0
M  V30 6385 H 657.187 -3.68426 2.04549 0
M  V30 6386 H 655.862 -3.07285 1.01772 0
M  V30 6387 H 654.769 -2.07815 3.11069 0
M  V30 6388 H 656.102 -2.75055 4.08174 0
M  V30 6389 N 657.755 -1.42862 -0.66545 0
M  V30 6390 C 659.032 -1.3431 -1.42197 0
M  V30 6391 C 659.412 0.0150265 -2.11095 0
M  V30 6392 O 658.76 1.03101 -2.03918 0
M  V30 6393 C 658.97 -2.51783 -2.41674 0
M  V30 6394 C 660.318 -2.94321 -3.0604 0
M  V30 6395 O 661.342 -2.51741 -2.52001 0
M  V30 6396 O 660.201 -3.68047 -4.03985 0
M  V30 6397 H 657.295 -0.530159 -0.634713 0
M  V30 6398 H 659.841 -1.54888 -0.693386 0
M  V30 6399 H 658.613 -3.42282 -1.89627 0
M  V30 6400 H 658.236 -2.33241 -3.22001 0
M  V30 6401 N 659.233 0.902656 -1.29189 0
M  V30 6402 C 660.458 1.69167 -1.19989 0
M  V30 6403 C 660.883 1.86607 0.236495 0
M  V30 6404 O 660.241 1.38425 1.17082 0
M  V30 6405 C 660.289 3.05532 -1.91527 0
M  V30 6406 O 659.393 3.93621 -1.2303 0
M  V30 6407 H 658.734 0.517584 -0.415936 0
M  V30 6408 H 661.264 1.12785 -1.70706 0
M  V30 6409 H 661.274 3.55693 -1.99866 0
M  V30 6410 H 659.949 2.92156 -2.96003 0
M  V30 6411 H 658.526 3.52055 -1.22928 0
M  V30 6412 N 660.711 1.11618 1.11262 0
M  V30 6413 C 661.939 0.888739 1.8684 0
M  V30 6414 C 662.354 -0.561558 1.80255 0
M  V30 6415 O 661.711 -1.38782 1.18515 0
M  V30 6416 C 661.762 1.34422 3.35579 0
M  V30 6417 O 661.483 2.73766 3.42029 0
M  V30 6418 C 662.984 1.15246 4.28058 0
M  V30 6419 H 660.204 0.318152 0.590779 0
M  V30 6420 H 662.748 1.48398 1.40707 0
M  V30 6421 H 660.903 0.79239 3.7921 0
M  V30 6422 H 661.317 2.9355 4.34659 0
M  V30 6423 H 662.791 1.52015 5.30656 0
M  V30 6424 H 663.268 0.0922007 4.39103 0
M  V30 6425 H 663.874 1.69136 3.90222 0
M  V30 6426 N 662.189 -1.289 0.906776 0
M  V30 6427 C 663.6 -1.77336 0.58384 0
M  V30 6428 C 663.951 -1.74304 -0.900697 0
M  V30 6429 O 663.076 -1.33335 -1.70443 0
M  V30 6430 C 663.671 -3.22019 1.05304 0
M  V30 6431 C 662.23 -3.68205 0.781148 0
M  V30 6432 C 661.377 -2.48837 1.22373 0
M  V30 6433 H 664.328 -1.15462 1.08877 0
M  V30 6434 H 664.349 -3.78481 0.391414 0
M  V30 6435 H 663.861 -3.24194 2.13353 0
M  V30 6436 H 661.962 -3.71497 -0.28643 0
M  V30 6437 H 662.075 -4.58675 1.384 0
M  V30 6438 H 660.439 -2.46461 0.642594 0
M  V30 6439 H 661.222 -2.53736 2.31242 0
M  V30 6440 N 663.667 -0.670007 -1.42649 0
M  V30 6441 C 664.944 -0.119451 -1.95235 0
M  V30 6442 C 665.324 1.36461 -1.61064 0
M  V30 6443 O 664.672 2.09843 -0.904329 0
M  V30 6444 C 664.882 -0.383498 -3.46887 0
M  V30 6445 C 666.23 -0.297431 -4.23557 0
M  V30 6446 O 667.254 -0.31698 -3.54787 0
M  V30 6447 O 666.113 -0.235507 -5.45992 0
M  V30 6448 H 663.207 -8.85474e-05 -0.827 0
M  V30 6449 H 665.753 -0.744406 -1.52501 0
M  V30 6450 H 664.525 -1.41174 -3.64946 0
M  V30 6451 H 664.148 0.273702 -3.96657 0
M  V30 6452 N 665.145 1.52092 -0.413018 0
M  V30 6453 C 666.055 2.30858 0.417318 0
M  V30 6454 C 667.071 1.38746 1.05003 0
M  V30 6455 O 668.247 1.71821 1.05069 0
M  V30 6456 C 665.312 3.11756 1.51687 0
M  V30 6457 C 664.373 4.19613 0.906825 0
M  V30 6458 C 663.606 4.96644 1.95399 0
M  V30 6459 O 663.829 4.7402 3.17271 0
M  V30 6460 O 662.763 5.81385 1.55805 0
M  V30 6461 H 666.589 3.02865 -0.225028 0
M  V30 6462 H 664.174 1.48358 -0.176126 0
M  V30 6463 H 666.056 3.62122 2.15512 0
M  V30 6464 H 664.731 2.42539 2.14375 0
M  V30 6465 H 663.638 3.73385 0.231183 0
M  V30 6466 H 664.971 4.91134 0.323814 0
M  V30 6467 N 666.623 0.143563 1.56945 0
M  V30 6468 C 668.034 -0.37783 1.82837 0
M  V30 6469 C 668.385 -1.64967 1.06209 0
M  V30 6470 O 667.51 -2.14221 0.306291 0
M  V30 6471 C 668.105 -0.692274 3.31652 0
M  V30 6472 C 666.664 -1.1582 3.58138 0
M  V30 6473 C 665.811 -0.17951 2.76718 0
M  V30 6474 H 668.762 0.368317 1.54367 0
M  V30 6475 H 668.783 -1.54729 3.47619 0
M  V30 6476 H 668.295 0.233572 3.87397 0
M  V30 6477 H 666.396 -2.10011 3.07776 0
M  V30 6478 H 666.509 -1.08655 4.66616 0
M  V30 6479 H 664.873 -0.671458 2.4569 0
M  V30 6480 H 665.656 0.739865 3.35233 0
M  V30 6481 N 668.101 -1.57061 -0.130224 0
M  V30 6482 C 669.378 -1.75205 -0.869631 0
M  V30 6483 C 669.758 -0.716063 -1.98584 0
M  V30 6484 O 669.106 0.262032 -2.26993 0
M  V30 6485 C 669.316 -3.19835 -1.39666 0
M  V30 6486 C 670.664 -3.82011 -1.85345 0
M  V30 6487 O 671.688 -3.23368 -1.49371 0
M  V30 6488 O 670.547 -4.85064 -2.51744 0
M  V30 6489 H 667.641 -0.716977 -0.412157 0
M  V30 6490 H 670.187 -1.69311 -0.11484 0
M  V30 6491 H 668.959 -3.86745 -0.595288 0
M  V30 6492 H 668.582 -3.30222 -2.21448 0
M  V30 6493 N 669.579 0.400081 -1.52437 0
M  V30 6494 C 670.825 1.14788 -1.67187 0
M  V30 6495 C 671.158 1.89928 -0.405074 0
M  V30 6496 O 670.433 1.85118 0.596804 0
M  V30 6497 C 670.716 2.13507 -2.89977 0
M  V30 6498 C 670.569 1.42204 -4.2673 0
M  V30 6499 C 671.888 3.14069 -3.083 0
M  V30 6500 H 669.007 0.415939 -0.608411 0
M  V30 6501 H 671.649 0.432542 -1.85011 0
M  V30 6502 H 669.799 2.7451 -2.74912 0
M  V30 6503 H 671.471 0.842503 -4.53541 0
M  V30 6504 H 669.714 0.723939 -4.27717 0
M  V30 6505 H 670.385 2.14281 -5.08712 0
M  V30 6506 H 672.861 2.63148 -3.22323 0
M  V30 6507 H 671.737 3.80398 -3.95713 0
M  V30 6508 H 671.998 3.82309 -2.22018 0
M  V30 6509 N 671.057 1.43213 0.657864 0
M  V30 6510 C 672.007 1.44459 1.76396 0
M  V30 6511 C 672.991 0.313641 1.57814 0
M  V30 6512 O 674.183 0.557094 1.68004 0
M  V30 6513 C 671.312 1.36586 3.14959 0
M  V30 6514 C 670.398 2.54692 3.39106 0
M  V30 6515 N 670.789 3.80059 3.33749 0
M  V30 6516 C 669.087 2.49316 3.69807 0
M  V30 6517 C 669.788 4.58606 3.57849 0
M  V30 6518 N 668.764 3.89267 3.79437 0
M  V30 6519 H 672.566 2.39265 1.70673 0
M  V30 6520 H 670.08 1.378 0.859357 0
M  V30 6521 H 672.077 1.35561 3.94245 0
M  V30 6522 H 670.737 0.427956 3.21867 0
M  V30 6523 H 671.748 4.12414 3.13266 0
M  V30 6524 H 668.425 1.6419 3.83859 0
M  V30 6525 H 669.815 5.67619 3.59525 0
M  V30 6526 N 672.536 -0.895792 1.29666 0
M  V30 6527 C 673.783 -1.64664 1.17864 0
M  V30 6528 C 674.111 -1.92631 -0.26902 0
M  V30 6529 O 673.366 -1.53787 -1.21029 0
M  V30 6530 C 673.665 -3.00075 1.94139 0
M  V30 6531 C 673.331 -2.91702 3.43833 0
M  V30 6532 C 671.993 -2.89126 3.84656 0
M  V30 6533 C 674.345 -2.80622 4.39205 0
M  V30 6534 C 671.673 -2.73293 5.1916 0
M  V30 6535 C 674.025 -2.66329 5.73805 0
M  V30 6536 C 672.689 -2.62121 6.1388 0
M  V30 6537 H 671.959 -0.602549 0.431295 0
M  V30 6538 H 674.606 -1.04234 1.60648 0
M  V30 6539 H 672.911 -3.64394 1.43958 0
M  V30 6540 H 674.608 -3.57111 1.82408 0
M  V30 6541 H 671.198 -2.94511 3.11386 0
M  V30 6542 H 675.382 -2.81686 4.08615 0
M  V30 6543 H 670.638 -2.68443 5.49316 0
M  V30 6544 H 674.812 -2.56727 6.47352 0
M  V30 6545 H 672.439 -2.49611 7.18052 0
M  V30 6546 N 674.014 -1.12206 -1.10668 0
M  V30 6547 C 675.239 -0.898938 -1.86906 0
M  V30 6548 C 675.664 0.546346 -1.79991 0
M  V30 6549 O 675.022 1.38655 -1.1681 0
M  V30 6550 C 675.07 -1.37529 -3.33344 0
M  V30 6551 O 674.174 -0.55218 -4.08687 0
M  V30 6552 H 673.515 -0.323163 -0.580053 0
M  V30 6553 H 676.045 -1.49355 -1.39837 0
M  V30 6554 H 676.055 -1.3733 -3.84193 0
M  V30 6555 H 674.73 -2.42767 -3.37693 0
M  V30 6556 H 673.307 -0.620947 -3.67694 0
M  V30 6557 N 675.492 1.28418 -0.913599 0
M  V30 6558 C 676.439 2.27301 -0.400373 0
M  V30 6559 C 677.409 1.57582 0.52509 0
M  V30 6560 O 678.594 1.85482 0.447318 0
M  V30 6561 C 675.734 3.43284 0.35361 0
M  V30 6562 C 674.847 4.27752 -0.604341 0
M  V30 6563 C 673.982 5.30934 0.168075 0
M  V30 6564 C 673.021 6.07065 -0.783499 0
M  V30 6565 N 672.158 7.02086 -0.0446112 0
M  V30 6566 H 676.998 2.70579 -1.24865 0
M  V30 6567 H 674.535 1.33067 -0.627028 0
M  V30 6568 H 676.493 4.09322 0.806945 0
M  V30 6569 H 675.123 3.00997 1.16623 0
M  V30 6570 H 674.175 3.61759 -1.17621 0
M  V30 6571 H 675.487 4.80682 -1.33216 0
M  V30 6572 H 674.641 6.02855 0.681979 0
M  V30 6573 H 673.38 4.78771 0.928947 0
M  V30 6574 H 672.385 5.33995 -1.30878 0
M  V30 6575 H 673.61 6.61317 -1.54392 0
M  V30 6576 H 671.556 6.52273 0.698272 0
M  V30 6577 H 671.473 7.52637 -0.712258 0
M  V30 6578 H 672.741 7.78205 0.449102 0
M  V30 6579 N 676.97 0.677563 1.42291 0
M  V30 6580 C 677.917 0.000947061 2.308 0
M  V30 6581 C 678.887 -0.789889 1.46116 0
M  V30 6582 O 680.072 -0.761578 1.74942 0
M  V30 6583 C 677.212 -0.942387 3.31984 0
M  V30 6584 C 676.325 -0.14508 4.31756 0
M  V30 6585 C 675.46 -1.08442 5.20013 0
M  V30 6586 C 674.499 -0.278958 6.11464 0
M  V30 6587 N 673.636 -1.17115 6.92263 0
M  V30 6588 H 678.476 0.761521 2.88106 0
M  V30 6589 H 676.013 0.38727 1.41911 0
M  V30 6590 H 677.971 -1.50317 3.89179 0
M  V30 6591 H 676.601 -1.66956 2.76271 0
M  V30 6592 H 675.653 0.532368 3.76656 0
M  V30 6593 H 676.965 0.48015 4.96484 0
M  V30 6594 H 676.119 -1.71504 5.81955 0
M  V30 6595 H 674.858 -1.74353 4.55469 0
M  V30 6596 H 673.863 0.364856 5.48588 0
M  V30 6597 H 675.088 0.376099 6.78058 0
M  V30 6598 H 673.034 -1.81661 6.30345 0
M  V30 6599 H 672.951 -0.601063 7.53607 0
M  V30 6600 H 674.219 -1.78915 7.58689 0
M  V30 6601 N 678.448 -1.51871 0.421078 0
M  V30 6602 C 679.695 -2.01938 -0.15079 0
M  V30 6603 C 680.023 -1.30611 -1.44121 0
M  V30 6604 O 679.278 -0.404631 -1.91471 0
M  V30 6605 C 679.577 -3.54764 -0.433292 0
M  V30 6606 C 679.243 -4.44288 0.76936 0
M  V30 6607 C 677.905 -4.68477 1.09921 0
M  V30 6608 C 680.257 -4.96915 1.57242 0
M  V30 6609 C 677.585 -5.4254 2.2331 0
M  V30 6610 C 679.937 -5.7222 2.69716 0
M  V30 6611 C 678.601 -5.94678 3.03174 0
M  V30 6612 H 677.871 -0.738943 -0.0551781 0
M  V30 6613 H 680.518 -1.82977 0.564945 0
M  V30 6614 H 678.823 -3.71968 -1.23074 0
M  V30 6615 H 680.52 -3.91023 -0.888922 0
M  V30 6616 H 677.11 -4.25646 0.502305 0
M  V30 6617 H 681.294 -4.78125 1.3308 0
M  V30 6618 H 676.55 -5.58146 2.49565 0
M  V30 6619 H 680.724 -6.11992 3.32323 0
M  V30 6620 H 678.351 -6.51848 3.9115 0
M  V30 6621 N 679.926 -0.151884 -1.56866 0
M  V30 6622 C 680.856 0.781943 -2.20018 0
M  V30 6623 C 681.837 1.25347 -1.14987 0
M  V30 6624 O 683.022 1.31015 -1.43348 0
M  V30 6625 C 680.152 2.01928 -2.82564 0
M  V30 6626 C 679.106 1.68434 -3.93464 0
M  V30 6627 C 678.432 2.99472 -4.42968 0
M  V30 6628 C 679.732 0.927244 -5.14003 0
M  V30 6629 H 681.426 0.255607 -2.98307 0
M  V30 6630 H 678.972 0.121502 -1.43486 0
M  V30 6631 H 680.925 2.67741 -3.25411 0
M  V30 6632 H 679.649 2.56943 -2.01614 0
M  V30 6633 H 678.308 1.04998 -3.51242 0
M  V30 6634 H 677.956 3.52488 -3.58834 0
M  V30 6635 H 677.656 2.77823 -5.17772 0
M  V30 6636 H 679.18 3.66348 -4.88489 0
M  V30 6637 H 680.594 1.48756 -5.53665 0
M  V30 6638 H 678.991 0.810513 -5.94601 0
M  V30 6639 H 680.061 -0.0801163 -4.84834 0
M  V30 6640 N 681.404 1.57128 0.121893 0
M  V30 6641 C 682.352 2.01109 1.16868 0
M  V30 6642 C 683.346 0.907532 1.43039 0
M  V30 6643 O 684.552 1.09274 1.43036 0
M  V30 6644 H 680.927 0.640539 0.393971 0
M  V30 6645 H 682.898 2.88261 0.771224 0
M  V30 6646 C 681.647 2.42887 2.48799 0
M  V30 6647 H 680.97 3.2737 2.29498 0
M  V30 6648 H 682.41 2.77461 3.20611 0
M  V30 6649 C 680.869 1.29137 3.11168 0
M  V30 6650 O 681.399 0.605756 3.97106 0
M  V30 6651 N 679.605 1.04916 2.71 0
M  V30 6652 H 679.152 1.60848 2.01211 0
M  V30 6653 H 679.11 0.290016 3.1306 0
M  V30 6654 N 682.882 -0.391992 1.52647 0
M  V30 6655 C 684.128 -1.139 1.67793 0
M  V30 6656 C 684.461 -1.89711 0.41514 0
M  V30 6657 O 683.736 -1.85431 -0.586979 0
M  V30 6658 C 684.019 -2.11966 2.91105 0
M  V30 6659 C 683.872 -1.39939 4.27478 0
M  V30 6660 C 685.191 -3.1243 3.09961 0
M  V30 6661 H 682.31 -0.412707 0.610608 0
M  V30 6662 H 684.952 -0.422725 1.85238 0
M  V30 6663 H 683.102 -2.73048 2.76364 0
M  V30 6664 H 684.774 -0.818439 4.53982 0
M  V30 6665 H 683.017 -0.701246 4.28095 0
M  V30 6666 H 683.688 -2.1158 5.09841 0
M  V30 6667 H 686.164 -2.61435 3.23714 0
M  V30 6668 H 685.04 -3.78294 3.97725 0
M  V30 6669 H 685.301 -3.81127 2.24042 0
M  V30 6670 N 684.36 -1.4356 -0.65026 0
M  V30 6671 C 685.607 -1.45333 -1.41012 0
M  V30 6672 C 685.935 -0.0787282 -1.94341 0
M  V30 6673 O 685.19 0.916715 -1.72901 0
M  V30 6674 C 685.489 -2.44528 -2.60654 0
M  V30 6675 C 685.155 -3.90331 -2.25727 0
M  V30 6676 C 683.817 -4.3004 -2.15914 0
M  V30 6677 C 686.169 -4.822 -1.97821 0
M  V30 6678 C 683.497 -5.59568 -1.76354 0
M  V30 6679 C 685.849 -6.12095 -1.59759 0
M  V30 6680 C 684.513 -6.50778 -1.48473 0
M  V30 6681 H 683.783 -0.531813 -0.516 0
M  V30 6682 H 686.43 -1.76657 -0.739219 0
M  V30 6683 H 684.735 -2.06619 -3.3289 0
M  V30 6684 H 686.432 -2.43155 -3.18868 0
M  V30 6685 H 683.022 -3.58905 -2.34276 0
M  V30 6686 H 687.206 -4.5229 -2.04322 0
M  V30 6687 H 682.462 -5.88376 -1.66205 0
M  V30 6688 H 686.636 -6.82751 -1.37198 0
M  V30 6689 H 684.263 -7.5105 -1.17591 0
M  V30 6690 N 685.838 0.888903 -1.30139 0
M  V30 6691 C 686.771 1.99655 -1.10514 0
M  V30 6692 C 687.749 1.62594 -0.0138934 0
M  V30 6693 O 688.933 1.87762 -0.166689 0
M  V30 6694 C 686.06 3.31708 -0.684655 0
M  V30 6695 C 685.106 3.87755 -1.77619 0
M  V30 6696 S 685.939 4.15532 -3.37777 0
M  V30 6697 C 687.095 5.5061 -2.97622 0
M  V30 6698 H 687.328 2.15996 -2.04287 0
M  V30 6699 H 684.861 1.03682 -1.14409 0
M  V30 6700 H 686.819 4.08039 -0.448782 0
M  V30 6701 H 685.48 3.1323 0.233648 0
M  V30 6702 H 684.673 4.83164 -1.43417 0
M  V30 6703 H 684.275 3.18149 -1.96614 0
M  V30 6704 H 686.567 6.31518 -2.45338 0
M  V30 6705 H 687.51 5.89747 -3.91924 0
M  V30 6706 H 687.918 5.12983 -2.35603 0
M  V30 6707 N 687.317 1.12792 1.10072 0
M  V30 6708 C 688.542 0.908838 1.86427 0
M  V30 6709 C 688.967 -0.536793 1.80278 0
M  V30 6710 O 688.325 -1.38033 1.17543 0
M  V30 6711 C 688.373 1.39295 3.3261 0
M  V30 6712 O 687.477 0.573846 4.08388 0
M  V30 6713 H 686.818 0.326234 0.578331 0
M  V30 6714 H 689.348 1.50094 1.39043 0
M  V30 6715 H 689.358 1.39366 3.83459 0
M  V30 6716 H 688.033 2.44555 3.36401 0
M  V30 6717 H 686.61 0.640438 3.67359 0
M  V30 6718 N 688.795 -1.27931 0.920396 0
M  V30 6719 C 690.043 -1.94304 0.555906 0
M  V30 6720 C 690.364 -1.72753 -0.904519 0
M  V30 6721 O 689.634 -1.07104 -1.64029 0
M  V30 6722 H 688.214 -0.719001 0.202599 0
M  V30 6723 H 690.876 -1.55785 1.1712 0
M  V30 6724 H 689.972 -3.02806 0.755981 0
M  V30 6725 N 690.273 -0.685099 -1.4193 0
M  V30 6726 C 691.689 -0.355632 -1.55587 0
M  V30 6727 C 691.889 1.13823 -1.66273 0
M  V30 6728 O 690.945 1.92387 -1.63534 0
M  V30 6729 C 692.258 -1.09498 -2.80055 0
M  V30 6730 C 693.806 -1.07831 -2.93839 0
M  V30 6731 C 694.281 -1.79919 -4.21181 0
M  V30 6732 N 695.772 -1.76837 -4.28115 0
M  V30 6733 C 696.507 -2.29463 -5.25485 0
M  V30 6734 N 696.003 -2.90516 -6.28945 0
M  V30 6735 N 697.796 -2.19779 -5.17353 0
M  V30 6736 H 689.947 -1.65412 -1.33239 0
M  V30 6737 H 692.21 -0.697453 -0.642078 0
M  V30 6738 H 691.916 -2.14997 -2.78333 0
M  V30 6739 H 691.79 -0.666813 -3.71259 0
M  V30 6740 H 694.177 -0.0316152 -2.95083 0
M  V30 6741 H 694.258 -1.54545 -2.03837 0
M  V30 6742 H 693.902 -2.84562 -4.20698 0
M  V30 6743 H 693.832 -1.30647 -5.10136 0
M  V30 6744 H 696.323 -1.32315 -3.53979 0
M  V30 6745 H 696.636 -3.28266 -6.99615 0
M  V30 6746 H 694.981 -2.94589 -6.29478 0
M  V30 6747 H 698.172 -1.71763 -4.35448 0
M  V30 6748 H 698.345 -2.61097 -5.9307 0
M  V30 6749 N 691.751 1.51645 -0.429126 0
M  V30 6750 C 692.976 2.06917 0.141399 0
M  V30 6751 C 693.401 1.29527 1.36398 0
M  V30 6752 O 692.759 0.33094 1.78254 0
M  V30 6753 C 692.807 3.57776 0.4504 0
M  V30 6754 O 691.911 3.82639 1.53821 0
M  V30 6755 H 691.252 0.663978 0.0054647 0
M  V30 6756 H 693.782 1.95355 -0.608093 0
M  V30 6757 H 693.792 4.01894 0.703249 0
M  V30 6758 H 692.467 4.13532 -0.443213 0
M  V30 6759 H 691.044 3.5039 1.27597 0
M  V30 6760 N 693.229 0.160201 1.56784 0
M  V30 6761 C 694.645 -0.196089 1.58391 0
M  V30 6762 C 694.845 -1.63689 1.17508 0
M  V30 6763 O 693.901 -2.36613 0.881506 0
M  V30 6764 C 695.214 0.0746449 3.00607 0
M  V30 6765 C 696.762 0.0119762 3.12998 0
M  V30 6766 C 697.237 0.255551 4.57286 0
M  V30 6767 N 698.728 0.202938 4.62755 0
M  V30 6768 C 699.463 0.365731 5.72232 0
M  V30 6769 N 698.959 0.586972 6.90309 0
M  V30 6770 N 700.752 0.302411 5.61286 0
M  V30 6771 H 692.903 1.1008 1.81648 0
M  V30 6772 H 695.166 0.436779 0.841384 0
M  V30 6773 H 694.872 1.07231 3.34954 0
M  V30 6774 H 694.746 -0.638802 3.71751 0
M  V30 6775 H 697.133 -0.976254 2.78484 0
M  V30 6776 H 697.214 0.75796 2.44313 0
M  V30 6777 H 696.858 1.24094 4.92507 0
M  V30 6778 H 696.788 -0.510912 5.24116 0
M  V30 6779 H 699.279 0.0371328 3.77882 0
M  V30 6780 H 699.592 0.700941 7.69615 0
M  V30 6781 H 697.937 0.623453 6.92198 0
M  V30 6782 H 701.128 0.130238 4.67919 0
M  V30 6783 H 701.301 0.432712 6.46554 0
M  V30 6784 N 694.707 -1.5719 -0.113559 0
M  V30 6785 C 695.932 -1.89702 -0.838336 0
M  V30 6786 C 696.357 -0.752679 -1.72384 0
M  V30 6787 O 695.715 0.296575 -1.78858 0
M  V30 6788 C 695.763 -3.20989 -1.64312 0
M  V30 6789 O 694.867 -3.07278 -2.75053 0
M  V30 6790 H 694.208 -0.622339 -0.231496 0
M  V30 6791 H 696.738 -2.04382 -0.0943228 0
M  V30 6792 H 696.748 -3.53843 -2.03123 0
M  V30 6793 H 695.423 -4.03869 -0.993119 0
M  V30 6794 H 694 -2.85901 -2.39406 0
M  V30 6795 N 696.185 0.383891 -1.52853 0
M  V30 6796 C 697.41 1.154 -1.7233 0
M  V30 6797 C 697.835 1.82809 -0.44298 0
M  V30 6798 O 697.193 1.71026 0.601645 0
M  V30 6799 C 697.241 2.17386 -2.87708 0
M  V30 6800 O 696.345 3.24082 -2.55038 0
M  V30 6801 H 695.686 0.335709 -0.572883 0
M  V30 6802 H 698.216 0.44662 -1.99666 0
M  V30 6803 H 698.226 2.61296 -3.1335 0
M  V30 6804 H 696.901 1.6771 -3.80587 0
M  V30 6805 H 695.478 2.85273 -2.40153 0
M  V30 6806 N 697.663 1.43903 0.642637 0
M  V30 6807 C 698.888 1.49758 1.43483 0
M  V30 6808 C 699.313 0.119911 1.87717 0
M  V30 6809 O 698.671 -0.888558 1.58033 0
M  V30 6810 C 698.719 2.45744 2.63898 0
M  V30 6811 O 697.823 1.95101 3.63331 0
M  V30 6812 H 697.164 0.506138 0.429791 0
M  V30 6813 H 699.694 1.88923 0.785438 0
M  V30 6814 H 699.704 2.63399 3.11584 0
M  V30 6815 H 698.379 3.45818 2.31046 0
M  V30 6816 H 696.956 1.87158 3.22531 0
M  V30 6817 N 699.141 -0.881989 1.30609 0
M  V30 6818 C 700.104 -1.96957 1.1722 0
M  V30 6819 C 701.104 -1.60472 0.102598 0
M  V30 6820 O 702.294 -1.70628 0.350943 0
M  V30 6821 C 699.426 -3.31463 0.796572 0
M  V30 6822 H 700.619 -2.10262 2.13846 0
M  V30 6823 H 698.172 -1.06877 1.14048 0
M  V30 6824 H 698.907 -3.23859 -0.169053 0
M  V30 6825 H 698.692 -3.59314 1.56959 0
M  V30 6826 H 700.182 -4.11233 0.72645 0
M  V30 6827 N 700.619 -1.13374 -1.09472 0
M  V30 6828 C 701.529 -0.824029 -2.19652 0
M  V30 6829 C 702.545 0.19118 -1.72947 0
M  V30 6830 O 703.721 0.0223464 -2.01388 0
M  V30 6831 C 700.786 -0.294009 -3.45451 0
M  V30 6832 C 699.847 -1.3704 -4.0684 0
M  V30 6833 C 699.08 -0.86558 -5.26634 0
M  V30 6834 O 699.303 0.29702 -5.69626 0
M  V30 6835 O 698.237 -1.63968 -5.79136 0
M  V30 6836 H 702.063 -1.74454 -2.48595 0
M  V30 6837 H 699.648 -0.911155 -1.18399 0
M  V30 6838 H 701.53 -0.00381039 -4.214 0
M  V30 6839 H 700.205 0.598921 -3.18111 0
M  V30 6840 H 699.112 -1.71391 -3.3253 0
M  V30 6841 H 700.445 -2.23746 -4.38405 0
M  V30 6842 N 702.098 1.27442 -0.927168 0
M  V30 6843 C 703.323 1.99036 -0.583042 0
M  V30 6844 C 703.748 1.68711 0.83176 0
M  V30 6845 O 703.106 0.927081 1.55804 0
M  V30 6846 C 703.154 3.51271 -0.814925 0
M  V30 6847 O 702.258 4.12226 0.119742 0
M  V30 6848 H 701.599 0.624883 -0.224538 0
M  V30 6849 H 704.129 1.62263 -1.24628 0
M  V30 6850 H 704.139 4.01411 -0.730282 0
M  V30 6851 H 702.814 3.72676 -1.84623 0
M  V30 6852 H 701.391 3.72897 -0.0147688 0
M  V30 6853 N 703.576 0.692616 1.41565 0
M  V30 6854 C 704.823 0.222335 2.01276 0
M  V30 6855 C 705.151 -1.17706 1.5484 0
M  V30 6856 O 704.406 -1.80795 0.749118 0
M  V30 6857 C 704.705 0.225073 3.56691 0
M  V30 6858 C 704.371 1.57158 4.22625 0
M  V30 6859 C 703.033 1.94022 4.40351 0
M  V30 6860 C 705.385 2.45758 4.59622 0
M  V30 6861 C 702.713 3.19076 4.92349 0
M  V30 6862 C 705.065 3.70141 5.13009 0
M  V30 6863 C 703.729 4.07152 5.28946 0
M  V30 6864 H 702.999 0.0813581 0.73652 0
M  V30 6865 H 705.646 0.891123 1.69503 0
M  V30 6866 H 703.951 -0.527259 3.88236 0
M  V30 6867 H 705.648 -0.156283 4.00695 0
M  V30 6868 H 702.238 1.27486 4.09201 0
M  V30 6869 H 706.422 2.18558 4.45585 0
M  V30 6870 H 701.678 3.4775 5.02872 0
M  V30 6871 H 705.852 4.38983 5.40617 0
M  V30 6872 H 703.479 5.04125 5.69001 0
M  V30 6873 N 705.054 -1.51416 0.437162 0
M  V30 6874 C 706.302 -2.01687 -0.129108 0
M  V30 6875 C 706.623 -1.32329 -1.43227 0
M  V30 6876 O 705.893 -0.457796 -1.90476 0
M  V30 6877 H 704.473 -0.745277 -0.0507023 0
M  V30 6878 H 707.135 -1.86075 0.579828 0
M  V30 6879 H 706.231 -3.10605 -0.305141 0
M  V30 6880 N 706.532 -0.168513 -1.56696 0
M  V30 6881 C 707.462 0.758563 -2.20835 0
M  V30 6882 C 708.443 1.24121 -1.1631 0
M  V30 6883 O 709.628 1.29487 -1.4473 0
M  V30 6884 C 706.758 1.9892 -2.8469 0
M  V30 6885 C 705.712 1.64252 -3.95228 0
M  V30 6886 C 705.038 2.94757 -4.46119 0
M  V30 6887 C 706.338 0.872675 -5.14958 0
M  V30 6888 H 708.032 0.223953 -2.98561 0
M  V30 6889 H 705.578 0.106277 -1.43607 0
M  V30 6890 H 707.531 2.64275 -3.28233 0
M  V30 6891 H 706.255 2.5479 -2.04327 0
M  V30 6892 H 704.914 1.01266 -3.52336 0
M  V30 6893 H 704.562 3.48662 -3.62552 0
M  V30 6894 H 704.262 2.72316 -5.2069 0
M  V30 6895 H 705.786 3.61147 -4.92347 0
M  V30 6896 H 707.2 1.42875 -5.55211 0
M  V30 6897 H 705.597 0.747402 -5.95428 0
M  V30 6898 H 706.667 -0.131535 -4.84722 0
M  V30 6899 N 708.01 1.57248 0.105221 0
M  V30 6900 C 709.257 1.8557 0.810552 0
M  V30 6901 C 709.585 0.755595 1.79223 0
M  V30 6902 O 708.84 -0.251788 1.94073 0
M  V30 6903 C 709.139 3.20437 1.58287 0
M  V30 6904 C 708.805 4.44716 0.744235 0
M  V30 6905 C 707.467 4.78458 0.513013 0
M  V30 6906 C 709.819 5.20953 0.160578 0
M  V30 6907 C 707.147 5.8587 -0.311894 0
M  V30 6908 C 709.499 6.29235 -0.651596 0
M  V30 6909 C 708.163 6.615 -0.893005 0
M  V30 6910 H 707.433 0.67905 0.296602 0
M  V30 6911 H 710.08 1.91363 0.0723968 0
M  V30 6912 H 708.385 3.10283 2.39232 0
M  V30 6913 H 710.082 3.39576 2.13282 0
M  V30 6914 H 706.672 4.18287 0.934555 0
M  V30 6915 H 710.856 4.95226 0.3264 0
M  V30 6916 H 706.112 6.09286 -0.508012 0
M  V30 6917 H 710.286 6.87484 -1.11077 0
M  V30 6918 H 707.913 7.44562 -1.53401 0
M  V30 6919 N 709.488 -0.375779 1.53054 0
M  V30 6920 C 710.713 -1.14484 1.7294 0
M  V30 6921 C 711.138 -1.82572 0.452668 0
M  V30 6922 O 710.496 -1.71343 -0.592567 0
M  V30 6923 C 710.544 -2.15857 2.88857 0
M  V30 6924 O 709.648 -3.22725 2.56753 0
M  V30 6925 H 708.989 -0.332666 0.574656 0
M  V30 6926 H 711.519 -0.436025 1.999 0
M  V30 6927 H 711.529 -2.59631 3.14731 0
M  V30 6928 H 710.204 -1.65689 3.81471 0
M  V30 6929 H 708.781 -2.83996 2.41663 0
M  V30 6930 N 710.966 -1.44241 -0.634997 0
M  V30 6931 C 712.206 -1.48339 -1.40623 0
M  V30 6932 C 712.57 -0.111479 -1.91676 0
M  V30 6933 O 713.771 -0.0271345 -2.68786 0
M  V30 6934 C 712.042 -2.51122 -2.54308 0
M  V30 6935 S 713.601 -2.74237 -3.42548 0
M  V30 6936 H 710.419 -0.524715 -0.479787 0
M  V30 6937 H 713.021 -1.81138 -0.735489 0
M  V30 6938 H 711.725 -3.49511 -2.15106 0
M  V30 6939 H 711.256 -2.19883 -3.26213 0
M  V30 6940 H 713.271 -2.0554 -4.51628 0
M  V30 6941 N 712.444 0.87505 -1.31075 0
M  V30 6942 C 713.693 1.62245 -1.19831 0
M  V30 6943 C 714.006 1.94078 0.24357 0
M  V30 6944 O 715.212 2.67265 0.477646 0
M  V30 6945 C 713.668 2.92464 -2.09744 0
M  V30 6946 C 713.276 2.68134 -3.58898 0
M  V30 6947 C 715.02 3.70449 -2.07287 0
M  V30 6948 C 712.927 3.9423 -4.40836 0
M  V30 6949 H 711.857 0.608741 -0.444916 0
M  V30 6950 H 714.508 0.967947 -1.55894 0
M  V30 6951 H 712.89 3.59262 -1.66574 0
M  V30 6952 H 714.064 2.09776 -4.10281 0
M  V30 6953 H 712.379 2.03511 -3.6328 0
M  V30 6954 H 714.976 4.63983 -2.65752 0
M  V30 6955 H 715.319 4.02611 -1.05876 0
M  V30 6956 H 715.852 3.10528 -2.48631 0
M  V30 6957 H 712.591 3.67221 -5.42982 0
M  V30 6958 H 712.111 4.52058 -3.94213 0
M  V30 6959 H 713.79 4.62162 -4.52786 0
M  V30 6960 N 713.922 1.13953 1.08869 0
M  V30 6961 C 715.171 0.899431 1.80536 0
M  V30 6962 C 715.484 -0.575781 1.86933 0
M  V30 6963 O 716.69 -0.932988 2.54966 0
M  V30 6964 C 715.146 1.55963 3.24351 0
M  V30 6965 C 714.754 3.07077 3.26202 0
M  V30 6966 C 716.498 1.40046 4.00733 0
M  V30 6967 C 714.405 3.65955 4.64576 0
M  V30 6968 H 713.335 0.332849 0.676556 0
M  V30 6969 H 715.986 1.3679 1.22314 0
M  V30 6970 H 714.368 1.01883 3.82669 0
M  V30 6971 H 715.542 3.67785 2.77617 0
M  V30 6972 H 713.857 3.22576 2.63312 0
M  V30 6973 H 716.454 1.81441 5.02974 0
M  V30 6974 H 716.797 0.345993 4.1486 0
M  V30 6975 H 717.33 1.91137 3.48872 0
M  V30 6976 H 714.069 4.71234 4.55652 0
M  V30 6977 H 713.589 3.10027 5.13462 0
M  V30 6978 H 715.268 3.65968 5.33551 0
M  V30 6979 N 715.4 -1.26948 0.933913 0
M  V30 6980 C 716.348 -2.2862 0.428463 0
M  V30 6981 C 717.342 -1.62144 -0.490464 0
M  V30 6982 O 718.548 -1.76167 -0.36948 0
M  V30 6983 H 714.923 -0.742363 0.120003 0
M  V30 6984 H 716.894 -2.68659 1.29865 0
M  V30 6985 C 715.643 -3.46423 -0.29774 0
M  V30 6986 H 714.966 -3.97792 0.400183 0
M  V30 6987 H 716.406 -4.19505 -0.615736 0
M  V30 6988 C 714.865 -3.01017 -1.51295 0
M  V30 6989 O 715.395 -3.05226 -2.61151 0
M  V30 6990 N 713.601 -2.56442 -1.36696 0
M  V30 6991 H 713.148 -2.53217 -0.473178 0
M  V30 6992 H 713.106 -2.26424 -2.18127 0
M  V30 6993 N 716.879 -0.700114 -1.41195 0
M  V30 6994 C 718.127 -0.232546 -2.00758 0
M  V30 6995 C 718.448 1.1734 -1.55745 0
M  V30 6996 O 717.718 1.79262 -0.790058 0
M  V30 6997 H 716.298 -0.0829845 -0.742376 0
M  V30 6998 H 718.96 -0.902289 -1.72756 0
M  V30 6999 H 718.056 -0.253521 -3.11069 0
M  V30 7000 N 718.357 1.51182 -0.445186 0
M  V30 7001 C 719.267 2.31692 0.368255 0
M  V30 7002 C 720.283 1.40942 1.02036 0
M  V30 7003 O 721.459 1.74011 1.01401 0
M  V30 7004 C 718.524 3.14903 1.45041 0
M  V30 7005 C 717.585 4.21442 0.817615 0
M  V30 7006 C 716.818 5.00677 1.8482 0
M  V30 7007 O 717.041 4.80644 3.07145 0
M  V30 7008 O 715.975 5.84559 1.43438 0
M  V30 7009 H 719.801 3.0232 -0.289219 0
M  V30 7010 H 717.386 1.47951 -0.207555 0
M  V30 7011 H 719.268 3.66612 2.07783 0
M  V30 7012 H 717.943 2.47031 2.09182 0
M  V30 7013 H 716.85 3.73791 0.151931 0
M  V30 7014 H 718.183 4.9171 0.219564 0
M  V30 7015 N 719.835 0.176821 1.56605 0
M  V30 7016 C 720.745 -0.763682 2.21822 0
M  V30 7017 C 721.761 -1.24889 1.21156 0
M  V30 7018 O 722.937 -1.29987 1.53836 0
M  V30 7019 C 720.002 -1.97352 2.8505 0
M  V30 7020 C 719.063 -1.53466 4.00932 0
M  V30 7021 C 718.296 -2.68682 4.61135 0
M  V30 7022 O 718.519 -3.85694 4.20234 0
M  V30 7023 O 717.453 -2.42442 5.50913 0
M  V30 7024 H 721.279 -0.238363 3.02763 0
M  V30 7025 H 718.864 -0.0516331 1.49311 0
M  V30 7026 H 720.746 -2.68096 3.25119 0
M  V30 7027 H 719.421 -2.48779 2.07101 0
M  V30 7028 H 718.328 -0.796551 3.65521 0
M  V30 7029 H 719.661 -1.06724 4.8049 0
M  V30 7030 N 721.313 -1.57302 -0.09688 0
M  V30 7031 C 722.245 -1.98618 -1.14384 0
M  V30 7032 C 723.258 -0.888483 -1.36418 0
M  V30 7033 O 724.447 -1.16661 -1.35101 0
M  V30 7034 C 721.547 -2.28838 -2.49973 0
M  V30 7035 C 720.72 -3.60132 -2.48241 0
M  V30 7036 C 719.779 -3.7831 -3.65743 0
M  V30 7037 O 718.805 -4.50183 -3.48316 0
M  V30 7038 N 720.007 -3.18752 -4.85157 0
M  V30 7039 H 722.772 -2.8904 -0.792202 0
M  V30 7040 H 720.333 -1.59356 -0.285883 0
M  V30 7041 H 722.325 -2.38193 -3.27179 0
M  V30 7042 H 720.895 -1.44431 -2.77233 0
M  V30 7043 H 720.115 -3.61763 -1.56593 0
M  V30 7044 H 721.403 -4.46389 -2.4416 0
M  V30 7045 H 720.801 -2.60368 -5.0222 0
M  V30 7046 H 719.358 -3.33595 -5.59962 0
M  V30 7047 N 722.791 0.367657 -1.53252 0
M  V30 7048 C 723.701 1.47415 -1.82499 0
M  V30 7049 C 724.717 1.58711 -0.713222 0
M  V30 7050 O 725.893 1.74644 -1.00306 0
M  V30 7051 C 722.958 2.82706 -2.00694 0
M  V30 7052 C 722.019 2.80955 -3.24596 0
M  V30 7053 C 721.252 4.09793 -3.41914 0
M  V30 7054 O 721.475 5.05852 -2.63572 0
M  V30 7055 O 720.409 4.15731 -4.3526 0
M  V30 7056 H 724.235 1.25624 -2.765 0
M  V30 7057 H 721.82 0.557559 -1.38606 0
M  V30 7058 H 723.702 3.62873 -2.14246 0
M  V30 7059 H 722.377 3.04479 -1.09883 0
M  V30 7060 H 721.284 1.99494 -3.16469 0
M  V30 7061 H 722.617 2.64136 -4.15323 0
M  V30 7062 N 724.269 1.44576 0.627338 0
M  V30 7063 C 725.201 1.47724 1.75243 0
M  V30 7064 C 726.214 0.370193 1.58535 0
M  V30 7065 O 727.403 0.636151 1.66779 0
M  V30 7066 C 724.503 1.2991 3.13012 0
M  V30 7067 C 723.676 2.5393 3.56143 0
M  V30 7068 C 722.735 2.30961 4.72804 0
M  V30 7069 O 721.761 3.04469 4.80923 0
M  V30 7070 N 722.963 1.34261 5.6476 0
M  V30 7071 H 725.728 2.44718 1.73012 0
M  V30 7072 H 723.289 1.40064 0.812022 0
M  V30 7073 H 725.281 1.12385 3.88782 0
M  V30 7074 H 723.851 0.412668 3.09864 0
M  V30 7075 H 723.071 2.86707 2.70542 0
M  V30 7076 H 724.359 3.36411 3.81713 0
M  V30 7077 H 723.757 0.735573 5.60897 0
M  V30 7078 H 722.314 1.22713 6.40144 0
M  V30 7079 N 725.747 -0.868086 1.31537 0
M  V30 7080 C 726.975 -1.65402 1.24298 0
M  V30 7081 C 727.39 -1.87827 -0.191389 0
M  V30 7082 O 726.747 -1.43776 -1.12404 0
M  V30 7083 C 726.798 -3.02093 1.9855 0
M  V30 7084 O 726.519 -2.80668 3.36388 0
M  V30 7085 C 728.02 -3.96538 1.98173 0
M  V30 7086 H 725.24 -0.515598 0.429417 0
M  V30 7087 H 727.784 -1.0834 1.73444 0
M  V30 7088 H 725.939 -3.55838 1.53161 0
M  V30 7089 H 726.353 -3.67504 3.74221 0
M  V30 7090 H 727.827 -4.8976 2.54635 0
M  V30 7091 H 728.304 -4.28474 0.964697 0
M  V30 7092 H 728.91 -3.48729 2.4345 0
M  V30 7093 N 727.225 -1.14528 -1.08264 0
M  V30 7094 C 728.175 -0.802141 -2.13424 0
M  V30 7095 C 729.159 0.209362 -1.59532 0
M  V30 7096 O 730.351 0.0114859 -1.76996 0
M  V30 7097 C 727.48 -0.282938 -3.42132 0
M  V30 7098 C 726.566 -1.32405 -4.02902 0
M  V30 7099 N 726.957 -2.52861 -4.38058 0
M  V30 7100 C 725.255 -1.17462 -4.30254 0
M  V30 7101 C 725.956 -3.1952 -4.86088 0
M  V30 7102 N 724.932 -2.46921 -4.84284 0
M  V30 7103 H 728.734 -1.71843 -2.38426 0
M  V30 7104 H 726.248 -1.02936 -1.2561 0
M  V30 7105 H 728.245 -0.0188053 -4.16896 0
M  V30 7106 H 726.905 0.627533 -3.18578 0
M  V30 7107 H 727.916 -2.90078 -4.2904 0
M  V30 7108 H 724.593 -0.323283 -4.16246 0
M  V30 7109 H 725.983 -4.2223 -5.22658 0
M  V30 7110 N 728.703 1.26451 -0.940633 0
M  V30 7111 C 730.119 1.4608 -0.642859 0
M  V30 7112 C 730.319 1.84765 0.803998 0
M  V30 7113 O 729.375 1.96902 1.58069 0
M  V30 7114 C 730.688 2.54359 -1.60381 0
M  V30 7115 C 732.236 2.6821 -1.61345 0
M  V30 7116 C 732.711 3.79659 -2.56169 0
M  V30 7117 N 734.202 3.87051 -2.54452 0
M  V30 7118 C 734.937 4.72739 -3.24507 0
M  V30 7119 N 734.433 5.6282 -4.03987 0
M  V30 7120 N 736.226 4.66581 -3.13462 0
M  V30 7121 H 728.377 0.996289 -1.87584 0
M  V30 7122 H 730.64 0.498921 -0.80609 0
M  V30 7123 H 730.346 2.32758 -2.6366 0
M  V30 7124 H 730.22 3.52005 -1.35545 0
M  V30 7125 H 732.607 2.89184 -0.587913 0
M  V30 7126 H 732.688 1.7101 -1.90235 0
M  V30 7127 H 732.332 3.59438 -3.58841 0
M  V30 7128 H 732.262 4.76315 -2.2457 0
M  V30 7129 H 734.753 3.22649 -1.96739 0
M  V30 7130 H 735.066 6.25095 -4.54396 0
M  V30 7131 H 733.411 5.62574 -4.08088 0
M  V30 7132 H 736.602 3.9521 -2.50852 0
M  V30 7133 H 736.775 5.33141 -3.68327 0
M  V30 7134 N 730.181 0.707592 1.40822 0
M  V30 7135 C 731.144 0.0587224 2.29125 0
M  V30 7136 C 732.144 -0.695624 1.44975 0
M  V30 7137 O 733.334 -0.528718 1.65983 0
M  V30 7138 C 730.466 -0.926939 3.28056 0
M  V30 7139 H 731.659 0.836349 2.88002 0
M  V30 7140 H 729.212 0.471778 1.4901 0
M  V30 7141 H 729.947 -1.7319 2.74182 0
M  V30 7142 H 729.732 -0.389015 3.90165 0
M  V30 7143 H 731.222 -1.37837 3.94196 0
M  V30 7144 N 731.66 -1.50943 0.453197 0
M  V30 7145 C 732.909 -2.01402 -0.10951 0
M  V30 7146 C 733.222 -1.3411 -1.42386 0
M  V30 7147 O 734.428 -1.75626 -2.07045 0
M  V30 7148 C 732.884 -3.5906 -0.245693 0
M  V30 7149 C 732.492 -4.353 1.05916 0
M  V30 7150 C 734.236 -4.17617 -0.761318 0
M  V30 7151 C 732.143 -5.84699 0.887752 0
M  V30 7152 H 731.073 -0.752674 -0.0447013 0
M  V30 7153 H 733.724 -1.73913 0.585375 0
M  V30 7154 H 732.106 -3.83062 -1.00395 0
M  V30 7155 H 733.28 -4.23034 1.82698 0
M  V30 7156 H 731.595 -3.88269 1.50452 0
M  V30 7157 H 734.192 -5.26963 -0.906306 0
M  V30 7158 H 734.535 -3.77824 -1.74799 0
M  V30 7159 H 735.068 -3.97753 -0.0609416 0
M  V30 7160 H 731.807 -6.28933 1.84726 0
M  V30 7161 H 731.327 -5.99587 0.160006 0
M  V30 7162 H 733.006 -6.44682 0.547223 0
M  V30 7163 N 733.138 -0.185124 -1.56509 0
M  V30 7164 C 734.385 0.456258 -1.97293 0
M  V30 7165 C 734.713 1.62314 -1.07165 0
M  V30 7166 O 733.968 1.95398 -0.108621 0
M  V30 7167 C 734.267 0.967977 -3.44042 0
M  V30 7168 C 733.933 -0.084476 -4.50821 0
M  V30 7169 C 732.595 -0.373689 -4.79747 0
M  V30 7170 C 734.947 -0.79812 -5.15053 0
M  V30 7171 C 732.275 -1.3817 -5.70198 0
M  V30 7172 C 734.627 -1.79521 -6.06593 0
M  V30 7173 C 733.291 -2.09172 -6.3388 0
M  V30 7174 H 732.561 0.166957 -0.721946 0
M  V30 7175 H 735.208 -0.279992 -1.89442 0
M  V30 7176 H 733.513 1.78231 -3.48914 0
M  V30 7177 H 735.21 1.47347 -3.72948 0
M  V30 7178 H 731.8 0.15111 -4.28334 0
M  V30 7179 H 735.984 -0.587903 -4.92806 0
M  V30 7180 H 731.24 -1.61745 -5.89617 0
M  V30 7181 H 735.414 -2.35347 -6.55427 0
M  V30 7182 H 733.041 -2.87427 -7.03768 0
M  V30 7183 N 734.616 1.57351 0.0885366 0
M  V30 7184 C 736.032 1.53331 0.442916 0
M  V30 7185 C 736.232 0.902831 1.80142 0
M  V30 7186 O 735.288 0.498147 2.47537 0
M  V30 7187 C 736.601 2.98036 0.399372 0
M  V30 7188 C 738.149 3.09286 0.480759 0
M  V30 7189 C 738.624 4.5561 0.467296 0
M  V30 7190 N 740.115 4.60182 0.52786 0
M  V30 7191 C 740.85 5.70857 0.539388 0
M  V30 7192 N 740.346 6.90944 0.506729 0
M  V30 7193 N 742.139 5.59051 0.584691 0
M  V30 7194 H 734.29 1.96709 -0.801215 0
M  V30 7195 H 736.553 0.899639 -0.298922 0
M  V30 7196 H 736.259 3.47656 -0.531806 0
M  V30 7197 H 736.133 3.57066 1.21589 0
M  V30 7198 H 738.52 2.5965 1.40236 0
M  V30 7199 H 738.601 2.53197 -0.364023 0
M  V30 7200 H 738.245 5.05899 -0.450384 0
M  V30 7201 H 738.175 5.09544 1.32938 0
M  V30 7202 H 740.666 3.73757 0.558028 0
M  V30 7203 H 740.979 7.71055 0.518989 0
M  V30 7204 H 739.324 6.93384 0.473675 0
M  V30 7205 H 742.515 4.64138 0.607781 0
M  V30 7206 H 742.688 6.45307 0.590206 0
M  V30 7207 N 736.094 -0.359525 1.53444 0
M  V30 7208 C 737.341 -1.10152 1.6992 0
M  V30 7209 C 737.669 -1.89125 0.4541 0
M  V30 7210 O 736.924 -1.87396 -0.564023 0
M  V30 7211 C 737.223 -2.08287 2.90433 0
M  V30 7212 C 736.889 -1.45749 4.26694 0
M  V30 7213 C 735.551 -1.28421 4.63747 0
M  V30 7214 C 737.903 -1.00557 5.11408 0
M  V30 7215 C 735.231 -0.644951 5.83144 0
M  V30 7216 C 737.583 -0.380288 6.31456 0
M  V30 7217 C 736.247 -0.194557 6.67216 0
M  V30 7218 H 735.517 -0.403076 0.621781 0
M  V30 7219 H 738.164 -0.382612 1.87639 0
M  V30 7220 H 736.469 -2.86503 2.67251 0
M  V30 7221 H 738.166 -2.65662 3.00374 0
M  V30 7222 H 734.756 -1.6023 3.97523 0
M  V30 7223 H 738.94 -1.12735 4.83326 0
M  V30 7224 H 734.196 -0.48952 6.09437 0
M  V30 7225 H 738.37 -0.0219455 6.96397 0
M  V30 7226 H 735.997 0.30285 7.59597 0
M  V30 7227 N 737.572 -1.44907 -0.619662 0
M  V30 7228 C 738.818 -1.48512 -1.38102 0
M  V30 7229 C 739.151 -0.121686 -1.93818 0
M  V30 7230 O 738.426 0.862256 -1.74343 0
M  V30 7231 C 738.709 -2.55469 -2.53787 0
M  V30 7232 C 738.562 -4.01212 -2.03345 0
M  V30 7233 C 739.881 -2.58821 -3.55949 0
M  V30 7234 H 737 -0.540712 -0.500799 0
M  V30 7235 H 739.642 -1.7665 -0.69962 0
M  V30 7236 H 737.792 -2.31606 -3.11915 0
M  V30 7237 H 739.464 -4.36245 -1.49959 0
M  V30 7238 H 737.707 -4.12443 -1.34438 0
M  V30 7239 H 738.378 -4.71717 -2.86683 0
M  V30 7240 H 740.854 -2.80172 -3.07641 0
M  V30 7241 H 739.73 -3.35542 -4.34399 0
M  V30 7242 H 739.991 -1.63451 -4.10775 0
M  V30 7243 N 739.05 0.861098 -1.31996 0
M  V30 7244 C 740.461 1.43065 -1.19955 0
M  V30 7245 C 740.812 1.95273 0.190489 0
M  V30 7246 O 739.937 1.87012 1.08882 0
M  V30 7247 C 740.532 2.60052 -2.1716 0
M  V30 7248 C 739.091 3.13026 -2.09026 0
M  V30 7249 C 738.238 1.85756 -2.05888 0
M  V30 7250 H 741.189 0.668834 -1.43918 0
M  V30 7251 H 741.21 3.37016 -1.76637 0
M  V30 7252 H 740.722 2.22024 -3.18319 0
M  V30 7253 H 738.823 3.55653 -1.11092 0
M  V30 7254 H 738.936 3.74707 -2.98549 0
M  V30 7255 H 737.3 2.05088 -1.51033 0
M  V30 7256 H 738.083 1.49954 -3.08818 0
M  V30 7257 N 740.528 1.15101 1.07655 0
M  V30 7258 C 741.944 0.893004 1.32279 0
M  V30 7259 C 742.144 -0.461701 1.96139 0
M  V30 7260 O 741.2 -1.20431 2.21929 0
M  V30 7261 C 742.513 2.03161 2.21689 0
M  V30 7262 C 744.061 2.06579 2.35147 0
M  V30 7263 C 744.536 3.19754 3.27905 0
M  V30 7264 N 746.027 3.19382 3.35484 0
M  V30 7265 C 746.762 4.03592 4.07309 0
M  V30 7266 N 746.258 4.97859 4.81776 0
M  V30 7267 N 748.051 3.91626 4.03219 0
M  V30 7268 H 740.202 2.02341 0.645886 0
M  V30 7269 H 742.465 0.882127 0.347211 0
M  V30 7270 H 742.171 3.00934 1.82021 0
M  V30 7271 H 742.045 1.96132 3.22199 0
M  V30 7272 H 744.432 1.09408 2.74069 0
M  V30 7273 H 744.513 2.17676 1.34353 0
M  V30 7274 H 744.157 4.17175 2.89702 0
M  V30 7275 H 744.087 3.05893 4.28645 0
M  V30 7276 H 746.578 2.51112 2.82403 0
M  V30 7277 H 746.891 5.58563 5.34067 0
M  V30 7278 H 745.236 5.0185 4.80803 0
M  V30 7279 H 748.427 3.17295 3.44154 0
M  V30 7280 H 748.6 4.57479 4.5893 0
M  V30 7281 N 742.006 -1.2595 0.947325 0
M  V30 7282 C 742.956 -2.23859 0.432547 0
M  V30 7283 C 743.94 -1.53755 -0.474154 0
M  V30 7284 O 745.132 -1.74293 -0.308397 0
M  V30 7285 C 742.261 -3.42027 -0.295318 0
M  V30 7286 C 741.347 -4.19409 0.62903 0
M  V30 7287 N 741.738 -4.74284 1.7575 0
M  V30 7288 C 740.036 -4.43866 0.435805 0
M  V30 7289 C 740.737 -5.32821 2.33401 0
M  V30 7290 N 739.713 -5.18858 1.62135 0
M  V30 7291 H 743.515 -2.63886 1.29388 0
M  V30 7292 H 741.029 -1.41105 0.80393 0
M  V30 7293 H 743.026 -4.11297 -0.681188 0
M  V30 7294 H 741.686 -3.03526 -1.15334 0
M  V30 7295 H 742.697 -4.71641 2.13952 0
M  V30 7296 H 739.374 -4.15768 -0.37994 0
M  V30 7297 H 740.764 -5.86111 3.28517 0
M  V30 7298 N 743.484 -0.715051 -1.40445 0
M  V30 7299 C 744.394 -0.0631624 -2.34515 0
M  V30 7300 C 745.41 0.744397 -1.57273 0
M  V30 7301 O 746.586 0.677475 -1.89663 0
M  V30 7302 C 743.651 0.847915 -3.36172 0
M  V30 7303 C 742.712 0.0303655 -4.29289 0
M  V30 7304 C 741.945 0.898051 -5.2609 0
M  V30 7305 O 742.168 2.13729 -5.28844 0
M  V30 7306 O 741.102 0.337328 -6.00954 0
M  V30 7307 H 744.928 -0.839078 -2.91879 0
M  V30 7308 H 742.513 -0.475527 -1.4163 0
M  V30 7309 H 744.395 1.3698 -3.98515 0
M  V30 7310 H 743.07 1.60299 -2.81222 0
M  V30 7311 H 741.977 -0.536573 -3.70232 0
M  V30 7312 H 743.31 -0.686474 -4.87389 0
M  V30 7313 N 744.962 1.50701 -0.461195 0
M  V30 7314 C 746.239 1.94958 0.158296 0
M  V30 7315 C 746.619 1.40111 1.57899 0
M  V30 7316 O 745.967 0.597976 2.20537 0
M  V30 7317 C 746.177 3.48821 0.11172 0
M  V30 7318 C 747.525 4.23499 0.30552 0
M  V30 7319 O 748.549 3.557 0.188758 0
M  V30 7320 O 747.408 5.43823 0.540244 0
M  V30 7321 H 744.502 0.818674 0.117054 0
M  V30 7322 H 747.048 1.61508 -0.520888 0
M  V30 7323 H 745.82 3.81263 -0.880577 0
M  V30 7324 H 745.443 3.88781 0.832791 0
M  V30 7325 N 746.441 0.193421 1.56409 0
M  V30 7326 C 747.351 -0.740112 2.2262 0
M  V30 7327 C 748.367 -1.23597 1.22474 0
M  V30 7328 O 749.543 -1.28348 1.55206 0
M  V30 7329 C 746.608 -1.94317 2.87127 0
M  V30 7330 C 745.669 -1.49205 4.02538 0
M  V30 7331 C 744.902 -2.63776 4.63959 0
M  V30 7332 O 745.125 -3.81215 4.24301 0
M  V30 7333 O 744.059 -2.36585 5.53454 0
M  V30 7334 H 747.885 -0.206238 3.02999 0
M  V30 7335 H 745.47 -0.0357938 1.49357 0
M  V30 7336 H 747.352 -2.64633 3.27944 0
M  V30 7337 H 746.027 -2.46568 2.09728 0
M  V30 7338 H 744.934 -0.757738 3.66346 0
M  V30 7339 H 746.267 -1.01622 4.81595 0
M  V30 7340 N 747.919 -1.57396 -0.0801906 0
M  V30 7341 C 748.849 -2.06145 -1.09665 0
M  V30 7342 C 749.83 -0.953273 -1.40878 0
M  V30 7343 O 751.015 -1.22548 -1.50651 0
M  V30 7344 C 748.145 -2.49836 -2.41245 0
M  V30 7345 C 747.099 -3.64454 -2.24405 0
M  V30 7346 C 746.425 -3.94172 -3.61293 0
M  V30 7347 C 747.725 -4.94807 -1.67223 0
M  V30 7348 H 749.419 -2.91316 -0.691028 0
M  V30 7349 H 746.965 -1.40145 -0.330957 0
M  V30 7350 H 748.918 -2.82552 -3.12638 0
M  V30 7351 H 747.642 -1.61683 -2.83771 0
M  V30 7352 H 746.301 -3.32008 -1.55454 0
M  V30 7353 H 745.949 -3.03163 -4.01374 0
M  V30 7354 H 745.649 -4.71345 -3.50867 0
M  V30 7355 H 747.173 -4.29376 -4.3413 0
M  V30 7356 H 748.587 -5.25807 -2.28472 0
M  V30 7357 H 746.984 -5.76245 -1.67515 0
M  V30 7358 H 748.054 -4.80751 -0.632944 0
M  V30 7359 N 749.397 0.351382 -1.53633 0
M  V30 7360 C 750.307 1.45471 -1.84052 0
M  V30 7361 C 751.323 1.57945 -0.730015 0
M  V30 7362 O 752.499 1.73571 -1.02153 0
M  V30 7363 C 749.564 2.80562 -2.03681 0
M  V30 7364 C 748.625 2.77497 -3.27558 0
M  V30 7365 C 747.858 4.06144 -3.46241 0
M  V30 7366 O 748.081 5.03028 -2.68922 0
M  V30 7367 O 747.015 4.11092 -4.39645 0
M  V30 7368 H 750.841 1.22684 -2.77817 0
M  V30 7369 H 748.426 0.542827 -1.3919 0
M  V30 7370 H 750.308 3.6058 -2.18082 0
M  V30 7371 H 748.983 3.03296 -1.13106 0
M  V30 7372 H 747.89 1.96126 -3.18568 0
M  V30 7373 H 749.223 2.59716 -4.18101 0
M  V30 7374 N 750.875 1.45233 0.611969 0
M  V30 7375 C 751.805 1.5641 1.73373 0
M  V30 7376 C 752.786 0.415896 1.64937 0
M  V30 7377 O 753.971 0.638478 1.83404 0
M  V30 7378 C 751.101 1.52627 3.11965 0
M  V30 7379 C 750.055 2.66119 3.35208 0
M  V30 7380 C 749.381 2.4739 4.74028 0
M  V30 7381 C 750.681 4.08157 3.25891 0
M  V30 7382 H 752.375 2.50307 1.64277 0
M  V30 7383 H 749.921 1.20467 0.788904 0
M  V30 7384 H 751.874 1.59043 3.90235 0
M  V30 7385 H 750.598 0.552564 3.21892 0
M  V30 7386 H 749.257 2.59123 2.59327 0
M  V30 7387 H 748.905 1.48168 4.80682 0
M  V30 7388 H 748.605 3.23494 4.90536 0
M  V30 7389 H 750.129 2.55653 5.54503 0
M  V30 7390 H 751.543 4.1642 3.9404 0
M  V30 7391 H 749.94 4.84617 3.5393 0
M  V30 7392 H 751.01 4.30374 2.23397 0
M  V30 7393 N 752.353 -0.854086 1.3245 0
M  V30 7394 C 753.263 -1.99503 1.23434 0
M  V30 7395 C 754.279 -1.73371 0.147828 0
M  V30 7396 O 755.455 -1.97998 0.368609 0
M  V30 7397 C 752.52 -3.33192 0.958328 0
M  V30 7398 C 751.581 -3.72542 2.13333 0
M  V30 7399 C 750.814 -4.99852 1.8704 0
M  V30 7400 O 751.037 -5.64573 0.813239 0
M  V30 7401 O 749.971 -5.36345 2.73161 0
M  V30 7402 H 753.797 -2.10046 2.1935 0
M  V30 7403 H 751.382 -0.984823 1.12346 0
M  V30 7404 H 753.264 -4.13327 0.820918 0
M  V30 7405 H 751.939 -3.23687 0.0293299 0
M  V30 7406 H 750.846 -2.92981 2.32622 0
M  V30 7407 H 752.179 -3.86694 3.04514 0
M  V30 7408 N 753.831 -1.1567 -1.07043 0
M  V30 7409 C 755.077 -0.9349 -1.79965 0
M  V30 7410 C 755.41 0.536464 -1.86643 0
M  V30 7411 O 754.685 1.39781 -1.35247 0
M  V30 7412 C 754.968 -1.55371 -3.24857 0
M  V30 7413 C 754.821 -3.09589 -3.26305 0
M  V30 7414 C 756.14 -1.24209 -4.22209 0
M  V30 7415 H 753.259 -0.341061 -0.653335 0
M  V30 7416 H 755.901 -1.42883 -1.25237 0
M  V30 7417 H 754.051 -1.13368 -3.71591 0
M  V30 7418 H 755.723 -3.60521 -2.87789 0
M  V30 7419 H 753.966 -3.43315 -2.65174 0
M  V30 7420 H 754.637 -3.48002 -4.28484 0
M  V30 7421 H 757.113 -1.60548 -3.8388 0
M  V30 7422 H 755.989 -1.70119 -5.21872 0
M  V30 7423 H 756.25 -0.15964 -4.41812 0
M  V30 7424 N 755.309 1.25446 -0.953992 0
M  V30 7425 C 756.586 1.884 -0.525823 0
M  V30 7426 C 756.966 1.86079 0.996891 0
M  V30 7427 O 756.314 1.32389 1.8624 0
M  V30 7428 C 756.524 3.31154 -1.10172 0
M  V30 7429 C 757.872 4.07926 -1.17819 0
M  V30 7430 O 758.896 3.40273 -1.05323 0
M  V30 7431 O 757.755 5.28942 -1.37415 0
M  V30 7432 H 754.849 0.808629 -0.173345 0
M  V30 7433 H 757.395 1.33522 -1.04738 0
M  V30 7434 H 756.167 3.27271 -2.14499 0
M  V30 7435 H 755.79 3.93588 -0.56338 0
M  V30 7436 N 756.787 0.722489 1.40064 0
M  V30 7437 C 758.064 0.191829 1.94657 0
M  V30 7438 C 758.444 -1.30389 1.66018 0
M  V30 7439 O 757.792 -2.06342 0.981588 0
M  V30 7440 C 758.002 0.511978 3.45224 0
M  V30 7441 C 759.35 0.454426 4.22161 0
M  V30 7442 O 760.374 0.448438 3.53366 0
M  V30 7443 O 759.233 0.437986 5.44742 0
M  V30 7444 H 756.327 0.0307821 0.826427 0
M  V30 7445 H 758.873 0.800493 1.49634 0
M  V30 7446 H 757.645 1.54622 3.59455 0
M  V30 7447 H 757.268 -0.126296 3.97399 0
M  V30 7448 N 758.265 -1.50454 0.469181 0
M  V30 7449 C 759.676 -1.86695 0.0136034 0
M  V30 7450 C 760.027 -1.38413 -1.39055 0
M  V30 7451 O 759.152 -0.748294 -2.03051 0
M  V30 7452 C 759.747 -3.38795 0.0179098 0
M  V30 7453 C 758.306 -3.74455 -0.382191 0
M  V30 7454 C 757.453 -2.74338 0.404207 0
M  V30 7455 H 760.404 -1.43225 0.683547 0
M  V30 7456 H 760.425 -3.72321 -0.78468 0
M  V30 7457 H 759.937 -3.73906 1.04 0
M  V30 7458 H 758.038 -3.44944 -1.4087 0
M  V30 7459 H 758.151 -4.79025 -0.084862 0
M  V30 7460 H 756.515 -2.54305 -0.141829 0
M  V30 7461 H 757.298 -3.12293 1.42577 0
M  V30 7462 N 759.743 -0.201713 -1.56304 0
M  V30 7463 C 760.673 0.71155 -2.22394 0
M  V30 7464 C 761.654 1.21625 -1.18917 0
M  V30 7465 O 762.839 1.26388 -1.47444 0
M  V30 7466 C 759.969 1.92837 -2.88845 0
M  V30 7467 C 758.923 1.55831 -3.98623 0
M  V30 7468 C 758.249 2.85228 -4.52271 0
M  V30 7469 C 759.549 0.763249 -5.16693 0
M  V30 7470 H 761.243 0.160573 -2.98969 0
M  V30 7471 H 758.789 0.0757916 -1.438 0
M  V30 7472 H 760.742 2.57253 -3.33764 0
M  V30 7473 H 759.466 2.50398 -2.09686 0
M  V30 7474 H 758.125 0.9377 -3.54405 0
M  V30 7475 H 757.773 3.40893 -3.69866 0
M  V30 7476 H 757.473 2.6121 -5.26349 0
M  V30 7477 H 758.997 3.50622 -4.99897 0
M  V30 7478 H 760.411 1.31066 -5.58117 0
M  V30 7479 H 758.808 0.620935 -5.96879 0
M  V30 7480 H 759.878 -0.234322 -4.84334 0
M  V30 7481 N 761.222 1.57436 0.0718424 0
M  V30 7482 C 762.152 2.06724 1.08571 0
M  V30 7483 C 763.133 0.960731 1.40371 0
M  V30 7484 O 764.318 1.23345 1.49999 0
M  V30 7485 C 761.448 2.51112 2.39916 0
M  V30 7486 C 760.402 3.65639 2.22469 0
M  V30 7487 C 759.728 3.96082 3.59198 0
M  V30 7488 C 761.028 4.95687 1.64596 0
M  V30 7489 H 762.722 2.91679 0.675569 0
M  V30 7490 H 760.268 1.40319 0.32352 0
M  V30 7491 H 762.221 2.84206 3.11135 0
M  V30 7492 H 760.945 1.63186 2.8291 0
M  V30 7493 H 759.604 3.32828 1.53691 0
M  V30 7494 H 759.252 3.05287 3.99761 0
M  V30 7495 H 758.952 4.73199 3.48362 0
M  V30 7496 H 760.476 4.31672 4.31847 0
M  V30 7497 H 761.89 5.27011 2.25681 0
M  V30 7498 H 760.287 5.77126 1.64457 0
M  V30 7499 H 761.357 4.8108 0.60744 0
M  V30 7500 N 762.7 -0.34323 1.53817 0
M  V30 7501 C 763.946 -1.08504 1.71332 0
M  V30 7502 C 764.279 -1.88294 0.475285 0
M  V30 7503 O 763.554 -1.87205 -0.527688 0
M  V30 7504 C 763.837 -2.02597 2.97702 0
M  V30 7505 C 763.69 -1.26268 4.31713 0
M  V30 7506 C 765.009 -3.0241 3.19744 0
M  V30 7507 H 762.128 -0.393072 0.623429 0
M  V30 7508 H 764.77 -0.363579 1.86489 0
M  V30 7509 H 762.92 -2.64118 2.8491 0
M  V30 7510 H 764.592 -0.673594 4.56356 0
M  V30 7511 H 762.835 -0.564696 4.30109 0
M  V30 7512 H 763.506 -1.95253 5.16314 0
M  V30 7513 H 765.982 -2.51004 3.31868 0
M  V30 7514 H 764.858 -3.65449 4.09558 0
M  V30 7515 H 765.119 -3.73806 2.36054 0
M  V30 7516 N 764.178 -1.45556 -0.604258 0
M  V30 7517 C 765.088 -1.57025 -1.74299 0
M  V30 7518 C 766.104 -0.45456 -1.67958 0
M  V30 7519 O 767.28 -0.715711 -1.88254 0
M  V30 7520 C 764.345 -1.53702 -3.10768 0
M  V30 7521 C 763.406 -2.76335 -3.28538 0
M  V30 7522 C 762.639 -2.73161 -4.58496 0
M  V30 7523 O 762.862 -1.80678 -5.41028 0
M  V30 7524 O 761.796 -3.64409 -4.79051 0
M  V30 7525 H 765.622 -2.53284 -1.67573 0
M  V30 7526 H 763.207 -1.28104 -0.768745 0
M  V30 7527 H 765.089 -1.54468 -3.92068 0
M  V30 7528 H 763.764 -0.605957 -3.17978 0
M  V30 7529 H 762.671 -2.8113 -2.46813 0
M  V30 7530 H 764.004 -3.68578 -3.26207 0
M  V30 7531 N 765.656 0.84705 -1.32902 0
M  V30 7532 C 766.586 1.97166 -1.25091 0
M  V30 7533 C 767.567 1.69578 -0.133161 0
M  V30 7534 O 768.752 1.91519 -0.321591 0
M  V30 7535 C 765.882 3.33157 -0.981006 0
M  V30 7536 C 764.836 3.75119 -2.06082 0
M  V30 7537 C 764.162 5.08826 -1.64318 0
M  V30 7538 C 765.462 3.89774 -3.47669 0
M  V30 7539 H 767.156 2.03958 -2.19184 0
M  V30 7540 H 764.702 0.979907 -1.05517 0
M  V30 7541 H 766.655 4.11393 -0.912891 0
M  V30 7542 H 765.379 3.266 -0.00445559 0
M  V30 7543 H 764.038 2.9914 -2.11921 0
M  V30 7544 H 763.686 4.98732 -0.653876 0
M  V30 7545 H 763.386 5.37873 -2.36572 0
M  V30 7546 H 764.91 5.89546 -1.58958 0
M  V30 7547 H 766.324 4.58343 -3.44376 0
M  V30 7548 H 764.721 4.30248 -4.18338 0
M  V30 7549 H 765.791 2.92463 -3.86773 0
M  V30 7550 N 767.134 1.16236 1.06428 0
M  V30 7551 C 768.066 0.825446 2.1382 0
M  V30 7552 C 769.079 -0.166707 1.61944 0
M  V30 7553 O 770.268 0.0578606 1.78406 0
M  V30 7554 C 767.368 0.208023 3.38261 0
M  V30 7555 C 766.541 1.23994 4.19457 0
M  V30 7556 C 765.6 0.642569 5.22262 0
M  V30 7557 O 764.626 1.31106 5.53895 0
M  V30 7558 N 765.828 -0.571327 5.77682 0
M  V30 7559 H 768.593 1.7497 2.43322 0
M  V30 7560 H 766.154 1.05951 1.22417 0
M  V30 7561 H 768.146 -0.204608 4.04182 0
M  V30 7562 H 766.716 -0.619752 3.06395 0
M  V30 7563 H 765.936 1.82879 3.49212 0
M  V30 7564 H 767.224 1.93638 4.70512 0
M  V30 7565 H 766.622 -1.13263 5.54245 0
M  V30 7566 H 765.179 -0.926187 6.45186 0
M  V30 7567 N 768.612 -1.24939 0.960631 0
M  V30 7568 C 769.575 -2.239 0.49006 0
M  V30 7569 C 770.575 -1.55497 -0.409535 0
M  V30 7570 O 771.765 -1.72978 -0.205984 0
M  V30 7571 C 768.897 -3.39654 -0.291193 0
M  V30 7572 H 770.09 -2.67044 1.36482 0
M  V30 7573 H 767.643 -1.37429 0.744505 0
M  V30 7574 H 768.378 -3.01939 -1.18336 0
M  V30 7575 H 768.163 -3.90496 0.354276 0
M  V30 7576 H 769.653 -4.13125 -0.609693 0
M  V30 7577 N 770.09 -0.729906 -1.39679 0
M  V30 7578 C 771 -0.0880322 -2.34435 0
M  V30 7579 C 772.016 0.727674 -1.58053 0
M  V30 7580 O 773.192 0.657321 -1.90371 0
M  V30 7581 C 770.257 0.812211 -3.37052 0
M  V30 7582 C 769.318 -0.0151681 -4.29297 0
M  V30 7583 C 768.551 0.842202 -5.27013 0
M  V30 7584 O 768.774 2.08108 -5.31081 0
M  V30 7585 O 767.708 0.27357 -6.01278 0
M  V30 7586 H 771.534 -0.869989 -2.90972 0
M  V30 7587 H 769.119 -0.490522 -1.41118 0
M  V30 7588 H 771.001 1.32745 -3.99946 0
M  V30 7589 H 769.676 1.57307 -2.82907 0
M  V30 7590 H 768.583 -0.575811 -3.69642 0
M  V30 7591 H 769.916 -0.738129 -4.86634 0
M  V30 7592 N 771.568 1.50203 -0.477153 0
M  V30 7593 C 772.845 1.95115 0.137609 0
M  V30 7594 C 773.225 1.41778 1.56404 0
M  V30 7595 O 772.573 0.621333 2.1989 0
M  V30 7596 C 772.783 3.4892 0.0747168 0
M  V30 7597 C 774.131 4.238 0.260585 0
M  V30 7598 O 775.155 3.5588 0.151021 0
M  V30 7599 O 774.014 5.44366 0.482534 0
M  V30 7600 H 771.108 0.81987 0.108364 0
M  V30 7601 H 773.654 1.60946 -0.537989 0
M  V30 7602 H 772.426 3.80308 -0.920966 0
M  V30 7603 H 772.049 3.89642 0.791509 0
M  V30 7604 N 773.046 0.209999 1.56195 0
M  V30 7605 C 774.276 -0.429373 2.02089 0
M  V30 7606 C 774.684 -1.54703 1.0892 0
M  V30 7607 O 774.027 -1.83485 0.0889535 0
M  V30 7608 C 774.089 -1.03266 3.44349 0
M  V30 7609 C 773.753 -0.0518873 4.56971 0
M  V30 7610 C 774.75 0.744249 5.14545 0
M  V30 7611 C 772.435 0.0635185 5.0226 0
M  V30 7612 C 774.429 1.64261 6.15871 0
M  V30 7613 C 772.116 0.965423 6.03426 0
M  V30 7614 C 773.114 1.75352 6.60106 0
M  V30 7615 O 772.802 2.64029 7.59305 0
M  V30 7616 H 772.534 -0.110604 0.66689 0
M  V30 7617 H 775.088 0.320436 2.02885 0
M  V30 7618 H 773.318 -1.83134 3.40586 0
M  V30 7619 H 775.007 -1.57823 3.73961 0
M  V30 7620 H 775.773 0.665476 4.80413 0
M  V30 7621 H 771.652 -0.539762 4.57829 0
M  V30 7622 H 775.196 2.25819 6.60039 0
M  V30 7623 H 771.093 1.04526 6.36981 0
M  V30 7624 H 771.861 2.57974 7.76783 0
M  V30 7625 N 774.524 -1.57472 -0.0634922 0
M  V30 7626 C 775.77 -1.88792 -0.756903 0
M  V30 7627 C 776.125 -0.804679 -1.74765 0
M  V30 7628 O 775.418 0.19033 -1.90652 0
M  V30 7629 C 775.612 -3.24521 -1.49736 0
M  V30 7630 C 775.441 -4.45946 -0.579833 0
M  V30 7631 C 774.211 -5.04848 -0.213667 0
M  V30 7632 C 776.409 -5.14143 0.12703 0
M  V30 7633 N 774.391 -6.09795 0.708712 0
M  V30 7634 C 775.762 -6.1334 0.906295 0
M  V30 7635 C 777.817 -4.97508 0.197625 0
M  V30 7636 C 776.52 -6.97697 1.74961 0
M  V30 7637 C 778.546 -5.82398 1.02794 0
M  V30 7638 C 777.908 -6.81139 1.79523 0
M  V30 7639 H 774.007 -0.740235 -0.252142 0
M  V30 7640 H 776.591 -1.94692 -0.0181026 0
M  V30 7641 H 774.762 -3.19615 -2.20683 0
M  V30 7642 H 776.494 -3.43464 -2.14044 0
M  V30 7643 H 773.249 -4.70177 -0.568357 0
M  V30 7644 H 773.673 -6.66929 1.16339 0
M  V30 7645 H 778.315 -4.21077 -0.381261 0
M  V30 7646 H 776.033 -7.73496 2.33943 0
M  V30 7647 H 779.619 -5.71581 1.08565 0
M  V30 7648 H 778.499 -7.45687 2.42736 0
M  V30 7649 N 776.003 0.335068 -1.53997 0
M  V30 7650 C 777.233 1.0926 -1.75345 0
M  V30 7651 C 777.641 1.82568 -0.496545 0
M  V30 7652 O 776.984 1.75525 0.541897 0
M  V30 7653 C 777.046 2.14473 -2.88516 0
M  V30 7654 C 776.71 1.60665 -4.27827 0
M  V30 7655 C 777.707 1.05448 -5.09094 0
M  V30 7656 C 775.392 1.65255 -4.74337 0
M  V30 7657 C 777.386 0.555372 -6.34976 0
M  V30 7658 C 775.073 1.14956 -6.0019 0
M  V30 7659 C 776.071 0.601907 -6.80343 0
M  V30 7660 O 775.759 0.106445 -8.0383 0
M  V30 7661 H 775.491 0.331329 -0.589234 0
M  V30 7662 H 778.045 0.39042 -2.01655 0
M  V30 7663 H 776.275 2.88274 -2.5775 0
M  V30 7664 H 777.964 2.75857 -2.97755 0
M  V30 7665 H 778.73 1.01218 -4.74321 0
M  V30 7666 H 774.609 2.06822 -4.12002 0
M  V30 7667 H 778.153 0.127245 -6.97484 0
M  V30 7668 H 774.05 1.18891 -6.34457 0
M  V30 7669 H 774.818 0.222944 -8.18196 0
M  V30 7670 N 777.481 1.45874 0.596531 0
M  V30 7671 C 778.391 1.57947 1.73464 0
M  V30 7672 C 779.407 0.463461 1.67714 0
M  V30 7673 O 780.583 0.725685 1.87872 0
M  V30 7674 C 777.648 1.55348 3.09948 0
M  V30 7675 C 776.709 2.78074 3.27068 0
M  V30 7676 C 775.942 2.75589 4.57041 0
M  V30 7677 O 776.165 1.83545 5.40063 0
M  V30 7678 O 775.099 3.66945 4.77111 0
M  V30 7679 H 778.925 2.54169 1.66228 0
M  V30 7680 H 776.51 1.2851 0.76194 0
M  V30 7681 H 778.392 1.56545 3.91244 0
M  V30 7682 H 777.067 0.622811 3.17652 0
M  V30 7683 H 775.974 2.82435 2.45319 0
M  V30 7684 H 777.307 3.70303 3.24248 0
M  V30 7685 N 778.959 -0.83999 1.33349 0
M  V30 7686 C 779.922 -1.93128 1.23426 0
M  V30 7687 C 780.922 -1.60065 0.153599 0
M  V30 7688 O 782.112 -1.69425 0.405049 0
M  V30 7689 C 779.244 -3.28761 0.901622 0
M  V30 7690 H 780.437 -2.03352 2.20427 0
M  V30 7691 H 777.99 -1.03194 1.17391 0
M  V30 7692 H 778.725 -3.24233 -0.0659337 0
M  V30 7693 H 778.51 -3.54138 1.68311 0
M  V30 7694 H 780 -4.08714 0.856913 0
M  V30 7695 N 780.437 -1.16799 -1.0581 0
M  V30 7696 C 781.667 -0.975454 -1.82122 0
M  V30 7697 C 782.075 0.479584 -1.83021 0
M  V30 7698 O 781.418 1.34471 -1.25153 0
M  V30 7699 C 781.48 -1.43209 -3.29744 0
M  V30 7700 C 781.144 -2.908 -3.5254 0
M  V30 7701 C 782.141 -3.88775 -3.45181 0
M  V30 7702 C 779.826 -3.28832 -3.79703 0
M  V30 7703 C 781.82 -5.22782 -3.64661 0
M  V30 7704 C 779.507 -4.63007 -3.98832 0
M  V30 7705 C 780.505 -5.59791 -3.91309 0
M  V30 7706 O 780.193 -6.9154 -4.09911 0
M  V30 7707 H 779.925 -0.345655 -0.580947 0
M  V30 7708 H 782.479 -1.55355 -1.34365 0
M  V30 7709 H 780.709 -0.797504 -3.78387 0
M  V30 7710 H 782.398 -1.2062 -3.87564 0
M  V30 7711 H 783.164 -3.60738 -3.2418 0
M  V30 7712 H 779.043 -2.54073 -3.84666 0
M  V30 7713 H 782.587 -5.98312 -3.58705 0
M  V30 7714 H 778.484 -4.90752 -4.19324 0
M  V30 7715 H 779.252 -6.98188 -4.27172 0
M  V30 7716 N 781.915 1.24427 -0.967243 0
M  V30 7717 C 782.863 2.27403 -0.488927 0
M  V30 7718 C 783.857 1.63388 0.447302 0
M  V30 7719 O 785.063 1.77085 0.322643 0
M  V30 7720 H 781.438 0.738921 -0.139643 0
M  V30 7721 H 783.409 2.65122 -1.36942 0
M  V30 7722 C 782.158 3.4709 0.205787 0
M  V30 7723 H 781.481 3.96591 -0.50551 0
M  V30 7724 H 782.921 4.2099 0.504296 0
M  V30 7725 C 781.38 3.04923 1.43261 0
M  V30 7726 O 781.91 3.12043 2.52967 0
M  V30 7727 N 780.116 2.59976 1.29849 0
M  V30 7728 H 779.663 2.54382 0.405876 0
M  V30 7729 H 779.621 2.32128 2.12047 0
M  V30 7730 N 783.393 0.737304 1.3929 0
M  V30 7731 C 784.326 0.0475454 2.2815 0
M  V30 7732 C 785.304 -0.745314 1.44512 0
M  V30 7733 O 786.488 -0.727387 1.739 0
M  V30 7734 C 783.615 -0.939803 3.254 0
M  V30 7735 C 782.661 -0.235153 4.25851 0
M  V30 7736 S 783.494 1.05252 5.25055 0
M  V30 7737 C 784.65 0.0678242 6.25863 0
M  V30 7738 H 784.883 0.801117 2.86303 0
M  V30 7739 H 782.416 0.529197 1.45048 0
M  V30 7740 H 784.374 -1.50417 3.81949 0
M  V30 7741 H 783.035 -1.66623 2.66262 0
M  V30 7742 H 782.228 -0.982336 4.94334 0
M  V30 7743 H 781.83 0.257245 3.73114 0
M  V30 7744 H 784.122 -0.771779 6.7309 0
M  V30 7745 H 785.065 0.719858 7.04431 0
M  V30 7746 H 785.473 -0.305604 5.63672 0
M  V30 7747 N 784.871 -1.49948 0.485112 0
M  V30 7748 C 786.287 -1.58984 0.140096 0
M  V30 7749 C 786.487 -1.49194 -1.35438 0
M  V30 7750 O 785.543 -1.35765 -2.12894 0
M  V30 7751 C 786.856 -2.92372 0.702769 0
M  V30 7752 C 788.404 -3.05801 0.66745 0
M  V30 7753 C 788.879 -4.41785 1.20791 0
M  V30 7754 N 790.37 -4.48234 1.16792 0
M  V30 7755 C 791.105 -5.51871 1.55646 0
M  V30 7756 N 790.601 -6.62692 2.02016 0
M  V30 7757 N 792.394 -5.42494 1.47161 0
M  V30 7758 H 784.545 -1.54555 1.45693 0
M  V30 7759 H 786.808 -0.731206 0.603359 0
M  V30 7760 H 786.514 -3.05056 1.75025 0
M  V30 7761 H 786.388 -3.76885 0.154205 0
M  V30 7762 H 788.775 -2.92757 -0.371157 0
M  V30 7763 H 788.856 -2.23011 1.25298 0
M  V30 7764 H 788.5 -4.55579 2.24522 0
M  V30 7765 H 788.43 -5.23188 0.598464 0
M  V30 7766 H 790.921 -3.68718 0.827982 0
M  V30 7767 H 791.234 -7.3785 2.29775 0
M  V30 7768 H 789.579 -6.63775 2.05979 0
M  V30 7769 H 792.77 -4.54806 1.10765 0
M  V30 7770 H 792.943 -6.2314 1.77766 0
M  V30 7771 N 786.349 -0.21828 -1.56081 0
M  V30 7772 C 787.577 0.419258 -2.02608 0
M  V30 7773 C 787.992 1.53578 -1.09814 0
M  V30 7774 O 787.349 1.82185 -0.107149 0
M  V30 7775 C 787.4 0.953955 -3.48686 0
M  V30 7776 O 787.121 -0.11805 -4.37941 0
M  V30 7777 C 788.622 1.66506 -4.10841 0
M  V30 7778 H 785.842 0.10296 -0.663054 0
M  V30 7779 H 788.386 -0.333776 -2.01758 0
M  V30 7780 H 786.541 1.65727 -3.50162 0
M  V30 7781 H 786.955 0.283359 -5.23734 0
M  V30 7782 H 788.429 1.99123 -5.14834 0
M  V30 7783 H 788.906 2.57705 -3.55647 0
M  V30 7784 H 789.512 1.00703 -4.13206 0
M  V30 7785 N 787.827 1.57504 0.0551401 0
M  V30 7786 C 789.075 1.87684 0.74962 0
M  V30 7787 C 789.396 0.812547 1.77264 0
M  V30 7788 O 788.666 -0.15694 1.9527 0
M  V30 7789 H 787.246 0.6926 0.279846 0
M  V30 7790 H 789.908 1.94881 0.0272745 0
M  V30 7791 H 789.004 2.85734 1.25548 0
M  V30 7792 N 789.305 -0.326896 1.54172 0
M  V30 7793 C 790.268 -1.38515 1.8261 0
M  V30 7794 C 791.268 -1.44872 0.697771 0
M  V30 7795 O 792.458 -1.44957 0.966078 0
M  V30 7796 C 789.59 -2.77281 1.98313 0
M  V30 7797 H 790.783 -1.14556 2.77159 0
M  V30 7798 H 788.336 -0.562199 1.45839 0
M  V30 7799 H 789.071 -3.065 1.05964 0
M  V30 7800 H 788.856 -2.74061 2.80416 0
M  V30 7801 H 790.346 -3.53845 2.21773 0
M  V30 7802 N 790.784 -1.46188 -0.588786 0
M  V30 7803 C 792.2 -1.31009 -0.911524 0
M  V30 7804 C 792.4 -0.277017 -1.99587 0
M  V30 7805 O 791.456 0.322532 -2.50432 0
M  V30 7806 C 792.769 -2.69459 -1.33463 0
M  V30 7807 C 794.317 -2.77502 -1.44782 0
M  V30 7808 C 794.792 -4.1652 -1.90461 0
M  V30 7809 N 796.283 -4.18907 -1.97665 0
M  V30 7810 C 797.018 -5.23359 -2.34271 0
M  V30 7811 N 796.514 -6.38143 -2.69714 0
M  V30 7812 N 798.307 -5.10723 -2.34774 0
M  V30 7813 H 790.458 -2.12016 0.127614 0
M  V30 7814 H 792.721 -0.947984 -0.00557599 0
M  V30 7815 H 792.427 -3.46336 -0.611929 0
M  V30 7816 H 792.301 -2.99165 -2.2974 0
M  V30 7817 H 794.688 -2.00917 -2.1614 0
M  V30 7818 H 794.769 -2.51488 -0.467724 0
M  V30 7819 H 794.413 -4.93597 -1.19684 0
M  V30 7820 H 794.343 -4.39937 -2.89418 0
M  V30 7821 H 796.834 -3.36084 -1.72789 0
M  V30 7822 H 797.147 -7.13624 -2.96582 0
M  V30 7823 H 795.492 -6.41514 -2.67366 0
M  V30 7824 H 798.683 -4.20088 -2.06503 0
M  V30 7825 H 798.856 -5.9224 -2.62975 0
M  V30 7826 N 792.262 0.832906 -1.33792 0
M  V30 7827 C 793.51 1.58539 -1.25338 0
M  V30 7828 C 793.831 1.94175 0.179204 0
M  V30 7829 O 793.101 1.61458 1.10941 0
M  V30 7830 H 791.681 0.58784 -0.460926 0
M  V30 7831 H 794.343 0.995064 -1.67584 0
M  V30 7832 H 793.439 2.51268 -1.85123 0
M  V30 7833 N 793.74 1.17359 1.05189 0
M  V30 7834 C 794.986 0.963413 1.78455 0
M  V30 7835 C 795.319 -0.506703 1.87473 0
M  V30 7836 O 794.594 -1.37611 1.37453 0
M  V30 7837 C 794.877 1.60519 3.22344 0
M  V30 7838 C 794.73 3.14741 3.21338 0
M  V30 7839 C 796.049 1.3091 4.20179 0
M  V30 7840 H 793.168 0.351412 0.647826 0
M  V30 7841 H 795.81 1.44858 1.22948 0
M  V30 7842 H 793.96 1.19265 3.69741 0
M  V30 7843 H 795.632 3.65053 2.82017 0
M  V30 7844 H 793.875 3.4749 2.59679 0
M  V30 7845 H 794.546 3.54775 4.22894 0
M  V30 7846 H 797.022 1.66635 3.81277 0
M  V30 7847 H 795.898 1.784 5.191 0
M  V30 7848 H 796.159 0.229908 4.41502 0
M  V30 7849 N 795.218 -1.23913 0.973828 0
M  V30 7850 C 796.465 -1.92151 0.639079 0
M  V30 7851 C 796.793 -1.76064 -0.826545 0
M  V30 7852 O 796.048 -1.11126 -1.61088 0
M  V30 7853 C 796.347 -3.4406 0.967356 0
M  V30 7854 C 796.013 -3.80321 2.42212 0
M  V30 7855 C 794.675 -3.8993 2.81971 0
M  V30 7856 C 797.027 -3.97935 3.36596 0
M  V30 7857 C 794.355 -4.14575 4.15144 0
M  V30 7858 C 796.707 -4.24079 4.69404 0
M  V30 7859 C 795.371 -4.31908 5.08932 0
M  V30 7860 H 794.641 -0.70313 0.233856 0
M  V30 7861 H 797.288 -1.47072 1.22646 0
M  V30 7862 H 795.593 -3.90667 0.297807 0
M  V30 7863 H 797.29 -3.95077 0.686654 0
M  V30 7864 H 793.88 -3.73411 2.10385 0
M  V30 7865 H 798.064 -3.89908 3.07059 0
M  V30 7866 H 793.32 -4.18858 4.45385 0
M  V30 7867 H 797.494 -4.36652 5.42502 0
M  V30 7868 H 795.121 -4.50758 6.12145 0
M  V30 7869 N 796.696 -0.74468 -1.38897 0
M  V30 7870 C 798.107 -0.36568 -1.83084 0
M  V30 7871 C 798.458 1.10436 -1.62168 0
M  V30 7872 O 797.583 1.85281 -1.11804 0
M  V30 7873 C 798.178 -0.656946 -3.3237 0
M  V30 7874 C 796.737 -0.331329 -3.74939 0
M  V30 7875 C 795.884 -0.914661 -2.61781 0
M  V30 7876 H 798.835 -0.941551 -1.27752 0
M  V30 7877 H 798.856 0.0679546 -3.80439 0
M  V30 7878 H 798.368 -1.72693 -3.47561 0
M  V30 7879 H 796.469 0.732426 -3.6533 0
M  V30 7880 H 796.582 -0.820655 -4.72019 0
M  V30 7881 H 794.946 -0.34063 -2.52412 0
M  V30 7882 H 795.729 -1.98949 -2.79775 0
M  V30 7883 N 798.174 1.49689 -0.493057 0
M  V30 7884 C 799.137 2.27502 0.278485 0
M  V30 7885 C 800.137 1.33184 0.901037 0
M  V30 7886 O 801.327 1.56415 0.766801 0
M  V30 7887 C 798.459 3.10881 1.39878 0
M  V30 7888 H 799.652 2.97163 -0.404219 0
M  V30 7889 H 797.205 1.54324 -0.247774 0
M  V30 7890 H 797.94 2.45767 2.11587 0
M  V30 7891 H 797.725 3.80219 0.957924 0
M  V30 7892 H 799.215 3.69673 1.94247 0
M  V30 7893 N 799.652 0.226554 1.55963 0
M  V30 7894 C 800.882 -0.407915 2.02533 0
M  V30 7895 C 801.29 -1.53539 1.10554 0
M  V30 7896 O 800.633 -1.8338 0.108409 0
M  V30 7897 C 800.695 -0.996081 3.45425 0
M  V30 7898 C 800.359 -0.00341651 4.57 0
M  V30 7899 C 801.356 0.798782 5.13727 0
M  V30 7900 C 799.041 0.116786 5.02164 0
M  V30 7901 C 801.035 1.70784 6.14094 0
M  V30 7902 C 798.722 1.02937 6.02368 0
M  V30 7903 C 799.72 1.82344 6.5821 0
M  V30 7904 O 799.408 2.72067 7.56462 0
M  V30 7905 H 799.14 -0.103524 0.668026 0
M  V30 7906 H 801.694 0.341937 2.02534 0
M  V30 7907 H 799.924 -1.79512 3.42509 0
M  V30 7908 H 801.613 -1.53848 3.75614 0
M  V30 7909 H 802.379 0.716393 4.7968 0
M  V30 7910 H 798.258 -0.491172 4.58376 0
M  V30 7911 H 801.802 2.32807 6.57607 0
M  V30 7912 H 797.699 1.11276 6.35836 0
M  V30 7913 H 798.467 2.66199 7.74003 0
M  V30 7914 N 801.13 -1.57531 -0.0467866 0
M  V30 7915 C 802.36 -1.92417 -0.752279 0
M  V30 7916 C 802.768 -0.823134 -1.70356 0
M  V30 7917 O 802.111 0.210598 -1.82489 0
M  V30 7918 C 802.173 -3.22974 -1.57887 0
M  V30 7919 C 801.837 -4.50045 -0.794285 0
M  V30 7920 C 802.834 -5.19799 -0.102368 0
M  V30 7921 C 800.519 -4.96608 -0.754061 0
M  V30 7922 C 802.513 -6.34385 0.619267 0
M  V30 7923 C 800.2 -6.11093 -0.0286682 0
M  V30 7924 C 801.198 -6.79835 0.656772 0
M  V30 7925 O 800.886 -7.92133 1.37042 0
M  V30 7926 H 800.618 -0.640029 -0.217576 0
M  V30 7927 H 803.172 -2.05395 -0.0137438 0
M  V30 7928 H 801.402 -3.06273 -2.3608 0
M  V30 7929 H 803.091 -3.43319 -2.16533 0
M  V30 7930 H 803.857 -4.8484 -0.124589 0
M  V30 7931 H 799.736 -4.42958 -1.27706 0
M  V30 7932 H 803.28 -6.87975 1.15483 0
M  V30 7933 H 799.177 -6.455 -0.00446214 0
M  V30 7934 H 799.945 -8.08394 1.28227 0
M  V30 7935 N 802.608 0.318715 -1.54344 0
M  V30 7936 C 803.571 1.37545 -1.83342 0
M  V30 7937 C 804.571 1.445 -0.705444 0
M  V30 7938 O 805.761 1.44443 -0.973752 0
M  V30 7939 C 802.893 2.76225 -1.99781 0
M  V30 7940 H 804.086 1.13084 -2.77762 0
M  V30 7941 H 801.639 0.554457 -1.46135 0
M  V30 7942 H 802.374 3.05934 -1.07588 0
M  V30 7943 H 802.159 2.7257 -2.81865 0
M  V30 7944 H 803.649 3.52664 -2.23647 0
M  V30 7945 N 804.086 1.46499 0.581025 0
M  V30 7946 C 805.335 1.51162 1.3354 0
M  V30 7947 C 805.648 0.168433 1.94873 0
M  V30 7948 O 806.854 0.092883 2.71341 0
M  V30 7949 C 805.31 2.66362 2.42032 0
M  V30 7950 C 804.918 4.07109 1.86994 0
M  V30 7951 C 806.662 2.80297 3.188 0
M  V30 7952 C 804.569 5.13645 2.93125 0
M  V30 7953 H 803.499 0.562576 0.502021 0
M  V30 7954 H 806.15 1.72713 0.619863 0
M  V30 7955 H 804.532 2.38143 3.16392 0
M  V30 7956 H 805.706 4.45125 1.19166 0
M  V30 7957 H 804.021 3.97854 1.22887 0
M  V30 7958 H 806.618 3.5706 3.9801 0
M  V30 7959 H 806.961 1.87875 3.71495 0
M  V30 7960 H 807.494 3.0817 2.51547 0
M  V30 7961 H 804.233 6.07866 2.45315 0
M  V30 7962 H 803.753 4.80172 3.59437 0
M  V30 7963 H 805.432 5.39562 3.57046 0
M  V30 7964 N 805.565 -0.825799 1.34232 0
M  V30 7965 C 806.475 -1.9684 1.27638 0
M  V30 7966 C 807.491 -1.73018 0.184569 0
M  V30 7967 O 808.667 -1.97172 0.410525 0
M  V30 7968 C 805.732 -3.31084 1.02879 0
M  V30 7969 C 804.793 -3.67933 2.21188 0
M  V30 7970 C 804.026 -4.95772 1.976 0
M  V30 7971 O 804.249 -5.62721 0.93281 0
M  V30 7972 O 803.183 -5.30431 2.84477 0
M  V30 7973 H 807.009 -2.05346 2.23756 0
M  V30 7974 H 804.594 -0.960772 1.1441 0
M  V30 7975 H 806.476 -4.11492 0.908406 0
M  V30 7976 H 805.151 -3.23552 0.0979821 0
M  V30 7977 H 804.058 -2.87981 2.38784 0
M  V30 7978 H 805.391 -3.80147 3.12648 0
M  V30 7979 N 807.043 -1.17915 -1.04565 0
M  V30 7980 C 808.289 -0.972863 -1.77942 0
M  V30 7981 C 808.622 0.496753 -1.87739 0
M  V30 7982 O 807.897 1.3688 -1.38181 0
M  V30 7983 C 808.18 -1.62227 -3.21488 0
M  V30 7984 C 808.033 -3.16441 -3.19664 0
M  V30 7985 C 809.352 -1.33137 -4.19479 0
M  V30 7986 H 806.471 -0.354843 -0.645953 0
M  V30 7987 H 809.113 -1.45508 -1.22178 0
M  V30 7988 H 807.263 -1.21224 -3.69103 0
M  V30 7989 H 808.935 -3.66544 -2.80077 0
M  V30 7990 H 807.178 -3.48863 -2.57832 0
M  V30 7991 H 807.849 -3.57012 -4.21006 0
M  V30 7992 H 810.325 -1.68654 -3.80388 0
M  V30 7993 H 809.201 -1.81151 -5.18146 0
M  V30 7994 H 809.462 -0.253319 -4.41374 0
M  V30 7995 N 808.521 1.23394 -0.980386 0
M  V30 7996 C 809.749 1.95844 -0.667286 0
M  V30 7997 C 810.164 1.72574 0.765735 0
M  V30 7998 O 809.521 1.01715 1.51526 0
M  V30 7999 C 809.572 3.48844 -0.948151 0
M  V30 8000 O 809.293 3.71325 -2.32485 0
M  V30 8001 C 810.794 4.38494 -0.651002 0
M  V30 8002 H 808.014 0.623535 -0.247882 0
M  V30 8003 H 810.558 1.56885 -1.31176 0
M  V30 8004 H 808.713 3.85819 -0.349681 0
M  V30 8005 H 809.127 4.65619 -2.41452 0
M  V30 8006 H 810.601 5.44648 -0.897887 0
M  V30 8007 H 811.078 4.37236 0.414922 0
M  V30 8008 H 811.684 4.07127 -1.22995 0
M  V30 8009 N 809.999 0.752036 1.385 0
M  V30 8010 C 810.946 0.123288 2.3047 0
M  V30 8011 C 811.916 -0.711326 1.50098 0
M  V30 8012 O 813.101 -0.667775 1.78733 0
M  V30 8013 C 810.241 -0.765085 3.36512 0
M  V30 8014 C 809.354 0.0839885 4.31918 0
M  V30 8015 C 808.489 -0.807243 5.25031 0
M  V30 8016 C 807.528 0.0455583 6.12083 0
M  V30 8017 N 806.665 -0.802547 6.97498 0
M  V30 8018 H 811.505 0.913169 2.83664 0
M  V30 8019 H 809.042 0.46195 1.39658 0
M  V30 8020 H 811 -1.29476 3.966 0
M  V30 8021 H 809.63 -1.52077 2.84732 0
M  V30 8022 H 808.682 0.731276 3.73305 0
M  V30 8023 H 809.994 0.74265 4.9324 0
M  V30 8024 H 809.148 -1.40414 5.90228 0
M  V30 8025 H 807.887 -1.49964 4.64071 0
M  V30 8026 H 806.892 0.655137 5.45883 0
M  V30 8027 H 808.117 0.734994 6.75111 0
M  V30 8028 H 806.063 -1.47992 6.39089 0
M  V30 8029 H 805.98 -0.200747 7.55733 0
M  V30 8030 H 807.248 -1.38447 7.67107 0
M  V30 8031 N 811.477 -1.49425 0.500989 0
M  V30 8032 C 812.387 -2.32899 -0.282011 0
M  V30 8033 C 813.403 -1.44632 -0.967346 0
M  V30 8034 O 814.579 -1.77654 -0.94873 0
M  V30 8035 C 811.644 -3.20069 -1.33253 0
M  V30 8036 C 810.705 -4.24186 -0.660636 0
M  V30 8037 C 809.938 -5.07191 -1.6611 0
M  V30 8038 O 810.161 -4.91712 -2.89094 0
M  V30 8039 O 809.095 -5.8948 -1.21643 0
M  V30 8040 H 812.921 -3.01038 0.401224 0
M  V30 8041 H 810.506 -1.47079 0.262323 0
M  V30 8042 H 812.388 -3.74071 -1.94033 0
M  V30 8043 H 811.063 -2.54625 -1.9987 0
M  V30 8044 H 809.97 -3.74098 -0.0130959 0
M  V30 8045 H 811.303 -4.92186 -0.0369179 0
M  V30 8046 N 812.955 -0.234822 -1.55841 0
M  V30 8047 C 814.366 0.270588 -1.84729 0
M  V30 8048 C 814.717 1.58494 -1.15646 0
M  V30 8049 O 813.842 2.12071 -0.430667 0
M  V30 8050 C 814.437 0.497733 -3.35124 0
M  V30 8051 C 812.996 0.947428 -3.64281 0
M  V30 8052 C 812.143 0.01787 -2.77294 0
M  V30 8053 H 815.094 -0.457691 -1.51957 0
M  V30 8054 H 815.115 1.34199 -3.56049 0
M  V30 8055 H 814.627 -0.459037 -3.85376 0
M  V30 8056 H 812.728 1.91709 -3.19497 0
M  V30 8057 H 812.841 0.812651 -4.72158 0
M  V30 8058 H 811.205 0.527071 -2.49187 0
M  V30 8059 H 811.988 -0.934056 -3.30349 0
M  V30 8060 N 814.433 1.57553 0.0384317 0
M  V30 8061 C 815.343 2.09333 1.0591 0
M  V30 8062 C 816.359 1.0299 1.40247 0
M  V30 8063 O 817.535 1.34669 1.49754 0
M  V30 8064 C 814.6 2.55468 2.34386 0
M  V30 8065 C 813.661 3.76254 2.06716 0
M  V30 8066 C 812.894 4.20179 3.29067 0
M  V30 8067 O 813.117 3.637 4.39407 0
M  V30 8068 O 812.051 5.12697 3.15317 0
M  V30 8069 H 815.877 2.96683 0.649087 0
M  V30 8070 H 813.462 1.47211 0.254802 0
M  V30 8071 H 815.344 2.85514 3.09935 0
M  V30 8072 H 814.019 1.71234 2.74701 0
M  V30 8073 H 812.926 3.51241 1.28766 0
M  V30 8074 H 814.259 4.61443 1.71263 0
M  V30 8075 N 815.911 -0.310526 1.54511 0
M  V30 8076 C 816.861 -1.38405 1.81185 0
M  V30 8077 C 817.845 -1.46355 0.668499 0
M  V30 8078 O 819.037 -1.50668 0.928873 0
M  V30 8079 C 816.166 -2.75059 2.0542 0
M  V30 8080 C 815.252 -2.7137 3.25913 0
M  V30 8081 N 815.643 -2.37298 4.4668 0
M  V30 8082 C 813.941 -3.02484 3.27749 0
M  V30 8083 C 814.642 -2.42669 5.28665 0
M  V30 8084 N 813.618 -2.79639 4.66158 0
M  V30 8085 H 817.42 -1.11012 2.72128 0
M  V30 8086 H 814.934 -0.519068 1.53881 0
M  V30 8087 H 816.931 -3.52451 2.22674 0
M  V30 8088 H 815.591 -3.03372 1.15739 0
M  V30 8089 H 816.602 -2.09917 4.73451 0
M  V30 8090 H 813.279 -3.35754 2.48144 0
M  V30 8091 H 814.669 -2.19206 6.35136 0
M  V30 8092 N 817.389 -1.46805 -0.573248 0
M  V30 8093 C 818.322 -1.52608 -1.69665 0
M  V30 8094 C 819.3 -0.379426 -1.58111 0
M  V30 8095 O 820.484 -0.584938 -1.79195 0
M  V30 8096 C 817.611 -1.41355 -3.07793 0
M  V30 8097 C 816.657 -2.60321 -3.37839 0
M  V30 8098 S 817.49 -4.22622 -3.28863 0
M  V30 8099 C 818.646 -4.13894 -4.69513 0
M  V30 8100 H 818.879 -2.47653 -1.64485 0
M  V30 8101 H 816.412 -1.34806 -0.752769 0
M  V30 8102 H 818.37 -1.35549 -3.87475 0
M  V30 8103 H 817.031 -0.477213 -3.10454 0
M  V30 8104 H 816.224 -2.48466 -4.38498 0
M  V30 8105 H 815.826 -2.63165 -2.65745 0
M  V30 8106 H 818.118 -3.81158 -5.60111 0
M  V30 8107 H 819.061 -5.14584 -4.86425 0
M  V30 8108 H 819.469 -3.44998 -4.46807 0
M  V30 8109 N 818.867 0.818669 -1.34668 0
M  V30 8110 C 819.83 1.9114 -1.26483 0
M  V30 8111 C 820.83 1.598 -0.179044 0
M  V30 8112 O 822.02 1.6876 -0.431952 0
M  V30 8113 C 819.152 3.27285 -0.95381 0
M  V30 8114 H 820.345 1.9982 -2.23634 0
M  V30 8115 H 817.898 1.01314 -1.19018 0
M  V30 8116 H 818.633 3.24297 0.0143428 0
M  V30 8117 H 818.418 3.51416 -1.73924 0
M  V30 8118 H 819.908 4.07299 -0.921827 0
M  V30 8119 N 820.346 1.18468 1.03938 0
M  V30 8120 C 821.309 0.914944 2.10146 0
M  V30 8121 C 822.309 -0.10022 1.60487 0
M  V30 8122 O 823.499 0.133365 1.73689 0
M  V30 8123 C 820.631 0.372993 3.38853 0
M  V30 8124 H 821.824 1.85677 2.35508 0
M  V30 8125 H 819.377 0.996876 1.20383 0
M  V30 8126 H 820.112 -0.57538 3.19155 0
M  V30 8127 H 819.897 1.1048 3.76213 0
M  V30 8128 H 821.387 0.203014 4.17106 0
M  V30 8129 N 821.824 -1.22873 0.986916 0
M  V30 8130 C 822.754 -2.2688 0.552064 0
M  V30 8131 C 823.735 -1.64883 -0.418048 0
M  V30 8132 O 824.92 -1.9171 -0.30999 0
M  V30 8133 C 822.05 -3.47018 -0.139959 0
M  V30 8134 C 821.004 -4.21411 0.748091 0
M  V30 8135 C 820.33 -5.34645 -0.0765132 0
M  V30 8136 C 821.63 -4.80726 2.04206 0
M  V30 8137 H 823.324 -2.63507 1.42143 0
M  V30 8138 H 820.87 -1.26668 0.68492 0
M  V30 8139 H 822.823 -4.18931 -0.455527 0
M  V30 8140 H 821.547 -3.0947 -1.04382 0
M  V30 8141 H 820.206 -3.51325 1.04721 0
M  V30 8142 H 819.854 -4.93339 -0.981109 0
M  V30 8143 H 819.554 -5.85342 0.514606 0
M  V30 8144 H 821.078 -6.09377 -0.386313 0
M  V30 8145 H 822.492 -5.44612 1.79083 0
M  V30 8146 H 820.889 -5.41737 2.5815 0
M  V30 8147 H 821.959 -4.01109 2.72469 0
M  V30 8148 N 823.302 -0.75937 -1.38099 0
M  V30 8149 C 824.265 -0.14372 -2.28749 0
M  V30 8150 C 825.265 0.641338 -1.47457 0
M  V30 8151 O 826.455 0.466751 -1.67831 0
M  V30 8152 C 823.587 0.804545 -3.3127 0
M  V30 8153 H 824.78 -0.942663 -2.847 0
M  V30 8154 H 822.333 -0.526757 -1.47156 0
M  V30 8155 H 823.068 1.62895 -2.80421 0
M  V30 8156 H 822.853 0.243939 -3.9134 0
M  V30 8157 H 824.343 1.23111 -3.99041 0
M  V30 8158 N 824.78 1.49157 -0.508906 0
M  V30 8159 C 825.727 2.2927 0.265288 0
M  V30 8160 C 826.697 1.3603 0.953162 0
M  V30 8161 O 827.882 1.64989 0.958291 0
M  V30 8162 C 825.022 3.18897 1.31904 0
M  V30 8163 C 824.135 4.27201 0.642144 0
M  V30 8164 C 823.27 5.04033 1.67701 0
M  V30 8165 C 822.309 6.04165 0.982422 0
M  V30 8166 N 821.446 6.74133 1.96186 0
M  V30 8167 H 826.286 2.94967 -0.424107 0
M  V30 8168 H 823.823 1.45431 -0.220991 0
M  V30 8169 H 825.781 3.69242 1.94206 0
M  V30 8170 H 824.411 2.55168 1.97709 0
M  V30 8171 H 823.463 3.80283 -0.0943395 0
M  V30 8172 H 824.775 4.98708 0.0957507 0
M  V30 8173 H 823.929 5.58287 2.37487 0
M  V30 8174 H 822.668 4.32317 2.25728 0
M  V30 8175 H 821.673 5.49135 0.270378 0
M  V30 8176 H 822.898 6.7787 0.408554 0
M  V30 8177 H 820.844 6.05183 2.53159 0
M  V30 8178 H 820.761 7.41643 1.46634 0
M  V30 8179 H 822.029 7.32987 2.65236 0
M  V30 8180 N 826.258 0.243083 1.55714 0
M  V30 8181 C 827.206 -0.674349 2.2261 0
M  V30 8182 C 828.2 -1.18307 1.21243 0
M  V30 8183 O 829.406 -1.1404 1.39265 0
M  V30 8184 H 825.781 -0.235941 0.714028 0
M  V30 8185 H 827.752 -0.0869446 2.98273 0
M  V30 8186 C 826.501 -1.86206 2.93637 0
M  V30 8187 H 825.824 -1.47975 3.71407 0
M  V30 8188 H 827.264 -2.4813 3.43813 0
M  V30 8189 C 825.723 -2.73084 1.97298 0
M  V30 8190 O 826.253 -3.72497 1.50361 0
M  V30 8191 N 824.459 -2.39571 1.64482 0
M  V30 8192 H 824.006 -1.5878 2.02846 0
M  V30 8193 H 823.964 -2.97976 1.00288 0
M  V30 8194 N 827.736 -1.57571 -0.0300757 0
M  V30 8195 C 828.961 -1.93879 -0.736601 0
M  V30 8196 C 829.386 -0.842998 -1.68152 0
M  V30 8197 O 828.744 0.20135 -1.80178 0
M  V30 8198 C 828.792 -3.29247 -1.47066 0
M  V30 8199 O 827.896 -3.21426 -2.58378 0
M  V30 8200 H 827.237 -0.633735 -0.198181 0
M  V30 8201 H 829.767 -2.04595 0.0141485 0
M  V30 8202 H 829.777 -3.64113 -1.84081 0
M  V30 8203 H 828.452 -4.08565 -0.77764 0
M  V30 8204 H 827.029 -2.98189 -2.23914 0
M  V30 8205 N 829.214 0.302327 -1.54673 0
M  V30 8206 C 830.491 1.05721 -1.64567 0
M  V30 8207 C 830.871 2.0526 -0.493108 0
M  V30 8208 O 830.219 2.22729 0.510315 0
M  V30 8209 C 830.429 1.74025 -3.02517 0
M  V30 8210 C 831.777 2.26271 -3.59286 0
M  V30 8211 O 832.801 1.8406 -3.0496 0
M  V30 8212 O 831.66 3.0361 -4.54404 0
M  V30 8213 H 828.754 0.488577 -0.667249 0
M  V30 8214 H 831.3 0.300521 -1.67018 0
M  V30 8215 H 830.072 1.0174 -3.77842 0
M  V30 8216 H 829.695 2.56454 -3.03838 0
M  V30 8217 N 830.692 1.47107 0.565454 0
M  V30 8218 C 831.938 1.54519 1.3227 0
M  V30 8219 C 832.293 0.201313 1.91344 0
M  V30 8220 O 831.586 -0.792058 1.74462 0
M  V30 8221 C 831.78 2.59309 2.45954 0
M  V30 8222 C 831.609 4.03756 1.98019 0
M  V30 8223 C 830.379 4.71293 1.8224 0
M  V30 8224 C 832.577 4.91029 1.52955 0
M  V30 8225 N 830.559 6.00288 1.28557 0
M  V30 8226 C 831.93 6.09986 1.10981 0
M  V30 8227 C 833.985 4.77539 1.4093 0
M  V30 8228 C 832.688 7.16943 0.581796 0
M  V30 8229 C 834.714 5.84584 0.895307 0
M  V30 8230 C 834.076 7.02725 0.485454 0
M  V30 8231 H 830.175 0.620177 0.476345 0
M  V30 8232 H 832.759 1.83814 0.641901 0
M  V30 8233 H 830.93 2.31896 3.11575 0
M  V30 8234 H 832.662 2.56614 3.1294 0
M  V30 8235 H 829.417 4.27074 2.04707 0
M  V30 8236 H 829.841 6.68991 1.03828 0
M  V30 8237 H 834.483 3.86574 1.71231 0
M  V30 8238 H 832.201 8.07661 0.266399 0
M  V30 8239 H 835.787 5.76191 0.805939 0
M  V30 8240 H 834.667 7.84144 0.0938828 0
M  V30 8241 N 832.17 -0.811516 1.35101 0
M  V30 8242 C 833.416 -1.57068 1.28287 0
M  V30 8243 C 833.749 -1.93667 -0.143808 0
M  V30 8244 O 833.024 -1.60953 -1.09199 0
M  V30 8245 C 833.307 -2.86259 2.18466 0
M  V30 8246 C 833.16 -2.56168 3.69727 0
M  V30 8247 C 834.479 -3.87924 2.07852 0
M  V30 8248 H 831.598 -0.569869 0.467353 0
M  V30 8249 H 834.24 -0.934023 1.65457 0
M  V30 8250 H 832.39 -3.4059 1.86898 0
M  V30 8251 H 834.062 -2.08059 4.11715 0
M  V30 8252 H 832.305 -1.89436 3.90252 0
M  V30 8253 H 832.976 -3.48344 4.28206 0
M  V30 8254 H 835.452 -3.4298 2.35593 0
M  V30 8255 H 834.328 -4.76106 2.73157 0
M  V30 8256 H 834.589 -4.2923 1.05896 0
M  V30 8257 N 833.648 -1.19017 -1.03309 0
M  V30 8258 C 834.925 -0.899659 -1.73682 0
M  V30 8259 C 835.305 0.595677 -2.02521 0
M  V30 8260 O 834.653 1.55263 -1.67648 0
M  V30 8261 C 834.863 -1.75508 -3.01659 0
M  V30 8262 C 836.211 -1.98679 -3.75249 0
M  V30 8263 O 837.235 -1.72624 -3.11576 0
M  V30 8264 O 836.094 -2.42587 -4.89708 0
M  V30 8265 H 833.188 -0.334903 -0.756154 0
M  V30 8266 H 835.734 -1.29809 -1.09305 0
M  V30 8267 H 834.506 -2.7684 -2.76542 0
M  V30 8268 H 834.129 -1.35565 -3.73775 0
M  V30 8269 N 835.127 1.22348 -0.993418 0
M  V30 8270 C 836.059 2.23626 -0.502404 0
M  V30 8271 C 837.072 1.57739 0.402784 0
M  V30 8272 O 838.261 1.77321 0.204835 0
M  V30 8273 C 835.361 3.37647 0.291118 0
M  V30 8274 C 834.534 4.33121 -0.610332 0
M  V30 8275 C 833.593 5.26035 0.131572 0
M  V30 8276 O 832.619 5.67145 -0.483199 0
M  V30 8277 N 833.821 5.63023 1.41371 0
M  V30 8278 H 836.586 2.66385 -1.37329 0
M  V30 8279 H 834.147 1.36653 -0.868196 0
M  V30 8280 H 836.139 3.96792 0.796107 0
M  V30 8281 H 834.709 2.93967 1.0631 0
M  V30 8282 H 833.929 3.72287 -1.29598 0
M  V30 8283 H 835.217 4.93853 -1.22422 0
M  V30 8284 H 834.615 5.31596 1.93449 0
M  V30 8285 H 833.172 6.24582 1.86388 0
M  V30 8286 N 836.605 0.766683 1.37694 0
M  V30 8287 C 837.852 0.328714 1.99814 0
M  V30 8288 C 838.18 -1.09333 1.60862 0
M  V30 8289 O 837.435 -1.7657 0.8439 0
M  V30 8290 C 837.734 0.413831 3.54996 0
M  V30 8291 C 837.4 1.7934 4.137 0
M  V30 8292 C 836.062 2.17092 4.29447 0
M  V30 8293 C 838.414 2.69776 4.45949 0
M  V30 8294 C 835.742 3.44726 4.74743 0
M  V30 8295 C 838.094 3.96814 4.92667 0
M  V30 8296 C 836.758 4.34618 5.0662 0
M  V30 8297 H 836.028 0.120285 0.731172 0
M  V30 8298 H 838.675 0.97972 1.64541 0
M  V30 8299 H 836.98 -0.320723 3.90485 0
M  V30 8300 H 838.677 0.0563369 4.0096 0
M  V30 8301 H 835.267 1.48997 4.01868 0
M  V30 8302 H 839.451 2.41871 4.33373 0
M  V30 8303 H 834.707 3.73917 4.83731 0
M  V30 8304 H 838.881 4.67022 5.16588 0
M  V30 8305 H 836.508 5.33578 5.41478 0
M  V30 8306 N 838.083 -1.48885 0.516809 0
M  V30 8307 C 839.499 -1.58651 0.173788 0
M  V30 8308 C 839.699 -1.52033 -1.32243 0
M  V30 8309 O 838.755 -1.40251 -2.09967 0
M  V30 8310 C 840.068 -2.90816 0.764628 0
M  V30 8311 C 841.616 -3.04316 0.732164 0
M  V30 8312 C 842.091 -4.39123 1.30135 0
M  V30 8313 N 843.582 -4.45656 1.26273 0
M  V30 8314 C 844.317 -5.48446 1.67317 0
M  V30 8315 N 843.813 -6.58258 2.16028 0
M  V30 8316 N 845.606 -5.39251 1.58635 0
M  V30 8317 H 837.757 -1.5143 1.48939 0
M  V30 8318 H 840.02 -0.718243 0.618733 0
M  V30 8319 H 839.726 -3.01275 1.81456 0
M  V30 8320 H 839.6 -3.76473 0.234113 0
M  V30 8321 H 841.987 -2.93478 -0.308975 0
M  V30 8322 H 842.068 -2.20303 1.3 0
M  V30 8323 H 841.712 -4.50714 2.34135 0
M  V30 8324 H 841.642 -5.21801 0.709305 0
M  V30 8325 H 844.133 -3.66879 0.906006 0
M  V30 8326 H 844.446 -7.32811 2.45374 0
M  V30 8327 H 842.791 -6.59257 2.20013 0
M  V30 8328 H 845.982 -4.52354 1.20387 0
M  V30 8329 H 846.155 -6.19229 1.90944 0
M  V30 8330 N 839.561 -0.251338 -1.55583 0
M  V30 8331 C 840.807 0.37272 -1.99346 0
M  V30 8332 C 841.14 1.57266 -1.13934 0
M  V30 8333 O 840.415 1.9343 -0.20377 0
M  V30 8334 C 840.698 0.778245 -3.5159 0
M  V30 8335 C 840.551 -0.427394 -4.47765 0
M  V30 8336 C 841.87 1.62358 -4.09057 0
M  V30 8337 H 838.989 0.134002 -0.724715 0
M  V30 8338 H 841.631 -0.353536 -1.86682 0
M  V30 8339 H 839.781 1.39704 -3.62512 0
M  V30 8340 H 841.453 -1.06586 -4.48818 0
M  V30 8341 H 839.696 -1.06972 -4.20404 0
M  V30 8342 H 840.367 -0.10025 -5.51909 0
M  V30 8343 H 842.843 1.1012 -4.01264 0
M  V30 8344 H 841.719 1.87617 -5.1584 0
M  V30 8345 H 841.98 2.59688 -3.57791 0
M  V30 8346 N 841.039 1.57585 0.0217189 0
M  V30 8347 C 841.986 2.07036 1.02004 0
M  V30 8348 C 842.956 0.96106 1.35473 0
M  V30 8349 O 844.141 1.23211 1.45684 0
M  V30 8350 C 841.281 2.56056 2.31364 0
M  V30 8351 C 840.394 3.80805 2.03989 0
M  V30 8352 C 839.529 4.18409 3.27272 0
M  V30 8353 C 838.568 5.36055 2.95486 0
M  V30 8354 N 837.705 5.69056 4.11242 0
M  V30 8355 H 842.545 2.92073 0.591396 0
M  V30 8356 H 840.082 1.44403 0.280384 0
M  V30 8357 H 842.04 2.82548 3.06957 0
M  V30 8358 H 840.67 1.73925 2.71937 0
M  V30 8359 H 839.722 3.61354 1.1886 0
M  V30 8360 H 841.034 4.66512 1.76546 0
M  V30 8361 H 840.188 4.46068 4.11228 0
M  V30 8362 H 838.927 3.31369 3.57835 0
M  V30 8363 H 837.932 5.08142 2.09933 0
M  V30 8364 H 839.157 6.24755 2.66193 0
M  V30 8365 H 837.103 4.84974 4.41742 0
M  V30 8366 H 837.02 6.49288 3.87247 0
M  V30 8367 H 838.288 6.01295 4.96049 0
M  V30 8368 N 842.517 -0.29412 1.54831 0
M  V30 8369 C 843.764 -1.02846 1.74439 0
M  V30 8370 C 844.092 -1.87029 0.533905 0
M  V30 8371 O 843.347 -1.8962 -0.484035 0
M  V30 8372 C 843.646 -1.95782 2.99006 0
M  V30 8373 C 843.312 -1.2752 4.32492 0
M  V30 8374 C 841.974 -1.08637 4.68777 0
M  V30 8375 C 844.326 -0.787761 5.15212 0
M  V30 8376 C 841.654 -0.39704 5.85355 0
M  V30 8377 C 844.006 -0.112123 6.32501 0
M  V30 8378 C 842.67 0.0886071 6.67441 0
M  V30 8379 H 841.94 -0.376341 0.638317 0
M  V30 8380 H 844.587 -0.302684 1.89093 0
M  V30 8381 H 842.892 -2.74911 2.79162 0
M  V30 8382 H 844.589 -2.52684 3.11371 0
M  V30 8383 H 841.179 -1.43226 4.03961 0
M  V30 8384 H 845.363 -0.921341 4.87673 0
M  V30 8385 H 840.619 -0.230597 6.10965 0
M  V30 8386 H 844.793 0.27344 6.95863 0
M  V30 8387 H 842.42 0.624748 7.57628 0
M  V30 8388 N 843.995 -1.47404 -0.557645 0
M  V30 8389 C 844.925 -1.62736 -1.67449 0
M  V30 8390 C 845.906 -0.476824 -1.6328 0
M  V30 8391 O 847.091 -0.706108 -1.80908 0
M  V30 8392 C 844.221 -1.641 -3.06086 0
M  V30 8393 C 843.175 -2.78377 -3.25101 0
M  V30 8394 C 842.501 -2.64812 -4.6452 0
M  V30 8395 C 843.801 -4.19971 -3.10518 0
M  V30 8396 H 845.495 -2.56232 -1.54873 0
M  V30 8397 H 843.041 -1.23312 -0.743649 0
M  V30 8398 H 844.994 -1.73417 -3.84063 0
M  V30 8399 H 843.718 -0.671652 -3.19619 0
M  V30 8400 H 842.377 -2.6857 -2.49531 0
M  V30 8401 H 842.025 -1.65906 -4.74852 0
M  V30 8402 H 841.725 -3.41477 -4.78191 0
M  V30 8403 H 843.249 -2.76057 -5.44633 0
M  V30 8404 H 844.663 -4.30757 -3.78313 0
M  V30 8405 H 843.06 -4.97419 -3.35699 0
M  V30 8406 H 844.13 -4.38369 -2.0727 0
M  V30 8407 N 845.473 0.80434 -1.35529 0
M  V30 8408 C 846.721 1.55845 -1.28673 0
M  V30 8409 C 847.042 1.94511 0.137976 0
M  V30 8410 O 846.312 1.63775 1.07492 0
M  V30 8411 H 844.892 0.577931 -0.473291 0
M  V30 8412 H 847.554 0.959293 -1.69657 0
M  V30 8413 H 846.65 2.47285 -1.90411 0
M  V30 8414 N 846.951 1.19563 1.02676 0
M  V30 8415 C 848.176 1.02556 1.80269 0
M  V30 8416 C 848.601 -0.421056 1.83327 0
M  V30 8417 O 847.959 -1.30279 1.26084 0
M  V30 8418 C 848.007 1.60165 3.23078 0
M  V30 8419 O 847.111 0.832404 4.03912 0
M  V30 8420 H 846.452 0.362354 0.556413 0
M  V30 8421 H 848.982 1.58633 1.29216 0
M  V30 8422 H 848.992 1.6347 3.7382 0
M  V30 8423 H 847.667 2.65454 3.20167 0
M  V30 8424 H 846.244 0.872768 3.62543 0
M  V30 8425 N 848.429 -1.21819 0.999893 0
M  V30 8426 C 849.675 -1.91035 0.680701 0
M  V30 8427 C 850.008 -1.77582 -0.786021 0
M  V30 8428 O 849.283 -1.14917 -1.56921 0
M  V30 8429 C 849.566 -3.43013 1.0961 0
M  V30 8430 C 849.419 -3.65481 2.6219 0
M  V30 8431 C 850.738 -4.35204 0.654616 0
M  V30 8432 H 847.857 -0.693748 0.248763 0
M  V30 8433 H 850.499 -1.43555 1.24466 0
M  V30 8434 H 848.649 -3.83581 0.616253 0
M  V30 8435 H 850.321 -3.34273 3.17899 0
M  V30 8436 H 848.564 -3.09522 3.03938 0
M  V30 8437 H 849.235 -4.71945 2.86307 0
M  V30 8438 H 851.711 -4.0219 1.06688 0
M  V30 8439 H 850.587 -5.40198 0.973492 0
M  V30 8440 H 850.848 -4.3986 -0.444458 0
M  V30 8441 N 849.908 -0.773975 -1.37286 0
M  V30 8442 C 850.84 -0.119938 -2.28886 0
M  V30 8443 C 851.853 0.661822 -1.48741 0
M  V30 8444 O 853.042 0.499548 -1.71367 0
M  V30 8445 C 850.142 0.853703 -3.27971 0
M  V30 8446 C 849.315 0.125286 -4.37221 0
M  V30 8447 C 848.374 1.01261 -5.16365 0
M  V30 8448 O 847.4 0.475565 -5.6721 0
M  V30 8449 N 848.602 2.33864 -5.31308 0
M  V30 8450 H 851.367 -0.906702 -2.85655 0
M  V30 8451 H 848.928 -0.626519 -1.49286 0
M  V30 8452 H 850.92 1.4508 -3.77801 0
M  V30 8453 H 849.49 1.54142 -2.71954 0
M  V30 8454 H 848.71 -0.652742 -3.88758 0
M  V30 8455 H 849.998 -0.377959 -5.07394 0
M  V30 8456 H 849.396 2.79929 -4.91585 0
M  V30 8457 H 847.953 2.88575 -5.84438 0
M  V30 8458 N 851.386 1.48609 -0.524698 0
M  V30 8459 C 852.632 2.02797 0.0113382 0
M  V30 8460 C 852.965 1.40147 1.34433 0
M  V30 8461 O 852.24 0.545368 1.86698 0
M  V30 8462 C 852.523 3.59832 0.138931 0
M  V30 8463 C 852.376 4.32971 -1.21886 0
M  V30 8464 C 853.695 4.3145 0.868265 0
M  V30 8465 H 850.814 0.736995 0.00264645 0
M  V30 8466 H 853.456 1.77388 -0.680704 0
M  V30 8467 H 851.606 3.81612 0.72834 0
M  V30 8468 H 853.278 4.22624 -1.84897 0
M  V30 8469 H 851.521 3.94597 -1.80211 0
M  V30 8470 H 852.192 5.41279 -1.08263 0
M  V30 8471 H 854.668 4.14468 0.368145 0
M  V30 8472 H 853.544 5.41025 0.926428 0
M  V30 8473 H 853.805 3.98358 1.91737 0
M  V30 8474 N 852.864 0.259585 1.55447 0
M  V30 8475 C 854.275 -0.241165 1.85136 0
M  V30 8476 C 854.626 -1.56634 1.18153 0
M  V30 8477 O 853.751 -2.11359 0.464351 0
M  V30 8478 C 854.346 -0.444355 3.35873 0
M  V30 8479 C 852.905 -0.889354 3.65742 0
M  V30 8480 C 852.052 0.0262474 2.77288 0
M  V30 8481 H 855.003 0.481808 1.51209 0
M  V30 8482 H 855.024 -1.28517 3.58139 0
M  V30 8483 H 854.536 0.520289 3.84597 0
M  V30 8484 H 852.637 -1.86602 3.22507 0
M  V30 8485 H 852.75 -0.737432 4.73391 0
M  V30 8486 H 851.114 -0.487361 2.49994 0
M  V30 8487 H 851.897 0.986494 3.28821 0
M  V30 8488 N 854.342 -1.57594 -0.0133615 0
M  V30 8489 C 855.572 -1.93969 -0.711295 0
M  V30 8490 C 855.98 -0.859084 -1.68572 0
M  V30 8491 O 855.323 0.171842 -1.82894 0
M  V30 8492 C 855.385 -3.2625 -1.51001 0
M  V30 8493 C 855.049 -4.51628 -0.698645 0
M  V30 8494 C 856.046 -5.19899 0.00791185 0
M  V30 8495 C 853.731 -4.98095 -0.648553 0
M  V30 8496 C 855.725 -6.32928 0.753691 0
M  V30 8497 C 853.412 -6.11017 0.10096 0
M  V30 8498 C 854.41 -6.78289 0.800828 0
M  V30 8499 O 854.098 -7.89048 1.53814 0
M  V30 8500 H 853.83 -0.6445 -0.203951 0
M  V30 8501 H 856.384 -2.05378 0.0298267 0
M  V30 8502 H 854.614 -3.11211 -2.29531 0
M  V30 8503 H 856.303 -3.47835 -2.09202 0
M  V30 8504 H 857.069 -4.84995 -0.0217192 0
M  V30 8505 H 852.948 -4.45568 -1.18282 0
M  V30 8506 H 856.492 -6.85371 1.3005 0
M  V30 8507 H 852.389 -6.45364 0.132459 0
M  V30 8508 H 853.157 -8.05492 1.45345 0
M  V30 8509 N 855.82 0.285905 -1.54985 0
M  V30 8510 C 856.77 1.35505 -1.83364 0
M  V30 8511 C 857.754 1.45273 -0.691698 0
M  V30 8512 O 858.946 1.49172 -0.952725 0
M  V30 8513 C 856.075 2.71756 -2.0977 0
M  V30 8514 C 855.161 2.6615 -3.30189 0
M  V30 8515 N 855.552 2.30161 -4.50399 0
M  V30 8516 C 853.85 2.97232 -3.3252 0
M  V30 8517 C 854.551 2.34228 -5.32459 0
M  V30 8518 N 853.527 2.72187 -4.70548 0
M  V30 8519 H 857.329 1.06668 -2.7386 0
M  V30 8520 H 854.843 0.494521 -1.54688 0
M  V30 8521 H 856.84 3.48864 -2.28253 0
M  V30 8522 H 855.5 3.01492 -1.20551 0
M  V30 8523 H 856.511 2.02358 -4.7673 0
M  V30 8524 H 853.188 3.31764 -2.53454 0
M  V30 8525 H 854.578 2.09074 -6.38543 0
M  V30 8526 N 857.298 1.47698 0.54982 0
M  V30 8527 C 858.245 1.60739 1.65625 0
M  V30 8528 C 859.215 0.450129 1.59884 0
M  V30 8529 O 860.4 0.671123 1.78607 0
M  V30 8530 C 857.54 1.63457 3.03934 0
M  V30 8531 C 856.653 2.90152 3.20056 0
M  V30 8532 C 855.788 2.84157 4.48807 0
M  V30 8533 C 854.827 4.05644 4.58387 0
M  V30 8534 N 853.964 3.97843 5.78503 0
M  V30 8535 H 858.804 2.55234 1.53817 0
M  V30 8536 H 856.341 1.26593 0.749173 0
M  V30 8537 H 858.299 1.63015 3.84034 0
M  V30 8538 H 856.929 0.724689 3.1456 0
M  V30 8539 H 855.981 3.00428 2.33339 0
M  V30 8540 H 857.293 3.80097 3.22998 0
M  V30 8541 H 856.447 2.82006 5.37175 0
M  V30 8542 H 855.186 1.91908 4.48356 0
M  V30 8543 H 854.191 4.08092 3.6843 0
M  V30 8544 H 855.416 4.9903 4.60593 0
M  V30 8545 H 853.362 3.08401 5.78986 0
M  V30 8546 H 853.279 4.81473 5.82855 0
M  V30 8547 H 854.547 3.99719 6.69212 0
M  V30 8548 N 858.776 -0.797141 1.35954 0
M  V30 8549 C 860.024 -1.55161 1.29497 0
M  V30 8550 C 860.345 -1.94582 -0.127659 0
M  V30 8551 O 859.615 -1.64343 -1.06622 0
M  V30 8552 H 858.195 -0.575413 0.47635 0
M  V30 8553 H 860.857 -0.950282 1.70164 0
M  V30 8554 H 859.953 -2.46272 1.9172 0
M  V30 8555 N 860.254 -1.20106 -1.0204 0
M  V30 8556 C 861.202 -0.943231 -2.12617 0
M  V30 8557 C 862.196 0.104042 -1.6908 0
M  V30 8558 O 863.402 -0.0459732 -1.79941 0
M  V30 8559 H 859.777 -0.28767 -0.694802 0
M  V30 8560 H 861.748 -1.88221 -2.3155 0
M  V30 8561 C 860.497 -0.50771 -3.43973 0
M  V30 8562 H 859.82 -1.30514 -3.77897 0
M  V30 8563 H 861.26 -0.366486 -4.22413 0
M  V30 8564 C 859.719 0.77939 -3.27761 0
M  V30 8565 O 860.249 1.83876 -3.57145 0
M  V30 8566 N 858.455 0.739931 -2.81022 0
M  V30 8567 H 858.002 -0.122426 -2.57309 0
M  V30 8568 H 857.96 1.60147 -2.70556 0
M  V30 8569 N 861.732 1.21287 -1.00634 0
M  V30 8570 C 863.009 1.86 -0.605257 0
M  V30 8571 C 863.389 1.90139 0.917072 0
M  V30 8572 O 862.737 1.40169 1.80458 0
M  V30 8573 C 862.947 3.26183 -1.24119 0
M  V30 8574 C 864.295 4.02562 -1.35015 0
M  V30 8575 O 865.319 3.35499 -1.19661 0
M  V30 8576 O 864.178 5.22638 -1.59726 0
M  V30 8577 H 861.272 0.800549 -0.207486 0
M  V30 8578 H 863.818 1.28959 -1.10307 0
M  V30 8579 H 862.59 3.17878 -2.28186 0
M  V30 8580 H 862.213 3.90845 -0.729807 0
M  V30 8581 N 863.21 0.781244 1.36873 0
M  V30 8582 C 864.456 0.350407 1.9975 0
M  V30 8583 C 864.789 -1.07293 1.6187 0
M  V30 8584 O 864.064 -1.73983 0.869491 0
M  V30 8585 C 864.347 0.504834 3.56544 0
M  V30 8586 C 864.2 1.97127 4.04303 0
M  V30 8587 C 865.519 -0.0851272 4.40018 0
M  V30 8588 H 862.638 0.128794 0.725659 0
M  V30 8589 H 865.28 0.98606 1.6241 0
M  V30 8590 H 863.43 -0.0363006 3.88483 0
M  V30 8591 H 865.102 2.57284 3.82887 0
M  V30 8592 H 863.345 2.47676 3.56145 0
M  V30 8593 H 864.016 2.03033 5.13305 0
M  V30 8594 H 866.492 0.376704 4.14391 0
M  V30 8595 H 865.368 0.0530015 5.48874 0
M  V30 8596 H 865.629 -1.17642 4.2616 0
M  V30 8597 N 864.689 -1.48329 0.532571 0
M  V30 8598 C 865.619 -2.32485 -0.217511 0
M  V30 8599 C 866.6 -1.42255 -0.932598 0
M  V30 8600 O 867.785 -1.7114 -0.917873 0
M  V30 8601 C 864.915 -3.23509 -1.26329 0
M  V30 8602 C 863.869 -4.22784 -0.666191 0
M  V30 8603 C 863.195 -5.0296 -1.81482 0
M  V30 8604 C 864.495 -5.21031 0.363813 0
M  V30 8605 H 866.189 -2.95445 0.485014 0
M  V30 8606 H 863.735 -1.42075 0.234694 0
M  V30 8607 H 865.688 -3.81211 -1.79601 0
M  V30 8608 H 864.412 -2.58554 -1.99543 0
M  V30 8609 H 863.071 -3.66272 -0.15498 0
M  V30 8610 H 862.719 -4.34427 -2.5354 0
M  V30 8611 H 862.419 -5.70154 -1.4212 0
M  V30 8612 H 863.943 -5.63514 -2.35126 0
M  V30 8613 H 865.357 -5.73241 -0.0819079 0
M  V30 8614 H 863.754 -5.96292 0.674956 0
M  V30 8615 H 864.824 -4.6801 1.26865 0
M  V30 8616 N 866.167 -0.267825 -1.55308 0
M  V30 8617 C 867.407 0.352316 -2.01341 0
M  V30 8618 C 867.771 1.53593 -1.1521 0
M  V30 8619 O 868.972 2.22521 -1.50791 0
M  V30 8620 C 867.243 0.731857 -3.49827 0
M  V30 8621 S 868.802 1.33956 -4.17853 0
M  V30 8622 H 865.62 0.109927 -0.702451 0
M  V30 8623 H 868.222 -0.387955 -1.91612 0
M  V30 8624 H 866.926 -0.138561 -4.10166 0
M  V30 8625 H 866.457 1.50378 -3.63525 0
M  V30 8626 H 868.472 2.62831 -4.20874 0
M  V30 8627 N 867.645 1.57599 0.00500368 0
M  V30 8628 C 868.608 2.07058 0.982832 0
M  V30 8629 C 869.608 0.979045 1.27559 0
M  V30 8630 O 870.798 1.24187 1.22161 0
M  V30 8631 C 867.93 2.50782 2.30914 0
M  V30 8632 H 869.123 2.94718 0.555119 0
M  V30 8633 H 866.676 1.54249 0.25237 0
M  V30 8634 H 867.411 1.66351 2.78385 0
M  V30 8635 H 867.196 3.30495 2.10987 0
M  V30 8636 H 868.686 2.89391 3.0107 0
M  V30 8637 N 869.123 -0.277682 1.55134 0
M  V30 8638 C 870.086 -1.32635 1.86924 0
M  V30 8639 C 871.086 -1.42578 0.743507 0
M  V30 8640 O 872.276 -1.4181 1.01171 0
M  V30 8641 C 869.408 -2.70832 2.07034 0
M  V30 8642 H 870.601 -1.0568 2.80663 0
M  V30 8643 H 868.154 -0.515517 1.47554 0
M  V30 8644 H 868.889 -3.02974 1.15661 0
M  V30 8645 H 868.674 -2.65001 2.88993 0
M  V30 8646 H 870.164 -3.46611 2.32918 0
M  V30 8647 N 870.601 -1.47988 -0.541979 0
M  V30 8648 C 871.534 -1.56172 -1.66389 0
M  V30 8649 C 872.512 -0.412879 -1.57271 0
M  V30 8650 O 873.696 -0.622816 -1.77914 0
M  V30 8651 C 870.823 -1.47851 -3.04726 0
M  V30 8652 C 869.869 -2.67428 -3.32242 0
M  V30 8653 S 870.702 -4.29502 -3.19825 0
M  V30 8654 C 871.858 -4.2376 -4.60628 0
M  V30 8655 H 872.091 -2.51086 -1.59195 0
M  V30 8656 H 869.624 -1.36373 -0.724005 0
M  V30 8657 H 871.582 -1.43738 -3.84512 0
M  V30 8658 H 870.243 -0.542958 -3.09372 0
M  V30 8659 H 869.436 -2.57711 -4.33129 0
M  V30 8660 H 869.038 -2.68743 -2.60103 0
M  V30 8661 H 871.33 -3.92953 -5.51901 0
M  V30 8662 H 872.273 -5.24786 -4.75401 0
M  V30 8663 H 872.681 -3.54398 -4.39389 0
M  V30 8664 N 872.079 0.78992 -1.36375 0
M  V30 8665 C 873.011 1.91113 -1.26524 0
M  V30 8666 C 874.024 1.61747 -0.184851 0
M  V30 8667 O 875.213 1.73004 -0.439524 0
M  V30 8668 C 872.313 3.25908 -0.92937 0
M  V30 8669 C 871.486 3.83057 -2.11154 0
M  V30 8670 C 870.545 4.96289 -1.74881 0
M  V30 8671 O 869.571 5.12834 -2.46962 0
M  V30 8672 N 870.773 5.76478 -0.682193 0
M  V30 8673 H 873.538 2.00085 -2.23128 0
M  V30 8674 H 871.099 0.968165 -1.29762 0
M  V30 8675 H 873.091 3.99151 -0.667884 0
M  V30 8676 H 871.661 3.12556 -0.0524843 0
M  V30 8677 H 870.881 3.01808 -2.53586 0
M  V30 8678 H 872.169 4.1797 -2.90135 0
M  V30 8679 H 871.567 5.65638 -0.0836661 0
M  V30 8680 H 870.124 6.50026 -0.480529 0
M  V30 8681 N 873.557 1.20646 1.01402 0
M  V30 8682 C 874.504 0.957618 2.09996 0
M  V30 8683 C 875.474 -0.113115 1.65714 0
M  V30 8684 O 876.659 0.032142 1.90773 0
M  V30 8685 C 873.799 0.5186 3.41181 0
M  V30 8686 C 872.912 1.65777 3.98926 0
M  V30 8687 C 872.047 1.16881 5.18182 0
M  V30 8688 C 871.086 2.2809 5.68015 0
M  V30 8689 N 870.223 1.80392 6.7853 0
M  V30 8690 H 875.063 1.88732 2.30617 0
M  V30 8691 H 872.6 0.940703 1.13089 0
M  V30 8692 H 874.558 0.245367 4.16478 0
M  V30 8693 H 873.188 -0.3741 3.20625 0
M  V30 8694 H 872.24 2.04586 3.207 0
M  V30 8695 H 873.552 2.49507 4.31912 0
M  V30 8696 H 872.706 0.851694 6.00692 0
M  V30 8697 H 871.445 0.301434 4.86768 0
M  V30 8698 H 870.45 2.60614 4.84108 0
M  V30 8699 H 871.675 3.15308 6.01463 0
M  V30 8700 H 869.621 0.959856 6.4894 0
M  V30 8701 H 869.538 2.57701 7.10722 0
M  V30 8702 H 870.806 1.51688 7.64598 0
M  V30 8703 N 875.035 -1.20752 1.01276 0
M  V30 8704 C 876.284 -1.8934 0.695229 0
M  V30 8705 C 876.597 -1.79459 -0.77806 0
M  V30 8706 O 877.803 -2.43146 -1.20799 0
M  V30 8707 C 876.259 -3.39548 1.1931 0
M  V30 8708 C 875.867 -3.58023 2.69302 0
M  V30 8709 C 877.611 -4.13714 0.950823 0
M  V30 8710 C 875.518 -5.02037 3.1259 0
M  V30 8711 H 874.448 -0.709084 0.25635 0
M  V30 8712 H 877.099 -1.36629 1.22494 0
M  V30 8713 H 875.481 -3.91559 0.591395 0
M  V30 8714 H 876.655 -3.16416 3.34989 0
M  V30 8715 H 874.97 -2.97222 2.9163 0
M  V30 8716 H 877.567 -5.19891 1.24971 0
M  V30 8717 H 877.91 -4.16147 -0.112791 0
M  V30 8718 H 878.443 -3.67792 1.51571 0
M  V30 8719 H 875.182 -5.04757 4.18211 0
M  V30 8720 H 874.702 -5.44469 2.51621 0
M  V30 8721 H 876.381 -5.70594 3.0501 0
M  V30 8722 N 876.513 -0.788492 -1.36457 0
M  V30 8723 C 877.476 -0.192209 -2.28393 0
M  V30 8724 C 878.476 0.609916 -1.48784 0
M  V30 8725 O 879.666 0.431046 -1.68783 0
M  V30 8726 C 876.798 0.734096 -3.32902 0
M  V30 8727 H 877.991 -1.00284 -2.82636 0
M  V30 8728 H 875.544 -0.557852 -1.46006 0
M  V30 8729 H 876.279 1.5691 -2.83813 0
M  V30 8730 H 876.064 0.160875 -3.9177 0
M  V30 8731 H 877.554 1.1462 -4.01562 0
M  V30 8732 N 877.991 1.48044 -0.54043 0
M  V30 8733 C 879.219 2.06895 -0.0145153 0
M  V30 8734 C 879.634 1.39552 1.27164 0
M  V30 8735 O 878.991 0.486454 1.75897 0
M  V30 8736 C 879.042 3.60934 0.202278 0
M  V30 8737 O 878.763 4.25749 -1.03293 0
M  V30 8738 C 880.264 4.36607 0.767387 0
M  V30 8739 H 877.484 0.66991 -0.0382368 0
M  V30 8740 H 880.028 1.90288 -0.749057 0
M  V30 8741 H 878.183 3.77111 0.886897 0
M  V30 8742 H 878.597 5.18048 -0.820167 0
M  V30 8743 H 880.071 5.45126 0.86845 0
M  V30 8744 H 880.548 4.01745 1.77477 0
M  V30 8745 H 881.154 4.25133 0.119002 0
M  V30 8746 N 879.47 0.276058 1.55163 0
M  V30 8747 C 880.698 -0.343772 2.04024 0
M  V30 8748 C 881.113 -1.49397 1.15438 0
M  V30 8749 O 880.47 -1.81662 0.174692 0
M  V30 8750 C 880.521 -0.823885 3.51986 0
M  V30 8751 O 880.242 0.280507 4.37201 0
M  V30 8752 C 881.743 -1.51143 4.16738 0
M  V30 8753 H 878.963 -0.07828 0.666418 0
M  V30 8754 H 881.507 0.408427 2.0038 0
M  V30 8755 H 879.662 -1.52617 3.56071 0
M  V30 8756 H 880.076 -0.0887831 5.24425 0
M  V30 8757 H 881.55 -1.79878 5.2187 0
M  V30 8758 H 882.027 -2.44327 3.64967 0
M  V30 8759 H 882.633 -0.852975 4.16659 0
M  V30 8760 N 880.948 -1.576 0.00335426 0
M  V30 8761 C 882.364 -1.55653 -0.352766 0
M  V30 8762 C 882.564 -1.00632 -1.74572 0
M  V30 8763 O 881.62 -0.641621 -2.44212 0
M  V30 8764 C 882.933 -2.99858 -0.224929 0
M  V30 8765 C 884.481 -3.11563 -0.299619 0
M  V30 8766 C 884.956 -4.57559 -0.200868 0
M  V30 8767 N 886.447 -4.62477 -0.258663 0
M  V30 8768 C 887.182 -5.73031 -0.205644 0
M  V30 8769 N 886.678 -6.92723 -0.103027 0
M  V30 8770 N 888.471 -5.61509 -0.257754 0
M  V30 8771 H 880.622 -1.91703 0.914539 0
M  V30 8772 H 882.885 -0.88068 0.350865 0
M  V30 8773 H 882.591 -3.43964 0.733595 0
M  V30 8774 H 882.465 -3.63547 -1.00564 0
M  V30 8775 H 884.852 -2.67384 -1.24859 0
M  V30 8776 H 884.933 -2.50644 0.511025 0
M  V30 8777 H 884.577 -5.02413 0.744572 0
M  V30 8778 H 884.507 -5.16428 -1.03004 0
M  V30 8779 H 886.998 -3.76375 -0.339168 0
M  V30 8780 H 887.311 -7.7277 -0.0685593 0
M  V30 8781 H 885.656 -6.94966 -0.0686069 0
M  V30 8782 H 888.847 -4.66892 -0.336142 0
M  V30 8783 H 889.02 -6.4765 -0.21297 0
M  V30 8784 N 882.426 0.269451 -1.5528 0
M  V30 8785 C 883.842 0.616827 -1.47199 0
M  V30 8786 C 884.042 1.89354 -0.68901 0
M  V30 8787 O 883.098 2.51631 -0.209287 0
M  V30 8788 C 884.411 0.740492 -2.9144 0
M  V30 8789 C 885.959 0.834312 -3.01676 0
M  V30 8790 C 886.434 0.989725 -4.47178 0
M  V30 8791 N 887.925 1.05516 -4.51022 0
M  V30 8792 C 888.66 1.19427 -5.60825 0
M  V30 8793 N 888.156 1.30035 -6.80487 0
M  V30 8794 N 889.949 1.22566 -5.48575 0
M  V30 8795 H 882.1 -0.568962 -2.04638 0
M  V30 8796 H 884.363 -0.193153 -0.928114 0
M  V30 8797 H 884.069 -0.127234 -3.5147 0
M  V30 8798 H 883.943 1.61965 -3.40657 0
M  V30 8799 H 886.33 1.6925 -2.4174 0
M  V30 8800 H 886.411 -0.0695298 -2.55705 0
M  V30 8801 H 886.055 0.136179 -5.07717 0
M  V30 8802 H 885.985 1.90827 -4.90808 0
M  V30 8803 H 888.476 0.985434 -3.64825 0
M  V30 8804 H 888.789 1.40494 -7.59922 0
M  V30 8805 H 887.134 1.27033 -6.83292 0
M  V30 8806 H 890.325 1.13911 -4.54029 0
M  V30 8807 H 890.498 1.33063 -6.34191 0
M  V30 8808 N 883.904 1.48273 0.534124 0
M  V30 8809 C 884.834 1.6538 1.64839 0
M  V30 8810 C 885.815 0.502741 1.62501 0
M  V30 8811 O 887 0.734799 1.79762 0
M  V30 8812 C 884.13 1.68949 3.03436 0
M  V30 8813 C 883.084 2.83513 3.20631 0
M  V30 8814 C 882.41 2.72169 4.60248 0
M  V30 8815 C 883.71 4.24858 3.03797 0
M  V30 8816 H 885.404 2.58663 1.50777 0
M  V30 8817 H 882.95 1.24479 0.723937 0
M  V30 8818 H 884.903 1.79505 3.81256 0
M  V30 8819 H 883.627 0.722415 3.1851 0
M  V30 8820 H 882.286 2.72505 2.45227 0
M  V30 8821 H 881.934 1.7344 4.72152 0
M  V30 8822 H 881.634 3.49042 4.72698 0
M  V30 8823 H 883.158 2.84687 5.40172 0
M  V30 8824 H 884.572 4.36721 3.71413 0
M  V30 8825 H 882.969 5.02697 3.27743 0
M  V30 8826 H 884.039 4.41611 2.0027 0
M  V30 8827 N 885.382 -0.782676 1.36792 0
M  V30 8828 C 886.61 -1.57162 1.34565 0
M  V30 8829 C 887.025 -1.88664 -0.0715501 0
M  V30 8830 O 886.382 -1.50633 -1.03033 0
M  V30 8831 C 886.433 -2.88854 2.1736 0
M  V30 8832 O 886.154 -2.58707 3.53557 0
M  V30 8833 C 887.655 -3.83132 2.2299 0
M  V30 8834 H 884.875 -0.487245 0.461338 0
M  V30 8835 H 887.419 -0.970905 1.79982 0
M  V30 8836 H 885.574 -3.45377 1.7548 0
M  V30 8837 H 885.988 -3.42961 3.96835 0
M  V30 8838 H 887.462 -4.72575 2.85266 0
M  V30 8839 H 887.939 -4.21472 1.23524 0
M  V30 8840 H 888.545 -3.32541 2.65135 0
M  V30 8841 N 886.86 -1.21182 -1.00761 0
M  V30 8842 C 888.106 -1.02898 -1.74756 0
M  V30 8843 C 888.439 0.436774 -1.89225 0
M  V30 8844 O 887.714 1.32415 -1.42466 0
M  V30 8845 C 887.997 -1.72372 -3.16164 0
M  V30 8846 C 887.85 -3.2645 -3.09435 0
M  V30 8847 C 889.169 -1.46415 -4.15031 0
M  V30 8848 H 886.288 -0.375214 -0.634337 0
M  V30 8849 H 888.93 -1.49321 -1.17487 0
M  V30 8850 H 887.08 -1.32906 -3.65059 0
M  V30 8851 H 888.752 -3.75269 -2.68274 0
M  V30 8852 H 886.995 -3.56889 -2.46603 0
M  V30 8853 H 887.666 -3.70226 -4.09435 0
M  V30 8854 H 890.142 -1.80671 -3.7483 0
M  V30 8855 H 889.018 -1.97544 -5.12121 0
M  V30 8856 H 889.279 -0.39361 -4.40344 0
M  V30 8857 N 888.338 1.20213 -1.01915 0
M  V30 8858 C 889.288 2.20957 -0.562327 0
M  V30 8859 C 890.272 1.56258 0.383704 0
M  V30 8860 O 891.464 1.75794 0.206255 0
M  V30 8861 C 888.593 3.43167 0.0954035 0
M  V30 8862 C 887.679 4.15028 -0.872487 0
M  V30 8863 N 888.07 4.63231 -2.03103 0
M  V30 8864 C 886.368 4.4057 -0.69385 0
M  V30 8865 C 887.069 5.18307 -2.64069 0
M  V30 8866 N 886.045 5.08522 -1.9211 0
M  V30 8867 H 889.847 2.55894 -1.44553 0
M  V30 8868 H 887.361 1.36178 -0.884831 0
M  V30 8869 H 889.358 4.14569 0.440232 0
M  V30 8870 H 888.018 3.09734 0.974413 0
M  V30 8871 H 889.029 4.58365 -2.41086 0
M  V30 8872 H 885.706 4.17276 0.136889 0
M  V30 8873 H 887.096 5.65961 -3.6213 0
M  V30 8874 N 889.816 0.795718 1.36037 0
M  V30 8875 C 891.063 0.371024 1.99072 0
M  V30 8876 C 891.391 -1.05896 1.63145 0
M  V30 8877 O 890.646 -1.7474 0.881163 0
M  V30 8878 C 890.945 0.489038 3.54038 0
M  V30 8879 C 890.611 1.88075 4.09803 0
M  V30 8880 C 889.273 2.26152 4.24745 0
M  V30 8881 C 891.625 2.79174 4.40126 0
M  V30 8882 C 888.953 3.54718 4.67324 0
M  V30 8883 C 891.305 4.07175 4.8414 0
M  V30 8884 C 889.969 4.45266 4.97287 0
M  V30 8885 H 889.239 0.135767 0.728456 0
M  V30 8886 H 891.886 1.0144 1.62426 0
M  V30 8887 H 890.191 -0.237823 3.91078 0
M  V30 8888 H 891.888 0.141374 4.00751 0
M  V30 8889 H 888.478 1.57488 3.98617 0
M  V30 8890 H 892.662 2.51009 4.28145 0
M  V30 8891 H 887.918 3.84093 4.75691 0
M  V30 8892 H 892.092 4.77875 5.06565 0
M  V30 8893 H 889.719 5.44943 5.30038 0
M  V30 8894 N 891.294 -1.47756 0.548274 0
M  V30 8895 C 892.242 -2.3158 -0.217584 0
M  V30 8896 C 893.236 -1.42372 -0.917957 0
M  V30 8897 O 894.442 -1.59184 -0.840259 0
M  V30 8898 H 890.817 -0.74671 -0.0890388 0
M  V30 8899 H 892.788 -2.94032 0.508719 0
M  V30 8900 C 891.537 -3.24834 -1.24008 0
M  V30 8901 H 890.86 -3.93435 -0.710572 0
M  V30 8902 H 892.3 -3.86336 -1.74701 0
M  V30 8903 C 890.759 -2.47724 -2.2833 0
M  V30 8904 O 891.289 -2.21522 -3.35098 0
M  V30 8905 N 889.495 -2.08891 -2.02022 0
M  V30 8906 H 889.042 -2.30401 -1.1521 0
M  V30 8907 H 889 -1.57613 -2.7204 0
M  V30 8908 N 892.772 -0.284283 -1.55015 0
M  V30 8909 C 894.183 0.211681 -1.85496 0
M  V30 8910 C 894.534 1.54735 -1.2063 0
M  V30 8911 O 893.659 2.10594 -0.497918 0
M  V30 8912 C 894.254 0.390864 -3.36538 0
M  V30 8913 C 892.813 0.831055 -3.67111 0
M  V30 8914 C 891.96 -0.0703581 -2.77211 0
M  V30 8915 H 894.911 -0.505803 -1.50424 0
M  V30 8916 H 894.932 1.22803 -3.60138 0
M  V30 8917 H 894.444 -0.581409 -3.8372 0
M  V30 8918 H 892.545 1.81447 -3.25434 0
M  V30 8919 H 892.658 0.662026 -4.74504 0
M  V30 8920 H 891.022 0.447528 -2.50737 0
M  V30 8921 H 891.805 -1.03868 -3.2721 0
M  V30 8922 N 894.251 1.57596 -0.0117121 0
M  V30 8923 C 895.662 1.79033 0.529521 0
M  V30 8924 C 896.013 0.920299 1.73277 0
M  V30 8925 O 895.138 0.125934 2.16033 0
M  V30 8926 C 895.733 3.24695 0.967405 0
M  V30 8927 C 894.292 3.47188 1.45387 0
M  V30 8928 C 893.439 2.74245 0.410466 0
M  V30 8929 H 896.39 1.56908 -0.237836 0
M  V30 8930 H 896.411 3.33451 1.83278 0
M  V30 8931 H 895.923 3.87992 0.0914605 0
M  V30 8932 H 894.024 2.89121 2.35032 0
M  V30 8933 H 894.137 4.55886 1.47325 0
M  V30 8934 H 892.501 2.39209 0.874721 0
M  V30 8935 H 893.284 3.40248 -0.456713 0
M  V30 8936 N 895.729 -0.261212 1.5542 0
M  V30 8937 C 896.954 -1.01341 1.80955 0
M  V30 8938 C 897.379 -1.78711 0.586849 0
M  V30 8939 O 896.737 -1.75266 -0.463837 0
M  V30 8940 C 896.785 -1.93835 3.04073 0
M  V30 8941 O 895.889 -3.02791 2.79985 0
M  V30 8942 H 895.23 -0.289123 0.597749 0
M  V30 8943 H 897.76 -0.286543 2.02584 0
M  V30 8944 H 897.77 -2.3557 3.33123 0
M  V30 8945 H 896.445 -1.36936 3.9271 0
M  V30 8946 H 895.022 -2.65287 2.62063 0
M  V30 8947 N 897.207 -1.48554 -0.526253 0
M  V30 8948 C 898.432 -1.60686 -1.31129 0
M  V30 8949 C 898.857 -0.268701 -1.86171 0
M  V30 8950 O 898.215 0.760167 -1.64594 0
M  V30 8951 C 898.263 -2.65938 -2.43536 0
M  V30 8952 O 897.367 -2.23356 -3.46678 0
M  V30 8953 H 896.708 -0.538691 -0.388211 0
M  V30 8954 H 899.238 -1.94567 -0.632826 0
M  V30 8955 H 899.248 -2.87327 -2.89668 0
M  V30 8956 H 897.923 -3.63085 -2.02835 0
M  V30 8957 H 896.5 -2.12196 -3.06639 0
M  V30 8958 N 898.685 0.775411 -1.37205 0
M  V30 8959 C 899.925 1.54689 -1.33606 0
M  V30 8960 C 900.289 1.91834 0.0798549 0
M  V30 8961 O 901.49 2.67722 0.240531 0
M  V30 8962 C 899.761 2.7804 -2.24563 0
M  V30 8963 S 901.32 3.68143 -2.38781 0
M  V30 8964 H 898.138 0.529631 -0.474355 0
M  V30 8965 H 900.74 0.912128 -1.72918 0
M  V30 8966 H 899.444 2.48825 -3.26365 0
M  V30 8967 H 898.975 3.46479 -1.86322 0
M  V30 8968 H 900.99 4.69843 -1.59568 0
M  V30 8969 N 900.163 1.21714 1.00117 0
M  V30 8970 C 901.409 1.03823 1.74208 0
M  V30 8971 C 901.742 -0.426733 1.89454 0
M  V30 8972 O 901.017 -1.31658 1.43166 0
M  V30 8973 C 901.3 1.74047 3.15246 0
M  V30 8974 C 901.153 3.28087 3.077 0
M  V30 8975 C 902.472 1.48614 4.14249 0
M  V30 8976 H 899.591 0.378573 0.632338 0
M  V30 8977 H 902.233 1.49942 1.16694 0
M  V30 8978 H 900.383 1.3484 3.64349 0
M  V30 8979 H 902.055 3.76686 2.6628 0
M  V30 8980 H 900.298 3.58191 2.44707 0
M  V30 8981 H 900.969 3.72392 4.07466 0
M  V30 8982 H 903.445 1.82656 3.73866 0
M  V30 8983 H 902.321 2.00257 5.11066 0
M  V30 8984 H 902.582 0.416957 4.40129 0
M  V30 8985 N 901.641 -1.19671 1.02551 0
M  V30 8986 C 902.571 -2.25009 0.623965 0
M  V30 8987 C 903.552 -1.66129 -0.36538 0
M  V30 8988 O 904.737 -1.92599 -0.248842 0
M  V30 8989 C 901.867 -3.47287 -0.0294869 0
M  V30 8990 C 900.821 -4.18818 0.881781 0
M  V30 8991 C 900.147 -5.34618 0.0936189 0
M  V30 8992 C 901.447 -4.73986 2.19396 0
M  V30 8993 H 903.141 -2.58851 1.50454 0
M  V30 8994 H 900.687 -1.24425 0.724872 0
M  V30 8995 H 902.64 -4.20168 -0.322016 0
M  V30 8996 H 901.364 -3.12635 -0.944838 0
M  V30 8997 H 900.023 -3.47815 1.15845 0
M  V30 8998 H 899.671 -4.9621 -0.823661 0
M  V30 8999 H 899.371 -5.83409 0.700568 0
M  V30 9000 H 900.895 -6.10297 -0.192249 0
M  V30 9001 H 902.309 -5.38639 1.96319 0
M  V30 9002 H 900.706 -5.3325 2.75254 0
M  V30 9003 H 901.776 -3.92238 2.85092 0
M  V30 9004 N 903.119 -0.802921 -1.35613 0
M  V30 9005 C 904.029 -0.212177 -2.33639 0
M  V30 9006 C 905.045 0.642871 -1.61689 0
M  V30 9007 O 906.221 0.555485 -1.93588 0
M  V30 9008 C 903.286 0.632406 -3.40883 0
M  V30 9009 C 902.347 -0.242708 -4.28613 0
M  V30 9010 C 901.58 0.56166 -5.30736 0
M  V30 9011 O 901.803 1.79664 -5.41366 0
M  V30 9012 O 900.737 -0.0455387 -6.01883 0
M  V30 9013 H 904.563 -1.023 -2.85952 0
M  V30 9014 H 902.148 -0.564636 -1.38319 0
M  V30 9015 H 904.03 1.11358 -4.0642 0
M  V30 9016 H 902.705 1.42089 -2.90848 0
M  V30 9017 H 901.612 -0.77094 -3.6607 0
M  V30 9018 H 902.945 -0.995046 -4.82037 0
M  V30 9019 N 904.597 1.47463 -0.556102 0
M  V30 9020 C 905.846 2.01678 -0.029492 0
M  V30 9021 C 906.159 1.436 1.32809 0
M  V30 9022 O 907.365 1.89472 1.94455 0
M  V30 9023 C 905.821 3.599 -0.00223937 0
M  V30 9024 C 905.429 4.26969 -1.35651 0
M  V30 9025 C 907.173 4.2187 0.471822 0
M  V30 9026 C 905.08 5.77194 -1.28843 0
M  V30 9027 H 904.01 0.753965 -0.00725504 0
M  V30 9028 H 906.661 1.69467 -0.703789 0
M  V30 9029 H 905.043 3.89068 0.737682 0
M  V30 9030 H 906.217 4.09444 -2.11406 0
M  V30 9031 H 904.532 3.76983 -1.76842 0
M  V30 9032 H 907.129 5.31955 0.541139 0
M  V30 9033 H 907.472 3.88968 1.48356 0
M  V30 9034 H 908.005 3.97228 -0.213207 0
M  V30 9035 H 904.744 6.14713 -2.27613 0
M  V30 9036 H 904.264 5.9706 -0.572668 0
M  V30 9037 H 905.943 6.3938 -0.990031 0
M  V30 9038 N 906.075 0.2925 1.54862 0
M  V30 9039 C 907.3 -0.32494 2.04839 0
M  V30 9040 C 907.725 -1.47381 1.16877 0
M  V30 9041 O 907.083 -1.80492 0.171028 0
M  V30 9042 C 907.131 -0.76694 3.5235 0
M  V30 9043 O 906.235 -1.87256 3.67436 0
M  V30 9044 H 905.576 -0.0645195 0.660858 0
M  V30 9045 H 908.106 0.431867 1.9999 0
M  V30 9046 H 908.116 -1.05804 3.94043 0
M  V30 9047 H 906.791 0.0735212 4.15835 0
M  V30 9048 H 905.368 -1.58266 3.37648 0
M  V30 9049 N 907.553 -1.57587 0.0200696 0
M  V30 9050 C 908.799 -1.91708 -0.661503 0
M  V30 9051 C 909.132 -0.895968 -1.72296 0
M  V30 9052 O 908.407 0.082577 -1.94325 0
M  V30 9053 C 908.69 -3.36344 -1.28627 0
M  V30 9054 C 908.543 -4.49186 -0.234982 0
M  V30 9055 C 909.862 -3.80771 -2.20685 0
M  V30 9056 H 906.981 -0.69717 -0.239005 0
M  V30 9057 H 909.623 -1.8985 0.0754764 0
M  V30 9058 H 907.773 -3.38058 -1.91439 0
M  V30 9059 H 909.445 -4.59606 0.395011 0
M  V30 9060 H 907.688 -4.31557 0.440565 0
M  V30 9061 H 908.359 -5.47395 -0.711558 0
M  V30 9062 H 910.835 -3.80735 -1.67868 0
M  V30 9063 H 909.711 -4.82685 -2.61356 0
M  V30 9064 H 909.972 -3.15764 -3.09428 0
M  V30 9065 N 909.032 0.252966 -1.55557 0
M  V30 9066 C 910.448 0.60118 -1.47844 0
M  V30 9067 C 910.648 1.88612 -0.709055 0
M  V30 9068 O 909.704 2.51395 -0.235964 0
M  V30 9069 C 911.017 0.709539 -2.92209 0
M  V30 9070 C 912.565 0.802269 -3.02544 0
M  V30 9071 C 913.04 0.94224 -4.48203 0
M  V30 9072 N 914.531 1.00726 -4.52116 0
M  V30 9073 C 915.266 1.13472 -5.6206 0
M  V30 9074 N 914.762 1.22811 -6.81828 0
M  V30 9075 N 916.555 1.1674 -5.49844 0
M  V30 9076 H 908.706 -0.590635 -2.04023 0
M  V30 9077 H 910.969 -0.202986 -0.926013 0
M  V30 9078 H 910.675 -0.164505 -3.51315 0
M  V30 9079 H 910.549 1.58343 -3.42356 0
M  V30 9080 H 912.936 1.66677 -2.43522 0
M  V30 9081 H 913.017 -0.0966469 -2.55617 0
M  V30 9082 H 912.661 0.0823209 -5.07833 0
M  V30 9083 H 912.591 1.85611 -4.92805 0
M  V30 9084 H 915.082 0.946684 -3.6585 0
M  V30 9085 H 915.395 1.32426 -7.61369 0
M  V30 9086 H 913.74 1.19779 -6.84601 0
M  V30 9087 H 916.931 1.09089 -4.55211 0
M  V30 9088 H 917.104 1.26329 -6.35567 0
M  V30 9089 N 910.51 1.48831 0.518367 0
M  V30 9090 C 911.758 1.57128 1.27103 0
M  V30 9091 C 912.079 0.252098 1.93364 0
M  V30 9092 O 911.349 -0.727281 1.819 0
M  V30 9093 H 909.929 0.578891 0.472116 0
M  V30 9094 H 912.591 1.85361 0.602262 0
M  V30 9095 H 911.687 2.35838 2.04418 0
M  V30 9096 N 911.988 -0.768124 1.37614 0
M  V30 9097 C 913.234 -1.52907 1.33219 0
M  V30 9098 C 913.567 -1.94026 -0.0821218 0
M  V30 9099 O 912.842 -1.64345 -1.04023 0
M  V30 9100 C 913.125 -2.79164 2.27463 0
M  V30 9101 C 912.978 -2.44276 3.7769 0
M  V30 9102 C 914.297 -3.81115 2.20089 0
M  V30 9103 H 911.416 -0.554712 0.485246 0
M  V30 9104 H 914.058 -0.880911 1.68345 0
M  V30 9105 H 912.208 -3.34472 1.97639 0
M  V30 9106 H 913.88 -1.94855 4.18126 0
M  V30 9107 H 912.123 -1.76925 3.96081 0
M  V30 9108 H 912.794 -3.34544 4.39072 0
M  V30 9109 H 915.27 -3.35311 2.46386 0
M  V30 9110 H 914.146 -4.67174 2.88166 0
M  V30 9111 H 914.407 -4.25644 1.19498 0
M  V30 9112 N 913.466 -1.22244 -0.994698 0
M  V30 9113 C 914.413 -0.990906 -2.08446 0
M  V30 9114 C 915.383 0.086737 -1.65873 0
M  V30 9115 O 916.568 -0.0624882 -1.90698 0
M  V30 9116 C 913.708 -0.572813 -3.40313 0
M  V30 9117 C 912.821 -1.72103 -3.96238 0
M  V30 9118 C 911.956 -1.2511 -5.16257 0
M  V30 9119 C 910.995 -2.37098 -5.64315 0
M  V30 9120 N 910.132 -1.91164 -6.75574 0
M  V30 9121 H 914.972 -1.92377 -2.27585 0
M  V30 9122 H 912.509 -0.958576 -1.11578 0
M  V30 9123 H 914.467 -0.311594 -4.16035 0
M  V30 9124 H 913.097 0.323044 -3.21179 0
M  V30 9125 H 912.149 -2.09662 -3.17405 0
M  V30 9126 H 913.461 -2.56347 -4.27888 0
M  V30 9127 H 912.615 -0.947152 -5.99261 0
M  V30 9128 H 911.354 -0.378836 -4.86226 0
M  V30 9129 H 910.359 -2.68283 -4.799 0
M  V30 9130 H 911.584 -3.24837 -5.96371 0
M  V30 9131 H 909.53 -1.06298 -6.47331 0
M  V30 9132 H 909.447 -2.68975 -7.06533 0
M  V30 9133 H 910.715 -1.63833 -7.62088 0
M  V30 9134 N 914.944 1.19125 -1.03184 0
M  V30 9135 C 916.193 1.8821 -0.725264 0
M  V30 9136 C 916.506 1.80674 0.749411 0
M  V30 9137 O 917.712 2.45037 1.16915 0
M  V30 9138 C 916.168 3.37607 -1.24697 0
M  V30 9139 C 915.776 3.53693 -2.74964 0
M  V30 9140 C 917.52 4.12149 -1.01652 0
M  V30 9141 C 915.427 4.97001 -3.20538 0
M  V30 9142 H 914.357 0.704916 -0.267599 0
M  V30 9143 H 917.008 1.34663 -1.24652 0
M  V30 9144 H 915.39 3.90569 -0.653614 0
M  V30 9145 H 916.564 3.11046 -3.39981 0
M  V30 9146 H 914.879 2.92544 -2.96322 0
M  V30 9147 H 917.476 5.17837 -1.33226 0
M  V30 9148 H 917.819 4.16274 0.0465712 0
M  V30 9149 H 918.352 3.65334 -1.57403 0
M  V30 9150 H 915.091 4.9804 -4.26189 0
M  V30 9151 H 914.611 5.40398 -2.60251 0
M  V30 9152 H 916.29 5.65669 -3.14049 0
M  V30 9153 N 916.422 0.810101 1.35185 0
M  V30 9154 C 917.67 0.391343 1.98275 0
M  V30 9155 C 917.991 -1.04592 1.64577 0
M  V30 9156 O 917.261 -1.72417 0.93001 0
M  V30 9157 H 915.841 0.141715 0.733434 0
M  V30 9158 H 918.503 1.03672 1.6504 0
M  V30 9159 H 917.599 0.49991 3.0807 0
M  V30 9160 N 917.9 -1.47166 0.563914 0
M  V30 9161 C 919.146 -2.02756 0.0424338 0
M  V30 9162 C 919.479 -1.43662 -1.3067 0
M  V30 9163 O 918.754 -0.594676 -1.85186 0
M  V30 9164 C 919.037 -3.60074 -0.0434793 0
M  V30 9165 C 918.89 -4.29587 1.33323 0
M  V30 9166 C 920.209 -4.336 -0.753568 0
M  V30 9167 H 917.328 -0.736806 0.0168946 0
M  V30 9168 H 919.97 -1.75521 0.727496 0
M  V30 9169 H 918.12 -3.83409 -0.626906 0
M  V30 9170 H 919.792 -4.17573 1.96037 0
M  V30 9171 H 918.035 -3.8968 1.9061 0
M  V30 9172 H 918.706 -5.38218 1.22576 0
M  V30 9173 H 921.182 -4.15299 -0.258126 0
M  V30 9174 H 920.058 -5.43291 -0.782659 0
M  V30 9175 H 920.319 -4.03302 -1.81108 0
M  V30 9176 N 919.378 -0.300708 -1.54705 0
M  V30 9177 C 920.325 0.57552 -2.23509 0
M  V30 9178 C 921.295 1.12979 -1.21758 0
M  V30 9179 O 922.48 1.17437 -1.50377 0
M  V30 9180 C 919.62 1.74167 -2.97926 0
M  V30 9181 C 918.733 1.21882 -4.1445 0
M  V30 9182 C 917.868 2.34881 -4.7645 0
M  V30 9183 C 916.907 1.79729 -5.85119 0
M  V30 9184 N 916.044 2.863 -6.41075 0
M  V30 9185 H 920.884 -0.0178257 -2.97995 0
M  V30 9186 H 918.421 -0.0205666 -1.47086 0
M  V30 9187 H 920.379 2.42753 -3.39303 0
M  V30 9188 H 919.009 2.30665 -2.25817 0
M  V30 9189 H 918.061 0.425227 -3.78016 0
M  V30 9190 H 919.373 0.775065 -4.92741 0
M  V30 9191 H 918.527 3.11415 -5.20678 0
M  V30 9192 H 917.266 2.82584 -3.97489 0
M  V30 9193 H 916.271 1.01684 -5.40315 0
M  V30 9194 H 917.496 1.32931 -6.65963 0
M  V30 9195 H 915.442 3.33337 -5.64998 0
M  V30 9196 H 915.359 2.46419 -7.14712 0
M  V30 9197 H 916.627 3.62732 -6.89961 0
M  V30 9198 N 920.856 1.57574 -0.0284266 0
M  V30 9199 C 921.819 2.09096 0.938691 0
M  V30 9200 C 922.819 1.00588 1.25454 0
M  V30 9201 O 924.009 1.2675 1.19499 0
M  V30 9202 C 921.141 2.55624 2.25542 0
M  V30 9203 H 922.334 2.95829 0.49248 0
M  V30 9204 H 919.887 1.5475 0.219594 0
M  V30 9205 H 920.622 1.72218 2.74793 0
M  V30 9206 H 920.407 3.34896 2.03929 0
M  V30 9207 H 921.897 2.95712 2.94863 0
M  V30 9208 N 922.334 -0.244713 1.55689 0
M  V30 9209 C 923.611 -0.995407 1.68378 0
M  V30 9210 C 923.991 -2.03288 0.568949 0
M  V30 9211 O 923.339 -2.24469 -0.427299 0
M  V30 9212 C 923.549 -1.62678 3.08767 0
M  V30 9213 C 924.897 -2.1278 3.67437 0
M  V30 9214 O 925.921 -1.72614 3.11581 0
M  V30 9215 O 924.78 -2.86536 4.65359 0
M  V30 9216 H 921.874 -0.463476 0.684923 0
M  V30 9217 H 924.42 -0.238326 1.68018 0
M  V30 9218 H 923.192 -0.876469 3.81358 0
M  V30 9219 H 922.815 -2.45 3.13146 0
M  V30 9220 N 923.813 -1.49104 -0.510467 0
M  V30 9221 C 925.09 -1.48609 -1.27179 0
M  V30 9222 C 925.47 -0.208537 -2.10067 0
M  V30 9223 O 924.818 0.809335 -2.13687 0
M  V30 9224 C 925.028 -2.75953 -2.1366 0
M  V30 9225 C 926.376 -3.25067 -2.73161 0
M  V30 9226 O 927.4 -2.77005 -2.23934 0
M  V30 9227 O 926.259 -4.08747 -3.62751 0
M  V30 9228 H 923.353 -0.594374 -0.57502 0
M  V30 9229 H 925.899 -1.61358 -0.525515 0
M  V30 9230 H 924.671 -3.60434 -1.52325 0
M  V30 9231 H 924.294 -2.66019 -2.95499 0
M  V30 9232 N 925.291 0.760815 -1.38019 0
M  V30 9233 C 926.516 1.55513 -1.37224 0
M  V30 9234 C 926.941 1.88062 0.037611 0
M  V30 9235 O 926.299 1.50042 1.0177 0
M  V30 9236 C 926.347 2.83539 -2.22796 0
M  V30 9237 O 925.451 3.78384 -1.64009 0
M  V30 9238 H 924.792 0.470642 -0.468393 0
M  V30 9239 H 927.322 0.940792 -1.81687 0
M  V30 9240 H 927.332 3.32535 -2.36399 0
M  V30 9241 H 926.007 2.59178 -3.25269 0
M  V30 9242 H 924.584 3.37063 -1.59508 0
M  V30 9243 N 926.769 1.22769 0.988202 0
M  V30 9244 C 927.701 0.959757 2.08138 0
M  V30 9245 C 928.714 -0.0633787 1.62677 0
M  V30 9246 O 929.903 0.171203 1.77677 0
M  V30 9247 C 927.003 0.422724 3.36253 0
M  V30 9248 C 926.176 1.50419 4.10722 0
M  V30 9249 C 925.235 0.973407 5.17118 0
M  V30 9250 O 924.261 1.66066 5.44436 0
M  V30 9251 N 925.463 -0.202787 5.80146 0
M  V30 9252 H 928.228 1.9009 2.31702 0
M  V30 9253 H 925.789 1.13522 1.15431 0
M  V30 9254 H 927.781 0.0528514 4.04665 0
M  V30 9255 H 926.351 -0.423642 3.09716 0
M  V30 9256 H 925.571 2.04718 3.36874 0
M  V30 9257 H 926.859 2.23169 4.57245 0
M  V30 9258 H 926.257 -0.777856 5.60327 0
M  V30 9259 H 924.814 -0.513998 6.4977 0
M  V30 9260 N 928.247 -1.18576 1.03814 0
M  V30 9261 C 929.157 -2.25778 0.637311 0
M  V30 9262 C 930.173 -1.7074 -0.335248 0
M  V30 9263 O 931.349 -2.00494 -0.19081 0
M  V30 9264 C 928.414 -3.467 0.00386953 0
M  V30 9265 C 927.475 -4.16881 1.02511 0
M  V30 9266 C 926.708 -5.32031 0.421802 0
M  V30 9267 O 926.931 -5.65142 -0.772699 0
M  V30 9268 O 925.865 -5.90826 1.14925 0
M  V30 9269 H 929.691 -2.62323 1.53037 0
M  V30 9270 H 927.276 -1.25609 0.80887 0
M  V30 9271 H 929.158 -4.19953 -0.348873 0
M  V30 9272 H 927.833 -3.11983 -0.863047 0
M  V30 9273 H 926.74 -3.45707 1.4296 0
M  V30 9274 H 928.073 -4.55592 1.86271 0
M  V30 9275 N 929.725 -0.817259 -1.34754 0
M  V30 9276 C 930.688 -0.240611 -2.27934 0
M  V30 9277 C 931.688 0.578219 -1.50044 0
M  V30 9278 O 932.878 0.395148 -1.69659 0
M  V30 9279 C 930.01 0.663318 -3.34384 0
M  V30 9280 H 931.203 -1.06257 -2.80445 0
M  V30 9281 H 928.756 -0.588697 -1.4479 0
M  V30 9282 H 929.491 1.50855 -2.87077 0
M  V30 9283 H 929.276 0.0777388 -3.92023 0
M  V30 9284 H 930.766 1.06076 -4.03903 0
M  V30 9285 N 931.203 1.46865 -0.571711 0
M  V30 9286 C 932.15 2.30189 0.167808 0
M  V30 9287 C 933.12 1.3995 0.89461 0
M  V30 9288 O 934.305 1.68905 0.887451 0
M  V30 9289 C 931.445 3.24205 1.1826 0
M  V30 9290 C 930.558 4.2954 0.460376 0
M  V30 9291 C 929.693 5.10693 1.46173 0
M  V30 9292 C 928.732 6.07788 0.725291 0
M  V30 9293 N 927.869 6.81847 1.67417 0
M  V30 9294 H 932.709 2.92902 -0.548831 0
M  V30 9295 H 930.246 1.44362 -0.282474 0
M  V30 9296 H 932.204 3.77147 1.7837 0
M  V30 9297 H 930.834 2.63324 1.86709 0
M  V30 9298 H 929.886 3.79541 -0.255546 0
M  V30 9299 H 931.198 4.98665 -0.115855 0
M  V30 9300 H 930.352 5.67857 2.13595 0
M  V30 9301 H 929.091 4.41502 2.07188 0
M  V30 9302 H 928.096 5.49787 0.037228 0
M  V30 9303 H 929.321 6.78993 0.120678 0
M  V30 9304 H 927.267 6.15376 2.27263 0
M  V30 9305 H 927.184 7.47195 1.15046 0
M  V30 9306 H 928.452 7.43577 2.33908 0
M  V30 9307 N 932.681 0.308908 1.54543 0
M  V30 9308 C 933.929 -0.297447 1.99899 0
M  V30 9309 C 934.25 -1.53799 1.19878 0
M  V30 9310 O 933.52 -1.93639 0.29678 0
M  V30 9311 H 932.1 -0.112897 0.738419 0
M  V30 9312 H 934.762 0.422067 1.90275 0
M  V30 9313 H 933.858 -0.564016 3.06961 0
M  V30 9314 N 934.159 -1.57557 0.0367827 0
M  V30 9315 C 935.107 -2.11844 -0.960454 0
M  V30 9316 C 936.101 -1.04681 -1.33185 0
M  V30 9317 O 937.307 -1.23108 -1.31318 0
M  V30 9318 H 933.682 -0.676921 -0.32754 0
M  V30 9319 H 935.653 -2.94557 -0.477346 0
M  V30 9320 C 934.402 -2.66683 -2.23105 0
M  V30 9321 H 933.725 -3.48795 -1.95403 0
M  V30 9322 H 935.165 -3.08305 -2.91074 0
M  V30 9323 C 933.624 -1.59782 -2.96599 0
M  V30 9324 O 934.154 -1.00214 -3.88999 0
M  V30 9325 N 932.36 -1.31644 -2.59072 0
M  V30 9326 H 931.907 -1.80272 -1.8401 0
M  V30 9327 H 931.865 -0.603457 -3.08554 0
M  V30 9328 N 935.637 0.236453 -1.55816 0
M  V30 9329 C 936.584 1.29289 -1.91188 0
M  V30 9330 C 937.554 1.47315 -0.767301 0
M  V30 9331 O 938.739 1.61128 -1.02189 0
M  V30 9332 C 935.879 2.64126 -2.22107 0
M  V30 9333 C 934.992 2.54022 -3.49423 0
M  V30 9334 C 934.127 3.81282 -3.69861 0
M  V30 9335 C 933.166 3.65839 -4.90743 0
M  V30 9336 N 932.303 4.85014 -5.07647 0
M  V30 9337 H 937.143 0.98424 -2.81277 0
M  V30 9338 H 934.68 0.474722 -1.39229 0
M  V30 9339 H 936.638 3.42626 -2.3804 0
M  V30 9340 H 935.268 2.93118 -1.35209 0
M  V30 9341 H 934.32 1.67036 -3.41765 0
M  V30 9342 H 935.632 2.38525 -4.38072 0
M  V30 9343 H 934.786 4.68226 -3.8581 0
M  V30 9344 H 933.525 3.99688 -2.79465 0
M  V30 9345 H 932.53 2.77279 -4.74759 0
M  V30 9346 H 933.755 3.48918 -5.82609 0
M  V30 9347 H 931.701 5.03762 -4.20191 0
M  V30 9348 H 931.618 4.72188 -5.90402 0
M  V30 9349 H 932.886 5.73427 -5.28017 0
M  V30 9350 N 937.115 1.49373 0.502552 0
M  V30 9351 C 938.355 1.60398 1.26696 0
M  V30 9352 C 938.719 0.283599 1.89894 0
M  V30 9353 O 939.92 0.269022 2.6745 0
M  V30 9354 C 938.191 2.72998 2.30666 0
M  V30 9355 S 939.75 3.03964 3.16466 0
M  V30 9356 H 936.568 0.565781 0.430596 0
M  V30 9357 H 939.17 1.87024 0.569418 0
M  V30 9358 H 937.874 3.67458 1.82765 0
M  V30 9359 H 937.405 2.4836 3.05091 0
M  V30 9360 H 939.42 2.45367 4.31288 0
M  V30 9361 N 938.594 -0.753485 1.38421 0
M  V30 9362 C 939.819 -1.54783 1.38047 0
M  V30 9363 C 940.244 -1.8808 -0.0276371 0
M  V30 9364 O 939.602 -1.5058 -1.00973 0
M  V30 9365 C 939.65 -2.82353 2.24297 0
M  V30 9366 O 938.754 -3.77509 1.66014 0
M  V30 9367 H 938.095 -0.468151 0.470883 0
M  V30 9368 H 940.625 -0.931144 1.82184 0
M  V30 9369 H 940.635 -3.31277 2.38159 0
M  V30 9370 H 939.31 -2.57449 3.26639 0
M  V30 9371 H 937.887 -3.36212 1.61294 0
M  V30 9372 N 940.072 -1.23292 -0.981677 0
M  V30 9373 C 941.022 -0.980133 -2.05858 0
M  V30 9374 C 942.006 0.0734044 -1.60732 0
M  V30 9375 O 943.198 -0.138561 -1.76457 0
M  V30 9376 C 940.327 -0.571879 -3.38503 0
M  V30 9377 C 939.413 -1.66075 -3.90231 0
M  V30 9378 N 939.804 -2.89077 -4.15052 0
M  V30 9379 C 938.102 -1.53503 -4.18751 0
M  V30 9380 C 938.803 -3.59567 -4.5726 0
M  V30 9381 N 937.779 -2.87076 -4.61615 0
M  V30 9382 H 941.581 -1.91432 -2.23005 0
M  V30 9383 H 939.095 -1.13211 -1.16434 0
M  V30 9384 H 941.092 -0.372059 -4.15236 0
M  V30 9385 H 939.752 0.355278 -3.2275 0
M  V30 9386 H 940.763 -3.25395 -4.02912 0
M  V30 9387 H 937.44 -0.674891 -4.12009 0
M  V30 9388 H 938.83 -4.65007 -4.84993 0
M  V30 9389 N 941.55 1.18024 -1.04442 0
M  V30 9390 C 942.797 1.88098 -0.750022 0
M  V30 9391 C 943.125 1.80583 0.722489 0
M  V30 9392 O 942.38 1.20329 1.54335 0
M  V30 9393 C 942.679 3.37834 -1.16631 0
M  V30 9394 C 942.345 3.65553 -2.63974 0
M  V30 9395 C 941.007 3.72827 -3.04226 0
M  V30 9396 C 943.359 3.77634 -3.59224 0
M  V30 9397 C 940.687 3.89666 -4.38608 0
M  V30 9398 C 943.039 3.9599 -4.9333 0
M  V30 9399 C 941.703 4.01501 -5.33248 0
M  V30 9400 H 940.973 0.6883 -0.274452 0
M  V30 9401 H 943.62 1.39671 -1.31012 0
M  V30 9402 H 941.925 3.88266 -0.525071 0
M  V30 9403 H 943.622 3.90402 -0.915827 0
M  V30 9404 H 940.212 3.6051 -2.31798 0
M  V30 9405 H 944.396 3.71342 -3.2927 0
M  V30 9406 H 939.652 3.92178 -4.69048 0
M  V30 9407 H 943.826 4.0428 -5.67037 0
M  V30 9408 H 941.453 4.14301 -6.37384 0
M  V30 9409 N 943.028 0.824394 1.34319 0
M  V30 9410 C 944.275 0.413167 1.9824 0
M  V30 9411 C 944.603 -1.02412 1.65354 0
M  V30 9412 O 943.858 -1.72831 0.91803 0
M  V30 9413 C 944.157 0.564024 3.52921 0
M  V30 9414 C 943.823 1.96725 4.05722 0
M  V30 9415 C 942.485 2.35111 4.19853 0
M  V30 9416 C 944.837 2.88447 4.34106 0
M  V30 9417 C 942.165 3.64551 4.59695 0
M  V30 9418 C 944.517 4.17353 4.75394 0
M  V30 9419 C 943.181 4.55714 4.8773 0
M  V30 9420 H 942.451 0.151188 0.725412 0
M  V30 9421 H 945.098 1.04863 1.60238 0
M  V30 9422 H 943.403 -0.154816 3.91494 0
M  V30 9423 H 945.1 0.226347 4.00361 0
M  V30 9424 H 941.69 1.65908 3.95187 0
M  V30 9425 H 945.874 2.60034 4.22725 0
M  V30 9426 H 941.13 3.94097 4.67437 0
M  V30 9427 H 945.304 4.88512 4.96315 0
M  V30 9428 H 942.931 5.56064 5.1836 0
M  V30 9429 N 944.506 -1.46559 0.579492 0
M  V30 9430 C 945.438 -2.28383 -0.19337 0
M  V30 9431 C 946.451 -1.38324 -0.858511 0
M  V30 9432 O 947.64 -1.62952 -0.728615 0
M  V30 9433 C 944.74 -3.13262 -1.29306 0
M  V30 9434 C 943.913 -4.31426 -0.720459 0
M  V30 9435 C 942.972 -4.97728 -1.70744 0
M  V30 9436 O 941.998 -5.55423 -1.24476 0
M  V30 9437 N 943.2 -4.94445 -3.04146 0
M  V30 9438 H 945.965 -2.95353 0.508611 0
M  V30 9439 H 943.526 -1.56436 0.417046 0
M  V30 9440 H 945.518 -3.54483 -1.95254 0
M  V30 9441 H 944.088 -2.48388 -1.89795 0
M  V30 9442 H 943.308 -3.94028 0.116398 0
M  V30 9443 H 944.596 -5.07808 -0.31763 0
M  V30 9444 H 943.994 -4.4881 -3.44363 0
M  V30 9445 H 942.551 -5.39616 -3.65592 0
M  V30 9446 N 945.984 -0.3171 -1.54377 0
M  V30 9447 C 946.914 0.544623 -2.2706 0
M  V30 9448 C 947.895 1.12469 -1.27611 0
M  V30 9449 O 949.08 1.15103 -1.56413 0
M  V30 9450 C 946.21 1.70879 -3.02353 0
M  V30 9451 C 945.164 1.25833 -4.09084 0
M  V30 9452 C 944.49 2.50894 -4.72182 0
M  V30 9453 C 945.79 0.377876 -5.20931 0
M  V30 9454 H 947.484 -0.0616372 -2.99337 0
M  V30 9455 H 945.03 -0.0310848 -1.43966 0
M  V30 9456 H 946.983 2.31787 -3.51927 0
M  V30 9457 H 945.707 2.34155 -2.27682 0
M  V30 9458 H 944.366 0.672228 -3.60384 0
M  V30 9459 H 944.014 3.12518 -3.94134 0
M  V30 9460 H 943.714 2.21447 -5.44275 0
M  V30 9461 H 945.238 3.12575 -5.24528 0
M  V30 9462 H 946.652 0.893056 -5.66302 0
M  V30 9463 H 945.049 0.176474 -5.9984 0
M  V30 9464 H 946.119 -0.592943 -4.81261 0
M  V30 9465 N 947.462 1.57535 -0.0451378 0
M  V30 9466 C 948.409 2.11176 0.931313 0
M  V30 9467 C 949.379 1.01765 1.31275 0
M  V30 9468 O 950.564 1.29279 1.40327 0
M  V30 9469 C 947.704 2.65639 2.20295 0
M  V30 9470 C 946.817 3.89114 1.87654 0
M  V30 9471 C 945.952 4.31914 3.09232 0
M  V30 9472 C 944.991 5.48105 2.72484 0
M  V30 9473 N 944.128 5.85986 3.86736 0
M  V30 9474 H 948.968 2.94318 0.466986 0
M  V30 9475 H 946.505 1.45462 0.218886 0
M  V30 9476 H 948.463 2.95312 2.94697 0
M  V30 9477 H 947.093 1.85303 2.64316 0
M  V30 9478 H 946.145 3.6607 1.03427 0
M  V30 9479 H 947.457 4.7358 1.56601 0
M  V30 9480 H 946.611 4.63108 3.91939 0
M  V30 9481 H 945.35 3.46247 3.43459 0
M  V30 9482 H 944.355 5.16589 1.88192 0
M  V30 9483 H 945.58 6.35482 2.39455 0
M  V30 9484 H 943.526 5.03273 4.20775 0
M  V30 9485 H 943.443 6.65129 3.5936 0
M  V30 9486 H 944.711 6.21793 4.701 0
M  V30 9487 N 948.94 -0.228186 1.55939 0
M  V30 9488 C 949.888 -1.30239 1.92719 0
M  V30 9489 C 950.882 -1.48865 0.808424 0
M  V30 9490 O 952.088 -1.50118 0.993204 0
M  V30 9491 H 948.463 -0.436509 0.612343 0
M  V30 9492 H 950.434 -0.964965 2.82367 0
M  V30 9493 C 949.183 -2.647 2.25453 0
M  V30 9494 H 948.506 -2.51173 3.1105 0
M  V30 9495 H 949.946 -3.38691 2.55077 0
M  V30 9496 C 948.405 -3.1921 1.07734 0
M  V30 9497 O 948.935 -4.00301 0.335019 0
M  V30 9498 N 947.141 -2.77492 0.862938 0
M  V30 9499 H 946.688 -2.11657 1.4683 0
M  V30 9500 H 946.646 -3.14306 0.0770119 0
M  V30 9501 N 950.418 -1.49637 -0.494624 0
M  V30 9502 C 951.667 -1.58691 -1.24499 0
M  V30 9503 C 951.98 -0.281763 -1.9356 0
M  V30 9504 O 953.186 -0.250925 -2.70338 0
M  V30 9505 C 951.642 -2.8002 -2.26091 0
M  V30 9506 C 951.25 -4.17318 -1.6294 0
M  V30 9507 C 952.994 -2.98407 -3.01916 0
M  V30 9508 C 950.901 -5.29862 -2.62679 0
M  V30 9509 H 949.831 -0.590888 -0.468367 0
M  V30 9510 H 952.482 -1.76034 -0.518112 0
M  V30 9511 H 950.864 -2.56185 -3.01969 0
M  V30 9512 H 952.038 -4.51315 -0.930108 0
M  V30 9513 H 950.353 -4.04342 -0.994819 0
M  V30 9514 H 952.95 -3.79658 -3.76516 0
M  V30 9515 H 953.293 -2.09214 -3.5991 0
M  V30 9516 H 953.826 -3.22312 -2.33152 0
M  V30 9517 H 950.565 -6.21134 -2.09458 0
M  V30 9518 H 950.085 -5.00311 -3.3083 0
M  V30 9519 H 951.764 -5.59461 -3.2498 0
M  V30 9520 N 951.896 0.746133 -1.38819 0
M  V30 9521 C 953.121 1.54049 -1.38866 0
M  V30 9522 C 953.546 1.88092 0.0176624 0
M  V30 9523 O 952.904 1.51113 1.00173 0
M  V30 9524 C 952.952 2.8116 -2.25791 0
M  V30 9525 O 952.056 3.76623 -1.68014 0
M  V30 9526 H 951.397 0.465648 -0.473359 0
M  V30 9527 H 953.927 0.921469 -1.82675 0
M  V30 9528 H 953.937 3.30009 -2.39913 0
M  V30 9529 H 952.612 2.55713 -3.27999 0
M  V30 9530 H 951.189 3.35352 -1.63074 0
M  V30 9531 N 953.375 1.23811 0.975125 0
M  V30 9532 C 954.622 1.07336 1.71712 0
M  V30 9533 C 954.95 -0.388954 1.90571 0
M  V30 9534 O 954.205 -1.30409 1.45918 0
M  V30 9535 C 954.504 1.74994 3.11628 0
M  V30 9536 C 954.17 3.24918 3.12632 0
M  V30 9537 C 952.832 3.65822 3.12614 0
M  V30 9538 C 955.184 4.20797 3.07538 0
M  V30 9539 C 952.512 5.01054 3.05224 0
M  V30 9540 C 954.864 5.56027 3.0169 0
M  V30 9541 C 953.528 5.96287 2.99996 0
M  V30 9542 H 952.798 0.392771 0.62834 0
M  V30 9543 H 955.445 1.53815 1.14075 0
M  V30 9544 H 953.75 1.20889 3.72684 0
M  V30 9545 H 955.447 1.5972 3.67819 0
M  V30 9546 H 952.037 2.92359 3.13407 0
M  V30 9547 H 956.221 3.902 3.06688 0
M  V30 9548 H 951.477 5.31454 3.02268 0
M  V30 9549 H 955.651 6.3003 2.96706 0
M  V30 9550 H 953.278 7.01037 2.94025 0
M  V30 9551 N 954.853 -1.17469 1.05066 0
M  V30 9552 C 956.093 -1.89382 0.769012 0
M  V30 9553 C 956.457 -1.79126 -0.691217 0
M  V30 9554 O 957.658 -2.45845 -1.08692 0
M  V30 9555 C 955.929 -3.35397 1.23465 0
M  V30 9556 S 957.488 -4.25297 1.08018 0
M  V30 9557 H 954.306 -0.653839 0.279312 0
M  V30 9558 H 956.908 -1.41877 1.34503 0
M  V30 9559 H 955.612 -3.40395 2.29258 0
M  V30 9560 H 955.143 -3.87945 0.652853 0
M  V30 9561 H 957.158 -4.962 0.00358573 0
M  V30 9562 N 956.331 -0.831506 -1.3388 0
M  V30 9563 C 957.579 -0.422837 -1.97627 0
M  V30 9564 C 957.9 1.01961 -1.6622 0
M  V30 9565 O 957.17 1.70916 -0.957323 0
M  V30 9566 H 955.75 -0.153365 -0.731087 0
M  V30 9567 H 958.412 -1.06284 -1.6337 0
M  V30 9568 H 957.508 -0.548858 -3.07236 0
M  V30 9569 N 957.809 1.4625 -0.587256 0
M  V30 9570 C 959.039 2.06444 -0.0802135 0
M  V30 9571 C 959.447 1.43585 1.23207 0
M  V30 9572 O 958.79 0.536956 1.75677 0
M  V30 9573 C 958.852 3.59165 0.155129 0
M  V30 9574 C 958.516 4.44243 -1.07225 0
M  V30 9575 C 959.513 4.80497 -1.98542 0
M  V30 9576 C 957.198 4.8531 -1.29537 0
M  V30 9577 C 959.192 5.56649 -3.10516 0
M  V30 9578 C 956.879 5.61221 -2.41815 0
M  V30 9579 C 957.877 5.96805 -3.32134 0
M  V30 9580 O 957.565 6.71181 -4.42461 0
M  V30 9581 H 957.297 0.673626 -0.0566063 0
M  V30 9582 H 959.851 1.88797 -0.809004 0
M  V30 9583 H 958.081 3.75137 0.938583 0
M  V30 9584 H 959.77 4.01271 0.611243 0
M  V30 9585 H 960.536 4.49345 -1.82522 0
M  V30 9586 H 956.415 4.5706 -0.601431 0
M  V30 9587 H 959.959 5.84343 -3.81037 0
M  V30 9588 H 955.856 5.91786 -2.57797 0
M  V30 9589 H 956.624 6.8961 -4.40886 0
M  V30 9590 N 959.287 0.325282 1.54207 0
M  V30 9591 C 960.237 -0.55548 2.2113 0
M  V30 9592 C 961.221 -1.0803 1.19241 0
M  V30 9593 O 962.413 -1.01703 1.44864 0
M  V30 9594 C 959.542 -1.71504 2.97391 0
M  V30 9595 C 958.628 -1.20503 4.0662 0
M  V30 9596 N 959.019 -0.414838 5.04096 0
M  V30 9597 C 957.317 -1.4836 4.20601 0
M  V30 9598 C 958.018 -0.140225 5.81531 0
M  V30 9599 N 956.994 -0.72683 5.38719 0
M  V30 9600 H 960.796 0.0555192 2.93848 0
M  V30 9601 H 958.31 0.131225 1.61869 0
M  V30 9602 H 960.307 -2.35781 3.43821 0
M  V30 9603 H 958.967 -2.3295 2.26195 0
M  V30 9604 H 959.978 -0.0575291 5.17868 0
M  V30 9605 H 956.655 -2.10378 3.60621 0
M  V30 9606 H 958.045 0.496026 6.70067 0
M  V30 9607 N 960.765 -1.57509 0.0534917 0
M  V30 9608 C 962.176 -1.80374 -0.481867 0
M  V30 9609 C 962.527 -0.965917 -1.70776 0
M  V30 9610 O 961.652 -0.183167 -2.15623 0
M  V30 9611 C 962.247 -3.27146 -0.880978 0
M  V30 9612 C 960.806 -3.50921 -1.3613 0
M  V30 9613 C 959.953 -2.75237 -0.337611 0
M  V30 9614 H 962.904 -1.56222 0.279353 0
M  V30 9615 H 962.925 -3.38193 -1.74373 0
M  V30 9616 H 962.437 -3.88098 0.011441 0
M  V30 9617 H 960.538 -2.95251 -2.27283 0
M  V30 9618 H 960.651 -4.59632 -1.35186 0
M  V30 9619 H 959.015 -2.41444 -0.810991 0
M  V30 9620 H 959.798 -3.38918 0.546763 0
M  V30 9621 N 962.243 0.219913 -1.56058 0
M  V30 9622 C 963.19 1.27254 -1.92549 0
M  V30 9623 C 964.16 1.46493 -0.782883 0
M  V30 9624 O 965.345 1.60035 -1.03892 0
M  V30 9625 C 962.485 2.61756 -2.24896 0
M  V30 9626 C 961.598 2.50302 -3.52098 0
M  V30 9627 C 960.733 3.77338 -3.73884 0
M  V30 9628 C 959.772 3.60613 -4.94595 0
M  V30 9629 N 958.909 4.79603 -5.12763 0
M  V30 9630 H 963.749 0.954352 -2.82305 0
M  V30 9631 H 961.286 0.459928 -1.39725 0
M  V30 9632 H 963.244 3.40082 -2.4166 0
M  V30 9633 H 961.874 2.91668 -1.38311 0
M  V30 9634 H 960.926 1.63401 -3.43517 0
M  V30 9635 H 962.238 2.33866 -4.40577 0
M  V30 9636 H 961.392 4.64108 -3.90754 0
M  V30 9637 H 960.131 3.96702 -2.83689 0
M  V30 9638 H 959.136 2.72228 -4.77674 0
M  V30 9639 H 960.361 3.42719 -5.86277 0
M  V30 9640 H 958.307 4.99277 -4.2551 0
M  V30 9641 H 958.224 4.65899 -5.95377 0
M  V30 9642 H 959.492 5.67794 -5.34069 0
M  V30 9643 N 963.721 1.49897 0.486681 0
M  V30 9644 C 964.669 1.68125 1.60738 0
M  V30 9645 C 965.663 0.547097 1.60322 0
M  V30 9646 O 966.869 0.727153 1.64659 0
M  V30 9647 H 963.244 0.530391 0.533094 0
M  V30 9648 H 965.215 2.62165 1.42521 0
M  V30 9649 C 963.964 1.77827 2.98786 0
M  V30 9650 H 963.287 2.6448 2.99818 0
M  V30 9651 H 964.727 1.94611 3.76699 0
M  V30 9652 C 963.186 0.526287 3.32764 0
M  V30 9653 O 963.716 -0.341607 4.00245 0
M  V30 9654 N 961.922 0.384947 2.88039 0
M  V30 9655 H 961.469 1.09222 2.33299 0
M  V30 9656 H 961.427 -0.451618 3.11139 0
M  V30 9657 N 965.199 -0.738761 1.39212 0
M  V30 9658 C 966.147 -1.8741 1.3777 0
M  V30 9659 C 967.141 -1.67371 0.261375 0
M  V30 9660 O 968.347 -1.74759 0.431209 0
M  V30 9661 H 964.722 -0.616843 0.430126 0
M  V30 9662 H 966.693 -1.85742 2.33543 0
M  V30 9663 C 965.442 -3.25053 1.23433 0
M  V30 9664 H 964.765 -3.41066 2.086 0
M  V30 9665 H 966.205 -4.04696 1.2648 0
M  V30 9666 C 964.664 -3.36851 -0.0575624 0
M  V30 9667 O 965.194 -3.88293 -1.02915 0
M  V30 9668 N 963.4 -2.90355 -0.119364 0
M  V30 9669 H 962.947 -2.48681 0.671976 0
M  V30 9670 H 962.905 -2.98628 -0.983286 0
M  V30 9671 N 966.677 -1.24326 -0.968545 0
M  V30 9672 C 967.624 -1.0349 -2.06297 0
M  V30 9673 C 968.594 0.0515333 -1.6602 0
M  V30 9674 O 969.779 -0.102924 -1.90522 0
M  V30 9675 C 966.919 -0.64487 -3.39021 0
M  V30 9676 C 966.032 -1.80469 -3.92498 0
M  V30 9677 C 965.167 -1.36032 -5.13487 0
M  V30 9678 C 964.206 -2.49014 -5.59159 0
M  V30 9679 N 963.343 -2.05451 -6.71367 0
M  V30 9680 H 968.183 -1.97161 -2.23454 0
M  V30 9681 H 965.72 -0.982028 -1.0952 0
M  V30 9682 H 967.678 -0.399771 -4.1528 0
M  V30 9683 H 966.308 0.254845 -3.21792 0
M  V30 9684 H 965.36 -2.16348 -3.12886 0
M  V30 9685 H 966.672 -2.65365 -4.22354 0
M  V30 9686 H 965.826 -1.07405 -5.97117 0
M  V30 9687 H 964.565 -0.481887 -4.85313 0
M  V30 9688 H 963.57 -2.78402 -4.74102 0
M  V30 9689 H 964.795 -3.37413 -5.89346 0
M  V30 9690 H 962.741 -1.20004 -6.4493 0
M  V30 9691 H 962.658 -2.83901 -7.00668 0
M  V30 9692 H 963.926 -1.79962 -7.58442 0
M  V30 9693 N 968.156 1.1691 -1.05688 0
M  V30 9694 C 969.386 1.90927 -0.789339 0
M  V30 9695 C 969.794 1.77339 0.659369 0
M  V30 9696 O 969.137 1.11147 1.4626 0
M  V30 9697 C 969.199 3.42361 -1.09677 0
M  V30 9698 C 968.863 3.79733 -2.54267 0
M  V30 9699 C 969.86 3.82163 -3.52487 0
M  V30 9700 C 967.545 4.10547 -2.89406 0
M  V30 9701 C 969.539 4.14884 -4.8389 0
M  V30 9702 C 967.226 4.42936 -4.21011 0
M  V30 9703 C 968.224 4.45084 -5.18063 0
M  V30 9704 O 967.912 4.76707 -6.47307 0
M  V30 9705 H 967.644 0.612466 -0.286115 0
M  V30 9706 H 970.198 1.4916 -1.4121 0
M  V30 9707 H 968.428 3.84446 -0.416924 0
M  V30 9708 H 970.117 3.97645 -0.814456 0
M  V30 9709 H 970.883 3.58476 -3.26681 0
M  V30 9710 H 966.762 4.08044 -2.14525 0
M  V30 9711 H 970.306 4.16475 -5.59638 0
M  V30 9712 H 966.203 4.66088 -4.46579 0
M  V30 9713 H 966.971 4.94544 -6.52203 0
M  V30 9714 N 969.634 0.838594 1.33437 0
M  V30 9715 C 970.881 0.434169 1.97791 0
M  V30 9716 C 971.209 -1.00652 1.66431 0
M  V30 9717 O 970.464 -1.71848 0.936309 0
M  V30 9718 C 970.763 0.601425 3.52303 0
M  V30 9719 C 970.429 2.01017 4.03612 0
M  V30 9720 C 969.091 2.39551 4.17336 0
M  V30 9721 C 971.443 2.93035 4.31022 0
M  V30 9722 C 968.771 3.69406 4.55802 0
M  V30 9723 C 971.123 4.22372 4.7094 0
M  V30 9724 C 969.787 4.60862 4.82869 0
M  V30 9725 H 969.057 0.158874 0.723768 0
M  V30 9726 H 971.704 1.06556 1.59116 0
M  V30 9727 H 970.009 -0.113284 3.91636 0
M  V30 9728 H 971.706 0.268798 4.00098 0
M  V30 9729 H 968.296 1.7009 3.93405 0
M  V30 9730 H 972.48 2.64503 4.19943 0
M  V30 9731 H 967.736 3.99033 4.63231 0
M  V30 9732 H 971.91 4.93749 4.91106 0
M  V30 9733 H 969.537 5.6153 5.12433 0
M  V30 9734 N 971.112 -1.45937 0.595003 0
M  V30 9735 C 972.36 -2.01921 0.0851368 0
M  V30 9736 C 972.681 -1.46748 -1.28413 0
M  V30 9737 O 971.951 -0.656873 -1.84559 0
M  V30 9738 H 970.531 -0.746457 0.0284826 0
M  V30 9739 H 973.193 -1.78891 0.773561 0
M  V30 9740 H 972.289 -3.1209 0.0254002 0
M  V30 9741 N 972.59 -0.333456 -1.54032 0
M  V30 9742 C 973.837 0.266133 -2.00744 0
M  V30 9743 C 974.165 1.51361 -1.22148 0
M  V30 9744 O 973.42 1.93473 -0.294368 0
M  V30 9745 C 973.719 0.63565 -3.51702 0
M  V30 9746 C 973.385 -0.513786 -4.47963 0
M  V30 9747 C 972.047 -0.829253 -4.74001 0
M  V30 9748 C 974.399 -1.2854 -5.05101 0
M  V30 9749 C 971.727 -1.91888 -5.54433 0
M  V30 9750 C 974.079 -2.3652 -5.86721 0
M  V30 9751 C 972.743 -2.68637 -6.11057 0
M  V30 9752 H 972.013 0.097385 -0.734573 0
M  V30 9753 H 974.66 -0.459282 -1.85911 0
M  V30 9754 H 972.965 1.44163 -3.64313 0
M  V30 9755 H 974.662 1.11129 -3.85294 0
M  V30 9756 H 971.252 -0.25784 -4.27824 0
M  V30 9757 H 975.436 -1.05494 -4.84958 0
M  V30 9758 H 970.692 -2.17208 -5.71516 0
M  V30 9759 H 974.866 -2.96747 -6.30011 0
M  V30 9760 H 972.493 -3.53197 -6.73169 0
M  V30 9761 N 974.068 1.57479 -0.061844 0
M  V30 9762 C 975.317 1.92285 0.609055 0
M  V30 9763 C 975.63 0.942983 1.71369 0
M  V30 9764 O 976.836 1.18349 2.44348 0
M  V30 9765 C 975.292 3.41545 1.13468 0
M  V30 9766 C 974.9 4.47958 0.0615926 0
M  V30 9767 C 976.644 3.85368 1.78022 0
M  V30 9768 C 974.551 5.88341 0.600705 0
M  V30 9769 H 973.481 0.717656 0.23127 0
M  V30 9770 H 976.132 1.83021 -0.132466 0
M  V30 9771 H 974.514 3.45848 1.92886 0
M  V30 9772 H 975.688 4.55258 -0.712527 0
M  V30 9773 H 974.003 4.13541 -0.487116 0
M  V30 9774 H 976.6 4.87627 2.19371 0
M  V30 9775 H 976.943 3.22193 2.63623 0
M  V30 9776 H 977.476 3.83626 1.05242 0
M  V30 9777 H 974.215 6.55138 -0.217922 0
M  V30 9778 H 973.735 5.84581 1.34257 0
M  V30 9779 H 975.414 6.37918 1.08025 0
M  V30 9780 N 975.546 -0.211634 1.56173 0
M  V30 9781 C 976.774 -0.951184 1.83739 0
M  V30 9782 C 977.189 -1.7754 0.642252 0
M  V30 9783 O 976.546 -1.78302 -0.389174 0
M  V30 9784 C 976.597 -1.86075 3.09933 0
M  V30 9785 O 976.318 -1.06983 4.24837 0
M  V30 9786 C 977.819 -2.71337 3.50559 0
M  V30 9787 H 975.039 -0.278312 0.61056 0
M  V30 9788 H 977.583 -0.223871 2.03271 0
M  V30 9789 H 975.738 -2.54189 2.92347 0
M  V30 9790 H 976.152 -1.68815 4.9659 0
M  V30 9791 H 977.626 -3.30843 4.41868 0
M  V30 9792 H 978.103 -3.44226 2.72773 0
M  V30 9793 H 978.709 -2.0862 3.70618 0
M  V30 9794 N 977.024 -1.50153 -0.478725 0
M  V30 9795 C 977.971 -1.68458 -1.57767 0
M  V30 9796 C 978.941 -0.5259 -1.57555 0
M  V30 9797 O 980.126 -0.755574 -1.75202 0
M  V30 9798 C 977.266 -1.77772 -2.95789 0
M  V30 9799 C 976.379 -3.05092 -3.05848 0
M  V30 9800 C 975.514 -3.05247 -4.34739 0
M  V30 9801 C 974.553 -4.27053 -4.38512 0
M  V30 9802 N 973.69 -4.24991 -5.58862 0
M  V30 9803 H 978.53 -2.62282 -1.41464 0
M  V30 9804 H 976.067 -1.30023 -0.687921 0
M  V30 9805 H 978.025 -1.81152 -3.75819 0
M  V30 9806 H 976.655 -0.873944 -3.10744 0
M  V30 9807 H 975.707 -3.11219 -2.1874 0
M  V30 9808 H 977.019 -3.95075 -3.04495 0
M  V30 9809 H 976.173 -3.07314 -5.23109 0
M  V30 9810 H 974.912 -2.13081 -4.38689 0
M  V30 9811 H 973.917 -4.25206 -3.4854 0
M  V30 9812 H 975.142 -5.20437 -4.36259 0
M  V30 9813 H 973.088 -3.35674 -5.63612 0
M  V30 9814 H 973.005 -5.08734 -5.59219 0
M  V30 9815 H 974.273 -4.31193 -6.49379 0
M  V30 9816 N 978.502 0.731368 -1.39602 0
M  V30 9817 C 979.452 1.83662 -1.35101 0
M  V30 9818 C 980.436 1.5923 -0.231241 0
M  V30 9819 O 981.628 1.70671 -0.469072 0
M  V30 9820 C 978.757 3.21629 -1.20041 0
M  V30 9821 C 977.843 3.51878 -2.36733 0
M  V30 9822 N 978.234 3.53041 -3.6221 0
M  V30 9823 C 976.532 3.82259 -2.2977 0
M  V30 9824 C 977.233 3.81188 -4.39398 0
M  V30 9825 N 976.209 3.99145 -3.69031 0
M  V30 9826 H 980.011 1.82871 -2.30077 0
M  V30 9827 H 977.525 0.929777 -1.3315 0
M  V30 9828 H 979.522 4.00754 -1.14899 0
M  V30 9829 H 978.182 3.23656 -0.260184 0
M  V30 9830 H 979.193 3.34266 -3.95584 0
M  V30 9831 H 975.87 3.9187 -1.44029 0
M  V30 9832 H 977.26 3.88525 -5.48177 0
M  V30 9833 N 979.98 1.24838 0.961938 0
M  V30 9834 C 981.391 1.08369 1.5203 0
M  V30 9835 C 981.742 -0.343005 1.93178 0
M  V30 9836 O 980.867 -1.2321 1.779 0
M  V30 9837 C 981.462 1.96102 2.76278 0
M  V30 9838 C 980.021 1.8384 3.28451 0
M  V30 9839 C 979.168 1.9069 2.01327 0
M  V30 9840 H 982.119 1.38231 0.779613 0
M  V30 9841 H 982.14 1.4967 3.49827 0
M  V30 9842 H 981.652 2.99931 2.46298 0
M  V30 9843 H 979.753 0.828653 3.63269 0
M  V30 9844 H 979.866 2.68251 3.96961 0
M  V30 9845 H 978.23 1.34488 2.16299 0
M  V30 9846 H 979.013 2.96111 1.73705 0
M  V30 9847 N 981.458 -1.16348 1.06306 0
M  V30 9848 C 982.421 -2.18941 0.678053 0
M  V30 9849 C 983.421 -1.58409 -0.276277 0
M  V30 9850 O 984.611 -1.74101 -0.0586435 0
M  V30 9851 C 981.743 -3.409 -0.00228684 0
M  V30 9852 H 982.936 -2.54516 1.58624 0
M  V30 9853 H 980.489 -1.30625 0.858298 0
M  V30 9854 H 981.224 -3.10881 -0.923212 0
M  V30 9855 H 981.009 -3.86089 0.683949 0
M  V30 9856 H 982.499 -4.16806 -0.257374 0
M  V30 9857 N 982.937 -0.845659 -1.3299 0
M  V30 9858 C 984.214 -0.366306 -1.92139 0
M  V30 9859 C 984.594 1.14912 -1.77083 0
M  V30 9860 O 983.942 1.96667 -1.16338 0
M  V30 9861 C 984.152 -0.820716 -3.39213 0
M  V30 9862 C 985.5 -0.832667 -4.16355 0
M  V30 9863 O 986.524 -0.764764 -3.47893 0
M  V30 9864 O 985.383 -0.926658 -5.38586 0
M  V30 9865 H 982.477 -0.105063 -0.820299 0
M  V30 9866 H 985.023 -0.931962 -1.41819 0
M  V30 9867 H 983.795 -1.86357 -3.44074 0
M  V30 9868 H 983.418 -0.232009 -3.96923 0
M  V30 9869 N 984.415 1.45619 -0.602734 0
M  V30 9870 C 985.365 2.27568 0.140264 0
M  V30 9871 C 986.349 1.3704 0.84314 0
M  V30 9872 O 987.541 1.61067 0.733931 0
M  V30 9873 C 984.67 3.23812 1.14019 0
M  V30 9874 C 983.756 4.21828 0.438406 0
M  V30 9875 N 984.147 5.03148 -0.517245 0
M  V30 9876 C 982.445 4.40684 0.686588 0
M  V30 9877 C 983.146 5.74229 -0.929291 0
M  V30 9878 N 982.122 5.42909 -0.274086 0
M  V30 9879 H 985.924 2.87839 -0.5938 0
M  V30 9880 H 983.438 1.56712 -0.426033 0
M  V30 9881 H 985.435 3.8125 1.68684 0
M  V30 9882 H 984.095 2.65102 1.87486 0
M  V30 9883 H 985.106 5.1013 -0.893758 0
M  V30 9884 H 981.783 3.93102 1.4063 0
M  V30 9885 H 983.173 6.49586 -1.7172 0
M  V30 9886 N 985.893 0.34162 1.53853 0
M  V30 9887 C 987.309 -0.0103769 1.59597 0
M  V30 9888 C 987.509 -1.48897 1.35764 0
M  V30 9889 O 986.565 -2.24743 1.15095 0
M  V30 9890 C 987.878 0.424067 2.97695 0
M  V30 9891 C 989.426 0.376247 3.1073 0
M  V30 9892 C 989.901 0.786129 4.51203 0
M  V30 9893 N 991.392 0.74024 4.57247 0
M  V30 9894 C 992.127 1.02937 5.64085 0
M  V30 9895 N 991.623 1.38655 6.78783 0
M  V30 9896 N 993.416 0.953734 5.5395 0
M  V30 9897 H 985.567 1.30477 1.67599 0
M  V30 9898 H 987.83 0.531753 0.78482 0
M  V30 9899 H 987.536 1.45493 3.20195 0
M  V30 9900 H 987.41 -0.201713 3.7666 0
M  V30 9901 H 989.797 -0.645441 2.87955 0
M  V30 9902 H 989.878 1.0372 2.33828 0
M  V30 9903 H 989.522 1.80582 4.74713 0
M  V30 9904 H 989.452 0.102671 5.265 0
M  V30 9905 H 991.943 0.476763 3.7488 0
M  V30 9906 H 992.256 1.59206 7.56223 0
M  V30 9907 H 990.601 1.42498 6.80235 0
M  V30 9908 H 993.792 0.674044 4.63222 0
M  V30 9909 H 993.965 1.18241 6.37121 0
M  V30 9910 N 987.371 -1.57444 0.0701946 0
M  V30 9911 C 988.618 -1.93429 -0.59929 0
M  V30 9912 C 988.946 -0.9501 -1.69715 0
M  V30 9913 O 988.201 0.0345377 -1.9567 0
M  V30 9914 C 988.5 -3.36044 -1.21694 0
M  V30 9915 C 988.166 -4.50232 -0.245374 0
M  V30 9916 C 986.828 -4.81195 0.0219161 0
M  V30 9917 C 989.18 -5.1951 0.419396 0
M  V30 9918 C 986.508 -5.78775 0.96109 0
M  V30 9919 C 988.86 -6.18095 1.34688 0
M  V30 9920 C 987.524 -6.47477 1.62265 0
M  V30 9921 H 986.794 -0.707807 -0.219296 0
M  V30 9922 H 989.441 -1.90982 0.14073 0
M  V30 9923 H 987.746 -3.34948 -2.03265 0
M  V30 9924 H 989.443 -3.61176 -1.74221 0
M  V30 9925 H 986.033 -4.26082 -0.463887 0
M  V30 9926 H 990.217 -4.95785 0.226009 0
M  V30 9927 H 985.473 -5.99865 1.18202 0
M  V30 9928 H 989.647 -6.7088 1.86795 0
M  V30 9929 H 987.274 -7.229 2.352 0
M  V30 9930 N 988.849 0.203349 -1.56283 0
M  V30 9931 C 989.812 1.23566 -1.93039 0
M  V30 9932 C 990.812 1.38869 -0.810687 0
M  V30 9933 O 992.002 1.36822 -1.07821 0
M  V30 9934 C 989.134 2.60645 -2.1972 0
M  V30 9935 H 990.327 0.921692 -2.85385 0
M  V30 9936 H 987.88 0.44453 -1.49845 0
M  V30 9937 H 988.615 2.9711 -1.29985 0
M  V30 9938 H 988.4 2.50911 -3.01307 0
M  V30 9939 H 989.89 3.35103 -2.4919 0
M  V30 9940 N 990.327 1.50405 0.470755 0
M  V30 9941 C 991.567 1.63049 1.23266 0
M  V30 9942 C 991.931 0.323815 1.8925 0
M  V30 9943 O 993.132 0.325692 2.6682 0
M  V30 9944 C 991.403 2.7783 2.24823 0
M  V30 9945 S 992.962 3.10609 3.09948 0
M  V30 9946 H 989.78 0.574787 0.418499 0
M  V30 9947 H 992.382 1.8819 0.529619 0
M  V30 9948 H 991.086 3.71252 1.74929 0
M  V30 9949 H 990.617 2.54776 2.99755 0
M  V30 9950 H 992.632 2.5446 4.25987 0
M  V30 9951 N 991.805 -0.723954 1.39988 0
M  V30 9952 C 992.755 -1.82943 1.36073 0
M  V30 9953 C 993.739 -1.59105 0.239682 0
M  V30 9954 O 994.931 -1.7042 0.478116 0
M  V30 9955 C 992.06 -3.20988 1.21745 0
M  V30 9956 C 991.146 -3.50618 2.38596 0
M  V30 9957 N 991.537 -3.51115 3.64077 0
M  V30 9958 C 989.835 -3.81035 2.31794 0
M  V30 9959 C 990.536 -3.78852 4.41413 0
M  V30 9960 N 989.512 -3.97182 3.71143 0
M  V30 9961 H 993.314 -1.81649 2.31043 0
M  V30 9962 H 990.828 -0.922703 1.33641 0
M  V30 9963 H 992.825 -4.00139 1.17022 0
M  V30 9964 H 991.485 -3.23513 0.277344 0
M  V30 9965 H 992.496 -3.32163 3.97351 0
M  V30 9966 H 989.173 -3.911 1.46105 0
M  V30 9967 H 990.563 -3.85612 5.5023 0
M  V30 9968 N 993.283 -1.25346 -0.955304 0
M  V30 9969 C 994.529 -1.10218 -1.70235 0
M  V30 9970 C 994.862 0.356124 -1.90907 0
M  V30 9971 O 994.137 1.26253 -1.47954 0
M  V30 9972 C 994.42 -1.85627 -3.08569 0
M  V30 9973 C 994.273 -3.39281 -2.95311 0
M  V30 9974 C 995.592 -1.63886 -4.08448 0
M  V30 9975 H 992.711 -0.401781 -0.617852 0
M  V30 9976 H 995.353 -1.5417 -1.11048 0
M  V30 9977 H 993.503 -1.48269 -3.59094 0
M  V30 9978 H 995.175 -3.8631 -2.52116 0
M  V30 9979 H 993.418 -3.67027 -2.31244 0
M  V30 9980 H 994.089 -3.87258 -3.93364 0
M  V30 9981 H 996.565 -1.96406 -3.6683 0
M  V30 9982 H 995.441 -2.19087 -5.03281 0
M  V30 9983 H 995.702 -0.580021 -4.38279 0
M  V30 9984 N 994.761 1.15782 -1.06922 0
M  V30 9985 C 996.008 1.86465 -0.789752 0
M  V30 9986 C 996.336 1.82075 0.684022 0
M  V30 9987 O 995.591 1.23576 1.51748 0
M  V30 9988 C 995.89 3.35284 -1.2377 0
M  V30 9989 C 995.556 3.59871 -2.71668 0
M  V30 9990 C 994.218 3.6629 -3.12066 0
M  V30 9991 C 996.57 3.69929 -3.67154 0
M  V30 9992 C 993.898 3.80275 -4.46775 0
M  V30 9993 C 996.25 3.85436 -5.01619 0
M  V30 9994 C 994.914 3.901 -5.41644 0
M  V30 9995 H 994.184 0.682324 -0.288991 0
M  V30 9996 H 996.831 1.36861 -1.33945 0
M  V30 9997 H 995.136 3.87065 -0.607309 0
M  V30 9998 H 996.833 3.88371 -0.998431 0
M  V30 9999 H 993.423 3.55512 -2.39393 0
M  V30 10000 H 997.607 3.64274 -3.37073 0
M  V30 10001 H 992.863 3.8214 -4.77262 0
M  V30 10002 H 997.037 3.92161 -5.75485 0
M  V30 10003 H 994.664 4.00688 -6.46029 0
M  V30 10004 N 996.239 0.8527 1.3254 0
M  V30 10005 C 997.485 0.455798 1.97612 0
M  V30 10006 C 997.818 -0.985616 1.6733 0
M  V30 10007 O 997.093 -1.69129 0.960493 0
M  V30 10008 C 997.376 0.69312 3.53366 0
M  V30 10009 C 997.229 2.18281 3.93285 0
M  V30 10010 C 998.548 0.148236 4.3985 0
M  V30 10011 H 995.667 0.167078 0.717812 0
M  V30 10012 H 998.309 1.07076 1.56954 0
M  V30 10013 H 996.459 0.169677 3.88129 0
M  V30 10014 H 998.131 2.77218 3.68711 0
M  V30 10015 H 996.374 2.66206 3.42515 0
M  V30 10016 H 997.045 2.29957 5.01821 0
M  V30 10017 H 999.521 0.595834 4.11812 0
M  V30 10018 H 998.397 0.343873 5.47822 0
M  V30 10019 H 998.658 -0.948872 4.31797 0
M  V30 10020 N 997.718 -1.45297 0.610449 0
M  V30 10021 C 998.943 -2.07101 0.111414 0
M  V30 10022 C 999.368 -1.45161 -1.19625 0
M  V30 10023 O 998.726 -0.545368 -1.72903 0
M  V30 10024 C 998.774 -3.60598 -0.0117372 0
M  V30 10025 O 997.878 -3.98512 -1.06122 0
M  V30 10026 H 997.219 -0.659709 0.075364 0
M  V30 10027 H 999.749 -1.86504 0.841269 0
M  V30 10028 H 999.759 -4.07464 -0.209028 0
M  V30 10029 H 998.434 -4.05067 0.943076 0
M  V30 10030 H 997.011 -3.63312 -0.840158 0
M  V30 10031 N 999.196 -0.349774 -1.5367 0
M  V30 10032 C 1000.11 0.512421 -2.28935 0
M  V30 10033 C 1001.12 1.1065 -1.34286 0
M  V30 10034 O 1002.3 1.12084 -1.67329 0
M  V30 10035 C 999.363 1.64449 -3.05217 0
M  V30 10036 C 998.424 1.07956 -4.15505 0
M  V30 10037 C 997.657 2.15768 -4.88139 0
M  V30 10038 O 997.88 3.366 -4.60496 0
M  V30 10039 O 996.814 1.79712 -5.74445 0
M  V30 10040 H 1000.64 -0.0996001 -3.03537 0
M  V30 10041 H 998.225 -0.114629 -1.4896 0
M  V30 10042 H 1000.11 2.30302 -3.52901 0
M  V30 10043 H 998.782 2.24221 -2.33467 0
M  V30 10044 H 997.689 0.385381 -3.7211 0
M  V30 10045 H 999.022 0.526621 -4.89375 0
M  V30 10046 N 1000.67 1.57404 -0.0785433 0
M  V30 10047 C 1001.95 1.85163 0.630389 0
M  V30 10048 C 1002.33 0.972295 1.87376 0
M  V30 10049 O 1001.68 0.0403375 2.28464 0
M  V30 10050 C 1001.89 3.35491 0.961604 0
M  V30 10051 C 1003.24 4.0316 1.33219 0
M  V30 10052 O 1004.26 3.40276 1.05313 0
M  V30 10053 O 1003.12 5.14086 1.85412 0
M  V30 10054 H 1000.21 0.765169 0.31376 0
M  V30 10055 H 1002.76 1.69343 -0.109986 0
M  V30 10056 H 1001.53 3.91221 0.0788113 0
M  V30 10057 H 1001.15 3.56598 1.75852 0
M  V30 10058 N 1002.15 -0.195058 1.56388 0
M  V30 10059 C 1003.38 -0.935745 1.85091 0
M  V30 10060 C 1003.8 -1.76061 0.662118 0
M  V30 10061 O 1003.16 -1.77076 -0.389083 0
M  V30 10062 C 1003.21 -1.80764 3.1202 0
M  V30 10063 O 1002.31 -2.90643 2.92575 0
M  V30 10064 H 1001.65 -0.26351 0.609474 0
M  V30 10065 H 1004.18 -0.200362 2.03617 0
M  V30 10066 H 1004.19 -2.21229 3.42815 0
M  V30 10067 H 1002.87 -1.20157 3.98165 0
M  V30 10068 H 1001.44 -2.53934 2.73079 0
M  V30 10069 N 1003.63 -1.50653 -0.462772 0
M  V30 10070 C 1004.86 -1.65826 -1.23731 0
M  V30 10071 C 1005.27 -0.345002 -1.85621 0
M  V30 10072 O 1004.63 0.673935 -1.69601 0
M  V30 10073 C 1004.68 -2.7555 -2.33997 0
M  V30 10074 O 1004.4 -4.01785 -1.74643 0
M  V30 10075 C 1005.9 -3.0177 -3.2473 0
M  V30 10076 H 1003.12 -0.557177 -0.373892 0
M  V30 10077 H 1005.67 -1.96925 -0.551434 0
M  V30 10078 H 1003.82 -2.47122 -2.98345 0
M  V30 10079 H 1004.24 -4.62529 -2.4732 0
M  V30 10080 H 1005.71 -3.82188 -3.98292 0
M  V30 10081 H 1006.19 -2.13167 -3.84001 0
M  V30 10082 H 1006.79 -3.31761 -2.66111 0
M  V30 10083 N 1005.11 0.71652 -1.4037 0
M  V30 10084 C 1006.06 1.8306 -1.40562 0
M  V30 10085 C 1007.03 1.64009 -0.262697 0
M  V30 10086 O 1008.21 1.85157 -0.460619 0
M  V30 10087 C 1005.35 3.2076 -1.27307 0
M  V30 10088 C 1004.46 3.51389 -2.51296 0
M  V30 10089 C 1003.6 4.78589 -2.30491 0
M  V30 10090 C 1002.64 5.02119 -3.50061 0
M  V30 10091 N 1001.77 6.20533 -3.28457 0
M  V30 10092 H 1006.61 1.82231 -2.35788 0
M  V30 10093 H 1004.15 0.890198 -1.17106 0
M  V30 10094 H 1006.11 4.00274 -1.17628 0
M  V30 10095 H 1004.74 3.2082 -0.357005 0
M  V30 10096 H 1003.79 2.66436 -2.71507 0
M  V30 10097 H 1005.1 3.64686 -3.40302 0
M  V30 10098 H 1004.26 5.66119 -2.1816 0
M  V30 10099 H 1003 4.67499 -1.38909 0
M  V30 10100 H 1002 4.13044 -3.6287 0
M  V30 10101 H 1003.23 5.15082 -4.42569 0
M  V30 10102 H 1001.17 6.10695 -2.39556 0
M  V30 10103 H 1001.09 6.34502 -4.11027 0
M  V30 10104 H 1002.36 7.10853 -3.19857 0
M  V30 10105 N 1006.59 1.25851 0.948643 0
M  V30 10106 C 1007.55 1.0683 2.0278 0
M  V30 10107 C 1008.55 0.0191016 1.60789 0
M  V30 10108 O 1009.74 0.261836 1.72221 0
M  V30 10109 C 1006.87 0.623318 3.35153 0
M  V30 10110 H 1008.06 2.02635 2.21086 0
M  V30 10111 H 1005.62 1.08343 1.12657 0
M  V30 10112 H 1006.35 -0.337053 3.22544 0
M  V30 10113 H 1006.14 1.38082 3.66982 0
M  V30 10114 H 1007.63 0.511854 4.14451 0
M  V30 10115 N 1008.06 -1.15214 1.07534 0
M  V30 10116 C 1008.99 -2.2216 0.718837 0
M  V30 10117 C 1009.98 -1.6753 -0.29459 0
M  V30 10118 O 1011.16 -1.93481 -0.166931 0
M  V30 10119 C 1008.29 -3.471 0.117836 0
M  V30 10120 C 1007.24 -4.14701 1.05862 0
M  V30 10121 C 1006.57 -5.3374 0.320284 0
M  V30 10122 C 1007.87 -4.64254 2.39302 0
M  V30 10123 H 1009.56 -2.52237 1.61297 0
M  V30 10124 H 1007.11 -1.21239 0.776992 0
M  V30 10125 H 1009.06 -4.21156 -0.143519 0
M  V30 10126 H 1007.79 -3.16361 -0.811389 0
M  V30 10127 H 1006.45 -3.42589 1.30493 0
M  V30 10128 H 1006.09 -4.99257 -0.61246 0
M  V30 10129 H 1005.79 -5.79912 0.947381 0
M  V30 10130 H 1007.32 -6.10563 0.0667721 0
M  V30 10131 H 1008.73 -5.29827 2.18988 0
M  V30 10132 H 1007.13 -5.21095 2.97623 0
M  V30 10133 H 1008.2 -3.79793 3.01472 0
M  V30 10134 N 1009.54 -0.859717 -1.32086 0
M  V30 10135 C 1010.51 -0.313005 -2.27053 0
M  V30 10136 C 1011.51 0.530191 -1.51808 0
M  V30 10137 O 1012.7 0.340972 -1.7083 0
M  V30 10138 C 1009.83 0.5566 -3.36325 0
M  V30 10139 H 1011.02 -1.15125 -2.76923 0
M  V30 10140 H 1008.57 -0.634463 -1.42843 0
M  V30 10141 H 1009.31 1.41645 -2.91731 0
M  V30 10142 H 1009.09 -0.0470197 -3.92072 0
M  V30 10143 H 1010.58 0.931725 -4.07073 0
M  V30 10144 N 1011.02 1.44971 -0.618145 0
M  V30 10145 C 1011.93 2.34403 0.0960457 0
M  V30 10146 C 1012.95 1.51862 0.849355 0
M  V30 10147 O 1014.12 1.84632 0.804557 0
M  V30 10148 C 1011.19 3.29646 1.07397 0
M  V30 10149 C 1010.25 4.28095 0.321466 0
M  V30 10150 C 1009.48 5.18787 1.25281 0
M  V30 10151 O 1009.7 5.1313 2.49106 0
M  V30 10152 O 1008.64 5.97282 0.744156 0
M  V30 10153 H 1012.46 2.96898 -0.639176 0
M  V30 10154 H 1010.05 1.44529 -0.37837 0
M  V30 10155 H 1011.93 3.88307 1.63694 0
M  V30 10156 H 1010.61 2.69702 1.79004 0
M  V30 10157 H 1009.51 3.73019 -0.284223 0
M  V30 10158 H 1010.85 4.90923 -0.354315 0
M  V30 10159 N 1012.5 0.357919 1.53482 0
M  V30 10160 C 1013.72 -0.237769 2.06033 0
M  V30 10161 C 1014.15 -1.42292 1.23023 0
M  V30 10162 O 1013.51 -1.79604 0.247427 0
M  V30 10163 C 1013.55 -0.616806 3.55286 0
M  V30 10164 O 1012.66 -1.71503 3.75047 0
M  V30 10165 H 1012 -0.0364322 0.663 0
M  V30 10166 H 1014.53 0.516301 1.97979 0
M  V30 10167 H 1014.54 -0.88996 3.98175 0
M  V30 10168 H 1013.21 0.249825 4.15149 0
M  V30 10169 H 1011.79 -1.43803 3.44057 0
M  V30 10170 N 1013.98 -1.5736 0.0868897 0
M  V30 10171 C 1015.22 -1.94341 -0.579598 0
M  V30 10172 C 1015.56 -0.968238 -1.68341 0
M  V30 10173 O 1014.83 8.29649e-05 -1.945 0
M  V30 10174 C 1015.11 -3.41497 -1.14245 0
M  V30 10175 C 1014.97 -4.49778 -0.044255 0
M  V30 10176 C 1016.29 -3.89788 -2.04336 0
M  V30 10177 H 1013.4 -0.70668 -0.20922 0
M  V30 10178 H 1016.05 -1.89359 0.15593 0
M  V30 10179 H 1014.2 -3.45873 -1.76929 0
M  V30 10180 H 1015.87 -4.57517 0.58959 0
M  V30 10181 H 1014.11 -4.293 0.623207 0
M  V30 10182 H 1014.78 -5.4992 -0.478749 0
M  V30 10183 H 1017.26 -3.87513 -1.51569 0
M  V30 10184 H 1016.13 -4.93335 -2.40648 0
M  V30 10185 H 1016.4 -3.28603 -2.95757 0
M  V30 10186 N 1015.45 0.186762 -1.56489 0
M  V30 10187 C 1016.7 0.904063 -1.80752 0
M  V30 10188 C 1017.02 1.83443 -0.661343 0
M  V30 10189 O 1016.29 1.93272 0.319811 0
M  V30 10190 H 1014.87 0.336828 -0.66675 0
M  V30 10191 H 1017.54 0.190275 -1.93969 0
M  V30 10192 H 1016.63 1.49021 -2.74225 0
M  V30 10193 N 1016.93 1.50896 0.454776 0
M  V30 10194 C 1018.35 1.38684 0.78987 0
M  V30 10195 C 1018.55 0.455587 1.96282 0
M  V30 10196 O 1017.6 -0.0957503 2.52318 0
M  V30 10197 C 1018.92 2.80381 1.08661 0
M  V30 10198 C 1020.47 2.8941 1.19209 0
M  V30 10199 C 1020.94 4.31976 1.52187 0
M  V30 10200 N 1022.43 4.35002 1.59146 0
M  V30 10201 C 1023.17 5.42326 1.862 0
M  V30 10202 N 1022.66 6.59835 2.11164 0
M  V30 10203 N 1024.46 5.29786 1.87838 0
M  V30 10204 H 1016.61 2.10006 -0.317981 0
M  V30 10205 H 1018.87 0.944636 -0.0797969 0
M  V30 10206 H 1018.58 3.50438 0.297626 0
M  V30 10207 H 1018.45 3.18634 2.01872 0
M  V30 10208 H 1020.84 2.19561 1.97173 0
M  V30 10209 H 1020.92 2.54677 0.239401 0
M  V30 10210 H 1020.56 5.02368 0.747576 0
M  V30 10211 H 1020.49 4.64208 2.48633 0
M  V30 10212 H 1022.98 3.50276 1.41828 0
M  V30 10213 H 1023.3 7.37428 2.31128 0
M  V30 10214 H 1021.64 6.62981 2.08522 0
M  V30 10215 H 1024.83 4.36974 1.67843 0
M  V30 10216 H 1025 6.13511 2.08585 0
M  V30 10217 N 1018.41 -0.709066 1.40748 0
M  V30 10218 C 1019.37 -1.80485 1.41272 0
M  V30 10219 C 1020.37 -1.57872 0.305463 0
M  V30 10220 O 1021.56 -1.64793 0.564691 0
M  V30 10221 C 1018.7 -3.1867 1.21087 0
M  V30 10222 H 1019.89 -1.81417 2.38805 0
M  V30 10223 H 1017.44 -0.915356 1.26692 0
M  V30 10224 H 1018.18 -3.23385 0.243406 0
M  V30 10225 H 1017.96 -3.36484 2.01299 0
M  V30 10226 H 1019.45 -3.98685 1.24257 0
M  V30 10227 N 1019.89 -1.26353 -0.941956 0
M  V30 10228 C 1021.14 -1.11851 -1.68806 0
M  V30 10229 C 1021.46 0.33829 -1.91535 0
M  V30 10230 O 1020.72 1.26495 -1.49324 0
M  V30 10231 C 1021.02 -1.83195 -3.06879 0
M  V30 10232 C 1020.68 -3.33093 -3.03908 0
M  V30 10233 C 1019.35 -3.73982 -3.02805 0
M  V30 10234 C 1021.7 -4.28803 -2.96273 0
M  V30 10235 C 1019.03 -5.08971 -2.91832 0
M  V30 10236 C 1021.38 -5.6383 -2.86842 0
M  V30 10237 C 1020.04 -6.04032 -2.84081 0
M  V30 10238 H 1019.31 -0.409293 -0.617706 0
M  V30 10239 H 1021.96 -1.56785 -1.09957 0
M  V30 10240 H 1020.26 -1.30728 -3.69347 0
M  V30 10241 H 1021.96 -1.69416 -3.63455 0
M  V30 10242 H 1018.55 -3.00566 -3.05546 0
M  V30 10243 H 1022.74 -3.98195 -2.96234 0
M  V30 10244 H 1017.99 -5.39282 -2.88072 0
M  V30 10245 H 1022.17 -6.37676 -2.79898 0
M  V30 10246 H 1019.79 -7.08586 -2.75335 0
M  V30 10247 N 1021.37 1.14642 -1.08144 0
M  V30 10248 C 1022.3 2.19283 -0.6669 0
M  V30 10249 C 1023.31 1.60292 0.284668 0
M  V30 10250 O 1024.5 1.78352 0.0727383 0
M  V30 10251 C 1021.6 3.38877 0.0398572 0
M  V30 10252 C 1020.77 4.274 -0.929929 0
M  V30 10253 C 1019.83 5.25562 -0.258991 0
M  V30 10254 O 1018.86 5.61999 -0.902563 0
M  V30 10255 N 1020.06 5.71958 0.992177 0
M  V30 10256 H 1022.83 2.55464 -1.5671 0
M  V30 10257 H 1020.39 1.29836 -0.96717 0
M  V30 10258 H 1022.38 4.01605 0.499583 0
M  V30 10259 H 1020.95 3.01043 0.842118 0
M  V30 10260 H 1020.17 3.61649 -1.56857 0
M  V30 10261 H 1021.46 4.83411 -1.58717 0
M  V30 10262 H 1020.86 5.44481 1.53484 0
M  V30 10263 H 1019.41 6.36687 1.39544 0
M  V30 10264 N 1022.85 0.866709 1.31628 0
M  V30 10265 C 1023.78 0.277328 2.27516 0
M  V30 10266 C 1024.79 -0.557786 1.52946 0
M  V30 10267 O 1025.98 -0.38031 1.74402 0
M  V30 10268 C 1023.08 -0.625742 3.33073 0
M  V30 10269 C 1022.25 0.176204 4.37045 0
M  V30 10270 C 1021.31 -0.654497 5.22114 0
M  V30 10271 O 1020.34 -0.0836961 5.69138 0
M  V30 10272 N 1021.54 -1.96708 5.46156 0
M  V30 10273 H 1024.3 1.10133 2.78731 0
M  V30 10274 H 1021.87 0.72787 1.44616 0
M  V30 10275 H 1023.86 -1.18709 3.86898 0
M  V30 10276 H 1022.43 -1.35042 2.81926 0
M  V30 10277 H 1021.65 0.918999 3.83338 0
M  V30 10278 H 1022.94 0.726594 5.03585 0
M  V30 10279 H 1022.33 -2.454 5.09701 0
M  V30 10280 H 1020.89 -2.47629 6.02929 0
M  V30 10281 N 1024.32 -1.44642 0.625825 0
M  V30 10282 C 1025.57 -2.02094 0.128201 0
M  V30 10283 C 1025.9 -1.49181 -1.24801 0
M  V30 10284 O 1025.15 -0.663965 -1.84092 0
M  V30 10285 C 1025.45 -3.57352 0.0584381 0
M  V30 10286 C 1025.12 -4.29496 1.37272 0
M  V30 10287 C 1023.78 -4.48922 1.7327 0
M  V30 10288 C 1026.13 -4.70586 2.2405 0
M  V30 10289 C 1023.46 -5.06697 2.95762 0
M  V30 10290 C 1025.81 -5.29717 3.45807 0
M  V30 10291 C 1024.48 -5.47363 3.82034 0
M  V30 10292 H 1023.75 -0.739514 0.0469122 0
M  V30 10293 H 1026.39 -1.73475 0.811083 0
M  V30 10294 H 1024.7 -3.85354 -0.707791 0
M  V30 10295 H 1026.4 -3.9953 -0.34303 0
M  V30 10296 H 1022.99 -4.14702 1.08258 0
M  V30 10297 H 1027.17 -4.55295 1.97535 0
M  V30 10298 H 1022.43 -5.18546 3.23913 0
M  V30 10299 H 1026.6 -5.60507 4.13286 0
M  V30 10300 H 1024.23 -5.91898 4.77033 0
M  V30 10301 N 1025.8 -0.366053 -1.5329 0
M  V30 10302 C 1027.03 0.22391 -2.05383 0
M  V30 10303 C 1027.44 1.42962 -1.23929 0
M  V30 10304 O 1026.78 1.81659 -0.273072 0
M  V30 10305 C 1026.84 0.681038 -3.5299 0
M  V30 10306 C 1026.51 -0.40805 -4.55175 0
M  V30 10307 C 1027.51 -1.25806 -5.04449 0
M  V30 10308 C 1025.19 -0.568428 -4.99073 0
M  V30 10309 C 1027.18 -2.25379 -5.96224 0
M  V30 10310 C 1024.87 -1.56752 -5.90654 0
M  V30 10311 C 1025.87 -2.40864 -6.39119 0
M  V30 10312 O 1025.56 -3.39069 -7.28895 0
M  V30 10313 H 1025.29 0.0429593 -0.674634 0
M  V30 10314 H 1027.84 -0.522897 -1.98633 0
M  V30 10315 H 1026.07 1.47945 -3.5728 0
M  V30 10316 H 1027.76 1.19406 -3.8794 0
M  V30 10317 H 1028.53 -1.14536 -4.71282 0
M  V30 10318 H 1024.41 0.0764858 -4.60937 0
M  V30 10319 H 1027.95 -2.91068 -6.33976 0
M  V30 10320 H 1023.85 -1.6807 -6.23236 0
M  V30 10321 H 1024.62 -3.34804 -7.46893 0
M  V30 10322 N 1027.28 1.57312 -0.0952337 0
M  V30 10323 C 1028.23 2.14032 0.863657 0
M  V30 10324 C 1029.2 1.0589 1.27971 0
M  V30 10325 O 1030.38 1.33678 1.36143 0
M  V30 10326 C 1027.52 2.72513 2.11733 0
M  V30 10327 C 1026.63 3.94887 1.7518 0
M  V30 10328 C 1025.77 4.41533 2.95334 0
M  V30 10329 C 1024.81 5.56496 2.54908 0
M  V30 10330 N 1023.95 5.97993 3.67897 0
M  V30 10331 H 1028.79 2.95655 0.373115 0
M  V30 10332 H 1026.32 1.46085 0.172497 0
M  V30 10333 H 1028.28 3.04539 2.85153 0
M  V30 10334 H 1026.91 1.93618 2.58287 0
M  V30 10335 H 1025.96 3.69175 0.917279 0
M  V30 10336 H 1027.27 4.78322 1.41455 0
M  V30 10337 H 1026.43 4.75343 3.77007 0
M  V30 10338 H 1025.17 3.56999 3.3227 0
M  V30 10339 H 1024.17 5.22314 1.71662 0
M  V30 10340 H 1025.4 6.42779 2.19117 0
M  V30 10341 H 1023.34 5.16405 4.04551 0
M  V30 10342 H 1023.26 6.76225 3.38018 0
M  V30 10343 H 1024.53 6.36434 4.5008 0
M  V30 10344 N 1028.76 -0.17846 1.56586 0
M  V30 10345 C 1029.69 -1.24547 1.92408 0
M  V30 10346 C 1030.7 -1.40849 0.816421 0
M  V30 10347 O 1031.89 -1.40979 1.09486 0
M  V30 10348 C 1028.99 -2.61523 2.15544 0
M  V30 10349 C 1028.16 -2.66613 3.46751 0
M  V30 10350 C 1027.22 -3.84901 3.588 0
M  V30 10351 O 1026.25 -3.71231 4.31482 0
M  V30 10352 N 1027.45 -5.0106 2.9312 0
M  V30 10353 H 1030.22 -0.941275 2.84535 0
M  V30 10354 H 1027.78 -0.368275 1.57656 0
M  V30 10355 H 1029.77 -3.3911 2.20876 0
M  V30 10356 H 1028.34 -2.84362 1.29835 0
M  V30 10357 H 1027.56 -1.75174 3.5314 0
M  V30 10358 H 1028.85 -2.67018 4.33104 0
M  V30 10359 H 1028.25 -5.15067 2.33928 0
M  V30 10360 H 1026.8 -5.76535 3.04057 0
M  V30 10361 N 1030.24 -1.51135 -0.446768 0
M  V30 10362 C 1031.48 -1.63336 -1.19698 0
M  V30 10363 C 1031.81 -0.345099 -1.91414 0
M  V30 10364 O 1031.07 0.670365 -1.8386 0
M  V30 10365 C 1031.36 -2.78034 -2.2457 0
M  V30 10366 C 1031.03 -4.17652 -1.69934 0
M  V30 10367 C 1029.69 -4.55636 -1.54756 0
M  V30 10368 C 1032.04 -5.04813 -1.29665 0
M  V30 10369 C 1029.37 -5.78496 -0.977689 0
M  V30 10370 C 1031.72 -6.28244 -0.741112 0
M  V30 10371 C 1030.39 -6.65009 -0.576156 0
M  V30 10372 H 1029.66 -0.597689 -0.438006 0
M  V30 10373 H 1032.31 -1.85141 -0.48939 0
M  V30 10374 H 1030.61 -2.50413 -3.01331 0
M  V30 10375 H 1032.31 -2.84675 -2.8242 0
M  V30 10376 H 1028.9 -3.87699 -1.82722 0
M  V30 10377 H 1033.08 -4.76081 -1.40216 0
M  V30 10378 H 1028.34 -6.05636 -0.837563 0
M  V30 10379 H 1032.51 -6.95129 -0.42053 0
M  V30 10380 H 1030.14 -7.60085 -0.132443 0
M  V30 10381 N 1031.71 0.701592 -1.41122 0
M  V30 10382 C 1032.96 1.46376 -1.40363 0
M  V30 10383 C 1033.29 1.94197 -0.0105442 0
M  V30 10384 O 1032.57 1.69121 0.960637 0
M  V30 10385 C 1032.85 2.67994 -2.40523 0
M  V30 10386 C 1032.7 2.25977 -3.88914 0
M  V30 10387 C 1034.02 3.70181 -2.38022 0
M  V30 10388 H 1031.14 0.530929 -0.511159 0
M  V30 10389 H 1033.78 0.799588 -1.72356 0
M  V30 10390 H 1031.93 3.24661 -2.13372 0
M  V30 10391 H 1033.61 1.74684 -4.26946 0
M  V30 10392 H 1031.85 1.57826 -4.04071 0
M  V30 10393 H 1032.52 3.13215 -4.54533 0
M  V30 10394 H 1035 3.23174 -2.62103 0
M  V30 10395 H 1033.87 4.52894 -3.10127 0
M  V30 10396 H 1034.13 4.19458 -1.3967 0
M  V30 10397 N 1033.19 1.2685 0.935242 0
M  V30 10398 C 1034.1 1.10716 2.06831 0
M  V30 10399 C 1035.12 0.0391222 1.73956 0
M  V30 10400 O 1036.29 0.244071 1.99916 0
M  V30 10401 C 1033.36 0.748093 3.38533 0
M  V30 10402 C 1032.42 1.89619 3.85153 0
M  V30 10403 C 1031.65 1.55416 5.1057 0
M  V30 10404 O 1031.88 0.458596 5.68553 0
M  V30 10405 O 1030.81 2.39087 5.52378 0
M  V30 10406 H 1034.64 2.05785 2.23352 0
M  V30 10407 H 1032.22 1.05967 1.05315 0
M  V30 10408 H 1034.1 0.560841 4.17651 0
M  V30 10409 H 1032.78 -0.173142 3.23237 0
M  V30 10410 H 1031.68 2.13845 3.06954 0
M  V30 10411 H 1033.02 2.79737 4.04979 0
M  V30 10412 N 1034.67 -1.14067 1.0875 0
M  V30 10413 C 1035.9 -1.88767 0.839682 0
M  V30 10414 C 1036.31 -1.79024 -0.612119 0
M  V30 10415 O 1035.65 -1.14986 -1.43262 0
M  V30 10416 C 1035.71 -3.39333 1.18716 0
M  V30 10417 C 1035.38 -3.72858 2.64245 0
M  V30 10418 C 1036.37 -3.72683 3.62496 0
M  V30 10419 C 1034.06 -4.0273 3.0019 0
M  V30 10420 C 1036.05 -4.01909 4.9472 0
M  V30 10421 C 1033.74 -4.31618 4.32607 0
M  V30 10422 C 1034.74 -4.31192 5.29682 0
M  V30 10423 O 1034.43 -4.59377 6.59718 0
M  V30 10424 H 1034.16 -0.604665 0.302253 0
M  V30 10425 H 1036.71 -1.45364 1.45115 0
M  V30 10426 H 1034.94 -3.83205 0.518707 0
M  V30 10427 H 1036.63 -3.95346 0.919599 0
M  V30 10428 H 1037.4 -3.49688 3.3607 0
M  V30 10429 H 1033.28 -4.02213 2.25268 0
M  V30 10430 H 1036.82 -4.01491 5.70483 0
M  V30 10431 H 1032.72 -4.54083 4.58779 0
M  V30 10432 H 1033.49 -4.77078 6.65086 0
M  V30 10433 N 1036.15 -0.873678 -1.31166 0
M  V30 10434 C 1037.38 -0.501043 -2.00742 0
M  V30 10435 C 1037.79 0.907477 -1.65561 0
M  V30 10436 O 1037.15 1.59507 -0.886771 0
M  V30 10437 C 1037.2 -0.652877 -3.55556 0
M  V30 10438 O 1036.92 -2.00593 -3.89479 0
M  V30 10439 C 1038.42 -0.281742 -4.42404 0
M  V30 10440 H 1035.64 -0.194829 -0.642092 0
M  V30 10441 H 1038.19 -1.17587 -1.67313 0
M  V30 10442 H 1036.34 -0.0255627 -3.87392 0
M  V30 10443 H 1036.75 -2.01638 -4.84193 0
M  V30 10444 H 1038.23 -0.43892 -5.50252 0
M  V30 10445 H 1038.71 0.779389 -4.32229 0
M  V30 10446 H 1039.31 -0.88491 -4.15992 0
M  V30 10447 N 1037.63 1.44308 -0.633487 0
M  V30 10448 C 1038.87 2.03904 -0.14226 0
M  V30 10449 C 1039.23 1.48768 1.21376 0
M  V30 10450 O 1040.43 1.99882 1.79724 0
M  V30 10451 C 1038.7 3.5716 -0.130975 0
M  V30 10452 S 1040.26 4.37805 0.295287 0
M  V30 10453 H 1037.08 0.70827 -0.0622429 0
M  V30 10454 H 1039.68 1.76657 -0.837405 0
M  V30 10455 H 1038.39 3.94794 -1.12096 0
M  V30 10456 H 1037.92 3.89021 0.585342 0
M  V30 10457 H 1039.93 4.71732 1.53894 0
M  V30 10458 N 1039.1 0.374177 1.53094 0
M  V30 10459 C 1040.52 -0.103172 1.86415 0
M  V30 10460 C 1040.87 -1.47439 1.29446 0
M  V30 10461 O 1039.99 -2.07333 0.619853 0
M  V30 10462 C 1040.59 -0.193988 3.38244 0
M  V30 10463 C 1039.15 -0.615605 3.71332 0
M  V30 10464 C 1038.29 0.23186 2.76329 0
M  V30 10465 H 1041.24 0.592644 1.47219 0
M  V30 10466 H 1041.26 -1.01597 3.66686 0
M  V30 10467 H 1040.78 0.80414 3.79678 0
M  V30 10468 H 1038.88 -1.62165 3.3546 0
M  V30 10469 H 1038.99 -0.38425 4.77557 0
M  V30 10470 H 1037.35 -0.300579 2.5292 0
M  V30 10471 H 1038.14 1.22769 3.20597 0
M  V30 10472 N 1040.58 -1.57259 0.103575 0
M  V30 10473 C 1041.81 -1.99 -0.566275 0
M  V30 10474 C 1042.23 -0.982909 -1.61197 0
M  V30 10475 O 1041.58 0.026345 -1.82481 0
M  V30 10476 C 1041.63 -3.40778 -1.20635 0
M  V30 10477 O 1041.35 -4.37632 -0.202472 0
M  V30 10478 C 1042.86 -3.97567 -1.961 0
M  V30 10479 H 1040.08 -0.653751 -0.151164 0
M  V30 10480 H 1042.62 -2.03658 0.185365 0
M  V30 10481 H 1040.77 -3.37107 -1.90886 0
M  V30 10482 H 1041.19 -5.2026 -0.665535 0
M  V30 10483 H 1042.66 -4.98897 -2.36233 0
M  V30 10484 H 1043.14 -3.35853 -2.83018 0
M  V30 10485 H 1043.75 -4.04737 -1.30645 0
M  V30 10486 N 1042.06 0.170153 -1.56679 0
M  V30 10487 C 1042.97 1.23057 -1.99735 0
M  V30 10488 C 1043.99 1.48374 -0.908912 0
M  V30 10489 O 1045.16 1.60499 -1.21663 0
M  V30 10490 C 1042.23 2.54944 -2.34956 0
M  V30 10491 C 1041.29 2.3748 -3.57634 0
M  V30 10492 C 1040.52 3.63078 -3.91165 0
M  V30 10493 O 1040.74 4.68304 -3.2565 0
M  V30 10494 O 1039.68 3.57119 -4.8451 0
M  V30 10495 H 1043.5 0.895104 -2.9021 0
M  V30 10496 H 1041.09 0.377109 -1.44562 0
M  V30 10497 H 1042.97 3.32742 -2.58574 0
M  V30 10498 H 1041.65 2.88068 -1.47643 0
M  V30 10499 H 1040.55 1.57709 -3.39232 0
M  V30 10500 H 1041.89 2.0928 -4.45491 0
M  V30 10501 N 1043.54 1.5137 0.438746 0
M  V30 10502 C 1044.82 1.54508 1.19944 0
M  V30 10503 C 1045.2 0.308525 2.08833 0
M  V30 10504 O 1044.54 -0.706461 2.17305 0
M  V30 10505 C 1044.75 2.85833 2.00251 0
M  V30 10506 C 1046.1 3.37729 2.5734 0
M  V30 10507 O 1047.13 2.87374 2.10463 0
M  V30 10508 O 1045.98 4.25589 3.42836 0
M  V30 10509 H 1043.08 0.621132 0.546007 0
M  V30 10510 H 1045.62 1.63682 0.447931 0
M  V30 10511 H 1044.4 3.67291 1.34955 0
M  V30 10512 H 1044.02 2.79815 2.8247 0
M  V30 10513 N 1045.02 -0.694098 1.41492 0
M  V30 10514 C 1046.27 -1.4498 1.40227 0
M  V30 10515 C 1046.58 -1.95594 0.0151253 0
M  V30 10516 O 1047.78 -2.71234 -0.120146 0
M  V30 10517 C 1046.24 -2.62171 2.46565 0
M  V30 10518 C 1045.85 -2.18337 3.91194 0
M  V30 10519 C 1047.59 -3.39796 2.54439 0
M  V30 10520 C 1045.5 -3.32495 4.89082 0
M  V30 10521 H 1044.43 -0.544584 0.521483 0
M  V30 10522 H 1047.08 -0.75337 1.67322 0
M  V30 10523 H 1045.46 -3.34089 2.12604 0
M  V30 10524 H 1046.64 -1.53698 4.34412 0
M  V30 10525 H 1044.95 -1.53702 3.86994 0
M  V30 10526 H 1047.55 -4.2478 3.24755 0
M  V30 10527 H 1047.89 -3.85082 1.5817 0
M  V30 10528 H 1048.42 -2.74935 2.87499 0
M  V30 10529 H 1045.16 -2.92219 5.86761 0
M  V30 10530 H 1044.68 -3.95978 4.50512 0
M  V30 10531 H 1046.36 -3.98251 5.09907 0
M  V30 10532 N 1046.49 -1.27344 -0.928501 0
M  V30 10533 C 1047.72 -1.16278 -1.70772 0
M  V30 10534 C 1048.13 0.283131 -1.8707 0
M  V30 10535 O 1047.48 1.20466 -1.38685 0
M  V30 10536 C 1047.54 -1.77313 -3.1273 0
M  V30 10537 C 1047.2 -3.26488 -3.19773 0
M  V30 10538 C 1048.2 -4.23133 -3.02083 0
M  V30 10539 C 1045.88 -3.67182 -3.42757 0
M  V30 10540 C 1047.88 -5.5845 -3.07267 0
M  V30 10541 C 1045.56 -5.02629 -3.47574 0
M  V30 10542 C 1046.56 -5.98072 -3.29847 0
M  V30 10543 O 1046.25 -7.3105 -3.34397 0
M  V30 10544 H 1045.98 -0.405215 -0.541089 0
M  V30 10545 H 1048.54 -1.68707 -1.17163 0
M  V30 10546 H 1046.77 -1.19361 -3.67818 0
M  V30 10547 H 1048.46 -1.60972 -3.72616 0
M  V30 10548 H 1049.22 -3.93031 -2.84168 0
M  V30 10549 H 1045.1 -2.93369 -3.55606 0
M  V30 10550 H 1048.64 -6.32924 -2.93348 0
M  V30 10551 H 1044.54 -5.32387 -3.65013 0
M  V30 10552 H 1045.31 -7.39488 -3.50857 0
M  V30 10553 N 1047.97 1.13488 -1.09353 0
M  V30 10554 C 1048.9 2.20988 -0.75409 0
M  V30 10555 C 1049.88 1.67977 0.267901 0
M  V30 10556 O 1051.07 1.93722 0.136128 0
M  V30 10557 C 1048.2 3.46869 -0.173042 0
M  V30 10558 C 1047.15 4.12965 -1.12446 0
M  V30 10559 C 1046.48 5.33163 -0.405157 0
M  V30 10560 C 1047.78 4.60388 -2.46658 0
M  V30 10561 H 1049.47 2.49639 -1.6529 0
M  V30 10562 H 1047.02 1.19987 -0.796182 0
M  V30 10563 H 1048.97 4.21331 0.0764988 0
M  V30 10564 H 1047.7 3.17611 0.760956 0
M  V30 10565 H 1046.35 3.40469 -1.35927 0
M  V30 10566 H 1046 5.00169 0.532955 0
M  V30 10567 H 1045.7 5.78332 -1.03952 0
M  V30 10568 H 1047.23 6.1038 -0.163899 0
M  V30 10569 H 1048.64 5.26276 -2.27389 0
M  V30 10570 H 1047.04 5.16294 -3.05876 0
M  V30 10571 H 1048.11 3.74949 -3.07476 0
M  V30 10572 N 1049.45 0.880621 1.30701 0
M  V30 10573 C 1050.36 0.348034 2.32004 0
M  V30 10574 C 1051.38 -0.547508 1.65162 0
M  V30 10575 O 1052.55 -0.441673 1.96497 0
M  V30 10576 C 1049.62 -0.432585 3.43991 0
M  V30 10577 C 1048.68 0.492189 4.26469 0
M  V30 10578 C 1047.91 -0.25127 5.33108 0
M  V30 10579 O 1048.14 -1.47795 5.5092 0
M  V30 10580 O 1047.07 0.396376 6.00593 0
M  V30 10581 H 1050.9 1.18798 2.79501 0
M  V30 10582 H 1048.48 0.64432 1.34792 0
M  V30 10583 H 1050.36 -0.874733 4.12221 0
M  V30 10584 H 1049.04 -1.2489 2.98637 0
M  V30 10585 H 1047.94 0.983058 3.60953 0
M  V30 10586 H 1049.28 1.27439 4.75416 0
M  V30 10587 O 1050.97 -1.41364 0.780922 0
M  V30 10588 H 1051.66 -1.90546 0.348111 0
M  V30 END ATOM
M  V30 BEGIN BOND
M  V30 END BOND
M  V30 END CTAB
M  END
$$$$
