drugbank_target|P98164 Low-density lipoprotein receptor-related protein 2 (DB00013; DB00071; DB00798)
 OpenBabel12092119433D

  0  0  0     0  0            999 V3000
M  V30 BEGIN CTAB
M  V30 COUNTS 70556 71438 0 0 0
M  V30 BEGIN ATOM
M  V30 1 H -0.908 1.98254 -0.117106 0
M  V30 2 N 0 1.576 0 0
M  V30 3 C 0.933 2.03868 1.02534 0
M  V30 4 C 1.911 0.928543 1.3348 0
M  V30 5 O 3.095 1.19667 1.45644 0
M  V30 6 C 0.222 2.43627 2.35294 0
M  V30 7 C -0.732 3.65373 2.2001 0
M  V30 8 S 0.101 5.13292 1.52614 0
M  V30 9 C 1.257 5.56322 2.86805 0
M  V30 10 H 1.49 2.90518 0.631377 0
M  V30 11 H -0.977 1.52953 0.210867 0
M  V30 12 H 0.981 2.67203 3.11629 0
M  V30 13 H -0.358 1.57376 2.7183 0
M  V30 14 H -1.165 3.90944 3.18086 0
M  V30 15 H -1.563 3.418 1.51819 0
M  V30 16 H 0.729 5.58782 3.83104 0
M  V30 17 H 1.672 6.56266 2.65933 0
M  V30 18 H 2.08 4.83886 2.90714 0
M  V30 19 N 1.4781 -0.272755 1.55222 0
M  V30 20 C 2.7551 -1.02562 1.66555 0
M  V30 21 C 3.1351 -2.04282 0.532189 0
M  V30 22 O 2.4831 -2.23662 -0.467717 0
M  V30 23 C 2.6931 -1.6822 3.05782 0
M  V30 24 C 4.0411 -2.19373 3.63539 0
M  V30 25 O 5.0651 -1.78206 3.08417 0
M  V30 26 O 3.9241 -2.94883 4.60115 0
M  V30 27 H 1.0181 -0.475755 0.676451 0
M  V30 28 H 3.5641 -0.268593 1.67561 0
M  V30 29 H 2.3361 -0.945112 3.79715 0
M  V30 30 H 1.9591 -2.50609 3.08676 0
M  V30 31 N 2.9562 -1.48159 -0.537278 0
M  V30 32 C 4.3722 -1.34118 -0.865129 0
M  V30 33 C 4.5722 -0.346678 -1.98495 0
M  V30 34 O 3.6282 0.234715 -2.51407 0
M  V30 35 C 4.9412 -2.73963 -1.23954 0
M  V30 36 C 6.4892 -2.82397 -1.34984 0
M  V30 37 C 6.9642 -4.22928 -1.75772 0
M  V30 38 N 8.4552 -4.25566 -1.82887 0
M  V30 39 C 9.1902 -5.31235 -2.15817 0
M  V30 40 N 8.6862 -6.47189 -2.47222 0
M  V30 41 N 10.4792 -5.18624 -2.16761 0
M  V30 42 H 2.6302 -2.1144 0.201715 0
M  V30 43 H 4.8932 -0.947598 0.0275949 0
M  V30 44 H 4.5992 -3.48264 -0.490381 0
M  V30 45 H 4.4732 -3.0702 -2.19132 0
M  V30 46 H 6.8602 -2.08356 -2.08978 0
M  V30 47 H 6.9412 -2.5297 -0.379448 0
M  V30 48 H 6.5852 -4.97482 -1.02341 0
M  V30 49 H 6.5152 -4.49794 -2.73848 0
M  V30 50 H 9.0062 -3.41924 -1.60924 0
M  V30 51 H 9.3192 -7.23564 -2.71433 0
M  V30 52 H 7.6642 -6.50476 -2.44757 0
M  V30 53 H 10.8552 -4.27056 -1.91679 0
M  V30 54 H 11.0282 -6.01078 -2.42093 0
M  V30 55 N 4.4343 0.785586 -1.36625 0
M  V30 56 C 5.6823 1.54057 -1.30808 0
M  V30 57 C 6.0033 1.94683 0.111157 0
M  V30 58 O 5.2733 1.65241 1.05224 0
M  V30 59 H 3.8533 0.571354 -0.481211 0
M  V30 60 H 6.5153 0.935821 -1.70963 0
M  V30 61 H 5.6113 2.44637 -1.93801 0
M  V30 62 N 5.9124 1.20967 1.01018 0
M  V30 63 C 7.3234 1.02319 1.56165 0
M  V30 64 C 7.6744 -0.418546 1.91684 0
M  V30 65 O 6.7994 -1.30096 1.72928 0
M  V30 66 C 7.3944 1.85109 2.8376 0
M  V30 67 C 5.9534 1.70809 3.35412 0
M  V30 68 C 5.1004 1.82643 2.08655 0
M  V30 69 H 8.0514 1.35065 0.833255 0
M  V30 70 H 8.0724 1.35827 3.55431 0
M  V30 71 H 7.5844 2.90035 2.57878 0
M  V30 72 H 5.6854 0.685464 3.66241 0
M  V30 73 H 5.7984 2.52467 4.07182 0
M  V30 74 H 4.1624 1.25896 2.21409 0
M  V30 75 H 4.9454 2.89066 1.85191 0
M  V30 76 N 7.3905 -1.2043 1.01659 0
M  V30 77 C 8.3535 -2.21433 0.591616 0
M  V30 78 C 9.3535 -1.57203 -0.338226 0
M  V30 79 O 10.5435 -1.73737 -0.126918 0
M  V30 80 C 7.6755 -3.40628 -0.136058 0
M  V30 81 H 8.8685 -2.60545 1.48514 0
M  V30 82 H 6.4215 -1.33893 0.806379 0
M  V30 83 H 7.1565 -3.07019 -1.04449 0
M  V30 84 H 6.9415 -3.88475 0.531917 0
M  V30 85 H 8.4315 -4.15475 -0.420735 0
M  V30 86 N 8.8686 -0.792821 -1.36206 0
M  V30 87 C 9.8316 -0.199459 -2.2833 0
M  V30 88 C 10.8316 0.605189 -1.48977 0
M  V30 89 O 12.0216 0.425685 -1.68919 0
M  V30 90 C 9.1536 0.723523 -3.33134 0
M  V30 91 H 10.3466 -1.01181 -2.82316 0
M  V30 92 H 7.8996 -0.562485 -1.45828 0
M  V30 93 H 8.6346 1.56008 -2.84309 0
M  V30 94 H 8.4196 0.148436 -3.91819 0
M  V30 95 H 9.9096 1.13344 -4.01924 0
M  V30 96 N 10.3467 1.47872 -0.545128 0
M  V30 97 C 11.5927 2.02793 -0.0166104 0
M  V30 98 C 11.9257 1.41987 1.32489 0
M  V30 99 O 11.2007 0.571045 1.85928 0
M  V30 100 C 11.4837 3.59989 0.0893294 0
M  V30 101 C 11.3367 4.3125 -1.27841 0
M  V30 102 C 12.6557 4.32606 0.808724 0
M  V30 103 H 9.7747 0.736962 -0.00751035 0
M  V30 104 H 12.4167 1.76433 -0.705085 0
M  V30 105 H 10.5667 3.82579 0.675681 0
M  V30 106 H 12.2387 4.20035 -1.90704 0
M  V30 107 H 10.4817 3.92076 -1.85632 0
M  V30 108 H 11.1527 5.39736 -1.15713 0
M  V30 109 H 13.6287 4.14936 0.310992 0
M  V30 110 H 12.5047 5.42251 0.851782 0
M  V30 111 H 12.7657 4.00963 1.86229 0
M  V30 112 N 11.8248 0.280983 1.55075 0
M  V30 113 C 12.7878 -0.590896 2.21452 0
M  V30 114 C 13.7878 -1.07682 1.19421 0
M  V30 115 O 14.9778 -0.97605 1.44288 0
M  V30 116 C 12.1098 -1.81587 2.88511 0
M  V30 117 H 13.3028 -0.0112554 2.99898 0
M  V30 118 H 10.8558 0.0316438 1.56268 0
M  V30 119 H 11.5908 -2.43587 2.14093 0
M  V30 120 H 11.3758 -1.4753 3.63287 0
M  V30 121 H 12.8658 -2.43575 3.39206 0
M  V30 122 N 13.3029 -1.57598 0.00835791 0
M  V30 123 C 14.5429 -1.92788 -0.679136 0
M  V30 124 C 14.9069 -0.883378 -1.70471 0
M  V30 125 O 16.1079 -1.12079 -2.44319 0
M  V30 126 C 14.3789 -3.32994 -1.29807 0
M  V30 127 S 15.9379 -3.90082 -2.00952 0
M  V30 128 H 12.7559 -0.67475 -0.224127 0
M  V30 129 H 15.3579 -1.95385 0.0670497 0
M  V30 130 H 14.0619 -4.06846 -0.538922 0
M  V30 131 H 13.5929 -3.33791 -2.082 0
M  V30 132 H 15.6079 -3.71834 -3.28563 0
M  V30 133 N 14.781 0.264519 -1.55364 0
M  V30 134 C 16.009 1.013 -1.80405 0
M  V30 135 C 16.424 1.79618 -0.581622 0
M  V30 136 O 15.781 1.76879 0.449468 0
M  V30 137 C 15.832 1.96487 -3.03439 0
M  V30 138 O 15.553 1.21341 -4.20961 0
M  V30 139 C 17.054 2.83079 -3.41147 0
M  V30 140 H 14.274 0.298875 -0.600762 0
M  V30 141 H 16.818 0.292736 -2.02394 0
M  V30 142 H 14.973 2.63965 -2.83551 0
M  V30 143 H 15.387 1.85573 -4.90574 0
M  V30 144 H 16.861 3.4565 -4.30384 0
M  V30 145 H 17.338 3.53286 -2.60932 0
M  V30 146 H 17.944 2.2108 -3.63323 0
M  V30 147 N 16.2591 1.48442 0.529413 0
M  V30 148 C 17.1891 1.65902 1.64313 0
M  V30 149 C 18.1701 0.507897 1.6234 0
M  V30 150 O 19.3551 0.740503 1.79528 0
M  V30 151 C 16.4851 1.69911 3.02898 0
M  V30 152 C 15.4391 2.8453 3.19729 0
M  V30 153 C 14.7651 2.73629 4.59381 0
M  V30 154 C 16.0651 4.25821 3.02447 0
M  V30 155 H 17.7591 2.5914 1.49955 0
M  V30 156 H 15.3051 1.24709 0.719982 0
M  V30 157 H 17.2581 1.80715 3.80684 0
M  V30 158 H 15.9821 0.732524 3.18279 0
M  V30 159 H 14.6411 2.73283 2.44361 0
M  V30 160 H 14.2891 1.74938 4.71599 0
M  V30 161 H 13.9891 3.50541 4.71588 0
M  V30 162 H 15.5131 2.86401 5.39265 0
M  V30 163 H 16.9271 4.37898 3.70024 0
M  V30 164 H 15.3241 5.03735 3.26146 0
M  V30 165 H 16.3941 4.42244 1.98867 0
M  V30 166 N 17.7372 -0.778329 1.37039 0
M  V30 167 C 18.6672 -1.90546 1.34962 0
M  V30 168 C 19.6482 -1.68681 0.219274 0
M  V30 169 O 20.8332 -1.89634 0.418624 0
M  V30 170 C 17.9632 -3.27734 1.14925 0
M  V30 171 C 16.9172 -3.64147 2.24902 0
M  V30 172 C 16.2432 -4.99806 1.89996 0
M  V30 173 C 17.5432 -3.71579 3.67051 0
M  V30 174 H 19.2372 -1.92541 2.29277 0
M  V30 175 H 16.7832 -0.924948 1.10366 0
M  V30 176 H 18.7362 -4.06215 1.12104 0
M  V30 177 H 17.4602 -3.26154 0.170631 0
M  V30 178 H 16.1192 -2.8797 2.26868 0
M  V30 179 H 15.7672 -4.94759 0.906796 0
M  V30 180 H 15.4672 -5.25139 2.63634 0
M  V30 181 H 16.9912 -5.80694 1.88749 0
M  V30 182 H 18.4052 -4.40227 3.67251 0
M  V30 183 H 16.8022 -4.08405 4.39688 0
M  V30 184 H 17.8722 -2.72404 4.01154 0
M  V30 185 N 19.2153 -1.21501 -1.00376 0
M  V30 186 C 20.1453 -0.999478 -2.11028 0
M  V30 187 C 21.1263 0.0759671 -1.6993 0
M  V30 188 O 22.3113 -0.0841106 -1.94018 0
M  V30 189 C 19.4413 -0.564709 -3.42678 0
M  V30 190 C 18.3953 -1.58486 -3.97576 0
M  V30 191 C 17.7213 -1.00628 -5.25146 0
M  V30 192 C 19.0213 -2.97204 -4.29496 0
M  V30 193 H 20.7153 -1.92495 -2.29317 0
M  V30 194 H 18.2613 -0.92693 -1.102 0
M  V30 195 H 20.2143 -0.401091 -4.19487 0
M  V30 196 H 18.9383 0.396411 -3.24185 0
M  V30 197 H 17.5973 -1.73606 -3.22888 0
M  V30 198 H 17.2453 -0.0368439 -5.02987 0
M  V30 199 H 16.9453 -1.68771 -5.62841 0
M  V30 200 H 18.4693 -0.854015 -6.04598 0
M  V30 201 H 19.8833 -2.8552 -4.97143 0
M  V30 202 H 18.2803 -3.62372 -4.78338 0
M  V30 203 H 19.3503 -3.47956 -3.3772 0
M  V30 204 N 20.6934 1.19889 -1.02296 0
M  V30 205 C 21.6564 2.21116 -0.603351 0
M  V30 206 C 22.6564 1.5738 0.329884 0
M  V30 207 O 23.8464 1.73802 0.117702 0
M  V30 208 C 20.9784 3.40696 0.117992 0
M  V30 209 H 22.1714 2.59754 -1.49893 0
M  V30 210 H 19.7244 1.33463 -0.813468 0
M  V30 211 H 20.4594 3.07569 1.0282 0
M  V30 212 H 20.2444 3.88188 -0.552511 0
M  V30 213 H 21.7344 4.15692 0.398696 0
M  V30 214 N 22.1715 0.800033 1.35784 0
M  V30 215 C 23.1015 0.220184 2.3246 0
M  V30 216 C 24.0825 -0.65073 1.57161 0
M  V30 217 O 25.2675 -0.582359 1.85263 0
M  V30 218 C 22.3975 -0.637353 3.41402 0
M  V30 219 C 21.3515 0.134531 4.27789 0
M  V30 220 C 20.6775 -0.844285 5.27992 0
M  V30 221 C 21.9775 1.32979 5.05088 0
M  V30 222 H 23.6715 1.02787 2.81203 0
M  V30 223 H 21.2175 0.495717 1.35199 0
M  V30 224 H 23.1705 -1.05302 4.08031 0
M  V30 225 H 21.8945 -1.47785 2.91251 0
M  V30 226 H 20.5535 0.531296 3.6273 0
M  V30 227 H 20.2015 -1.68011 4.74111 0
M  V30 228 H 19.9015 -0.332184 5.8666 0
M  V30 229 H 21.4255 -1.2583 5.97494 0
M  V30 230 H 22.8395 0.98934 5.64699 0
M  V30 231 H 21.2365 1.77593 5.7322 0
M  V30 232 H 22.3065 2.11978 4.36111 0
M  V30 233 N 23.6496 -1.47581 0.552962 0
M  V30 234 C 24.8956 -2.02782 0.0273648 0
M  V30 235 C 25.2286 -1.42687 -1.31734 0
M  V30 236 O 24.5036 -0.580897 -1.85623 0
M  V30 237 C 24.7866 -3.60031 -0.0702371 0
M  V30 238 C 24.6396 -4.30566 1.30126 0
M  V30 239 C 25.9586 -4.33028 -0.785771 0
M  V30 240 H 23.0776 -0.736912 0.0114185 0
M  V30 241 H 25.7196 -1.76056 0.714432 0
M  V30 242 H 23.8696 -3.82932 -0.655382 0
M  V30 243 H 25.5416 -4.19018 1.92929 0
M  V30 244 H 23.7846 -3.91086 1.87709 0
M  V30 245 H 24.4556 -5.39114 1.18573 0
M  V30 246 H 26.9316 -4.15095 -0.288982 0
M  V30 247 H 25.8076 -5.42695 -0.823013 0
M  V30 248 H 26.0686 -4.01945 -1.841 0
M  V30 249 N 25.1277 -0.289203 -1.54924 0
M  V30 250 C 26.0907 0.579144 -2.21762 0
M  V30 251 C 27.0907 1.07047 -1.1999 0
M  V30 252 O 28.2807 0.968384 -1.44803 0
M  V30 253 C 25.4127 1.80055 -2.8947 0
M  V30 254 H 26.6057 -0.00464908 -2.999 0
M  V30 255 H 24.1587 -0.0399306 -1.56249 0
M  V30 256 H 24.8937 2.42449 -2.15381 0
M  V30 257 H 24.6787 1.45602 -3.64064 0
M  V30 258 H 26.1687 2.41773 -3.40493 0
M  V30 259 N 26.6058 1.57591 -0.0167156 0
M  V30 260 C 27.8458 1.93145 0.668902 0
M  V30 261 C 28.2098 0.892406 1.7 0
M  V30 262 O 29.4108 1.13373 2.43721 0
M  V30 263 C 27.6818 3.33678 1.28039 0
M  V30 264 S 29.2408 3.91142 1.9888 0
M  V30 265 H 26.0588 0.67593 0.220545 0
M  V30 266 H 28.6608 1.95347 -0.0774105 0
M  V30 267 H 27.3648 4.07126 0.517339 0
M  V30 268 H 26.8958 3.3489 2.06427 0
M  V30 269 H 28.9108 3.73571 3.26587 0
M  V30 270 N 28.0839 -0.256276 1.55502 0
M  V30 271 C 29.0139 -1.32102 1.92539 0
M  V30 272 C 29.9949 -1.50684 0.789194 0
M  V30 273 O 31.1799 -1.63449 1.04872 0
M  V30 274 C 28.3099 -2.67752 2.21192 0
M  V30 275 C 27.2639 -2.63878 3.36975 0
M  V30 276 C 26.5899 -4.03236 3.51147 0
M  V30 277 C 27.8899 -2.21682 4.72921 0
M  V30 278 H 29.5839 -1.01351 2.81724 0
M  V30 279 H 27.1299 -0.486105 1.35547 0
M  V30 280 H 29.0829 -3.42365 2.45691 0
M  V30 281 H 27.8069 -3.0012 1.28824 0
M  V30 282 H 26.4659 -1.91722 3.12471 0
M  V30 283 H 26.1139 -4.32854 2.56216 0
M  V30 284 H 25.8139 -4.01535 4.29003 0
M  V30 285 H 27.3379 -4.79563 3.77957 0
M  V30 286 H 28.7519 -2.86023 4.96854 0
M  V30 287 H 27.1489 -2.3111 5.53812 0
M  V30 288 H 28.2189 -1.16833 4.70615 0
M  V30 289 N 29.562 -1.4872 -0.521534 0
M  V30 290 C 30.525 -1.63379 -1.60748 0
M  V30 291 C 31.525 -0.50661 -1.52611 0
M  V30 292 O 32.715 -0.772601 -1.5613 0
M  V30 293 C 29.847 -1.61192 -3.00383 0
M  V30 294 H 31.04 -2.60217 -1.49087 0
M  V30 295 H 28.593 -1.37444 -0.744235 0
M  V30 296 H 29.328 -0.65863 -3.17541 0
M  V30 297 H 29.113 -2.43032 -3.07698 0
M  V30 298 H 30.603 -1.7466 -3.7932 0
M  V30 299 N 31.0401 0.771051 -1.3745 0
M  V30 300 C 32.4511 1.34737 -1.29239 0
M  V30 301 C 32.8021 1.96109 0.0596908 0
M  V30 302 O 31.9271 1.93865 0.961534 0
M  V30 303 C 32.5221 2.44973 -2.34037 0
M  V30 304 C 31.0811 2.98372 -2.29458 0
M  V30 305 C 30.2281 1.71595 -2.17831 0
M  V30 306 H 33.1791 0.571256 -1.48062 0
M  V30 307 H 33.2001 3.24471 -1.98744 0
M  V30 308 H 32.7121 2.00276 -3.32432 0
M  V30 309 H 30.8131 3.47443 -1.34589 0
M  V30 310 H 30.9261 3.53939 -3.229 0
M  V30 311 H 29.2901 1.94547 -1.64388 0
M  V30 312 H 30.0731 1.29001 -3.18141 0
M  V30 313 N 32.5182 1.22032 0.997298 0
M  V30 314 C 33.4812 0.987909 2.06816 0
M  V30 315 C 34.4812 -0.0440084 1.6074 0
M  V30 316 O 35.6712 0.194053 1.73116 0
M  V30 317 C 32.8032 0.49132 3.37341 0
M  V30 318 H 33.9962 1.93803 2.28868 0
M  V30 319 H 31.5492 1.03838 1.16822 0
M  V30 320 H 32.2842 -0.463364 3.20973 0
M  V30 321 H 32.0692 1.23575 3.72118 0
M  V30 322 H 33.5592 0.348824 4.16141 0
M  V30 323 N 33.9963 -1.19345 1.0293 0
M  V30 324 C 35.2213 -1.93538 0.745511 0
M  V30 325 C 35.6463 -1.75007 -0.689511 0
M  V30 326 O 35.0043 -1.05265 -1.47611 0
M  V30 327 C 35.0523 -3.43336 1.10239 0
M  V30 328 O 34.1563 -4.11806 0.221289 0
M  V30 329 H 33.4973 -0.604193 0.275404 0
M  V30 330 H 36.0273 -1.5141 1.37609 0
M  V30 331 H 36.0373 -3.94004 1.05947 0
M  V30 332 H 34.7123 -3.56146 2.14786 0
M  V30 333 H 33.2893 -3.715 0.322842 0
M  V30 334 N 35.4744 -0.807222 -1.35358 0
M  V30 335 C 36.7224 -0.387122 -1.98358 0
M  V30 336 C 37.0434 1.04942 -1.64354 0
M  V30 337 O 36.3134 1.72615 -0.926339 0
M  V30 338 H 34.8934 -0.140154 -0.733734 0
M  V30 339 H 37.5554 -1.0332 -1.6526 0
M  V30 340 H 36.6514 -0.493352 -3.08176 0
M  V30 341 N 36.9525 1.47285 -0.560781 0
M  V30 342 C 37.8845 2.28118 0.222438 0
M  V30 343 C 38.8975 1.37219 0.876056 0
M  V30 344 O 40.0865 1.62011 0.749307 0
M  V30 345 C 37.1865 3.1159 1.33285 0
M  V30 346 C 36.3595 4.30473 0.77534 0
M  V30 347 C 35.4185 4.95513 1.77069 0
M  V30 348 O 34.4445 5.53792 1.31539 0
M  V30 349 N 35.6465 4.90531 3.10418 0
M  V30 350 H 38.4115 2.95976 -0.470958 0
M  V30 351 H 35.9725 1.56955 -0.39709 0
M  V30 352 H 37.9645 3.51967 1.99752 0
M  V30 353 H 36.5345 2.45951 1.92943 0
M  V30 354 H 35.7545 3.94144 -0.0662113 0
M  V30 355 H 37.0425 5.07362 0.382272 0
M  V30 356 H 36.4405 4.44389 3.5005 0
M  V30 357 H 34.9975 5.34917 3.72434 0
M  V30 358 N 38.4306 0.297415 1.54768 0
M  V30 359 C 39.3406 -0.58983 2.27064 0
M  V30 360 C 40.3566 -1.15144 1.30453 0
M  V30 361 O 41.5326 -1.17699 1.63428 0
M  V30 362 C 38.5976 -1.74714 2.9946 0
M  V30 363 C 37.6586 -1.21997 4.11601 0
M  V30 364 C 36.8916 -2.32212 4.80535 0
M  V30 365 O 37.1146 -3.52036 4.48806 0
M  V30 366 O 36.0486 -1.99106 5.68014 0
M  V30 367 H 39.8746 -0.00348199 3.037 0
M  V30 368 H 37.4596 0.0640035 1.49263 0
M  V30 369 H 39.3416 -2.42147 3.44881 0
M  V30 370 H 38.0166 -2.32016 2.25722 0
M  V30 371 H 36.9236 -0.511458 3.70587 0
M  V30 372 H 38.2566 -0.692419 4.87305 0
M  V30 373 N 39.9087 -1.5758 0.0250728 0
M  V30 374 C 41.1487 -1.93497 -0.65865 0
M  V30 375 C 41.5127 -0.901409 -1.69525 0
M  V30 376 O 42.7137 -1.14664 -2.43116 0
M  V30 377 C 40.9847 -3.34352 -1.26267 0
M  V30 378 S 42.5437 -3.92191 -1.96803 0
M  V30 379 H 39.3617 -0.67709 -0.216958 0
M  V30 380 H 41.9637 -1.95303 0.0877692 0
M  V30 381 H 40.6677 -4.07395 -0.495741 0
M  V30 382 H 40.1987 -3.3598 -2.04648 0
M  V30 383 H 42.2137 -3.75298 -3.24601 0
M  V30 384 N 41.3868 0.248026 -1.55636 0
M  V30 385 C 42.6638 0.998988 -1.68165 0
M  V30 386 C 43.0438 2.03409 -0.564621 0
M  V30 387 O 42.3918 2.24378 0.432076 0
M  V30 388 C 42.6018 1.63334 -3.0842 0
M  V30 389 C 43.9498 2.13562 -3.66983 0
M  V30 390 O 44.9738 1.73277 -3.11213 0
M  V30 391 O 43.8328 2.87526 -4.64749 0
M  V30 392 H 40.9268 0.464933 -0.683935 0
M  V30 393 H 43.4728 0.241902 -1.67967 0
M  V30 394 H 42.2448 0.884583 -3.8117 0
M  V30 395 H 41.8678 2.45666 -3.12624 0
M  V30 396 N 42.8649 1.48995 0.513639 0
M  V30 397 C 44.0899 1.61792 1.29762 0
M  V30 398 C 44.5149 0.284475 1.85936 0
M  V30 399 O 43.8729 -0.746185 1.65232 0
M  V30 400 C 43.9209 2.67993 2.41272 0
M  V30 401 O 43.0249 2.26287 3.44772 0
M  V30 402 H 42.3659 0.541963 0.38363 0
M  V30 403 H 44.8959 1.95097 0.616307 0
M  V30 404 H 44.9059 2.89772 2.87221 0
M  V30 405 H 43.5809 3.64791 1.9975 0
M  V30 406 H 42.1579 2.14788 3.04829 0
M  V30 407 N 44.343 -0.763751 1.37857 0
M  V30 408 C 45.306 -1.85889 1.34081 0
M  V30 409 C 46.306 -1.58949 0.243277 0
M  V30 410 O 47.496 -1.66882 0.499589 0
M  V30 411 C 44.628 -3.23176 1.08489 0
M  V30 412 H 45.821 -1.90648 2.31502 0
M  V30 413 H 43.374 -0.964367 1.23003 0
M  V30 414 H 44.109 -3.24091 0.116318 0
M  V30 415 H 43.894 -3.44124 1.8794 0
M  V30 416 H 45.384 -4.03254 1.08517 0
M  V30 417 N 45.8211 -1.22559 -0.990812 0
M  V30 418 C 46.7711 -0.964807 -2.0658 0
M  V30 419 C 47.7551 0.0853472 -1.60673 0
M  V30 420 O 48.9471 -0.125443 -1.76555 0
M  V30 421 C 46.0761 -0.546707 -3.38919 0
M  V30 422 C 45.1621 -1.6317 -3.91454 0
M  V30 423 N 45.5531 -2.85985 -4.17189 0
M  V30 424 C 43.8511 -1.50387 -4.19881 0
M  V30 425 C 44.5521 -3.56159 -4.59919 0
M  V30 426 N 43.5281 -2.83637 -4.63736 0
M  V30 427 H 47.3301 -1.89769 -2.24421 0
M  V30 428 H 44.8441 -1.12343 -1.17273 0
M  V30 429 H 46.8411 -0.34119 -4.15502 0
M  V30 430 H 45.5011 0.379254 -3.22478 0
M  V30 431 H 46.5121 -3.22392 -4.05319 0
M  V30 432 H 43.1891 -0.644254 -4.12499 0
M  V30 433 H 44.5791 -4.6139 -4.88435 0
M  V30 434 N 47.2992 1.18797 -1.03562 0
M  V30 435 C 48.5462 1.8865 -0.736023 0
M  V30 436 C 48.8742 1.80041 0.735889 0
M  V30 437 O 48.1292 1.19179 1.55225 0
M  V30 438 C 48.4282 3.38692 -1.14117 0
M  V30 439 C 48.0942 3.67504 -2.6125 0
M  V30 440 C 46.7562 3.75078 -3.01447 0
M  V30 441 C 49.1082 3.80293 -3.56408 0
M  V30 442 C 46.4362 3.92915 -4.35701 0
M  V30 443 C 48.7882 3.99645 -4.90374 0
M  V30 444 C 47.4522 4.05453 -5.30249 0
M  V30 445 H 46.7222 0.690321 -0.26933 0
M  V30 446 H 49.3692 1.40641 -1.29971 0
M  V30 447 H 47.6742 3.88645 -0.496202 0
M  V30 448 H 49.3712 3.91072 -0.886789 0
M  V30 449 H 45.9612 3.62223 -2.29113 0
M  V30 450 H 50.1452 3.73779 -3.26501 0
M  V30 451 H 45.4012 3.95653 -4.66121 0
M  V30 452 H 49.5752 4.08482 -5.64017 0
M  V30 453 H 47.2022 4.19027 -6.34288 0
M  V30 454 N 48.7773 0.814389 1.34928 0
M  V30 455 C 50.1933 0.499084 1.51596 0
M  V30 456 C 50.3933 -0.978319 1.76157 0
M  V30 457 O 49.4493 -1.76309 1.80752 0
M  V30 458 C 50.7623 1.35121 2.68631 0
M  V30 459 C 52.3103 1.34746 2.82511 0
M  V30 460 C 52.7853 2.18388 4.0258 0
M  V30 461 N 54.2763 2.15966 4.09772 0
M  V30 462 C 55.0113 2.77437 5.01813 0
M  V30 463 N 54.5073 3.47866 5.99134 0
M  V30 464 N 56.3003 2.67037 4.94619 0
M  V30 465 H 48.4513 1.7711 1.17243 0
M  V30 466 H 50.7143 0.754256 0.574284 0
M  V30 467 H 50.4203 2.40001 2.57085 0
M  V30 468 H 50.2943 1.00991 3.63429 0
M  V30 469 H 52.6813 0.30648 2.93504 0
M  V30 470 H 52.7623 1.72869 1.88547 0
M  V30 471 H 52.4063 3.2253 3.92347 0
M  V30 472 H 52.3363 1.77621 4.9574 0
M  V30 473 H 54.8273 1.64729 3.40107 0
M  V30 474 H 55.1403 3.92038 6.65977 0
M  V30 475 H 53.4853 3.51972 5.99284 0
M  V30 476 H 56.6763 2.11597 4.17546 0
M  V30 477 H 56.8493 3.15232 5.66156 0
M  V30 478 N 50.2554 -1.46986 0.568584 0
M  V30 479 C 51.4954 -2.04336 0.0512999 0
M  V30 480 C 51.8594 -1.43214 -1.27881 0
M  V30 481 O 53.0604 -1.91679 -1.88448 0
M  V30 482 C 51.3314 -3.57389 -0.0282328 0
M  V30 483 S 52.8904 -4.36056 -0.489991 0
M  V30 484 H 49.7084 -0.71034 0.0306349 0
M  V30 485 H 52.3104 -1.80212 0.757891 0
M  V30 486 H 51.0144 -3.99395 0.944011 0
M  V30 487 H 50.5454 -3.86028 -0.75803 0
M  V30 488 H 52.5604 -4.6441 -1.74752 0
M  V30 489 N 51.7335 -0.305618 -1.54608 0
M  V30 490 C 52.9815 0.301701 -1.99835 0
M  V30 491 C 53.3025 1.54054 -1.19551 0
M  V30 492 O 52.5725 1.93702 -0.292658 0
M  V30 493 H 51.1525 0.114468 -0.738178 0
M  V30 494 H 53.8145 -0.418016 -1.90364 0
M  V30 495 H 52.9105 0.570548 -3.06841 0
M  V30 496 N 53.2116 1.57565 -0.0334293 0
M  V30 497 C 54.4366 1.96689 0.657895 0
M  V30 498 C 54.8616 0.910057 1.64619 0
M  V30 499 O 54.2196 -0.128598 1.80843 0
M  V30 500 C 54.2676 3.34905 1.33683 0
M  V30 501 O 53.3716 3.31574 2.45219 0
M  V30 502 H 52.7126 0.641205 0.172489 0
M  V30 503 H 55.2426 2.04372 -0.0965621 0
M  V30 504 H 55.2526 3.71234 1.69262 0
M  V30 505 H 53.9276 4.11366 0.612411 0
M  V30 506 H 52.5046 3.06968 2.11719 0
M  V30 507 N 54.6897 -0.239769 1.55765 0
M  V30 508 C 55.9377 -0.964892 1.77579 0
M  V30 509 C 56.2587 -1.85582 0.598699 0
M  V30 510 O 55.5287 -1.92075 -0.385226 0
M  V30 511 H 54.1087 -0.359265 0.654933 0
M  V30 512 H 56.7707 -0.256001 1.93211 0
M  V30 513 H 55.8667 -1.58243 2.69009 0
M  V30 514 N 56.1678 -1.49265 -0.50573 0
M  V30 515 C 57.1178 -1.6198 -1.60457 0
M  V30 516 C 58.1018 -0.47568 -1.53708 0
M  V30 517 O 59.2938 -0.728392 -1.61318 0
M  V30 518 C 56.4228 -1.68526 -2.99089 0
M  V30 519 C 55.5088 -2.885 -3.10852 0
M  V30 520 N 55.8998 -4.12635 -2.92517 0
M  V30 521 C 54.1978 -2.86338 -3.41945 0
M  V30 522 C 54.8988 -4.93258 -3.08337 0
M  V30 523 N 53.8748 -4.26533 -3.37003 0
M  V30 524 H 57.6768 -2.55681 -1.44928 0
M  V30 525 H 55.1908 -1.45972 -0.711752 0
M  V30 526 H 57.1878 -1.75732 -3.78053 0
M  V30 527 H 55.8478 -0.759584 -3.1569 0
M  V30 528 H 56.8588 -4.42689 -2.68787 0
M  V30 529 H 53.5358 -2.03129 -3.64753 0
M  V30 530 H 54.9258 -6.01856 -2.98695 0
M  V30 531 N 57.6459 0.756429 -1.3826 0
M  V30 532 C 58.8859 1.52833 -1.35725 0
M  V30 533 C 59.2499 1.91926 0.0534106 0
M  V30 534 O 60.4509 2.68028 0.203613 0
M  V30 535 C 58.7219 2.74919 -2.28373 0
M  V30 536 S 60.2809 3.64817 -2.43832 0
M  V30 537 H 57.0989 0.523043 -0.481608 0
M  V30 538 H 59.7009 0.888212 -1.74158 0
M  V30 539 H 58.4049 2.44304 -3.29763 0
M  V30 540 H 57.9359 3.43878 -1.91079 0
M  V30 541 H 59.9509 4.676 -1.66027 0
M  V30 542 N 59.124 1.23083 0.984299 0
M  V30 543 C 60.373 1.05466 1.71929 0
M  V30 544 C 60.686 -0.409211 1.91272 0
M  V30 545 O 61.892 -0.705226 2.62181 0
M  V30 546 C 60.348 1.83874 3.09384 0
M  V30 547 C 59.956 3.34566 2.97943 0
M  V30 548 C 61.7 1.74734 3.8687 0
M  V30 549 C 59.607 4.05381 4.30605 0
M  V30 550 H 58.537 0.391039 0.644674 0
M  V30 551 H 61.188 1.47013 1.09815 0
M  V30 552 H 59.57 1.35131 3.72231 0
M  V30 553 H 60.744 3.90767 2.44209 0
M  V30 554 H 59.059 3.44476 2.33934 0
M  V30 555 H 61.656 2.24957 4.85076 0
M  V30 556 H 61.999 0.709372 4.10212 0
M  V30 557 H 62.532 2.21067 3.30717 0
M  V30 558 H 59.271 5.09467 4.1246 0
M  V30 559 H 58.791 3.53967 4.84218 0
M  V30 560 H 60.47 4.11458 4.99311 0
M  V30 561 N 60.6021 -1.18246 1.0419 0
M  V30 562 C 62.0131 -1.69914 0.773698 0
M  V30 563 C 62.3641 -1.83085 -0.705297 0
M  V30 564 O 61.4891 -1.51123 -1.5489 0
M  V30 565 C 62.0841 -3.08619 1.39784 0
M  V30 566 C 60.6431 -3.57494 1.17792 0
M  V30 567 C 59.7901 -2.34013 1.48773 0
M  V30 568 H 62.7411 -1.02904 1.20816 0
M  V30 569 H 62.7621 -3.71958 0.801714 0
M  V30 570 H 62.2741 -2.99001 2.47426 0
M  V30 571 H 60.3751 -3.72406 0.120295 0
M  V30 572 H 60.4881 -4.40852 1.87581 0
M  V30 573 H 58.8521 -2.37986 0.907463 0
M  V30 574 H 59.6351 -2.27013 2.57527 0
M  V30 575 N 62.0802 -0.821533 -1.34494 0
M  V30 576 C 63.0432 -0.247847 -2.27856 0
M  V30 577 C 64.0432 0.573453 -1.50227 0
M  V30 578 O 65.2332 0.389759 -1.69784 0
M  V30 579 C 62.3652 0.652698 -3.34593 0
M  V30 580 H 63.5582 -1.07146 -2.80107 0
M  V30 581 H 61.1112 -0.593291 -1.44602 0
M  V30 582 H 61.8462 1.49943 -2.87555 0
M  V30 583 H 61.6312 0.065292 -3.92046 0
M  V30 584 H 63.1212 1.04793 -4.04238 0
M  V30 585 N 63.5583 1.46682 -0.576371 0
M  V30 586 C 64.8353 1.95599 0.00703437 0
M  V30 587 C 65.2153 1.51904 1.46589 0
M  V30 588 O 64.5633 0.766755 2.15251 0
M  V30 589 C 64.7733 3.4864 -0.158404 0
M  V30 590 C 66.1213 4.24594 -0.0229439 0
M  V30 591 O 67.1453 3.56094 -0.0869173 0
M  V30 592 O 66.0043 5.46373 0.118015 0
M  V30 593 H 63.0983 0.825275 0.053384 0
M  V30 594 H 65.6443 1.56996 -0.644244 0
M  V30 595 H 64.4163 3.7331 -1.17282 0
M  V30 596 H 64.0393 3.94057 0.5296 0
M  V30 597 N 65.0364 0.313813 1.54444 0
M  V30 598 C 66.2824 -0.284918 2.01395 0
M  V30 599 C 66.6374 -1.50537 1.19818 0
M  V30 600 O 65.9304 -1.89692 0.269748 0
M  V30 601 C 66.1244 -0.680386 3.50864 0
M  V30 602 C 65.9534 0.500198 4.4691 0
M  V30 603 C 64.7234 0.996248 4.95382 0
M  V30 604 C 66.9214 1.34928 4.96285 0
M  V30 605 N 64.9034 2.14226 5.75309 0
M  V30 606 C 66.2744 2.3426 5.7404 0
M  V30 607 C 68.3294 1.37818 4.78446 0
M  V30 608 C 67.0324 3.36272 6.35856 0
M  V30 609 C 69.0584 2.38695 5.4109 0
M  V30 610 C 68.4204 3.36755 6.18688 0
M  V30 611 H 64.5194 -0.0683689 0.779006 0
M  V30 612 H 67.1034 0.44664 1.89508 0
M  V30 613 H 65.2744 -1.38109 3.63016 0
M  V30 614 H 67.0064 -1.25975 3.84594 0
M  V30 615 H 63.7614 0.56912 4.70168 0
M  V30 616 H 64.1854 2.72005 6.19953 0
M  V30 617 H 68.8274 0.633747 4.18023 0
M  V30 618 H 66.5454 4.11627 6.95405 0
M  V30 619 H 70.1314 2.41721 5.29209 0
M  V30 620 H 69.0114 4.13535 6.66302 0
M  V30 621 N 66.5145 -1.57545 0.0417849 0
M  V30 622 C 67.9305 -1.56467 -0.314704 0
M  V30 623 C 68.1305 -1.04859 -1.72066 0
M  V30 624 O 67.1865 -0.700983 -2.42575 0
M  V30 625 C 68.4995 -3.00317 -0.15174 0
M  V30 626 C 70.0475 -3.12201 -0.223553 0
M  V30 627 C 70.5225 -4.57913 -0.0892295 0
M  V30 628 N 72.0135 -4.6297 -0.145808 0
M  V30 629 C 72.7485 -5.73362 -0.0658459 0
M  V30 630 N 72.2445 -6.92769 0.0659282 0
M  V30 631 N 74.0375 -5.6197 -0.12075 0
M  V30 632 H 66.1885 -1.89416 0.961014 0
M  V30 633 H 68.4515 -0.871862 0.372237 0
M  V30 634 H 68.1575 -3.42073 0.817254 0
M  V30 635 H 68.0315 -3.65892 -0.916692 0
M  V30 636 H 70.4185 -2.70349 -1.18301 0
M  V30 637 H 70.4995 -2.49323 0.571994 0
M  V30 638 H 70.1435 -5.00448 0.866867 0
M  V30 639 H 70.0735 -5.18786 -0.903802 0
M  V30 640 H 72.5645 -3.7709 -0.247286 0
M  V30 641 H 72.8775 -7.72707 0.119905 0
M  V30 642 H 71.2225 -6.94927 0.100885 0
M  V30 643 H 74.4135 -4.67572 -0.222187 0
M  V30 644 H 74.5865 -6.47977 -0.0549735 0
M  V30 645 N 67.9926 0.231505 -1.5589 0
M  V30 646 C 69.2326 0.964533 -1.80211 0
M  V30 647 C 69.5966 1.81926 -0.613744 0
M  V30 648 O 70.7976 2.58526 -0.736045 0
M  V30 649 C 69.0686 1.78956 -3.09369 0
M  V30 650 S 70.6276 2.57959 -3.54969 0
M  V30 651 H 67.4456 0.324173 -0.632798 0
M  V30 652 H 70.0476 0.230985 -1.94131 0
M  V30 653 H 68.7516 1.15161 -3.93911 0
M  V30 654 H 68.2826 2.56559 -2.9823 0
M  V30 655 H 70.2976 3.81309 -3.17519 0
M  V30 656 N 69.4707 1.49531 0.497807 0
M  V30 657 C 70.7477 1.49682 1.25915 0
M  V30 658 C 71.1277 0.226339 2.09883 0
M  V30 659 O 70.4757 -0.791189 2.14365 0
M  V30 660 C 70.6857 2.77755 2.11313 0
M  V30 661 C 72.0337 3.27371 2.70395 0
M  V30 662 O 73.0577 2.78894 2.21578 0
M  V30 663 O 71.9167 4.11808 3.59272 0
M  V30 664 H 69.0107 0.599228 0.56996 0
M  V30 665 H 71.5567 1.61798 0.511816 0
M  V30 666 H 70.3287 3.61713 1.49264 0
M  V30 667 H 69.9517 2.68515 2.93233 0
M  V30 668 N 70.9488 -0.749086 1.3866 0
M  V30 669 C 72.1968 -1.50535 1.34847 0
M  V30 670 C 72.5178 -1.94909 -0.0595016 0
M  V30 671 O 71.7878 -1.67973 -1.00806 0
M  V30 672 H 70.3678 -0.558395 0.49619 0
M  V30 673 H 73.0298 -0.890165 1.73384 0
M  V30 674 H 72.1258 -2.39413 2.00219 0
M  V30 675 N 72.4269 -1.23603 -0.977757 0
M  V30 676 C 73.6549 -1.09646 -1.75458 0
M  V30 677 C 74.0699 0.351859 -1.85492 0
M  V30 678 O 73.4269 1.24327 -1.336 0
M  V30 679 C 73.4779 -1.71895 -3.18016 0
M  V30 680 O 73.1989 -3.11063 -3.08498 0
M  V30 681 C 74.6999 -1.63415 -4.12081 0
M  V30 682 H 71.9199 -0.38359 -0.550545 0
M  V30 683 H 74.4639 -1.63507 -1.22824 0
M  V30 684 H 72.6189 -1.22061 -3.67668 0
M  V30 685 H 73.0329 -3.41305 -3.9826 0
M  V30 686 H 74.5069 -2.11669 -5.09804 0
M  V30 687 H 74.9839 -0.593462 -4.35172 0
M  V30 688 H 75.5899 -2.12628 -3.68334 0
M  V30 689 N 73.905 1.17692 -1.04816 0
M  V30 690 C 74.852 2.21581 -0.645797 0
M  V30 691 C 75.822 1.62367 0.350159 0
M  V30 692 O 77.007 1.89254 0.242433 0
M  V30 693 C 74.147 3.45092 -0.0227568 0
M  V30 694 C 73.26 4.18613 -1.06709 0
M  V30 695 C 72.395 5.29602 -0.411767 0
M  V30 696 C 71.434 5.94904 -1.44067 0
M  V30 697 N 70.571 6.97414 -0.809781 0
M  V30 698 H 75.411 2.55353 -1.5362 0
M  V30 699 H 72.948 1.25438 -0.768364 0
M  V30 700 H 74.906 4.15679 0.35588 0
M  V30 701 H 73.536 3.11917 0.831122 0
M  V30 702 H 72.588 3.46779 -1.5636 0
M  V30 703 H 73.9 4.63293 -1.84827 0
M  V30 704 H 73.054 6.06696 0.0206623 0
M  V30 705 H 71.793 4.86045 0.401438 0
M  V30 706 H 70.798 5.16544 -1.88316 0
M  V30 707 H 72.023 6.40542 -2.25571 0
M  V30 708 H 69.969 6.55998 -0.0170186 0
M  V30 709 H 69.886 7.40386 -1.52856 0
M  V30 710 H 71.154 7.78463 -0.401999 0
M  V30 711 N 75.3831 0.828654 1.34056 0
M  V30 712 C 76.6601 0.341809 1.9259 0
M  V30 713 C 77.0401 -1.17158 1.75605 0
M  V30 714 O 76.3881 -1.98132 1.13824 0
M  V30 715 C 76.5981 0.777453 3.4023 0
M  V30 716 C 77.9461 0.779579 4.17382 0
M  V30 717 O 78.9701 0.7204 3.48839 0
M  V30 718 O 77.8291 0.857996 5.39723 0
M  V30 719 H 74.9231 0.0946085 0.821571 0
M  V30 720 H 77.4691 0.913827 1.42994 0
M  V30 721 H 76.2411 1.8196 3.46419 0
M  V30 722 H 75.8641 0.181444 3.97186 0
M  V30 723 N 76.8612 -1.46375 0.584142 0
M  V30 724 C 78.1012 -2.0427 0.0729695 0
M  V30 725 C 78.4652 -1.44563 -1.26355 0
M  V30 726 O 79.6662 -1.93667 -1.86405 0
M  V30 727 C 77.9372 -3.57399 0.00967464 0
M  V30 728 S 79.4962 -4.36551 -0.443714 0
M  V30 729 H 76.3142 -0.709975 0.0381673 0
M  V30 730 H 78.9162 -1.79398 0.776962 0
M  V30 731 H 77.6202 -3.98372 0.986319 0
M  V30 732 H 77.1512 -3.8681 -0.717044 0
M  V30 733 H 79.1662 -4.66237 -1.69816 0
M  V30 734 N 78.3393 -0.321999 -1.54275 0
M  V30 735 C 79.5643 0.285791 -2.05422 0
M  V30 736 C 79.9893 1.45124 -1.19669 0
M  V30 737 O 79.3473 1.80132 -0.205441 0
M  V30 738 C 79.3953 0.69956 -3.53749 0
M  V30 739 O 78.4993 1.8021 -3.70942 0
M  V30 740 H 77.8403 0.0518962 -0.661969 0
M  V30 741 H 80.3703 -0.469954 -1.9913 0
M  V30 742 H 80.3803 0.982649 -3.9599 0
M  V30 743 H 79.0553 -0.152864 -4.15619 0
M  V30 744 H 77.6323 1.51794 -3.40607 0
M  V30 745 N 79.8174 1.5752 -0.0501392 0
M  V30 746 C 81.0944 1.83996 0.663685 0
M  V30 747 C 81.4744 0.938339 1.89099 0
M  V30 748 O 80.8224 -0.00087759 2.285 0
M  V30 749 C 81.0324 3.33702 1.02196 0
M  V30 750 C 82.3804 4.00691 1.40469 0
M  V30 751 O 83.4044 3.38321 1.11433 0
M  V30 752 O 82.2634 5.10658 1.94654 0
M  V30 753 H 79.3574 0.759385 0.32751 0
M  V30 754 H 81.9034 1.69514 -0.0794238 0
M  V30 755 H 80.6754 3.91015 0.149364 0
M  V30 756 H 80.2984 3.53368 1.82255 0
M  V30 757 N 81.2955 -0.223234 1.56011 0
M  V30 758 C 82.5725 -0.972108 1.69733 0
M  V30 759 C 82.9525 -2.02485 0.59691 0
M  V30 760 O 82.3005 -2.25037 -0.396324 0
M  V30 761 C 82.5105 -1.58407 3.10979 0
M  V30 762 C 83.8585 -2.07696 3.70334 0
M  V30 763 O 84.8825 -1.68304 3.1393 0
M  V30 764 O 83.7415 -2.80096 4.69264 0
M  V30 765 H 80.8355 -0.453993 0.691245 0
M  V30 766 H 83.3815 -0.215149 1.68331 0
M  V30 767 H 82.1535 -0.823831 3.82529 0
M  V30 768 H 81.7765 -2.40661 3.16493 0
M  V30 769 N 82.7736 -1.49793 -0.48987 0
M  V30 770 C 83.7366 -1.66752 -1.57246 0
M  V30 771 C 84.7366 -0.538867 -1.51502 0
M  V30 772 O 85.9266 -0.805545 -1.54456 0
M  V30 773 C 83.0586 -1.67528 -2.96896 0
M  V30 774 H 84.2516 -2.63321 -1.43534 0
M  V30 775 H 81.8046 -1.38992 -0.714914 0
M  V30 776 H 82.5396 -0.725837 -3.16073 0
M  V30 777 H 82.3246 -2.49504 -3.02473 0
M  V30 778 H 83.8146 -1.82667 -3.7553 0
M  V30 779 N 84.2517 0.741722 -1.39055 0
M  V30 780 C 85.5287 1.49252 -1.26425 0
M  V30 781 C 85.9087 2.10705 0.129144 0
M  V30 782 O 85.2567 1.98045 1.13976 0
M  V30 783 C 85.4667 2.54934 -2.38347 0
M  V30 784 C 86.8147 3.21506 -2.77343 0
M  V30 785 O 87.8387 2.65245 -2.37747 0
M  V30 786 O 86.6977 4.23294 -3.45665 0
M  V30 787 H 83.7917 0.662451 -0.495064 0
M  V30 788 H 86.3377 0.776121 -1.50912 0
M  V30 789 H 85.1097 2.07857 -3.31529 0
M  V30 790 H 84.7327 3.34141 -2.15489 0
M  V30 791 N 85.7298 1.2412 0.971189 0
M  V30 792 C 86.6398 1.04747 2.09917 0
M  V30 793 C 87.6558 -0.0107162 1.73997 0
M  V30 794 O 88.8318 0.186714 2.00533 0
M  V30 795 C 85.8968 0.650828 3.40537 0
M  V30 796 C 84.9578 1.7851 3.90426 0
M  V30 797 C 84.1908 1.40729 5.14812 0
M  V30 798 O 84.4138 0.29557 5.69634 0
M  V30 799 O 83.3478 2.23168 5.58999 0
M  V30 800 H 87.1738 1.99304 2.29154 0
M  V30 801 H 84.7588 1.02908 1.08307 0
M  V30 802 H 86.6408 0.440992 4.19086 0
M  V30 803 H 85.3158 -0.265649 3.22608 0
M  V30 804 H 84.2228 2.04966 3.12953 0
M  V30 805 H 85.5558 2.68023 4.12825 0
M  V30 806 N 87.2079 -1.17134 1.05439 0
M  V30 807 C 88.4569 -1.86791 0.761049 0
M  V30 808 C 88.7699 -1.82072 -0.714795 0
M  V30 809 O 89.9759 -2.47223 -1.12218 0
M  V30 810 C 88.4319 -3.35166 1.31117 0
M  V30 811 C 88.0399 -3.48381 2.81664 0
M  V30 812 C 89.7839 -4.10134 1.09499 0
M  V30 813 C 87.6909 -4.90793 3.29964 0
M  V30 814 H 86.6209 -0.699681 0.281002 0
M  V30 815 H 89.2719 -1.3226 1.27199 0
M  V30 816 H 87.6539 -3.8925 0.72803 0
M  V30 817 H 88.8279 -3.04502 3.45855 0
M  V30 818 H 87.1429 -2.86836 3.01851 0
M  V30 819 H 89.7399 -5.152 1.43084 0
M  V30 820 H 90.0829 -4.16287 0.0328772 0
M  V30 821 H 90.6159 -3.62264 1.64346 0
M  V30 822 H 87.3549 -4.89816 4.35616 0
M  V30 823 H 86.8749 -5.35333 2.70516 0
M  V30 824 H 88.5539 -5.59573 3.24787 0
M  V30 825 N 88.686 -0.835752 -1.33615 0
M  V30 826 C 89.934 -0.429109 -1.97492 0
M  V30 827 C 90.255 1.01433 -1.66543 0
M  V30 828 O 89.525 1.70611 -0.962744 0
M  V30 829 H 88.105 -0.155686 -0.730596 0
M  V30 830 H 90.767 -1.06802 -1.63031 0
M  V30 831 H 89.863 -0.55861 -3.0706 0
M  V30 832 N 90.1641 1.46063 -0.591896 0
M  V30 833 C 91.4041 2.04228 -0.0838014 0
M  V30 834 C 91.7681 1.45231 1.25587 0
M  V30 835 O 92.9691 1.94653 1.85375 0
M  V30 836 C 91.2401 3.57389 -0.0286282 0
M  V30 837 S 92.7991 4.3678 0.420557 0
M  V30 838 H 89.6171 0.709762 -0.0419319 0
M  V30 839 H 92.2191 1.78983 -0.786465 0
M  V30 840 H 90.9231 3.97843 -1.00743 0
M  V30 841 H 90.4541 3.87185 0.69652 0
M  V30 842 H 92.4691 4.67131 1.67341 0
M  V30 843 N 91.6422 0.330177 1.54103 0
M  V30 844 C 92.6052 -0.520144 2.2322 0
M  V30 845 C 93.6052 -1.03828 1.22786 0
M  V30 846 O 94.7952 -0.929652 1.4732 0
M  V30 847 C 91.9272 -1.72317 2.94142 0
M  V30 848 H 93.1202 0.0841605 2.99782 0
M  V30 849 H 90.6732 0.0813433 1.56088 0
M  V30 850 H 91.4082 -2.36653 2.21734 0
M  V30 851 H 91.1932 -1.35898 3.67796 0
M  V30 852 H 92.6832 -2.3266 3.46784 0
M  V30 853 N 93.1203 -1.57491 0.0584922 0
M  V30 854 C 94.3663 -1.93264 -0.614558 0
M  V30 855 C 94.6993 -0.937717 -1.7006 0
M  V30 856 O 93.9743 0.0351652 -1.94468 0
M  V30 857 C 94.2573 -3.3938 -1.20386 0
M  V30 858 C 94.1103 -4.49625 -0.125375 0
M  V30 859 C 95.4293 -3.86039 -2.11334 0
M  V30 860 H 92.5483 -0.702791 -0.221933 0
M  V30 861 H 95.1903 -1.8961 0.12175 0
M  V30 862 H 93.3403 -3.42626 -1.83139 0
M  V30 863 H 95.0123 -4.58506 0.506971 0
M  V30 864 H 93.2553 -4.30354 0.545672 0
M  V30 865 H 93.9263 -5.48967 -0.577861 0
M  V30 866 H 96.4023 -3.84716 -1.58534 0
M  V30 867 H 95.2783 -4.88914 -2.49507 0
M  V30 868 H 95.5393 -3.23215 -3.01636 0
M  V30 869 N 94.5984 0.214957 -1.56127 0
M  V30 870 C 95.8444 0.939762 -1.79712 0
M  V30 871 C 96.1774 1.83723 -0.629247 0
M  V30 872 O 95.4524 1.90925 0.371197 0
M  V30 873 C 95.7354 1.77306 -3.13424 0
M  V30 874 C 95.5884 0.90164 -4.40671 0
M  V30 875 C 96.9074 2.74956 -3.43638 0
M  V30 876 H 94.0264 0.340214 -0.653776 0
M  V30 877 H 96.6684 0.20824 -1.88855 0
M  V30 878 H 94.8184 2.39673 -3.0576 0
M  V30 879 H 96.4904 0.294206 -4.60361 0
M  V30 880 H 94.7334 0.207368 -4.33304 0
M  V30 881 H 95.4044 1.51923 -5.30682 0
M  V30 882 H 97.8804 2.22724 -3.51473 0
M  V30 883 H 96.7564 3.30358 -4.38355 0
M  V30 884 H 97.0174 3.53023 -2.66134 0
M  V30 885 N 96.0765 1.50051 0.48192 0
M  V30 886 C 97.3045 1.64237 1.25832 0
M  V30 887 C 97.7195 0.321336 1.86045 0
M  V30 888 O 97.0765 -0.695478 1.68729 0
M  V30 889 C 97.1275 2.72548 2.37487 0
M  V30 890 O 96.8485 3.99529 1.79745 0
M  V30 891 C 98.3495 2.9761 3.28547 0
M  V30 892 H 95.5695 0.55237 0.380957 0
M  V30 893 H 98.1135 1.96207 0.576467 0
M  V30 894 H 96.2685 2.43303 3.01467 0
M  V30 895 H 96.6825 4.59342 2.5319 0
M  V30 896 H 98.1565 3.77084 4.03127 0
M  V30 897 H 98.6335 2.0826 3.86684 0
M  V30 898 H 99.2395 3.28345 2.70314 0
M  V30 899 N 97.5546 -0.734337 1.39446 0
M  V30 900 C 98.7946 -1.50655 1.38139 0
M  V30 901 C 99.1586 -1.91986 -0.0228701 0
M  V30 902 O 100.36 -2.68318 -0.160947 0
M  V30 903 C 98.6306 -2.71251 2.32718 0
M  V30 904 S 100.19 -3.60892 2.49605 0
M  V30 905 H 97.0076 -0.515315 0.489869 0
M  V30 906 H 99.6096 -0.860392 1.75549 0
M  V30 907 H 98.3136 -2.39027 3.33608 0
M  V30 908 H 97.8446 -3.40795 1.96526 0
M  V30 909 H 99.8596 -4.64899 1.73446 0
M  V30 910 N 99.0327 -1.24633 -0.964593 0
M  V30 911 C 99.9647 -0.999302 -2.06268 0
M  V30 912 C 100.978 0.0323226 -1.62768 0
M  V30 913 O 102.167 -0.205079 -1.77318 0
M  V30 914 C 99.2667 -0.486816 -3.35385 0
M  V30 915 C 98.4397 -1.5823 -4.07777 0
M  V30 916 C 97.4987 -1.07191 -5.15166 0
M  V30 917 O 96.5247 -1.76426 -5.41168 0
M  V30 918 N 97.7267 0.0920373 -5.80427 0
M  V30 919 H 100.492 -1.94477 -2.28033 0
M  V30 920 H 98.0527 -1.15704 -1.13244 0
M  V30 921 H 100.045 -0.130066 -4.04491 0
M  V30 922 H 98.6147 0.364459 -3.10468 0
M  V30 923 H 97.8347 -2.11109 -3.32906 0
M  V30 924 H 99.1227 -2.31854 -4.52903 0
M  V30 925 H 98.5207 0.670784 -5.61709 0
M  V30 926 H 97.0777 0.389905 -6.50633 0
M  V30 927 N 100.511 1.16574 -1.06058 0
M  V30 928 C 101.443 2.2045 -0.627239 0
M  V30 929 C 102.456 1.59752 0.313534 0
M  V30 930 O 103.645 1.78192 0.104896 0
M  V30 931 C 100.745 3.3875 0.100974 0
M  V30 932 C 99.9178 4.29008 -0.852687 0
M  V30 933 C 98.9768 5.25944 -0.164152 0
M  V30 934 O 98.0028 5.63535 -0.801047 0
M  V30 935 N 99.2048 5.70075 1.09518 0
M  V30 936 H 101.97 2.58249 -1.52077 0
M  V30 937 H 99.5308 1.3156 -0.943594 0
M  V30 938 H 101.523 4.00638 0.57194 0
M  V30 939 H 100.093 2.99476 0.89628 0
M  V30 940 H 99.3128 3.64419 -1.50308 0
M  V30 941 H 100.601 4.86195 -1.49972 0
M  V30 942 H 99.9988 5.41624 1.6328 0
M  V30 943 H 98.5558 6.34067 1.51006 0
M  V30 944 N 101.989 0.842826 1.3317 0
M  V30 945 C 103.237 0.439577 1.97262 0
M  V30 946 C 103.558 -1.00548 1.67078 0
M  V30 947 O 102.828 -1.70098 0.971779 0
M  V30 948 H 101.408 0.159558 0.72976 0
M  V30 949 H 104.07 1.07665 1.62463 0
M  V30 950 H 103.166 0.574886 3.0676 0
M  V30 951 N 103.467 -1.45747 0.599634 0
M  V30 952 C 104.697 -2.06369 0.0977132 0
M  V30 953 C 105.105 -1.44624 -1.21985 0
M  V30 954 O 104.448 -0.551831 -1.75216 0
M  V30 955 C 104.51 -3.59284 -0.124673 0
M  V30 956 C 104.174 -4.43318 1.10987 0
M  V30 957 C 105.171 -4.78796 2.02609 0
M  V30 958 C 102.856 -4.84194 1.33647 0
M  V30 959 C 104.85 -5.53997 3.15224 0
M  V30 960 C 102.537 -5.5915 2.46565 0
M  V30 961 C 103.535 -5.93968 3.37182 0
M  V30 962 O 103.223 -6.67405 4.48136 0
M  V30 963 H 102.955 -0.673122 0.0623153 0
M  V30 964 H 105.509 -1.88104 0.824981 0
M  V30 965 H 103.739 -3.75919 -0.906745 0
M  V30 966 H 105.428 -4.01775 -0.577201 0
M  V30 967 H 106.194 -4.47781 1.86325 0
M  V30 968 H 102.073 -4.56534 0.64016 0
M  V30 969 H 105.617 -5.81091 3.85978 0
M  V30 970 H 101.514 -5.89579 2.62805 0
M  V30 971 H 102.282 -6.85847 4.46717 0
M  V30 972 N 104.945 -0.338344 -1.53925 0
M  V30 973 C 106.192 0.259758 -2.00827 0
M  V30 974 C 106.52 1.50973 -1.22628 0
M  V30 975 O 105.775 1.93379 -0.300509 0
M  V30 976 C 106.074 0.62448 -3.51902 0
M  V30 977 C 105.74 -0.528006 -4.47798 0
M  V30 978 C 104.402 -0.844298 -4.73735 0
M  V30 979 C 106.754 -1.30143 -5.0469 0
M  V30 980 C 104.082 -1.93648 -5.53821 0
M  V30 981 C 106.434 -2.38382 -5.85967 0
M  V30 982 C 105.098 -2.70576 -6.10201 0
M  V30 983 H 104.368 0.0950523 -0.734878 0
M  V30 984 H 107.015 -0.465182 -1.85764 0
M  V30 985 H 105.32 1.43006 -3.64769 0
M  V30 986 H 107.017 1.09905 -3.85645 0
M  V30 987 H 103.607 -0.271421 -4.2774 0
M  V30 988 H 107.791 -1.07033 -4.84621 0
M  V30 989 H 103.047 -2.19021 -5.70824 0
M  V30 990 H 107.221 -2.98746 -6.29066 0
M  V30 991 H 104.848 -3.55333 -6.72044 0
M  V30 992 N 106.423 1.57458 -0.0668435 0
M  V30 993 C 107.37 2.12439 0.902122 0
M  V30 994 C 108.34 1.03565 1.2986 0
M  V30 995 O 109.525 1.312 1.38532 0
M  V30 996 C 106.665 2.6865 2.16614 0
M  V30 997 C 105.778 3.91663 1.82274 0
M  V30 998 C 104.913 4.36134 3.0325 0
M  V30 999 C 103.952 5.51808 2.64904 0
M  V30 1000 N 103.089 5.9126 3.78624 0
M  V30 1001 H 107.929 2.94934 0.426382 0
M  V30 1002 H 105.466 1.4575 0.198819 0
M  V30 1003 H 107.424 2.99346 2.90599 0
M  V30 1004 H 106.054 1.88928 2.61737 0
M  V30 1005 H 105.106 3.6746 0.983719 0
M  V30 1006 H 106.418 4.75693 1.50059 0
M  V30 1007 H 105.572 4.68465 3.85519 0
M  V30 1008 H 104.311 3.50948 3.38655 0
M  V30 1009 H 103.316 5.19133 1.81055 0
M  V30 1010 H 104.541 6.38722 2.30675 0
M  V30 1011 H 102.487 5.09024 4.138 0
M  V30 1012 H 102.404 6.70018 3.5016 0
M  V30 1013 H 103.672 6.28212 4.61486 0
M  V30 1014 N 107.901 -0.206675 1.56239 0
M  V30 1015 C 109.141 -0.93574 1.81723 0
M  V30 1016 C 109.505 -1.80927 0.642609 0
M  V30 1017 O 110.706 -2.57323 0.777081 0
M  V30 1018 C 108.977 -1.74012 3.12177 0
M  V30 1019 S 110.536 -2.52279 3.59028 0
M  V30 1020 H 107.354 -0.314065 0.637875 0
M  V30 1021 H 109.956 -0.200071 1.94474 0
M  V30 1022 H 108.66 -1.0888 3.95693 0
M  V30 1023 H 108.191 -2.51782 3.02274 0
M  V30 1024 H 110.206 -3.76209 3.23545 0
M  V30 1025 N 109.379 -1.50304 -0.473955 0
M  V30 1026 C 110.311 -1.65109 -1.58971 0
M  V30 1027 C 111.324 -0.532676 -1.53839 0
M  V30 1028 O 112.513 -0.805751 -1.59279 0
M  V30 1029 C 109.613 -1.61684 -2.97845 0
M  V30 1030 C 108.786 -2.8951 -3.27876 0
M  V30 1031 C 107.845 -2.78768 -4.4629 0
M  V30 1032 O 106.871 -3.52722 -4.46739 0
M  V30 1033 N 108.073 -1.9213 -5.47783 0
M  V30 1034 H 110.838 -2.61347 -1.46689 0
M  V30 1035 H 108.399 -1.47732 -0.662324 0
M  V30 1036 H 110.391 -1.52114 -3.75024 0
M  V30 1037 H 108.961 -0.731925 -3.03911 0
M  V30 1038 H 108.181 -3.13228 -2.39336 0
M  V30 1039 H 109.469 -3.74199 -3.4475 0
M  V30 1040 H 108.867 -1.31353 -5.50239 0
M  V30 1041 H 107.424 -1.88466 -6.23958 0
M  V30 1042 N 110.857 0.726932 -1.39834 0
M  V30 1043 C 112.082 1.52121 -1.40976 0
M  V30 1044 C 112.507 1.88098 -0.00826029 0
M  V30 1045 O 111.865 1.52479 0.980807 0
M  V30 1046 C 111.913 2.78021 -2.29644 0
M  V30 1047 O 111.017 3.74272 -1.73188 0
M  V30 1048 H 110.358 0.45908 -0.479731 0
M  V30 1049 H 112.888 0.896207 -1.83927 0
M  V30 1050 H 112.898 3.26671 -2.44438 0
M  V30 1051 H 111.573 2.51169 -3.31492 0
M  V30 1052 H 110.15 3.33073 -1.6768 0
M  V30 1053 N 112.336 1.25143 0.95797 0
M  V30 1054 C 113.246 1.06968 2.08794 0
M  V30 1055 C 114.262 0.00773911 1.73998 0
M  V30 1056 O 115.438 0.207972 2.00323 0
M  V30 1057 C 112.503 0.68691 3.39827 0
M  V30 1058 C 111.564 1.82641 3.88511 0
M  V30 1059 C 110.797 1.46181 5.1329 0
M  V30 1060 O 111.02 0.355971 5.69288 0
M  V30 1061 O 109.954 2.29085 5.566 0
M  V30 1062 H 113.78 2.01723 2.27027 0
M  V30 1063 H 111.365 1.04051 1.07209 0
M  V30 1064 H 113.247 0.485417 4.18595 0
M  V30 1065 H 111.922 -0.231417 3.22872 0
M  V30 1066 H 110.829 2.08274 3.10762 0
M  V30 1067 H 112.162 2.72386 4.09959 0
M  V30 1068 N 113.814 -1.1601 1.06675 0
M  V30 1069 C 115.062 -1.86264 0.784229 0
M  V30 1070 C 115.383 -1.82328 -0.691488 0
M  V30 1071 O 114.653 -1.25947 -1.50047 0
M  V30 1072 H 113.233 -0.689621 0.28711 0
M  V30 1073 H 115.895 -1.40664 1.34906 0
M  V30 1074 H 114.991 -2.91595 1.11259 0
M  V30 1075 N 115.292 -0.849877 -1.32721 0
M  V30 1076 C 116.224 -0.248332 -2.27851 0
M  V30 1077 C 117.237 0.577218 -1.52224 0
M  V30 1078 O 118.426 0.402489 -1.73903 0
M  V30 1079 C 115.526 0.668107 -3.32249 0
M  V30 1080 C 114.699 -0.120534 -4.37234 0
M  V30 1081 C 113.758 0.720932 -5.21238 0
M  V30 1082 O 112.784 0.156166 -5.68986 0
M  V30 1083 N 113.986 2.03647 -5.43607 0
M  V30 1084 H 116.751 -1.06575 -2.80111 0
M  V30 1085 H 114.312 -0.709395 -1.45531 0
M  V30 1086 H 116.304 1.23627 -3.85355 0
M  V30 1087 H 114.874 1.38621 -2.80184 0
M  V30 1088 H 114.094 -0.870108 -3.84477 0
M  V30 1089 H 115.382 -0.662406 -5.0447 0
M  V30 1090 H 114.78 2.51871 -5.06535 0
M  V30 1091 H 113.337 2.55287 -5.99727 0
M  V30 1092 N 116.77 1.45427 -0.607355 0
M  V30 1093 C 118.01 2.04128 -0.105458 0
M  V30 1094 C 118.374 1.46555 1.24039 0
M  V30 1095 O 119.575 1.96608 1.833 0
M  V30 1096 C 117.846 3.57338 -0.0665324 0
M  V30 1097 S 119.405 4.37201 0.374207 0
M  V30 1098 H 116.223 0.709278 -0.0494575 0
M  V30 1099 H 118.825 1.78139 -0.805404 0
M  V30 1100 H 117.529 3.96752 -1.04957 0
M  V30 1101 H 117.06 3.87902 0.655415 0
M  V30 1102 H 119.075 4.6888 1.62377 0
M  V30 1103 N 118.248 0.346503 1.53744 0
M  V30 1104 C 119.497 -0.250122 2.00143 0
M  V30 1105 C 119.81 -1.51418 1.23822 0
M  V30 1106 O 121.016 -2.18823 1.60713 0
M  V30 1107 C 119.472 -0.496252 3.56462 0
M  V30 1108 C 119.08 0.752077 4.41642 0
M  V30 1109 C 120.824 -1.05157 4.11269 0
M  V30 1110 C 118.731 0.476583 5.89477 0
M  V30 1111 H 117.661 -0.0972409 0.747703 0
M  V30 1112 H 120.312 0.46229 1.77581 0
M  V30 1113 H 118.694 -1.26944 3.75102 0
M  V30 1114 H 119.868 1.5266 4.34778 0
M  V30 1115 H 118.183 1.22925 3.97842 0
M  V30 1116 H 120.78 -1.27269 5.19333 0
M  V30 1117 H 121.123 -2.00799 3.64672 0
M  V30 1118 H 121.656 -0.339019 3.96353 0
M  V30 1119 H 118.395 1.4028 6.40314 0
M  V30 1120 H 117.915 -0.259794 5.99237 0
M  V30 1121 H 119.594 0.0949315 6.4693 0
M  V30 1122 N 119.726 -1.57421 0.075193 0
M  V30 1123 C 121.137 -1.81021 -0.456964 0
M  V30 1124 C 121.488 -0.98936 -1.69429 0
M  V30 1125 O 120.613 -0.212865 -2.15351 0
M  V30 1126 C 121.208 -3.28329 -0.83581 0
M  V30 1127 C 119.767 -3.52764 -1.31281 0
M  V30 1128 C 118.914 -2.75676 -0.299648 0
M  V30 1129 H 121.865 -1.55822 0.300856 0
M  V30 1130 H 121.886 -3.40564 -1.69696 0
M  V30 1131 H 121.398 -3.88046 0.0649238 0
M  V30 1132 H 119.499 -2.98355 -2.23193 0
M  V30 1133 H 119.612 -4.61451 -1.28839 0
M  V30 1134 H 117.976 -2.42538 -0.777641 0
M  V30 1135 H 118.759 -3.38132 0.593417 0
M  V30 1136 N 121.204 0.198386 -1.56346 0
M  V30 1137 C 122.152 1.26538 -1.95169 0
M  V30 1138 C 123.146 1.47295 -0.836685 0
M  V30 1139 O 124.352 1.48195 -1.02167 0
M  V30 1140 H 120.727 0.424744 -0.620561 0
M  V30 1141 H 122.698 0.910904 -2.84157 0
M  V30 1142 C 121.447 2.6035 -2.30463 0
M  V30 1143 H 120.77 2.45192 -3.15786 0
M  V30 1144 H 122.21 3.33762 -2.61494 0
M  V30 1145 C 120.669 3.17096 -1.13806 0
M  V30 1146 O 121.199 3.99588 -0.41135 0
M  V30 1147 N 119.405 2.75795 -0.915736 0
M  V30 1148 H 118.952 2.08816 -1.50843 0
M  V30 1149 H 118.91 3.14101 -0.136979 0
M  V30 1150 N 122.682 1.50554 0.465978 0
M  V30 1151 C 123.907 1.65838 1.24549 0
M  V30 1152 C 124.332 0.343486 1.84937 0
M  V30 1153 O 123.69 -0.69324 1.67523 0
M  V30 1154 C 123.738 2.75533 2.32624 0
M  V30 1155 O 122.842 2.37142 3.37398 0
M  V30 1156 H 122.183 0.553893 0.366194 0
M  V30 1157 H 124.713 1.96959 0.553927 0
M  V30 1158 H 124.723 2.98763 2.77857 0
M  V30 1159 H 123.398 3.70962 1.88043 0
M  V30 1160 H 121.975 2.24377 2.97841 0
M  V30 1161 N 124.16 -0.719506 1.40217 0
M  V30 1162 C 125.406 -1.48034 1.39491 0
M  V30 1163 C 125.761 -1.92399 -0.00443536 0
M  V30 1164 O 125.054 -1.64993 -0.974061 0
M  V30 1165 C 125.248 -2.72271 2.31524 0
M  V30 1166 C 125.077 -2.40055 3.80268 0
M  V30 1167 C 123.847 -2.31588 4.49105 0
M  V30 1168 C 126.045 -2.04581 4.71859 0
M  V30 1169 N 124.027 -1.92006 5.83101 0
M  V30 1170 C 125.398 -1.75568 5.94623 0
M  V30 1171 C 127.453 -1.91183 4.59732 0
M  V30 1172 C 126.156 -1.34505 7.06612 0
M  V30 1173 C 128.182 -1.51524 5.71659 0
M  V30 1174 C 127.544 -1.23406 6.93506 0
M  V30 1175 H 123.643 -0.539927 0.565688 0
M  V30 1176 H 126.227 -0.834764 1.75897 0
M  V30 1177 H 124.398 -3.34584 1.97251 0
M  V30 1178 H 126.13 -3.38584 2.21682 0
M  V30 1179 H 122.885 -2.49199 4.02737 0
M  V30 1180 H 123.309 -1.74764 6.54054 0
M  V30 1181 H 127.951 -2.11584 3.66049 0
M  V30 1182 H 125.669 -1.12846 8.00182 0
M  V30 1183 H 129.255 -1.41741 5.6427 0
M  V30 1184 H 128.135 -0.931788 7.78645 0
M  V30 1185 N 125.638 -1.25649 -0.95132 0
M  V30 1186 C 126.884 -1.10757 -1.69884 0
M  V30 1187 C 127.217 0.350061 -1.91019 0
M  V30 1188 O 126.492 1.25783 -1.48354 0
M  V30 1189 C 126.775 -1.86606 -3.07978 0
M  V30 1190 C 126.628 -3.40217 -2.94232 0
M  V30 1191 C 127.947 -1.65182 -4.07925 0
M  V30 1192 H 125.066 -0.40374 -0.616574 0
M  V30 1193 H 127.708 -1.54521 -1.10558 0
M  V30 1194 H 125.858 -1.49409 -3.58621 0
M  V30 1195 H 127.53 -3.87108 -2.50889 0
M  V30 1196 H 125.773 -3.67759 -2.30078 0
M  V30 1197 H 126.444 -3.88505 -3.92133 0
M  V30 1198 H 128.92 -1.9757 -3.66204 0
M  V30 1199 H 127.796 -2.20683 -5.02583 0
M  V30 1200 H 128.057 -0.593933 -4.38092 0
M  V30 1201 N 127.117 1.15442 -1.07289 0
M  V30 1202 C 128.357 1.8788 -0.805012 0
M  V30 1203 C 128.721 1.80413 0.656907 0
M  V30 1204 O 129.922 2.47874 1.0398 0
M  V30 1205 C 128.193 3.3298 -1.29843 0
M  V30 1206 S 129.752 4.23158 -1.16114 0
M  V30 1207 H 126.57 0.64839 -0.291739 0
M  V30 1208 H 129.172 1.39285 -1.37186 0
M  V30 1209 H 127.876 3.35958 -2.35712 0
M  V30 1210 H 127.407 3.86629 -0.726767 0
M  V30 1211 H 129.422 4.96103 -0.0982778 0
M  V30 1212 N 128.595 0.856903 1.32268 0
M  V30 1213 C 129.872 0.382583 1.91822 0
M  V30 1214 C 130.252 -1.13407 1.78051 0
M  V30 1215 O 129.6 -1.95673 1.18001 0
M  V30 1216 C 129.81 0.849446 3.38505 0
M  V30 1217 C 131.158 0.867936 4.15634 0
M  V30 1218 O 132.182 0.794232 3.47232 0
M  V30 1219 O 131.041 0.972286 5.37781 0
M  V30 1220 H 128.135 0.112014 0.819379 0
M  V30 1221 H 130.681 0.943952 1.41024 0
M  V30 1222 H 129.453 1.89267 3.42482 0
M  V30 1223 H 129.076 0.265652 3.96712 0
M  V30 1224 N 130.073 -1.45103 0.615059 0
M  V30 1225 C 131.005 -2.28786 -0.13762 0
M  V30 1226 C 132.018 -1.40376 -0.824525 0
M  V30 1227 O 133.207 -1.64681 -0.688662 0
M  V30 1228 C 130.307 -3.16322 -1.21628 0
M  V30 1229 C 129.48 -4.33054 -0.615039 0
M  V30 1230 C 128.539 -5.01743 -1.58556 0
M  V30 1231 O 127.565 -5.58293 -1.10895 0
M  V30 1232 N 128.767 -5.01714 -2.91998 0
M  V30 1233 H 131.532 -2.94025 0.580483 0
M  V30 1234 H 129.093 -1.55373 0.45507 0
M  V30 1235 H 131.085 -3.59139 -1.86552 0
M  V30 1236 H 129.655 -2.52943 -1.83681 0
M  V30 1237 H 128.875 -3.93627 0.21245 0
M  V30 1238 H 130.163 -5.08431 -0.193704 0
M  V30 1239 H 129.561 -4.57075 -3.33316 0
M  V30 1240 H 128.118 -5.48371 -3.52325 0
M  V30 1241 N 131.551 -0.354651 -1.53558 0
M  V30 1242 C 132.828 0.294281 -1.93374 0
M  V30 1243 C 133.208 1.67313 -1.28723 0
M  V30 1244 O 132.556 2.24179 -0.442247 0
M  V30 1245 C 132.766 0.355445 -3.47185 0
M  V30 1246 C 134.114 0.601007 -4.20325 0
M  V30 1247 O 135.138 0.437106 -3.53508 0
M  V30 1248 O 133.997 0.919322 -5.38712 0
M  V30 1249 H 131.091 0.174033 -0.808481 0
M  V30 1250 H 133.637 -0.406638 -1.64756 0
M  V30 1251 H 132.409 -0.611729 -3.86489 0
M  V30 1252 H 132.032 1.1027 -3.82003 0
M  V30 1253 N 133.029 1.57378 -0.0835403 0
M  V30 1254 C 133.961 2.10389 0.909338 0
M  V30 1255 C 134.974 1.03858 1.25369 0
M  V30 1256 O 136.163 1.31338 1.20882 0
M  V30 1257 C 133.263 2.55908 2.2218 0
M  V30 1258 C 132.436 3.86145 2.05453 0
M  V30 1259 C 131.495 4.17633 3.20108 0
M  V30 1260 O 130.521 4.87043 2.94581 0
M  V30 1261 N 131.723 3.72113 4.45547 0
M  V30 1262 H 134.488 2.962 0.456657 0
M  V30 1263 H 132.049 1.61579 0.101877 0
M  V30 1264 H 134.041 2.74027 2.97811 0
M  V30 1265 H 132.611 1.75171 2.58909 0
M  V30 1266 H 131.831 3.7729 1.1422 0
M  V30 1267 H 133.119 4.7137 1.91541 0
M  V30 1268 H 132.517 3.16062 4.69171 0
M  V30 1269 H 131.074 3.95409 5.18165 0
M  V30 1270 N 134.507 -0.190092 1.56449 0
M  V30 1271 C 135.784 -0.935886 1.71757 0
M  V30 1272 C 136.164 -2.01173 0.639726 0
M  V30 1273 O 135.512 -2.25827 -0.348502 0
M  V30 1274 C 135.722 -1.51775 3.1427 0
M  V30 1275 C 137.07 -1.99794 3.74656 0
M  V30 1276 O 138.094 -1.61607 3.1743 0
M  V30 1277 O 136.953 -2.70079 4.751 0
M  V30 1278 H 134.047 -0.439229 0.700719 0
M  V30 1279 H 136.593 -0.179395 1.68749 0
M  V30 1280 H 135.365 -0.742505 3.84191 0
M  V30 1281 H 134.988 -2.33894 3.21527 0
M  V30 1282 N 135.985 -1.50799 -0.457987 0
M  V30 1283 C 137.225 -1.64088 -1.21879 0
M  V30 1284 C 137.589 -0.339848 -1.88968 0
M  V30 1285 O 138.79 -0.348301 -2.66534 0
M  V30 1286 C 137.061 -2.79726 -2.2246 0
M  V30 1287 S 138.62 -3.13225 -3.07303 0
M  V30 1288 H 135.438 -0.578314 -0.41361 0
M  V30 1289 H 138.04 -1.88632 -0.513645 0
M  V30 1290 H 136.744 -3.72722 -1.71775 0
M  V30 1291 H 136.275 -2.57308 -2.97584 0
M  V30 1292 H 138.29 -2.58062 -4.23814 0
M  V30 1293 N 137.463 0.71206 -1.40597 0
M  V30 1294 C 138.74 1.46536 -1.29563 0
M  V30 1295 C 139.12 2.10931 0.0844217 0
M  V30 1296 O 138.468 2.00418 1.0975 0
M  V30 1297 C 138.678 2.49821 -2.43701 0
M  V30 1298 C 140.026 3.15551 -2.841 0
M  V30 1299 O 141.05 2.60142 -2.4332 0
M  V30 1300 O 139.909 4.15867 -3.54566 0
M  V30 1301 H 137.003 0.651801 -0.509004 0
M  V30 1302 H 139.549 0.743935 -1.52524 0
M  V30 1303 H 138.321 2.00778 -3.35863 0
M  V30 1304 H 137.944 3.29495 -2.22528 0
M  V30 1305 N 138.941 1.26152 0.944643 0
M  V30 1306 C 140.218 1.02247 1.66748 0
M  V30 1307 C 140.598 -0.448202 2.06287 0
M  V30 1308 O 139.946 -1.42779 1.78399 0
M  V30 1309 C 140.156 1.96788 2.88228 0
M  V30 1310 C 141.504 2.25201 3.59958 0
M  V30 1311 O 142.528 1.94626 2.98327 0
M  V30 1312 O 141.387 2.77242 4.70956 0
M  V30 1313 H 138.481 0.388517 0.730057 0
M  V30 1314 H 141.027 1.37348 0.99668 0
M  V30 1315 H 139.799 2.96047 2.55875 0
M  V30 1316 H 139.422 1.62145 3.63035 0
M  V30 1317 N 140.419 -1.14872 1.07899 0
M  V30 1318 C 141.667 -1.85422 0.803941 0
M  V30 1319 C 141.988 -1.83051 -0.67211 0
M  V30 1320 O 141.258 -1.27532 -1.48703 0
M  V30 1321 H 139.838 -0.686537 0.294408 0
M  V30 1322 H 142.5 -1.39226 1.3639 0
M  V30 1323 H 141.596 -2.90399 1.14346 0
M  V30 1324 N 141.898 -0.863906 -1.31812 0
M  V30 1325 C 143.123 -0.48527 -2.01643 0
M  V30 1326 C 143.548 0.913058 -1.64453 0
M  V30 1327 O 142.906 1.6014 -0.849985 0
M  V30 1328 C 142.954 -0.642625 -3.54828 0
M  V30 1329 O 142.058 0.320659 -4.11151 0
M  V30 1330 H 141.399 -0.193793 -0.635091 0
M  V30 1331 H 143.929 -1.16565 -1.68148 0
M  V30 1332 H 143.939 -0.533628 -4.04495 0
M  V30 1333 H 142.614 -1.66227 -3.81237 0
M  V30 1334 H 141.191 0.167126 -3.72525 0
M  V30 1335 N 143.376 1.44774 -0.622745 0
M  V30 1336 C 144.653 1.95522 -0.0551974 0
M  V30 1337 C 145.033 1.5649 1.41683 0
M  V30 1338 O 144.381 0.834848 2.12703 0
M  V30 1339 C 144.591 3.4796 -0.269242 0
M  V30 1340 C 145.939 4.24306 -0.158014 0
M  V30 1341 O 146.963 3.55637 -0.200162 0
M  V30 1342 O 145.822 5.46471 -0.0558693 0
M  V30 1343 H 142.916 0.826556 0.0271015 0
M  V30 1344 H 145.462 1.54866 -0.693864 0
M  V30 1345 H 144.234 3.6939 -1.29099 0
M  V30 1346 H 143.857 3.95543 0.403966 0
M  V30 1347 N 144.854 0.36279 1.53368 0
M  V30 1348 C 145.764 -0.492994 2.29362 0
M  V30 1349 C 146.78 -1.09507 1.35219 0
M  V30 1350 O 147.956 -1.10662 1.68273 0
M  V30 1351 C 145.021 -1.61855 3.066 0
M  V30 1352 C 144.082 -1.04429 4.16405 0
M  V30 1353 C 143.315 -2.11621 4.89951 0
M  V30 1354 O 143.538 -3.32684 4.63333 0
M  V30 1355 O 142.472 -1.74835 5.75948 0
M  V30 1356 H 146.298 0.125331 3.03441 0
M  V30 1357 H 143.883 0.127253 1.48857 0
M  V30 1358 H 145.765 -2.27302 3.54841 0
M  V30 1359 H 144.44 -2.22233 2.3536 0
M  V30 1360 H 143.347 -0.353819 3.72423 0
M  V30 1361 H 144.68 -0.485113 4.89804 0
M  V30 1362 N 146.332 -1.57332 0.0918853 0
M  V30 1363 C 147.748 -1.57389 -0.264766 0
M  V30 1364 C 147.948 -1.10281 -1.68643 0
M  V30 1365 O 147.004 -0.777801 -2.40222 0
M  V30 1366 C 148.317 -3.00648 -0.0561195 0
M  V30 1367 C 149.865 -3.12754 -0.124116 0
M  V30 1368 C 150.34 -4.57965 0.0564972 0
M  V30 1369 N 151.831 -4.632 0.00155611 0
M  V30 1370 C 152.566 -5.73281 0.116598 0
M  V30 1371 N 152.062 -6.92208 0.286294 0
M  V30 1372 N 153.855 -5.6207 0.0580973 0
M  V30 1373 H 146.006 -1.86262 1.02079 0
M  V30 1374 H 148.269 -0.859579 0.399786 0
M  V30 1375 H 147.975 -3.393 0.925669 0
M  V30 1376 H 147.849 -3.68623 -0.799823 0
M  V30 1377 H 150.236 -2.73976 -1.09641 0
M  V30 1378 H 150.317 -2.47377 0.651024 0
M  V30 1379 H 149.961 -4.97436 1.02564 0
M  V30 1380 H 149.891 -5.21399 -0.738297 0
M  V30 1381 H 152.382 -3.77686 -0.127192 0
M  V30 1382 H 152.695 -7.71934 0.365676 0
M  V30 1383 H 151.04 -6.94254 0.32192 0
M  V30 1384 H 154.231 -4.68043 -0.0733204 0
M  V30 1385 H 154.404 -6.47824 0.151203 0
M  V30 1386 N 147.81 0.181792 -1.56548 0
M  V30 1387 C 148.742 1.24956 -1.92142 0
M  V30 1388 C 149.755 1.41022 -0.813422 0
M  V30 1389 O 150.944 1.41212 -1.09186 0
M  V30 1390 C 148.044 2.61981 -2.14987 0
M  V30 1391 C 147.217 2.6735 -3.46183 0
M  V30 1392 C 146.276 3.85664 -3.5798 0
M  V30 1393 O 145.302 3.72148 -4.30691 0
M  V30 1394 N 146.504 5.01683 -2.92053 0
M  V30 1395 H 149.269 0.947329 -2.84334 0
M  V30 1396 H 146.83 0.371629 -1.57577 0
M  V30 1397 H 148.822 3.3958 -2.20154 0
M  V30 1398 H 147.392 2.84637 -1.2923 0
M  V30 1399 H 146.612 1.75925 -3.52766 0
M  V30 1400 H 147.9 2.67939 -4.32534 0
M  V30 1401 H 147.298 5.15564 -2.32832 0
M  V30 1402 H 145.855 5.77181 -3.0283 0
M  V30 1403 N 149.288 1.51039 0.449983 0
M  V30 1404 C 150.565 1.53612 1.21089 0
M  V30 1405 C 150.945 0.292997 2.09057 0
M  V30 1406 O 150.293 -0.72259 2.16774 0
M  V30 1407 C 150.503 2.84337 2.0237 0
M  V30 1408 C 151.851 3.35807 2.59843 0
M  V30 1409 O 152.875 2.85802 2.12593 0
M  V30 1410 O 151.734 4.23029 3.45989 0
M  V30 1411 H 148.828 0.617057 0.550608 0
M  V30 1412 H 151.374 1.63344 0.460082 0
M  V30 1413 H 150.146 3.66278 1.37681 0
M  V30 1414 H 149.769 2.77708 2.84542 0
M  V30 1415 N 150.766 -0.704594 1.40972 0
M  V30 1416 C 152.006 -1.47691 1.41304 0
M  V30 1417 C 152.37 -1.91992 0.0178582 0
M  V30 1418 O 153.571 -2.68599 -0.103996 0
M  V30 1419 C 151.842 -2.66254 2.38419 0
M  V30 1420 S 153.401 -3.55516 2.57204 0
M  V30 1421 H 150.219 -0.504808 0.500689 0
M  V30 1422 H 152.821 -0.822962 1.77335 0
M  V30 1423 H 151.525 -2.31897 3.38603 0
M  V30 1424 H 151.056 -3.3655 2.03711 0
M  V30 1425 H 153.071 -4.61115 1.83268 0
M  V30 1426 N 152.244 -1.26651 -0.937939 0
M  V30 1427 C 153.469 -1.15279 -1.72411 0
M  V30 1428 C 153.894 0.287866 -1.85884 0
M  V30 1429 O 153.252 1.20855 -1.35143 0
M  V30 1430 C 153.3 -1.83028 -3.10698 0
M  V30 1431 O 152.404 -1.12128 -3.96864 0
M  V30 1432 H 151.745 -0.401504 -0.528858 0
M  V30 1433 H 154.275 -1.67531 -1.1745 0
M  V30 1434 H 154.285 -1.89981 -3.6107 0
M  V30 1435 H 152.96 -2.87833 -3.00208 0
M  V30 1436 H 151.537 -1.13173 -3.55312 0
M  V30 1437 N 153.722 1.14298 -1.08507 0
M  V30 1438 C 154.654 2.1907 -0.673859 0
M  V30 1439 C 155.667 1.60381 0.279577 0
M  V30 1440 O 156.856 1.78374 0.0670754 0
M  V30 1441 C 153.956 3.38888 0.0290979 0
M  V30 1442 C 153.129 4.27103 -0.943494 0
M  V30 1443 C 152.188 5.25477 -0.275676 0
M  V30 1444 O 151.214 5.61709 -0.920401 0
M  V30 1445 N 152.416 5.7227 0.974013 0
M  V30 1446 H 155.181 2.54965 -1.57521 0
M  V30 1447 H 152.742 1.29528 -0.971287 0
M  V30 1448 H 154.734 4.01761 0.48683 0
M  V30 1449 H 153.304 3.01309 0.832555 0
M  V30 1450 H 152.524 3.61149 -1.58004 0
M  V30 1451 H 153.812 4.82905 -1.60251 0
M  V30 1452 H 153.21 5.44965 1.51755 0
M  V30 1453 H 151.767 6.37127 1.37522 0
M  V30 1454 N 155.201 0.870884 1.31352 0
M  V30 1455 C 156.426 0.495957 2.01383 0
M  V30 1456 C 156.851 -0.904324 1.64935 0
M  V30 1457 O 156.209 -1.59687 0.858466 0
M  V30 1458 C 156.257 0.661433 3.54482 0
M  V30 1459 O 155.361 -0.298851 4.11316 0
M  V30 1460 H 154.702 0.197158 0.634054 0
M  V30 1461 H 157.232 1.17455 1.67527 0
M  V30 1462 H 157.242 0.555072 4.04207 0
M  V30 1463 H 155.917 1.68246 3.8035 0
M  V30 1464 H 154.494 -0.147368 3.72609 0
M  V30 1465 N 156.679 -1.44442 0.630414 0
M  V30 1466 C 157.907 -2.06414 0.141671 0
M  V30 1467 C 158.322 -1.47105 -1.18345 0
M  V30 1468 O 157.679 -0.593662 -1.72574 0
M  V30 1469 C 157.73 -3.61494 0.0199784 0
M  V30 1470 O 157.451 -4.18594 1.29269 0
M  V30 1471 C 158.952 -4.40499 -0.497544 0
M  V30 1472 H 156.172 -0.666292 0.0793452 0
M  V30 1473 H 158.716 -1.85323 0.864614 0
M  V30 1474 H 156.871 -3.8185 -0.653402 0
M  V30 1475 H 157.285 -5.12026 1.13707 0
M  V30 1476 H 158.759 -5.49433 -0.531708 0
M  V30 1477 H 159.236 -4.11895 -1.52445 0
M  V30 1478 H 159.842 -4.25061 0.142562 0
M  V30 1479 N 158.157 -0.370918 -1.53173 0
M  V30 1480 C 159.397 0.217106 -2.03244 0
M  V30 1481 C 159.761 1.45558 -1.25207 0
M  V30 1482 O 160.962 2.11957 -1.65311 0
M  V30 1483 C 159.233 0.496664 -3.53932 0
M  V30 1484 S 160.792 1.0576 -4.25864 0
M  V30 1485 H 157.61 0.0627827 -0.708223 0
M  V30 1486 H 160.212 -0.515019 -1.88594 0
M  V30 1487 H 158.916 -0.412096 -4.08326 0
M  V30 1488 H 158.447 1.25772 -3.72753 0
M  V30 1489 H 160.462 2.34145 -4.37482 0
M  V30 1490 N 159.635 1.57281 -0.100228 0
M  V30 1491 C 160.86 1.99302 0.573881 0
M  V30 1492 C 161.285 0.979059 1.60611 0
M  V30 1493 O 160.643 -0.0517803 1.81226 0
M  V30 1494 C 160.691 3.40274 1.19358 0
M  V30 1495 O 159.795 3.41676 2.30935 0
M  V30 1496 H 159.136 0.647944 0.145138 0
M  V30 1497 H 161.666 2.03779 -0.183156 0
M  V30 1498 H 161.676 3.78078 1.53365 0
M  V30 1499 H 160.351 4.13594 0.437385 0
M  V30 1500 H 158.928 3.15672 1.98509 0
M  V30 1501 N 161.113 -0.173488 1.56642 0
M  V30 1502 C 162.338 -0.910149 1.86363 0
M  V30 1503 C 162.763 -1.75132 0.686318 0
M  V30 1504 O 162.121 -1.77595 -0.364643 0
M  V30 1505 C 162.169 -1.76447 3.14482 0
M  V30 1506 O 161.273 -2.86584 2.96553 0
M  V30 1507 H 160.614 -0.255086 0.613047 0
M  V30 1508 H 163.144 -0.172283 2.03873 0
M  V30 1509 H 163.154 -2.16483 3.45831 0
M  V30 1510 H 161.829 -1.14658 3.99783 0
M  V30 1511 H 160.406 -2.50146 2.76553 0
M  V30 1512 N 162.591 -1.51276 -0.441967 0
M  V30 1513 C 163.541 -1.6864 -1.53442 0
M  V30 1514 C 164.525 -0.540444 -1.51552 0
M  V30 1515 O 165.717 -0.796157 -1.58083 0
M  V30 1516 C 162.846 -1.8106 -2.91672 0
M  V30 1517 C 161.932 -3.01424 -2.98336 0
M  V30 1518 N 162.323 -4.2467 -2.74752 0
M  V30 1519 C 160.621 -3.00584 -3.29493 0
M  V30 1520 C 161.322 -5.05891 -2.87139 0
M  V30 1521 N 160.298 -4.40442 -3.18609 0
M  V30 1522 H 164.1 -2.61598 -1.33954 0
M  V30 1523 H 161.614 -1.4886 -0.6492 0
M  V30 1524 H 163.611 -1.91609 -3.70259 0
M  V30 1525 H 162.271 -0.892795 -3.12185 0
M  V30 1526 H 163.282 -4.53691 -2.49769 0
M  V30 1527 H 159.959 -2.18417 -3.55809 0
M  V30 1528 H 161.349 -6.13983 -2.72899 0
M  V30 1529 N 164.069 0.697108 -1.41344 0
M  V30 1530 C 165.001 1.8224 -1.39001 0
M  V30 1531 C 166.014 1.60152 -0.292428 0
M  V30 1532 O 167.203 1.69684 -0.554048 0
M  V30 1533 C 164.303 3.18976 -1.14489 0
M  V30 1534 C 163.476 3.68105 -2.36258 0
M  V30 1535 C 162.535 4.83506 -2.07625 0
M  V30 1536 O 161.561 4.95201 -2.8065 0
M  V30 1537 N 162.763 5.70637 -1.06555 0
M  V30 1538 H 165.528 1.84742 -2.35988 0
M  V30 1539 H 163.089 0.87937 -1.35936 0
M  V30 1540 H 165.081 3.93801 -0.932885 0
M  V30 1541 H 163.651 3.11508 -0.261043 0
M  V30 1542 H 162.871 2.84204 -2.7317 0
M  V30 1543 H 164.159 3.97667 -3.17393 0
M  V30 1544 H 163.557 5.63817 -0.461125 0
M  V30 1545 H 162.114 6.45368 -0.913444 0
M  V30 1546 N 165.547 1.27147 0.931209 0
M  V30 1547 C 166.796 1.12664 1.67302 0
M  V30 1548 C 167.109 -0.327718 1.92835 0
M  V30 1549 O 168.315 -0.593392 2.64936 0
M  V30 1550 C 166.771 1.9683 3.01307 0
M  V30 1551 C 166.379 3.46901 2.83485 0
M  V30 1552 C 168.123 1.90985 3.79111 0
M  V30 1553 C 166.03 4.23279 4.13024 0
M  V30 1554 H 164.96 0.41803 0.627509 0
M  V30 1555 H 167.611 1.51539 1.03481 0
M  V30 1556 H 165.993 1.50797 3.66164 0
M  V30 1557 H 167.167 4.00773 2.27415 0
M  V30 1558 H 165.482 3.54088 2.19113 0
M  V30 1559 H 168.079 2.45328 4.75098 0
M  V30 1560 H 168.422 0.882718 4.06834 0
M  V30 1561 H 168.955 2.34895 3.21044 0
M  V30 1562 H 165.694 5.26503 3.90481 0
M  V30 1563 H 165.214 3.74186 4.6877 0
M  V30 1564 H 166.893 4.32265 4.81411 0
M  V30 1565 N 167.025 -1.13721 1.09112 0
M  V30 1566 C 168.253 -1.88773 0.846899 0
M  V30 1567 C 168.668 -1.7896 -0.601572 0
M  V30 1568 O 168.025 -1.15394 -1.41388 0
M  V30 1569 C 168.076 -3.3849 1.26913 0
M  V30 1570 O 167.797 -3.48043 2.66079 0
M  V30 1571 C 169.298 -4.30518 1.05682 0
M  V30 1572 H 166.518 -0.59772 0.304914 0
M  V30 1573 H 169.062 -1.43977 1.45227 0
M  V30 1574 H 167.217 -3.80881 0.707723 0
M  V30 1575 H 167.631 -4.4109 2.83795 0
M  V30 1576 H 169.105 -5.3391 1.40156 0
M  V30 1577 H 169.582 -4.392 -0.00563416 0
M  V30 1578 H 170.188 -3.93893 1.60402 0
M  V30 1579 N 168.503 -0.877838 -1.30888 0
M  V30 1580 C 169.743 -0.499301 -1.98208 0
M  V30 1581 C 170.107 0.932649 -1.67826 0
M  V30 1582 O 171.308 1.41694 -2.28421 0
M  V30 1583 C 169.579 -0.758221 -3.49265 0
M  V30 1584 S 171.138 -0.480719 -4.36159 0
M  V30 1585 H 167.956 -0.186062 -0.686223 0
M  V30 1586 H 170.558 -1.13556 -1.59139 0
M  V30 1587 H 169.262 -1.79903 -3.68867 0
M  V30 1588 H 168.793 -0.109247 -3.93248 0
M  V30 1589 H 170.808 0.683698 -4.91467 0
M  V30 1590 N 169.982 1.44106 -0.638065 0
M  V30 1591 C 171.207 2.0685 -0.150916 0
M  V30 1592 C 171.632 1.47417 1.16833 0
M  V30 1593 O 170.99 0.578264 1.71831 0
M  V30 1594 C 171.038 3.60555 -0.05708 0
M  V30 1595 O 170.142 4.00465 0.984972 0
M  V30 1596 H 169.483 0.658151 -0.0879399 0
M  V30 1597 H 172.013 1.84865 -0.876707 0
M  V30 1598 H 172.023 4.07789 0.131232 0
M  V30 1599 H 170.698 4.03193 -1.02021 0
M  V30 1600 H 169.275 3.64849 0.770672 0
M  V30 1601 N 171.46 0.379036 1.52974 0
M  V30 1602 C 172.408 -0.476033 2.27677 0
M  V30 1603 C 173.402 -1.0719 1.31174 0
M  V30 1604 O 174.608 -1.01355 1.48752 0
M  V30 1605 H 170.983 -0.172255 0.732006 0
M  V30 1606 H 172.954 0.175615 2.97883 0
M  V30 1607 C 171.703 -1.5967 3.0887 0
M  V30 1608 H 171.026 -1.1475 3.82978 0
M  V30 1609 H 172.466 -2.16943 3.64296 0
M  V30 1610 C 170.925 -2.54682 2.20542 0
M  V30 1611 O 171.455 -3.57836 1.82527 0
M  V30 1612 N 169.661 -2.24183 1.84907 0
M  V30 1613 H 169.208 -1.40333 2.1602 0
M  V30 1614 H 169.166 -2.88006 1.26096 0
M  V30 1615 N 172.938 -1.57226 0.108567 0
M  V30 1616 C 174.186 -1.94448 -0.550853 0
M  V30 1617 C 174.507 -0.992074 -1.67878 0
M  V30 1618 O 173.777 -0.0465 -1.95845 0
M  V30 1619 H 172.357 -0.717897 -0.206479 0
M  V30 1620 H 175.019 -1.94112 0.175062 0
M  V30 1621 H 174.115 -2.97218 -0.952259 0
M  V30 1622 N 174.416 0.165178 -1.56732 0
M  V30 1623 C 175.348 1.22911 -1.93457 0
M  V30 1624 C 176.361 1.40152 -0.828333 0
M  V30 1625 O 177.55 1.40046 -1.10677 0
M  V30 1626 C 174.65 2.59686 -2.17753 0
M  V30 1627 C 173.823 2.63663 -3.48999 0
M  V30 1628 C 172.882 3.81845 -3.62051 0
M  V30 1629 O 171.908 3.67559 -4.34613 0
M  V30 1630 N 173.11 4.98557 -2.97357 0
M  V30 1631 H 175.875 0.917118 -2.85323 0
M  V30 1632 H 173.436 0.354895 -1.57962 0
M  V30 1633 H 175.428 3.37225 -2.23743 0
M  V30 1634 H 173.998 2.83251 -1.32242 0
M  V30 1635 H 173.218 1.72173 -3.54612 0
M  V30 1636 H 174.506 2.63336 -4.35352 0
M  V30 1637 H 173.904 5.13065 -2.38287 0
M  V30 1638 H 172.461 5.73936 -3.08934 0
M  V30 1639 N 175.894 1.51508 0.433938 0
M  V30 1640 C 177.134 1.66006 1.19253 0
M  V30 1641 C 177.498 0.369868 1.88404 0
M  V30 1642 O 178.699 0.39066 2.65946 0
M  V30 1643 C 176.97 2.83229 2.17981 0
M  V30 1644 S 178.529 3.18075 3.02281 0
M  V30 1645 H 175.347 0.584821 0.404358 0
M  V30 1646 H 177.949 1.89425 0.48357 0
M  V30 1647 H 176.653 3.75407 1.65824 0
M  V30 1648 H 176.184 2.6201 2.93453 0
M  V30 1649 H 178.199 2.64772 4.19655 0
M  V30 1650 N 177.372 -0.689602 1.41712 0
M  V30 1651 C 178.621 -1.44534 1.40686 0
M  V30 1652 C 178.934 -1.95588 0.0213352 0
M  V30 1653 O 180.14 -2.71271 -0.111534 0
M  V30 1654 C 178.596 -2.61387 2.47396 0
M  V30 1655 C 178.204 -2.17094 3.91885 0
M  V30 1656 C 179.948 -3.38986 2.55517 0
M  V30 1657 C 177.855 -3.3094 4.90135 0
M  V30 1658 H 176.785 -0.542925 0.52321 0
M  V30 1659 H 179.436 -0.748054 1.6756 0
M  V30 1660 H 177.818 -3.33412 2.13664 0
M  V30 1661 H 178.992 -1.52318 4.34897 0
M  V30 1662 H 177.307 -1.52473 3.8748 0
M  V30 1663 H 179.904 -4.23747 3.26102 0
M  V30 1664 H 180.247 -3.84578 1.59391 0
M  V30 1665 H 180.78 -2.74021 2.8837 0
M  V30 1666 H 177.519 -2.90355 5.87685 0
M  V30 1667 H 177.039 -3.94546 4.51767 0
M  V30 1668 H 178.718 -3.9663 5.11169 0
M  V30 1669 N 178.85 -1.27639 -0.924453 0
M  V30 1670 C 180.261 -1.12834 -1.48746 0
M  V30 1671 C 180.612 0.285505 -1.94112 0
M  V30 1672 O 179.737 1.17874 -1.81479 0
M  V30 1673 C 180.332 -2.04217 -2.70334 0
M  V30 1674 C 178.891 -1.93509 -3.22848 0
M  V30 1675 C 178.038 -1.96583 -1.95577 0
M  V30 1676 H 180.989 -1.40484 -0.738233 0
M  V30 1677 H 181.01 -1.59989 -3.4523 0
M  V30 1678 H 180.522 -3.07111 -2.37285 0
M  V30 1679 H 178.623 -0.936131 -3.60649 0
M  V30 1680 H 178.736 -2.79917 -3.88823 0
M  V30 1681 H 177.1 -1.4085 -2.12211 0
M  V30 1682 H 177.883 -3.01137 -1.64837 0
M  V30 1683 N 180.328 1.1314 -1.09713 0
M  V30 1684 C 181.553 1.88862 -0.857081 0
M  V30 1685 C 181.978 1.78729 0.586304 0
M  V30 1686 O 181.336 1.13692 1.41222 0
M  V30 1687 C 181.384 3.36325 -1.30069 0
M  V30 1688 O 180.488 4.09815 -0.461007 0
M  V30 1689 H 179.829 0.587108 -0.310162 0
M  V30 1690 H 182.359 1.43129 -1.46203 0
M  V30 1691 H 182.369 3.87157 -1.28738 0
M  V30 1692 H 181.044 3.43017 -2.35185 0
M  V30 1693 H 179.621 3.68986 -0.538888 0
M  V30 1694 N 181.806 0.884767 1.30421 0
M  V30 1695 C 182.716 0.355398 2.31892 0
M  V30 1696 C 183.732 -0.542261 1.65335 0
M  V30 1697 O 184.908 -0.435432 1.96637 0
M  V30 1698 C 181.973 -0.421661 3.44126 0
M  V30 1699 C 181.034 0.505727 4.26311 0
M  V30 1700 C 180.267 -0.234343 5.33185 0
M  V30 1701 O 180.49 -1.46045 5.51386 0
M  V30 1702 O 179.424 0.415443 6.00465 0
M  V30 1703 H 183.25 1.19685 2.79122 0
M  V30 1704 H 180.835 0.648596 1.34587 0
M  V30 1705 H 182.717 -0.861641 4.12497 0
M  V30 1706 H 181.392 -1.23942 2.99032 0
M  V30 1707 H 180.299 0.994513 3.60639 0
M  V30 1708 H 181.632 1.28948 4.75009 0
M  V30 1709 N 183.284 -1.43765 0.645699 0
M  V30 1710 C 184.514 -2.05953 0.163318 0
M  V30 1711 C 184.922 -1.48432 -1.17322 0
M  V30 1712 O 184.265 -0.607295 -1.73371 0
M  V30 1713 C 184.327 -3.59499 -0.0103065 0
M  V30 1714 C 183.991 -4.39563 1.25035 0
M  V30 1715 C 184.988 -4.72108 2.17739 0
M  V30 1716 C 182.673 -4.79697 1.48983 0
M  V30 1717 C 184.667 -5.43688 3.3269 0
M  V30 1718 C 182.354 -5.51023 2.64229 0
M  V30 1719 C 183.352 -5.8294 3.55908 0
M  V30 1720 O 183.04 -6.5281 4.69142 0
M  V30 1721 H 182.772 -0.670798 0.0836986 0
M  V30 1722 H 185.326 -1.85384 0.884407 0
M  V30 1723 H 183.556 -3.78613 -0.78669 0
M  V30 1724 H 185.245 -4.03408 -0.449087 0
M  V30 1725 H 186.011 -4.41627 2.00476 0
M  V30 1726 H 181.89 -4.54266 0.785078 0
M  V30 1727 H 185.434 -5.68517 4.04269 0
M  V30 1728 H 181.331 -5.8092 2.81429 0
M  V30 1729 H 182.099 -6.71288 4.6831 0
M  V30 1730 N 184.763 -0.387143 -1.52771 0
M  V30 1731 C 186.179 -0.037007 -1.59557 0
M  V30 1732 C 186.379 1.44801 -1.40124 0
M  V30 1733 O 185.435 2.21227 -1.21716 0
M  V30 1734 C 186.748 -0.512256 -2.96305 0
M  V30 1735 C 188.296 -0.468328 -3.09476 0
M  V30 1736 C 188.771 -0.919731 -4.4867 0
M  V30 1737 N 190.262 -0.875656 -4.54848 0
M  V30 1738 C 190.997 -1.19637 -5.6078 0
M  V30 1739 N 190.493 -1.58745 -6.74368 0
M  V30 1740 N 192.286 -1.11776 -5.50874 0
M  V30 1741 H 184.437 -1.35395 -1.63652 0
M  V30 1742 H 186.7 -0.554818 -0.768688 0
M  V30 1743 H 186.406 -1.54935 -3.15734 0
M  V30 1744 H 186.28 0.089805 -3.77093 0
M  V30 1745 H 188.667 0.559671 -2.89744 0
M  V30 1746 H 188.748 -1.10616 -2.30646 0
M  V30 1747 H 188.392 -1.94595 -4.69143 0
M  V30 1748 H 188.322 -0.258927 -5.25963 0
M  V30 1749 H 190.813 -0.587843 -3.733 0
M  V30 1750 H 191.126 -1.81586 -7.51163 0
M  V30 1751 H 189.471 -1.6263 -6.75705 0
M  V30 1752 H 192.662 -0.811264 -4.61016 0
M  V30 1753 H 192.835 -1.37103 -6.3333 0
M  V30 1754 N 186.241 1.57166 -0.116904 0
M  V30 1755 C 187.481 1.97008 0.544715 0
M  V30 1756 C 187.845 0.998713 1.63981 0
M  V30 1757 O 189.046 1.28644 2.36018 0
M  V30 1758 C 187.317 3.41145 1.06559 0
M  V30 1759 S 188.876 4.02998 1.73603 0
M  V30 1760 H 185.694 0.688587 0.177112 0
M  V30 1761 H 188.296 1.94459 -0.201487 0
M  V30 1762 H 187 4.09592 0.257374 0
M  V30 1763 H 186.531 3.4734 1.84712 0
M  V30 1764 H 188.546 3.93585 3.02168 0
M  V30 1765 N 187.719 -0.156864 1.56817 0
M  V30 1766 C 188.996 -0.899244 1.73704 0
M  V30 1767 C 189.376 -1.99771 0.682254 0
M  V30 1768 O 188.724 -2.26515 -0.300522 0
M  V30 1769 C 188.934 -1.45075 3.17418 0
M  V30 1770 C 190.282 -1.91802 3.7881 0
M  V30 1771 O 191.306 -1.54838 3.20786 0
M  V30 1772 O 190.165 -2.5994 4.80722 0
M  V30 1773 H 187.259 -0.424267 0.709878 0
M  V30 1774 H 189.805 -0.143561 1.69092 0
M  V30 1775 H 188.577 -0.660846 3.85679 0
M  V30 1776 H 188.2 -2.27021 3.26416 0
M  V30 1777 N 189.197 -1.51736 -0.425897 0
M  V30 1778 C 190.147 -1.70258 -1.51645 0
M  V30 1779 C 191.131 -0.556488 -1.5097 0
M  V30 1780 O 192.323 -0.812879 -1.5723 0
M  V30 1781 C 189.452 -1.84143 -2.89735 0
M  V30 1782 C 188.538 -3.04572 -2.95122 0
M  V30 1783 N 188.929 -4.2756 -2.70233 0
M  V30 1784 C 187.227 -3.04061 -3.26286 0
M  V30 1785 C 187.928 -5.08908 -2.81757 0
M  V30 1786 N 186.904 -4.43797 -3.13919 0
M  V30 1787 H 190.706 -2.63004 -1.31172 0
M  V30 1788 H 188.22 -1.4954 -0.633375 0
M  V30 1789 H 190.217 -1.95525 -3.68206 0
M  V30 1790 H 188.877 -0.925857 -3.1122 0
M  V30 1791 H 189.888 -4.56315 -2.44943 0
M  V30 1792 H 186.565 -2.22179 -3.53473 0
M  V30 1793 H 187.955 -6.16843 -2.66372 0
M  V30 1794 N 190.675 0.682077 -1.42076 0
M  V30 1795 C 191.921 1.44428 -1.42367 0
M  V30 1796 C 192.254 1.94164 -0.0373056 0
M  V30 1797 O 191.529 1.70429 0.937239 0
M  V30 1798 C 191.812 2.64654 -2.44194 0
M  V30 1799 C 191.665 2.20596 -3.91991 0
M  V30 1800 C 192.984 3.66865 -2.431 0
M  V30 1801 H 190.103 0.523834 -0.518428 0
M  V30 1802 H 192.745 0.77576 -1.73442 0
M  V30 1803 H 190.895 3.2169 -2.17826 0
M  V30 1804 H 192.567 1.68783 -4.29313 0
M  V30 1805 H 190.81 1.52242 -4.06208 0
M  V30 1806 H 191.481 3.06921 -4.58807 0
M  V30 1807 H 193.957 3.19531 -2.66532 0
M  V30 1808 H 192.833 4.48577 -3.16339 0
M  V30 1809 H 193.094 4.17493 -1.45437 0
M  V30 1810 N 192.153 1.28127 0.917671 0
M  V30 1811 C 193.569 1.05749 1.19538 0
M  V30 1812 C 193.769 -0.202633 2.00479 0
M  V30 1813 O 192.825 -0.905382 2.3571 0
M  V30 1814 C 194.138 2.30273 1.93378 0
M  V30 1815 C 195.686 2.35412 2.06277 0
M  V30 1816 C 196.161 3.59692 2.83524 0
M  V30 1817 N 197.652 3.60309 2.91087 0
M  V30 1818 C 198.387 4.53147 3.51348 0
M  V30 1819 N 197.883 5.563 4.12919 0
M  V30 1820 N 199.676 4.40751 3.48849 0
M  V30 1821 H 191.827 2.09024 0.377184 0
M  V30 1822 H 194.09 0.919798 0.22951 0
M  V30 1823 H 193.796 3.22055 1.41328 0
M  V30 1824 H 193.67 2.36378 2.93947 0
M  V30 1825 H 196.057 1.4413 2.57508 0
M  V30 1826 H 196.138 2.33304 1.04895 0
M  V30 1827 H 195.782 4.51316 2.32973 0
M  V30 1828 H 195.712 3.59054 3.85211 0
M  V30 1829 H 198.203 2.85714 2.47338 0
M  V30 1830 H 198.516 6.2329 4.56869 0
M  V30 1831 H 196.861 5.60131 4.11435 0
M  V30 1832 H 200.052 3.59367 2.99955 0
M  V30 1833 H 200.225 5.13291 3.9552 0
M  V30 1834 N 193.631 -1.12557 1.10312 0
M  V30 1835 C 194.908 -1.80363 0.756878 0
M  V30 1836 C 195.288 -1.97067 -0.756824 0
M  V30 1837 O 194.636 -1.54601 -1.68259 0
M  V30 1838 C 194.846 -3.14812 1.50647 0
M  V30 1839 C 196.194 -3.90029 1.67817 0
M  V30 1840 O 197.218 -3.24464 1.46974 0
M  V30 1841 O 196.077 -5.07652 2.02365 0
M  V30 1842 H 193.171 -0.780667 0.272926 0
M  V30 1843 H 195.717 -1.19404 1.20586 0
M  V30 1844 H 194.489 -2.97936 2.53672 0
M  V30 1845 H 194.112 -3.83478 1.05026 0
M  V30 1846 N 195.109 -0.891671 -1.2995 0
M  V30 1847 C 196.349 -0.520296 -1.97667 0
M  V30 1848 C 196.713 0.914797 -1.68806 0
M  V30 1849 O 197.914 1.39263 -2.29911 0
M  V30 1850 C 196.185 -0.795222 -3.48441 0
M  V30 1851 S 197.744 -0.526953 -4.35624 0
M  V30 1852 H 194.562 -0.19333 -0.684211 0
M  V30 1853 H 197.164 -1.15238 -1.57926 0
M  V30 1854 H 195.868 -1.83805 -3.66938 0
M  V30 1855 H 195.399 -0.15095 -3.9311 0
M  V30 1856 H 197.414 0.631533 -4.92165 0
M  V30 1857 N 196.587 1.43421 -0.653314 0
M  V30 1858 C 197.998 1.85065 -0.246537 0
M  V30 1859 C 198.349 1.54688 1.2069 0
M  V30 1860 O 197.474 0.995896 1.92122 0
M  V30 1861 C 198.069 3.35922 -0.440666 0
M  V30 1862 C 196.628 3.76297 -0.0882064 0
M  V30 1863 C 195.775 2.67147 -0.743484 0
M  V30 1864 H 198.726 1.33572 -0.856979 0
M  V30 1865 H 198.747 3.79204 0.313798 0
M  V30 1866 H 198.259 3.58 -1.49858 0
M  V30 1867 H 196.36 3.5983 0.96711 0
M  V30 1868 H 196.473 4.76338 -0.513738 0
M  V30 1869 H 194.837 2.54086 -0.176712 0
M  V30 1870 H 195.62 2.92053 -1.80443 0
M  V30 1871 N 198.065 0.39524 1.52563 0
M  V30 1872 C 199.342 -0.242908 1.94086 0
M  V30 1873 C 199.722 -1.63841 1.33114 0
M  V30 1874 O 199.07 -2.22928 0.501529 0
M  V30 1875 C 199.28 -0.26327 3.48006 0
M  V30 1876 C 200.628 -0.489354 4.21771 0
M  V30 1877 O 201.652 -0.343226 3.54543 0
M  V30 1878 O 200.511 -0.776169 5.4096 0
M  V30 1879 H 197.605 -0.152536 0.812811 0
M  V30 1880 H 200.151 0.450178 1.6362 0
M  V30 1881 H 198.923 0.713985 3.84731 0
M  V30 1882 H 198.546 -1.00103 3.84792 0
M  V30 1883 N 199.544 -1.57102 0.125237 0
M  V30 1884 C 200.792 -1.95021 -0.530198 0
M  V30 1885 C 201.113 -1.00982 -1.66816 0
M  V30 1886 O 200.383 -0.0672693 -1.95784 0
M  V30 1887 H 198.963 -0.720046 -0.198853 0
M  V30 1888 H 201.625 -1.93916 0.19564 0
M  V30 1889 H 200.721 -2.98211 -0.920681 0
M  V30 1890 N 201.022 0.148545 -1.56898 0
M  V30 1891 C 201.985 1.16736 -1.97244 0
M  V30 1892 C 202.985 1.35947 -0.858777 0
M  V30 1893 O 204.175 1.32966 -1.12542 0
M  V30 1894 C 201.307 2.52798 -2.28705 0
M  V30 1895 H 202.5 0.821279 -2.88435 0
M  V30 1896 H 200.053 0.391831 -1.51309 0
M  V30 1897 H 200.788 2.92381 -1.403 0
M  V30 1898 H 200.573 2.40216 -3.09901 0
M  V30 1899 H 202.063 3.26179 -2.60762 0
M  V30 1900 N 202.5 1.5196 0.417844 0
M  V30 1901 C 203.777 1.56146 1.17803 0
M  V30 1902 C 204.157 0.337275 2.08388 0
M  V30 1903 O 203.505 -0.676447 2.18258 0
M  V30 1904 C 203.715 2.88566 1.96293 0
M  V30 1905 C 205.063 3.41244 2.52662 0
M  V30 1906 O 206.087 2.90247 2.06483 0
M  V30 1907 O 204.946 4.30273 3.36938 0
M  V30 1908 H 202.04 0.628598 0.537395 0
M  V30 1909 H 204.586 1.64283 0.425331 0
M  V30 1910 H 203.358 3.69116 1.2988 0
M  V30 1911 H 202.981 2.83681 2.78587 0
M  V30 1912 N 203.978 -0.674533 1.42435 0
M  V30 1913 C 204.888 -1.81751 1.48337 0
M  V30 1914 C 205.904 -1.69975 0.372099 0
M  V30 1915 O 207.08 -1.91521 0.62304 0
M  V30 1916 C 204.145 -3.17895 1.38361 0
M  V30 1917 C 203.206 -3.41625 2.59982 0
M  V30 1918 C 202.439 -4.71274 2.50473 0
M  V30 1919 O 202.662 -5.49197 1.54075 0
M  V30 1920 O 201.596 -4.96254 3.4061 0
M  V30 1921 H 205.422 -1.79728 2.44809 0
M  V30 1922 H 203.007 -0.830312 1.24202 0
M  V30 1923 H 204.889 -3.99136 1.35161 0
M  V30 1924 H 203.564 -3.20555 0.450144 0
M  V30 1925 H 202.471 -2.60231 2.68757 0
M  V30 1926 H 203.804 -3.43796 3.52229 0
M  V30 1927 N 205.456 -1.28612 -0.910864 0
M  V30 1928 C 206.404 -1.1265 -2.03501 0
M  V30 1929 C 207.398 -0.0450054 -1.6934 0
M  V30 1930 O 208.604 -0.203988 -1.7884 0
M  V30 1931 H 204.979 -0.347639 -0.666822 0
M  V30 1932 H 206.95 -2.07849 -2.14106 0
M  V30 1933 C 205.699 -0.808143 -3.38178 0
M  V30 1934 H 205.022 -1.63231 -3.6496 0
M  V30 1935 H 206.462 -0.736426 -4.17556 0
M  V30 1936 C 204.921 0.488226 -3.33344 0
M  V30 1937 O 205.451 1.51766 -3.71927 0
M  V30 1938 N 203.657 0.490009 -2.86439 0
M  V30 1939 H 203.204 -0.348161 -2.55236 0
M  V30 1940 H 203.162 1.35741 -2.83587 0
M  V30 1941 N 206.934 1.1197 -1.10907 0
M  V30 1942 C 208.211 1.79959 -0.766432 0
M  V30 1943 C 208.591 1.97466 0.746363 0
M  V30 1944 O 207.939 1.55491 1.67436 0
M  V30 1945 C 208.149 3.14009 -1.52314 0
M  V30 1946 C 209.497 3.89134 -1.69883 0
M  V30 1947 O 210.521 3.2368 -1.48692 0
M  V30 1948 O 209.38 5.06572 -2.05054 0
M  V30 1949 H 206.474 0.779208 -0.277062 0
M  V30 1950 H 209.02 1.18762 -1.21217 0
M  V30 1951 H 207.792 2.96587 -2.55249 0
M  V30 1952 H 207.415 3.82915 -1.07059 0
M  V30 1953 N 208.412 0.89855 1.29475 0
M  V30 1954 C 209.652 0.530771 1.97388 0
M  V30 1955 C 210.016 -0.905832 1.69289 0
M  V30 1956 O 211.217 -1.38042 2.30646 0
M  V30 1957 C 209.488 0.81369 3.48014 0
M  V30 1958 S 211.047 0.550048 4.35339 0
M  V30 1959 H 207.865 0.196956 0.683176 0
M  V30 1960 H 210.467 1.16074 1.57312 0
M  V30 1961 H 209.171 1.85749 3.65958 0
M  V30 1962 H 208.702 0.171795 3.93025 0
M  V30 1963 H 210.717 -0.605423 4.92493 0
M  V30 1964 N 209.89 -1.43072 0.660911 0
M  V30 1965 C 210.822 -2.29108 -0.0647641 0
M  V30 1966 C 211.835 -1.42928 -0.779448 0
M  V30 1967 O 213.024 -1.66788 -0.635921 0
M  V30 1968 C 210.124 -3.20032 -1.11503 0
M  V30 1969 C 209.297 -4.34792 -0.476955 0
M  V30 1970 C 208.356 -5.06534 -1.42513 0
M  V30 1971 O 207.382 -5.61538 -0.930771 0
M  V30 1972 N 208.584 -5.1075 -2.75889 0
M  V30 1973 H 211.349 -2.92029 0.673731 0
M  V30 1974 H 208.91 -1.53846 0.50427 0
M  V30 1975 H 210.902 -3.64892 -1.75032 0
M  V30 1976 H 209.472 -2.58658 -1.75541 0
M  V30 1977 H 208.692 -3.92752 0.337572 0
M  V30 1978 H 209.98 -5.0879 -0.0318525 0
M  V30 1979 H 209.378 -4.67447 -3.18606 0
M  V30 1980 H 207.935 -5.59302 -3.347 0
M  V30 1981 N 211.368 -0.403325 -1.52352 0
M  V30 1982 C 212.598 0.17376 -2.05868 0
M  V30 1983 C 213.006 1.39898 -1.27378 0
M  V30 1984 O 212.349 1.80939 -0.31729 0
M  V30 1985 C 212.411 0.594756 -3.54546 0
M  V30 1986 C 212.075 -0.518926 -4.54044 0
M  V30 1987 C 213.072 -1.3807 -5.01231 0
M  V30 1988 C 210.757 -0.689961 -4.97539 0
M  V30 1989 C 212.751 -2.39852 -5.90551 0
M  V30 1990 C 210.438 -1.71109 -5.86656 0
M  V30 1991 C 211.436 -2.56378 -6.33056 0
M  V30 1992 O 211.124 -3.56743 -7.20409 0
M  V30 1993 H 210.856 0.0264951 -0.675481 0
M  V30 1994 H 213.41 -0.571179 -1.97299 0
M  V30 1995 H 211.64 1.39189 -3.60782 0
M  V30 1996 H 213.329 1.0991 -3.90736 0
M  V30 1997 H 214.095 -1.25994 -4.68349 0
M  V30 1998 H 209.974 -0.035939 -4.60986 0
M  V30 1999 H 213.518 -3.06441 -6.26689 0
M  V30 2000 H 209.415 -1.83218 -6.18952 0
M  V30 2001 H 210.183 -3.52918 -7.38506 0
M  V30 2002 N 212.846 1.57033 -0.133567 0
M  V30 2003 C 214.257 1.82593 0.389464 0
M  V30 2004 C 214.608 1.05156 1.6564 0
M  V30 2005 O 213.733 0.292644 2.14412 0
M  V30 2006 C 214.328 3.31204 0.713377 0
M  V30 2007 C 212.887 3.57393 1.18098 0
M  V30 2008 C 212.034 2.76598 0.197126 0
M  V30 2009 H 214.985 1.54598 -0.358481 0
M  V30 2010 H 215.006 3.46627 1.56939 0
M  V30 2011 H 214.518 3.87537 -0.2089 0
M  V30 2012 H 212.619 3.06433 2.11966 0
M  V30 2013 H 212.732 4.65915 1.11624 0
M  V30 2014 H 211.096 2.45257 0.687088 0
M  V30 2015 H 211.879 3.35697 -0.718504 0
M  V30 2016 N 214.325 -0.140222 1.56975 0
M  V30 2017 C 215.553 -0.866437 1.87884 0
M  V30 2018 C 215.968 -1.74428 0.722517 0
M  V30 2019 O 215.325 -1.79891 -0.30749 0
M  V30 2020 C 215.376 -1.71753 3.18093 0
M  V30 2021 O 215.097 -0.875056 4.29272 0
M  V30 2022 C 216.598 -2.55074 3.62563 0
M  V30 2023 H 213.818 -0.25019 0.622612 0
M  V30 2024 H 216.362 -0.130977 2.0408 0
M  V30 2025 H 214.517 -2.40598 3.03631 0
M  V30 2026 H 214.931 -1.46002 5.03769 0
M  V30 2027 H 216.405 -3.10356 4.5649 0
M  V30 2028 H 216.882 -3.31434 2.88181 0
M  V30 2029 H 217.488 -1.91509 3.79743 0
M  V30 2030 N 215.803 -1.52179 -0.40978 0
M  V30 2031 C 217.043 -1.67882 -1.16597 0
M  V30 2032 C 217.407 -0.399795 -1.87791 0
M  V30 2033 O 218.608 -0.43292 -2.65291 0
M  V30 2034 C 216.879 -2.86662 -2.13448 0
M  V30 2035 S 218.438 -3.22843 -2.97183 0
M  V30 2036 H 215.256 -0.59118 -0.395002 0
M  V30 2037 H 217.858 -1.9017 -0.453373 0
M  V30 2038 H 216.562 -3.77998 -1.59831 0
M  V30 2039 H 216.093 -2.66645 -2.89247 0
M  V30 2040 H 218.108 -2.71415 -4.15389 0
M  V30 2041 N 217.281 0.66697 -1.42791 0
M  V30 2042 C 218.191 1.80962 -1.49299 0
M  V30 2043 C 219.207 1.69775 -0.381108 0
M  V30 2044 O 220.383 1.91188 -0.633188 0
M  V30 2045 C 217.448 3.17156 -1.40045 0
M  V30 2046 C 216.509 3.40242 -2.6179 0
M  V30 2047 C 215.742 4.69939 -2.52969 0
M  V30 2048 O 215.965 5.48372 -1.56985 0
M  V30 2049 O 214.899 4.94441 -3.43237 0
M  V30 2050 H 218.725 1.78427 -2.45759 0
M  V30 2051 H 216.31 0.823713 -1.24641 0
M  V30 2052 H 218.192 3.98413 -1.37276 0
M  V30 2053 H 216.867 3.20312 -0.467138 0
M  V30 2054 H 215.774 2.58802 -2.70134 0
M  V30 2055 H 217.107 3.41923 -3.54047 0
M  V30 2056 N 218.759 1.29093 0.90403 0
M  V30 2057 C 219.691 1.09658 2.01266 0
M  V30 2058 C 220.704 0.0453729 1.62737 0
M  V30 2059 O 221.893 0.289446 1.76138 0
M  V30 2060 C 218.993 0.646278 3.32681 0
M  V30 2061 C 218.166 1.77505 3.99763 0
M  V30 2062 C 217.225 1.31649 5.09465 0
M  V30 2063 O 216.251 2.02045 5.32134 0
M  V30 2064 N 217.453 0.184997 5.80205 0
M  V30 2065 H 220.218 2.05135 2.18494 0
M  V30 2066 H 217.779 1.20975 1.07594 0
M  V30 2067 H 219.771 0.322906 4.0341 0
M  V30 2068 H 218.341 -0.215916 3.11853 0
M  V30 2069 H 217.561 2.26752 3.22455 0
M  V30 2070 H 218.849 2.53198 4.41325 0
M  V30 2071 H 218.247 -0.402021 5.6427 0
M  V30 2072 H 216.804 -0.0790358 6.51752 0
M  V30 2073 N 220.237 -1.11381 1.11499 0
M  V30 2074 C 221.167 -2.19509 0.796125 0
M  V30 2075 C 222.148 -1.68458 -0.235796 0
M  V30 2076 O 223.333 -1.93947 -0.0991344 0
M  V30 2077 C 220.463 -3.46475 0.239205 0
M  V30 2078 C 219.417 -4.10744 1.20307 0
M  V30 2079 C 218.743 -5.32293 0.50683 0
M  V30 2080 C 220.043 -4.55597 2.55399 0
M  V30 2081 H 221.737 -2.46439 1.70024 0
M  V30 2082 H 219.283 -1.18446 0.818935 0
M  V30 2083 H 221.236 -4.214 0.00392006 0
M  V30 2084 H 219.96 -3.19006 -0.700206 0
M  V30 2085 H 218.619 -3.37813 1.42399 0
M  V30 2086 H 218.267 -5.01095 -0.437408 0
M  V30 2087 H 217.967 -5.76243 1.1497 0
M  V30 2088 H 219.491 -6.09956 0.280351 0
M  V30 2089 H 220.905 -5.21841 2.37391 0
M  V30 2090 H 219.302 -5.10363 3.15673 0
M  V30 2091 H 220.372 -3.69013 3.14575 0
M  V30 2092 N 221.715 -0.905404 -1.28997 0
M  V30 2093 C 222.943 -0.549846 -1.9946 0
M  V30 2094 C 223.358 0.866834 -1.67724 0
M  V30 2095 O 222.715 1.57298 -0.925404 0
M  V30 2096 C 222.766 -0.739387 -3.53858 0
M  V30 2097 O 222.487 -2.10031 -3.84472 0
M  V30 2098 C 223.988 -0.389541 -4.41585 0
M  V30 2099 H 221.208 -0.210429 -0.637151 0
M  V30 2100 H 223.752 -1.21632 -1.64396 0
M  V30 2101 H 221.907 -0.120023 -3.87214 0
M  V30 2102 H 222.321 -2.13385 -4.79132 0
M  V30 2103 H 223.795 -0.572972 -5.49018 0
M  V30 2104 H 224.272 0.673756 -4.34001 0
M  V30 2105 H 224.878 -0.986089 -4.1371 0
M  V30 2106 N 223.193 1.4272 -0.668489 0
M  V30 2107 C 224.433 2.03497 -0.19194 0
M  V30 2108 C 224.797 1.51684 1.17712 0
M  V30 2109 O 225.998 2.04205 1.74796 0
M  V30 2110 C 224.269 3.56734 -0.218032 0
M  V30 2111 S 225.828 4.38395 0.188438 0
M  V30 2112 H 222.646 0.706542 -0.0794959 0
M  V30 2113 H 225.248 1.74563 -0.880235 0
M  V30 2114 H 223.952 3.91943 -1.2169 0
M  V30 2115 H 223.483 3.90333 0.490303 0
M  V30 2116 H 225.498 4.75345 1.42345 0
M  V30 2117 N 224.671 0.411399 1.52136 0
M  V30 2118 C 225.948 -0.222308 1.94333 0
M  V30 2119 C 226.328 -1.6242 1.34844 0
M  V30 2120 O 225.676 -2.22384 0.525145 0
M  V30 2121 C 225.886 -0.226345 3.48265 0
M  V30 2122 C 227.234 -0.444592 4.22266 0
M  V30 2123 O 228.258 -0.305602 3.54887 0
M  V30 2124 O 227.117 -0.718749 5.41753 0
M  V30 2125 H 224.211 -0.143907 0.814383 0
M  V30 2126 H 226.757 0.467506 1.63133 0
M  V30 2127 H 225.529 0.75475 3.83952 0
M  V30 2128 H 225.152 -0.960163 3.85832 0
M  V30 2129 N 226.149 -1.5696 0.141893 0
M  V30 2130 C 227.097 -2.17784 -0.816874 0
M  V30 2131 C 228.091 -1.1334 -1.25899 0
M  V30 2132 O 229.297 -1.316 -1.22806 0
M  V30 2133 H 225.672 -0.697278 -0.281615 0
M  V30 2134 H 227.643 -2.97087 -0.279621 0
M  V30 2135 C 226.392 -2.80983 -2.04802 0
M  V30 2136 H 225.715 -3.61062 -1.7168 0
M  V30 2137 H 227.155 -3.2705 -2.69841 0
M  V30 2138 C 225.614 -1.79228 -2.8527 0
M  V30 2139 O 226.144 -1.25962 -3.8144 0
M  V30 2140 N 224.35 -1.48647 -2.49704 0
M  V30 2141 H 223.897 -1.92155 -1.71564 0
M  V30 2142 H 223.855 -0.808115 -3.03837 0
M  V30 2143 N 227.627 0.131896 -1.57047 0
M  V30 2144 C 228.875 0.840269 -1.83804 0
M  V30 2145 C 229.196 1.81017 -0.72512 0
M  V30 2146 O 228.466 1.94272 0.251995 0
M  V30 2147 H 227.046 0.313294 -0.678127 0
M  V30 2148 H 229.708 0.122294 -1.94516 0
M  V30 2149 H 228.804 1.39335 -2.79271 0
M  V30 2150 N 229.106 1.52395 0.401703 0
M  V30 2151 C 230.069 1.75636 1.47257 0
M  V30 2152 C 231.069 0.62628 1.48103 0
M  V30 2153 O 232.259 0.894227 1.49497 0
M  V30 2154 C 229.391 1.84553 2.86624 0
M  V30 2155 H 230.584 2.71241 1.27938 0
M  V30 2156 H 228.137 1.42923 0.632662 0
M  V30 2157 H 228.872 0.908882 3.11303 0
M  V30 2158 H 228.657 2.66715 2.87412 0
M  V30 2159 H 230.147 2.04251 3.64241 0
M  V30 2160 N 230.584 -0.659388 1.43143 0
M  V30 2161 C 231.824 -1.43121 1.45931 0
M  V30 2162 C 232.188 -1.91838 0.0789298 0
M  V30 2163 O 233.389 -2.68794 -0.018491 0
M  V30 2164 C 231.66 -2.58534 2.46769 0
M  V30 2165 S 233.219 -3.47154 2.68384 0
M  V30 2166 H 230.037 -0.488624 0.516496 0
M  V30 2167 H 232.639 -0.766128 1.79863 0
M  V30 2168 H 231.343 -2.21007 3.45809 0
M  V30 2169 H 230.874 -3.29898 2.14315 0
M  V30 2170 H 232.889 -4.55051 1.97845 0
M  V30 2171 N 232.062 -1.29571 -0.897171 0
M  V30 2172 C 233.292 -1.20408 -1.67886 0
M  V30 2173 C 233.7 0.237429 -1.87704 0
M  V30 2174 O 233.043 1.17048 -1.41582 0
M  V30 2175 C 233.105 -1.84887 -3.08314 0
M  V30 2176 C 232.769 -3.34189 -3.11716 0
M  V30 2177 C 233.766 -4.30374 -2.91675 0
M  V30 2178 C 231.451 -3.75431 -3.33701 0
M  V30 2179 C 233.445 -5.65776 -2.93557 0
M  V30 2180 C 231.132 -5.10955 -3.35214 0
M  V30 2181 C 232.13 -6.05938 -3.15164 0
M  V30 2182 O 231.818 -7.38987 -3.1647 0
M  V30 2183 H 231.55 -0.418289 -0.531046 0
M  V30 2184 H 234.104 -1.71514 -1.13014 0
M  V30 2185 H 232.334 -1.28295 -3.64798 0
M  V30 2186 H 234.023 -1.70011 -3.6858 0
M  V30 2187 H 234.789 -3.99844 -2.74499 0
M  V30 2188 H 230.668 -3.01953 -3.48347 0
M  V30 2189 H 234.212 -6.39889 -2.77826 0
M  V30 2190 H 230.109 -5.4113 -3.51922 0
M  V30 2191 H 230.877 -7.47823 -3.3272 0
M  V30 2192 N 233.54 1.10788 -1.12088 0
M  V30 2193 C 234.488 2.19111 -0.780587 0
M  V30 2194 C 235.482 1.67818 0.230961 0
M  V30 2195 O 236.688 1.79777 0.0895427 0
M  V30 2196 H 233.063 0.714477 -0.234578 0
M  V30 2197 H 235.034 2.45055 -1.70266 0
M  V30 2198 C 233.783 3.46818 -0.24747 0
M  V30 2199 H 233.106 3.86646 -1.01712 0
M  V30 2200 H 234.546 4.23973 -0.0476291 0
M  V30 2201 C 233.005 3.20968 1.02378 0
M  V30 2202 O 233.535 3.42298 2.10226 0
M  V30 2203 N 231.741 2.74658 0.949271 0
M  V30 2204 H 231.288 2.57501 0.0715173 0
M  V30 2205 H 231.246 2.57739 1.80049 0
M  V30 2206 N 235.018 0.912232 1.28515 0
M  V30 2207 C 236.246 0.560416 1.99166 0
M  V30 2208 C 236.661 -0.857927 1.68182 0
M  V30 2209 O 236.018 -1.56805 0.933733 0
M  V30 2210 C 236.069 0.758142 3.53461 0
M  V30 2211 O 235.79 2.12067 3.83352 0
M  V30 2212 C 237.291 0.412954 4.41372 0
M  V30 2213 H 234.511 0.213805 0.636026 0
M  V30 2214 H 237.055 1.22502 1.63749 0
M  V30 2215 H 235.21 0.140556 3.87145 0
M  V30 2216 H 235.624 2.15923 4.77993 0
M  V30 2217 H 237.098 0.60208 5.48707 0
M  V30 2218 H 237.575 -0.65073 4.34353 0
M  V30 2219 H 238.181 1.00802 4.13182 0
M  V30 2220 N 236.496 -1.42363 0.676048 0
M  V30 2221 C 237.721 -2.06377 0.205705 0
M  V30 2222 C 238.146 -1.50463 -1.12883 0
M  V30 2223 O 237.504 -0.623619 -1.70237 0
M  V30 2224 C 237.552 -3.60277 0.152655 0
M  V30 2225 O 236.656 -4.02935 -0.87845 0
M  V30 2226 H 235.997 -0.655588 0.105359 0
M  V30 2227 H 238.527 -1.82475 0.925412 0
M  V30 2228 H 238.537 -4.07993 -0.0230675 0
M  V30 2229 H 237.212 -4.00346 1.12675 0
M  V30 2230 H 235.789 -3.66764 -0.673668 0
M  V30 2231 N 237.974 -0.419461 -1.51915 0
M  V30 2232 C 238.906 0.43646 -2.25006 0
M  V30 2233 C 239.919 1.00149 -1.28351 0
M  V30 2234 O 241.108 0.898674 -1.54227 0
M  V30 2235 C 238.208 1.6206 -2.9764 0
M  V30 2236 C 237.381 1.17763 -4.21249 0
M  V30 2237 C 236.44 2.22985 -4.76617 0
M  V30 2238 O 235.466 1.83151 -5.38929 0
M  V30 2239 N 236.668 3.55271 -4.59089 0
M  V30 2240 H 239.433 -0.18989 -2.99098 0
M  V30 2241 H 236.994 -0.247386 -1.59999 0
M  V30 2242 H 238.986 2.32038 -3.31573 0
M  V30 2243 H 237.556 2.15266 -2.2667 0
M  V30 2244 H 236.776 0.305582 -3.93014 0
M  V30 2245 H 238.064 0.858781 -5.015 0
M  V30 2246 H 237.462 3.90377 -4.09417 0
M  V30 2247 H 236.019 4.21195 -4.97432 0
M  V30 2248 N 239.452 1.56882 -0.150215 0
M  V30 2249 C 240.399 2.16922 0.788244 0
M  V30 2250 C 241.369 1.10303 1.24187 0
M  V30 2251 O 242.554 1.38359 1.31383 0
M  V30 2252 C 239.694 2.79754 2.02068 0
M  V30 2253 C 238.807 4.00775 1.61257 0
M  V30 2254 C 237.942 4.51595 2.79705 0
M  V30 2255 C 236.981 5.65074 2.35282 0
M  V30 2256 N 236.118 6.10499 3.4675 0
M  V30 2257 H 240.958 2.96779 0.269444 0
M  V30 2258 H 238.495 1.46599 0.12128 0
M  V30 2259 H 240.453 3.14329 2.74323 0
M  V30 2260 H 239.083 2.02536 2.51354 0
M  V30 2261 H 238.135 3.72158 0.787553 0
M  V30 2262 H 239.447 4.82978 1.24633 0
M  V30 2263 H 238.601 4.88242 3.60145 0
M  V30 2264 H 237.34 3.68406 3.19576 0
M  V30 2265 H 236.345 5.28 1.53283 0
M  V30 2266 H 237.57 6.50052 1.96493 0
M  V30 2267 H 235.516 5.30243 3.86236 0
M  V30 2268 H 235.433 6.87637 3.14152 0
M  V30 2269 H 236.701 6.51791 4.27537 0
M  V30 2270 N 240.93 -0.123565 1.57115 0
M  V30 2271 C 242.17 -0.838097 1.86428 0
M  V30 2272 C 242.534 -1.77266 0.737611 0
M  V30 2273 O 243.735 -2.52842 0.912389 0
M  V30 2274 C 242.006 -1.57219 3.20962 0
M  V30 2275 S 243.565 -2.32893 3.71896 0
M  V30 2276 H 240.383 -0.279811 0.653626 0
M  V30 2277 H 242.985 -0.0967034 1.95261 0
M  V30 2278 H 241.689 -0.877522 4.00909 0
M  V30 2279 H 241.22 -2.35405 3.15195 0
M  V30 2280 H 243.235 -3.5853 3.43032 0
M  V30 2281 N 242.408 -1.52605 -0.393616 0
M  V30 2282 C 243.685 -1.58001 -1.15304 0
M  V30 2283 C 244.065 -0.370385 -2.07825 0
M  V30 2284 O 243.413 0.641638 -2.19306 0
M  V30 2285 C 243.623 -2.91652 -1.91677 0
M  V30 2286 C 244.971 -3.4522 -2.47201 0
M  V30 2287 O 245.995 -2.93495 -2.01839 0
M  V30 2288 O 244.854 -4.35579 -3.3005 0
M  V30 2289 H 241.948 -0.637068 -0.527327 0
M  V30 2290 H 244.494 -1.64939 -0.399141 0
M  V30 2291 H 243.266 -3.71136 -1.23992 0
M  V30 2292 H 242.889 -2.88077 -2.74039 0
M  V30 2293 N 243.887 0.651787 -1.4349 0
M  V30 2294 C 245.133 1.4121 -1.46395 0
M  V30 2295 C 245.488 1.92202 -0.087366 0
M  V30 2296 O 244.781 1.69452 0.894231 0
M  V30 2297 C 244.975 2.60914 -2.44251 0
M  V30 2298 C 244.804 2.21639 -3.91288 0
M  V30 2299 C 243.574 2.09897 -4.59643 0
M  V30 2300 C 245.772 1.81835 -4.81083 0
M  V30 2301 N 243.754 1.63967 -5.91598 0
M  V30 2302 C 245.125 1.46998 -6.02322 0
M  V30 2303 C 247.18 1.69031 -4.6833 0
M  V30 2304 C 245.883 1.00638 -7.12225 0
M  V30 2305 C 247.909 1.24077 -5.78238 0
M  V30 2306 C 247.271 0.901772 -6.98604 0
M  V30 2307 H 243.37 0.512322 -0.590805 0
M  V30 2308 H 245.954 0.74989 -1.7968 0
M  V30 2309 H 244.125 3.24792 -2.1299 0
M  V30 2310 H 245.857 3.27622 -2.37584 0
M  V30 2311 H 242.612 2.297 -4.14168 0
M  V30 2312 H 243.036 1.43359 -6.61647 0
M  V30 2313 H 247.678 1.93878 -3.75727 0
M  V30 2314 H 245.396 0.745399 -8.04655 0
M  V30 2315 H 248.982 1.14657 -5.7039 0
M  V30 2316 H 247.862 0.559226 -7.82203 0
M  V30 2317 N 245.365 1.30045 0.890287 0
M  V30 2318 C 246.312 1.15976 1.99545 0
M  V30 2319 C 247.282 0.0506202 1.66023 0
M  V30 2320 O 248.467 0.219847 1.89529 0
M  V30 2321 C 245.607 0.852054 3.34416 0
M  V30 2322 C 244.72 2.04255 3.80662 0
M  V30 2323 C 243.855 1.6734 5.04154 0
M  V30 2324 C 242.894 2.82916 5.42794 0
M  V30 2325 N 242.031 2.46333 6.57468 0
M  V30 2326 H 246.871 2.10524 2.10911 0
M  V30 2327 H 244.408 1.04749 1.03276 0
M  V30 2328 H 246.366 0.654296 4.12037 0
M  V30 2329 H 244.996 -0.0565502 3.2275 0
M  V30 2330 H 244.048 2.35172 2.98995 0
M  V30 2331 H 245.36 2.90826 4.05242 0
M  V30 2332 H 244.514 1.43908 5.89386 0
M  V30 2333 H 243.253 0.779308 4.81433 0
M  V30 2334 H 242.258 3.0702 4.56091 0
M  V30 2335 H 243.483 3.73004 5.6749 0
M  V30 2336 H 241.429 1.59423 6.36334 0
M  V30 2337 H 241.346 3.26436 6.81891 0
M  V30 2338 H 242.614 2.26244 7.45945 0
M  V30 2339 N 246.843 -1.10192 1.12674 0
M  V30 2340 C 248.089 -1.82475 0.884915 0
M  V30 2341 C 248.422 -1.85093 -0.58773 0
M  V30 2342 O 247.697 -1.3134 -1.43457 0
M  V30 2343 C 247.98 -3.29018 1.46353 0
M  V30 2344 C 247.833 -3.34718 3.00473 0
M  V30 2345 C 249.152 -4.25473 1.12519 0
M  V30 2346 H 246.271 -0.662492 0.322915 0
M  V30 2347 H 248.913 -1.2913 1.39375 0
M  V30 2348 H 247.063 -3.74576 1.03077 0
M  V30 2349 H 248.735 -2.97622 3.52447 0
M  V30 2350 H 246.978 -2.74541 3.35872 0
M  V30 2351 H 247.649 -4.37918 3.36053 0
M  V30 2352 H 250.125 -3.88161 1.499 0
M  V30 2353 H 249.001 -5.26365 1.55663 0
M  V30 2354 H 249.262 -4.42084 0.0377407 0
M  V30 2355 N 248.321 -0.919034 -1.28029 0
M  V30 2356 C 249.598 -0.473668 -1.89778 0
M  V30 2357 C 249.978 1.04783 -1.83259 0
M  V30 2358 O 249.326 1.8982 -1.27202 0
M  V30 2359 C 249.536 -1.00998 -3.34066 0
M  V30 2360 C 250.884 -1.06525 -4.1102 0
M  V30 2361 O 251.908 -0.958996 -3.43048 0
M  V30 2362 O 250.767 -1.22776 -5.3253 0
M  V30 2363 H 247.861 -0.15098 -0.813101 0
M  V30 2364 H 250.407 -1.01016 -1.36359 0
M  V30 2365 H 249.179 -2.05392 -3.33061 0
M  V30 2366 H 248.802 -0.454626 -3.94992 0
M  V30 2367 N 249.799 1.42003 -0.683588 0
M  V30 2368 C 251.039 2.03282 -0.213513 0
M  V30 2369 C 251.403 1.52924 1.16097 0
M  V30 2370 O 252.604 2.06048 1.7262 0
M  V30 2371 C 250.875 3.56483 -0.255856 0
M  V30 2372 S 252.434 4.3857 0.14193 0
M  V30 2373 H 249.252 0.705659 -0.0869853 0
M  V30 2374 H 251.854 1.73619 -0.8987 0
M  V30 2375 H 250.558 3.90631 -1.25841 0
M  V30 2376 H 250.089 3.90831 0.448875 0
M  V30 2377 H 252.104 4.76828 1.37295 0
M  V30 2378 N 251.277 0.427512 1.51691 0
M  V30 2379 C 252.693 0.0792977 1.59403 0
M  V30 2380 C 252.893 -1.41035 1.43914 0
M  V30 2381 O 251.949 -2.17922 1.27539 0
M  V30 2382 C 253.262 0.590636 2.94842 0
M  V30 2383 C 254.81 0.550215 3.08126 0
M  V30 2384 C 255.285 1.03836 4.46074 0
M  V30 2385 N 256.776 0.995943 4.52366 0
M  V30 2386 C 257.511 1.34463 5.57411 0
M  V30 2387 N 257.007 1.76569 6.69922 0
M  V30 2388 N 258.8 1.26343 5.47717 0
M  V30 2389 H 250.951 1.39687 1.60004 0
M  V30 2390 H 253.214 0.575003 0.753708 0
M  V30 2391 H 252.92 1.63251 3.11516 0
M  V30 2392 H 252.794 0.0102061 3.77199 0
M  V30 2393 H 255.181 -0.482654 2.91126 0
M  V30 2394 H 255.262 1.16693 2.27632 0
M  V30 2395 H 254.906 2.06965 4.63819 0
M  V30 2396 H 254.836 0.398286 5.25092 0
M  V30 2397 H 257.327 0.68661 3.7161 0
M  V30 2398 H 257.64 2.01438 7.46085 0
M  V30 2399 H 255.985 1.80488 6.71155 0
M  V30 2400 H 259.176 0.933209 4.58703 0
M  V30 2401 H 259.349 1.53846 6.29472 0
M  V30 2402 N 252.755 -1.56801 0.158532 0
M  V30 2403 C 254.032 -1.88131 -0.535357 0
M  V30 2404 C 254.412 -1.06638 -1.82186 0
M  V30 2405 O 253.76 -0.156533 -2.27963 0
M  V30 2406 C 253.97 -3.39949 -0.789653 0
M  V30 2407 C 255.318 -4.09416 -1.12533 0
M  V30 2408 O 256.342 -3.45194 -0.878622 0
M  V30 2409 O 255.201 -5.22855 -1.59014 0
M  V30 2410 H 252.295 -0.780143 -0.27442 0
M  V30 2411 H 254.841 -1.68564 0.19601 0
M  V30 2412 H 253.613 -3.91115 0.120353 0
M  V30 2413 H 253.236 -3.65084 -1.57479 0
M  V30 2414 N 254.233 0.115231 -1.57178 0
M  V30 2415 C 255.458 0.840354 -1.89612 0
M  V30 2416 C 255.883 1.72464 -0.750845 0
M  V30 2417 O 255.241 1.78826 0.298478 0
M  V30 2418 C 255.289 1.64654 -3.20814 0
M  V30 2419 O 254.393 2.7538 -3.06985 0
M  V30 2420 H 253.734 0.232158 -0.622092 0
M  V30 2421 H 256.264 0.0964977 -2.04372 0
M  V30 2422 H 256.274 2.03499 -3.53627 0
M  V30 2423 H 254.949 0.997416 -4.03763 0
M  V30 2424 H 253.526 2.3971 -2.85646 0
M  V30 2425 N 255.711 1.52812 0.385517 0
M  V30 2426 C 256.936 1.72207 1.15583 0
M  V30 2427 C 257.361 0.441034 1.82857 0
M  V30 2428 O 256.719 -0.603465 1.70962 0
M  V30 2429 C 256.767 2.87476 2.17692 0
M  V30 2430 O 255.871 2.54693 3.24354 0
M  V30 2431 H 255.212 0.572526 0.336319 0
M  V30 2432 H 257.742 1.99618 0.448744 0
M  V30 2433 H 257.752 3.13072 2.6163 0
M  V30 2434 H 256.427 3.80408 1.68115 0
M  V30 2435 H 255.004 2.3985 2.85529 0
M  V30 2436 N 257.189 -0.644168 1.43834 0
M  V30 2437 C 258.466 -1.40188 1.36406 0
M  V30 2438 C 258.846 -2.11094 0.0163124 0
M  V30 2439 O 258.194 -2.05426 -1.00062 0
M  V30 2440 C 258.404 -2.3791 2.55343 0
M  V30 2441 C 259.752 -3.01637 2.98832 0
M  V30 2442 O 260.776 -2.48237 2.55455 0
M  V30 2443 O 259.635 -3.98477 3.74003 0
M  V30 2444 H 256.729 -0.626773 0.539523 0
M  V30 2445 H 259.275 -0.670317 1.559 0
M  V30 2446 H 258.047 -1.84525 3.4506 0
M  V30 2447 H 257.67 -3.18503 2.37995 0
M  V30 2448 N 258.668 -1.30515 -0.883378 0
M  V30 2449 C 259.578 -1.18959 -2.02203 0
M  V30 2450 C 260.594 -0.109172 -1.73657 0
M  V30 2451 O 261.77 -0.324413 -1.9877 0
M  V30 2452 C 258.835 -0.883871 -3.35244 0
M  V30 2453 C 257.896 -2.04982 -3.77201 0
M  V30 2454 C 257.129 -1.75859 -5.03894 0
M  V30 2455 O 257.352 -0.687276 -5.66244 0
M  V30 2456 O 256.286 -2.61146 -5.42297 0
M  V30 2457 H 260.112 -2.14616 -2.1488 0
M  V30 2458 H 257.697 -1.10124 -1.0096 0
M  V30 2459 H 259.579 -0.728644 -4.15053 0
M  V30 2460 H 258.254 0.0427798 -3.23672 0
M  V30 2461 H 257.161 -2.26038 -2.9809 0
M  V30 2462 H 258.494 -2.95825 -3.93381 0
M  V30 2463 N 260.146 1.09593 -1.13257 0
M  V30 2464 C 261.395 1.81105 -0.887917 0
M  V30 2465 C 261.708 1.86563 0.587672 0
M  V30 2466 O 262.914 2.54367 0.949204 0
M  V30 2467 C 261.37 3.25338 -1.53895 0
M  V30 2468 C 260.978 3.28151 -3.04994 0
M  V30 2469 C 262.722 4.01617 -1.37492 0
M  V30 2470 C 260.629 4.66897 -3.6299 0
M  V30 2471 H 259.559 0.678661 -0.328534 0
M  V30 2472 H 262.21 1.23183 -1.36008 0
M  V30 2473 H 260.592 3.8331 -0.994446 0
M  V30 2474 H 261.766 2.79953 -3.66009 0
M  V30 2475 H 260.081 2.65361 -3.20893 0
M  V30 2476 H 262.678 5.04119 -1.78235 0
M  V30 2477 H 263.021 4.15072 -0.31957 0
M  V30 2478 H 263.554 3.50082 -1.88912 0
M  V30 2479 H 260.293 4.58643 -4.68323 0
M  V30 2480 H 259.813 5.15426 -3.06752 0
M  V30 2481 H 261.492 5.3587 -3.62563 0
M  V30 2482 N 261.624 0.925811 1.2754 0
M  V30 2483 C 262.572 0.413897 2.28888 0
M  V30 2484 C 263.566 -0.500779 1.61829 0
M  V30 2485 O 264.772 -0.38069 1.75928 0
M  V30 2486 H 261.147 0.115274 0.743112 0
M  V30 2487 H 263.118 1.28151 2.69481 0
M  V30 2488 C 261.867 -0.319792 3.46226 0
M  V30 2489 H 261.19 0.374846 3.98039 0
M  V30 2490 H 262.63 -0.642435 4.19105 0
M  V30 2491 C 261.089 -1.53209 3.00048 0
M  V30 2492 O 261.619 -2.6309 3.03557 0
M  V30 2493 N 259.825 -1.38326 2.55566 0
M  V30 2494 H 259.372 -0.489292 2.5291 0
M  V30 2495 H 259.33 -2.19564 2.25031 0
M  V30 2496 N 263.102 -1.41638 0.69111 0
M  V30 2497 C 264.342 -2.03166 0.224291 0
M  V30 2498 C 264.706 -1.53537 -1.15284 0
M  V30 2499 O 265.907 -2.0696 -1.71525 0
M  V30 2500 C 264.178 -3.56342 0.274758 0
M  V30 2501 S 265.737 -4.3864 -0.118669 0
M  V30 2502 H 262.555 -0.705188 0.0907263 0
M  V30 2503 H 265.157 -1.7314 0.907895 0
M  V30 2504 H 263.861 -3.89958 1.2791 0
M  V30 2505 H 263.392 -3.91063 -0.428142 0
M  V30 2506 H 265.407 -4.77549 -1.34764 0
M  V30 2507 N 264.58 -0.43555 -1.51462 0
M  V30 2508 C 265.808 0.130242 -2.0649 0
M  V30 2509 C 266.223 1.36614 -1.30315 0
M  V30 2510 O 265.58 1.78869 -0.362223 0
M  V30 2511 C 265.631 0.454253 -3.58635 0
M  V30 2512 O 265.352 -0.73259 -4.31931 0
M  V30 2513 C 266.853 1.07091 -4.3017 0
M  V30 2514 H 264.073 0.00871669 -0.670943 0
M  V30 2515 H 266.617 -0.614117 -1.95061 0
M  V30 2516 H 264.772 1.14851 -3.69984 0
M  V30 2517 H 265.186 -0.455787 -5.22516 0
M  V30 2518 H 266.66 1.24764 -5.37716 0
M  V30 2519 H 267.137 2.05144 -3.88346 0
M  V30 2520 H 267.743 0.416089 -4.2326 0
M  V30 2521 N 266.058 1.56714 -0.166846 0
M  V30 2522 C 266.968 2.21331 0.777791 0
M  V30 2523 C 267.984 1.20358 1.25658 0
M  V30 2524 O 269.16 1.53005 1.30964 0
M  V30 2525 C 266.225 2.83787 1.99163 0
M  V30 2526 C 265.286 3.99947 1.56016 0
M  V30 2527 C 264.519 4.59415 2.71613 0
M  V30 2528 O 264.742 4.17769 3.88362 0
M  V30 2529 O 263.676 5.49359 2.45945 0
M  V30 2530 H 267.502 3.02605 0.257636 0
M  V30 2531 H 265.087 1.49275 0.0611393 0
M  V30 2532 H 266.969 3.23405 2.70161 0
M  V30 2533 H 265.644 2.05513 2.50092 0
M  V30 2534 H 264.551 3.65007 0.819809 0
M  V30 2535 H 265.884 4.79801 1.09782 0
M  V30 2536 N 267.536 -0.106894 1.57237 0
M  V30 2537 C 268.785 -0.811163 1.8467 0
M  V30 2538 C 269.098 -1.80469 0.754342 0
M  V30 2539 O 270.304 -2.55601 0.915439 0
M  V30 2540 C 268.76 -1.49337 3.27454 0
M  V30 2541 C 268.368 -0.540217 4.44731 0
M  V30 2542 C 270.112 -2.18206 3.64124 0
M  V30 2543 C 268.019 -1.22634 5.78545 0
M  V30 2544 H 266.949 -0.306679 0.688813 0
M  V30 2545 H 269.6 -0.0639887 1.83388 0
M  V30 2546 H 267.982 -2.2876 3.23241 0
M  V30 2547 H 269.156 0.221659 4.60267 0
M  V30 2548 H 267.471 0.042146 4.16379 0
M  V30 2549 H 270.068 -2.70253 4.61376 0
M  V30 2550 H 270.411 -2.96562 2.92158 0
M  V30 2551 H 270.944 -1.45658 3.70174 0
M  V30 2552 H 267.683 -0.483832 6.53712 0
M  V30 2553 H 267.203 -1.95993 5.66874 0
M  V30 2554 H 268.882 -1.75615 6.2271 0
M  V30 2555 N 269.014 -1.53014 -0.377408 0
M  V30 2556 C 270.254 -1.70318 -1.1301 0
M  V30 2557 C 270.618 -0.439538 -1.86901 0
M  V30 2558 O 271.819 -0.489095 -2.64313 0
M  V30 2559 C 270.09 -2.91125 -2.07319 0
M  V30 2560 S 271.649 -3.29075 -2.90268 0
M  V30 2561 H 268.467 -0.599426 -0.382374 0
M  V30 2562 H 271.069 -1.91089 -0.412933 0
M  V30 2563 H 269.773 -3.81303 -1.51777 0
M  V30 2564 H 269.304 -2.7272 -2.83526 0
M  V30 2565 H 271.319 -2.80165 -4.09539 0
M  V30 2566 N 270.492 0.636531 -1.44174 0
M  V30 2567 C 271.422 1.76003 -1.53444 0
M  V30 2568 C 272.403 1.65619 -0.387841 0
M  V30 2569 O 273.588 1.84461 -0.607257 0
M  V30 2570 C 270.718 3.14511 -1.4731 0
M  V30 2571 C 269.672 3.39677 -2.60391 0
M  V30 2572 C 268.998 4.78159 -2.39308 0
M  V30 2573 C 270.298 3.32772 -4.02567 0
M  V30 2574 H 271.992 1.68501 -2.47483 0
M  V30 2575 H 269.538 0.809237 -1.19111 0
M  V30 2576 H 271.491 3.92878 -1.52397 0
M  V30 2577 H 270.215 3.22783 -0.49785 0
M  V30 2578 H 268.874 2.63688 -2.54684 0
M  V30 2579 H 268.522 4.83128 -1.39988 0
M  V30 2580 H 268.222 4.95956 -3.15122 0
M  V30 2581 H 269.746 5.58762 -2.46205 0
M  V30 2582 H 271.16 4.01051 -4.09672 0
M  V30 2583 H 269.557 3.62104 -4.7854 0
M  V30 2584 H 270.627 2.30669 -4.2652 0
M  V30 2585 N 271.97 1.30982 0.876444 0
M  V30 2586 C 272.92 1.14688 1.97055 0
M  V30 2587 C 273.904 0.0596593 1.60789 0
M  V30 2588 O 275.096 0.283892 1.74708 0
M  V30 2589 C 272.225 0.849627 3.3262 0
M  V30 2590 C 271.311 1.97752 3.75173 0
M  V30 2591 N 271.702 3.22384 3.89746 0
M  V30 2592 C 270 1.8758 4.04635 0
M  V30 2593 C 270.701 3.96121 4.25985 0
M  V30 2594 N 269.677 3.24237 4.36315 0
M  V30 2595 H 273.479 2.09204 2.06424 0
M  V30 2596 H 270.993 1.22445 1.06682 0
M  V30 2597 H 272.99 0.713895 4.10742 0
M  V30 2598 H 271.65 -0.087376 3.24582 0
M  V30 2599 H 272.661 3.57575 3.74647 0
M  V30 2600 H 269.338 1.01303 4.05024 0
M  V30 2601 H 270.728 5.03491 4.44911 0
M  V30 2602 N 273.449 -1.08991 1.13837 0
M  V30 2603 C 274.397 -2.17841 0.815347 0
M  V30 2604 C 275.391 -1.68164 -0.204233 0
M  V30 2605 O 276.597 -1.79897 -0.0609304 0
M  V30 2606 H 272.972 -0.710654 0.245915 0
M  V30 2607 H 274.943 -2.42315 1.74143 0
M  V30 2608 C 273.692 -3.46381 0.302614 0
M  V30 2609 H 273.015 -3.84979 1.0785 0
M  V30 2610 H 274.455 -4.23844 0.115074 0
M  V30 2611 C 272.914 -3.22556 -0.972591 0
M  V30 2612 O 273.444 -3.45599 -2.04754 0
M  V30 2613 N 271.65 -2.76134 -0.905455 0
M  V30 2614 H 271.197 -2.57582 -0.0305421 0
M  V30 2615 H 271.155 -2.60571 -1.75926 0
M  V30 2616 N 274.927 -0.932562 -1.27047 0
M  V30 2617 C 275.837 -0.441219 -2.30414 0
M  V30 2618 C 276.853 0.480525 -1.67233 0
M  V30 2619 O 278.029 0.362151 -1.98117 0
M  V30 2620 C 275.094 0.293651 -3.45454 0
M  V30 2621 C 274.155 -0.663601 -4.2414 0
M  V30 2622 C 273.388 0.0362932 -5.33688 0
M  V30 2623 O 273.611 1.2548 -5.56427 0
M  V30 2624 O 272.545 -0.638015 -5.98509 0
M  V30 2625 H 276.371 -1.29962 -2.74488 0
M  V30 2626 H 273.956 -0.6981 -1.32087 0
M  V30 2627 H 275.838 0.707951 -4.15411 0
M  V30 2628 H 274.513 1.12758 -3.03426 0
M  V30 2629 H 273.42 -1.12768 -3.56699 0
M  V30 2630 H 274.753 -1.46489 -4.69896 0
M  V30 2631 N 276.405 1.4127 -0.698611 0
M  V30 2632 C 277.652 2.0118 -0.230865 0
M  V30 2633 C 277.98 1.55338 1.17049 0
M  V30 2634 O 277.235 0.756775 1.80475 0
M  V30 2635 C 277.534 3.56592 -0.240192 0
M  V30 2636 C 277.2 4.21955 -1.58948 0
M  V30 2637 C 275.862 4.39524 -1.95887 0
M  V30 2638 C 278.214 4.58576 -2.47704 0
M  V30 2639 C 275.542 4.90992 -3.2116 0
M  V30 2640 C 277.894 5.11435 -3.72313 0
M  V30 2641 C 276.558 5.27215 -4.0939 0
M  V30 2642 H 275.828 0.736169 -0.0844796 0
M  V30 2643 H 278.475 1.69124 -0.8983 0
M  V30 2644 H 276.78 3.88456 0.510797 0
M  V30 2645 H 278.477 4.00758 0.139296 0
M  V30 2646 H 275.067 4.08657 -1.29219 0
M  V30 2647 H 279.251 4.44654 -2.20445 0
M  V30 2648 H 274.507 5.01393 -3.49878 0
M  V30 2649 H 278.681 5.38752 -4.4127 0
M  V30 2650 H 276.308 5.66859 -5.06533 0
M  V30 2651 N 277.883 0.443576 1.51229 0
M  V30 2652 C 279.108 -0.121648 2.07043 0
M  V30 2653 C 279.533 -1.35156 1.30823 0
M  V30 2654 O 278.891 -1.7793 0.347934 0
M  V30 2655 C 278.939 -0.41624 3.5819 0
M  V30 2656 O 278.043 -1.50163 3.8409 0
M  V30 2657 H 277.384 0.000871367 0.663999 0
M  V30 2658 H 279.914 0.626706 1.94765 0
M  V30 2659 H 279.924 -0.664867 4.02546 0
M  V30 2660 H 278.599 0.482653 4.1309 0
M  V30 2661 H 277.176 -1.24248 3.51592 0
M  V30 2662 N 279.361 -1.56624 0.175154 0
M  V30 2663 C 280.601 -1.98894 -0.471221 0
M  V30 2664 C 280.965 -1.05889 -1.60161 0
M  V30 2665 O 282.166 -1.37315 -2.3108 0
M  V30 2666 C 280.437 -3.44865 -0.938241 0
M  V30 2667 S 281.996 -4.09164 -1.58526 0
M  V30 2668 H 278.814 -0.694686 -0.151434 0
M  V30 2669 H 281.416 -1.93577 0.27352 0
M  V30 2670 H 280.12 -4.10265 -0.10518 0
M  V30 2671 H 279.651 -3.53956 -1.71693 0
M  V30 2672 H 281.666 -4.04528 -2.87352 0
M  V30 2673 N 280.839 0.0985539 -1.57292 0
M  V30 2674 C 282.087 0.801092 -1.85545 0
M  V30 2675 C 282.408 1.79438 -0.763353 0
M  V30 2676 O 281.678 1.94763 0.21073 0
M  V30 2677 H 280.258 0.29884 -0.684619 0
M  V30 2678 H 282.92 0.0810064 -1.94732 0
M  V30 2679 H 282.016 1.3338 -2.82163 0
M  V30 2680 N 282.317 1.53212 0.369288 0
M  V30 2681 C 283.265 1.80054 1.47253 0
M  V30 2682 C 284.259 0.669456 1.55611 0
M  V30 2683 O 285.465 0.852328 1.58541 0
M  V30 2684 H 281.84 0.570034 0.490475 0
M  V30 2685 H 283.811 2.72403 1.21817 0
M  V30 2686 C 282.56 2.00403 2.84137 0
M  V30 2687 H 281.883 2.86876 2.78464 0
M  V30 2688 H 283.323 2.23164 3.60519 0
M  V30 2689 C 281.782 0.782081 3.27697 0
M  V30 2690 O 282.312 -0.0310205 4.01688 0
M  V30 2691 N 280.518 0.606573 2.84199 0
M  V30 2692 H 280.065 1.26939 2.24152 0
M  V30 2693 H 280.023 -0.20962 3.137 0
M  V30 2694 N 283.795 -0.628877 1.44509 0
M  V30 2695 C 285.043 -1.38565 1.4712 0
M  V30 2696 C 285.364 -1.94712 0.105899 0
M  V30 2697 O 284.634 -1.75912 -0.862079 0
M  V30 2698 H 283.214 -0.514333 0.541729 0
M  V30 2699 H 285.876 -0.740018 1.80305 0
M  V30 2700 H 284.972 -2.21583 2.19789 0
M  V30 2701 N 285.273 -1.31445 -0.869486 0
M  V30 2702 C 286.183 -1.21097 -2.0093 0
M  V30 2703 C 287.199 -0.127584 -1.73532 0
M  V30 2704 O 288.375 -0.345477 -1.98415 0
M  V30 2705 C 285.44 -0.919378 -3.34288 0
M  V30 2706 C 284.501 -2.08971 -3.75006 0
M  V30 2707 C 283.734 -1.81194 -5.02001 0
M  V30 2708 O 283.957 -0.747296 -5.65484 0
M  V30 2709 O 282.891 -2.66883 -5.39497 0
M  V30 2710 H 286.717 -2.16883 -2.12592 0
M  V30 2711 H 284.302 -1.11189 -0.997868 0
M  V30 2712 H 286.184 -0.772625 -4.14257 0
M  V30 2713 H 284.859 0.00844772 -3.23699 0
M  V30 2714 H 283.766 -2.29187 -2.95676 0
M  V30 2715 H 285.099 -2.9998 -3.90221 0
M  V30 2716 N 286.751 1.08385 -1.14413 0
M  V30 2717 C 287.991 1.8238 -0.922868 0
M  V30 2718 C 288.355 1.84225 0.540842 0
M  V30 2719 O 289.556 2.53985 0.880058 0
M  V30 2720 C 287.827 3.24048 -1.50757 0
M  V30 2721 S 289.386 4.14917 -1.4279 0
M  V30 2722 H 286.204 0.628524 -0.332384 0
M  V30 2723 H 288.806 1.30278 -1.45766 0
M  V30 2724 H 287.51 3.20288 -2.56601 0
M  V30 2725 H 287.041 3.81224 -0.971178 0
M  V30 2726 H 289.056 4.94473 -0.413582 0
M  V30 2727 N 288.23 0.939286 1.26551 0
M  V30 2728 C 289.479 0.581601 1.93133 0
M  V30 2729 C 289.792 -0.883224 1.74524 0
M  V30 2730 O 290.998 -1.3502 2.35546 0
M  V30 2731 C 289.454 0.989425 3.46032 0
M  V30 2732 C 289.062 2.47573 3.73379 0
M  V30 2733 C 290.806 0.703544 4.18629 0
M  V30 2734 C 288.713 2.82235 5.19709 0
M  V30 2735 H 287.643 0.213803 0.723052 0
M  V30 2736 H 290.294 1.14167 1.4366 0
M  V30 2737 H 288.676 0.357902 3.94379 0
M  V30 2738 H 289.85 3.15614 3.35744 0
M  V30 2739 H 288.165 2.73471 3.1401 0
M  V30 2740 H 290.762 0.938869 5.26393 0
M  V30 2741 H 291.105 -0.359639 4.14744 0
M  V30 2742 H 291.638 1.2947 3.76141 0
M  V30 2743 H 288.377 3.87509 5.28694 0
M  V30 2744 H 287.897 2.18854 5.58447 0
M  V30 2745 H 289.576 2.70599 5.87695 0
M  V30 2746 N 289.708 -1.40897 0.706093 0
M  V30 2747 C 291.119 -1.84023 0.315052 0
M  V30 2748 C 291.47 -1.5906 -1.14866 0
M  V30 2749 O 290.595 -1.06651 -1.88293 0
M  V30 2750 C 291.19 -3.34055 0.565038 0
M  V30 2751 C 289.749 -3.7571 0.227806 0
M  V30 2752 C 288.896 -2.64204 0.842122 0
M  V30 2753 H 291.847 -1.303 0.905963 0
M  V30 2754 H 291.868 -3.80107 -0.172843 0
M  V30 2755 H 291.38 -3.52192 1.63042 0
M  V30 2756 H 289.481 -3.63172 -0.832895 0
M  V30 2757 H 289.594 -4.74103 0.690174 0
M  V30 2758 H 287.958 -2.53255 0.270893 0
M  V30 2759 H 288.741 -2.85155 1.91158 0
M  V30 2760 N 291.186 -0.45159 -1.50991 0
M  V30 2761 C 292.602 -0.104647 -1.59257 0
M  V30 2762 C 292.802 1.38728 -1.4614 0
M  V30 2763 O 291.858 2.15866 -1.30989 0
M  V30 2764 C 293.171 -0.637468 -2.93865 0
M  V30 2765 C 294.719 -0.599166 -3.07212 0
M  V30 2766 C 295.194 -1.1092 -4.44366 0
M  V30 2767 N 296.685 -1.06778 -4.50725 0
M  V30 2768 C 297.42 -1.43314 -5.55201 0
M  V30 2769 N 296.916 -1.87204 -6.67028 0
M  V30 2770 N 298.709 -1.3504 -5.45638 0
M  V30 2771 H 290.86 -1.42214 -1.57762 0
M  V30 2772 H 293.123 -0.586921 -0.744465 0
M  V30 2773 H 292.829 -1.68187 -3.08879 0
M  V30 2774 H 292.703 -0.0702139 -3.77135 0
M  V30 2775 H 295.09 0.436277 -2.91857 0
M  V30 2776 H 295.171 -1.20299 -2.25747 0
M  V30 2777 H 294.815 -2.14318 -4.60467 0
M  V30 2778 H 294.745 -0.481773 -5.24392 0
M  V30 2779 H 297.236 -0.745643 -3.70471 0
M  V30 2780 H 297.549 -2.13282 -7.42786 0
M  V30 2781 H 295.894 -1.91142 -6.68199 0
M  V30 2782 H 299.085 -1.00607 -4.57161 0
M  V30 2783 H 299.258 -1.63841 -6.26945 0
M  V30 2784 N 292.664 1.56529 -0.183458 0
M  V30 2785 C 293.627 2.17324 0.728223 0
M  V30 2786 C 294.627 1.12453 1.14939 0
M  V30 2787 O 295.817 1.37902 1.06437 0
M  V30 2788 C 292.949 2.76591 1.99274 0
M  V30 2789 H 294.142 2.99241 0.198772 0
M  V30 2790 H 291.695 1.5616 0.0661391 0
M  V30 2791 H 292.43 1.98441 2.56499 0
M  V30 2792 H 292.215 3.5335 1.69959 0
M  V30 2793 H 293.705 3.23311 2.6431 0
M  V30 2794 N 294.142 -0.090211 1.57342 0
M  V30 2795 C 295.372 -0.805055 1.90269 0
M  V30 2796 C 295.78 -1.72561 0.775842 0
M  V30 2797 O 295.123 -1.81839 -0.260843 0
M  V30 2798 C 295.185 -1.66734 3.18497 0
M  V30 2799 C 294.849 -0.918092 4.47683 0
M  V30 2800 C 295.846 -0.245674 5.19319 0
M  V30 2801 C 293.531 -0.890724 4.94339 0
M  V30 2802 C 295.525 0.444088 6.35851 0
M  V30 2803 C 293.212 -0.197179 6.10782 0
M  V30 2804 C 294.21 0.469044 6.81388 0
M  V30 2805 O 293.898 1.15146 7.95611 0
M  V30 2806 H 293.63 -0.235143 0.633785 0
M  V30 2807 H 296.184 -0.0703805 2.05279 0
M  V30 2808 H 294.414 -2.44437 2.99646 0
M  V30 2809 H 296.103 -2.25919 3.37217 0
M  V30 2810 H 296.869 -0.258246 4.84312 0
M  V30 2811 H 292.748 -1.39873 4.39268 0
M  V30 2812 H 296.292 0.964667 6.90898 0
M  V30 2813 H 292.189 -0.18247 6.45242 0
M  V30 2814 H 292.957 1.05885 8.11622 0
M  V30 2815 N 295.62 -1.53406 -0.361157 0
M  V30 2816 C 296.866 -1.70054 -1.10496 0
M  V30 2817 C 297.199 -0.453278 -1.88836 0
M  V30 2818 O 296.474 0.5495 -1.86576 0
M  V30 2819 C 296.757 -2.95317 -2.06058 0
M  V30 2820 C 296.61 -4.3021 -1.31298 0
M  V30 2821 C 297.929 -3.16193 -3.06121 0
M  V30 2822 H 295.048 -0.618799 -0.400321 0
M  V30 2823 H 297.69 -1.86052 -0.385318 0
M  V30 2824 H 295.84 -2.81809 -2.67425 0
M  V30 2825 H 297.512 -4.55538 -0.726807 0
M  V30 2826 H 295.755 -4.29421 -0.614853 0
M  V30 2827 H 296.426 -5.14 -2.01265 0
M  V30 2828 H 298.902 -3.28916 -2.5486 0
M  V30 2829 H 297.778 -4.05266 -3.70204 0
M  V30 2830 H 298.039 -2.31676 -3.76535 0
M  V30 2831 N 297.098 0.621204 -1.44841 0
M  V30 2832 C 298.338 1.39201 -1.49674 0
M  V30 2833 C 298.702 1.91561 -0.129764 0
M  V30 2834 O 299.903 2.68748 -0.0527814 0
M  V30 2835 C 298.174 2.519 -2.53537 0
M  V30 2836 S 299.733 3.39916 -2.77494 0
M  V30 2837 H 296.551 0.474758 -0.529269 0
M  V30 2838 H 299.153 0.718171 -1.81831 0
M  V30 2839 H 297.857 2.11761 -3.51547 0
M  V30 2840 H 297.388 3.241 -2.22986 0
M  V30 2841 H 299.403 4.49646 -2.0984 0
M  V30 2842 N 298.576 1.31904 0.862503 0
M  V30 2843 C 299.853 1.12644 1.59908 0
M  V30 2844 C 300.233 -0.316104 2.0872 0
M  V30 2845 O 299.581 -1.31145 1.87118 0
M  V30 2846 C 299.791 2.1472 2.7513 0
M  V30 2847 C 301.139 2.47637 3.44907 0
M  V30 2848 O 302.163 2.13205 2.85346 0
M  V30 2849 O 301.022 3.06632 4.52371 0
M  V30 2850 H 298.116 0.43416 0.703871 0
M  V30 2851 H 300.662 1.43408 0.907314 0
M  V30 2852 H 299.434 3.1172 2.3653 0
M  V30 2853 H 299.057 1.84905 3.51989 0
M  V30 2854 N 300.054 -1.07777 1.14986 0
M  V30 2855 C 301.004 -2.13082 0.811181 0
M  V30 2856 C 301.988 -1.59619 -0.202597 0
M  V30 2857 O 303.18 -1.77 -0.00398275 0
M  V30 2858 C 300.309 -3.42009 0.297439 0
M  V30 2859 C 299.395 -4.02337 1.34112 0
M  V30 2860 N 299.786 -4.36982 2.54716 0
M  V30 2861 C 298.084 -4.29752 1.19285 0
M  V30 2862 C 298.785 -4.84729 3.21578 0
M  V30 2863 N 297.761 -4.83233 2.48972 0
M  V30 2864 H 301.563 -2.37696 1.72853 0
M  V30 2865 H 299.077 -1.25173 1.03468 0
M  V30 2866 H 301.074 -4.16884 0.0364777 0
M  V30 2867 H 299.734 -3.18841 -0.614022 0
M  V30 2868 H 300.745 -4.27807 2.91894 0
M  V30 2869 H 297.422 -4.16106 0.340926 0
M  V30 2870 H 298.812 -5.20863 4.24442 0
M  V30 2871 N 301.532 -0.945985 -1.26051 0
M  V30 2872 C 302.809 -0.513816 -1.88731 0
M  V30 2873 C 303.189 1.00872 -1.8544 0
M  V30 2874 O 302.537 1.8708 -1.312 0
M  V30 2875 C 302.747 -1.08062 -3.31849 0
M  V30 2876 C 304.095 -1.1522 -4.08668 0
M  V30 2877 O 305.119 -1.03155 -3.40936 0
M  V30 2878 O 303.978 -1.34044 -5.29806 0
M  V30 2879 H 301.072 -0.168193 -0.809716 0
M  V30 2880 H 303.618 -1.03886 -1.34186 0
M  V30 2881 H 302.39 -2.1241 -3.2863 0
M  V30 2882 H 302.013 -0.538307 -3.93939 0
M  V30 2883 N 303.011 1.40521 -0.713556 0
M  V30 2884 C 303.959 2.32549 -0.0485227 0
M  V30 2885 C 304.953 1.51931 0.74922 0
M  V30 2886 O 306.159 1.67745 0.652816 0
M  V30 2887 H 302.534 0.751994 0.00311138 0
M  V30 2888 H 304.505 2.86291 -0.841443 0
M  V30 2889 C 303.254 3.36879 0.860687 0
M  V30 2890 H 302.577 3.98978 0.256246 0
M  V30 2891 H 304.017 4.03772 1.294 0
M  V30 2892 C 302.476 2.72197 1.9852 0
M  V30 2893 O 303.006 2.5837 3.07584 0
M  V30 2894 N 301.212 2.30612 1.76823 0
M  V30 2895 H 300.759 2.42059 0.881217 0
M  V30 2896 H 300.717 1.87672 2.52243 0
M  V30 2897 N 304.489 0.459591 1.5075 0
M  V30 2898 C 305.766 -0.160371 1.94941 0
M  V30 2899 C 306.146 -1.58048 1.39943 0
M  V30 2900 O 305.494 -2.206 0.595629 0
M  V30 2901 C 305.704 -0.115432 3.48809 0
M  V30 2902 C 307.052 -0.310026 4.23467 0
M  V30 2903 O 308.076 -0.192543 3.55679 0
M  V30 2904 O 306.935 -0.546031 5.43765 0
M  V30 2905 H 304.029 -0.117925 0.818549 0
M  V30 2906 H 306.575 0.519169 1.61563 0
M  V30 2907 H 305.347 0.87652 3.81357 0
M  V30 2908 H 304.97 -0.836928 3.88692 0
M  V30 2909 N 305.967 -1.56429 0.191757 0
M  V30 2910 C 307.207 -1.99383 -0.450099 0
M  V30 2911 C 307.571 -1.07581 -1.59029 0
M  V30 2912 O 308.772 -1.39758 -2.29611 0
M  V30 2913 C 307.043 -3.45841 -0.901611 0
M  V30 2914 S 308.602 -4.10822 -1.54177 0
M  V30 2915 H 305.42 -0.696253 -0.144057 0
M  V30 2916 H 308.022 -1.93276 0.294036 0
M  V30 2917 H 306.726 -4.10354 -0.0616596 0
M  V30 2918 H 306.257 -3.55757 -1.67929 0
M  V30 2919 H 308.272 -4.07553 -2.83046 0
M  V30 2920 N 307.445 0.0818655 -1.57387 0
M  V30 2921 C 308.377 1.12484 -1.997 0
M  V30 2922 C 309.39 1.35564 -0.90146 0
M  V30 2923 O 310.579 1.33982 -1.17945 0
M  V30 2924 C 307.679 2.47778 -2.31213 0
M  V30 2925 C 306.852 2.44793 -3.62485 0
M  V30 2926 C 305.911 3.62117 -3.81782 0
M  V30 2927 O 304.937 3.44005 -4.53486 0
M  V30 2928 N 306.139 4.82094 -3.23367 0
M  V30 2929 H 308.904 0.764585 -2.89783 0
M  V30 2930 H 306.465 0.270664 -1.59621 0
M  V30 2931 H 308.457 3.24891 -2.41304 0
M  V30 2932 H 307.027 2.75843 -1.4707 0
M  V30 2933 H 306.247 1.53134 -3.6324 0
M  V30 2934 H 307.535 2.39889 -4.48699 0
M  V30 2935 H 306.933 4.99713 -2.65148 0
M  V30 2936 H 305.49 5.56753 -3.38923 0
M  V30 2937 N 308.923 1.53595 0.353017 0
M  V30 2938 C 310.2 1.61002 1.11075 0
M  V30 2939 C 310.58 0.425356 2.0677 0
M  V30 2940 O 309.928 -0.583267 2.2093 0
M  V30 2941 C 310.138 2.96631 1.83877 0
M  V30 2942 C 311.486 3.51653 2.37961 0
M  V30 2943 O 312.51 2.98743 1.93987 0
M  V30 2944 O 311.369 4.44177 3.18386 0
M  V30 2945 H 308.463 0.650825 0.510251 0
M  V30 2946 H 311.009 1.6594 0.35527 0
M  V30 2947 H 309.781 3.74293 1.14108 0
M  V30 2948 H 309.404 2.95242 2.66304 0
M  V30 2949 N 310.401 -0.613514 1.45168 0
M  V30 2950 C 311.649 -1.36997 1.48581 0
M  V30 2951 C 311.97 -1.94589 0.126545 0
M  V30 2952 O 311.24 -1.76816 -0.843372 0
M  V30 2953 H 309.82 -0.508558 0.547154 0
M  V30 2954 H 312.482 -0.720853 1.81079 0
M  V30 2955 H 311.578 -2.1924 2.22127 0
M  V30 2956 N 311.879 -1.3236 -0.855495 0
M  V30 2957 C 313.104 -1.2601 -1.64731 0
M  V30 2958 C 313.529 0.169068 -1.87339 0
M  V30 2959 O 312.887 1.12016 -1.42556 0
M  V30 2960 C 312.935 -2.02417 -2.98429 0
M  V30 2961 O 312.039 -1.3714 -3.8893 0
M  V30 2962 H 311.38 -0.434325 -0.502253 0
M  V30 2963 H 313.91 -1.74661 -1.06558 0
M  V30 2964 H 313.92 -2.12559 -3.48257 0
M  V30 2965 H 312.595 -3.06343 -2.81295 0
M  V30 2966 H 311.172 -1.3554 -3.47395 0
M  V30 2967 N 313.357 1.07166 -1.15556 0
M  V30 2968 C 314.634 1.76546 -0.842069 0
M  V30 2969 C 315.014 2.00453 0.661939 0
M  V30 2970 O 314.362 1.62452 1.60691 0
M  V30 2971 C 314.572 3.07266 -1.65495 0
M  V30 2972 C 315.92 3.81578 -1.86234 0
M  V30 2973 O 316.944 3.17083 -1.62287 0
M  V30 2974 O 315.803 4.97419 -2.26355 0
M  V30 2975 H 312.897 0.766756 -0.309862 0
M  V30 2976 H 315.443 1.13514 -1.26145 0
M  V30 2977 H 314.215 2.85494 -2.67598 0
M  V30 2978 H 313.838 3.7803 -1.23203 0
M  V30 2979 N 314.835 0.952656 1.25548 0
M  V30 2980 C 315.745 0.47782 2.29682 0
M  V30 2981 C 316.761 -0.453859 1.67977 0
M  V30 2982 O 317.937 -0.330587 1.98668 0
M  V30 2983 C 315.002 -0.238655 3.45878 0
M  V30 2984 C 314.063 0.730994 4.23031 0
M  V30 2985 C 313.296 0.0486165 5.33678 0
M  V30 2986 O 313.519 -1.16612 5.58353 0
M  V30 2987 O 312.453 0.733152 5.97418 0
M  V30 2988 H 316.279 1.34312 2.72386 0
M  V30 2989 H 313.864 0.719026 1.30959 0
M  V30 2990 H 315.746 -0.641774 4.16484 0
M  V30 2991 H 314.421 -1.07916 3.05181 0
M  V30 2992 H 313.328 1.18428 3.5486 0
M  V30 2993 H 314.661 1.53946 4.67506 0
M  V30 2994 N 316.313 -1.40141 0.720998 0
M  V30 2995 C 317.263 -2.27949 0.0482544 0
M  V30 2996 C 318.247 -1.43538 -0.727021 0
M  V30 2997 O 319.439 -1.6658 -0.598332 0
M  V30 2998 C 316.568 -3.32126 -0.868729 0
M  V30 2999 C 315.654 -4.24008 -0.0883515 0
M  V30 3000 N 316.045 -4.97154 0.931226 0
M  V30 3001 C 314.343 -4.4485 -0.320105 0
M  V30 3002 C 315.044 -5.64587 1.4006 0
M  V30 3003 N 314.02 -5.38787 0.721752 0
M  V30 3004 H 317.822 -2.81948 0.829609 0
M  V30 3005 H 315.336 -1.52656 0.554067 0
M  V30 3006 H 317.333 -3.93884 -1.36605 0
M  V30 3007 H 315.993 -2.79687 -1.6494 0
M  V30 3008 H 317.004 -5.01 1.31222 0
M  V30 3009 H 313.681 -4.03378 -1.07668 0
M  V30 3010 H 315.071 -6.33175 2.24808 0
M  V30 3011 N 317.792 -0.46758 -1.50504 0
M  V30 3012 C 318.755 0.317059 -2.26996 0
M  V30 3013 C 319.755 0.923513 -1.31635 0
M  V30 3014 O 320.945 0.793239 -1.55091 0
M  V30 3015 C 318.077 1.45134 -3.08462 0
M  V30 3016 H 319.27 -0.353723 -2.97807 0
M  V30 3017 H 316.823 -0.221545 -1.54722 0
M  V30 3018 H 317.558 2.15728 -2.4214 0
M  V30 3019 H 317.343 1.02232 -3.78538 0
M  V30 3020 H 318.833 2.00493 -3.66323 0
M  V30 3021 N 319.27 1.56325 -0.20005 0
M  V30 3022 C 320.51 1.99619 0.439519 0
M  V30 3023 C 320.874 1.08423 1.58456 0
M  V30 3024 O 322.075 1.40973 2.28867 0
M  V30 3025 C 320.346 3.46314 0.883258 0
M  V30 3026 S 321.905 4.11634 1.51997 0
M  V30 3027 H 318.723 0.697007 0.140363 0
M  V30 3028 H 321.325 1.93118 -0.304282 0
M  V30 3029 H 320.029 4.10381 0.0398967 0
M  V30 3030 H 319.56 3.56643 1.6604 0
M  V30 3031 H 321.575 4.09049 2.8088 0
M  V30 3032 N 320.748 -0.0735177 1.57428 0
M  V30 3033 C 321.696 -1.10628 2.04607 0
M  V30 3034 C 322.69 -1.40181 0.951088 0
M  V30 3035 O 323.896 -1.39608 1.1362 0
M  V30 3036 H 320.271 -0.374088 0.652351 0
M  V30 3037 H 322.242 -0.682218 2.90497 0
M  V30 3038 C 320.991 -2.41212 2.50423 0
M  V30 3039 H 320.314 -2.19322 3.34272 0
M  V30 3040 H 321.754 -3.11927 2.87189 0
M  V30 3041 C 320.213 -3.0705 1.38644 0
M  V30 3042 O 320.743 -3.95056 0.727582 0
M  V30 3043 N 318.949 -2.67645 1.132 0
M  V30 3044 H 318.496 -1.96169 1.66959 0
M  V30 3045 H 318.454 -3.1202 0.386147 0
M  V30 3046 N 322.226 -1.5378 -0.344866 0
M  V30 3047 C 323.456 -1.74646 -1.10374 0
M  V30 3048 C 323.864 -0.48491 -1.8288 0
M  V30 3049 O 323.207 0.553062 -1.75177 0
M  V30 3050 C 323.269 -2.87145 -2.16306 0
M  V30 3051 C 322.933 -4.26795 -1.63386 0
M  V30 3052 C 323.93 -5.08412 -1.08688 0
M  V30 3053 C 321.615 -4.73276 -1.68272 0
M  V30 3054 C 323.609 -6.34609 -0.595792 0
M  V30 3055 C 321.296 -5.99446 -1.18776 0
M  V30 3056 C 322.294 -6.79946 -0.645215 0
M  V30 3057 O 321.982 -8.03745 -0.157626 0
M  V30 3058 H 321.714 -0.587112 -0.335075 0
M  V30 3059 H 324.268 -2.01403 -0.403252 0
M  V30 3060 H 322.498 -2.55909 -2.89909 0
M  V30 3061 H 324.187 -2.95992 -2.77747 0
M  V30 3062 H 324.953 -4.73666 -1.04236 0
M  V30 3063 H 320.832 -4.10677 -2.09442 0
M  V30 3064 H 324.376 -6.97389 -0.171654 0
M  V30 3065 H 320.273 -6.33687 -1.22928 0
M  V30 3066 H 321.041 -8.18038 -0.275037 0
M  V30 3067 N 323.704 0.605807 -1.45491 0
M  V30 3068 C 325.115 1.18777 -1.44045 0
M  V30 3069 C 325.466 1.95471 -0.169001 0
M  V30 3070 O 324.591 2.0374 0.729324 0
M  V30 3071 C 325.186 2.16064 -2.60963 0
M  V30 3072 C 323.745 2.69633 -2.62631 0
M  V30 3073 C 322.892 1.45072 -2.36325 0
M  V30 3074 H 325.843 0.395017 -1.53705 0
M  V30 3075 H 325.864 2.9913 -2.35163 0
M  V30 3076 H 325.376 1.60217 -3.53486 0
M  V30 3077 H 323.477 3.29414 -1.74119 0
M  V30 3078 H 323.59 3.13944 -3.61906 0
M  V30 3079 H 321.954 1.74089 -1.85917 0
M  V30 3080 H 322.737 0.910899 -3.30995 0
M  V30 3081 N 325.182 1.32811 0.848464 0
M  V30 3082 C 326.41 1.26739 1.63538 0
M  V30 3083 C 326.825 -0.163484 1.88091 0
M  V30 3084 O 326.182 -1.10258 1.45429 0
M  V30 3085 C 326.233 2.03013 2.99112 0
M  V30 3086 O 325.954 3.40518 2.75643 0
M  V30 3087 C 327.455 2.04038 3.93552 0
M  V30 3088 H 324.675 0.437024 0.509167 0
M  V30 3089 H 327.219 1.75033 1.05753 0
M  V30 3090 H 325.374 1.58426 3.53525 0
M  V30 3091 H 325.788 3.79635 3.61908 0
M  V30 3092 H 327.262 2.61877 4.85926 0
M  V30 3093 H 327.739 1.0282 4.26995 0
M  V30 3094 H 328.345 2.486 3.45077 0
M  V30 3095 N 326.66 -1.06551 1.16123 0
M  V30 3096 C 327.9 -1.80889 0.951766 0
M  V30 3097 C 328.264 -1.85062 -0.511465 0
M  V30 3098 O 329.465 -2.55353 -0.83954 0
M  V30 3099 C 327.736 -3.21609 1.55893 0
M  V30 3100 S 329.295 -4.12593 1.49373 0
M  V30 3101 H 326.113 -0.623156 0.342341 0
M  V30 3102 H 328.715 -1.27943 1.47821 0
M  V30 3103 H 327.419 -3.16165 2.61664 0
M  V30 3104 H 326.95 -3.79631 1.0317 0
M  V30 3105 H 328.965 -4.93753 0.492196 0
M  V30 3106 N 328.138 -0.959301 -1.25041 0
M  V30 3107 C 329.386 -0.615393 -1.92503 0
M  V30 3108 C 329.707 0.850969 -1.75452 0
M  V30 3109 O 328.977 1.60658 -1.12098 0
M  V30 3110 H 327.557 -0.224613 -0.712431 0
M  V30 3111 H 330.219 -1.21855 -1.5211 0
M  V30 3112 H 329.315 -0.848738 -3.00338 0
M  V30 3113 N 329.616 1.39756 -0.72842 0
M  V30 3114 C 330.864 2.00248 -0.272946 0
M  V30 3115 C 331.185 1.58077 1.14178 0
M  V30 3116 O 330.455 0.826014 1.77634 0
M  V30 3117 H 329.035 0.740554 -0.0979247 0
M  V30 3118 H 331.697 1.70903 -0.936912 0
M  V30 3119 H 330.793 3.10495 -0.316142 0
M  V30 3120 N 331.094 0.475555 1.50254 0
M  V30 3121 C 332.324 -0.0753399 2.06463 0
M  V30 3122 C 332.732 -1.33661 1.33908 0
M  V30 3123 O 332.075 -1.79219 0.403257 0
M  V30 3124 C 332.137 -0.424921 3.5698 0
M  V30 3125 C 331.801 0.734965 4.51051 0
M  V30 3126 C 332.798 1.61827 4.94073 0
M  V30 3127 C 330.483 0.926557 4.9368 0
M  V30 3128 C 332.477 2.67754 5.78434 0
M  V30 3129 C 330.164 1.98904 5.77824 0
M  V30 3130 C 331.162 2.8629 6.20103 0
M  V30 3131 O 330.85 3.90708 7.02568 0
M  V30 3132 H 330.582 0.00576308 0.675975 0
M  V30 3133 H 333.136 0.664662 1.94349 0
M  V30 3134 H 331.366 -1.21817 3.67012 0
M  V30 3135 H 333.055 -0.911422 3.95535 0
M  V30 3136 H 333.821 1.48196 4.61804 0
M  V30 3137 H 329.7 0.25584 4.6029 0
M  V30 3138 H 333.244 3.35992 6.11355 0
M  V30 3139 H 329.141 2.12541 6.09505 0
M  V30 3140 H 329.909 3.87751 7.20827 0
M  V30 3141 N 332.573 -1.56217 0.208337 0
M  V30 3142 C 333.505 -2.1695 -0.739276 0
M  V30 3143 C 334.518 -1.13492 -1.1672 0
M  V30 3144 O 335.707 -1.40529 -1.10063 0
M  V30 3145 C 332.807 -2.72755 -2.01142 0
M  V30 3146 C 331.98 -4.0125 -1.74118 0
M  V30 3147 C 331.039 -4.41749 -2.85909 0
M  V30 3148 O 330.065 -5.08912 -2.54946 0
M  V30 3149 N 331.267 -4.06342 -4.14568 0
M  V30 3150 H 334.032 -2.98893 -0.219837 0
M  V30 3151 H 331.593 -1.61878 0.0268445 0
M  V30 3152 H 333.585 -2.96826 -2.75094 0
M  V30 3153 H 332.155 -1.95191 -2.4417 0
M  V30 3154 H 331.375 -3.85173 -0.838775 0
M  V30 3155 H 332.663 -4.851 -1.53477 0
M  V30 3156 H 332.061 -3.52345 -4.42571 0
M  V30 3157 H 330.618 -4.35335 -4.85105 0
M  V30 3158 N 334.051 0.0651679 -1.57465 0
M  V30 3159 C 335.298 0.763063 -1.87573 0
M  V30 3160 C 335.626 1.77242 -0.800961 0
M  V30 3161 O 334.881 1.94651 0.202316 0
M  V30 3162 C 335.18 1.50081 -3.24362 0
M  V30 3163 C 334.846 0.630816 -4.46466 0
M  V30 3164 C 333.508 0.391082 -4.79608 0
M  V30 3165 C 335.86 0.0279465 -5.21193 0
M  V30 3166 C 333.188 -0.460894 -5.84887 0
M  V30 3167 C 335.54 -0.811522 -6.27373 0
M  V30 3168 C 334.204 -1.06106 -6.59013 0
M  V30 3169 H 333.474 0.279224 -0.686378 0
M  V30 3170 H 336.121 0.0236726 -1.91485 0
M  V30 3171 H 334.426 2.31258 -3.16271 0
M  V30 3172 H 336.123 2.04571 -3.44894 0
M  V30 3173 H 332.713 0.8278 -4.2053 0
M  V30 3174 H 336.897 0.200262 -4.95896 0
M  V30 3175 H 332.153 -0.662907 -6.07796 0
M  V30 3176 H 336.327 -1.28537 -6.84435 0
M  V30 3177 H 333.954 -1.723 -7.40417 0
M  V30 3178 N 335.529 1.53961 0.336706 0
M  V30 3179 C 336.757 1.75483 1.09605 0
M  V30 3180 C 337.172 0.4972 1.82136 0
M  V30 3181 O 336.529 -0.53149 1.74589 0
M  V30 3182 C 336.58 2.93943 2.10428 0
M  V30 3183 O 336.301 4.14842 1.40846 0
M  V30 3184 C 337.802 3.27571 2.98684 0
M  V30 3185 H 335.022 0.586166 0.326574 0
M  V30 3186 H 337.566 2.00808 0.38683 0
M  V30 3187 H 335.721 2.70929 2.76905 0
M  V30 3188 H 336.135 4.81383 2.08255 0
M  V30 3189 H 337.609 4.13791 3.6535 0
M  V30 3190 H 338.086 2.44168 3.65074 0
M  V30 3191 H 338.692 3.52615 2.37787 0
M  V30 3192 N 337.007 -0.598083 1.45811 0
M  V30 3193 C 338.247 -1.36802 1.5187 0
M  V30 3194 C 338.611 -1.9133 0.160224 0
M  V30 3195 O 339.812 -2.6863 0.0955302 0
M  V30 3196 C 338.083 -2.47835 2.57513 0
M  V30 3197 S 339.642 -3.35458 2.82866 0
M  V30 3198 H 336.46 -0.466278 0.536755 0
M  V30 3199 H 339.062 -0.689152 1.82951 0
M  V30 3200 H 337.766 -2.06141 3.54872 0
M  V30 3201 H 337.297 -3.20512 2.28114 0
M  V30 3202 H 339.312 -4.46251 2.16967 0
M  V30 3203 N 338.485 -1.33259 -0.841409 0
M  V30 3204 C 339.896 -1.22066 -1.41269 0
M  V30 3205 C 340.247 0.161479 -1.95534 0
M  V30 3206 O 339.372 1.06094 -1.88608 0
M  V30 3207 C 339.967 -2.20996 -2.568 0
M  V30 3208 C 338.526 -2.13649 -3.09888 0
M  V30 3209 C 337.673 -2.08623 -1.82679 0
M  V30 3210 H 340.624 -1.44895 -0.647395 0
M  V30 3211 H 340.645 -1.81621 -3.34356 0
M  V30 3212 H 340.157 -3.2158 -2.17274 0
M  V30 3213 H 338.258 -1.16359 -3.53965 0
M  V30 3214 H 338.371 -3.04079 -3.70234 0
M  V30 3215 H 336.735 -1.54061 -2.02824 0
M  V30 3216 H 337.518 -3.1101 -1.45353 0
M  V30 3217 N 339.963 1.05934 -1.16686 0
M  V30 3218 C 341.188 1.83029 -0.975455 0
M  V30 3219 C 341.613 1.82096 0.471452 0
M  V30 3220 O 340.971 1.22443 1.33706 0
M  V30 3221 C 341.019 3.27372 -1.51195 0
M  V30 3222 O 340.123 4.06054 -0.720701 0
M  V30 3223 H 339.464 0.566194 -0.346872 0
M  V30 3224 H 341.994 1.33541 -1.55009 0
M  V30 3225 H 342.004 3.78186 -1.53099 0
M  V30 3226 H 340.679 3.27366 -2.56523 0
M  V30 3227 H 339.256 3.64812 -0.772458 0
M  V30 3228 N 341.441 0.965919 1.2453 0
M  V30 3229 C 342.689 0.625593 1.92174 0
M  V30 3230 C 343.01 -0.841652 1.75901 0
M  V30 3231 O 342.28 -1.60061 1.12948 0
M  V30 3232 H 340.86 0.228388 0.71123 0
M  V30 3233 H 343.522 1.2266 1.51461 0
M  V30 3234 H 342.618 0.864653 2.99884 0
M  V30 3235 N 342.919 -1.39368 0.735821 0
M  V30 3236 C 344.335 -1.54204 0.411492 0
M  V30 3237 C 344.535 -1.70268 -1.07755 0
M  V30 3238 O 343.591 -1.70364 -1.86366 0
M  V30 3239 C 344.904 -2.75925 1.19523 0
M  V30 3240 C 346.452 -2.89761 1.18354 0
M  V30 3241 C 346.927 -4.14421 1.94986 0
M  V30 3242 N 348.418 -4.21462 1.92156 0
M  V30 3243 C 349.153 -5.16871 2.48258 0
M  V30 3244 N 348.649 -6.18063 3.13001 0
M  V30 3245 N 350.442 -5.09093 2.38287 0
M  V30 3246 H 342.593 -1.27189 1.70108 0
M  V30 3247 H 344.856 -0.616517 0.720147 0
M  V30 3248 H 344.562 -2.70401 2.24892 0
M  V30 3249 H 344.436 -3.68614 0.800222 0
M  V30 3250 H 346.823 -2.94777 0.137975 0
M  V30 3251 H 346.904 -1.98133 1.61793 0
M  V30 3252 H 346.548 -4.10166 2.99543 0
M  V30 3253 H 346.478 -5.05095 1.48953 0
M  V30 3254 H 348.969 -3.48979 1.44991 0
M  V30 3255 H 349.282 -6.87326 3.53275 0
M  V30 3256 H 347.627 -6.18448 3.17091 0
M  V30 3257 H 350.818 -4.28973 1.8735 0
M  V30 3258 H 350.991 -5.83272 2.82308 0
M  V30 3259 N 344.397 -0.483516 -1.5 0
M  V30 3260 C 345.637 0.0657469 -2.04294 0
M  V30 3261 C 346.001 1.35869 -1.35659 0
M  V30 3262 O 347.202 1.99111 -1.80578 0
M  V30 3263 C 345.473 0.232758 -3.56641 0
M  V30 3264 S 347.032 0.738788 -4.32536 0
M  V30 3265 H 343.85 0.0100755 -0.710929 0
M  V30 3266 H 346.452 -0.653494 -1.84254 0
M  V30 3267 H 345.156 -0.713847 -4.04144 0
M  V30 3268 H 344.687 0.977751 -3.81056 0
M  V30 3269 H 346.702 2.01048 -4.53645 0
M  V30 3270 N 345.875 1.56104 -0.216619 0
M  V30 3271 C 347.124 1.97348 0.416744 0
M  V30 3272 C 347.437 1.10715 1.6125 0
M  V30 3273 O 348.643 1.41836 2.31506 0
M  V30 3274 C 347.099 3.51059 0.792835 0
M  V30 3275 C 346.707 4.46387 -0.379828 0
M  V30 3276 C 348.451 4.01026 1.39208 0
M  V30 3277 C 346.358 5.91397 0.0184223 0
M  V30 3278 H 345.288 0.736942 0.159475 0
M  V30 3279 H 347.939 1.80827 -0.31205 0
M  V30 3280 H 346.321 3.63162 1.57891 0
M  V30 3281 H 347.495 4.46029 -1.15737 0
M  V30 3282 H 345.81 4.06734 -0.891979 0
M  V30 3283 H 348.407 5.0686 1.70286 0
M  V30 3284 H 348.75 3.46587 2.30614 0
M  V30 3285 H 349.283 3.92125 0.669537 0
M  V30 3286 H 346.022 6.49807 -0.862002 0
M  V30 3287 H 345.542 5.94961 0.760384 0
M  V30 3288 H 347.221 6.45455 0.446818 0
M  V30 3289 N 347.353 -0.0568162 1.57498 0
M  V30 3290 C 348.583 -0.764515 1.91934 0
M  V30 3291 C 348.991 -1.70877 0.81227 0
M  V30 3292 O 348.334 -1.82351 -0.222213 0
M  V30 3293 C 348.396 -1.5994 3.21962 0
M  V30 3294 C 348.06 -0.822925 4.4953 0
M  V30 3295 C 349.057 -0.135464 5.19723 0
M  V30 3296 C 346.742 -0.785666 4.96117 0
M  V30 3297 C 348.736 0.578861 6.34766 0
M  V30 3298 C 346.423 -0.0675784 6.11063 0
M  V30 3299 C 347.421 0.613471 6.80239 0
M  V30 3300 O 347.109 1.31996 7.92989 0
M  V30 3301 H 346.841 -0.221647 0.63863 0
M  V30 3302 H 349.395 -0.0268218 2.05382 0
M  V30 3303 H 347.625 -2.38026 3.04763 0
M  V30 3304 H 349.314 -2.18715 3.41934 0
M  V30 3305 H 350.08 -0.155458 4.84751 0
M  V30 3306 H 345.959 -1.30524 4.42136 0
M  V30 3307 H 349.503 1.111 6.88696 0
M  V30 3308 H 345.4 -0.0455636 6.45484 0
M  V30 3309 H 346.168 1.23077 8.09194 0
M  V30 3310 N 348.832 -1.54138 -0.328536 0
M  V30 3311 C 349.764 -1.79509 -1.4251 0
M  V30 3312 C 350.777 -0.67688 -1.48061 0
M  V30 3313 O 351.966 -0.953898 -1.50874 0
M  V30 3314 C 349.066 -1.89337 -2.81078 0
M  V30 3315 C 348.239 -3.19443 -2.98789 0
M  V30 3316 C 347.298 -3.20036 -4.17688 0
M  V30 3317 O 346.324 -3.93697 -4.11086 0
M  V30 3318 N 347.526 -2.43467 -5.26976 0
M  V30 3319 H 350.291 -2.74139 -1.21111 0
M  V30 3320 H 347.852 -1.53373 -0.518499 0
M  V30 3321 H 349.844 -1.87167 -3.58818 0
M  V30 3322 H 348.414 -1.01826 -2.95551 0
M  V30 3323 H 347.634 -3.34614 -2.08391 0
M  V30 3324 H 348.922 -4.05354 -3.07515 0
M  V30 3325 H 348.32 -1.83201 -5.35214 0
M  V30 3326 H 346.877 -2.4708 -6.03154 0
M  V30 3327 N 350.31 0.590341 -1.46126 0
M  V30 3328 C 351.258 1.72105 -1.5647 0
M  V30 3329 C 352.252 1.63756 -0.433612 0
M  V30 3330 O 353.458 1.69342 -0.610194 0
M  V30 3331 H 349.833 0.568889 -0.491802 0
M  V30 3332 H 351.804 1.6051 -2.51553 0
M  V30 3333 C 350.553 3.10493 -1.56491 0
M  V30 3334 H 349.876 3.17583 -2.4286 0
M  V30 3335 H 351.316 3.8939 -1.67785 0
M  V30 3336 C 349.775 3.3563 -0.292231 0
M  V30 3337 O 350.305 3.96875 0.620739 0
M  V30 3338 N 348.511 2.90026 -0.182523 0
M  V30 3339 H 348.058 2.40367 -0.926356 0
M  V30 3340 H 348.016 3.07218 0.668152 0
M  V30 3341 N 351.788 1.33704 0.83433 0
M  V30 3342 C 353.034 1.26612 1.59188 0
M  V30 3343 C 353.389 -0.165439 1.91687 0
M  V30 3344 O 352.682 -1.10873 1.56262 0
M  V30 3345 C 352.876 2.07926 2.90692 0
M  V30 3346 C 352.705 3.58844 2.71038 0
M  V30 3347 C 351.475 4.28148 2.68361 0
M  V30 3348 C 353.673 4.53082 2.43353 0
M  V30 3349 N 351.655 5.64987 2.40132 0
M  V30 3350 C 353.026 5.77843 2.24716 0
M  V30 3351 C 355.081 4.42119 2.28987 0
M  V30 3352 C 353.784 6.92877 1.9317 0
M  V30 3353 C 355.81 5.56973 1.98835 0
M  V30 3354 C 355.172 6.80745 1.81012 0
M  V30 3355 H 351.271 0.518517 0.585375 0
M  V30 3356 H 353.855 1.68294 0.979044 0
M  V30 3357 H 352.026 1.68558 3.49918 0
M  V30 3358 H 353.758 1.92568 3.55949 0
M  V30 3359 H 350.513 3.80469 2.82029 0
M  V30 3360 H 350.937 6.37133 2.28889 0
M  V30 3361 H 355.579 3.47058 2.41477 0
M  V30 3362 H 353.297 7.87931 1.79418 0
M  V30 3363 H 356.883 5.50428 1.88468 0
M  V30 3364 H 355.763 7.68115 1.58017 0
M  V30 3365 N 353.266 -1.05314 1.17247 0
M  V30 3366 C 354.512 -1.78557 0.961513 0
M  V30 3367 C 354.845 -1.87419 -0.508697 0
M  V30 3368 O 354.12 -1.37307 -1.37757 0
M  V30 3369 C 354.403 -3.22514 1.60176 0
M  V30 3370 C 354.256 -3.21673 3.14399 0
M  V30 3371 C 355.575 -4.20318 1.30463 0
M  V30 3372 H 352.694 -0.6482 0.350723 0
M  V30 3373 H 355.336 -1.23102 1.44727 0
M  V30 3374 H 353.486 -3.69867 1.18871 0
M  V30 3375 H 355.158 -2.82405 3.64753 0
M  V30 3376 H 353.401 -2.60048 3.47214 0
M  V30 3377 H 354.072 -4.23271 3.54324 0
M  V30 3378 H 356.548 -3.81454 1.66229 0
M  V30 3379 H 355.424 -5.19289 1.77848 0
M  V30 3380 H 355.685 -4.41526 0.22521 0
M  V30 3381 N 354.744 -0.972509 -1.24016 0
M  V30 3382 C 355.984 -0.644951 -1.93958 0
M  V30 3383 C 356.348 0.80559 -1.74282 0
M  V30 3384 O 357.549 1.2436 -2.38302 0
M  V30 3385 C 355.82 -1.01521 -3.42678 0
M  V30 3386 S 357.379 -0.802927 -4.31391 0
M  V30 3387 H 354.197 -0.236452 -0.670531 0
M  V30 3388 H 356.799 -1.25048 -1.50277 0
M  V30 3389 H 355.503 -2.06769 -3.54506 0
M  V30 3390 H 355.034 -0.400648 -3.91355 0
M  V30 3391 H 357.049 0.317256 -4.95185 0
M  V30 3392 N 356.222 1.38976 -0.743202 0
M  V30 3393 C 357.499 1.94351 -0.220705 0
M  V30 3394 C 357.879 1.67935 1.2791 0
M  V30 3395 O 357.227 1.01211 2.04862 0
M  V30 3396 C 357.437 3.44426 -0.563171 0
M  V30 3397 C 358.785 4.2144 -0.517046 0
M  V30 3398 O 359.809 3.52661 -0.500846 0
M  V30 3399 O 358.668 5.44032 -0.518806 0
M  V30 3400 H 355.762 0.825879 -0.043047 0
M  V30 3401 H 358.308 1.48429 -0.822618 0
M  V30 3402 H 357.08 3.5712 -1.59941 0
M  V30 3403 H 356.703 3.97543 0.0672883 0
M  V30 3404 N 357.7 0.491464 1.49741 0
M  V30 3405 C 358.948 -0.0563141 2.02022 0
M  V30 3406 C 359.269 -1.38363 1.37407 0
M  V30 3407 O 358.539 -1.88702 0.526166 0
M  V30 3408 H 357.119 -0.0238014 0.746621 0
M  V30 3409 H 359.781 0.646533 1.83864 0
M  V30 3410 H 358.877 -0.192967 3.11503 0
M  V30 3411 N 359.178 -1.55987 0.224894 0
M  V30 3412 C 360.088 -2.24066 -0.69511 0
M  V30 3413 C 361.104 -1.24939 -1.21104 0
M  V30 3414 O 362.28 -1.5776 -1.25195 0
M  V30 3415 C 359.345 -2.90983 -1.88493 0
M  V30 3416 C 358.406 -4.05462 -1.41064 0
M  V30 3417 C 357.639 -4.69179 -2.54375 0
M  V30 3418 O 357.862 -4.31895 -3.72589 0
M  V30 3419 O 356.796 -5.58108 -2.25386 0
M  V30 3420 H 360.622 -3.03353 -0.145149 0
M  V30 3421 H 358.207 -1.49399 -0.00569476 0
M  V30 3422 H 360.089 -3.33209 -2.57972 0
M  V30 3423 H 358.764 -2.14653 -2.42293 0
M  V30 3424 H 357.671 -3.67798 -0.683774 0
M  V30 3425 H 359.004 -4.83545 -0.918985 0
M  V30 3426 N 360.656 0.0484629 -1.57525 0
M  V30 3427 C 361.933 0.777447 -1.79486 0
M  V30 3428 C 362.313 1.94597 -0.818251 0
M  V30 3429 O 361.661 2.28047 0.143767 0
M  V30 3430 C 361.871 1.22864 -3.26658 0
M  V30 3431 C 363.219 1.65251 -3.91123 0
M  V30 3432 O 364.243 1.32372 -3.3069 0
M  V30 3433 O 363.102 2.26207 -4.97486 0
M  V30 3434 H 360.196 0.374357 -0.737419 0
M  V30 3435 H 362.742 0.0267359 -1.69679 0
M  V30 3436 H 361.514 0.393589 -3.89316 0
M  V30 3437 H 361.137 2.03996 -3.41279 0
M  V30 3438 N 362.134 1.5431 0.320358 0
M  V30 3439 C 363.411 1.63322 1.07635 0
M  V30 3440 C 363.791 0.46912 2.05821 0
M  V30 3441 O 363.139 -0.536274 2.22118 0
M  V30 3442 C 363.349 3.00465 1.77544 0
M  V30 3443 C 364.697 3.56621 2.30449 0
M  V30 3444 O 365.721 3.02791 1.87606 0
M  V30 3445 O 364.58 4.5083 3.08892 0
M  V30 3446 H 361.674 0.661502 0.496331 0
M  V30 3447 H 364.22 1.66656 0.319992 0
M  V30 3448 H 362.992 3.76629 1.06143 0
M  V30 3449 H 362.615 3.00824 2.59982 0
M  V30 3450 N 363.613 -0.582584 1.46437 0
M  V30 3451 C 364.853 -1.35184 1.53312 0
M  V30 3452 C 365.217 -1.9115 0.180508 0
M  V30 3453 O 366.418 -2.68514 0.124017 0
M  V30 3454 C 364.689 -2.45089 2.60127 0
M  V30 3455 S 366.248 -3.32439 2.86408 0
M  V30 3456 H 363.066 -0.460559 0.54167 0
M  V30 3457 H 365.668 -0.669709 1.83671 0
M  V30 3458 H 364.372 -2.02366 3.57038 0
M  V30 3459 H 363.903 -3.18074 2.315 0
M  V30 3460 H 365.918 -4.43924 2.21688 0
M  V30 3461 N 365.091 -1.34144 -0.827227 0
M  V30 3462 C 366.038 -1.25364 -1.93785 0
M  V30 3463 C 367.008 -0.129774 -1.65592 0
M  V30 3464 O 368.193 -0.310024 -1.88264 0
M  V30 3465 C 365.333 -1.01064 -3.2997 0
M  V30 3466 C 364.446 -2.22185 -3.70484 0
M  V30 3467 C 363.581 -1.91203 -4.95595 0
M  V30 3468 C 362.62 -3.08491 -5.28677 0
M  V30 3469 N 361.757 -2.77421 -6.44967 0
M  V30 3470 H 366.597 -2.20347 -2.00627 0
M  V30 3471 H 364.134 -1.09558 -0.981608 0
M  V30 3472 H 366.092 -0.850139 -4.08446 0
M  V30 3473 H 364.722 -0.0975026 -3.22653 0
M  V30 3474 H 363.774 -2.4917 -2.87434 0
M  V30 3475 H 365.086 -3.0983 -3.90905 0
M  V30 3476 H 364.24 -1.71864 -5.81848 0
M  V30 3477 H 362.979 -1.00812 -4.77167 0
M  V30 3478 H 361.984 -3.28431 -4.40923 0
M  V30 3479 H 363.209 -3.99655 -5.49047 0
M  V30 3480 H 361.155 -1.89601 -6.28003 0
M  V30 3481 H 361.072 -3.58598 -6.6554 0
M  V30 3482 H 362.34 -2.61577 -7.34301 0
M  V30 3483 N 366.569 1.04691 -1.17803 0
M  V30 3484 C 367.846 1.7472 -0.879328 0
M  V30 3485 C 368.226 2.01812 0.619271 0
M  V30 3486 O 367.574 1.65824 1.57209 0
M  V30 3487 C 367.784 3.03686 -1.71976 0
M  V30 3488 C 369.132 3.77542 -1.94286 0
M  V30 3489 O 370.156 3.13569 -1.68976 0
M  V30 3490 O 369.015 4.92506 -2.36855 0
M  V30 3491 H 366.109 0.760011 -0.326056 0
M  V30 3492 H 368.655 1.10813 -1.28525 0
M  V30 3493 H 367.427 2.79754 -2.73594 0
M  V30 3494 H 367.05 3.75332 -1.31194 0
M  V30 3495 N 368.047 0.979072 1.23499 0
M  V30 3496 C 368.995 0.510604 2.26926 0
M  V30 3497 C 369.989 -0.431691 1.63807 0
M  V30 3498 O 371.195 -0.30573 1.77385 0
M  V30 3499 H 367.57 0.146688 0.737554 0
M  V30 3500 H 369.541 1.39466 2.63803 0
M  V30 3501 C 368.29 -0.172658 3.47271 0
M  V30 3502 H 367.613 0.543331 3.96091 0
M  V30 3503 H 369.053 -0.464101 4.21452 0
M  V30 3504 C 367.512 -1.40345 3.06276 0
M  V30 3505 O 368.042 -2.49978 3.14442 0
M  V30 3506 N 366.248 -1.27362 2.61203 0
M  V30 3507 H 365.795 -0.381584 2.54758 0
M  V30 3508 H 365.753 -2.09822 2.34141 0
M  V30 3509 N 369.525 -1.3858 0.750561 0
M  V30 3510 C 370.773 -1.99789 0.30477 0
M  V30 3511 C 371.094 -1.59874 -1.11649 0
M  V30 3512 O 370.364 -0.85417 -1.76297 0
M  V30 3513 H 368.944 -0.738902 0.109694 0
M  V30 3514 H 371.606 -1.69391 0.963983 0
M  V30 3515 H 370.702 -3.09952 0.365499 0
M  V30 3516 N 371.003 -0.499398 -1.49478 0
M  V30 3517 C 372.28 0.108629 -1.95298 0
M  V30 3518 C 372.66 1.54282 -1.44084 0
M  V30 3519 O 372.008 2.18944 -0.653908 0
M  V30 3520 C 372.218 0.0229111 -3.48992 0
M  V30 3521 C 373.566 0.197643 -4.2414 0
M  V30 3522 O 374.59 0.0981735 -3.56065 0
M  V30 3523 O 373.449 0.401669 -5.45022 0
M  V30 3524 H 370.543 0.096181 -0.821388 0
M  V30 3525 H 373.089 -0.561822 -1.6013 0
M  V30 3526 H 371.861 -0.977321 -3.78899 0
M  V30 3527 H 371.484 0.733579 -3.90774 0
M  V30 3528 N 372.481 1.55866 -0.233164 0
M  V30 3529 C 373.391 2.24431 0.683217 0
M  V30 3530 C 374.407 1.2558 1.2044 0
M  V30 3531 O 375.583 1.58422 1.24356 0
M  V30 3532 C 372.648 2.91979 1.86947 0
M  V30 3533 C 371.709 4.06204 1.38912 0
M  V30 3534 C 370.942 4.70522 2.51883 0
M  V30 3535 O 371.165 4.33865 3.70293 0
M  V30 3536 O 370.099 5.59296 2.22423 0
M  V30 3537 H 373.925 3.03426 0.129059 0
M  V30 3538 H 371.51 1.494 -0.0022283 0
M  V30 3539 H 373.392 3.34573 2.56201 0
M  V30 3540 H 372.067 2.15935 2.41151 0
M  V30 3541 H 370.974 3.68155 0.664259 0
M  V30 3542 H 372.307 4.84025 0.893328 0
M  V30 3543 N 373.959 -0.0401083 1.57549 0
M  V30 3544 C 375.236 -0.767917 1.79896 0
M  V30 3545 C 375.616 -1.9416 0.82856 0
M  V30 3546 O 374.964 -2.2812 -0.131671 0
M  V30 3547 C 375.174 -1.2113 3.27305 0
M  V30 3548 C 376.522 -1.63175 3.91994 0
M  V30 3549 O 377.546 -1.30616 3.31388 0
M  V30 3550 O 376.405 -2.23565 4.98679 0
M  V30 3551 H 373.499 -0.370441 0.739393 0
M  V30 3552 H 376.045 -0.017737 1.69691 0
M  V30 3553 H 374.817 -0.372937 3.89519 0
M  V30 3554 H 374.44 -2.02183 3.42356 0
M  V30 3555 N 375.437 -1.54477 -0.31217 0
M  V30 3556 C 376.685 -1.72884 -1.04668 0
M  V30 3557 C 377.006 -0.511477 -1.88173 0
M  V30 3558 O 376.276 0.474407 -1.90069 0
M  V30 3559 H 374.856 -0.637461 -0.389425 0
M  V30 3560 H 377.518 -1.91807 -0.345852 0
M  V30 3561 H 376.614 -2.61334 -1.70619 0
M  V30 3562 N 376.915 0.57481 -1.46744 0
M  V30 3563 C 378.155 1.34369 -1.54027 0
M  V30 3564 C 378.519 1.91051 -0.190642 0
M  V30 3565 O 379.72 2.68444 -0.138255 0
M  V30 3566 C 377.991 2.43706 -2.61423 0
M  V30 3567 S 379.55 3.30915 -2.88167 0
M  V30 3568 H 376.368 0.45768 -0.544105 0
M  V30 3569 H 378.97 0.659959 -1.84024 0
M  V30 3570 H 377.674 2.0047 -3.58106 0
M  V30 3571 H 377.205 3.16842 -2.33184 0
M  V30 3572 H 379.22 4.42742 -2.24039 0
M  V30 3573 N 378.394 1.34581 0.820102 0
M  V30 3574 C 379.304 1.28471 1.96297 0
M  V30 3575 C 380.32 0.191902 1.72939 0
M  V30 3576 O 381.496 0.418879 1.96996 0
M  V30 3577 C 378.561 1.04281 3.30645 0
M  V30 3578 C 377.622 2.22745 3.66992 0
M  V30 3579 C 376.855 1.997 4.9493 0
M  V30 3580 O 377.078 0.956656 5.6232 0
M  V30 3581 O 376.012 2.86723 5.2922 0
M  V30 3582 H 379.838 2.24624 2.04396 0
M  V30 3583 H 377.423 1.14816 0.955913 0
M  V30 3584 H 379.305 0.925841 4.11104 0
M  V30 3585 H 377.98 0.111697 3.23507 0
M  V30 3586 H 376.887 2.40003 2.86966 0
M  V30 3587 H 378.22 3.14257 3.78819 0
M  V30 3588 N 379.872 -1.04064 1.18357 0
M  V30 3589 C 381.097 -1.81454 1.00445 0
M  V30 3590 C 381.522 -1.82823 -0.442423 0
M  V30 3591 O 380.88 -1.24555 -1.31741 0
M  V30 3592 C 380.928 -3.24925 1.56384 0
M  V30 3593 O 380.032 -4.04856 0.785209 0
M  V30 3594 H 379.373 -0.560604 0.355835 0
M  V30 3595 H 381.903 -1.31059 1.57114 0
M  V30 3596 H 381.913 -3.75702 1.59097 0
M  V30 3597 H 380.588 -3.23244 2.61699 0
M  V30 3598 H 379.165 -3.63537 0.830399 0
M  V30 3599 N 381.35 -0.985608 -1.22978 0
M  V30 3600 C 382.598 -0.656087 -1.91154 0
M  V30 3601 C 382.919 0.813561 -1.77218 0
M  V30 3602 O 382.189 1.58244 -1.1548 0
M  V30 3603 H 380.769 -0.239674 -0.707506 0
M  V30 3604 H 383.431 -1.25054 -1.49491 0
M  V30 3605 H 382.527 -0.912253 -2.9847 0
M  V30 3606 N 382.828 1.3818 -0.7579 0
M  V30 3607 C 384.239 1.82726 -0.383134 0
M  V30 3608 C 384.59 1.63214 1.08884 0
M  V30 3609 O 383.715 1.13566 1.84205 0
M  V30 3610 C 384.31 3.31728 -0.688631 0
M  V30 3611 C 382.869 3.74606 -0.367091 0
M  V30 3612 C 382.016 2.60896 -0.939599 0
M  V30 3613 H 384.967 1.26847 -0.953699 0
M  V30 3614 H 384.988 3.80487 0.0316492 0
M  V30 3615 H 384.5 3.45898 -1.76001 0
M  V30 3616 H 382.601 3.66013 0.697532 0
M  V30 3617 H 382.714 4.71215 -0.865658 0
M  V30 3618 H 381.078 2.52075 -0.3647 0
M  V30 3619 H 381.861 2.77864 -2.0161 0
M  V30 3620 N 384.306 0.507319 1.49211 0
M  V30 3621 C 385.256 -0.287112 2.26185 0
M  V30 3622 C 386.24 -0.929983 1.31302 0
M  V30 3623 O 387.432 -0.836538 1.55984 0
M  V30 3624 C 384.561 -1.34718 3.15763 0
M  V30 3625 C 383.647 -0.710235 4.18111 0
M  V30 3626 N 384.038 0.190836 5.0544 0
M  V30 3627 C 382.336 -0.97009 4.35322 0
M  V30 3628 C 383.037 0.55606 5.79036 0
M  V30 3629 N 382.013 -0.0775232 5.43545 0
M  V30 3630 H 385.815 0.406445 2.91076 0
M  V30 3631 H 383.329 0.323814 1.59139 0
M  V30 3632 H 385.326 -1.92982 3.69545 0
M  V30 3633 H 383.986 -2.04235 2.52424 0
M  V30 3634 H 384.997 0.562047 5.14841 0
M  V30 3635 H 381.674 -1.65753 3.83187 0
M  V30 3636 H 383.064 1.2936 6.5933 0
M  V30 3637 N 385.784 -1.5574 0.241426 0
M  V30 3638 C 387.061 -1.90704 -0.434881 0
M  V30 3639 C 387.441 -1.16145 -1.76277 0
M  V30 3640 O 386.789 -0.277152 -2.26813 0
M  V30 3641 C 386.999 -3.43657 -0.608343 0
M  V30 3642 C 388.347 -4.14806 -0.906725 0
M  V30 3643 O 389.371 -3.49366 -0.694408 0
M  V30 3644 O 388.23 -5.30548 -1.31075 0
M  V30 3645 H 385.324 -0.793592 -0.23268 0
M  V30 3646 H 387.87 -1.67288 0.285086 0
M  V30 3647 H 386.642 -3.89927 0.327505 0
M  V30 3648 H 386.265 -3.72918 -1.37906 0
M  V30 3649 N 387.262 0.0317525 -1.57568 0
M  V30 3650 C 388.508 0.724175 -1.8943 0
M  V30 3651 C 388.841 1.75149 -0.838836 0
M  V30 3652 O 388.116 1.93948 0.146422 0
M  V30 3653 C 388.399 1.39615 -3.31933 0
M  V30 3654 C 388.252 0.382537 -4.4817 0
M  V30 3655 C 389.571 2.33084 -3.73309 0
M  V30 3656 H 386.69 0.261797 -0.688935 0
M  V30 3657 H 389.332 -0.013017 -1.89996 0
M  V30 3658 H 387.482 2.02451 -3.31581 0
M  V30 3659 H 389.154 -0.243689 -4.60656 0
M  V30 3660 H 387.397 -0.29844 -4.32772 0
M  V30 3661 H 388.068 0.891145 -5.44759 0
M  V30 3662 H 390.544 1.80295 -3.7501 0
M  V30 3663 H 389.42 2.77084 -4.73831 0
M  V30 3664 H 389.681 3.19643 -3.05419 0
M  V30 3665 N 388.74 1.54641 0.303973 0
M  V30 3666 C 389.69 1.8177 1.37636 0
M  V30 3667 C 390.674 0.674697 1.46071 0
M  V30 3668 O 391.866 0.935251 1.50273 0
M  V30 3669 C 388.995 2.06584 2.74186 0
M  V30 3670 C 388.081 3.2706 2.69986 0
M  V30 3671 N 388.472 4.47682 2.35402 0
M  V30 3672 C 386.77 3.29028 3.01092 0
M  V30 3673 C 387.471 5.29689 2.40426 0
M  V30 3674 N 386.447 4.67339 2.7766 0
M  V30 3675 H 390.249 2.72596 1.09857 0
M  V30 3676 H 387.763 1.541 0.51254 0
M  V30 3677 H 389.76 2.24166 3.51504 0
M  V30 3678 H 388.42 1.17024 3.02879 0
M  V30 3679 H 389.431 4.74336 2.07908 0
M  V30 3680 H 386.108 2.49565 3.34699 0
M  V30 3681 H 387.498 6.3606 2.16512 0
M  V30 3682 N 390.218 -0.567019 1.47046 0
M  V30 3683 C 391.165 -1.67489 1.58796 0
M  V30 3684 C 392.135 -1.60399 0.43144 0
M  V30 3685 O 393.32 -1.79378 0.650233 0
M  V30 3686 C 390.46 -3.05821 1.59899 0
M  V30 3687 C 389.573 -3.2342 2.86397 0
M  V30 3688 C 388.708 -4.52093 2.789 0
M  V30 3689 C 387.747 -4.6309 4.00267 0
M  V30 3690 N 386.884 -5.83106 3.91064 0
M  V30 3691 H 391.724 -1.56785 2.53422 0
M  V30 3692 H 389.261 -0.763896 1.2571 0
M  V30 3693 H 391.219 -3.8591 1.58522 0
M  V30 3694 H 389.849 -3.15384 0.687929 0
M  V30 3695 H 388.901 -2.3683 2.97684 0
M  V30 3696 H 390.213 -3.27412 3.76301 0
M  V30 3697 H 389.367 -5.4043 2.75718 0
M  V30 3698 H 388.106 -4.50565 1.86662 0
M  V30 3699 H 387.111 -3.73168 4.03765 0
M  V30 3700 H 388.336 -4.66386 4.93621 0
M  V30 3701 H 386.282 -5.82546 3.01623 0
M  V30 3702 H 386.199 -5.88434 4.74638 0
M  V30 3703 H 387.467 -6.73831 3.91882 0
M  V30 3704 N 391.696 -1.35014 -0.812953 0
M  V30 3705 C 392.936 -1.29289 -1.58315 0
M  V30 3706 C 393.3 0.132727 -1.91541 0
M  V30 3707 O 394.501 0.314269 -2.66957 0
M  V30 3708 C 392.772 -2.1681 -2.84127 0
M  V30 3709 S 394.331 -2.28538 -3.74588 0
M  V30 3710 H 391.149 -0.459569 -0.542511 0
M  V30 3711 H 393.751 -1.70336 -0.959467 0
M  V30 3712 H 392.455 -3.19379 -2.57731 0
M  V30 3713 H 391.986 -1.76697 -3.51485 0
M  V30 3714 H 394.001 -1.4655 -4.74065 0
M  V30 3715 N 393.175 1.03435 -1.18907 0
M  V30 3716 C 394.4 1.80919 -1.01406 0
M  V30 3717 C 394.825 1.83055 0.432721 0
M  V30 3718 O 394.183 1.25252 1.31079 0
M  V30 3719 C 394.231 3.24091 -1.58105 0
M  V30 3720 O 393.335 4.04434 -0.806669 0
M  V30 3721 H 392.676 0.558709 -0.358803 0
M  V30 3722 H 395.206 1.30223 -1.57807 0
M  V30 3723 H 395.216 3.74853 -1.61087 0
M  V30 3724 H 393.891 3.21851 -2.6341 0
M  V30 3725 H 392.468 3.63091 -0.849666 0
M  V30 3726 N 394.653 0.992116 1.22453 0
M  V30 3727 C 396.064 0.702776 1.72968 0
M  V30 3728 C 396.415 -0.780399 1.80012 0
M  V30 3729 O 395.54 -1.61007 1.44589 0
M  V30 3730 C 396.135 1.26903 3.14135 0
M  V30 3731 C 394.694 1.02909 3.62059 0
M  V30 3732 C 393.841 1.38969 2.39964 0
M  V30 3733 H 396.792 1.16457 1.07812 0
M  V30 3734 H 396.813 0.647223 3.74955 0
M  V30 3735 H 396.325 2.34851 3.08977 0
M  V30 3736 H 394.426 -0.0337979 3.72585 0
M  V30 3737 H 394.539 1.69191 4.48231 0
M  V30 3738 H 392.903 0.808279 2.41535 0
M  V30 3739 H 393.686 2.4792 2.37467 0
M  V30 3740 N 396.131 -1.37776 0.765217 0
M  V30 3741 C 397.547 -1.53297 0.444108 0
M  V30 3742 C 397.747 -1.72515 -1.04119 0
M  V30 3743 O 396.803 -1.74278 -1.82711 0
M  V30 3744 C 398.116 -2.73328 1.25349 0
M  V30 3745 C 399.664 -2.87185 1.24473 0
M  V30 3746 C 400.139 -4.10191 2.03733 0
M  V30 3747 N 401.63 -4.17291 2.01053 0
M  V30 3748 C 402.365 -5.11488 2.59166 0
M  V30 3749 N 401.861 -6.11285 3.26041 0
M  V30 3750 N 403.654 -5.03924 2.49032 0
M  V30 3751 H 395.805 -1.23552 1.72768 0
M  V30 3752 H 398.068 -0.601103 0.733062 0
M  V30 3753 H 397.774 -2.6557 2.30577 0
M  V30 3754 H 397.648 -3.66834 0.87823 0
M  V30 3755 H 400.035 -2.94418 0.20047 0
M  V30 3756 H 400.116 -1.94657 1.65959 0
M  V30 3757 H 399.76 -4.0372 3.08176 0
M  V30 3758 H 399.69 -5.01821 1.59633 0
M  V30 3759 H 402.181 -3.45825 1.5236 0
M  V30 3760 H 402.494 -6.79678 3.67774 0
M  V30 3761 H 400.839 -6.11583 3.30138 0
M  V30 3762 H 404.03 -4.24902 1.96407 0
M  V30 3763 H 404.203 -5.77152 2.94617 0
M  V30 3764 N 397.609 -0.515225 -1.4894 0
M  V30 3765 C 398.519 0.259774 -2.33157 0
M  V30 3766 C 399.535 0.953501 -1.45548 0
M  V30 3767 O 400.711 0.931735 -1.78552 0
M  V30 3768 C 397.776 1.30193 -3.21326 0
M  V30 3769 C 396.837 0.620129 -4.24797 0
M  V30 3770 C 396.07 1.61263 -5.08753 0
M  V30 3771 O 396.293 2.84389 -4.94448 0
M  V30 3772 O 395.227 1.16013 -5.90614 0
M  V30 3773 H 399.053 -0.429932 -3.00641 0
M  V30 3774 H 396.638 -0.276346 -1.46822 0
M  V30 3775 H 398.52 1.90455 -3.75905 0
M  V30 3776 H 397.195 1.97431 -2.56521 0
M  V30 3777 H 396.102 -0.0226019 -3.74093 0
M  V30 3778 H 397.435 -0.0100493 -4.92199 0
M  V30 3779 N 399.087 1.5561 -0.249682 0
M  V30 3780 C 400.333 2.00044 0.367952 0
M  V30 3781 C 400.688 1.1349 1.55363 0
M  V30 3782 O 399.981 0.191079 1.90645 0
M  V30 3783 C 400.175 3.4775 0.824887 0
M  V30 3784 C 400.004 4.48596 -0.314973 0
M  V30 3785 C 398.774 4.99077 -0.790555 0
M  V30 3786 C 400.972 5.0144 -1.14291 0
M  V30 3787 N 398.954 5.83675 -1.90254 0
M  V30 3788 C 400.325 5.83236 -2.10322 0
M  V30 3789 C 402.38 4.83736 -1.17916 0
M  V30 3790 C 401.083 6.49217 -3.09692 0
M  V30 3791 C 403.109 5.50497 -2.16117 0
M  V30 3792 C 402.471 6.32084 -3.10884 0
M  V30 3793 H 398.57 0.775512 0.100522 0
M  V30 3794 H 401.154 1.91193 -0.367896 0
M  V30 3795 H 399.325 3.56994 1.53002 0
M  V30 3796 H 401.057 3.79056 1.4177 0
M  V30 3797 H 397.812 4.72119 -0.374218 0
M  V30 3798 H 398.236 6.30671 -2.46137 0
M  V30 3799 H 402.878 4.20286 -0.460352 0
M  V30 3800 H 400.596 7.11832 -3.8252 0
M  V30 3801 H 404.182 5.38752 -2.19631 0
M  V30 3802 H 403.062 6.82832 -3.8563 0
M  V30 3803 N 400.565 -0.0233959 1.57583 0
M  V30 3804 C 401.79 -0.728376 1.94189 0
M  V30 3805 C 402.215 -1.67793 0.850119 0
M  V30 3806 O 401.573 -1.80262 -0.19371 0
M  V30 3807 C 401.621 -1.45669 3.29868 0
M  V30 3808 O 400.725 -2.57013 3.22518 0
M  V30 3809 H 400.066 -0.195493 0.63457 0
M  V30 3810 H 402.596 0.0228214 2.04587 0
M  V30 3811 H 402.606 -1.82535 3.6489 0
M  V30 3812 H 401.281 -0.760314 4.08891 0
M  V30 3813 H 399.858 -2.22648 2.99136 0
M  V30 3814 N 402.043 -1.548 -0.295768 0
M  V30 3815 C 403.283 -1.76069 -1.03823 0
M  V30 3816 C 403.647 -0.537992 -1.84309 0
M  V30 3817 O 404.848 -0.628514 -2.61349 0
M  V30 3818 C 403.119 -3.01705 -1.91596 0
M  V30 3819 S 404.678 -3.43998 -2.72416 0
M  V30 3820 H 401.496 -0.618852 -0.350062 0
M  V30 3821 H 404.098 -1.93009 -0.31106 0
M  V30 3822 H 402.802 -3.88812 -1.31351 0
M  V30 3823 H 402.333 -2.87366 -2.68671 0
M  V30 3824 H 404.348 -3.0148 -3.94112 0
M  V30 3825 N 403.521 0.559213 -1.47345 0
M  V30 3826 C 404.932 1.14134 -1.47751 0
M  V30 3827 C 405.283 1.94834 -0.231103 0
M  V30 3828 O 404.408 2.05957 0.664137 0
M  V30 3829 C 405.003 2.07653 -2.67705 0
M  V30 3830 C 403.562 2.61141 -2.71076 0
M  V30 3831 C 402.709 1.3748 -2.40821 0
M  V30 3832 H 405.66 0.345917 -1.54884 0
M  V30 3833 H 405.681 2.91497 -2.44561 0
M  V30 3834 H 405.193 1.4889 -3.58404 0
M  V30 3835 H 403.294 3.23707 -1.84511 0
M  V30 3836 H 403.407 3.02272 -3.7171 0
M  V30 3837 H 401.771 1.68086 -1.91362 0
M  V30 3838 H 402.554 0.805135 -3.33725 0
M  V30 3839 N 404.999 1.35443 0.805782 0
M  V30 3840 C 405.909 1.30546 1.94923 0
M  V30 3841 C 406.925 0.210233 1.72725 0
M  V30 3842 O 408.101 0.43975 1.9654 0
M  V30 3843 C 405.166 1.07782 3.29521 0
M  V30 3844 C 404.227 2.26625 3.64609 0
M  V30 3845 C 403.46 2.04938 4.92784 0
M  V30 3846 O 403.683 1.01624 5.61274 0
M  V30 3847 O 402.617 2.9232 5.26149 0
M  V30 3848 H 406.443 2.26779 2.02002 0
M  V30 3849 H 404.028 1.15823 0.943682 0
M  V30 3850 H 405.91 0.969392 4.10098 0
M  V30 3851 H 404.585 0.146003 3.23371 0
M  V30 3852 H 403.492 2.43033 2.84404 0
M  V30 3853 H 404.825 3.18257 3.75464 0
M  V30 3854 N 406.477 -1.02803 1.19454 0
M  V30 3855 C 407.702 -1.80378 1.02364 0
M  V30 3856 C 408.127 -1.83282 -0.423007 0
M  V30 3857 O 407.485 -1.25945 -1.30413 0
M  V30 3858 C 407.533 -3.23248 1.59821 0
M  V30 3859 O 406.637 -4.04 0.828105 0
M  V30 3860 H 405.978 -0.556799 0.361761 0
M  V30 3861 H 408.508 -1.29385 1.58495 0
M  V30 3862 H 408.518 -3.73994 1.63073 0
M  V30 3863 H 407.193 -3.2045 2.65113 0
M  V30 3864 H 405.77 -3.62635 0.86891 0
M  V30 3865 N 407.956 -0.998596 -1.21925 0
M  V30 3866 C 409.204 -0.676325 -1.90448 0
M  V30 3867 C 409.525 0.794719 -1.78071 0
M  V30 3868 O 408.795 1.5701 -1.17152 0
M  V30 3869 H 407.375 -0.247165 -0.704925 0
M  V30 3870 H 410.037 -1.26633 -1.48156 0
M  V30 3871 H 409.133 -0.943858 -2.97486 0
M  V30 3872 N 409.434 1.37368 -0.772513 0
M  V30 3873 C 410.85 1.53059 -0.452231 0
M  V30 3874 C 411.05 1.73065 1.03203 0
M  V30 3875 O 410.106 1.75245 1.81784 0
M  V30 3876 C 411.419 2.72659 -1.26797 0
M  V30 3877 C 412.967 2.86521 -1.25995 0
M  V30 3878 C 413.442 4.09105 -2.05905 0
M  V30 3879 N 414.933 4.16219 -2.03263 0
M  V30 3880 C 415.668 5.10107 -2.61875 0
M  V30 3881 N 415.164 6.09547 -3.29278 0
M  V30 3882 N 416.957 5.02596 -2.51701 0
M  V30 3883 H 409.108 1.22634 -1.7342 0
M  V30 3884 H 411.371 0.597206 -0.736239 0
M  V30 3885 H 411.077 2.64343 -2.31982 0
M  V30 3886 H 410.951 3.66363 -0.897672 0
M  V30 3887 H 413.338 2.94308 -0.216081 0
M  V30 3888 H 413.419 1.93774 -1.66989 0
M  V30 3889 H 413.063 4.0208 -3.10313 0
M  V30 3890 H 412.993 5.00968 -1.62292 0
M  V30 3891 H 415.484 3.45012 -1.54192 0
M  V30 3892 H 415.797 6.77718 -3.71374 0
M  V30 3893 H 414.142 6.09824 -3.33377 0
M  V30 3894 H 417.333 4.23855 -1.98657 0
M  V30 3895 H 417.506 5.75582 -2.97673 0
M  V30 3896 N 410.912 0.523116 1.48665 0
M  V30 3897 C 412.152 -0.0115588 2.04397 0
M  V30 3898 C 412.516 -1.32225 1.39214 0
M  V30 3899 O 413.717 -1.94253 1.85793 0
M  V30 3900 C 411.988 -0.138119 3.57133 0
M  V30 3901 S 413.547 -0.623849 4.34343 0
M  V30 3902 H 410.365 0.00877706 0.710946 0
M  V30 3903 H 412.967 0.702116 1.82457 0
M  V30 3904 H 411.671 0.820748 4.02109 0
M  V30 3905 H 411.202 -0.876377 3.83514 0
M  V30 3906 H 413.217 -1.8895 4.58816 0
M  V30 3907 N 412.39 -1.55475 0.257931 0
M  V30 3908 C 413.639 -1.98383 -0.364275 0
M  V30 3909 C 413.952 -1.14952 -1.58258 0
M  V30 3910 O 415.158 -1.47924 -2.27664 0
M  V30 3911 C 413.614 -3.53037 -0.699479 0
M  V30 3912 C 413.222 -4.45223 0.498046 0
M  V30 3913 C 414.966 -4.04575 -1.28526 0
M  V30 3914 C 412.873 -5.91238 0.138383 0
M  V30 3915 H 411.803 -0.740911 -0.13988 0
M  V30 3916 H 414.454 -1.79936 0.359883 0
M  V30 3917 H 412.836 -3.6722 -1.48207 0
M  V30 3918 H 414.01 -4.42803 1.27522 0
M  V30 3919 H 412.325 -4.04226 0.999503 0
M  V30 3920 H 414.922 -5.11196 -1.56788 0
M  V30 3921 H 415.265 -3.5258 -2.21344 0
M  V30 3922 H 415.798 -3.93762 -0.565337 0
M  V30 3923 H 412.537 -6.47294 1.03398 0
M  V30 3924 H 412.057 -5.96768 -0.602374 0
M  V30 3925 H 413.736 -6.46413 -0.27553 0
M  V30 3926 N 413.868 0.0150385 -1.57593 0
M  V30 3927 C 415.093 0.718067 -1.94573 0
M  V30 3928 C 415.518 1.6734 -0.859005 0
M  V30 3929 O 414.876 1.80362 0.184147 0
M  V30 3930 C 414.924 1.43918 -3.30636 0
M  V30 3931 O 414.028 2.55299 -3.23876 0
M  V30 3932 H 413.369 0.192125 -0.635597 0
M  V30 3933 H 415.899 -0.0336708 -2.04572 0
M  V30 3934 H 415.909 1.80598 -3.65853 0
M  V30 3935 H 414.584 0.738619 -4.09289 0
M  V30 3936 H 413.161 2.21058 -3.00312 0
M  V30 3937 N 415.346 1.54954 0.287554 0
M  V30 3938 C 416.595 1.74081 1.01877 0
M  V30 3939 C 416.908 0.541135 1.87966 0
M  V30 3940 O 418.114 0.614491 2.64455 0
M  V30 3941 C 416.57 3.08042 1.86113 0
M  V30 3942 C 416.178 4.35531 1.04961 0
M  V30 3943 C 417.922 3.36523 2.58752 0
M  V30 3944 C 415.829 5.60538 1.88551 0
M  V30 3945 H 414.759 0.64884 0.384087 0
M  V30 3946 H 417.41 1.81426 0.275101 0
M  V30 3947 H 415.792 2.94696 2.64519 0
M  V30 3948 H 416.966 4.59751 0.31074 0
M  V30 3949 H 415.281 4.14085 0.43843 0
M  V30 3950 H 417.878 4.27122 3.21668 0
M  V30 3951 H 418.221 2.56 3.28283 0
M  V30 3952 H 418.754 3.50901 1.87386 0
M  V30 3953 H 415.493 6.43767 1.23466 0
M  V30 3954 H 415.013 5.40483 2.60074 0
M  V30 3955 H 416.692 5.98297 2.46273 0
M  V30 3956 N 416.824 -0.551391 1.4764 0
M  V30 3957 C 418.054 -1.33163 1.57959 0
M  V30 3958 C 418.462 -1.87785 0.23094 0
M  V30 3959 O 417.805 -1.65996 -0.786825 0
M  V30 3960 C 417.867 -2.53449 2.54958 0
M  V30 3961 C 417.531 -2.20071 4.00522 0
M  V30 3962 C 418.528 -1.77017 4.88836 0
M  V30 3963 C 416.213 -2.31252 4.45901 0
M  V30 3964 C 418.207 -1.4558 6.20552 0
M  V30 3965 C 415.894 -1.99427 5.77644 0
M  V30 3966 C 416.892 -1.56659 6.64791 0
M  V30 3967 O 416.58 -1.25242 7.94084 0
M  V30 3968 H 416.312 -0.412022 0.535923 0
M  V30 3969 H 418.866 -0.674186 1.9402 0
M  V30 3970 H 417.096 -3.22104 2.13976 0
M  V30 3971 H 418.785 -3.15523 2.55343 0
M  V30 3972 H 419.551 -1.67867 4.55023 0
M  V30 3973 H 415.43 -2.63498 3.78272 0
M  V30 3974 H 418.974 -1.12125 6.8853 0
M  V30 3975 H 414.871 -2.08211 6.10998 0
M  V30 3976 H 415.639 -1.38822 8.06642 0
M  V30 3977 N 418.302 -1.35869 -0.798587 0
M  V30 3978 C 419.249 -1.29446 -1.91082 0
M  V30 3979 C 420.219 -0.16487 -1.6528 0
M  V30 3980 O 421.404 -0.349888 -1.87564 0
M  V30 3981 C 418.544 -1.0804 -3.27752 0
M  V30 3982 C 417.657 -2.29993 -3.65687 0
M  V30 3983 C 416.792 -2.01673 -4.91428 0
M  V30 3984 C 415.831 -3.19636 -5.22015 0
M  V30 3985 N 414.968 -2.91039 -6.38937 0
M  V30 3986 H 419.808 -2.24553 -1.95907 0
M  V30 3987 H 417.345 -1.11615 -0.958148 0
M  V30 3988 H 419.303 -0.936586 -4.06551 0
M  V30 3989 H 417.933 -0.16592 -3.22373 0
M  V30 3990 H 416.985 -2.55211 -2.82085 0
M  V30 3991 H 418.297 -3.18052 -3.84245 0
M  V30 3992 H 417.451 -1.84168 -5.78072 0
M  V30 3993 H 416.19 -1.10911 -4.74921 0
M  V30 3994 H 415.195 -3.37709 -4.33858 0
M  V30 3995 H 416.42 -4.11211 -5.40447 0
M  V30 3996 H 414.366 -2.0288 -6.2384 0
M  V30 3997 H 414.283 -3.72635 -6.57784 0
M  V30 3998 H 415.551 -2.77093 -7.28587 0
M  V30 3999 N 419.78 1.02168 -1.19998 0
M  V30 4000 C 421.026 1.75945 -1.00852 0
M  V30 4001 C 421.359 1.88702 0.458828 0
M  V30 4002 O 420.634 1.40911 1.34069 0
M  V30 4003 C 420.917 3.18154 -1.68671 0
M  V30 4004 C 420.77 3.13224 -3.22817 0
M  V30 4005 C 422.089 4.16711 -1.41561 0
M  V30 4006 H 419.208 0.638673 -0.367785 0
M  V30 4007 H 421.85 1.19222 -1.4794 0
M  V30 4008 H 420 3.66586 -1.28636 0
M  V30 4009 H 421.672 2.72635 -3.72112 0
M  V30 4010 H 419.915 2.50751 -3.53986 0
M  V30 4011 H 420.586 4.13728 -3.65422 0
M  V30 4012 H 423.062 3.76913 -1.76284 0
M  V30 4013 H 421.938 5.14391 -1.91553 0
M  V30 4014 H 422.199 4.40774 -0.342193 0
M  V30 4015 N 421.258 1.00505 1.21394 0
M  V30 4016 C 422.498 0.696149 1.9218 0
M  V30 4017 C 422.862 -0.759099 1.76357 0
M  V30 4018 O 424.063 -1.17998 2.41516 0
M  V30 4019 C 422.334 1.10571 3.39866 0
M  V30 4020 S 423.893 0.91702 4.29111 0
M  V30 4021 H 420.711 0.254147 0.664026 0
M  V30 4022 H 423.313 1.28988 1.46909 0
M  V30 4023 H 422.017 2.16096 3.489 0
M  V30 4024 H 421.548 0.504268 3.90155 0
M  V30 4025 H 423.563 -0.185855 4.95852 0
M  V30 4026 N 422.737 -1.36956 0.779787 0
M  V30 4027 C 424.014 -1.93697 0.272156 0
M  V30 4028 C 424.394 -1.71267 -1.23413 0
M  V30 4029 O 423.742 -1.06607 -2.02107 0
M  V30 4030 C 423.952 -3.42812 0.654291 0
M  V30 4031 C 425.3 -4.19921 0.628602 0
M  V30 4032 O 426.324 -3.51209 0.594172 0
M  V30 4033 O 425.183 -5.42465 0.662864 0
M  V30 4034 H 422.277 -0.824447 0.0649286 0
M  V30 4035 H 424.823 -1.46196 0.861682 0
M  V30 4036 H 423.595 -3.52754 1.69353 0
M  V30 4037 H 423.218 -3.97582 0.0381369 0
M  V30 4038 N 424.215 -0.530993 -1.48385 0
M  V30 4039 C 425.463 0.00273189 -2.021 0
M  V30 4040 C 425.784 1.34672 -1.41027 0
M  V30 4041 O 425.054 1.8724 -0.576012 0
M  V30 4042 H 423.634 0.00399774 -0.746989 0
M  V30 4043 H 426.296 -0.695054 -1.82085 0
M  V30 4044 H 425.392 0.11031 -3.11905 0
M  V30 4045 N 425.693 1.55336 -0.266172 0
M  V30 4046 C 426.942 1.98574 0.353749 0
M  V30 4047 C 427.255 1.15789 1.57646 0
M  V30 4048 O 428.461 1.49129 2.26876 0
M  V30 4049 C 426.917 3.53403 0.680747 0
M  V30 4050 C 426.525 4.44953 -0.52165 0
M  V30 4051 C 428.269 4.05251 1.26379 0
M  V30 4052 C 426.176 5.91156 -0.169736 0
M  V30 4053 H 425.106 0.741643 0.135949 0
M  V30 4054 H 427.757 1.79743 -0.369421 0
M  V30 4055 H 426.139 3.68001 1.46257 0
M  V30 4056 H 427.313 4.42121 -1.29869 0
M  V30 4057 H 425.628 4.03691 -1.02093 0
M  V30 4058 H 428.225 5.12021 1.54074 0
M  V30 4059 H 428.568 3.53749 2.19471 0
M  V30 4060 H 429.101 3.94057 0.544447 0
M  V30 4061 H 425.84 6.46736 -1.0683 0
M  V30 4062 H 425.36 5.97079 0.570717 0
M  V30 4063 H 427.039 6.4655 0.241245 0
M  V30 4064 N 427.171 -0.0066808 1.57599 0
M  V30 4065 C 428.101 -0.999296 2.11036 0
M  V30 4066 C 429.082 -1.36278 1.01795 0
M  V30 4067 O 430.267 -1.4477 1.29442 0
M  V30 4068 C 427.397 -2.29328 2.60818 0
M  V30 4069 C 426.351 -2.07159 3.74525 0
M  V30 4070 C 425.677 -3.42512 4.10596 0
M  V30 4071 C 426.977 -1.43959 5.02069 0
M  V30 4072 H 428.671 -0.554382 2.94223 0
M  V30 4073 H 426.217 -0.265221 1.41536 0
M  V30 4074 H 428.17 -2.99117 2.96828 0
M  V30 4075 H 426.894 -2.7592 1.74745 0
M  V30 4076 H 425.553 -1.39797 3.38899 0
M  V30 4077 H 425.201 -3.86795 3.21556 0
M  V30 4078 H 424.901 -3.28498 4.87199 0
M  V30 4079 H 426.425 -4.13628 4.4916 0
M  V30 4080 H 427.839 -2.03696 5.35893 0
M  V30 4081 H 426.236 -1.40452 5.83432 0
M  V30 4082 H 427.306 -0.407992 4.83181 0
M  V30 4083 N 428.649 -1.55105 -0.279332 0
M  V30 4084 C 429.926 -1.66119 -1.03267 0
M  V30 4085 C 430.306 -0.523525 -2.04505 0
M  V30 4086 O 429.654 0.477194 -2.23462 0
M  V30 4087 C 429.864 -3.05067 -1.69515 0
M  V30 4088 C 431.212 -3.62606 -2.20912 0
M  V30 4089 O 432.236 -3.07659 -1.79512 0
M  V30 4090 O 431.095 -4.58861 -2.96831 0
M  V30 4091 H 428.189 -0.674429 -0.478618 0
M  V30 4092 H 430.735 -1.67446 -0.275694 0
M  V30 4093 H 429.507 -3.79311 -0.9612 0
M  V30 4094 H 429.13 -3.07611 -2.51915 0
M  V30 4095 N 430.127 0.543554 -1.4793 0
M  V30 4096 C 431.367 1.31072 -1.56843 0
M  V30 4097 C 431.731 1.90604 -0.231124 0
M  V30 4098 O 432.932 2.68091 -0.195165 0
M  V30 4099 C 431.203 2.38106 -2.66533 0
M  V30 4100 S 432.762 3.24729 -2.95122 0
M  V30 4101 H 429.58 0.446035 -0.553691 0
M  V30 4102 H 432.182 0.620777 -1.85382 0
M  V30 4103 H 430.886 1.92828 -3.62278 0
M  V30 4104 H 430.417 3.11824 -2.39852 0
M  V30 4105 H 432.432 4.37891 -2.3338 0
M  V30 4106 N 431.605 1.3629 0.791371 0
M  V30 4107 C 433.016 1.27225 1.36641 0
M  V30 4108 C 433.367 -0.0887968 1.95999 0
M  V30 4109 O 432.492 -0.990207 1.92416 0
M  V30 4110 C 433.087 2.30375 2.48421 0
M  V30 4111 C 431.646 2.25004 3.01746 0
M  V30 4112 C 430.793 2.15259 1.7481 0
M  V30 4113 H 433.744 1.47198 0.593173 0
M  V30 4114 H 433.765 1.93905 3.27385 0
M  V30 4115 H 433.277 3.29422 2.05189 0
M  V30 4116 H 431.378 1.29417 3.49403 0
M  V30 4117 H 431.491 3.1761 3.58693 0
M  V30 4118 H 429.855 1.61482 1.96966 0
M  V30 4119 H 430.638 3.16191 1.33709 0
M  V30 4120 N 433.083 -1.0153 1.20538 0
M  V30 4121 C 434.331 -1.74803 1.01432 0
M  V30 4122 C 434.652 -1.8963 -0.454456 0
M  V30 4123 O 433.922 -1.43975 -1.32846 0
M  V30 4124 H 432.502 -0.647598 0.372324 0
M  V30 4125 H 435.164 -1.22402 1.5167 0
M  V30 4126 H 434.26 -2.75114 1.47373 0
M  V30 4127 N 434.561 -1.01147 -1.20859 0
M  V30 4128 C 435.977 -0.725422 -1.42161 0
M  V30 4129 C 436.177 0.696919 -1.89064 0
M  V30 4130 O 435.233 1.46539 -2.05627 0
M  V30 4131 C 436.546 -1.74678 -2.44761 0
M  V30 4132 C 438.094 -1.76433 -2.58535 0
M  V30 4133 C 438.569 -2.77481 -3.64374 0
M  V30 4134 N 440.06 -2.76189 -3.71852 0
M  V30 4135 C 440.795 -3.51035 -4.53389 0
M  V30 4136 N 440.291 -4.35541 -5.38773 0
M  V30 4137 N 442.084 -3.39655 -4.47873 0
M  V30 4138 H 434.235 -1.92979 -0.887282 0
M  V30 4139 H 436.498 -0.833327 -0.451962 0
M  V30 4140 H 436.204 -2.76551 -2.17285 0
M  V30 4141 H 436.078 -1.55472 -3.43669 0
M  V30 4142 H 438.465 -0.75248 -2.85345 0
M  V30 4143 H 438.546 -1.99712 -1.5984 0
M  V30 4144 H 438.19 -3.78827 -3.38308 0
M  V30 4145 H 438.12 -2.51466 -4.6268 0
M  V30 4146 H 440.611 -2.14885 -3.10858 0
M  V30 4147 H 440.924 -4.89432 -5.98061 0
M  V30 4148 H 439.269 -4.39621 -5.38292 0
M  V30 4149 H 442.46 -2.73063 -3.80203 0
M  V30 4150 H 442.633 -3.9824 -5.11184 0
M  V30 4151 N 436.039 1.36541 -0.78704 0
M  V30 4152 C 436.949 2.3387 -0.184896 0
M  V30 4153 C 437.965 1.60927 0.661697 0
M  V30 4154 O 439.141 1.92927 0.57804 0
M  V30 4155 C 436.206 3.40122 0.672145 0
M  V30 4156 C 435.267 4.28867 -0.19267 0
M  V30 4157 C 434.5 5.30045 0.623561 0
M  V30 4158 O 434.723 5.39232 1.8597 0
M  V30 4159 O 433.657 6.01895 0.0247068 0
M  V30 4160 H 437.483 2.87126 -0.989562 0
M  V30 4161 H 435.068 1.38969 -0.548455 0
M  V30 4162 H 436.95 4.05093 1.16094 0
M  V30 4163 H 435.625 2.89169 1.45474 0
M  V30 4164 H 434.532 3.66945 -0.728166 0
M  V30 4165 H 435.865 4.83165 -0.938722 0
M  V30 4166 N 437.518 0.538854 1.48102 0
M  V30 4167 C 438.795 -0.0568108 1.95517 0
M  V30 4168 C 439.175 -1.50408 1.48124 0
M  V30 4169 O 438.523 -2.17133 0.711727 0
M  V30 4170 C 438.733 0.0696262 3.48931 0
M  V30 4171 C 440.081 -0.0851202 4.24515 0
M  V30 4172 O 441.105 -0.0037347 3.562 0
M  V30 4173 O 439.964 -0.257025 5.45895 0
M  V30 4174 H 437.058 -0.0743695 0.823649 0
M  V30 4175 H 439.604 0.604081 1.58584 0
M  V30 4176 H 438.376 1.07744 3.76174 0
M  V30 4177 H 437.999 -0.629714 3.92582 0
M  V30 4178 N 438.996 -1.55193 0.274407 0
M  V30 4179 C 439.906 -2.26164 -0.623473 0
M  V30 4180 C 440.922 -1.28729 -1.17068 0
M  V30 4181 O 442.098 -1.61663 -1.20112 0
M  V30 4182 C 439.163 -2.96833 -1.7914 0
M  V30 4183 C 438.224 -4.09745 -1.28093 0
M  V30 4184 C 437.457 -4.77034 -2.3932 0
M  V30 4185 O 437.68 -4.4353 -3.5866 0
M  V30 4186 O 436.614 -5.64996 -2.07516 0
M  V30 4187 H 440.44 -3.03661 -0.0485661 0
M  V30 4188 H 438.025 -1.49341 0.0418382 0
M  V30 4189 H 439.907 -3.41248 -2.4724 0
M  V30 4190 H 438.582 -2.22253 -2.35341 0
M  V30 4191 H 437.489 -3.69787 -0.566416 0
M  V30 4192 H 438.822 -4.86224 -0.764683 0
M  V30 4193 N 440.474 -0.00167713 -1.576 0
M  V30 4194 C 441.422 1.0074 -2.09652 0
M  V30 4195 C 442.416 1.35483 -1.01689 0
M  V30 4196 O 443.622 1.34028 -1.20152 0
M  V30 4197 H 439.997 0.342537 -0.669457 0
M  V30 4198 H 441.968 0.542841 -2.93421 0
M  V30 4199 C 440.717 2.2899 -2.61647 0
M  V30 4200 H 440.04 2.03124 -3.44355 0
M  V30 4201 H 441.48 2.9787 -3.01744 0
M  V30 4202 C 439.939 3.00085 -1.53136 0
M  V30 4203 O 440.469 3.91135 -0.91524 0
M  V30 4204 N 438.675 2.6194 -1.25841 0
M  V30 4205 H 438.222 1.8798 -1.76129 0
M  V30 4206 H 438.18 3.09822 -0.534576 0
M  V30 4207 N 441.952 1.55251 0.271103 0
M  V30 4208 C 442.9 1.89054 1.35504 0
M  V30 4209 C 443.894 0.767064 1.51038 0
M  V30 4210 O 445.1 0.951429 1.528 0
M  V30 4211 H 441.475 0.600072 0.45323 0
M  V30 4212 H 443.446 2.79598 1.04247 0
M  V30 4213 C 442.195 2.18068 2.70817 0
M  V30 4214 H 441.518 3.04005 2.59656 0
M  V30 4215 H 442.958 2.4564 3.45597 0
M  V30 4216 C 441.417 0.988901 3.2206 0
M  V30 4217 O 441.947 0.224501 4.01072 0
M  V30 4218 N 440.153 0.786085 2.79766 0
M  V30 4219 H 439.7 1.40937 2.15626 0
M  V30 4220 H 439.658 -0.00969349 3.14399 0
M  V30 4221 N 443.43 -0.535701 1.48216 0
M  V30 4222 C 444.658 -1.31671 1.59594 0
M  V30 4223 C 445.073 -1.87083 0.254056 0
M  V30 4224 O 444.43 -1.66112 -0.755854 0
M  V30 4225 C 444.481 -2.47158 2.63809 0
M  V30 4226 O 444.202 -1.94032 3.92789 0
M  V30 4227 C 445.703 -3.39062 2.85573 0
M  V30 4228 H 442.923 -0.400623 0.538277 0
M  V30 4229 H 445.467 -0.646827 1.94001 0
M  V30 4230 H 443.622 -3.10043 2.32276 0
M  V30 4231 H 444.036 -2.69585 4.49916 0
M  V30 4232 H 445.51 -4.16459 3.62306 0
M  V30 4233 H 445.987 -3.93941 1.94184 0
M  V30 4234 H 446.593 -2.81975 3.18387 0
M  V30 4235 N 444.908 -1.36708 -0.784132 0
M  V30 4236 C 446.133 -1.34565 -1.5782 0
M  V30 4237 C 446.558 0.0695257 -1.87971 0
M  V30 4238 O 445.916 1.04302 -1.48293 0
M  V30 4239 C 445.964 -2.17952 -2.87279 0
M  V30 4240 O 445.068 -1.57563 -3.81114 0
M  V30 4241 H 444.409 -0.460337 -0.478524 0
M  V30 4242 H 446.939 -1.80064 -0.971495 0
M  V30 4243 H 446.949 -2.30721 -3.365 0
M  V30 4244 H 445.624 -3.20823 -2.64661 0
M  V30 4245 H 444.201 -1.53764 -3.39722 0
M  V30 4246 N 446.386 1.0089 -1.21074 0
M  V30 4247 C 447.614 1.78191 -1.05145 0
M  V30 4248 C 448.029 1.84537 0.398952 0
M  V30 4249 O 447.386 1.30393 1.27687 0
M  V30 4250 C 447.437 3.22288 -1.63746 0
M  V30 4251 O 447.158 3.16315 -3.03111 0
M  V30 4252 C 448.659 4.16106 -1.52875 0
M  V30 4253 H 445.879 0.560129 -0.369454 0
M  V30 4254 H 448.423 1.26945 -1.60328 0
M  V30 4255 H 446.578 3.70655 -1.12664 0
M  V30 4256 H 446.992 4.06817 -3.31059 0
M  V30 4257 H 448.466 5.15026 -1.98626 0
M  V30 4258 H 448.943 4.36541 -0.482521 0
M  V30 4259 H 449.549 3.73625 -2.03185 0
M  V30 4260 N 447.864 1.01787 1.20321 0
M  V30 4261 C 449.112 0.706538 1.89347 0
M  V30 4262 C 449.433 -0.766289 1.79313 0
M  V30 4263 O 448.703 -1.55126 1.19635 0
M  V30 4264 H 447.283 0.258348 0.700903 0
M  V30 4265 H 449.945 1.28974 1.46122 0
M  V30 4266 H 449.041 0.991066 2.95946 0
M  V30 4267 N 449.342 -1.36122 0.79427 0
M  V30 4268 C 450.289 -2.29982 0.194101 0
M  V30 4269 C 451.259 -1.52214 -0.664833 0
M  V30 4270 O 452.444 -1.80702 -0.612498 0
M  V30 4271 C 449.584 -3.38706 -0.661244 0
M  V30 4272 C 448.697 -4.31456 0.216766 0
M  V30 4273 C 447.832 -5.27265 -0.645411 0
M  V30 4274 C 446.871 -6.11653 0.233756 0
M  V30 4275 N 446.008 -6.99636 -0.587682 0
M  V30 4276 H 450.848 -2.80722 0.999965 0
M  V30 4277 H 448.385 -1.38172 0.504677 0
M  V30 4278 H 450.343 -4.00394 -1.17219 0
M  V30 4279 H 448.973 -2.89274 -1.43249 0
M  V30 4280 H 448.025 -3.7088 0.845724 0
M  V30 4281 H 449.337 -4.90724 0.893973 0
M  V30 4282 H 448.491 -5.94266 -1.22198 0
M  V30 4283 H 447.23 -4.68463 -1.35623 0
M  V30 4284 H 446.235 -5.4361 0.82269 0
M  V30 4285 H 447.46 -6.72531 0.942247 0
M  V30 4286 H 445.406 -6.43337 -1.2827 0
M  V30 4287 H 445.323 -7.55993 0.0317402 0
M  V30 4288 H 446.591 -7.71001 -1.14792 0
M  V30 4289 N 450.82 -0.546701 -1.47814 0
M  V30 4290 C 452.05 -0.0232519 -2.06587 0
M  V30 4291 C 452.458 1.2712 -1.40133 0
M  V30 4292 O 451.801 1.77091 -0.488305 0
M  V30 4293 C 451.863 0.254117 -3.58601 0
M  V30 4294 C 451.527 -0.949331 -4.47031 0
M  V30 4295 C 452.524 -1.85216 -4.85789 0
M  V30 4296 C 450.209 -1.16104 -4.88697 0
M  V30 4297 C 452.203 -2.95047 -5.65001 0
M  V30 4298 C 449.89 -2.26247 -5.67676 0
M  V30 4299 C 450.888 -3.1555 -6.05737 0
M  V30 4300 O 450.576 -4.23784 -6.83127 0
M  V30 4301 H 450.308 -0.0380082 -0.674931 0
M  V30 4302 H 452.862 -0.756631 -1.90956 0
M  V30 4303 H 451.092 1.04168 -3.72406 0
M  V30 4304 H 452.781 0.72167 -3.99433 0
M  V30 4305 H 453.547 -1.70061 -4.54207 0
M  V30 4306 H 449.426 -0.475159 -4.58545 0
M  V30 4307 H 452.97 -3.64778 -5.94628 0
M  V30 4308 H 448.867 -2.41379 -5.98671 0
M  V30 4309 H 449.635 -4.21701 -7.01506 0
M  V30 4310 N 452.299 1.55045 -0.282633 0
M  V30 4311 C 453.539 2.01668 0.333088 0
M  V30 4312 C 453.903 1.1667 1.52486 0
M  V30 4313 O 455.104 1.52907 2.21072 0
M  V30 4314 C 453.375 3.50509 0.698442 0
M  V30 4315 S 454.934 4.19112 1.29963 0
M  V30 4316 H 451.752 0.703468 0.103219 0
M  V30 4317 H 454.354 1.91233 -0.406222 0
M  V30 4318 H 453.058 4.10015 -0.177693 0
M  V30 4319 H 452.589 3.64943 1.46902 0
M  V30 4320 H 454.604 4.23362 2.58803 0
M  V30 4321 N 453.777 0.010035 1.57597 0
M  V30 4322 C 455.002 -0.687021 1.95691 0
M  V30 4323 C 455.427 -1.65952 0.885519 0
M  V30 4324 O 454.785 -1.80633 -0.15543 0
M  V30 4325 C 454.833 -1.3864 3.32884 0
M  V30 4326 O 453.937 -2.50115 3.27897 0
M  V30 4327 H 453.278 -0.181989 0.638573 0
M  V30 4328 H 455.808 0.0662122 2.04493 0
M  V30 4329 H 455.818 -1.74754 3.6868 0
M  V30 4330 H 454.493 -0.673411 4.10412 0
M  V30 4331 H 453.07 -2.16253 3.03791 0
M  V30 4332 N 455.255 -1.55392 -0.262866 0
M  V30 4333 C 456.188 -1.8391 -1.35101 0
M  V30 4334 C 457.166 -0.692901 -1.47097 0
M  V30 4335 O 458.35 -0.936979 -1.63563 0
M  V30 4336 C 455.477 -2.00969 -2.72634 0
M  V30 4337 C 454.523 -3.23559 -2.7787 0
M  V30 4338 S 455.356 -4.80647 -2.3609 0
M  V30 4339 C 456.512 -5.00692 -3.75578 0
M  V30 4340 H 456.745 -2.75918 -1.1071 0
M  V30 4341 H 454.278 -1.47294 -0.463029 0
M  V30 4342 H 456.236 -2.11482 -3.51832 0
M  V30 4343 H 454.897 -1.09832 -2.94272 0
M  V30 4344 H 454.09 -3.32413 -3.78837 0
M  V30 4345 H 453.692 -3.11689 -2.06702 0
M  V30 4346 H 455.984 -4.87055 -4.70939 0
M  V30 4347 H 456.927 -6.02717 -3.71669 0
M  V30 4348 H 457.335 -4.28619 -3.6735 0
M  V30 4349 N 456.733 0.527833 -1.48498 0
M  V30 4350 C 457.961 1.30823 -1.6029 0
M  V30 4351 C 458.376 1.86945 -0.263974 0
M  V30 4352 O 457.733 1.6651 0.747034 0
M  V30 4353 C 457.784 2.45756 -2.65116 0
M  V30 4354 O 457.505 1.91946 -3.93813 0
M  V30 4355 C 459.006 3.37543 -2.87367 0
M  V30 4356 H 456.226 0.397763 -0.540394 0
M  V30 4357 H 458.77 0.636529 -1.94341 0
M  V30 4358 H 456.925 3.08806 -2.33917 0
M  V30 4359 H 457.339 2.67195 -4.51339 0
M  V30 4360 H 458.813 4.14532 -3.6451 0
M  V30 4361 H 459.29 3.92905 -1.9627 0
M  V30 4362 H 459.896 2.80283 -3.19878 0
M  V30 4363 N 458.211 1.37122 0.776871 0
M  V30 4364 C 459.141 1.35164 1.90402 0
M  V30 4365 C 460.122 0.221069 1.68657 0
M  V30 4366 O 461.307 0.420642 1.8959 0
M  V30 4367 C 458.437 1.15274 3.27611 0
M  V30 4368 C 457.391 2.25289 3.63908 0
M  V30 4369 C 456.717 1.90527 4.99603 0
M  V30 4370 C 458.017 3.67446 3.71188 0
M  V30 4371 H 459.711 2.29482 1.92297 0
M  V30 4372 H 457.257 1.10465 0.923773 0
M  V30 4373 H 459.21 1.12536 4.06096 0
M  V30 4374 H 457.934 0.174102 3.26136 0
M  V30 4375 H 456.593 2.27174 2.87728 0
M  V30 4376 H 456.241 0.91206 4.94662 0
M  V30 4377 H 455.941 2.64193 5.24858 0
M  V30 4378 H 457.465 1.89367 5.80493 0
M  V30 4379 H 458.879 3.67719 4.39836 0
M  V30 4380 H 457.276 4.40123 4.07936 0
M  V30 4381 H 458.346 4.01443 2.71977 0
M  V30 4382 N 459.689 -1.00246 1.21608 0
M  V30 4383 C 460.929 -1.75589 1.04631 0
M  V30 4384 C 461.293 -1.87513 -0.412648 0
M  V30 4385 O 462.494 -2.59444 -0.703003 0
M  V30 4386 C 460.765 -3.12893 1.72722 0
M  V30 4387 S 462.324 -4.04095 1.71034 0
M  V30 4388 H 459.142 -0.604133 0.374892 0
M  V30 4389 H 461.744 -1.19927 1.54395 0
M  V30 4390 H 460.448 -3.0185 2.78055 0
M  V30 4391 H 459.979 -3.73628 1.23149 0
M  V30 4392 H 461.994 -4.9045 0.753231 0
M  V30 4393 N 461.167 -1.02423 -1.1978 0
M  V30 4394 C 462.392 -0.7373 -1.93852 0
M  V30 4395 C 462.817 0.696923 -1.74713 0
M  V30 4396 O 462.175 1.48056 -1.04638 0
M  V30 4397 C 462.223 -1.08783 -3.438 0
M  V30 4398 O 461.327 -0.20383 -4.11896 0
M  V30 4399 H 460.668 -0.27284 -0.605355 0
M  V30 4400 H 463.198 -1.36966 -1.51992 0
M  V30 4401 H 463.208 -1.04276 -3.9445 0
M  V30 4402 H 461.883 -2.13274 -3.57053 0
M  V30 4403 H 460.46 -0.307091 -3.71633 0
M  V30 4404 N 462.645 1.35699 -0.801477 0
M  V30 4405 C 463.608 2.28199 -0.213994 0
M  V30 4406 C 464.608 1.49359 0.595691 0
M  V30 4407 O 465.798 1.69186 0.414921 0
M  V30 4408 C 462.93 3.33587 0.702297 0
M  V30 4409 H 464.123 2.81666 -1.02976 0
M  V30 4410 H 461.676 1.45467 -0.571759 0
M  V30 4411 H 462.411 2.85297 1.54195 0
M  V30 4412 H 462.196 3.91906 0.123484 0
M  V30 4413 H 463.686 4.02638 1.10783 0
M  V30 4414 N 464.123 0.554532 1.47522 0
M  V30 4415 C 465.053 -0.182974 2.32782 0
M  V30 4416 C 466.034 -0.911377 1.43624 0
M  V30 4417 O 467.219 -0.892366 1.72483 0
M  V30 4418 C 464.349 -1.21513 3.25349 0
M  V30 4419 C 463.303 -0.603355 4.23726 0
M  V30 4420 C 462.629 -1.73995 5.05598 0
M  V30 4421 C 463.929 0.441121 5.20434 0
M  V30 4422 H 465.623 0.52882 2.94693 0
M  V30 4423 H 463.169 0.255759 1.41711 0
M  V30 4424 H 465.122 -1.73922 3.83835 0
M  V30 4425 H 463.846 -1.95683 2.61487 0
M  V30 4426 H 462.505 -0.10059 3.66462 0
M  V30 4427 H 462.153 -2.47063 4.38143 0
M  V30 4428 H 461.853 -1.3364 5.72201 0
M  V30 4429 H 463.377 -2.26735 5.66942 0
M  V30 4430 H 464.791 0.00319931 5.733 0
M  V30 4431 H 463.188 0.763402 5.95224 0
M  V30 4432 H 464.258 1.33799 4.66075 0
M  V30 4433 N 465.601 -1.54893 0.290851 0
M  V30 4434 C 466.549 -2.24579 -0.605576 0
M  V30 4435 C 467.543 -1.24824 -1.14522 0
M  V30 4436 O 468.749 -1.42706 -1.09704 0
M  V30 4437 H 465.124 -0.720946 -0.213872 0
M  V30 4438 H 467.095 -2.984 0.0048173 0
M  V30 4439 C 465.844 -2.99224 -1.77088 0
M  V30 4440 H 465.167 -3.75782 -1.36484 0
M  V30 4441 H 466.607 -3.51281 -2.3744 0
M  V30 4442 C 465.066 -2.05602 -2.66888 0
M  V30 4443 O 465.596 -1.61745 -3.67698 0
M  V30 4444 N 463.802 -1.71771 -2.34399 0
M  V30 4445 H 463.349 -2.07633 -1.52468 0
M  V30 4446 H 463.307 -1.09403 -2.94751 0
M  V30 4447 N 467.08 -0.0183926 -1.57589 0
M  V30 4448 C 468.32 0.666846 -1.93216 0
M  V30 4449 C 468.684 1.69905 -0.894215 0
M  V30 4450 O 469.885 2.436 -1.13633 0
M  V30 4451 C 468.156 1.27684 -3.33814 0
M  V30 4452 S 469.715 1.98464 -3.91353 0
M  V30 4453 H 466.533 0.219826 -0.676164 0
M  V30 4454 H 469.135 -0.0794893 -1.95338 0
M  V30 4455 H 467.839 0.513006 -4.07181 0
M  V30 4456 H 467.37 2.06071 -3.3511 0
M  V30 4457 H 469.385 3.26189 -3.73918 0
M  V30 4458 N 468.558 1.5553 0.254621 0
M  V30 4459 C 469.49 1.86104 1.33783 0
M  V30 4460 C 470.503 0.746752 1.44663 0
M  V30 4461 O 471.692 1.0248 1.46151 0
M  V30 4462 C 468.792 2.02532 2.71724 0
M  V30 4463 C 467.965 3.33335 2.83208 0
M  V30 4464 C 467.024 3.396 4.01943 0
M  V30 4465 O 466.05 4.12862 3.91834 0
M  V30 4466 N 467.252 2.68332 5.1476 0
M  V30 4467 H 470.017 2.79605 1.07893 0
M  V30 4468 H 467.578 1.55672 0.444732 0
M  V30 4469 H 469.57 2.04074 3.4948 0
M  V30 4470 H 468.14 1.15811 2.90356 0
M  V30 4471 H 467.36 3.44176 1.92189 0
M  V30 4472 H 468.648 4.19565 2.87824 0
M  V30 4473 H 468.046 2.08528 5.25864 0
M  V30 4474 H 466.603 2.75575 5.90679 0
M  V30 4475 N 470.036 -0.519951 1.48776 0
M  V30 4476 C 471.266 -1.29783 1.60748 0
M  V30 4477 C 471.674 -1.87253 0.27072 0
M  V30 4478 O 471.017 -1.67628 -0.751438 0
M  V30 4479 C 471.079 -2.47984 2.60277 0
M  V30 4480 C 470.743 -2.11526 4.051 0
M  V30 4481 C 471.74 -1.66608 4.92481 0
M  V30 4482 C 469.425 -2.21742 4.50706 0
M  V30 4483 C 471.419 -1.32384 6.23501 0
M  V30 4484 C 469.106 -1.87129 5.81744 0
M  V30 4485 C 470.104 -1.42523 6.67964 0
M  V30 4486 O 469.792 -1.0837 7.96562 0
M  V30 4487 H 469.524 -0.400562 0.544542 0
M  V30 4488 H 472.078 -0.632879 1.95407 0
M  V30 4489 H 470.308 -3.17493 2.2076 0
M  V30 4490 H 471.997 -3.10036 2.61978 0
M  V30 4491 H 472.763 -1.58178 4.58481 0
M  V30 4492 H 468.642 -2.55415 3.83776 0
M  V30 4493 H 472.186 -0.974949 6.90754 0
M  V30 4494 H 468.083 -1.95204 6.15277 0
M  V30 4495 H 468.851 -1.21681 8.09405 0
M  V30 4496 N 471.514 -1.37532 -0.769588 0
M  V30 4497 C 472.446 -1.29347 -1.89214 0
M  V30 4498 C 473.459 -0.208842 -1.61455 0
M  V30 4499 O 474.648 -0.465158 -1.72333 0
M  V30 4500 C 471.748 -0.977649 -3.24492 0
M  V30 4501 C 470.921 -2.16817 -3.7988 0
M  V30 4502 C 469.98 -1.82229 -4.93639 0
M  V30 4503 O 469.006 -2.54548 -5.09111 0
M  V30 4504 N 470.208 -0.767696 -5.75401 0
M  V30 4505 H 472.973 -2.26073 -1.96751 0
M  V30 4506 H 470.534 -1.31185 -0.948795 0
M  V30 4507 H 472.526 -0.727065 -3.98115 0
M  V30 4508 H 471.096 -0.0988777 -3.12444 0
M  V30 4509 H 470.316 -2.58038 -2.9801 0
M  V30 4510 H 471.604 -2.96308 -4.13617 0
M  V30 4511 H 471.002 -0.167626 -5.65452 0
M  V30 4512 H 469.559 -0.576973 -6.49241 0
M  V30 4513 N 472.992 0.995999 -1.22138 0
M  V30 4514 C 474.232 1.75032 -1.05561 0
M  V30 4515 C 474.596 1.87729 0.402698 0
M  V30 4516 O 475.797 2.59813 0.689234 0
M  V30 4517 C 474.068 3.11973 -1.74379 0
M  V30 4518 S 475.627 4.03182 -1.73175 0
M  V30 4519 H 472.445 0.602137 -0.37809 0
M  V30 4520 H 475.047 1.19107 -1.55028 0
M  V30 4521 H 473.751 3.00371 -2.79652 0
M  V30 4522 H 473.282 3.7297 -1.25128 0
M  V30 4523 H 475.297 4.90043 -0.77923 0
M  V30 4524 N 474.47 1.03057 1.19235 0
M  V30 4525 C 475.42 0.583386 2.2041 0
M  V30 4526 C 476.404 -0.368776 1.56617 0
M  V30 4527 O 477.596 -0.189471 1.75983 0
M  V30 4528 C 474.725 -0.0626534 3.43243 0
M  V30 4529 C 473.811 0.91205 4.14177 0
M  V30 4530 N 474.202 2.07514 4.61272 0
M  V30 4531 C 472.5 0.735859 4.39888 0
M  V30 4532 C 473.201 2.69003 5.15764 0
M  V30 4533 N 472.177 1.96954 5.06666 0
M  V30 4534 H 475.979 1.46988 2.54503 0
M  V30 4535 H 473.493 0.897785 1.35328 0
M  V30 4536 H 475.49 -0.400653 4.1497 0
M  V30 4537 H 474.15 -0.944813 3.1065 0
M  V30 4538 H 475.161 2.45448 4.56043 0
M  V30 4539 H 471.838 -0.0970656 4.17387 0
M  V30 4540 H 473.228 3.67514 5.6248 0
M  V30 4541 N 475.948 -1.35272 0.808662 0
M  V30 4542 C 476.858 -2.33546 0.222079 0
M  V30 4543 C 477.874 -1.6196 -0.636011 0
M  V30 4544 O 479.05 -1.93822 -0.547274 0
M  V30 4545 C 476.115 -3.41148 -0.61795 0
M  V30 4546 C 475.176 -4.28507 0.260875 0
M  V30 4547 C 474.409 -5.3097 -0.539156 0
M  V30 4548 O 474.632 -5.42123 -1.77367 0
M  V30 4549 O 473.566 -6.01858 0.0710526 0
M  V30 4550 H 477.392 -2.85515 1.03512 0
M  V30 4551 H 474.977 -1.38079 0.570495 0
M  V30 4552 H 476.859 -4.06889 -1.09634 0
M  V30 4553 H 475.534 -2.91447 -1.40855 0
M  V30 4554 H 474.441 -3.6574 0.786451 0
M  V30 4555 H 475.774 -4.81611 1.01547 0
M  V30 4556 N 477.426 -0.562348 -1.47226 0
M  V30 4557 C 478.654 -0.0452275 -2.06851 0
M  V30 4558 C 479.069 1.25078 -1.41424 0
M  V30 4559 O 478.426 1.75156 -0.512513 0
M  V30 4560 C 478.477 0.148674 -3.61194 0
M  V30 4561 O 478.198 -1.09602 -4.24169 0
M  V30 4562 C 479.699 0.702488 -4.37699 0
M  V30 4563 H 476.919 -0.0481775 -0.669268 0
M  V30 4564 H 479.463 -0.777223 -1.89155 0
M  V30 4565 H 477.618 0.830817 -3.78386 0
M  V30 4566 H 478.032 -0.896982 -5.16773 0
M  V30 4567 H 479.506 0.78743 -5.46355 0
M  V30 4568 H 479.983 1.71493 -4.04335 0
M  V30 4569 H 480.589 0.0558772 -4.25263 0
M  V30 4570 N 478.904 1.54736 -0.299062 0
M  V30 4571 C 480.315 1.8569 0.193971 0
M  V30 4572 C 480.666 1.22101 1.53577 0
M  V30 4573 O 479.791 0.51799 2.10109 0
M  V30 4574 C 480.386 3.36895 0.358733 0
M  V30 4575 C 478.945 3.67887 0.795986 0
M  V30 4576 C 478.092 2.77131 -0.096807 0
M  V30 4577 H 481.043 1.49934 -0.520134 0
M  V30 4578 H 481.064 3.61294 1.19361 0
M  V30 4579 H 480.576 3.83148 -0.617998 0
M  V30 4580 H 478.677 3.27151 1.78334 0
M  V30 4581 H 478.79 4.75114 0.616718 0
M  V30 4582 H 477.154 2.51153 0.423581 0
M  V30 4583 H 477.937 3.26204 -1.06986 0
M  V30 4584 N 480.382 0.0267497 1.57577 0
M  V30 4585 C 481.612 -0.6617 1.95717 0
M  V30 4586 C 482.02 -1.66331 0.901706 0
M  V30 4587 O 481.363 -1.83273 -0.125241 0
M  V30 4588 C 481.425 -1.42649 3.29987 0
M  V30 4589 C 481.089 -0.583482 4.5326 0
M  V30 4590 C 482.086 0.140221 5.19711 0
M  V30 4591 C 479.771 -0.521581 4.99585 0
M  V30 4592 C 481.765 0.914523 6.30805 0
M  V30 4593 C 479.452 0.256428 6.10562 0
M  V30 4594 C 480.45 0.973189 6.76031 0
M  V30 4595 O 480.138 1.73845 7.84878 0
M  V30 4596 H 479.87 -0.187483 0.649481 0
M  V30 4597 H 482.424 0.0820847 2.05236 0
M  V30 4598 H 480.654 -2.21536 3.16952 0
M  V30 4599 H 482.343 -2.00282 3.53047 0
M  V30 4600 H 483.109 0.101716 4.84893 0
M  V30 4601 H 478.988 -1.06904 4.48433 0
M  V30 4602 H 482.532 1.4745 6.81839 0
M  V30 4603 H 478.429 0.296657 6.44818 0
M  V30 4604 H 479.197 1.65797 8.01532 0
M  V30 4605 N 481.861 -1.55662 -0.24637 0
M  V30 4606 C 483.109 -1.77168 -0.972411 0
M  V30 4607 C 483.43 -0.590827 -1.85834 0
M  V30 4608 O 482.7 0.393365 -1.9191 0
M  V30 4609 H 481.28 -0.653405 -0.362038 0
M  V30 4610 H 483.942 -1.93101 -0.264189 0
M  V30 4611 H 483.038 -2.68335 -1.59382 0
M  V30 4612 N 483.339 0.512053 -1.4905 0
M  V30 4613 C 484.587 1.26436 -1.57665 0
M  V30 4614 C 484.908 1.93255 -0.260293 0
M  V30 4615 O 484.178 1.82206 0.719564 0
M  V30 4616 H 482.758 0.469658 -0.580888 0
M  V30 4617 H 485.42 0.594398 -1.85615 0
M  V30 4618 H 484.516 2.03417 -2.36702 0
M  V30 4619 N 484.817 1.37938 0.762283 0
M  V30 4620 C 485.78 1.34279 1.85747 0
M  V30 4621 C 486.78 0.244969 1.58923 0
M  V30 4622 O 487.97 0.501365 1.66829 0
M  V30 4623 C 485.102 1.08833 3.23061 0
M  V30 4624 H 486.295 2.31705 1.90401 0
M  V30 4625 H 483.848 1.23105 0.963057 0
M  V30 4626 H 484.583 0.119767 3.24079 0
M  V30 4627 H 484.368 1.88306 3.43923 0
M  V30 4628 H 485.858 1.08946 4.03138 0
M  V30 4629 N 486.295 -0.989507 1.22664 0
M  V30 4630 C 487.535 -1.7447 1.06488 0
M  V30 4631 C 487.899 -1.8794 -0.392737 0
M  V30 4632 O 489.1 -2.60175 -0.675446 0
M  V30 4633 C 487.371 -3.11043 1.76031 0
M  V30 4634 S 488.93 -4.02258 1.7531 0
M  V30 4635 H 485.748 -0.600123 0.381278 0
M  V30 4636 H 488.35 -1.18283 1.55658 0
M  V30 4637 H 487.054 -2.98884 2.81241 0
M  V30 4638 H 486.585 -3.72301 1.27105 0
M  V30 4639 H 488.6 -4.89623 0.805208 0
M  V30 4640 N 487.773 -1.03688 -1.18687 0
M  V30 4641 C 489.02 -0.73803 -1.88572 0
M  V30 4642 C 489.348 0.733973 -1.8012 0
M  V30 4643 O 488.603 1.55098 -1.19344 0
M  V30 4644 C 488.902 -1.14477 -3.3857 0
M  V30 4645 C 488.568 -2.61641 -3.67226 0
M  V30 4646 C 487.23 -3.01846 -3.74757 0
M  V30 4647 C 489.582 -3.56812 -3.79914 0
M  V30 4648 C 486.91 -4.36118 -3.92451 0
M  V30 4649 C 489.262 -4.90799 -3.99123 0
M  V30 4650 C 487.926 -5.3068 -4.04888 0
M  V30 4651 H 487.196 -0.270064 -0.690034 0
M  V30 4652 H 489.843 -1.3012 -1.40503 0
M  V30 4653 H 488.148 -0.500337 -3.88592 0
M  V30 4654 H 489.845 -0.89095 -3.90977 0
M  V30 4655 H 486.435 -2.29498 -3.61979 0
M  V30 4656 H 490.619 -3.26899 -3.73431 0
M  V30 4657 H 485.875 -4.66542 -3.95157 0
M  V30 4658 H 490.049 -5.64451 -4.07882 0
M  V30 4659 H 487.676 -6.34733 -4.18351 0
M  V30 4660 N 489.251 1.34841 -0.815825 0
M  V30 4661 C 490.491 2.00321 -0.406297 0
M  V30 4662 C 490.855 1.63293 1.00992 0
M  V30 4663 O 492.056 2.21563 1.52195 0
M  V30 4664 C 490.327 3.52421 -0.594469 0
M  V30 4665 S 491.886 4.37926 -0.276735 0
M  V30 4666 H 488.704 0.694155 -0.153848 0
M  V30 4667 H 491.306 1.64263 -1.06009 0
M  V30 4668 H 490.01 3.76858 -1.625 0
M  V30 4669 H 489.541 3.9333 0.0743157 0
M  V30 4670 H 491.556 4.87743 0.912215 0
M  V30 4671 N 490.729 0.570148 1.46925 0
M  V30 4672 C 492.14 0.1402 1.86173 0
M  V30 4673 C 492.491 -1.29347 1.47526 0
M  V30 4674 O 491.616 -1.97508 0.884292 0
M  V30 4675 C 492.211 0.247661 3.37894 0
M  V30 4676 C 490.77 -0.127332 3.76185 0
M  V30 4677 C 489.917 0.589349 2.70965 0
M  V30 4678 H 492.868 0.779117 1.38259 0
M  V30 4679 H 492.889 -0.530341 3.76786 0
M  V30 4680 H 492.401 1.29121 3.65991 0
M  V30 4681 H 490.502 -1.17149 3.53704 0
M  V30 4682 H 490.615 0.240238 4.78497 0
M  V30 4683 H 488.979 0.0309824 2.54681 0
M  V30 4684 H 489.762 1.6343 3.01903 0
M  V30 4685 N 492.207 -1.54576 0.307264 0
M  V30 4686 C 493.618 -1.8579 -0.184121 0
M  V30 4687 C 493.969 -1.22914 -1.52927 0
M  V30 4688 O 493.094 -0.529126 -2.09831 0
M  V30 4689 C 493.689 -3.37081 -0.340862 0
M  V30 4690 C 492.248 -3.68304 -0.776465 0
M  V30 4691 C 491.395 -2.77076 0.111503 0
M  V30 4692 H 494.346 -1.49656 0.528078 0
M  V30 4693 H 494.367 -3.61922 -1.17443 0
M  V30 4694 H 493.879 -3.82815 0.638309 0
M  V30 4695 H 491.98 -3.28092 -1.76596 0
M  V30 4696 H 492.093 -4.75434 -0.591512 0
M  V30 4697 H 490.457 -2.51374 -0.410256 0
M  V30 4698 H 491.24 -3.25632 1.08714 0
M  V30 4699 N 493.685 -0.035106 -1.57561 0
M  V30 4700 C 494.933 0.64096 -1.91667 0
M  V30 4701 C 495.254 1.72323 -0.912681 0
M  V30 4702 O 494.524 1.95849 0.0449089 0
M  V30 4703 H 493.104 0.239743 -0.707483 0
M  V30 4704 H 495.766 -0.084321 -1.94718 0
M  V30 4705 H 494.862 1.08987 -2.92452 0
M  V30 4706 N 495.163 1.55791 0.238111 0
M  V30 4707 C 496.393 1.81834 0.980809 0
M  V30 4708 C 496.801 0.609741 1.79106 0
M  V30 4709 O 496.144 -0.431073 1.78571 0
M  V30 4710 C 496.206 3.01363 1.96011 0
M  V30 4711 C 495.87 4.37037 1.33597 0
M  V30 4712 C 496.867 5.14692 0.734063 0
M  V30 4713 C 494.552 4.83743 1.3527 0
M  V30 4714 C 496.546 6.37206 0.157208 0
M  V30 4715 C 494.233 6.06204 0.77199 0
M  V30 4716 C 495.231 6.82775 0.175282 0
M  V30 4717 O 494.919 8.02922 -0.396432 0
M  V30 4718 H 494.651 0.6088 0.293834 0
M  V30 4719 H 497.205 2.03702 0.263552 0
M  V30 4720 H 495.435 2.75273 2.71591 0
M  V30 4721 H 497.124 3.14422 2.56697 0
M  V30 4722 H 497.89 4.79722 0.713582 0
M  V30 4723 H 493.769 4.24129 1.80653 0
M  V30 4724 H 497.313 6.96915 -0.30917 0
M  V30 4725 H 493.21 6.4065 0.789828 0
M  V30 4726 H 493.978 8.17989 -0.289145 0
M  V30 4727 N 496.642 -0.504142 1.49319 0
M  V30 4728 C 497.891 -1.25507 1.57895 0
M  V30 4729 C 498.204 -1.93735 0.269433 0
M  V30 4730 O 499.41 -2.70492 0.233706 0
M  V30 4731 C 497.866 -2.27869 2.78574 0
M  V30 4732 C 497.474 -1.65594 4.16272 0
M  V30 4733 C 499.218 -3.0381 2.96479 0
M  V30 4734 C 497.125 -2.66048 5.28178 0
M  V30 4735 H 496.055 -0.47212 0.587894 0
M  V30 4736 H 498.706 -0.52931 1.757 0
M  V30 4737 H 497.088 -3.03594 2.54257 0
M  V30 4738 H 498.262 -0.958826 4.50714 0
M  V30 4739 H 496.577 -1.02055 4.037 0
M  V30 4740 H 499.174 -3.78925 3.77253 0
M  V30 4741 H 499.517 -3.61235 2.06918 0
M  V30 4742 H 500.05 -2.352 3.20821 0
M  V30 4743 H 496.789 -2.13408 6.19788 0
M  V30 4744 H 496.309 -3.34009 4.98195 0
M  V30 4745 H 497.988 -3.28536 5.57381 0
M  V30 4746 N 498.12 -1.38341 -0.754957 0
M  V30 4747 C 499.369 -1.33791 -1.5094 0
M  V30 4748 C 499.682 0.0699267 -1.95475 0
M  V30 4749 O 500.888 0.237956 -2.70455 0
M  V30 4750 C 499.344 -2.34934 -2.72643 0
M  V30 4751 C 498.952 -3.81332 -2.35138 0
M  V30 4752 C 500.696 -2.39425 -3.50536 0
M  V30 4753 C 498.603 -4.74164 -3.53444 0
M  V30 4754 H 497.533 -0.497314 -0.566741 0
M  V30 4755 H 500.184 -1.63888 -0.825403 0
M  V30 4756 H 498.566 -1.97878 -3.43017 0
M  V30 4757 H 499.74 -4.27319 -1.7244 0
M  V30 4758 H 498.055 -3.79946 -1.70382 0
M  V30 4759 H 500.652 -3.0598 -4.38498 0
M  V30 4760 H 500.995 -1.41278 -3.91594 0
M  V30 4761 H 501.528 -2.75274 -2.87174 0
M  V30 4762 H 498.267 -5.73501 -3.17453 0
M  V30 4763 H 497.787 -4.3287 -4.15191 0
M  V30 4764 H 499.466 -4.92111 -4.20043 0
M  V30 4765 N 499.598 0.982988 -1.23187 0
M  V30 4766 C 500.546 2.09616 -1.00817 0
M  V30 4767 C 501.54 1.6932 0.0519995 0
M  V30 4768 O 502.746 1.79715 -0.101284 0
M  V30 4769 H 499.121 0.685628 -0.308899 0
M  V30 4770 H 501.092 2.25652 -1.95253 0
M  V30 4771 C 499.841 3.42249 -0.613243 0
M  V30 4772 H 499.164 3.73705 -1.42073 0
M  V30 4773 H 500.604 4.21086 -0.496208 0
M  V30 4774 C 499.063 3.30002 0.678233 0
M  V30 4775 O 499.593 3.6263 1.72807 0
M  V30 4776 N 497.799 2.83164 0.653165 0
M  V30 4777 H 497.346 2.56811 -0.201492 0
M  V30 4778 H 497.304 2.75352 1.51752 0
M  V30 4779 N 501.076 1.04316 1.18135 0
M  V30 4780 C 502.026 0.606731 2.19779 0
M  V30 4781 C 503.01 -0.352144 1.56999 0
M  V30 4782 O 504.202 -0.170795 1.76174 0
M  V30 4783 C 501.331 -0.0262443 3.4329 0
M  V30 4784 C 500.417 0.955928 4.13186 0
M  V30 4785 N 500.808 2.12395 4.59045 0
M  V30 4786 C 499.106 0.782473 4.39082 0
M  V30 4787 C 499.807 2.74458 5.12882 0
M  V30 4788 N 498.783 2.02316 5.04548 0
M  V30 4789 H 502.585 1.49679 2.5293 0
M  V30 4790 H 500.099 0.912088 1.34368 0
M  V30 4791 H 502.096 -0.356617 4.15372 0
M  V30 4792 H 500.756 -0.911811 3.11635 0
M  V30 4793 H 501.767 2.50272 4.53414 0
M  V30 4794 H 498.444 -0.0527906 4.17467 0
M  V30 4795 H 499.834 3.73459 5.5855 0
M  V30 4796 N 502.554 -1.34406 0.822964 0
M  V30 4797 C 503.502 -2.31428 0.233165 0
M  V30 4798 C 504.496 -1.57404 -0.626118 0
M  V30 4799 O 505.702 -1.72402 -0.517453 0
M  V30 4800 H 502.077 -0.749863 0.0566557 0
M  V30 4801 H 504.048 -2.78699 1.06628 0
M  V30 4802 C 502.797 -3.42653 -0.590264 0
M  V30 4803 H 502.12 -3.99753 0.0616129 0
M  V30 4804 H 503.56 -4.12778 -0.969054 0
M  V30 4805 C 502.019 -2.87112 -1.76262 0
M  V30 4806 O 502.549 -2.81995 -2.8608 0
M  V30 4807 N 500.755 -2.43934 -1.57938 0
M  V30 4808 H 500.302 -2.48296 -0.686078 0
M  V30 4809 H 500.26 -2.07123 -2.36532 0
M  V30 4810 N 504.032 -0.577932 -1.46621 0
M  V30 4811 C 505.309 0.00495287 -1.95599 0
M  V30 4812 C 505.689 1.46428 -1.5206 0
M  V30 4813 O 505.037 2.1517 -0.769046 0
M  V30 4814 C 505.247 -0.162114 -3.48623 0
M  V30 4815 C 506.595 -0.0274623 -4.24591 0
M  V30 4816 O 507.619 -0.0907067 -3.56084 0
M  V30 4817 O 506.478 0.1122 -5.46385 0
M  V30 4818 H 503.572 0.0525057 -0.825332 0
M  V30 4819 H 506.118 -0.645914 -1.56927 0
M  V30 4820 H 504.89 -1.17679 -3.73185 0
M  V30 4821 H 504.513 0.525407 -3.94113 0
M  V30 4822 N 505.51 1.54411 -0.315457 0
M  V30 4823 C 506.735 2.05299 0.294496 0
M  V30 4824 C 507.16 1.19052 1.4563 0
M  V30 4825 O 506.518 0.197804 1.80218 0
M  V30 4826 C 506.566 3.5345 0.714549 0
M  V30 4827 O 505.67 3.70175 1.81781 0
M  V30 4828 H 505.011 0.661743 0.0547019 0
M  V30 4829 H 507.541 1.99327 -0.461508 0
M  V30 4830 H 507.551 3.9557 0.999426 0
M  V30 4831 H 506.226 4.1568 -0.135244 0
M  V30 4832 H 504.803 3.3996 1.53236 0
M  V30 4833 N 506.988 0.0434614 1.5754 0
M  V30 4834 C 508.404 -0.313039 1.565 0
M  V30 4835 C 508.604 -1.71954 1.05043 0
M  V30 4836 O 507.66 -2.425 0.703564 0
M  V30 4837 C 508.973 -0.148544 3.00333 0
M  V30 4838 C 510.521 -0.220231 3.12224 0
M  V30 4839 C 510.996 -0.0843565 4.57922 0
M  V30 4840 N 512.487 -0.140881 4.62986 0
M  V30 4841 C 513.222 -0.0597443 5.73369 0
M  V30 4842 N 512.718 0.0733004 6.92761 0
M  V30 4843 N 514.511 -0.11477 5.61983 0
M  V30 4844 H 506.662 0.96303 1.89313 0
M  V30 4845 H 508.925 0.373164 0.871466 0
M  V30 4846 H 508.631 0.820894 3.41986 0
M  V30 4847 H 508.505 -0.912798 3.65989 0
M  V30 4848 H 510.892 -1.18014 2.70475 0
M  V30 4849 H 510.973 0.574646 2.49262 0
M  V30 4850 H 510.617 0.872192 5.00355 0
M  V30 4851 H 510.547 -0.898281 5.18882 0
M  V30 4852 H 513.038 -0.243273 3.77116 0
M  V30 4853 H 513.351 0.128128 7.72694 0
M  V30 4854 H 511.696 0.10828 6.94916 0
M  V30 4855 H 514.887 -0.217212 4.67596 0
M  V30 4856 H 515.06 -0.0480779 6.47982 0
M  V30 4857 N 508.466 -1.55915 -0.229846 0
M  V30 4858 C 509.694 -1.82617 -0.972562 0
M  V30 4859 C 510.109 -0.621488 -1.78278 0
M  V30 4860 O 509.466 0.409956 -1.77836 0
M  V30 4861 C 509.517 -3.0774 -1.89679 0
M  V30 4862 O 509.238 -4.23559 -1.11934 0
M  V30 4863 C 510.739 -3.47368 -2.75409 0
M  V30 4864 H 507.959 -0.60727 -0.285419 0
M  V30 4865 H 510.503 -2.02996 -0.247579 0
M  V30 4866 H 508.658 -2.89361 -2.57583 0
M  V30 4867 H 509.072 -4.94586 -1.74599 0
M  V30 4868 H 510.546 -4.37977 -3.35977 0
M  V30 4869 H 511.023 -2.68737 -3.47386 0
M  V30 4870 H 511.629 -3.68158 -2.12931 0
M  V30 4871 N 509.944 0.496216 -1.49584 0
M  V30 4872 C 511.184 1.26015 -1.60933 0
M  V30 4873 C 511.548 1.89772 -0.291646 0
M  V30 4874 O 512.749 2.67334 -0.280357 0
M  V30 4875 C 511.02 2.29506 -2.73974 0
M  V30 4876 S 512.579 3.15175 -3.05303 0
M  V30 4877 H 509.397 0.428194 -0.567601 0
M  V30 4878 H 511.999 0.561484 -1.87263 0
M  V30 4879 H 510.703 1.81205 -3.68229 0
M  V30 4880 H 510.234 3.04036 -2.49651 0
M  V30 4881 H 512.249 4.30244 -2.47193 0
M  V30 4882 N 511.423 1.38739 0.74761 0
M  V30 4883 C 512.669 1.35475 1.50912 0
M  V30 4884 C 513.002 -0.0533093 1.94127 0
M  V30 4885 O 512.277 -1.01572 1.65871 0
M  V30 4886 C 512.56 2.31582 2.75757 0
M  V30 4887 C 512.413 3.81274 2.38642 0
M  V30 4888 C 513.732 2.25722 3.77806 0
M  V30 4889 H 510.851 0.493427 0.547447 0
M  V30 4890 H 513.493 1.69634 0.855823 0
M  V30 4891 H 511.643 2.02582 3.31501 0
M  V30 4892 H 513.315 4.20972 1.88626 0
M  V30 4893 H 511.558 3.98664 1.71025 0
M  V30 4894 H 512.229 4.4399 3.27989 0
M  V30 4895 H 514.705 2.51336 3.31616 0
M  V30 4896 H 513.581 2.95069 4.62845 0
M  V30 4897 H 513.842 1.25803 4.23823 0
M  V30 4898 N 512.901 -0.976442 1.23707 0
M  V30 4899 C 513.811 -2.10359 1.03856 0
M  V30 4900 C 514.827 -1.73991 -0.0180919 0
M  V30 4901 O 516.003 -2.0061 0.178211 0
M  V30 4902 C 513.068 -3.40809 0.636387 0
M  V30 4903 C 512.129 -3.91179 1.76854 0
M  V30 4904 C 511.362 -5.15404 1.38546 0
M  V30 4905 O 511.585 -5.69754 0.27142 0
M  V30 4906 O 510.519 -5.5994 2.20797 0
M  V30 4907 H 514.345 -2.29997 1.98331 0
M  V30 4908 H 511.93 -1.08742 1.02448 0
M  V30 4909 H 513.812 -4.19269 0.423223 0
M  V30 4910 H 512.487 -3.22493 -0.279322 0
M  V30 4911 H 511.394 -3.13819 2.03638 0
M  V30 4912 H 512.727 -4.13958 2.6627 0
M  V30 4913 N 514.379 -1.04941 -1.1758 0
M  V30 4914 C 515.626 -0.757989 -1.87779 0
M  V30 4915 C 515.954 0.714827 -1.80888 0
M  V30 4916 O 515.209 1.53824 -1.20982 0
M  V30 4917 C 515.508 -1.18062 -3.37337 0
M  V30 4918 C 515.174 -2.65521 -3.6443 0
M  V30 4919 C 513.836 -3.05804 -3.71534 0
M  V30 4920 C 516.188 -3.60822 -3.76108 0
M  V30 4921 C 513.516 -4.40256 -3.87803 0
M  V30 4922 C 515.868 -4.95005 -3.93895 0
M  V30 4923 C 514.532 -5.34945 -3.99237 0
M  V30 4924 H 513.802 -0.277368 -0.68713 0
M  V30 4925 H 516.449 -1.31603 -1.39115 0
M  V30 4926 H 514.754 -0.541525 -3.8804 0
M  V30 4927 H 516.451 -0.932368 -3.9001 0
M  V30 4928 H 513.041 -2.33324 -3.59524 0
M  V30 4929 H 517.225 -3.30841 -3.69943 0
M  V30 4930 H 512.481 -4.70707 -3.90186 0
M  V30 4931 H 516.655 -5.68746 -4.01872 0
M  V30 4932 H 514.282 -6.39135 -4.11596 0
M  V30 4933 N 515.857 1.33968 -0.830081 0
M  V30 4934 C 517.134 1.92554 -0.343858 0
M  V30 4935 C 517.514 1.7573 1.16971 0
M  V30 4936 O 516.862 1.14035 1.98011 0
M  V30 4937 C 517.072 3.40147 -0.781073 0
M  V30 4938 C 518.42 4.17299 -0.78402 0
M  V30 4939 O 519.444 3.48762 -0.724112 0
M  V30 4940 O 518.303 5.39631 -0.863739 0
M  V30 4941 H 515.397 0.821469 -0.0954827 0
M  V30 4942 H 517.943 1.42897 -0.915348 0
M  V30 4943 H 516.715 3.46225 -1.82329 0
M  V30 4944 H 516.338 3.97166 -0.18567 0
M  V30 4945 N 517.335 0.585699 1.46312 0
M  V30 4946 C 518.612 0.00542031 1.95599 0
M  V30 4947 C 518.992 -1.45619 1.52834 0
M  V30 4948 O 518.34 -2.14759 0.780446 0
M  V30 4949 C 518.55 0.180601 3.48532 0
M  V30 4950 C 519.898 0.049979 4.24571 0
M  V30 4951 O 520.922 0.109589 3.56031 0
M  V30 4952 O 519.781 -0.0832226 5.46437 0
M  V30 4953 H 516.875 -0.0481281 0.825598 0
M  V30 4954 H 519.421 0.654227 1.56582 0
M  V30 4955 H 518.193 1.19657 3.72556 0
M  V30 4956 H 517.816 -0.504498 3.94386 0
M  V30 4957 N 518.813 -1.54241 0.323641 0
M  V30 4958 C 520.053 -2.0248 -0.279502 0
M  V30 4959 C 520.417 -1.20672 -1.49339 0
M  V30 4960 O 521.618 -1.58715 -2.1694 0
M  V30 4961 C 519.889 -3.52238 -0.605266 0
M  V30 4962 S 521.448 -4.22411 -1.18805 0
M  V30 4963 H 518.266 -0.705957 -0.0845313 0
M  V30 4964 H 520.868 -1.90089 0.456781 0
M  V30 4965 H 519.572 -4.094 0.286339 0
M  V30 4966 H 519.103 -3.6871 -1.37174 0
M  V30 4967 H 521.118 -4.30075 -2.47487 0
M  V30 4968 N 520.291 -0.0518155 -1.57515 0
M  V30 4969 C 521.223 0.951542 -2.08515 0
M  V30 4970 C 522.236 1.27436 -1.01311 0
M  V30 4971 O 523.425 1.23504 -1.28876 0
M  V30 4972 C 520.525 2.27291 -2.5138 0
M  V30 4973 C 519.698 2.13191 -3.81927 0
M  V30 4974 C 518.757 3.28458 -4.11098 0
M  V30 4975 O 517.783 3.04334 -4.81009 0
M  V30 4976 N 518.985 4.52954 -3.63061 0
M  V30 4977 H 521.75 0.516242 -2.9522 0
M  V30 4978 H 519.311 0.13441 -1.61341 0
M  V30 4979 H 521.303 3.03272 -2.67971 0
M  V30 4980 H 519.873 2.62386 -1.69919 0
M  V30 4981 H 519.093 1.21798 -3.74912 0
M  V30 4982 H 520.381 2.00999 -4.67415 0
M  V30 4983 H 519.779 4.75444 -3.06545 0
M  V30 4984 H 518.336 5.26026 -3.84889 0
M  V30 4985 N 521.769 1.56035 0.221574 0
M  V30 4986 C 523.018 1.78245 0.944016 0
M  V30 4987 C 523.331 0.620371 1.85501 0
M  V30 4988 O 524.537 0.726103 2.6161 0
M  V30 4989 C 522.993 3.15659 1.7288 0
M  V30 4990 C 522.601 4.39591 0.863942 0
M  V30 4991 C 524.345 3.47195 2.44246 0
M  V30 4992 C 522.252 5.6803 1.64607 0
M  V30 4993 H 521.182 0.664547 0.356222 0
M  V30 4994 H 523.833 1.8243 0.197904 0
M  V30 4995 H 522.215 3.0565 2.51781 0
M  V30 4996 H 523.389 4.60655 0.115464 0
M  V30 4997 H 521.704 4.15572 0.262407 0
M  V30 4998 H 524.301 4.40381 3.03263 0
M  V30 4999 H 524.644 2.69693 3.1713 0
M  V30 5000 H 525.177 3.58533 1.72334 0
M  V30 5001 H 521.916 6.48425 0.960507 0
M  V30 5002 H 521.436 5.51027 2.36917 0
M  V30 5003 H 523.115 6.08203 2.20675 0
M  V30 5004 N 523.247 -0.488276 1.49845 0
M  V30 5005 C 524.493 -1.24065 1.61182 0
M  V30 5006 C 524.848 -1.9004 0.300435 0
M  V30 5007 O 524.141 -1.78341 -0.700365 0
M  V30 5008 C 524.335 -2.32152 2.71735 0
M  V30 5009 C 524.164 -1.76778 4.13497 0
M  V30 5010 C 522.934 -1.57513 4.80123 0
M  V30 5011 C 525.132 -1.27242 4.98311 0
M  V30 5012 N 523.114 -0.972015 6.06156 0
M  V30 5013 C 524.485 -0.791457 6.14928 0
M  V30 5014 C 526.54 -1.15934 4.84214 0
M  V30 5015 C 525.243 -0.208593 7.18997 0
M  V30 5016 C 527.269 -0.590436 5.88445 0
M  V30 5017 C 526.631 -0.119767 7.04298 0
M  V30 5018 H 522.73 -0.443487 0.644083 0
M  V30 5019 H 525.314 -0.545551 1.86901 0
M  V30 5020 H 523.485 -2.99108 2.47768 0
M  V30 5021 H 525.217 -2.99187 2.72523 0
M  V30 5022 H 521.972 -1.82247 4.37131 0
M  V30 5023 H 522.396 -0.689367 6.73481 0
M  V30 5024 H 527.038 -1.5092 3.94947 0
M  V30 5025 H 524.756 0.153501 8.07954 0
M  V30 5026 H 528.342 -0.505548 5.79599 0
M  V30 5027 H 527.222 0.313568 7.83573 0
M  V30 5028 N 524.725 -1.39134 -0.740242 0
M  V30 5029 C 525.973 -1.35803 -1.49673 0
M  V30 5030 C 526.294 0.0470897 -1.94943 0
M  V30 5031 O 525.564 0.997347 -1.68611 0
M  V30 5032 H 524.144 -0.499736 -0.555224 0
M  V30 5033 H 526.806 -1.73947 -0.879107 0
M  V30 5034 H 525.902 -2.0174 -2.38133 0
M  V30 5035 N 526.204 0.969867 -1.24223 0
M  V30 5036 C 527.453 1.70687 -1.07466 0
M  V30 5037 C 527.766 1.91736 0.386861 0
M  V30 5038 O 528.972 2.62986 0.674581 0
M  V30 5039 C 527.428 3.07217 -1.87472 0
M  V30 5040 C 527.036 2.94018 -3.3802 0
M  V30 5041 C 528.78 3.84804 -1.79237 0
M  V30 5042 C 526.687 4.25844 -4.10379 0
M  V30 5043 H 525.617 0.640067 -0.398536 0
M  V30 5044 H 528.268 1.08092 -1.48285 0
M  V30 5045 H 526.65 3.70628 -1.39466 0
M  V30 5046 H 527.824 2.39632 -3.9359 0
M  V30 5047 H 526.139 2.29898 -3.47183 0
M  V30 5048 H 528.736 4.82417 -2.30603 0
M  V30 5049 H 529.079 4.09356 -0.757197 0
M  V30 5050 H 529.612 3.28115 -2.24912 0
M  V30 5051 H 526.351 4.06486 -5.14246 0
M  V30 5052 H 525.871 4.80054 -3.59594 0
M  V30 5053 H 527.55 4.94475 -4.17257 0
M  V30 5054 N 527.682 1.05563 1.17022 0
M  V30 5055 C 528.922 0.777033 1.89054 0
M  V30 5056 C 529.286 -0.683617 1.79418 0
M  V30 5057 O 530.487 -1.07648 2.46303 0
M  V30 5058 C 528.758 1.24886 3.34871 0
M  V30 5059 S 530.317 1.0982 4.24835 0
M  V30 5060 H 527.135 0.282082 0.652649 0
M  V30 5061 H 529.737 1.35103 1.41306 0
M  V30 5062 H 528.441 2.30699 3.3942 0
M  V30 5063 H 527.972 0.669292 3.87665 0
M  V30 5064 H 529.987 0.02462 4.96194 0
M  V30 5065 N 529.16 -1.33526 0.837174 0
M  V30 5066 C 530.437 -1.92369 0.354065 0
M  V30 5067 C 530.817 -1.76348 -1.16038 0
M  V30 5068 O 530.165 -1.15083 -1.97403 0
M  V30 5069 C 530.375 -3.39728 0.799101 0
M  V30 5070 C 531.723 -4.16877 0.806139 0
M  V30 5071 O 532.747 -3.48373 0.742597 0
M  V30 5072 O 531.606 -5.39166 0.892345 0
M  V30 5073 H 528.7 -0.820952 0.0998378 0
M  V30 5074 H 531.246 -1.42409 0.922913 0
M  V30 5075 H 530.018 -3.45254 1.84162 0
M  V30 5076 H 529.641 -3.97062 0.206731 0
M  V30 5077 N 530.638 -0.59345 -1.46 0
M  V30 5078 C 531.57 0.171569 -2.28557 0
M  V30 5079 C 532.583 0.845273 -1.39137 0
M  V30 5080 O 533.772 0.713033 -1.6364 0
M  V30 5081 C 530.872 1.26311 -3.14482 0
M  V30 5082 C 530.045 0.679258 -4.32094 0
M  V30 5083 C 529.104 1.65987 -4.99334 0
M  V30 5084 O 528.13 1.19171 -5.56585 0
M  V30 5085 N 529.332 2.99414 -4.97324 0
M  V30 5086 H 532.097 -0.536771 -2.94854 0
M  V30 5087 H 529.658 -0.431954 -1.56031 0
M  V30 5088 H 531.65 1.91863 -3.5633 0
M  V30 5089 H 530.22 1.87416 -2.50188 0
M  V30 5090 H 529.44 -0.153992 -3.93899 0
M  V30 5091 H 530.728 0.26916 -5.08088 0
M  V30 5092 H 530.126 3.40064 -4.52076 0
M  V30 5093 H 528.683 3.60426 -5.4308 0
M  V30 5094 N 532.116 1.54067 -0.331816 0
M  V30 5095 C 533.063 2.24623 0.530372 0
M  V30 5096 C 534.033 1.24009 1.10503 0
M  V30 5097 O 535.218 1.52712 1.14384 0
M  V30 5098 C 532.358 3.01374 1.68129 0
M  V30 5099 C 531.471 4.16821 1.13507 0
M  V30 5100 C 530.606 4.81085 2.25234 0
M  V30 5101 C 529.645 5.88621 1.67903 0
M  V30 5102 N 528.782 6.46713 2.73326 0
M  V30 5103 H 533.622 2.97898 -0.0778607 0
M  V30 5104 H 531.159 1.47014 -0.0501965 0
M  V30 5105 H 533.117 3.44125 2.35868 0
M  V30 5106 H 531.747 2.30419 2.26069 0
M  V30 5107 H 530.799 3.78796 0.348979 0
M  V30 5108 H 532.111 4.94203 0.675633 0
M  V30 5109 H 531.265 5.26846 3.00862 0
M  V30 5110 H 530.004 4.03102 2.74518 0
M  V30 5111 H 529.009 5.42254 0.907773 0
M  V30 5112 H 530.234 6.68506 1.19487 0
M  V30 5113 H 528.18 5.71599 3.21886 0
M  V30 5114 H 528.097 7.19532 2.3197 0
M  V30 5115 H 529.365 6.97129 3.48758 0
M  V30 5116 N 533.594 0.0601682 1.57485 0
M  V30 5117 C 534.834 -0.615384 1.94916 0
M  V30 5118 C 535.198 -1.67475 0.938948 0
M  V30 5119 O 536.399 -2.40502 1.20051 0
M  V30 5120 C 534.67 -1.18788 3.37082 0
M  V30 5121 S 536.229 -1.88018 3.96478 0
M  V30 5122 H 533.047 -0.201821 0.681754 0
M  V30 5123 H 535.649 0.131252 1.95059 0
M  V30 5124 H 534.353 -0.404869 4.08398 0
M  V30 5125 H 533.884 -1.97114 3.40455 0
M  V30 5126 H 535.899 -3.16161 3.82435 0
M  V30 5127 N 535.072 -1.5615 -0.213296 0
M  V30 5128 C 535.982 -1.96265 -1.28519 0
M  V30 5129 C 536.998 -0.86765 -1.50824 0
M  V30 5130 O 538.174 -1.17191 -1.63793 0
M  V30 5131 C 535.239 -2.27836 -2.61327 0
M  V30 5132 C 534.3 -3.50949 -2.47252 0
M  V30 5133 C 533.533 -3.81004 -3.73727 0
M  V30 5134 O 533.756 -3.12612 -4.77106 0
M  V30 5135 O 532.69 -4.74477 -3.70344 0
M  V30 5136 H 536.516 -2.87631 -0.974795 0
M  V30 5137 H 534.101 -1.43467 -0.416832 0
M  V30 5138 H 535.983 -2.49299 -3.39747 0
M  V30 5139 H 534.658 -1.39643 -2.9203 0
M  V30 5140 H 533.565 -3.34754 -1.67004 0
M  V30 5141 H 534.898 -4.39551 -2.21486 0
M  V30 5142 N 536.55 0.480323 -1.50102 0
M  V30 5143 C 537.775 1.26126 -1.64642 0
M  V30 5144 C 538.2 1.85257 -0.325823 0
M  V30 5145 O 537.558 1.66854 0.709194 0
M  V30 5146 C 537.606 2.35243 -2.73301 0
M  V30 5147 O 536.71 3.39646 -2.33911 0
M  V30 5148 H 536.051 0.371463 -0.550374 0
M  V30 5149 H 538.581 0.572696 -1.96421 0
M  V30 5150 H 538.591 2.80695 -2.96098 0
M  V30 5151 H 537.266 1.91574 -3.6915 0
M  V30 5152 H 535.843 2.99969 -2.21525 0
M  V30 5153 N 538.028 1.39524 0.732853 0
M  V30 5154 C 539.444 1.21176 1.03868 0
M  V30 5155 C 539.644 0.0748448 2.01361 0
M  V30 5156 O 538.7 -0.57281 2.45917 0
M  V30 5157 C 540.013 2.54667 1.59892 0
M  V30 5158 C 541.561 2.6153 1.71962 0
M  V30 5159 C 542.036 3.95248 2.31394 0
M  V30 5160 N 543.527 3.96899 2.38801 0
M  V30 5161 C 544.262 4.97138 2.85729 0
M  V30 5162 N 543.758 6.07775 3.32537 0
M  V30 5163 N 545.551 4.84516 2.84957 0
M  V30 5164 H 537.702 2.12225 0.086304 0
M  V30 5165 H 539.965 0.942614 0.100907 0
M  V30 5166 H 539.671 3.38423 0.95721 0
M  V30 5167 H 539.545 2.74538 2.58668 0
M  V30 5168 H 541.932 1.78156 2.35254 0
M  V30 5169 H 542.013 2.45507 0.718327 0
M  V30 5170 H 541.657 4.79054 1.68729 0
M  V30 5171 H 541.587 4.08593 3.32204 0
M  V30 5172 H 544.078 3.16998 2.05719 0
M  V30 5173 H 544.391 6.8017 3.66862 0
M  V30 5174 H 542.736 6.11366 3.30541 0
M  V30 5175 H 545.927 3.97185 2.47713 0
M  V30 5176 H 546.1 5.62783 3.21215 0
M  V30 5177 N 539.506 -0.963266 1.24736 0
M  V30 5178 C 540.917 -1.52145 1.08207 0
M  V30 5179 C 541.268 -1.93142 -0.345061 0
M  V30 5180 O 540.393 -1.77769 -1.23399 0
M  V30 5181 C 540.988 -2.76486 1.95808 0
M  V30 5182 C 539.547 -3.28646 1.8349 0
M  V30 5183 C 538.694 -2.01529 1.90476 0
M  V30 5184 H 541.645 -0.781083 1.38148 0
M  V30 5185 H 541.666 -3.49986 1.49297 0
M  V30 5186 H 541.178 -2.46617 2.99669 0
M  V30 5187 H 539.279 -3.63357 0.824787 0
M  V30 5188 H 539.392 -3.97246 2.67829 0
M  V30 5189 H 537.756 -2.16442 1.34258 0
M  V30 5190 H 538.539 -1.7402 2.95926 0
M  V30 5191 N 540.985 -1.06182 -1.16461 0
M  V30 5192 C 542.233 -0.776326 -1.86595 0
M  V30 5193 C 542.554 0.69921 -1.82033 0
M  V30 5194 O 541.824 1.50579 -1.2531 0
M  V30 5195 H 540.404 -0.284184 -0.690832 0
M  V30 5196 H 543.066 -1.34308 -1.41235 0
M  V30 5197 H 542.162 -1.10022 -2.92064 0
M  V30 5198 N 542.463 1.3308 -0.844243 0
M  V30 5199 C 543.879 1.50447 -0.532729 0
M  V30 5200 C 544.079 1.78292 0.938837 0
M  V30 5201 O 543.135 1.84635 1.72239 0
M  V30 5202 C 544.448 2.65555 -1.41072 0
M  V30 5203 C 545.996 2.7944 -1.41005 0
M  V30 5204 C 546.471 3.97616 -2.27301 0
M  V30 5205 N 547.962 4.0486 -2.2504 0
M  V30 5206 C 548.697 4.95508 -2.88547 0
M  V30 5207 N 548.193 5.91236 -3.61126 0
M  V30 5208 N 549.986 4.88548 -2.77989 0
M  V30 5209 H 542.137 1.13269 -1.79677 0
M  V30 5210 H 544.4 0.55734 -0.766861 0
M  V30 5211 H 544.106 2.51675 -2.45668 0
M  V30 5212 H 543.98 3.61089 -1.09061 0
M  V30 5213 H 546.367 2.92749 -0.371784 0
M  V30 5214 H 546.448 1.8465 -1.77026 0
M  V30 5215 H 546.092 3.85066 -3.3119 0
M  V30 5216 H 546.022 4.91661 -1.88619 0
M  V30 5217 H 548.513 3.36353 -1.72264 0
M  V30 5218 H 548.826 6.57079 -4.06776 0
M  V30 5219 H 547.171 5.91295 -3.65234 0
M  V30 5220 H 550.362 4.12729 -2.20846 0
M  V30 5221 H 550.535 5.58994 -3.27765 0
M  V30 5222 N 543.941 0.601185 1.45683 0
M  V30 5223 C 544.891 -0.142686 2.27553 0
M  V30 5224 C 545.875 -0.844598 1.3695 0
M  V30 5225 O 547.067 -0.735644 1.60988 0
M  V30 5226 C 544.196 -1.14364 3.23691 0
M  V30 5227 C 543.282 -0.442894 4.21781 0
M  V30 5228 N 543.673 0.51189 5.03203 0
M  V30 5229 C 541.971 -0.691277 4.4061 0
M  V30 5230 C 542.672 0.92318 5.74328 0
M  V30 5231 N 541.648 0.268308 5.42937 0
M  V30 5232 H 545.45 0.590736 2.87902 0
M  V30 5233 H 542.964 0.424365 1.56757 0
M  V30 5234 H 544.961 -1.6909 3.8107 0
M  V30 5235 H 543.621 -1.87768 2.64902 0
M  V30 5236 H 544.632 0.888329 5.10225 0
M  V30 5237 H 541.309 -1.41049 3.92952 0
M  V30 5238 H 542.699 1.71029 6.49768 0
M  V30 5239 N 545.419 -1.53889 0.339982 0
M  V30 5240 C 546.349 -2.27843 -0.510856 0
M  V30 5241 C 547.33 -1.29267 -1.10563 0
M  V30 5242 O 548.515 -1.58104 -1.12768 0
M  V30 5243 C 545.645 -3.04857 -1.66372 0
M  V30 5244 C 544.599 -4.10907 -1.19746 0
M  V30 5245 C 543.925 -4.75855 -2.43857 0
M  V30 5246 C 545.225 -5.21435 -0.300501 0
M  V30 5247 H 546.919 -2.99212 0.106067 0
M  V30 5248 H 544.465 -1.43904 0.0524533 0
M  V30 5249 H 546.418 -3.5533 -2.26537 0
M  V30 5250 H 545.142 -2.31133 -2.30749 0
M  V30 5251 H 543.801 -3.61342 -0.618654 0
M  V30 5252 H 543.449 -3.9873 -3.06633 0
M  V30 5253 H 543.149 -5.47502 -2.13343 0
M  V30 5254 H 544.673 -5.2911 -3.04754 0
M  V30 5255 H 546.087 -5.67565 -0.80889 0
M  V30 5256 H 544.484 -6.00036 -0.0874076 0
M  V30 5257 H 545.554 -4.80328 0.664321 0
M  V30 5258 N 546.897 -0.0685191 -1.57451 0
M  V30 5259 C 548.137 0.605038 -1.9524 0
M  V30 5260 C 548.501 1.66974 -0.947816 0
M  V30 5261 O 549.702 2.39862 -1.21325 0
M  V30 5262 C 547.973 1.16999 -3.37707 0
M  V30 5263 S 549.532 1.85913 -3.97469 0
M  V30 5264 H 546.35 0.198203 -0.682815 0
M  V30 5265 H 548.952 -0.141594 -1.94987 0
M  V30 5266 H 547.656 0.383205 -4.08607 0
M  V30 5267 H 547.187 1.95305 -3.41496 0
M  V30 5268 H 549.202 3.14128 -3.84107 0
M  V30 5269 N 548.375 1.56261 0.205012 0
M  V30 5270 C 549.325 1.90155 1.25798 0
M  V30 5271 C 550.309 0.766227 1.41484 0
M  V30 5272 O 551.501 1.02893 1.44021 0
M  V30 5273 C 548.63 2.23603 2.60493 0
M  V30 5274 C 547.716 3.43568 2.48639 0
M  V30 5275 N 548.107 4.61747 2.06455 0
M  V30 5276 C 546.405 3.4751 2.79558 0
M  V30 5277 C 547.106 5.43907 2.06253 0
M  V30 5278 N 546.082 4.84051 2.47377 0
M  V30 5279 H 549.884 2.79031 0.922986 0
M  V30 5280 H 547.398 1.57048 0.413501 0
M  V30 5281 H 549.395 2.46067 3.36537 0
M  V30 5282 H 548.055 1.36049 2.94823 0
M  V30 5283 H 549.066 4.86598 1.77321 0
M  V30 5284 H 545.743 2.70345 3.18151 0
M  V30 5285 H 547.133 6.48542 1.75622 0
M  V30 5286 N 549.853 -0.472356 1.50355 0
M  V30 5287 C 551.093 -1.23439 1.62918 0
M  V30 5288 C 551.457 -1.89284 0.321801 0
M  V30 5289 O 552.658 -2.66854 0.322852 0
M  V30 5290 C 550.929 -2.25119 2.7759 0
M  V30 5291 S 552.488 -3.10278 3.10279 0
M  V30 5292 H 549.306 -0.41911 0.574341 0
M  V30 5293 H 551.908 -0.531621 1.88133 0
M  V30 5294 H 550.612 -1.75324 3.71066 0
M  V30 5295 H 550.143 -3.00026 2.54457 0
M  V30 5296 H 552.158 -4.26257 2.54007 0
M  V30 5297 N 551.331 -1.39911 -0.725443 0
M  V30 5298 C 552.241 -1.41688 -1.8698 0
M  V30 5299 C 553.257 -0.310579 -1.71206 0
M  V30 5300 O 554.433 -0.55359 -1.93642 0
M  V30 5301 C 551.498 -1.26811 -3.22676 0
M  V30 5302 C 550.559 -2.47497 -3.50776 0
M  V30 5303 C 549.792 -2.3332 -4.79997 0
M  V30 5304 O 550.015 -1.34175 -5.54394 0
M  V30 5305 O 548.949 -3.22498 -5.08211 0
M  V30 5306 H 552.775 -2.38171 -1.88436 0
M  V30 5307 H 550.36 -1.21128 -0.874548 0
M  V30 5308 H 552.242 -1.20684 -4.03749 0
M  V30 5309 H 550.917 -0.334289 -3.21969 0
M  V30 5310 H 549.824 -2.59201 -2.69751 0
M  V30 5311 H 551.157 -3.39606 -3.5627 0
M  V30 5312 N 552.809 0.956637 -1.25245 0
M  V30 5313 C 553.719 2.0868 -1.0719 0
M  V30 5314 C 554.735 1.73997 -0.00959074 0
M  V30 5315 O 555.911 2.00301 -0.210104 0
M  V30 5316 C 552.976 3.39754 -0.690526 0
M  V30 5317 C 552.037 3.88316 -1.83055 0
M  V30 5318 C 551.27 5.13134 -1.46728 0
M  V30 5319 O 551.493 5.6925 -0.362029 0
M  V30 5320 O 550.427 5.56356 -2.29677 0
M  V30 5321 H 554.253 2.26813 -2.01965 0
M  V30 5322 H 551.838 1.07098 -1.04165 0
M  V30 5323 H 553.72 4.18543 -0.489871 0
M  V30 5324 H 552.395 3.22896 0.227981 0
M  V30 5325 H 551.302 3.1054 -2.08604 0
M  V30 5326 H 552.635 4.09669 -2.72822 0
M  V30 5327 N 554.287 1.06798 1.15896 0
M  V30 5328 C 555.535 0.786211 1.8618 0
M  V30 5329 C 555.856 -0.689547 1.82401 0
M  V30 5330 O 555.126 -1.49913 1.26107 0
M  V30 5331 H 553.706 0.287843 0.689315 0
M  V30 5332 H 556.368 1.35055 1.40521 0
M  V30 5333 H 555.464 1.1157 2.91477 0
M  V30 5334 N 555.766 -1.3263 0.851289 0
M  V30 5335 C 556.996 -2.01271 0.466222 0
M  V30 5336 C 557.404 -1.64156 -0.940714 0
M  V30 5337 O 556.747 -0.857109 -1.62479 0
M  V30 5338 C 556.809 -3.55695 0.521672 0
M  V30 5339 C 556.473 -4.16227 1.88691 0
M  V30 5340 C 557.47 -4.34699 2.85189 0
M  V30 5341 C 555.155 -4.52377 2.18313 0
M  V30 5342 C 557.149 -4.88484 4.09465 0
M  V30 5343 C 554.836 -5.05868 3.42843 0
M  V30 5344 C 555.834 -5.23869 4.38235 0
M  V30 5345 O 555.522 -5.76218 5.6056 0
M  V30 5346 H 555.254 -0.651034 0.18202 0
M  V30 5347 H 557.808 -1.7026 1.14894 0
M  V30 5348 H 556.038 -3.86086 -0.217888 0
M  V30 5349 H 557.727 -4.05613 0.152682 0
M  V30 5350 H 558.493 -4.07107 2.63607 0
M  V30 5351 H 554.372 -4.37652 1.44851 0
M  V30 5352 H 557.916 -5.02451 4.83931 0
M  V30 5353 H 553.813 -5.32891 3.64277 0
M  V30 5354 H 554.581 -5.94616 5.62471 0
M  V30 5355 N 557.244 -0.608902 -1.45362 0
M  V30 5356 C 558.493 -0.10218 -2.01441 0
M  V30 5357 C 558.806 1.27546 -1.48295 0
M  V30 5358 O 560.012 1.87498 -1.96359 0
M  V30 5359 C 558.468 -0.131985 -3.59658 0
M  V30 5360 C 558.076 -1.50956 -4.21801 0
M  V30 5361 C 559.82 0.319427 -4.23296 0
M  V30 5362 C 557.727 -1.49568 -5.72174 0
M  V30 5363 H 556.657 -0.0344314 -0.753213 0
M  V30 5364 H 559.308 -0.764426 -1.6682 0
M  V30 5365 H 557.69 0.596939 -3.91475 0
M  V30 5366 H 558.864 -2.26029 -4.01556 0
M  V30 5367 H 557.179 -1.90318 -3.70362 0
M  V30 5368 H 559.776 0.349013 -5.3356 0
M  V30 5369 H 560.119 1.34237 -3.94064 0
M  V30 5370 H 560.652 -0.356273 -3.96201 0
M  V30 5371 H 557.391 -2.49626 -6.06108 0
M  V30 5372 H 556.911 -0.787542 -5.94607 0
M  V30 5373 H 558.59 -1.21989 -6.35396 0
M  V30 5374 N 558.722 1.53707 -0.348139 0
M  V30 5375 C 559.652 2.28111 0.498766 0
M  V30 5376 C 560.633 1.29851 1.09876 0
M  V30 5377 O 561.818 1.587 1.11928 0
M  V30 5378 C 558.948 3.05735 1.64753 0
M  V30 5379 C 557.902 4.11537 1.17565 0
M  V30 5380 C 557.228 4.77142 2.4133 0
M  V30 5381 C 558.528 5.21587 0.272844 0
M  V30 5382 H 560.222 2.99152 -0.121934 0
M  V30 5383 H 557.768 1.43875 -0.0600842 0
M  V30 5384 H 559.721 3.56526 2.24649 0
M  V30 5385 H 558.445 2.32354 2.2952 0
M  V30 5386 H 557.104 3.61665 0.599483 0
M  V30 5387 H 556.752 4.0035 3.04514 0
M  V30 5388 H 556.452 5.48626 2.10436 0
M  V30 5389 H 557.976 5.30719 3.01943 0
M  V30 5390 H 559.39 5.67986 0.778779 0
M  V30 5391 H 557.787 6.00074 0.0555849 0
M  V30 5392 H 558.857 4.79969 -0.689785 0
M  V30 5393 N 560.2 0.0768682 1.57412 0
M  V30 5394 C 561.11 -0.903207 2.16516 0
M  V30 5395 C 562.126 -1.32341 1.12968 0
M  V30 5396 O 563.302 -1.39507 1.45258 0
M  V30 5397 C 560.367 -2.1508 2.71922 0
M  V30 5398 C 559.428 -1.78653 3.90361 0
M  V30 5399 C 558.661 -2.97465 4.43114 0
M  V30 5400 O 558.884 -4.11638 3.94854 0
M  V30 5401 O 557.818 -2.76987 5.3438 0
M  V30 5402 H 561.644 -0.430427 3.00634 0
M  V30 5403 H 559.229 -0.146485 1.4868 0
M  V30 5404 H 561.111 -2.8823 3.07411 0
M  V30 5405 H 559.786 -2.61446 1.9086 0
M  V30 5406 H 558.693 -1.0274 3.59716 0
M  V30 5407 H 560.026 -1.37066 4.7273 0
M  V30 5408 N 561.678 -1.56367 -0.196722 0
M  V30 5409 C 563.094 -1.49916 -0.54749 0
M  V30 5410 C 563.294 -0.77659 -1.85934 0
M  V30 5411 O 562.35 -0.32644 -2.50381 0
M  V30 5412 C 563.663 -2.94577 -0.603734 0
M  V30 5413 C 565.211 -3.05239 -0.692677 0
M  V30 5414 C 565.686 -4.51308 -0.780046 0
M  V30 5415 N 567.177 -4.55453 -0.843616 0
M  V30 5416 C 567.912 -5.65786 -0.931358 0
M  V30 5417 N 567.408 -6.85812 -0.981503 0
M  V30 5418 N 569.201 -5.53695 -0.968421 0
M  V30 5419 H 561.352 -2.01761 0.663803 0
M  V30 5420 H 563.615 -0.918094 0.236238 0
M  V30 5421 H 563.321 -3.50494 0.29105 0
M  V30 5422 H 563.195 -3.47841 -1.45898 0
M  V30 5423 H 565.582 -2.49372 -1.57789 0
M  V30 5424 H 565.663 -2.55103 0.188736 0
M  V30 5425 H 565.307 -5.078 0.100811 0
M  V30 5426 H 565.237 -4.99176 -1.67724 0
M  V30 5427 H 567.728 -3.69025 -0.814176 0
M  V30 5428 H 568.041 -7.65648 -1.04892 0
M  V30 5429 H 566.386 -6.88474 -0.950208 0
M  V30 5430 H 569.577 -4.58848 -0.926072 0
M  V30 5431 H 569.75 -6.39708 -1.03334 0
M  V30 5432 N 563.156 0.464375 -1.50603 0
M  V30 5433 C 564.404 1.21356 -1.61608 0
M  V30 5434 C 564.725 1.92329 -0.321643 0
M  V30 5435 O 563.995 1.84403 0.661232 0
M  V30 5436 H 562.575 0.45094 -0.595535 0
M  V30 5437 H 565.237 0.535046 -1.87412 0
M  V30 5438 H 564.333 1.95783 -2.43054 0
M  V30 5439 N 564.634 1.40294 0.718013 0
M  V30 5440 C 565.566 1.36281 1.84283 0
M  V30 5441 C 566.579 0.268621 1.60569 0
M  V30 5442 O 567.768 0.528798 1.70487 0
M  V30 5443 C 564.868 1.09741 3.2064 0
M  V30 5444 C 564.041 2.30767 3.71571 0
M  V30 5445 C 563.1 2.00424 4.86535 0
M  V30 5446 O 562.126 2.73268 4.99313 0
M  V30 5447 N 563.328 0.980724 5.72156 0
M  V30 5448 H 566.093 2.3322 1.88225 0
M  V30 5449 H 563.654 1.34616 0.899453 0
M  V30 5450 H 565.646 0.874322 3.95143 0
M  V30 5451 H 564.216 0.214771 3.11861 0
M  V30 5452 H 563.436 2.68921 2.88228 0
M  V30 5453 H 564.724 3.11455 4.02335 0
M  V30 5454 H 564.122 0.377375 5.6444 0
M  V30 5455 H 562.679 0.817538 6.46653 0
M  V30 5456 N 566.112 -0.949982 1.2575 0
M  V30 5457 C 567.342 -1.72721 1.13363 0
M  V30 5458 C 567.75 -1.86562 -0.314842 0
M  V30 5459 O 567.093 -1.36621 -1.22803 0
M  V30 5460 C 567.155 -3.15695 1.7198 0
M  V30 5461 C 566.819 -3.25268 3.21014 0
M  V30 5462 C 567.816 -3.09222 4.17945 0
M  V30 5463 C 565.501 -3.4894 3.61312 0
M  V30 5464 C 567.495 -3.16701 5.53154 0
M  V30 5465 C 565.182 -3.56055 4.96657 0
M  V30 5466 C 566.18 -3.3995 5.92387 0
M  V30 5467 O 565.868 -3.46757 7.25269 0
M  V30 5468 H 565.6 -0.547888 0.395973 0
M  V30 5469 H 568.154 -1.20009 1.66694 0
M  V30 5470 H 566.384 -3.69791 1.13101 0
M  V30 5471 H 568.073 -3.75295 1.54624 0
M  V30 5472 H 568.839 -2.90798 3.88151 0
M  V30 5473 H 564.718 -3.60534 2.87291 0
M  V30 5474 H 568.262 -3.04048 6.27854 0
M  V30 5475 H 564.159 -3.73997 5.26115 0
M  V30 5476 H 564.927 -3.63358 7.33426 0
M  V30 5477 N 567.59 -1.07411 -1.15328 0
M  V30 5478 C 568.83 -0.807011 -1.87794 0
M  V30 5479 C 569.194 0.654987 -1.80482 0
M  V30 5480 O 570.395 1.03716 -2.47985 0
M  V30 5481 C 568.666 -1.30198 -3.32841 0
M  V30 5482 S 570.225 -1.16564 -4.23034 0
M  V30 5483 H 567.043 -0.292429 -0.648079 0
M  V30 5484 H 569.645 -1.37334 -1.39139 0
M  V30 5485 H 568.349 -2.3607 -3.35707 0
M  V30 5486 H 567.88 -0.730881 -3.86551 0
M  V30 5487 H 569.895 -0.103557 -4.96092 0
M  V30 5488 N 569.068 1.32177 -0.85831 0
M  V30 5489 C 570.015 2.28794 -0.303607 0
M  V30 5490 C 570.985 1.55213 0.591453 0
M  V30 5491 O 572.17 1.83418 0.525585 0
M  V30 5492 C 569.31 3.41475 0.49889 0
M  V30 5493 C 568.423 4.2993 -0.422373 0
M  V30 5494 C 567.558 5.29743 0.393111 0
M  V30 5495 C 566.597 6.09842 -0.525317 0
M  V30 5496 N 565.734 7.01643 0.253208 0
M  V30 5497 H 570.574 2.75631 -1.13276 0
M  V30 5498 H 568.111 1.35606 -0.570026 0
M  V30 5499 H 570.069 4.05531 0.979826 0
M  V30 5500 H 568.699 2.95779 1.29284 0
M  V30 5501 H 567.751 3.66422 -1.02171 0
M  V30 5502 H 569.063 4.85899 -1.12709 0
M  V30 5503 H 568.217 5.9942 0.937056 0
M  V30 5504 H 566.956 4.744 1.13117 0
M  V30 5505 H 565.961 5.39066 -1.08112 0
M  V30 5506 H 567.186 6.6727 -1.26205 0
M  V30 5507 H 565.132 6.48725 0.974295 0
M  V30 5508 H 565.049 7.54981 -0.392398 0
M  V30 5509 H 566.317 7.756 0.778761 0
M  V30 5510 N 570.547 0.616602 1.45037 0
M  V30 5511 C 571.51 -0.0871112 2.29034 0
M  V30 5512 C 572.51 -0.786414 1.40258 0
M  V30 5513 O 573.7 -0.633207 1.62284 0
M  V30 5514 C 570.832 -1.13369 3.21497 0
M  V30 5515 H 572.025 0.651497 2.92738 0
M  V30 5516 H 569.578 0.376058 1.51709 0
M  V30 5517 H 570.313 -1.90277 2.62612 0
M  V30 5518 H 570.098 -0.636358 3.86902 0
M  V30 5519 H 571.588 -1.62627 3.84633 0
M  V30 5520 N 572.025 -1.5352 0.356285 0
M  V30 5521 C 572.973 -2.26945 -0.50978 0
M  V30 5522 C 573.967 -1.29569 -1.09125 0
M  V30 5523 O 575.173 -1.47231 -1.03552 0
M  V30 5524 H 571.548 -0.729368 -0.183102 0
M  V30 5525 H 573.519 -2.98111 0.131374 0
M  V30 5526 C 572.268 -3.06466 -1.64237 0
M  V30 5527 H 571.591 -3.81233 -1.20423 0
M  V30 5528 H 573.031 -3.61035 -2.22327 0
M  V30 5529 C 571.49 -2.16737 -2.57928 0
M  V30 5530 O 572.02 -1.77195 -3.60507 0
M  V30 5531 N 570.226 -1.81558 -2.26903 0
M  V30 5532 H 569.773 -2.13913 -1.43524 0
M  V30 5533 H 569.731 -1.21806 -2.89846 0
M  V30 5534 N 573.503 -0.0852151 -1.57369 0
M  V30 5535 C 574.78 0.622534 -1.85429 0
M  V30 5536 C 575.16 1.86962 -0.980229 0
M  V30 5537 O 574.508 2.28445 -0.0500219 0
M  V30 5538 C 574.718 0.947374 -3.35896 0
M  V30 5539 C 576.066 1.31509 -4.03721 0
M  V30 5540 O 577.09 1.03869 -3.40719 0
M  V30 5541 O 575.949 1.83231 -5.14868 0
M  V30 5542 H 573.043 0.310513 -0.766492 0
M  V30 5543 H 575.589 -0.117164 -1.69295 0
M  V30 5544 H 574.361 0.0622264 -3.91251 0
M  V30 5545 H 573.984 1.74338 -3.5734 0
M  V30 5546 N 574.981 1.5647 0.188427 0
M  V30 5547 C 576.206 1.85486 0.927891 0
M  V30 5548 C 576.631 0.669575 1.75779 0
M  V30 5549 O 575.989 -0.381573 1.77239 0
M  V30 5550 C 576.037 3.12784 1.7944 0
M  V30 5551 O 575.141 2.93805 2.894 0
M  V30 5552 H 574.482 0.610585 0.260925 0
M  V30 5553 H 577.012 2.037 0.191729 0
M  V30 5554 H 577.022 3.43749 2.19774 0
M  V30 5555 H 575.697 3.98671 1.18468 0
M  V30 5556 H 574.274 2.74153 2.52774 0
M  V30 5557 N 576.459 -0.456382 1.50847 0
M  V30 5558 C 577.706 -1.20736 1.62571 0
M  V30 5559 C 578.034 -1.9163 0.332904 0
M  V30 5560 O 577.289 -1.8343 -0.682058 0
M  V30 5561 C 577.588 -2.26336 2.76599 0
M  V30 5562 C 577.254 -1.7259 4.16562 0
M  V30 5563 C 575.916 -1.57654 4.54641 0
M  V30 5564 C 578.268 -1.32877 5.03977 0
M  V30 5565 C 575.596 -1.0145 5.77862 0
M  V30 5566 C 577.948 -0.7811 6.27759 0
M  V30 5567 C 576.612 -0.618488 6.64628 0
M  V30 5568 H 575.882 -0.441803 0.594888 0
M  V30 5569 H 578.529 -0.501169 1.84826 0
M  V30 5570 H 576.834 -3.0292 2.48489 0
M  V30 5571 H 578.531 -2.84227 2.82871 0
M  V30 5572 H 575.121 -1.85187 3.86528 0
M  V30 5573 H 579.305 -1.43245 4.75179 0
M  V30 5574 H 574.561 -0.876109 6.0509 0
M  V30 5575 H 578.735 -0.464783 6.94847 0
M  V30 5576 H 576.362 -0.180838 7.59985 0
M  V30 5577 N 577.937 -1.40673 -0.710563 0
M  V30 5578 C 579.185 -1.38947 -1.46759 0
M  V30 5579 C 579.506 0.00572879 -1.94999 0
M  V30 5580 O 578.776 0.961358 -1.70689 0
M  V30 5581 H 577.356 -0.5114 -0.544499 0
M  V30 5582 H 580.018 -1.75773 -0.842012 0
M  V30 5583 H 579.114 -2.06745 -2.33801 0
M  V30 5584 N 579.415 0.9433 -1.26252 0
M  V30 5585 C 580.325 2.07532 -1.09397 0
M  V30 5586 C 581.341 1.73977 -0.0280449 0
M  V30 5587 O 582.517 2.00067 -0.231337 0
M  V30 5588 C 579.582 3.39002 -0.726523 0
M  V30 5589 C 578.643 3.86353 -1.87163 0
M  V30 5590 C 577.876 5.11549 -1.52162 0
M  V30 5591 O 578.099 5.68834 -0.422385 0
M  V30 5592 O 577.033 5.53889 -2.35565 0
M  V30 5593 H 580.859 2.24658 -2.04359 0
M  V30 5594 H 578.444 1.05988 -1.05295 0
M  V30 5595 H 580.326 4.18 -0.534236 0
M  V30 5596 H 579.001 3.2312 0.193721 0
M  V30 5597 H 577.908 3.0831 -2.11886 0
M  V30 5598 H 579.241 4.06752 -2.77152 0
M  V30 5599 N 580.893 1.08022 1.14757 0
M  V30 5600 C 581.856 0.71048 2.1791 0
M  V30 5601 C 582.856 -0.252731 1.58801 0
M  V30 5602 O 584.046 -0.0327915 1.74169 0
M  V30 5603 C 581.178 0.0483203 3.40866 0
M  V30 5604 H 582.371 1.62384 2.52134 0
M  V30 5605 H 579.924 0.877595 1.29337 0
M  V30 5606 H 580.659 -0.876959 3.12218 0
M  V30 5607 H 580.444 0.741189 3.85031 0
M  V30 5608 H 581.934 -0.195471 4.17142 0
M  V30 5609 N 582.371 -1.3172 0.865308 0
M  V30 5610 C 583.596 -2.01591 0.487415 0
M  V30 5611 C 584.021 -1.6455 -0.911307 0
M  V30 5612 O 583.379 -0.851689 -1.6005 0
M  V30 5613 C 583.427 -3.54759 0.646401 0
M  V30 5614 O 582.531 -4.11185 -0.316284 0
M  V30 5615 H 581.872 -0.634884 0.194468 0
M  V30 5616 H 584.402 -1.68024 1.16744 0
M  V30 5617 H 584.412 -4.04438 0.537932 0
M  V30 5618 H 583.087 -3.8106 1.66632 0
M  V30 5619 H 581.664 -3.72543 -0.163162 0
M  V30 5620 N 583.85 -0.624285 -1.44708 0
M  V30 5621 C 585.099 -0.123539 -2.01321 0
M  V30 5622 C 585.412 1.25966 -1.49639 0
M  V30 5623 O 586.618 1.85405 -1.98336 0
M  V30 5624 C 585.074 -0.170124 -3.59498 0
M  V30 5625 C 584.682 -1.55421 -4.20176 0
M  V30 5626 C 586.426 0.274513 -4.23611 0
M  V30 5627 C 584.332 -1.55628 -5.70556 0
M  V30 5628 H 583.263 -0.0424183 -0.752806 0
M  V30 5629 H 585.913 -0.782076 -1.65999 0
M  V30 5630 H 584.296 0.555385 -3.92086 0
M  V30 5631 H 585.47 -2.30276 -3.99136 0
M  V30 5632 H 583.784 -1.94235 -3.68323 0
M  V30 5633 H 586.382 0.292402 -5.339 0
M  V30 5634 H 586.725 1.3005 -3.95465 0
M  V30 5635 H 587.258 -0.398275 -3.95801 0
M  V30 5636 H 583.997 -2.56041 -6.03426 0
M  V30 5637 H 583.517 -0.850563 -5.93739 0
M  V30 5638 H 585.196 -1.28721 -6.34066 0
M  V30 5639 N 585.328 1.53329 -0.364422 0
M  V30 5640 C 586.577 2.00421 0.226747 0
M  V30 5641 C 586.89 1.25581 1.49963 0
M  V30 5642 O 588.096 1.63256 2.16933 0
M  V30 5643 C 586.552 3.57017 0.454618 0
M  V30 5644 C 586.16 4.40734 -0.803568 0
M  V30 5645 C 587.904 4.12468 1.00351 0
M  V30 5646 C 585.811 5.8888 -0.545345 0
M  V30 5647 H 584.741 0.748787 0.0885082 0
M  V30 5648 H 587.392 1.7703 -0.482983 0
M  V30 5649 H 585.774 3.76558 1.22558 0
M  V30 5650 H 586.948 4.32967 -1.57723 0
M  V30 5651 H 585.263 3.96381 -1.27559 0
M  V30 5652 H 587.86 5.20783 1.212 0
M  V30 5653 H 588.203 3.6699 1.9653 0
M  V30 5654 H 588.736 3.96721 0.29274 0
M  V30 5655 H 585.475 6.38633 -1.47743 0
M  V30 5656 H 584.995 5.99499 0.189842 0
M  V30 5657 H 586.674 6.46776 -0.170425 0
M  V30 5658 N 586.806 0.0935595 1.57322 0
M  V30 5659 C 588.053 -0.570509 1.94297 0
M  V30 5660 C 588.381 -1.68286 0.97519 0
M  V30 5661 O 587.636 -1.95699 -0.00548655 0
M  V30 5662 C 587.935 -1.16692 3.37813 0
M  V30 5663 C 587.601 -0.178509 4.50547 0
M  V30 5664 C 586.263 0.0933475 4.81109 0
M  V30 5665 C 588.615 0.496472 5.1883 0
M  V30 5666 C 585.943 1.0469 5.77284 0
M  V30 5667 C 588.295 1.43849 6.16028 0
M  V30 5668 C 586.959 1.71859 6.44997 0
M  V30 5669 H 586.229 -0.208764 0.710984 0
M  V30 5670 H 588.876 0.169066 1.90752 0
M  V30 5671 H 587.181 -1.98271 3.37929 0
M  V30 5672 H 588.878 -1.6884 3.63722 0
M  V30 5673 H 585.468 -0.400584 4.26724 0
M  V30 5674 H 589.652 0.299584 4.95395 0
M  V30 5675 H 584.908 1.27094 5.98044 0
M  V30 5676 H 589.082 1.96734 6.68034 0
M  V30 5677 H 586.709 2.45906 7.19329 0
M  V30 5678 N 588.284 -1.56567 -0.180126 0
M  V30 5679 C 589.509 -1.85975 -0.918041 0
M  V30 5680 C 589.934 -0.678888 -1.75422 0
M  V30 5681 O 589.292 0.372168 -1.77439 0
M  V30 5682 C 589.34 -3.13731 -1.77779 0
M  V30 5683 O 588.444 -2.95335 -2.87838 0
M  V30 5684 H 587.785 -0.61196 -0.257683 0
M  V30 5685 H 590.315 -2.03798 -0.180923 0
M  V30 5686 H 590.325 -3.4491 -2.17948 0
M  V30 5687 H 589 -3.99293 -1.16352 0
M  V30 5688 H 587.577 -2.7549 -2.51316 0
M  V30 5689 N 589.762 0.448376 -1.51087 0
M  V30 5690 C 590.71 1.56407 -1.72161 0
M  V30 5691 C 591.704 1.58878 -0.587721 0
M  V30 5692 O 592.91 1.62755 -0.768822 0
M  V30 5693 H 589.285 0.519423 -0.543786 0
M  V30 5694 H 591.256 1.35803 -2.65707 0
M  V30 5695 C 590.005 2.94163 -1.85373 0
M  V30 5696 H 589.328 2.9299 -2.72024 0
M  V30 5697 H 590.768 3.71625 -2.04135 0
M  V30 5698 C 589.227 3.31317 -0.610803 0
M  V30 5699 O 589.757 4.00985 0.239636 0
M  V30 5700 N 587.963 2.86966 -0.458127 0
M  V30 5701 H 587.51 2.30443 -1.15124 0
M  V30 5702 H 587.468 3.12188 0.372289 0
M  V30 5703 N 591.24 1.41047 0.703093 0
M  V30 5704 C 592.488 1.39723 1.4602 0
M  V30 5705 C 592.809 0.00461257 1.94999 0
M  V30 5706 O 592.079 -0.952292 1.71196 0
M  V30 5707 H 590.659 0.514281 0.541779 0
M  V30 5708 H 593.321 1.76217 0.832678 0
M  V30 5709 H 592.417 2.07982 2.32701 0
M  V30 5710 N 592.718 -0.936591 1.26751 0
M  V30 5711 C 594.134 -1.21095 1.03963 0
M  V30 5712 C 594.334 -2.00156 -0.232372 0
M  V30 5713 O 593.39 -2.3434 -0.940274 0
M  V30 5714 C 594.703 -1.96775 2.27377 0
M  V30 5715 C 596.251 -2.09749 2.32324 0
M  V30 5716 C 596.726 -2.88832 3.55443 0
M  V30 5717 N 598.217 -2.96404 3.55948 0
M  V30 5718 C 598.952 -3.58036 4.47881 0
M  V30 5719 N 598.448 -4.21132 5.50109 0
M  V30 5720 N 600.241 -3.55353 4.35523 0
M  V30 5721 H 592.392 -0.408173 2.08441 0
M  V30 5722 H 594.655 -0.243139 0.91629 0
M  V30 5723 H 594.361 -1.46094 3.19921 0
M  V30 5724 H 594.235 -2.97424 2.31989 0
M  V30 5725 H 596.622 -2.5962 1.40291 0
M  V30 5726 H 596.703 -1.08347 2.31721 0
M  V30 5727 H 596.347 -2.39647 4.47808 0
M  V30 5728 H 596.277 -3.90499 3.53296 0
M  V30 5729 H 598.768 -2.51552 2.82011 0
M  V30 5730 H 599.081 -4.66071 6.16439 0
M  V30 5731 H 597.426 -4.19705 5.53961 0
M  V30 5732 H 600.617 -3.05256 3.54875 0
M  V30 5733 H 600.79 -4.03097 5.07363 0
M  V30 5734 N 594.196 -1.08629 -1.14182 0
M  V30 5735 C 595.473 -0.73002 -1.81466 0
M  V30 5736 C 595.853 0.785996 -1.95922 0
M  V30 5737 O 595.201 1.70535 -1.52086 0
M  V30 5738 C 595.411 -1.45957 -3.17014 0
M  V30 5739 C 596.759 -1.62008 -3.92477 0
M  V30 5740 O 597.783 -1.42141 -3.26611 0
M  V30 5741 O 596.642 -1.94806 -5.106 0
M  V30 5742 H 593.736 -0.261307 -0.784632 0
M  V30 5743 H 596.282 -1.188 -1.2118 0
M  V30 5744 H 595.054 -2.49221 -3.01669 0
M  V30 5745 H 594.677 -0.993222 -3.84995 0
M  V30 5746 N 595.674 1.31259 -0.872281 0
M  V30 5747 C 596.604 2.30929 -0.345554 0
M  V30 5748 C 597.585 1.60449 0.5648 0
M  V30 5749 O 598.77 1.8814 0.481335 0
M  V30 5750 C 595.9 3.44348 0.451823 0
M  V30 5751 C 594.854 4.26435 -0.365641 0
M  V30 5752 C 594.18 5.31785 0.557562 0
M  V30 5753 C 595.48 4.97159 -1.60095 0
M  V30 5754 H 597.174 2.75234 -1.17841 0
M  V30 5755 H 594.72 1.3232 -0.568094 0
M  V30 5756 H 596.673 4.13128 0.830854 0
M  V30 5757 H 595.397 2.98816 1.31821 0
M  V30 5758 H 594.056 3.59326 -0.726649 0
M  V30 5759 H 593.704 4.82502 1.4213 0
M  V30 5760 H 593.404 5.87598 0.0144878 0
M  V30 5761 H 594.928 6.03424 0.933387 0
M  V30 5762 H 596.342 5.58523 -1.29323 0
M  V30 5763 H 594.739 5.62779 -2.08327 0
M  V30 5764 H 595.809 4.24012 -2.35249 0
M  V30 5765 N 597.152 0.631951 1.44375 0
M  V30 5766 C 598.082 -0.0593243 2.33425 0
M  V30 5767 C 599.063 -0.833964 1.48253 0
M  V30 5768 O 600.248 -0.799682 1.76971 0
M  V30 5769 C 597.378 -1.04096 3.31333 0
M  V30 5770 C 596.332 -0.377899 4.26328 0
M  V30 5771 C 595.658 -1.4695 5.14111 0
M  V30 5772 C 596.958 0.716371 5.17364 0
M  V30 5773 H 598.652 0.684287 2.91475 0
M  V30 5774 H 596.198 0.330518 1.40156 0
M  V30 5775 H 598.151 -1.53331 3.92514 0
M  V30 5776 H 596.875 -1.81547 2.71493 0
M  V30 5777 H 595.534 0.0938054 3.6648 0
M  V30 5778 H 595.182 -2.2349 4.50623 0
M  V30 5779 H 594.882 -1.03121 5.78481 0
M  V30 5780 H 596.406 -1.96363 5.78164 0
M  V30 5781 H 597.82 0.307089 5.72477 0
M  V30 5782 H 596.217 1.07784 5.90341 0
M  V30 5783 H 597.287 1.58316 4.58327 0
M  V30 5784 N 598.631 -1.53133 0.372548 0
M  V30 5785 C 599.88 -2.00539 -0.216115 0
M  V30 5786 C 600.193 -1.26374 -1.49295 0
M  V30 5787 O 601.399 -1.64404 -2.16064 0
M  V30 5788 C 599.855 -3.57253 -0.435678 0
M  V30 5789 C 599.463 -4.40302 0.82693 0
M  V30 5790 C 601.207 -4.12995 -0.981618 0
M  V30 5791 C 599.114 -5.88583 0.576567 0
M  V30 5792 H 598.044 -0.749246 -0.084536 0
M  V30 5793 H 600.695 -1.76771 0.492364 0
M  V30 5794 H 599.077 -3.77202 -1.20559 0
M  V30 5795 H 600.251 -4.32124 1.60017 0
M  V30 5796 H 598.566 -3.95699 1.29659 0
M  V30 5797 H 601.163 -5.21418 -1.18436 0
M  V30 5798 H 601.506 -3.68027 -1.94581 0
M  V30 5799 H 602.039 -3.96871 -0.271696 0
M  V30 5800 H 598.778 -6.37841 1.51128 0
M  V30 5801 H 598.298 -5.99592 -0.158047 0
M  V30 5802 H 599.977 -6.46676 0.204722 0
M  V30 5803 N 600.109 -0.101901 -1.5727 0
M  V30 5804 C 601.357 0.559091 -1.94213 0
M  V30 5805 C 601.678 1.68297 -0.984948 0
M  V30 5806 O 600.948 1.95863 -0.0381975 0
M  V30 5807 H 599.528 0.20952 -0.717015 0
M  V30 5808 H 602.19 -0.166831 -1.94185 0
M  V30 5809 H 601.286 0.96485 -2.96811 0
M  V30 5810 N 601.587 1.56661 0.17182 0
M  V30 5811 C 602.864 1.72838 0.915778 0
M  V30 5812 C 603.244 0.66316 2.00413 0
M  V30 5813 O 602.592 -0.322123 2.26218 0
M  V30 5814 C 602.802 3.16019 1.48097 0
M  V30 5815 C 604.15 3.76962 1.95408 0
M  V30 5816 O 605.174 3.19294 1.57892 0
M  V30 5817 O 604.033 4.78219 2.64516 0
M  V30 5818 H 601.127 0.705797 0.431021 0
M  V30 5819 H 603.673 1.68947 0.159689 0
M  V30 5820 H 602.445 3.85031 0.697618 0
M  V30 5821 H 602.068 3.24234 2.30126 0
M  V30 5822 N 603.065 -0.440357 1.51323 0
M  V30 5823 C 604.314 -1.18697 1.63076 0
M  V30 5824 C 604.627 -1.92418 0.35136 0
M  V30 5825 O 605.833 -2.69258 0.348221 0
M  V30 5826 C 604.289 -2.15849 2.87988 0
M  V30 5827 C 603.897 -1.47789 4.22921 0
M  V30 5828 C 605.641 -2.90962 3.09098 0
M  V30 5829 C 603.548 -2.43407 5.38987 0
M  V30 5830 H 602.478 -0.44676 0.607389 0
M  V30 5831 H 605.129 -0.454313 1.77787 0
M  V30 5832 H 603.511 -2.92537 2.66905 0
M  V30 5833 H 604.685 -0.7668 4.54375 0
M  V30 5834 H 603 -0.848404 4.07665 0
M  V30 5835 H 605.597 -3.62584 3.92985 0
M  V30 5836 H 605.94 -3.52133 2.22053 0
M  V30 5837 H 606.473 -2.21381 3.30507 0
M  V30 5838 H 603.212 -1.86929 6.28282 0
M  V30 5839 H 602.732 -3.12579 5.11913 0
M  V30 5840 H 604.411 -3.046 5.70813 0
M  V30 5841 N 604.543 -1.41418 -0.695603 0
M  V30 5842 C 605.493 -1.39731 -1.80165 0
M  V30 5843 C 606.477 -0.271689 -1.5859 0
M  V30 5844 O 607.669 -0.512354 -1.69422 0
M  V30 5845 C 604.798 -1.28187 -3.1847 0
M  V30 5846 C 603.884 -2.45612 -3.45739 0
M  V30 5847 N 604.275 -3.71077 -3.43708 0
M  V30 5848 C 602.573 -2.39424 -3.76288 0
M  V30 5849 C 603.274 -4.48957 -3.69882 0
M  V30 5850 N 602.25 -3.7907 -3.89624 0
M  V30 5851 H 606.052 -2.34656 -1.76957 0
M  V30 5852 H 603.566 -1.35473 -0.89559 0
M  V30 5853 H 605.563 -1.2506 -3.977 0
M  V30 5854 H 604.223 -0.342468 -3.22889 0
M  V30 5855 H 605.234 -4.03963 -3.2409 0
M  V30 5856 H 601.911 -1.53955 -3.88077 0
M  V30 5857 H 603.301 -5.57887 -3.74448 0
M  V30 5858 N 606.021 0.929856 -1.27246 0
M  V30 5859 C 607.269 1.674 -1.13233 0
M  V30 5860 C 607.59 1.92311 0.322744 0
M  V30 5861 O 606.86 1.52784 1.22612 0
M  V30 5862 H 605.44 0.620411 -0.416052 0
M  V30 5863 H 608.102 1.11663 -1.59741 0
M  V30 5864 H 607.198 2.64308 -1.65975 0
M  V30 5865 N 607.499 1.09233 1.13605 0
M  V30 5866 C 608.915 0.82163 1.36826 0
M  V30 5867 C 609.115 -0.565021 1.93416 0
M  V30 5868 O 608.171 -1.32026 2.15234 0
M  V30 5869 C 609.484 1.91124 2.32147 0
M  V30 5870 C 611.032 1.93824 2.45767 0
M  V30 5871 C 611.507 3.01923 3.44393 0
M  V30 5872 N 612.998 3.01149 3.51942 0
M  V30 5873 C 613.733 3.81434 4.2813 0
M  V30 5874 N 613.229 4.71621 5.07489 0
M  V30 5875 N 615.022 3.69702 4.23411 0
M  V30 5876 H 607.173 1.98633 0.752234 0
M  V30 5877 H 609.436 0.862482 0.393482 0
M  V30 5878 H 609.142 2.90862 1.97717 0
M  V30 5879 H 609.016 1.78777 3.32142 0
M  V30 5880 H 611.403 0.94726 2.79483 0
M  V30 5881 H 611.484 2.10248 1.45703 0
M  V30 5882 H 611.128 4.01232 3.11408 0
M  V30 5883 H 611.058 2.82742 4.44257 0
M  V30 5884 H 613.549 2.35789 2.95317 0
M  V30 5885 H 613.862 5.29468 5.62924 0
M  V30 5886 H 612.207 4.75658 5.06729 0
M  V30 5887 H 615.398 2.98606 3.60489 0
M  V30 5888 H 615.571 4.32509 4.82535 0
M  V30 5889 N 608.977 -1.30795 0.87923 0
M  V30 5890 C 610.202 -2.01063 0.508769 0
M  V30 5891 C 610.627 -1.65508 -0.893803 0
M  V30 5892 O 609.985 -0.868616 -1.59138 0
M  V30 5893 C 610.033 -3.54054 0.683991 0
M  V30 5894 O 609.137 -4.11498 -0.272654 0
M  V30 5895 H 608.478 -0.632786 0.201191 0
M  V30 5896 H 611.008 -1.66776 1.18519 0
M  V30 5897 H 611.018 -4.03845 0.580798 0
M  V30 5898 H 609.693 -3.79271 1.70665 0
M  V30 5899 H 608.27 -3.72695 -0.12364 0
M  V30 5900 N 610.455 -0.639598 -1.44038 0
M  V30 5901 C 611.702 -0.14748 -2.01962 0
M  V30 5902 C 612.03 1.23372 -1.50365 0
M  V30 5903 O 611.285 1.8345 -0.681501 0
M  V30 5904 C 611.584 -0.0925348 -3.5728 0
M  V30 5905 C 611.25 -1.41365 -4.28167 0
M  V30 5906 C 609.912 -1.77545 -4.47248 0
M  V30 5907 C 612.264 -2.2853 -4.68427 0
M  V30 5908 C 609.592 -3.00583 -5.03852 0
M  V30 5909 C 611.944 -3.50846 -5.26393 0
M  V30 5910 C 610.608 -3.8724 -5.43692 0
M  V30 5911 H 609.878 -0.0539666 -0.739032 0
M  V30 5912 H 612.525 -0.827599 -1.72694 0
M  V30 5913 H 610.83 0.670987 -3.86012 0
M  V30 5914 H 612.527 0.304891 -3.99839 0
M  V30 5915 H 609.117 -1.1221 -4.13651 0
M  V30 5916 H 613.301 -2.0187 -4.5339 0
M  V30 5917 H 608.557 -3.28846 -5.15432 0
M  V30 5918 H 612.731 -4.18616 -5.56537 0
M  V30 5919 H 610.358 -4.8266 -5.87319 0
M  V30 5920 N 611.933 1.52934 -0.380664 0
M  V30 5921 C 613.349 1.59571 -0.0302429 0
M  V30 5922 C 613.549 1.39509 1.45394 0
M  V30 5923 O 612.605 1.20777 2.21741 0
M  V30 5924 C 613.918 2.96519 -0.499691 0
M  V30 5925 C 615.466 3.09672 -0.455204 0
M  V30 5926 C 615.941 4.49056 -0.900703 0
M  V30 5927 N 617.432 4.55215 -0.856367 0
M  V30 5928 C 618.167 5.61282 -1.17259 0
M  V30 5929 N 617.663 6.75035 -1.55885 0
M  V30 5930 N 619.456 5.51343 -1.0944 0
M  V30 5931 H 611.607 1.64224 -1.347 0
M  V30 5932 H 613.87 0.771033 -0.551554 0
M  V30 5933 H 613.576 3.16388 -1.53595 0
M  V30 5934 H 613.45 3.77052 0.105789 0
M  V30 5935 H 615.837 2.89504 0.571949 0
M  V30 5936 H 615.918 2.31113 -1.09638 0
M  V30 5937 H 615.562 4.69964 -1.92604 0
M  V30 5938 H 615.492 5.26068 -0.236629 0
M  V30 5939 H 617.983 3.73546 -0.572013 0
M  V30 5940 H 618.296 7.51926 -1.784 0
M  V30 5941 H 616.641 6.76388 -1.59764 0
M  V30 5942 H 619.832 4.61356 -0.791713 0
M  V30 5943 H 620.005 6.33905 -1.34417 0
M  V30 5944 N 613.412 0.11024 1.57214 0
M  V30 5945 C 614.661 -0.549638 1.94067 0
M  V30 5946 C 614.974 -1.68388 0.995234 0
M  V30 5947 O 616.18 -2.40593 1.25807 0
M  V30 5948 C 614.636 -1.02912 3.44873 0
M  V30 5949 C 614.244 0.0761861 4.47935 0
M  V30 5950 C 615.988 -1.66087 3.9066 0
M  V30 5951 C 613.895 -0.419502 5.8991 0
M  V30 5952 H 612.825 -0.209092 0.724428 0
M  V30 5953 H 615.476 0.188683 1.82527 0
M  V30 5954 H 613.858 -1.82159 3.51616 0
M  V30 5955 H 615.032 0.852185 4.52851 0
M  V30 5956 H 613.347 0.614052 4.11847 0
M  V30 5957 H 615.944 -2.04272 4.94143 0
M  V30 5958 H 616.287 -2.53591 3.30148 0
M  V30 5959 H 616.82 -0.933959 3.86681 0
M  V30 5960 H 613.559 0.419277 6.54158 0
M  V30 5961 H 613.079 -1.16217 5.88433 0
M  V30 5962 H 614.758 -0.883577 6.40938 0
M  V30 5963 N 614.89 -1.56749 -0.16351 0
M  V30 5964 C 615.82 -2.00042 -1.20438 0
M  V30 5965 C 616.801 -0.877256 -1.45733 0
M  V30 5966 O 617.986 -1.1439 -1.56935 0
M  V30 5967 C 615.116 -2.36697 -2.54149 0
M  V30 5968 C 614.07 -3.52046 -2.43408 0
M  V30 5969 C 613.396 -3.74466 -3.81679 0
M  V30 5970 C 614.696 -4.85247 -1.93216 0
M  V30 5971 H 616.39 -2.87244 -0.844477 0
M  V30 5972 H 613.936 -1.38194 -0.40478 0
M  V30 5973 H 615.889 -2.65582 -3.27176 0
M  V30 5974 H 614.613 -1.46414 -2.91943 0
M  V30 5975 H 613.272 -3.23301 -1.72834 0
M  V30 5976 H 612.92 -2.81461 -4.1688 0
M  V30 5977 H 612.62 -4.52084 -3.75359 0
M  V30 5978 H 614.144 -4.0576 -4.5628 0
M  V30 5979 H 615.558 -5.12957 -2.56023 0
M  V30 5980 H 613.955 -5.66556 -1.97825 0
M  V30 5981 H 615.025 -4.7672 -0.88689 0
M  V30 5982 N 616.368 0.432326 -1.51554 0
M  V30 5983 C 617.614 1.18309 -1.64714 0
M  V30 5984 C 617.947 1.90745 -0.364696 0
M  V30 5985 O 617.222 1.8381 0.635936 0
M  V30 5986 C 617.505 2.1961 -2.85383 0
M  V30 5987 C 617.358 1.51223 -4.23617 0
M  V30 5988 C 618.677 3.20538 -3.01569 0
M  V30 5989 H 615.796 0.428751 -0.599451 0
M  V30 5990 H 618.438 0.471689 -1.84052 0
M  V30 5991 H 616.588 2.8028 -2.69027 0
M  V30 5992 H 618.26 0.938516 -4.51652 0
M  V30 5993 H 616.503 0.814501 -4.26085 0
M  V30 5994 H 617.174 2.25024 -5.04052 0
M  V30 5995 H 619.65 2.69926 -3.16669 0
M  V30 5996 H 618.526 3.88706 -3.87555 0
M  V30 5997 H 618.787 3.86933 -2.13859 0
M  V30 5998 N 617.846 1.41785 0.688094 0
M  V30 5999 C 618.756 1.46596 1.83158 0
M  V30 6000 C 619.772 0.355862 1.70322 0
M  V30 6001 O 620.948 0.604737 1.92106 0
M  V30 6002 C 618.013 1.35322 3.192 0
M  V30 6003 C 617.074 2.56711 3.4409 0
M  V30 6004 C 616.307 2.45965 4.73642 0
M  V30 6005 O 616.53 1.48827 5.50642 0
M  V30 6006 O 615.464 3.35859 4.99482 0
M  V30 6007 H 619.29 2.43083 1.82056 0
M  V30 6008 H 616.875 1.23404 0.842126 0
M  V30 6009 H 618.757 1.31347 4.00407 0
M  V30 6010 H 617.432 0.419536 3.2097 0
M  V30 6011 H 616.339 2.66262 2.62784 0
M  V30 6012 H 617.672 3.48933 3.47141 0
M  V30 6013 N 619.324 -0.923095 1.27737 0
M  V30 6014 C 620.549 -1.71054 1.17283 0
M  V30 6015 C 620.974 -1.86208 -0.266153 0
M  V30 6016 O 620.332 -1.36545 -1.1927 0
M  V30 6017 C 620.38 -3.0854 1.86642 0
M  V30 6018 O 619.484 -3.95528 1.16752 0
M  V30 6019 H 618.825 -0.524136 0.407649 0
M  V30 6020 H 621.355 -1.15487 1.6889 0
M  V30 6021 H 621.365 -3.58828 1.94182 0
M  V30 6022 H 620.04 -2.96828 2.91317 0
M  V30 6023 H 618.617 -3.53967 1.17312 0
M  V30 6024 N 620.802 -1.09834 -1.13024 0
M  V30 6025 C 621.734 -0.699379 -2.18269 0
M  V30 6026 C 622.747 0.260841 -1.60697 0
M  V30 6027 O 623.936 0.0462538 -1.7844 0
M  V30 6028 C 621.036 -0.0104537 -3.38898 0
M  V30 6029 C 620.209 -0.993275 -4.25973 0
M  V30 6030 C 619.268 -0.336982 -5.2512 0
M  V30 6031 O 618.294 -0.985892 -5.60597 0
M  V30 6032 N 619.496 0.90716 -5.73368 0
M  V30 6033 H 622.261 -1.60486 -2.5311 0
M  V30 6034 H 619.822 -0.986337 -1.28386 0
M  V30 6035 H 621.814 0.43991 -4.02302 0
M  V30 6036 H 620.384 0.797335 -3.0226 0
M  V30 6037 H 619.604 -1.62208 -3.5928 0
M  V30 6038 H 620.892 -1.65876 -4.81002 0
M  V30 6039 H 620.29 1.45384 -5.46699 0
M  V30 6040 H 618.847 1.30077 -6.38689 0
M  V30 6041 N 622.28 1.30327 -0.886154 0
M  V30 6042 C 623.228 2.30052 -0.343317 0
M  V30 6043 C 624.222 1.60212 0.550305 0
M  V30 6044 O 625.428 1.74674 0.434609 0
M  V30 6045 H 621.803 0.746306 -0.0923681 0
M  V30 6046 H 623.774 2.73294 -1.19804 0
M  V30 6047 C 622.523 3.45079 0.426107 0
M  V30 6048 H 621.846 3.99003 -0.25227 0
M  V30 6049 H 623.286 4.16931 0.771009 0
M  V30 6050 C 621.745 2.95195 1.62363 0
M  V30 6051 O 622.275 2.95323 2.723 0
M  V30 6052 N 620.481 2.51192 1.4612 0
M  V30 6053 H 620.028 2.51286 0.566832 0
M  V30 6054 H 619.986 2.18173 2.2638 0
M  V30 6055 N 623.758 0.647228 1.43697 0
M  V30 6056 C 625.174 0.314256 1.56476 0
M  V30 6057 C 625.374 -1.18191 1.63196 0
M  V30 6058 O 624.43 -1.96655 1.58376 0
M  V30 6059 C 625.743 1.02034 2.82859 0
M  V30 6060 C 627.291 1.00002 2.96595 0
M  V30 6061 C 627.766 1.68689 4.25803 0
M  V30 6062 N 629.257 1.65424 4.32654 0
M  V30 6063 C 629.992 2.1545 5.31384 0
M  V30 6064 N 629.488 2.73738 6.36427 0
M  V30 6065 N 631.281 2.05985 5.22998 0
M  V30 6066 H 623.432 1.61821 1.37578 0
M  V30 6067 H 625.695 0.680184 0.660344 0
M  V30 6068 H 625.401 2.07542 2.83935 0
M  V30 6069 H 625.275 0.568146 3.72897 0
M  V30 6070 H 627.662 -0.0466319 2.95063 0
M  V30 6071 H 627.743 1.49086 2.07863 0
M  V30 6072 H 627.387 2.73308 4.28095 0
M  V30 6073 H 627.317 1.17076 5.13421 0
M  V30 6074 H 629.808 1.22884 3.57363 0
M  V30 6075 H 630.121 3.09602 7.08072 0
M  V30 6076 H 628.466 2.77796 6.37067 0
M  V30 6077 H 631.657 1.60157 4.39849 0
M  V30 6078 H 631.83 2.45281 5.99784 0
M  V30 6079 N 625.236 -1.5273 0.388769 0
M  V30 6080 C 626.484 -2.01174 -0.193208 0
M  V30 6081 C 626.805 -1.27705 -1.47365 0
M  V30 6082 O 626.075 -0.396966 -1.91836 0
M  V30 6083 H 624.655 -0.743287 -0.0743871 0
M  V30 6084 H 627.317 -1.87826 0.520336 0
M  V30 6085 H 626.413 -3.09477 -0.403803 0
M  V30 6086 N 626.714 -0.118576 -1.57153 0
M  V30 6087 C 627.96 0.540326 -1.95469 0
M  V30 6088 C 628.293 1.66356 -1.00196 0
M  V30 6089 O 627.568 1.94461 -0.039104 0
M  V30 6090 C 627.851 1.07342 -3.43729 0
M  V30 6091 C 627.704 -0.0463732 -4.49776 0
M  V30 6092 C 629.023 1.96442 -3.93826 0
M  V30 6093 H 626.142 0.19494 -0.710751 0
M  V30 6094 H 628.784 -0.19405 -1.89006 0
M  V30 6095 H 626.934 1.69925 -3.49368 0
M  V30 6096 H 628.606 -0.681648 -4.56236 0
M  V30 6097 H 626.849 -0.709574 -4.27957 0
M  V30 6098 H 627.52 0.367856 -5.50773 0
M  V30 6099 H 629.996 1.43731 -3.90488 0
M  V30 6100 H 628.872 2.3066 -4.98084 0
M  V30 6101 H 629.133 2.89077 -3.34495 0
M  V30 6102 N 628.193 1.56834 0.155195 0
M  V30 6103 C 629.156 1.96748 1.17571 0
M  V30 6104 C 630.156 0.853006 1.3631 0
M  V30 6105 O 631.346 1.11978 1.33441 0
M  V30 6106 C 628.478 2.27631 2.53765 0
M  V30 6107 H 629.671 2.88085 0.833498 0
M  V30 6108 H 627.224 1.51141 0.398242 0
M  V30 6109 H 627.959 1.39059 2.92973 0
M  V30 6110 H 627.744 3.0888 2.41527 0
M  V30 6111 H 629.234 2.59377 3.27282 0
M  V30 6112 N 629.671 -0.424282 1.51781 0
M  V30 6113 C 630.917 -1.17434 1.6534 0
M  V30 6114 C 631.25 -1.90549 0.374806 0
M  V30 6115 O 630.525 -1.84145 -0.626179 0
M  V30 6116 C 630.808 -2.18093 2.86544 0
M  V30 6117 C 630.661 -1.48975 4.24413 0
M  V30 6118 C 631.98 -3.18934 3.03264 0
M  V30 6119 H 629.099 -0.425566 0.601716 0
M  V30 6120 H 631.741 -0.461921 1.84299 0
M  V30 6121 H 629.891 -2.78849 2.7051 0
M  V30 6122 H 631.563 -0.914551 4.52143 0
M  V30 6123 H 629.806 -0.791893 4.26511 0
M  V30 6124 H 630.477 -2.22347 5.05238 0
M  V30 6125 H 632.953 -2.68243 3.18096 0
M  V30 6126 H 631.829 -3.86645 3.89611 0
M  V30 6127 H 632.09 -3.85793 2.15908 0
M  V30 6128 N 631.149 -1.42148 -0.680565 0
M  V30 6129 C 632.397 -1.42029 -1.43779 0
M  V30 6130 C 632.718 -0.0356347 -1.94967 0
M  V30 6131 O 631.988 0.924936 -1.7269 0
M  V30 6132 H 630.568 -0.522835 -0.533529 0
M  V30 6133 H 633.23 -1.7752 -0.804538 0
M  V30 6134 H 632.326 -2.11658 -2.29363 0
M  V30 6135 N 632.627 0.916307 -1.28225 0
M  V30 6136 C 633.873 1.66765 -1.154 0
M  V30 6137 C 634.206 1.91912 0.297251 0
M  V30 6138 O 633.481 1.51766 1.21644 0
M  V30 6139 C 633.764 3.02715 -1.95028 0
M  V30 6140 C 633.617 2.84738 -3.48201 0
M  V30 6141 C 634.936 4.03215 -1.76369 0
M  V30 6142 H 632.055 0.605205 -0.42059 0
M  V30 6143 H 634.697 1.06255 -1.57512 0
M  V30 6144 H 632.847 3.54365 -1.59242 0
M  V30 6145 H 634.519 2.40118 -3.9388 0
M  V30 6146 H 632.762 2.19848 -3.73964 0
M  V30 6147 H 633.433 3.8127 -3.99171 0
M  V30 6148 H 635.909 3.60617 -2.07593 0
M  V30 6149 H 634.785 4.96306 -2.34459 0
M  V30 6150 H 635.046 4.36288 -0.71452 0
M  V30 6151 N 634.105 1.10431 1.1244 0
M  V30 6152 C 635.068 0.756542 2.16354 0
M  V30 6153 C 636.068 -0.21899 1.59302 0
M  V30 6154 O 637.258 0.00415969 1.742 0
M  V30 6155 C 634.39 0.120612 3.40687 0
M  V30 6156 H 635.583 1.67696 2.48632 0
M  V30 6157 H 633.136 0.904832 1.27446 0
M  V30 6158 H 633.871 -0.810536 3.14008 0
M  V30 6159 H 633.656 0.822693 3.83372 0
M  V30 6160 H 635.146 -0.106945 4.17463 0
M  V30 6161 N 635.583 -1.29855 0.893053 0
M  V30 6162 C 636.83 -1.95826 0.515585 0
M  V30 6163 C 637.158 -1.70451 -0.936842 0
M  V30 6164 O 636.413 -1.00657 -1.67829 0
M  V30 6165 C 636.712 -3.49515 0.746588 0
M  V30 6166 C 636.378 -3.94955 2.17535 0
M  V30 6167 C 635.04 -4.07073 2.56603 0
M  V30 6168 C 637.392 -4.18536 3.10607 0
M  V30 6169 C 634.72 -4.40138 3.87938 0
M  V30 6170 C 637.072 -4.53073 4.41484 0
M  V30 6171 C 635.736 -4.634 4.80434 0
M  V30 6172 H 635.006 -0.71658 0.188666 0
M  V30 6173 H 637.653 -1.54574 1.13045 0
M  V30 6174 H 635.958 -3.9177 0.0487551 0
M  V30 6175 H 637.655 -3.98644 0.434009 0
M  V30 6176 H 634.245 -3.86035 1.86212 0
M  V30 6177 H 638.429 -4.08646 2.81641 0
M  V30 6178 H 633.685 -4.46335 4.17846 0
M  V30 6179 H 637.859 -4.70269 5.13634 0
M  V30 6180 H 635.486 -4.88775 5.82239 0
M  V30 6181 N 637.061 -0.65484 -1.43351 0
M  V30 6182 C 638.011 0.0581325 -2.27926 0
M  V30 6183 C 638.995 0.793188 -1.3999 0
M  V30 6184 O 640.187 0.675387 -1.63608 0
M  V30 6185 C 637.316 1.02272 -3.27712 0
M  V30 6186 C 636.402 0.286048 -4.23134 0
M  V30 6187 N 636.793 -0.698298 -5.00957 0
M  V30 6188 C 635.091 0.527272 -4.42872 0
M  V30 6189 C 635.792 -1.1357 -5.70506 0
M  V30 6190 N 634.768 -0.469631 -5.41568 0
M  V30 6191 H 638.57 -0.697182 -2.85511 0
M  V30 6192 H 636.084 -0.482252 -1.55074 0
M  V30 6193 H 638.081 1.5483 -3.87083 0
M  V30 6194 H 636.741 1.77807 -2.71688 0
M  V30 6195 H 637.752 -1.07708 -5.06576 0
M  V30 6196 H 634.429 1.26367 -3.97916 0
M  V30 6197 H 635.819 -1.95027 -6.42973 0
M  V30 6198 N 638.539 1.52521 -0.396863 0
M  V30 6199 C 639.769 2.05792 0.182485 0
M  V30 6200 C 640.177 1.26784 1.40436 0
M  V30 6201 O 639.52 0.309617 1.81072 0
M  V30 6202 C 639.582 3.54291 0.609781 0
M  V30 6203 C 639.246 4.5426 -0.499674 0
M  V30 6204 C 640.243 5.01812 -1.35944 0
M  V30 6205 C 637.928 4.97827 -0.668864 0
M  V30 6206 C 639.922 5.91562 -2.37346 0
M  V30 6207 C 637.609 5.87376 -1.68621 0
M  V30 6208 C 638.607 6.34137 -2.53692 0
M  V30 6209 O 638.295 7.21915 -3.53686 0
M  V30 6210 H 638.027 0.675362 0.0293583 0
M  V30 6211 H 640.581 1.97539 -0.56281 0
M  V30 6212 H 638.811 3.60188 1.40717 0
M  V30 6213 H 640.5 3.90267 1.11565 0
M  V30 6214 H 641.266 4.68879 -1.24008 0
M  V30 6215 H 637.145 4.60997 -0.0163971 0
M  V30 6216 H 640.689 6.27983 -3.03782 0
M  V30 6217 H 636.586 6.19723 -1.80593 0
M  V30 6218 H 637.354 7.39996 -3.49784 0
M  V30 6219 N 640.017 0.126909 1.57088 0
M  V30 6220 C 640.967 -0.831678 2.1229 0
M  V30 6221 C 641.951 -1.22292 1.04564 0
M  V30 6222 O 643.143 -1.19269 1.30782 0
M  V30 6223 C 640.272 -2.07866 2.73215 0
M  V30 6224 C 639.358 -1.71143 3.88035 0
M  V30 6225 N 639.749 -1.05136 4.94753 0
M  V30 6226 C 638.047 -2.00549 3.98367 0
M  V30 6227 C 638.748 -0.877257 5.75047 0
M  V30 6228 N 637.724 -1.40477 5.25135 0
M  V30 6229 H 641.526 -0.317926 2.92175 0
M  V30 6230 H 639.04 -0.0753052 1.62225 0
M  V30 6231 H 641.037 -2.77516 3.11111 0
M  V30 6232 H 639.697 -2.59778 1.94796 0
M  V30 6233 H 640.708 -0.71442 5.12949 0
M  V30 6234 H 637.385 -2.54452 3.30999 0
M  V30 6235 H 638.775 -0.358536 6.70943 0
M  V30 6236 N 641.495 -1.56914 -0.146875 0
M  V30 6237 C 642.425 -2.01308 -1.1831 0
M  V30 6238 C 643.406 -0.892664 -1.44795 0
M  V30 6239 O 644.591 -1.16048 -1.55713 0
M  V30 6240 C 641.721 -2.3938 -2.51624 0
M  V30 6241 C 640.675 -3.54608 -2.3966 0
M  V30 6242 C 640.001 -3.78493 -3.77686 0
M  V30 6243 C 641.301 -4.87269 -1.88058 0
M  V30 6244 H 642.995 -2.88123 -0.813964 0
M  V30 6245 H 640.541 -1.38615 -0.3901 0
M  V30 6246 H 642.494 -2.69037 -3.24341 0
M  V30 6247 H 641.218 -1.49502 -2.90373 0
M  V30 6248 H 639.877 -3.25116 -1.69396 0
M  V30 6249 H 639.525 -2.85866 -4.13871 0
M  V30 6250 H 639.225 -4.56039 -3.70543 0
M  V30 6251 H 640.749 -4.10576 -4.51951 0
M  V30 6252 H 642.163 -5.15644 -2.50568 0
M  V30 6253 H 640.56 -5.68622 -1.91805 0
M  V30 6254 H 641.63 -4.77634 -0.836277 0
M  V30 6255 N 642.974 0.416227 -1.52004 0
M  V30 6256 C 643.906 1.52552 -1.71058 0
M  V30 6257 C 644.919 1.51693 -0.59102 0
M  V30 6258 O 646.108 1.56087 -0.865973 0
M  V30 6259 C 643.208 2.91455 -1.72937 0
M  V30 6260 C 642.381 3.16584 -3.01816 0
M  V30 6261 C 641.44 4.35322 -2.95603 0
M  V30 6262 O 640.466 4.32947 -3.6952 0
M  V30 6263 N 641.668 5.40049 -2.12903 0
M  V30 6264 H 644.433 1.36604 -2.66757 0
M  V30 6265 H 641.994 0.60544 -1.50153 0
M  V30 6266 H 643.986 3.68944 -1.66321 0
M  V30 6267 H 642.556 3.00895 -0.847418 0
M  V30 6268 H 641.776 2.27203 -3.22137 0
M  V30 6269 H 643.064 3.30213 -3.87088 0
M  V30 6270 H 642.462 5.44823 -1.52265 0
M  V30 6271 H 641.019 6.16308 -2.1215 0
M  V30 6272 N 644.452 1.42507 0.673017 0
M  V30 6273 C 645.868 1.25472 0.986355 0
M  V30 6274 C 646.068 0.160181 2.00862 0
M  V30 6275 O 645.124 -0.467993 2.48125 0
M  V30 6276 C 646.437 2.61219 1.48947 0
M  V30 6277 C 647.985 2.68589 1.60715 0
M  V30 6278 C 648.46 4.04707 2.14422 0
M  V30 6279 N 649.951 4.0667 2.21752 0
M  V30 6280 C 650.686 5.0881 2.64386 0
M  V30 6281 N 650.182 6.21332 3.0646 0
M  V30 6282 N 651.975 4.96166 2.64151 0
M  V30 6283 H 644.126 2.124 -0.00378532 0
M  V30 6284 H 646.389 0.946046 0.0608367 0
M  V30 6285 H 646.095 3.42179 0.812812 0
M  V30 6286 H 645.969 2.85261 2.46791 0
M  V30 6287 H 648.356 1.87974 2.27486 0
M  V30 6288 H 648.437 2.48333 0.613552 0
M  V30 6289 H 648.081 4.8578 1.48258 0
M  V30 6290 H 648.011 4.22315 3.14575 0
M  V30 6291 H 650.502 3.25438 1.92089 0
M  V30 6292 H 650.815 6.95118 3.37684 0
M  V30 6293 H 649.16 6.24835 3.04313 0
M  V30 6294 H 652.351 4.07334 2.30644 0
M  V30 6295 H 652.524 5.759 2.97057 0
M  V30 6296 N 645.93 -0.909495 1.28709 0
M  V30 6297 C 647.176 -1.66151 1.16283 0
M  V30 6298 C 647.509 -1.92067 -0.287069 0
M  V30 6299 O 646.784 -1.52409 -1.20837 0
M  V30 6300 C 647.067 -3.01676 1.9663 0
M  V30 6301 C 646.92 -2.82888 3.49707 0
M  V30 6302 C 648.239 -4.02274 1.78504 0
M  V30 6303 H 645.358 -0.602966 0.423793 0
M  V30 6304 H 648 -1.05418 1.58073 0
M  V30 6305 H 646.15 -3.53515 1.61119 0
M  V30 6306 H 647.822 -2.38026 3.95147 0
M  V30 6307 H 646.065 -2.17862 3.75125 0
M  V30 6308 H 646.736 -3.79147 4.01187 0
M  V30 6309 H 649.212 -3.59511 2.09503 0
M  V30 6310 H 648.088 -4.95056 2.37088 0
M  V30 6311 H 648.349 -4.35903 0.737647 0
M  V30 6312 N 647.408 -1.11026 -1.11852 0
M  V30 6313 C 648.655 -0.85646 -1.83497 0
M  V30 6314 C 648.983 0.617938 -1.84423 0
M  V30 6315 O 648.238 1.47194 -1.28966 0
M  V30 6316 C 648.537 -1.35777 -3.30604 0
M  V30 6317 C 648.203 -2.84465 -3.49843 0
M  V30 6318 C 646.865 -3.25068 -3.54802 0
M  V30 6319 C 649.217 -3.80251 -3.56453 0
M  V30 6320 C 646.545 -4.60194 -3.63921 0
M  V30 6321 C 648.897 -5.15188 -3.67102 0
M  V30 6322 C 647.561 -5.55356 -3.70319 0
M  V30 6323 H 646.831 -0.313401 -0.671462 0
M  V30 6324 H 649.478 -1.38792 -1.31943 0
M  V30 6325 H 647.783 -0.746455 -3.84624 0
M  V30 6326 H 649.48 -1.13779 -3.8452 0
M  V30 6327 H 646.07 -2.52054 -3.46651 0
M  V30 6328 H 650.254 -3.49986 -3.51886 0
M  V30 6329 H 645.51 -4.90728 -3.64686 0
M  V30 6330 H 649.684 -5.89248 -3.71159 0
M  V30 6331 H 647.311 -6.60054 -3.77138 0
M  V30 6332 N 648.886 1.2938 -0.899927 0
M  V30 6333 C 650.132 1.96206 -0.536153 0
M  V30 6334 C 650.487 1.69647 0.90761 0
M  V30 6335 O 649.78 0.999089 1.63489 0
M  V30 6336 C 649.974 3.49114 -0.765113 0
M  V30 6337 C 649.803 3.90538 -2.22958 0
M  V30 6338 C 648.573 4.15395 -2.87706 0
M  V30 6339 C 650.771 4.0224 -3.20479 0
M  V30 6340 N 648.753 4.43389 -4.24593 0
M  V30 6341 C 650.124 4.34288 -4.42486 0
M  V30 6342 C 652.179 3.84716 -3.16066 0
M  V30 6343 C 650.882 4.50638 -5.6064 0
M  V30 6344 C 652.908 4.02276 -4.33507 0
M  V30 6345 C 652.27 4.34684 -5.54283 0
M  V30 6346 H 648.369 0.742364 -0.245804 0
M  V30 6347 H 650.953 1.56314 -1.16078 0
M  V30 6348 H 649.124 3.88028 -0.169861 0
M  V30 6349 H 650.856 4.03035 -0.366751 0
M  V30 6350 H 647.611 4.09164 -2.385 0
M  V30 6351 H 648.035 4.61494 -4.95331 0
M  V30 6352 H 652.677 3.58724 -2.23778 0
M  V30 6353 H 650.395 4.75467 -6.5342 0
M  V30 6354 H 653.981 3.90169 -4.31578 0
M  V30 6355 H 652.861 4.47988 -6.43643 0
M  V30 6356 N 650.364 0.662433 1.43002 0
M  V30 6357 C 651.592 0.187615 2.06048 0
M  V30 6358 C 652.007 -1.15039 1.49705 0
M  V30 6359 O 651.364 -1.71209 0.631956 0
M  V30 6360 C 651.415 0.100498 3.6136 0
M  V30 6361 O 651.136 1.38562 4.15611 0
M  V30 6362 C 652.637 -0.399298 4.41498 0
M  V30 6363 H 649.857 0.0941675 0.664359 0
M  V30 6364 H 652.401 0.905681 1.83351 0
M  V30 6365 H 650.556 -0.568181 3.83211 0
M  V30 6366 H 650.97 1.25084 5.09366 0
M  V30 6367 H 652.444 -0.409187 5.50481 0
M  V30 6368 H 652.921 -1.43232 4.15188 0
M  V30 6369 H 653.527 0.23721 4.24638 0
M  V30 6370 N 651.842 -1.52309 0.404946 0
M  V30 6371 C 653.119 -1.94237 -0.230544 0
M  V30 6372 C 653.499 -1.34154 -1.6299 0
M  V30 6373 O 652.847 -0.515713 -2.22604 0
M  V30 6374 C 653.057 -3.48166 -0.241106 0
M  V30 6375 C 654.405 -4.22074 -0.462488 0
M  V30 6376 O 655.429 -3.54754 -0.320644 0
M  V30 6377 O 654.288 -5.41443 -0.741708 0
M  V30 6378 H 651.382 -0.813766 -0.147358 0
M  V30 6379 H 653.928 -1.6333 0.460587 0
M  V30 6380 H 652.7 -3.84269 0.738467 0
M  V30 6381 H 652.323 -3.85422 -0.97651 0
M  V30 6382 N 653.32 -0.135238 -1.57019 0
M  V30 6383 C 654.548 0.526066 -2.001 0
M  V30 6384 C 654.963 1.59184 -1.01519 0
M  V30 6385 O 654.32 1.82497 -0.0104258 0
M  V30 6386 C 654.371 1.13744 -3.43139 0
M  V30 6387 O 654.092 0.114259 -4.37951 0
M  V30 6388 C 655.593 1.8805 -4.01438 0
M  V30 6389 H 652.813 0.137962 -0.656664 0
M  V30 6390 H 655.357 -0.226359 -2.03243 0
M  V30 6391 H 653.512 1.84056 -3.40885 0
M  V30 6392 H 653.926 0.56058 -5.21496 0
M  V30 6393 H 655.4 2.26133 -5.03555 0
M  V30 6394 H 655.877 2.76194 -3.41487 0
M  V30 6395 H 656.483 1.22464 -4.07287 0
M  V30 6396 N 654.798 1.5699 0.138552 0
M  V30 6397 C 656.044 1.84081 0.85099 0
M  V30 6398 C 656.377 0.718107 1.80435 0
M  V30 6399 O 655.652 -0.277633 1.92508 0
M  V30 6400 C 655.935 3.21699 1.61808 0
M  V30 6401 C 655.788 4.44544 0.685633 0
M  V30 6402 C 657.107 3.5664 2.57868 0
M  V30 6403 H 654.226 0.669592 0.307922 0
M  V30 6404 H 656.868 1.89646 0.11588 0
M  V30 6405 H 655.018 3.17086 2.24474 0
M  V30 6406 H 656.69 4.61248 0.0693179 0
M  V30 6407 H 654.933 4.338 -0.00421993 0
M  V30 6408 H 655.604 5.3746 1.25858 0
M  V30 6409 H 658.08 3.61918 2.05316 0
M  V30 6410 H 656.956 4.53946 3.08584 0
M  V30 6411 H 657.217 2.83036 3.39622 0
M  V30 6412 N 656.276 -0.40816 1.52223 0
M  V30 6413 C 657.208 -1.51642 1.71864 0
M  V30 6414 C 658.221 -1.51378 0.599056 0
M  V30 6415 O 659.41 -1.55626 0.874239 0
M  V30 6416 C 656.51 -2.90534 1.74481 0
M  V30 6417 C 655.683 -3.14979 3.03491 0
M  V30 6418 C 654.742 -4.33749 2.97907 0
M  V30 6419 O 653.768 -4.30982 3.71811 0
M  V30 6420 N 654.97 -5.38912 2.15764 0
M  V30 6421 H 657.735 -1.35188 2.67478 0
M  V30 6422 H 655.296 -0.597468 1.50472 0
M  V30 6423 H 657.288 -3.68056 1.68275 0
M  V30 6424 H 655.858 -3.00441 0.863363 0
M  V30 6425 H 655.078 -2.25492 3.23337 0
M  V30 6426 H 656.366 -3.28156 3.88833 0
M  V30 6427 H 655.764 -5.44008 1.55152 0
M  V30 6428 H 654.321 -6.15174 2.15415 0
M  V30 6429 N 657.755 -1.42862 -0.66545 0
M  V30 6430 C 658.703 -1.47319 -1.8 0
M  V30 6431 C 659.697 -0.347963 -1.65788 0
M  V30 6432 O 660.903 -0.521406 -1.72283 0
M  V30 6433 H 657.278 -0.461588 -0.593667 0
M  V30 6434 H 659.249 -2.42876 -1.7336 0
M  V30 6435 C 657.998 -1.40152 -3.18203 0
M  V30 6436 H 657.321 -2.26035 -3.2977 0
M  V30 6437 H 658.761 -1.47331 -3.9758 0
M  V30 6438 C 657.22 -0.117493 -3.36695 0
M  V30 6439 O 657.75 0.826058 -3.93115 0
M  V30 6440 N 655.956 -0.0316218 -2.90583 0
M  V30 6441 H 655.503 -0.800247 -2.44855 0
M  V30 6442 H 655.461 0.826835 -3.03333 0
M  V30 6443 N 659.233 0.902656 -1.29189 0
M  V30 6444 C 660.18 2.00643 -1.14066 0
M  V30 6445 C 661.15 1.66064 -0.0347756 0
M  V30 6446 O 662.335 1.8973 -0.201752 0
M  V30 6447 C 659.475 3.35214 -0.820104 0
M  V30 6448 C 658.588 3.82594 -2.00614 0
M  V30 6449 C 657.723 5.05727 -1.62522 0
M  V30 6450 C 656.762 5.45469 -2.77724 0
M  V30 6451 N 655.899 6.59789 -2.40048 0
M  V30 6452 H 660.739 2.1291 -2.08502 0
M  V30 6453 H 658.276 1.04271 -1.03759 0
M  V30 6454 H 660.234 4.12643 -0.614949 0
M  V30 6455 H 658.864 3.22682 0.0873452 0
M  V30 6456 H 657.916 3.01226 -2.32308 0
M  V30 6457 H 659.228 4.07999 -2.86946 0
M  V30 6458 H 658.382 5.90732 -1.38277 0
M  V30 6459 H 657.121 4.82155 -0.733333 0
M  V30 6460 H 656.126 4.59 -3.02653 0
M  V30 6461 H 657.351 5.71024 -3.67572 0
M  V30 6462 H 655.297 6.37826 -1.53343 0
M  V30 6463 H 655.214 6.84975 -3.19914 0
M  V30 6464 H 656.482 7.4807 -2.19116 0
M  V30 6465 N 660.711 1.11618 1.11262 0
M  V30 6466 C 661.957 0.867463 1.83311 0
M  V30 6467 C 662.29 -0.605366 1.84524 0
M  V30 6468 O 661.565 -1.44704 1.29965 0
M  V30 6469 C 661.848 1.43207 3.30399 0
M  V30 6470 C 661.701 2.97265 3.3757 0
M  V30 6471 C 663.02 1.08454 4.26528 0
M  V30 6472 H 660.139 0.316578 0.665543 0
M  V30 6473 H 662.781 1.38137 1.30454 0
M  V30 6474 H 660.931 0.994982 3.75543 0
M  V30 6475 H 662.603 3.49591 3.00971 0
M  V30 6476 H 660.846 3.33237 2.77733 0
M  V30 6477 H 661.517 3.31859 4.41105 0
M  V30 6478 H 663.993 1.4619 3.89574 0
M  V30 6479 H 662.869 1.50633 5.27826 0
M  V30 6480 H 663.13 -0.00444568 4.421 0
M  V30 6481 N 662.189 -1.289 0.906776 0
M  V30 6482 C 663.436 -1.95269 0.536326 0
M  V30 6483 C 663.764 -1.71435 -0.918711 0
M  V30 6484 O 663.019 -1.02431 -1.66752 0
M  V30 6485 C 663.318 -3.48704 0.783617 0
M  V30 6486 C 662.984 -3.92626 2.21711 0
M  V30 6487 C 661.646 -4.04329 2.60906 0
M  V30 6488 C 663.998 -4.15218 3.15029 0
M  V30 6489 C 661.326 -4.35998 3.92584 0
M  V30 6490 C 663.678 -4.48365 4.46264 0
M  V30 6491 C 662.342 -4.58278 4.85322 0
M  V30 6492 H 661.612 -0.714538 0.196256 0
M  V30 6493 H 664.259 -1.53366 1.14678 0
M  V30 6494 H 662.564 -3.91696 0.0903048 0
M  V30 6495 H 664.261 -3.98162 0.476267 0
M  V30 6496 H 660.851 -3.84038 1.90296 0
M  V30 6497 H 665.035 -4.05636 2.8596 0
M  V30 6498 H 660.291 -4.41878 4.22557 0
M  V30 6499 H 664.465 -4.64795 5.18593 0
M  V30 6500 H 662.092 -4.82573 5.87391 0
M  V30 6501 N 663.667 -0.670007 -1.42649 0
M  V30 6502 C 664.892 -0.196955 -2.06463 0
M  V30 6503 C 665.317 1.1352 -1.49983 0
M  V30 6504 O 664.675 1.705 -0.616397 0
M  V30 6505 C 664.723 -0.137381 -3.60338 0
M  V30 6506 O 663.827 0.895523 -4.02559 0
M  V30 6507 H 663.168 -0.102579 -0.656029 0
M  V30 6508 H 665.698 -0.917669 -1.82866 0
M  V30 6509 H 665.708 0.0403625 -4.0798 0
M  V30 6510 H 664.383 -1.10977 -4.0082 0
M  V30 6511 H 662.96 0.689209 -3.66476 0
M  V30 6512 N 665.145 1.52092 -0.413018 0
M  V30 6513 C 666.391 2.02154 0.161737 0
M  V30 6514 C 666.724 1.29789 1.44459 0
M  V30 6515 O 665.999 0.405378 1.90229 0
M  V30 6516 C 666.282 3.5781 0.405463 0
M  V30 6517 C 666.135 4.40819 -0.894335 0
M  V30 6518 C 667.454 4.23821 1.18591 0
M  V30 6519 H 664.573 0.734769 0.0573077 0
M  V30 6520 H 667.215 1.81948 -0.547247 0
M  V30 6521 H 665.365 3.75158 1.0094 0
M  V30 6522 H 667.037 4.35175 -1.53039 0
M  V30 6523 H 665.28 4.06877 -1.50444 0
M  V30 6524 H 665.951 5.47819 -0.678144 0
M  V30 6525 H 668.427 4.10596 0.674573 0
M  V30 6526 H 667.303 5.32663 1.3252 0
M  V30 6527 H 667.564 3.83038 2.20758 0
M  V30 6528 N 666.623 0.143563 1.56945 0
M  V30 6529 C 667.9 -0.553285 1.87612 0
M  V30 6530 C 668.28 -1.83195 1.04894 0
M  V30 6531 O 667.628 -2.28102 0.134773 0
M  V30 6532 C 667.838 -0.822055 3.3918 0
M  V30 6533 C 669.186 -1.16435 4.08324 0
M  V30 6534 O 670.21 -0.911522 3.4434 0
M  V30 6535 O 669.069 -1.63996 5.21313 0
M  V30 6536 H 666.163 -0.281851 0.777489 0
M  V30 6537 H 668.709 0.179916 1.68744 0
M  V30 6538 H 667.481 0.0830265 3.91212 0
M  V30 6539 H 667.104 -1.60956 3.63564 0
M  V30 6540 N 668.101 -1.57061 -0.130224 0
M  V30 6541 C 669.35 -1.83446 -0.838488 0
M  V30 6542 C 669.663 -0.727468 -1.81569 0
M  V30 6543 O 670.869 -0.877394 -2.56932 0
M  V30 6544 C 669.325 -3.25201 -1.54182 0
M  V30 6545 C 668.933 -4.4388 -0.606178 0
M  V30 6546 C 670.677 -3.60844 -2.23588 0
M  V30 6547 C 668.584 -5.76661 -1.31209 0
M  V30 6548 H 667.514 -0.684185 -0.316871 0
M  V30 6549 H 670.165 -1.83273 -0.0912059 0
M  V30 6550 H 668.547 -3.1981 -2.33533 0
M  V30 6551 H 669.721 -4.60545 0.153308 0
M  V30 6552 H 668.036 -4.16395 -0.0196705 0
M  V30 6553 H 670.633 -4.57313 -2.77072 0
M  V30 6554 H 670.976 -2.87724 -3.00867 0
M  V30 6555 H 671.509 -3.67971 -1.51137 0
M  V30 6556 H 668.248 -6.52922 -0.580823 0
M  V30 6557 H 667.768 -5.63902 -2.04387 0
M  V30 6558 H 669.447 -6.20035 -1.8484 0
M  V30 6559 N 669.579 0.400081 -1.52437 0
M  V30 6560 C 670.527 1.50851 -1.7705 0
M  V30 6561 C 671.521 1.56928 -0.637969 0
M  V30 6562 O 672.727 1.60226 -0.820212 0
M  V30 6563 H 669.102 0.50186 -0.560036 0
M  V30 6564 H 671.073 1.27281 -2.69893 0
M  V30 6565 C 669.822 2.88117 -1.94638 0
M  V30 6566 H 669.145 2.84187 -2.81208 0
M  V30 6567 H 670.585 3.64942 -2.15855 0
M  V30 6568 C 669.044 3.29206 -0.715899 0
M  V30 6569 O 669.574 4.01544 0.111944 0
M  V30 6570 N 667.78 2.85363 -0.549191 0
M  V30 6571 H 667.327 2.26664 -1.22397 0
M  V30 6572 H 667.285 3.13214 0.27278 0
M  V30 6573 N 671.057 1.43213 0.657864 0
M  V30 6574 C 672.305 1.44298 1.41501 0
M  V30 6575 C 672.626 0.0666478 1.94886 0
M  V30 6576 O 671.896 -0.897345 1.74139 0
M  V30 6577 H 670.476 0.531257 0.525143 0
M  V30 6578 H 673.138 1.78777 0.776195 0
M  V30 6579 H 672.234 2.1528 2.25966 0
M  V30 6580 N 672.536 -0.895792 1.29666 0
M  V30 6581 C 673.466 -2.01673 1.17688 0
M  V30 6582 C 674.447 -1.69955 0.0701317 0
M  V30 6583 O 675.632 -1.9258 0.250289 0
M  V30 6584 C 672.762 -3.36568 0.856681 0
M  V30 6585 C 671.716 -3.82509 1.92017 0
M  V30 6586 C 671.042 -5.14574 1.4532 0
M  V30 6587 C 672.342 -4.02409 3.32963 0
M  V30 6588 H 674.036 -2.11953 2.11463 0
M  V30 6589 H 671.582 -1.01839 1.01807 0
M  V30 6590 H 673.535 -4.14498 0.759577 0
M  V30 6591 H 672.259 -3.26391 -0.116763 0
M  V30 6592 H 670.918 -3.068 2.00673 0
M  V30 6593 H 670.566 -5.00815 0.468325 0
M  V30 6594 H 670.266 -5.46283 2.16447 0
M  V30 6595 H 671.79 -5.9504 1.36968 0
M  V30 6596 H 673.204 -4.70808 3.27127 0
M  V30 6597 H 671.601 -4.45478 4.02082 0
M  V30 6598 H 672.671 -3.06616 3.75652 0
M  V30 6599 N 674.014 -1.12206 -1.10668 0
M  V30 6600 C 674.962 -0.782918 -2.19028 0
M  V30 6601 C 675.956 0.229175 -1.67843 0
M  V30 6602 O 677.162 0.0876295 -1.79787 0
M  V30 6603 H 673.537 -0.235339 -0.714227 0
M  V30 6604 H 675.508 -1.70527 -2.44874 0
M  V30 6605 C 674.257 -0.25116 -3.46792 0
M  V30 6606 H 673.58 -1.02123 -3.86537 0
M  V30 6607 H 675.02 -0.0521409 -4.23968 0
M  V30 6608 C 673.479 1.02037 -3.21076 0
M  V30 6609 O 674.009 2.09862 -3.42522 0
M  V30 6610 N 672.215 0.946348 -2.74759 0
M  V30 6611 H 671.762 0.068777 -2.57508 0
M  V30 6612 H 671.72 1.79775 -2.57931 0
M  V30 6613 N 675.492 1.28418 -0.913599 0
M  V30 6614 C 676.741 1.94265 -0.542572 0
M  V30 6615 C 677.054 1.72709 0.918207 0
M  V30 6616 O 678.26 2.32778 1.39738 0
M  V30 6617 C 676.716 3.47956 -0.919507 0
M  V30 6618 C 676.324 3.78291 -2.4 0
M  V30 6619 C 678.068 4.19962 -0.619057 0
M  V30 6620 C 675.975 5.2529 -2.71707 0
M  V30 6621 H 674.905 0.727213 -0.199192 0
M  V30 6622 H 677.556 1.45931 -1.11249 0
M  V30 6623 H 675.938 3.9502 -0.278372 0
M  V30 6624 H 677.112 3.42035 -3.08786 0
M  V30 6625 H 675.427 3.19456 -2.67089 0
M  V30 6626 H 678.024 5.28178 -0.832623 0
M  V30 6627 H 678.367 4.13935 0.443126 0
M  V30 6628 H 678.9 3.78674 -1.21865 0
M  V30 6629 H 675.639 5.36394 -3.76778 0
M  V30 6630 H 675.159 5.62743 -2.07559 0
M  V30 6631 H 676.838 5.93027 -2.58703 0
M  V30 6632 N 676.97 0.677563 1.42291 0
M  V30 6633 C 677.902 -0.0380218 2.29168 0
M  V30 6634 C 678.915 -0.762714 1.43828 0
M  V30 6635 O 680.104 -0.616413 1.67519 0
M  V30 6636 C 677.204 -1.07761 3.21311 0
M  V30 6637 C 676.377 -0.42618 4.35319 0
M  V30 6638 C 675.436 -1.36592 5.08162 0
M  V30 6639 O 674.462 -0.865174 5.62586 0
M  V30 6640 N 675.664 -2.69909 5.13935 0
M  V30 6641 H 678.429 0.707766 2.91223 0
M  V30 6642 H 675.99 0.52219 1.53247 0
M  V30 6643 H 677.982 -1.70761 3.6691 0
M  V30 6644 H 676.552 -1.72511 2.60689 0
M  V30 6645 H 675.772 0.383385 3.92331 0
M  V30 6646 H 677.06 0.0275277 5.08793 0
M  V30 6647 H 676.458 -3.13129 4.71134 0
M  V30 6648 H 675.015 -3.2815 5.6317 0
M  V30 6649 N 678.448 -1.51871 0.421078 0
M  V30 6650 C 679.358 -2.31077 -0.405069 0
M  V30 6651 C 680.374 -1.39301 -1.04265 0
M  V30 6652 O 681.55 -1.72376 -1.04157 0
M  V30 6653 C 678.615 -3.12556 -1.50032 0
M  V30 6654 C 677.676 -4.20088 -0.884559 0
M  V30 6655 C 676.909 -4.97673 -1.92762 0
M  V30 6656 O 677.132 -4.75696 -3.14753 0
M  V30 6657 O 676.066 -5.82203 -1.52719 0
M  V30 6658 H 679.892 -3.02742 0.241086 0
M  V30 6659 H 677.477 -1.48263 0.183991 0
M  V30 6660 H 679.359 -3.6326 -2.13589 0
M  V30 6661 H 678.034 -2.43672 -2.13086 0
M  V30 6662 H 676.941 -3.73502 -0.211379 0
M  V30 6663 H 678.274 -4.91298 -0.297763 0
M  V30 6664 N 679.926 -0.151884 -1.56866 0
M  V30 6665 C 681.172 0.498742 -1.96572 0
M  V30 6666 C 681.505 1.64194 -1.03702 0
M  V30 6667 O 680.78 1.94334 -0.0803432 0
M  V30 6668 C 681.063 1.00027 -3.45929 0
M  V30 6669 C 680.916 -0.141767 -4.49577 0
M  V30 6670 C 682.235 1.88044 -3.97904 0
M  V30 6671 H 679.354 0.17982 -0.714726 0
M  V30 6672 H 681.996 -0.234097 -1.88552 0
M  V30 6673 H 680.146 1.62476 -3.52894 0
M  V30 6674 H 681.818 -0.778269 -4.54687 0
M  V30 6675 H 680.061 -0.80019 -4.26356 0
M  V30 6676 H 680.732 0.250947 -5.51429 0
M  V30 6677 H 683.208 1.35416 -3.93449 0
M  V30 6678 H 682.084 2.20043 -5.02864 0
M  V30 6679 H 682.345 2.81916 -3.40552 0
M  V30 6680 N 681.404 1.57128 0.121893 0
M  V30 6681 C 682.334 2.03165 1.15092 0
M  V30 6682 C 683.315 0.915587 1.43356 0
M  V30 6683 O 684.5 1.1851 1.53847 0
M  V30 6684 C 681.63 2.43352 2.47784 0
M  V30 6685 C 680.584 3.58376 2.33989 0
M  V30 6686 C 679.91 3.84454 3.71617 0
M  V30 6687 C 681.21 4.90199 1.80283 0
M  V30 6688 H 682.904 2.89382 0.768023 0
M  V30 6689 H 680.45 1.39218 0.367998 0
M  V30 6690 H 682.403 2.74163 3.20019 0
M  V30 6691 H 681.127 1.54103 2.87958 0
M  V30 6692 H 679.786 3.2777 1.64202 0
M  V30 6693 H 679.434 2.92414 4.09271 0
M  V30 6694 H 679.134 4.61877 3.6324 0
M  V30 6695 H 680.658 4.17714 4.45362 0
M  V30 6696 H 682.072 5.19565 2.42333 0
M  V30 6697 H 680.469 5.71601 1.82735 0
M  V30 6698 H 681.539 4.78904 0.760184 0
M  V30 6699 N 682.882 -0.391992 1.52647 0
M  V30 6700 C 683.83 -1.4991 1.77848 0
M  V30 6701 C 684.824 -1.56587 0.646282 0
M  V30 6702 O 686.03 -1.59789 0.828698 0
M  V30 6703 H 682.405 -0.498883 0.56269 0
M  V30 6704 H 684.376 -1.25847 2.70564 0
M  V30 6705 C 683.125 -2.87081 1.96163 0
M  V30 6706 H 682.448 -2.82692 2.82711 0
M  V30 6707 H 683.888 -3.63792 2.17787 0
M  V30 6708 C 682.347 -3.28822 0.733348 0
M  V30 6709 O 682.877 -4.01598 -0.0906481 0
M  V30 6710 N 681.083 -2.85068 0.564317 0
M  V30 6711 H 680.63 -2.26012 1.23598 0
M  V30 6712 H 680.588 -3.13355 -0.256166 0
M  V30 6713 N 684.36 -1.4356 -0.65026 0
M  V30 6714 C 685.606 -1.45549 -1.41221 0
M  V30 6715 C 685.939 -0.0805472 -1.94033 0
M  V30 6716 O 685.214 0.899043 -1.72475 0
M  V30 6717 C 685.497 -2.50028 -2.59148 0
M  V30 6718 C 685.35 -3.96808 -2.1181 0
M  V30 6719 C 686.669 -2.51212 -3.61359 0
M  V30 6720 H 683.788 -0.529967 -0.512156 0
M  V30 6721 H 686.43 -1.75127 -0.736933 0
M  V30 6722 H 684.58 -2.24937 -3.16758 0
M  V30 6723 H 686.252 -4.32966 -1.59178 0
M  V30 6724 H 684.495 -4.09498 -1.43156 0
M  V30 6725 H 685.166 -4.6553 -2.96625 0
M  V30 6726 H 687.642 -2.73583 -3.13515 0
M  V30 6727 H 686.518 -3.26252 -4.41419 0
M  V30 6728 H 686.779 -1.54701 -4.1415 0
M  V30 6729 N 685.838 0.888903 -1.30139 0
M  V30 6730 C 687.063 1.67884 -1.21777 0
M  V30 6731 C 687.488 1.86848 0.216689 0
M  V30 6732 O 686.846 1.39659 1.15608 0
M  V30 6733 C 686.894 3.03483 -1.94757 0
M  V30 6734 O 685.998 3.92294 -1.27198 0
M  V30 6735 H 685.339 0.513144 -0.421402 0
M  V30 6736 H 687.869 1.10968 -1.71893 0
M  V30 6737 H 687.879 3.53553 -2.03627 0
M  V30 6738 H 686.554 2.89 -2.99085 0
M  V30 6739 H 685.131 3.50732 -1.26655 0
M  V30 6740 N 687.317 1.12792 1.10072 0
M  V30 6741 C 688.563 0.886857 1.82381 0
M  V30 6742 C 688.896 -0.58576 1.85155 0
M  V30 6743 O 688.171 -1.43317 1.31493 0
M  V30 6744 C 688.454 1.46703 3.28862 0
M  V30 6745 C 688.307 3.00829 3.34398 0
M  V30 6746 C 689.626 1.12971 4.25353 0
M  V30 6747 H 686.745 0.32362 0.662148 0
M  V30 6748 H 689.387 1.39513 1.28982 0
M  V30 6749 H 687.537 1.03476 3.74466 0
M  V30 6750 H 689.209 3.52764 2.97247 0
M  V30 6751 H 687.452 3.36164 2.74183 0
M  V30 6752 H 688.123 3.36519 4.3756 0
M  V30 6753 H 690.599 1.50313 3.88001 0
M  V30 6754 H 689.475 1.56223 5.26199 0
M  V30 6755 H 689.736 0.0424452 4.4208 0
M  V30 6756 N 688.795 -1.27931 0.920396 0
M  V30 6757 C 689.705 -2.30824 0.419212 0
M  V30 6758 C 690.721 -1.66767 -0.496461 0
M  V30 6759 O 691.897 -1.97763 -0.38104 0
M  V30 6760 C 688.962 -3.45158 -0.326601 0
M  V30 6761 C 688.023 -4.24754 0.623098 0
M  V30 6762 C 687.256 -5.33629 -0.0872172 0
M  V30 6763 O 687.479 -5.55204 -1.30784 0
M  V30 6764 O 686.413 -5.99091 0.580875 0
M  V30 6765 H 690.239 -2.75716 1.27337 0
M  V30 6766 H 687.824 -1.32747 0.685465 0
M  V30 6767 H 689.706 -4.14716 -0.747559 0
M  V30 6768 H 688.381 -3.02336 -1.15648 0
M  V30 6769 H 687.288 -3.57759 1.09359 0
M  V30 6770 H 688.621 -4.71272 1.41998 0
M  V30 6771 N 690.273 -0.685099 -1.4193 0
M  V30 6772 C 691.501 -0.220372 -2.05723 0
M  V30 6773 C 691.916 1.12642 -1.51516 0
M  V30 6774 O 691.273 1.70182 -0.659114 0
M  V30 6775 C 691.324 -0.157974 -3.61155 0
M  V30 6776 O 691.045 -1.45156 -4.13354 0
M  V30 6777 C 692.546 0.329009 -4.42077 0
M  V30 6778 H 689.766 -0.104725 -0.662777 0
M  V30 6779 H 692.31 -0.934736 -1.81887 0
M  V30 6780 H 690.465 0.507144 -3.84066 0
M  V30 6781 H 690.879 -1.33172 -5.07312 0
M  V30 6782 H 692.353 0.321559 -5.51063 0
M  V30 6783 H 692.83 1.36608 -4.17414 0
M  V30 6784 H 693.436 -0.304737 -4.24207 0
M  V30 6785 N 691.751 1.51645 -0.429126 0
M  V30 6786 C 693.162 1.86665 0.0359003 0
M  V30 6787 C 693.513 1.34677 1.42676 0
M  V30 6788 O 692.638 0.694195 2.04963 0
M  V30 6789 C 693.233 3.38724 0.0719221 0
M  V30 6790 C 691.792 3.7331 0.481336 0
M  V30 6791 C 690.939 2.75313 -0.331329 0
M  V30 6792 H 693.89 1.44987 -0.645333 0
M  V30 6793 H 693.911 3.7011 0.883118 0
M  V30 6794 H 693.423 3.76532 -0.940495 0
M  V30 6795 H 691.524 3.41088 1.49966 0
M  V30 6796 H 691.637 4.78631 0.211837 0
M  V30 6797 H 690.001 2.53839 0.209204 0
M  V30 6798 H 690.784 3.15963 -1.34247 0
M  V30 6799 N 693.229 0.160201 1.56784 0
M  V30 6800 C 694.139 -0.787167 2.21 0
M  V30 6801 C 695.155 -1.26167 1.19825 0
M  V30 6802 O 696.331 -1.31611 1.52448 0
M  V30 6803 C 693.396 -2.00364 2.8294 0
M  V30 6804 C 692.457 -1.5771 3.99282 0
M  V30 6805 C 691.69 -2.73558 4.58259 0
M  V30 6806 O 691.913 -3.90129 4.16119 0
M  V30 6807 O 690.847 -2.48271 5.48311 0
M  V30 6808 H 694.673 -0.270462 3.02493 0
M  V30 6809 H 692.258 -0.0674666 1.49248 0
M  V30 6810 H 694.14 -2.71529 3.22257 0
M  V30 6811 H 692.815 -2.50961 2.04451 0
M  V30 6812 H 691.722 -0.835274 3.64656 0
M  V30 6813 H 693.055 -1.11815 4.79331 0
M  V30 6814 N 694.707 -1.5719 -0.113559 0
M  V30 6815 C 695.655 -2.01725 -1.158 0
M  V30 6816 C 696.649 -0.915105 -1.42556 0
M  V30 6817 O 697.855 -1.10031 -1.42454 0
M  V30 6818 H 694.23 -0.64262 -0.390569 0
M  V30 6819 H 696.201 -2.88666 -0.755926 0
M  V30 6820 C 694.95 -2.44203 -2.47507 0
M  V30 6821 H 694.273 -3.28582 -2.27758 0
M  V30 6822 H 695.713 -2.79158 -3.19135 0
M  V30 6823 C 694.172 -1.30785 -3.10478 0
M  V30 6824 O 694.702 -0.626807 -3.9678 0
M  V30 6825 N 692.908 -1.06352 -2.7044 0
M  V30 6826 H 692.455 -1.61913 -2.00355 0
M  V30 6827 H 692.413 -0.306614 -3.12901 0
M  V30 6828 N 696.185 0.383891 -1.52853 0
M  V30 6829 C 697.115 1.47559 -1.80965 0
M  V30 6830 C 698.096 1.5669 -0.661986 0
M  V30 6831 O 699.281 1.71556 -0.910072 0
M  V30 6832 C 696.411 2.85114 -1.98312 0
M  V30 6833 C 695.365 2.9082 -3.14019 0
M  V30 6834 C 694.691 4.30873 -3.16627 0
M  V30 6835 C 695.991 2.60001 -4.52986 0
M  V30 6836 H 697.685 1.24283 -2.72386 0
M  V30 6837 H 695.231 0.596445 -1.31067 0
M  V30 6838 H 697.184 3.61496 -2.16561 0
M  V30 6839 H 695.908 3.09738 -1.03585 0
M  V30 6840 H 694.567 2.16886 -2.9556 0
M  V30 6841 H 694.215 4.52545 -2.19573 0
M  V30 6842 H 693.915 4.3561 -3.94357 0
M  V30 6843 H 695.439 5.09154 -3.37038 0
M  V30 6844 H 696.853 3.261 -4.71521 0
M  V30 6845 H 695.25 2.76081 -5.32822 0
M  V30 6846 H 696.32 1.5532 -4.59351 0
M  V30 6847 N 697.663 1.43903 0.642637 0
M  V30 6848 C 698.626 1.49538 1.73698 0
M  V30 6849 C 699.626 0.378776 1.56275 0
M  V30 6850 O 700.816 0.64095 1.6198 0
M  V30 6851 C 697.948 1.35821 3.12675 0
M  V30 6852 H 699.141 2.47008 1.70079 0
M  V30 6853 H 696.694 1.30824 0.85526 0
M  V30 6854 H 697.429 0.393994 3.21898 0
M  V30 6855 H 697.214 2.16776 3.26727 0
M  V30 6856 H 698.704 1.4272 3.92455 0
M  V30 6857 N 699.141 -0.881989 1.30609 0
M  V30 6858 C 700.387 -1.63647 1.19781 0
M  V30 6859 C 700.72 -1.92632 -0.246265 0
M  V30 6860 O 699.995 -1.54938 -1.17577 0
M  V30 6861 C 700.278 -2.97437 2.02985 0
M  V30 6862 C 700.131 -2.75406 3.55628 0
M  V30 6863 C 701.45 -3.98397 1.86997 0
M  V30 6864 H 698.569 -0.593841 0.436488 0
M  V30 6865 H 701.211 -1.02041 1.60273 0
M  V30 6866 H 699.361 -3.50018 1.68581 0
M  V30 6867 H 701.033 -2.2959 4.00107 0
M  V30 6868 H 699.276 -2.09856 3.79662 0
M  V30 6869 H 699.947 -3.70552 4.09139 0
M  V30 6870 H 702.423 -3.54986 2.17081 0
M  V30 6871 H 701.299 -4.89916 2.47536 0
M  V30 6872 H 701.56 -4.3424 0.829943 0
M  V30 6873 N 700.619 -1.13374 -1.09472 0
M  V30 6874 C 701.896 -0.806329 -1.78207 0
M  V30 6875 C 702.276 0.702191 -1.99079 0
M  V30 6876 O 701.624 1.63931 -1.59182 0
M  V30 6877 C 701.834 -1.59271 -3.10538 0
M  V30 6878 C 703.182 -1.78509 -3.85253 0
M  V30 6879 O 704.206 -1.55866 -3.20288 0
M  V30 6880 O 703.065 -2.16287 -5.01879 0
M  V30 6881 H 700.159 -0.29435 -0.772843 0
M  V30 6882 H 702.705 -1.23833 -1.16033 0
M  V30 6883 H 701.477 -2.61792 -2.90828 0
M  V30 6884 H 701.1 -1.15562 -3.80436 0
M  V30 6885 N 702.098 1.27442 -0.927168 0
M  V30 6886 C 703.344 1.95025 -0.577651 0
M  V30 6887 C 703.699 1.71534 0.871421 0
M  V30 6888 O 702.992 1.03354 1.61333 0
M  V30 6889 C 703.186 3.47413 -0.838994 0
M  V30 6890 C 703.015 3.85721 -2.31192 0
M  V30 6891 C 701.785 4.09199 -2.96452 0
M  V30 6892 C 703.983 3.95352 -3.28939 0
M  V30 6893 N 701.965 4.34283 -4.33903 0
M  V30 6894 C 703.336 4.24805 -4.51598 0
M  V30 6895 C 705.391 3.77926 -3.24155 0
M  V30 6896 C 704.094 4.38645 -5.70073 0
M  V30 6897 C 706.12 3.9299 -4.41942 0
M  V30 6898 C 705.482 4.22829 -5.63379 0
M  V30 6899 H 701.581 0.736983 -0.261495 0
M  V30 6900 H 704.165 1.53816 -1.19368 0
M  V30 6901 H 702.336 3.87581 -0.252129 0
M  V30 6902 H 704.068 4.02166 -0.452158 0
M  V30 6903 H 700.823 4.04013 -2.47125 0
M  V30 6904 H 701.247 4.50883 -5.05008 0
M  V30 6905 H 705.889 3.53897 -2.31337 0
M  V30 6906 H 703.607 4.615 -6.63358 0
M  V30 6907 H 707.193 3.80926 -4.39757 0
M  V30 6908 H 706.073 4.34234 -6.53001 0
M  V30 6909 N 703.576 0.692616 1.41565 0
M  V30 6910 C 704.822 0.222664 2.01574 0
M  V30 6911 C 705.155 -1.1737 1.54719 0
M  V30 6912 O 704.43 -1.79161 0.757084 0
M  V30 6913 C 704.713 0.277064 3.59033 0
M  V30 6914 C 704.566 1.71016 4.16021 0
M  V30 6915 C 705.885 -0.36479 4.38586 0
M  V30 6916 H 703.004 0.0823839 0.732381 0
M  V30 6917 H 705.646 0.880778 1.68352 0
M  V30 6918 H 703.796 -0.283288 3.87466 0
M  V30 6919 H 705.468 2.32413 3.98475 0
M  V30 6920 H 703.711 2.24525 3.71175 0
M  V30 6921 H 704.382 1.69978 5.25178 0
M  V30 6922 H 706.858 0.112404 4.15948 0
M  V30 6923 H 705.734 -0.296169 5.481 0
M  V30 6924 H 705.995 -1.44506 4.17816 0
M  V30 6925 N 705.054 -1.51416 0.437162 0
M  V30 6926 C 706.002 -2.29328 -0.388765 0
M  V30 6927 C 706.996 -1.35171 -1.02104 0
M  V30 6928 O 708.202 -1.52513 -0.956024 0
M  V30 6929 H 704.577 -0.738048 -0.144183 0
M  V30 6930 H 706.548 -2.96995 0.289212 0
M  V30 6931 C 705.297 -3.14741 -1.47761 0
M  V30 6932 H 704.62 -3.8708 -1.00045 0
M  V30 6933 H 706.06 -3.72313 -2.02877 0
M  V30 6934 C 704.519 -2.30105 -2.46076 0
M  V30 6935 O 705.049 -1.96055 -3.50607 0
M  V30 6936 N 703.255 -1.93331 -2.1696 0
M  V30 6937 H 702.802 -2.2122 -1.31983 0
M  V30 6938 H 702.76 -1.36999 -2.82982 0
M  V30 6939 N 706.532 -0.168513 -1.56696 0
M  V30 6940 C 707.48 0.779791 -2.19139 0
M  V30 6941 C 708.474 1.23957 -1.1546 0
M  V30 6942 O 709.68 1.20555 -1.33666 0
M  V30 6943 H 706.055 0.269739 -0.701958 0
M  V30 6944 H 708.026 0.229156 -2.97519 0
M  V30 6945 C 706.775 2.00003 -2.84419 0
M  V30 6946 H 706.098 1.65527 -3.63924 0
M  V30 6947 H 707.538 2.64251 -3.31583 0
M  V30 6948 C 705.997 2.82187 -1.84044 0
M  V30 6949 O 706.527 3.79247 -1.32418 0
M  V30 6950 N 704.733 2.47145 -1.52864 0
M  V30 6951 H 704.28 1.68277 -1.9504 0
M  V30 6952 H 704.238 3.02422 -0.859569 0
M  V30 6953 N 708.01 1.57248 0.105221 0
M  V30 6954 C 708.957 2.01338 1.12835 0
M  V30 6955 C 709.927 0.887897 1.40377 0
M  V30 6956 O 711.112 1.15315 1.5201 0
M  V30 6957 C 708.252 2.43432 2.44611 0
M  V30 6958 C 707.365 3.69457 2.23888 0
M  V30 6959 C 706.5 4.00473 3.48991 0
M  V30 6960 C 705.539 5.19638 3.23485 0
M  V30 6961 N 704.676 5.46457 4.40828 0
M  V30 6962 H 709.516 2.88527 0.745386 0
M  V30 6963 H 707.053 1.42714 0.356535 0
M  V30 6964 H 709.011 2.65879 3.21503 0
M  V30 6965 H 707.641 1.59266 2.80774 0
M  V30 6966 H 706.693 3.54545 1.37847 0
M  V30 6967 H 708.005 4.56497 2.01026 0
M  V30 6968 H 707.159 4.23642 4.34295 0
M  V30 6969 H 705.898 3.11935 3.74897 0
M  V30 6970 H 704.903 4.96299 2.36574 0
M  V30 6971 H 706.128 6.09766 2.98935 0
M  V30 6972 H 704.074 4.60876 4.66829 0
M  V30 6973 H 703.991 6.27849 4.2112 0
M  V30 6974 H 705.259 5.74155 5.27225 0
M  V30 6975 N 709.488 -0.375779 1.53054 0
M  V30 6976 C 710.737 -1.11674 1.67964 0
M  V30 6977 C 711.05 -1.90755 0.432655 0
M  V30 6978 O 712.256 -2.67538 0.462109 0
M  V30 6979 C 710.712 -2.0344 2.96884 0
M  V30 6980 C 710.32 -1.29719 4.28809 0
M  V30 6981 C 712.064 -2.7759 3.2116 0
M  V30 6982 C 709.971 -2.20327 5.48826 0
M  V30 6983 H 708.901 -0.420597 0.625791 0
M  V30 6984 H 711.552 -0.378499 1.79554 0
M  V30 6985 H 709.934 -2.80953 2.79072 0
M  V30 6986 H 711.108 -0.573394 4.57219 0
M  V30 6987 H 709.423 -0.674735 4.10897 0
M  V30 6988 H 712.02 -3.4559 4.0801 0
M  V30 6989 H 712.363 -3.42399 2.36789 0
M  V30 6990 H 712.896 -2.07164 3.396 0
M  V30 6991 H 709.635 -1.60113 6.35645 0
M  V30 6992 H 709.155 -2.90585 5.2471 0
M  V30 6993 H 710.834 -2.80116 5.83219 0
M  V30 6994 N 710.966 -1.44241 -0.634997 0
M  V30 6995 C 712.196 -1.50078 -1.41987 0
M  V30 6996 C 712.604 -0.123072 -1.88799 0
M  V30 6997 O 711.947 0.880552 -1.6122 0
M  V30 6998 C 712.009 -2.40033 -2.67628 0
M  V30 6999 C 711.673 -3.87268 -2.42637 0
M  V30 7000 C 712.67 -4.77902 -2.04708 0
M  V30 7001 C 710.355 -4.31933 -2.56396 0
M  V30 7002 C 712.349 -6.11202 -1.80862 0
M  V30 7003 C 710.036 -5.65281 -2.32164 0
M  V30 7004 C 711.034 -6.54734 -1.94455 0
M  V30 7005 O 710.722 -7.85613 -1.7049 0
M  V30 7006 H 710.454 -0.51146 -0.442023 0
M  V30 7007 H 713.008 -1.89843 -0.784138 0
M  V30 7008 H 711.238 -1.95188 -3.33824 0
M  V30 7009 H 712.927 -2.36863 -3.29622 0
M  V30 7010 H 713.693 -4.44668 -1.93638 0
M  V30 7011 H 709.572 -3.62569 -2.84719 0
M  V30 7012 H 713.116 -6.80983 -1.51353 0
M  V30 7013 H 709.013 -5.98078 -2.42843 0
M  V30 7014 H 709.781 -7.97373 -1.84767 0
M  V30 7015 N 712.444 0.87505 -1.31075 0
M  V30 7016 C 713.374 1.99775 -1.20881 0
M  V30 7017 C 714.355 1.69822 -0.0971612 0
M  V30 7018 O 715.54 1.92158 -0.280895 0
M  V30 7019 C 712.67 3.35163 -0.910118 0
M  V30 7020 C 711.624 3.79406 -1.98078 0
M  V30 7021 C 710.95 5.12197 -1.53488 0
M  V30 7022 C 712.25 3.97061 -3.39323 0
M  V30 7023 H 713.944 2.08562 -2.14808 0
M  V30 7024 H 711.49 1.00207 -1.03415 0
M  V30 7025 H 713.443 4.13237 -0.825423 0
M  V30 7026 H 712.167 3.26536 0.064822 0
M  V30 7027 H 710.826 3.03568 -2.05528 0
M  V30 7028 H 710.474 5.00007 -0.547941 0
M  V30 7029 H 710.174 5.4277 -2.2511 0
M  V30 7030 H 711.698 5.92785 -1.46417 0
M  V30 7031 H 713.112 4.65545 -3.34576 0
M  V30 7032 H 711.509 4.39025 -4.09118 0
M  V30 7033 H 712.579 3.00601 -3.80483 0
M  V30 7034 N 713.922 1.13953 1.08869 0
M  V30 7035 C 715.168 0.906151 1.8143 0
M  V30 7036 C 715.501 -0.566089 1.85766 0
M  V30 7037 O 714.776 -1.41915 1.33006 0
M  V30 7038 C 715.059 1.50183 3.27287 0
M  V30 7039 C 714.912 3.04359 3.31189 0
M  V30 7040 C 716.231 1.17477 4.24131 0
M  V30 7041 H 713.35 0.330624 0.658678 0
M  V30 7042 H 715.992 1.40873 1.27495 0
M  V30 7043 H 714.142 1.07442 3.73348 0
M  V30 7044 H 715.814 3.55896 2.93488 0
M  V30 7045 H 714.057 3.39053 2.70602 0
M  V30 7046 H 714.728 3.41141 4.33966 0
M  V30 7047 H 717.204 1.5442 3.86385 0
M  V30 7048 H 716.08 1.61795 5.24513 0
M  V30 7049 H 716.341 0.0893312 4.4201 0
M  V30 7050 N 715.4 -1.26948 0.933913 0
M  V30 7051 C 716.31 -2.30366 0.443671 0
M  V30 7052 C 717.326 -1.67284 -0.478745 0
M  V30 7053 O 718.502 -1.98156 -0.360043 0
M  V30 7054 C 715.567 -3.45485 -0.289974 0
M  V30 7055 C 714.628 -4.24069 0.668114 0
M  V30 7056 C 713.861 -5.33691 -0.0306138 0
M  V30 7057 O 714.084 -5.5656 -1.24888 0
M  V30 7058 O 713.018 -5.98441 0.644384 0
M  V30 7059 H 716.844 -2.74349 1.30254 0
M  V30 7060 H 714.429 -1.32012 0.699506 0
M  V30 7061 H 716.311 -4.15486 -0.70353 0
M  V30 7062 H 714.986 -3.03546 -1.12435 0
M  V30 7063 H 713.893 -3.56579 1.13147 0
M  V30 7064 H 715.226 -4.69739 1.46989 0
M  V30 7065 N 716.879 -0.700114 -1.41195 0
M  V30 7066 C 718.107 -0.242179 -2.05478 0
M  V30 7067 C 718.522 1.11029 -1.52702 0
M  V30 7068 O 717.879 1.69473 -0.677127 0
M  V30 7069 C 717.93 -0.196271 -3.60967 0
M  V30 7070 O 717.651 -1.49532 -4.11791 0
M  V30 7071 C 719.152 0.282102 -4.42401 0
M  V30 7072 H 716.372 -0.111749 -0.661629 0
M  V30 7073 H 718.916 -0.953975 -1.80885 0
M  V30 7074 H 717.071 0.46638 -3.84582 0
M  V30 7075 H 717.485 -1.38545 -5.05871 0
M  V30 7076 H 718.959 0.263093 -5.51373 0
M  V30 7077 H 719.436 1.32174 -4.1884 0
M  V30 7078 H 720.042 -0.349712 -4.2386 0
M  V30 7079 N 718.357 1.51182 -0.445186 0
M  V30 7080 C 719.304 2.27939 0.362291 0
M  V30 7081 C 720.274 1.31864 1.01 0
M  V30 7082 O 721.459 1.60776 1.02741 0
M  V30 7083 C 718.599 3.13016 1.45311 0
M  V30 7084 C 717.712 4.24093 0.822757 0
M  V30 7085 C 716.847 4.96467 1.88928 0
M  V30 7086 C 715.886 5.99454 1.23778 0
M  V30 7087 N 715.023 6.65206 2.24602 0
M  V30 7088 H 719.863 2.965 -0.29862 0
M  V30 7089 H 717.4 1.46237 -0.15911 0
M  V30 7090 H 719.358 3.60673 2.09692 0
M  V30 7091 H 717.988 2.46553 2.08354 0
M  V30 7092 H 717.04 3.80341 0.0670364 0
M  V30 7093 H 718.352 4.97853 0.307184 0
M  V30 7094 H 717.506 5.47712 2.60953 0
M  V30 7095 H 716.245 4.22355 2.4386 0
M  V30 7096 H 715.25 5.47494 0.503042 0
M  V30 7097 H 716.475 6.75527 0.695694 0
M  V30 7098 H 714.421 5.93901 2.78599 0
M  V30 7099 H 714.338 7.34756 1.77958 0
M  V30 7100 H 715.606 7.21078 2.96085 0
M  V30 7101 N 719.835 0.176821 1.56605 0
M  V30 7102 C 721.081 -0.467406 1.9734 0
M  V30 7103 C 721.414 -1.62523 1.06301 0
M  V30 7104 O 720.689 -1.94182 0.11125 0
M  V30 7105 C 720.972 -0.945106 3.47476 0
M  V30 7106 C 720.825 0.213273 4.49294 0
M  V30 7107 C 722.144 -1.8169 4.00845 0
M  V30 7108 H 719.263 -0.168426 0.717497 0
M  V30 7109 H 721.905 0.264065 1.88156 0
M  V30 7110 H 720.055 -1.56841 3.55434 0
M  V30 7111 H 721.727 0.850508 4.53392 0
M  V30 7112 H 719.97 0.867918 4.25029 0
M  V30 7113 H 720.641 -0.163187 5.51759 0
M  V30 7114 H 723.117 -1.29139 3.95553 0
M  V30 7115 H 721.993 -2.12015 5.06301 0
M  V30 7116 H 722.254 -2.76463 3.44994 0
M  V30 7117 N 721.313 -1.57302 -0.09688 0
M  V30 7118 C 722.261 -2.02942 -1.13654 0
M  V30 7119 C 723.255 -0.930173 -1.41577 0
M  V30 7120 O 724.461 -1.11535 -1.41279 0
M  V30 7121 H 720.836 -0.646726 -0.383731 0
M  V30 7122 H 722.807 -2.89452 -0.725267 0
M  V30 7123 C 721.556 -2.46815 -2.44903 0
M  V30 7124 H 720.879 -3.30979 -2.24261 0
M  V30 7125 H 722.319 -2.82527 -3.16156 0
M  V30 7126 C 720.778 -1.34071 -3.09074 0
M  V30 7127 O 721.308 -0.668856 -3.96092 0
M  V30 7128 N 719.514 -1.09214 -2.69296 0
M  V30 7129 H 719.061 -1.64029 -1.98626 0
M  V30 7130 H 719.019 -0.339785 -3.12559 0
M  V30 7131 N 722.791 0.367657 -1.53252 0
M  V30 7132 C 724.207 0.709191 -1.42978 0
M  V30 7133 C 724.407 1.93352 -0.567193 0
M  V30 7134 O 723.463 2.52453 -0.0488349 0
M  V30 7135 C 724.776 0.924338 -2.86141 0
M  V30 7136 C 726.324 1.02448 -2.95759 0
M  V30 7137 C 726.799 1.27211 -4.39979 0
M  V30 7138 N 728.29 1.33986 -4.43398 0
M  V30 7139 C 729.025 1.54852 -5.52095 0
M  V30 7140 N 728.521 1.73049 -6.7084 0
M  V30 7141 N 730.314 1.57205 -5.39669 0
M  V30 7142 H 722.465 -0.437669 -2.07842 0
M  V30 7143 H 724.728 -0.133737 -0.938519 0
M  V30 7144 H 724.434 0.0965455 -3.51567 0
M  V30 7145 H 724.308 1.83302 -3.29667 0
M  V30 7146 H 726.695 1.84282 -2.30487 0
M  V30 7147 H 726.776 0.0932301 -2.5563 0
M  V30 7148 H 726.42 0.458792 -5.05824 0
M  V30 7149 H 726.35 2.21654 -4.77679 0
M  V30 7150 H 728.841 1.21545 -3.5782 0
M  V30 7151 H 729.154 1.88538 -7.49449 0
M  V30 7152 H 727.499 1.70231 -6.7383 0
M  V30 7153 H 730.69 1.42555 -4.45865 0
M  V30 7154 H 730.863 1.73126 -6.24445 0
M  V30 7155 N 724.269 1.44576 0.627338 0
M  V30 7156 C 725.518 1.46837 1.38281 0
M  V30 7157 C 725.831 0.10635 1.95311 0
M  V30 7158 O 727.037 0.00651084 2.71499 0
M  V30 7159 C 725.493 2.58527 2.50384 0
M  V30 7160 C 725.101 4.00953 1.99851 0
M  V30 7161 C 726.845 2.70013 3.27557 0
M  V30 7162 C 724.752 5.0406 3.09318 0
M  V30 7163 H 723.682 0.546319 0.519664 0
M  V30 7164 H 726.333 1.70654 0.674497 0
M  V30 7165 H 724.715 2.27957 3.23808 0
M  V30 7166 H 725.889 4.41108 1.33267 0
M  V30 7167 H 724.204 3.93743 1.35482 0
M  V30 7168 H 726.801 3.44217 4.09168 0
M  V30 7169 H 727.144 1.75961 3.77284 0
M  V30 7170 H 727.677 3.00011 2.61224 0
M  V30 7171 H 724.416 5.99753 2.6453 0
M  V30 7172 H 723.936 4.68493 3.74532 0
M  V30 7173 H 725.615 5.2793 3.74031 0
M  V30 7174 N 725.747 -0.868086 1.31537 0
M  V30 7175 C 727.024 -1.60384 1.11965 0
M  V30 7176 C 727.404 -2.08584 -0.324949 0
M  V30 7177 O 726.752 -1.86561 -1.31937 0
M  V30 7178 C 726.962 -2.76038 2.13551 0
M  V30 7179 C 728.31 -3.45954 2.46173 0
M  V30 7180 O 729.334 -2.86247 2.11993 0
M  V30 7181 O 728.193 -4.53666 3.04711 0
M  V30 7182 H 725.287 -0.705705 0.431172 0
M  V30 7183 H 727.833 -0.913385 1.43022 0
M  V30 7184 H 726.605 -2.37849 3.10714 0
M  V30 7185 H 726.228 -3.52769 1.83411 0
M  V30 7186 N 727.225 -1.14528 -1.08264 0
M  V30 7187 C 728.158 -0.777154 -2.14559 0
M  V30 7188 C 729.136 0.242165 -1.60787 0
M  V30 7189 O 730.32 0.130882 -1.88045 0
M  V30 7190 C 727.447 -0.154092 -3.38349 0
M  V30 7191 C 726.493 -1.14382 -4.10876 0
M  V30 7192 S 727.326 -2.68173 -4.63512 0
M  V30 7193 C 728.482 -2.0726 -5.90588 0
M  V30 7194 H 728.715 -1.67748 -2.45454 0
M  V30 7195 H 726.248 -0.966661 -1.20395 0
M  V30 7196 H 728.206 0.19897 -4.10018 0
M  V30 7197 H 726.867 0.723688 -3.05649 0
M  V30 7198 H 726.06 -0.655908 -4.99714 0
M  V30 7199 H 725.662 -1.44095 -3.45127 0
M  V30 7200 H 727.954 -1.42895 -6.62259 0
M  V30 7201 H 728.897 -2.94227 -6.44078 0
M  V30 7202 H 729.305 -1.51935 -5.43669 0
M  V30 7203 N 728.703 1.26451 -0.940633 0
M  V30 7204 C 729.949 1.94065 -0.58878 0
M  V30 7205 C 730.282 1.7363 0.869853 0
M  V30 7206 O 729.557 1.073 1.62225 0
M  V30 7207 C 729.84 3.47852 -0.931199 0
M  V30 7208 C 729.693 3.77575 -2.44453 0
M  V30 7209 C 731.012 4.37832 -0.446229 0
M  V30 7210 H 728.131 0.704827 -0.21538 0
M  V30 7211 H 730.773 1.4933 -1.17475 0
M  V30 7212 H 728.923 3.86085 -0.432539 0
M  V30 7213 H 730.595 3.49059 -3.01588 0
M  V30 7214 H 728.838 3.23671 -2.88825 0
M  V30 7215 H 729.509 4.85068 -2.63464 0
M  V30 7216 H 731.985 4.06822 -0.873778 0
M  V30 7217 H 730.861 5.44228 -0.714648 0
M  V30 7218 H 731.122 4.37239 0.653815 0
M  V30 7219 N 730.181 0.707592 1.40822 0
M  V30 7220 C 731.129 0.0386643 2.32568 0
M  V30 7221 C 732.123 -0.755653 1.51612 0
M  V30 7222 O 733.329 -0.659921 1.67467 0
M  V30 7223 H 729.704 -0.00629912 0.751974 0
M  V30 7224 H 731.675 0.8293 2.86645 0
M  V30 7225 C 730.424 -0.87496 3.36511 0
M  V30 7226 H 729.747 -0.273157 3.98866 0
M  V30 7227 H 731.187 -1.31111 4.03219 0
M  V30 7228 C 729.646 -1.99672 2.71353 0
M  V30 7229 O 730.176 -3.08676 2.57064 0
M  V30 7230 N 728.382 -1.77799 2.29861 0
M  V30 7231 H 727.929 -0.89147 2.41683 0
M  V30 7232 H 727.887 -2.53036 1.86601 0
M  V30 7233 N 731.66 -1.50943 0.453197 0
M  V30 7234 C 732.59 -2.31005 -0.34044 0
M  V30 7235 C 733.571 -1.37112 -1.00669 0
M  V30 7236 O 734.756 -1.66033 -1.0073 0
M  V30 7237 C 731.886 -3.16358 -1.433 0
M  V30 7238 C 730.84 -4.18658 -0.889363 0
M  V30 7239 C 730.166 -4.92633 -2.07887 0
M  V30 7240 C 731.466 -5.22227 0.0871142 0
M  V30 7241 H 733.16 -2.97601 0.327723 0
M  V30 7242 H 730.706 -1.43119 0.159054 0
M  V30 7243 H 732.659 -3.71155 -1.99555 0
M  V30 7244 H 731.383 -2.47613 -2.12968 0
M  V30 7245 H 730.042 -3.64936 -0.348915 0
M  V30 7246 H 729.69 -4.20376 -2.76211 0
M  V30 7247 H 729.39 -5.61819 -1.72143 0
M  V30 7248 H 730.914 -5.50258 -2.64666 0
M  V30 7249 H 732.328 -5.72001 -0.385656 0
M  V30 7250 H 730.725 -5.99032 0.357926 0
M  V30 7251 H 731.795 -4.74077 1.01879 0
M  V30 7252 N 733.138 -0.185124 -1.56509 0
M  V30 7253 C 734.415 0.503348 -1.89013 0
M  V30 7254 C 734.795 1.80349 -1.09715 0
M  V30 7255 O 734.143 2.27665 -0.195203 0
M  V30 7256 C 734.353 0.731839 -3.41241 0
M  V30 7257 C 735.701 1.05568 -4.11267 0
M  V30 7258 O 736.725 0.819906 -3.46635 0
M  V30 7259 O 735.584 1.50116 -5.25478 0
M  V30 7260 H 732.678 0.261139 -0.784688 0
M  V30 7261 H 735.224 -0.224592 -1.68207 0
M  V30 7262 H 733.996 -0.18672 -3.90854 0
M  V30 7263 H 733.619 1.5126 -3.67704 0
M  V30 7264 N 734.616 1.57351 0.0885366 0
M  V30 7265 C 735.864 1.86051 0.789262 0
M  V30 7266 C 736.185 0.774763 1.78948 0
M  V30 7267 O 735.455 -0.198324 1.94894 0
M  V30 7268 H 734.035 0.686508 0.294475 0
M  V30 7269 H 736.697 1.94779 0.0686055 0
M  V30 7270 H 735.793 2.83007 1.31581 0
M  V30 7271 N 736.094 -0.359525 1.53444 0
M  V30 7272 C 737.319 -1.12644 1.74144 0
M  V30 7273 C 737.744 -1.82082 0.472007 0
M  V30 7274 O 737.102 -1.71962 -0.57436 0
M  V30 7275 C 737.15 -2.12781 2.9113 0
M  V30 7276 O 736.254 -3.19984 2.60162 0
M  V30 7277 H 735.595 -0.326553 0.578152 0
M  V30 7278 H 738.125 -0.414798 2.00351 0
M  V30 7279 H 738.135 -2.56278 3.17467 0
M  V30 7280 H 736.81 -1.61634 3.83207 0
M  V30 7281 H 735.387 -2.81417 2.44661 0
M  V30 7282 N 737.572 -1.44907 -0.619662 0
M  V30 7283 C 738.802 -1.51575 -1.40387 0
M  V30 7284 C 739.21 -0.14309 -1.88658 0
M  V30 7285 O 738.553 0.863403 -1.62145 0
M  V30 7286 C 738.615 -2.42858 -2.65067 0
M  V30 7287 C 738.279 -3.8982 -2.38515 0
M  V30 7288 C 739.276 -4.80047 -1.99627 0
M  V30 7289 C 736.961 -4.34628 -2.51801 0
M  V30 7290 C 738.955 -6.13086 -1.74369 0
M  V30 7291 C 736.642 -5.67712 -2.26156 0
M  V30 7292 C 737.64 -6.56759 -1.875 0
M  V30 7293 O 737.328 -7.87377 -1.62148 0
M  V30 7294 H 737.06 -0.51612 -0.436573 0
M  V30 7295 H 739.614 -1.90664 -0.763959 0
M  V30 7296 H 737.844 -1.98717 -3.31735 0
M  V30 7297 H 739.533 -2.40346 -3.27091 0
M  V30 7298 H 740.299 -4.46697 -1.8891 0
M  V30 7299 H 736.178 -3.65568 -2.80857 0
M  V30 7300 H 739.722 -6.8255 -1.44122 0
M  V30 7301 H 735.619 -6.0062 -2.36486 0
M  V30 7302 H 736.387 -7.99288 -1.763 0
M  V30 7303 N 739.05 0.861098 -1.31996 0
M  V30 7304 C 740.466 1.14827 -1.10846 0
M  V30 7305 C 740.666 2.0117 0.11528 0
M  V30 7306 O 739.722 2.39423 0.802048 0
M  V30 7307 C 741.035 1.83183 -2.38462 0
M  V30 7308 C 742.583 1.95847 -2.44158 0
M  V30 7309 C 743.058 2.67617 -3.71679 0
M  V30 7310 N 744.549 2.75147 -3.72624 0
M  V30 7311 C 745.284 3.31314 -4.67994 0
M  V30 7312 N 744.78 3.88343 -5.73726 0
M  V30 7313 N 746.573 3.29356 -4.55501 0
M  V30 7314 H 738.724 0.285951 -2.10466 0
M  V30 7315 H 740.987 0.189303 -0.928907 0
M  V30 7316 H 740.693 1.27193 -3.27895 0
M  V30 7317 H 740.567 2.83393 -2.48935 0
M  V30 7318 H 742.954 2.50999 -1.55189 0
M  V30 7319 H 743.035 0.94653 -2.37644 0
M  V30 7320 H 742.679 2.13131 -4.61018 0
M  V30 7321 H 742.609 3.69237 -3.75462 0
M  V30 7322 H 745.1 2.34682 -2.96197 0
M  V30 7323 H 745.413 4.29338 -6.42564 0
M  V30 7324 H 743.758 3.86693 -5.77489 0
M  V30 7325 H 746.949 2.84047 -3.72069 0
M  V30 7326 H 747.122 3.7283 -5.30001 0
M  V30 7327 N 740.528 1.15101 1.07655 0
M  V30 7328 C 741.774 0.925343 1.80458 0
M  V30 7329 C 742.107 -0.546354 1.86356 0
M  V30 7330 O 741.382 -1.40496 1.34503 0
M  V30 7331 C 741.665 1.53646 3.25676 0
M  V30 7332 C 741.518 3.07854 3.27942 0
M  V30 7333 C 742.837 1.21968 4.22861 0
M  V30 7334 H 739.956 0.337592 0.655134 0
M  V30 7335 H 742.598 1.42217 1.25993 0
M  V30 7336 H 740.748 1.11395 3.72187 0
M  V30 7337 H 742.42 3.58989 2.89697 0
M  V30 7338 H 740.663 3.41904 2.66991 0
M  V30 7339 H 741.334 3.45725 4.30324 0
M  V30 7340 H 743.81 1.5851 3.84726 0
M  V30 7341 H 742.686 1.67349 5.22767 0
M  V30 7342 H 742.947 0.136207 4.4189 0
M  V30 7343 N 742.006 -1.2595 0.947325 0
M  V30 7344 C 743.234 -1.97544 0.615127 0
M  V30 7345 C 743.649 -1.70484 -0.811221 0
M  V30 7346 O 743.006 -0.97662 -1.5417 0
M  V30 7347 C 743.057 -3.51236 0.855328 0
M  V30 7348 O 742.778 -3.77359 2.22558 0
M  V30 7349 C 744.279 -4.40066 0.534515 0
M  V30 7350 H 741.499 -0.629888 0.231263 0
M  V30 7351 H 744.043 -1.60308 1.26971 0
M  V30 7352 H 742.198 -3.8661 0.247266 0
M  V30 7353 H 742.612 -4.71857 2.29022 0
M  V30 7354 H 744.086 -5.46838 0.753168 0
M  V30 7355 H 744.563 -4.35982 -0.530701 0
M  V30 7356 H 745.169 -4.10245 1.12158 0
M  V30 7357 N 743.484 -0.715051 -1.40445 0
M  V30 7358 C 744.414 -0.0768699 -2.33373 0
M  V30 7359 C 745.395 0.746109 -1.52863 0
M  V30 7360 O 746.58 0.695142 -1.81332 0
M  V30 7361 C 743.71 0.846014 -3.36838 0
M  V30 7362 C 742.664 0.128694 -4.27806 0
M  V30 7363 C 741.99 1.16726 -5.21804 0
M  V30 7364 C 743.29 -1.01679 -5.12307 0
M  V30 7365 H 744.984 -0.853061 -2.8699 0
M  V30 7366 H 742.53 -0.41167 -1.3799 0
M  V30 7367 H 744.483 1.30185 -4.00786 0
M  V30 7368 H 743.207 1.6541 -2.81615 0
M  V30 7369 H 741.866 -0.307314 -3.6531 0
M  V30 7370 H 741.514 1.96838 -4.62887 0
M  V30 7371 H 741.214 0.692188 -5.83509 0
M  V30 7372 H 742.738 1.62321 -5.88629 0
M  V30 7373 H 744.152 -0.640337 -5.69713 0
M  V30 7374 H 742.549 -1.4202 -5.83053 0
M  V30 7375 H 743.619 -1.84769 -4.48317 0
M  V30 7376 N 744.962 1.50701 -0.461195 0
M  V30 7377 C 746.211 2.01458 0.0988277 0
M  V30 7378 C 746.524 1.34863 1.41673 0
M  V30 7379 O 747.73 1.76721 2.06111 0
M  V30 7380 C 746.186 3.59186 0.226648 0
M  V30 7381 C 745.794 4.34732 -1.08223 0
M  V30 7382 C 747.538 4.18015 0.73916 0
M  V30 7383 C 745.445 5.8422 -0.918747 0
M  V30 7384 H 744.375 0.7529 0.040709 0
M  V30 7385 H 747.026 1.736 -0.594589 0
M  V30 7386 H 745.408 3.83589 0.983621 0
M  V30 7387 H 746.582 4.22059 -1.84939 0
M  V30 7388 H 744.897 3.87466 -1.52509 0
M  V30 7389 H 747.494 5.27436 0.878347 0
M  V30 7390 H 747.837 3.78746 1.72793 0
M  V30 7391 H 748.37 3.9778 0.0398469 0
M  V30 7392 H 745.109 6.27944 -1.88059 0
M  V30 7393 H 744.629 5.99493 -0.191801 0
M  V30 7394 H 746.308 6.44382 -0.581405 0
M  V30 7395 N 746.441 0.193421 1.56409 0
M  V30 7396 C 747.669 -0.451438 2.01915 0
M  V30 7397 C 748.084 -1.55306 1.07357 0
M  V30 7398 O 747.441 -1.82333 0.0781512 0
M  V30 7399 C 747.492 -1.00931 3.47124 0
M  V30 7400 O 747.213 0.0483623 4.38073 0
M  V30 7401 C 748.714 -1.73021 4.0814 0
M  V30 7402 H 745.934 -0.113495 0.661332 0
M  V30 7403 H 748.478 0.301636 2.02263 0
M  V30 7404 H 746.633 -1.71277 3.47481 0
M  V30 7405 H 747.047 -0.366644 5.23217 0
M  V30 7406 H 748.521 -2.07289 5.11601 0
M  V30 7407 H 748.998 -2.6333 3.51502 0
M  V30 7408 H 749.604 -1.07264 4.11551 0
M  V30 7409 N 747.919 -1.57396 -0.0801906 0
M  V30 7410 C 748.829 -2.06451 -1.11423 0
M  V30 7411 C 749.845 -0.992352 -1.42928 0
M  V30 7412 O 751.021 -1.30651 -1.53272 0
M  V30 7413 C 748.086 -2.49164 -2.41077 0
M  V30 7414 C 747.147 -3.70641 -2.16619 0
M  V30 7415 C 746.38 -4.11307 -3.40092 0
M  V30 7416 O 746.603 -3.51922 -4.48895 0
M  V30 7417 O 745.537 -5.04157 -3.288 0
M  V30 7418 H 749.363 -2.94857 -0.727519 0
M  V30 7419 H 746.948 -1.46484 -0.293743 0
M  V30 7420 H 748.83 -2.77196 -3.17396 0
M  V30 7421 H 747.505 -1.6389 -2.79145 0
M  V30 7422 H 746.412 -3.47703 -1.38033 0
M  V30 7423 H 747.745 -4.5674 -1.83437 0
M  V30 7424 N 749.397 0.351382 -1.53633 0
M  V30 7425 C 750.345 1.45142 -1.8176 0
M  V30 7426 C 751.339 1.54819 -0.687571 0
M  V30 7427 O 752.545 1.57536 -0.870772 0
M  V30 7428 H 748.92 0.483789 -0.575719 0
M  V30 7429 H 750.891 1.1863 -2.73806 0
M  V30 7430 C 749.64 2.81779 -2.03706 0
M  V30 7431 H 748.963 2.75097 -2.90107 0
M  V30 7432 H 750.403 3.5789 -2.27356 0
M  V30 7433 C 748.862 3.26762 -0.820271 0
M  V30 7434 O 749.392 4.01697 -0.0158603 0
M  V30 7435 N 747.598 2.83472 -0.639699 0
M  V30 7436 H 747.145 2.22655 -1.29547 0
M  V30 7437 H 747.103 3.13924 0.172995 0
M  V30 7438 N 750.875 1.45233 0.611969 0
M  V30 7439 C 751.805 1.5641 1.73373 0
M  V30 7440 C 752.786 0.415896 1.64937 0
M  V30 7441 O 753.971 0.638478 1.83404 0
M  V30 7442 C 751.101 1.52627 3.11965 0
M  V30 7443 C 750.055 2.66119 3.35208 0
M  V30 7444 C 749.381 2.4739 4.74028 0
M  V30 7445 C 750.681 4.08157 3.25891 0
M  V30 7446 H 752.375 2.50307 1.64277 0
M  V30 7447 H 749.921 1.20467 0.788904 0
M  V30 7448 H 751.874 1.59043 3.90235 0
M  V30 7449 H 750.598 0.552564 3.21892 0
M  V30 7450 H 749.257 2.59123 2.59327 0
M  V30 7451 H 748.905 1.48168 4.80682 0
M  V30 7452 H 748.605 3.23494 4.90536 0
M  V30 7453 H 750.129 2.55653 5.54503 0
M  V30 7454 H 751.543 4.1642 3.9404 0
M  V30 7455 H 749.94 4.84617 3.5393 0
M  V30 7456 H 751.01 4.30374 2.23397 0
M  V30 7457 N 752.353 -0.854086 1.3245 0
M  V30 7458 C 753.601 -1.60513 1.228 0
M  V30 7459 C 753.922 -1.93865 -0.210073 0
M  V30 7460 O 753.192 -1.59673 -1.13496 0
M  V30 7461 H 751.772 -0.595099 0.451516 0
M  V30 7462 H 754.434 -1.0216 1.6598 0
M  V30 7463 H 753.53 -2.54182 1.81102 0
M  V30 7464 N 753.831 -1.1567 -1.07043 0
M  V30 7465 C 754.781 -0.824733 -2.12561 0
M  V30 7466 C 755.765 0.19243 -1.59745 0
M  V30 7467 O 756.957 -0.00728759 -1.76998 0
M  V30 7468 C 754.086 -0.31921 -3.41813 0
M  V30 7469 C 753.172 -1.36671 -4.01475 0
M  V30 7470 N 753.563 -2.57493 -4.35351 0
M  V30 7471 C 751.861 -1.22018 -4.28984 0
M  V30 7472 C 752.562 -3.24658 -4.82672 0
M  V30 7473 N 751.538 -2.52043 -4.81638 0
M  V30 7474 H 755.34 -1.74363 -2.3659 0
M  V30 7475 H 752.854 -1.04262 -1.24511 0
M  V30 7476 H 754.851 -0.0630216 -4.16852 0
M  V30 7477 H 753.511 0.593708 -3.19226 0
M  V30 7478 H 754.522 -2.94612 -4.25939 0
M  V30 7479 H 751.199 -0.367414 -4.1588 0
M  V30 7480 H 752.589 -4.2775 -5.1815 0
M  V30 7481 N 755.309 1.25446 -0.953992 0
M  V30 7482 C 756.72 1.75047 -0.649255 0
M  V30 7483 C 757.071 1.77527 0.835385 0
M  V30 7484 O 756.196 1.39569 1.65377 0
M  V30 7485 C 756.791 3.17889 -1.17183 0
M  V30 7486 C 755.35 3.65052 -0.917267 0
M  V30 7487 C 754.497 2.44124 -1.31525 0
M  V30 7488 H 757.448 1.11342 -1.13087 0
M  V30 7489 H 757.469 3.76768 -0.531616 0
M  V30 7490 H 756.981 3.16052 -2.25239 0
M  V30 7491 H 755.082 3.72305 0.148354 0
M  V30 7492 H 755.195 4.53222 -1.55328 0
M  V30 7493 H 753.559 2.43906 -0.733624 0
M  V30 7494 H 754.342 2.44979 -2.405 0
M  V30 7495 N 756.787 0.722489 1.40064 0
M  V30 7496 C 758.203 0.396758 1.5459 0
M  V30 7497 C 758.403 -1.09375 1.69232 0
M  V30 7498 O 757.459 -1.87984 1.68578 0
M  V30 7499 C 758.772 1.16885 2.77053 0
M  V30 7500 C 760.32 1.15583 2.90877 0
M  V30 7501 C 760.795 1.91023 4.16262 0
M  V30 7502 N 762.286 1.88126 4.23276 0
M  V30 7503 C 763.021 2.43315 5.19216 0
M  V30 7504 N 762.517 3.07089 6.21022 0
M  V30 7505 N 764.31 2.33418 5.11344 0
M  V30 7506 H 756.461 1.68887 1.28806 0
M  V30 7507 H 758.724 0.714231 0.62336 0
M  V30 7508 H 758.43 2.22301 2.72534 0
M  V30 7509 H 758.304 0.765011 3.69361 0
M  V30 7510 H 760.691 0.10984 2.94896 0
M  V30 7511 H 760.772 1.59895 1.99668 0
M  V30 7512 H 760.416 2.95616 4.13006 0
M  V30 7513 H 760.346 1.44126 5.06493 0
M  V30 7514 H 762.837 1.41654 3.50346 0
M  V30 7515 H 763.15 3.467 6.90666 0
M  V30 7516 H 761.495 3.11175 6.21446 0
M  V30 7517 H 764.686 1.83248 4.30741 0
M  V30 7518 H 764.859 2.7673 5.85939 0
M  V30 7519 N 758.265 -1.50454 0.469181 0
M  V30 7520 C 759.513 -2.01916 -0.0862982 0
M  V30 7521 C 759.834 -1.35337 -1.40388 0
M  V30 7522 O 759.104 -0.498096 -1.89462 0
M  V30 7523 H 757.684 -0.746185 -0.0348825 0
M  V30 7524 H 760.346 -1.84804 0.619167 0
M  V30 7525 H 759.442 -3.11182 -0.239189 0
M  V30 7526 N 759.743 -0.201713 -1.56304 0
M  V30 7527 C 760.992 0.435557 -1.96941 0
M  V30 7528 C 761.305 1.62299 -1.09172 0
M  V30 7529 O 762.511 2.32849 -1.3962 0
M  V30 7530 C 760.967 0.826298 -3.50286 0
M  V30 7531 C 760.575 -0.337216 -4.46729 0
M  V30 7532 C 762.319 1.43028 -3.99679 0
M  V30 7533 C 760.226 0.0748539 -5.91353 0
M  V30 7534 H 759.156 0.1665 -0.735387 0
M  V30 7535 H 761.807 -0.294781 -1.81117 0
M  V30 7536 H 760.189 1.61349 -3.61639 0
M  V30 7537 H 761.363 -1.11476 -4.47113 0
M  V30 7538 H 759.678 -0.853126 -4.07567 0
M  V30 7539 H 762.275 1.75115 -5.05212 0
M  V30 7540 H 762.618 2.33911 -3.44371 0
M  V30 7541 H 763.151 0.706924 -3.91468 0
M  V30 7542 H 759.89 -0.799957 -6.506 0
M  V30 7543 H 759.41 0.817122 -5.94208 0
M  V30 7544 H 761.089 0.508389 -6.45 0
M  V30 7545 N 761.222 1.57436 0.0718424 0
M  V30 7546 C 762.185 2.02703 1.06977 0
M  V30 7547 C 763.185 0.924062 1.31597 0
M  V30 7548 O 764.375 1.18894 1.27318 0
M  V30 7549 C 761.507 2.40763 2.41342 0
M  V30 7550 H 762.7 2.92098 0.679619 0
M  V30 7551 H 760.253 1.5304 0.317565 0
M  V30 7552 H 760.988 1.54394 2.8519 0
M  V30 7553 H 760.773 3.21249 2.24814 0
M  V30 7554 H 762.263 2.76361 3.13073 0
M  V30 7555 N 762.7 -0.34323 1.53817 0
M  V30 7556 C 763.946 -1.08504 1.71332 0
M  V30 7557 C 764.279 -1.88294 0.475285 0
M  V30 7558 O 763.554 -1.87205 -0.527688 0
M  V30 7559 C 763.837 -2.02597 2.97702 0
M  V30 7560 C 763.69 -1.26268 4.31713 0
M  V30 7561 C 765.009 -3.0241 3.19744 0
M  V30 7562 H 762.128 -0.393072 0.623429 0
M  V30 7563 H 764.77 -0.363579 1.86489 0
M  V30 7564 H 762.92 -2.64118 2.8491 0
M  V30 7565 H 764.592 -0.673594 4.56356 0
M  V30 7566 H 762.835 -0.564696 4.30109 0
M  V30 7567 H 763.506 -1.95253 5.16314 0
M  V30 7568 H 765.982 -2.51004 3.31868 0
M  V30 7569 H 764.858 -3.65449 4.09558 0
M  V30 7570 H 765.119 -3.73806 2.36054 0
M  V30 7571 N 764.178 -1.45556 -0.604258 0
M  V30 7572 C 765.455 -1.40221 -1.36373 0
M  V30 7573 C 765.835 -0.0745195 -2.10968 0
M  V30 7574 O 765.183 0.943594 -2.08107 0
M  V30 7575 C 765.393 -2.61807 -2.30777 0
M  V30 7576 C 766.741 -3.07037 -2.93281 0
M  V30 7577 O 767.765 -2.62203 -2.41097 0
M  V30 7578 O 766.624 -3.8485 -3.88011 0
M  V30 7579 H 763.718 -0.556602 -0.611656 0
M  V30 7580 H 766.264 -1.57689 -0.627069 0
M  V30 7581 H 765.036 -3.50017 -1.74939 0
M  V30 7582 H 764.659 -2.46688 -3.11818 0
M  V30 7583 N 765.656 0.84705 -1.32902 0
M  V30 7584 C 767.067 1.41785 -1.21466 0
M  V30 7585 C 767.418 1.95464 0.169767 0
M  V30 7586 O 766.543 1.88157 1.06892 0
M  V30 7587 C 767.138 2.57734 -2.19906 0
M  V30 7588 C 765.697 3.10791 -2.12334 0
M  V30 7589 C 764.844 1.83562 -2.07847 0
M  V30 7590 H 767.795 0.653532 -1.44619 0
M  V30 7591 H 767.816 3.35123 -1.80202 0
M  V30 7592 H 767.328 2.18635 -3.20656 0
M  V30 7593 H 765.429 3.54455 -1.14858 0
M  V30 7594 H 765.542 3.71519 -3.02506 0
M  V30 7595 H 763.906 2.03475 -1.53199 0
M  V30 7596 H 764.689 1.4667 -3.10392 0
M  V30 7597 N 767.134 1.16236 1.06428 0
M  V30 7598 C 768.362 0.967184 1.82902 0
M  V30 7599 C 768.777 -0.484601 1.82475 0
M  V30 7600 O 768.134 -1.33631 1.24294 0
M  V30 7601 C 768.185 1.48534 3.29576 0
M  V30 7602 O 767.906 2.88026 3.3011 0
M  V30 7603 C 769.407 1.33298 4.22784 0
M  V30 7604 H 766.627 0.342923 0.576754 0
M  V30 7605 H 769.171 1.54232 1.34286 0
M  V30 7606 H 767.326 0.952513 3.75508 0
M  V30 7607 H 767.74 3.11721 4.21818 0
M  V30 7608 H 769.214 1.74385 5.23731 0
M  V30 7609 H 769.691 0.278356 4.38317 0
M  V30 7610 H 770.297 1.85535 3.82697 0
M  V30 7611 N 768.612 -1.24939 0.960631 0
M  V30 7612 C 769.858 -1.93104 0.61958 0
M  V30 7613 C 770.191 -1.74991 -0.84212 0
M  V30 7614 O 769.466 -1.09867 -1.60498 0
M  V30 7615 C 769.749 -3.46326 0.986422 0
M  V30 7616 C 769.602 -3.73638 2.50429 0
M  V30 7617 C 770.921 -4.37067 0.515827 0
M  V30 7618 H 768.04 -0.701311 0.226566 0
M  V30 7619 H 770.682 -1.47442 1.19836 0
M  V30 7620 H 768.832 -3.85348 0.493907 0
M  V30 7621 H 770.504 -3.44217 3.07103 0
M  V30 7622 H 768.747 -3.19035 2.93937 0
M  V30 7623 H 769.418 -4.80815 2.71147 0
M  V30 7624 H 771.894 -4.05381 0.938389 0
M  V30 7625 H 770.77 -5.43022 0.80114 0
M  V30 7626 H 771.031 -4.38224 -0.584171 0
M  V30 7627 N 770.09 -0.729906 -1.39679 0
M  V30 7628 C 771.338 -0.275077 -2.00219 0
M  V30 7629 C 771.659 1.1401 -1.58199 0
M  V30 7630 O 770.929 1.77546 -0.827904 0
M  V30 7631 H 769.509 -0.0987127 -0.740449 0
M  V30 7632 H 772.171 -0.93873 -1.70804 0
M  V30 7633 H 771.267 -0.319446 -3.10461 0
M  V30 7634 N 771.568 1.50203 -0.477153 0
M  V30 7635 C 772.798 2.0647 0.0731427 0
M  V30 7636 C 773.206 1.3405 1.33518 0
M  V30 7637 O 772.549 0.405164 1.79176 0
M  V30 7638 C 772.611 3.57025 0.421121 0
M  V30 7639 C 772.275 4.50973 -0.739765 0
M  V30 7640 C 773.272 4.939 -1.62353 0
M  V30 7641 C 770.957 4.93581 -0.93181 0
M  V30 7642 C 772.951 5.78149 -2.6837 0
M  V30 7643 C 770.638 5.77612 -1.99519 0
M  V30 7644 C 771.636 6.19798 -2.86949 0
M  V30 7645 O 771.324 7.02152 -3.91456 0
M  V30 7646 H 771.056 0.675969 -0.00648243 0
M  V30 7647 H 773.61 1.94278 -0.66673 0
M  V30 7648 H 771.84 3.67141 1.21426 0
M  V30 7649 H 773.529 3.95632 0.907213 0
M  V30 7650 H 774.295 4.61646 -1.48687 0
M  V30 7651 H 770.174 4.60262 -0.260739 0
M  V30 7652 H 773.718 6.10997 -3.36643 0
M  V30 7653 H 769.615 6.09279 -2.13189 0
M  V30 7654 H 770.383 7.20414 -3.88518 0
M  V30 7655 N 773.046 0.209999 1.56195 0
M  V30 7656 C 773.976 -0.699746 2.22769 0
M  V30 7657 C 774.957 -1.20993 1.1956 0
M  V30 7658 O 776.142 -1.25605 1.48112 0
M  V30 7659 C 773.272 -1.91302 2.89863 0
M  V30 7660 C 772.226 -1.53715 3.99444 0
M  V30 7661 C 771.552 -2.82826 4.53777 0
M  V30 7662 C 772.852 -0.735836 5.17091 0
M  V30 7663 H 774.546 -0.144716 2.9905 0
M  V30 7664 H 772.092 -0.0681645 1.43839 0
M  V30 7665 H 774.045 -2.5548 3.35124 0
M  V30 7666 H 772.769 -2.49283 2.11011 0
M  V30 7667 H 771.428 -0.918892 3.54897 0
M  V30 7668 H 771.076 -3.38927 3.71669 0
M  V30 7669 H 770.776 -2.58415 5.27727 0
M  V30 7670 H 772.3 -3.47966 5.01749 0
M  V30 7671 H 773.714 -1.28105 5.58804 0
M  V30 7672 H 772.111 -0.589272 5.972 0
M  V30 7673 H 773.181 0.260004 4.84202 0
M  V30 7674 N 774.524 -1.57472 -0.0634922 0
M  V30 7675 C 775.771 -1.87654 -0.761066 0
M  V30 7676 C 776.099 -0.802847 -1.77157 0
M  V30 7677 O 775.354 0.200244 -1.94673 0
M  V30 7678 C 775.653 -3.24521 -1.49736 0
M  V30 7679 C 775.319 -4.46532 -0.626065 0
M  V30 7680 C 773.981 -4.7965 -0.385978 0
M  V30 7681 C 776.333 -5.21195 -0.0224001 0
M  V30 7682 C 773.661 -5.84837 0.467118 0
M  V30 7683 C 776.013 -6.27286 0.818198 0
M  V30 7684 C 774.677 -6.58899 1.06808 0
M  V30 7685 H 773.947 -0.686675 -0.278494 0
M  V30 7686 H 776.594 -1.91488 -0.0216348 0
M  V30 7687 H 774.899 -3.16516 -2.30921 0
M  V30 7688 H 776.596 -3.45111 -2.04204 0
M  V30 7689 H 773.186 -4.20618 -0.823325 0
M  V30 7690 H 777.37 -4.95917 -0.194985 0
M  V30 7691 H 772.626 -6.07725 0.669375 0
M  V30 7692 H 776.8 -6.84298 1.29265 0
M  V30 7693 H 774.427 -7.40233 1.73088 0
M  V30 7694 N 776.003 0.335068 -1.53997 0
M  V30 7695 C 777.25 1.07435 -1.71651 0
M  V30 7696 C 777.578 1.88378 -0.48413 0
M  V30 7697 O 776.833 1.8827 0.534139 0
M  V30 7698 C 777.132 2.0364 -2.9371 0
M  V30 7699 C 776.798 1.38942 -4.28959 0
M  V30 7700 C 775.46 1.21027 -4.65732 0
M  V30 7701 C 777.812 0.924083 -5.12943 0
M  V30 7702 C 775.14 0.552097 -5.84097 0
M  V30 7703 C 777.492 0.27978 -6.31981 0
M  V30 7704 C 776.156 0.0883843 -6.67441 0
M  V30 7705 H 775.426 0.393133 -0.628114 0
M  V30 7706 H 778.073 0.352712 -1.88224 0
M  V30 7707 H 776.378 2.82215 -2.71775 0
M  V30 7708 H 778.075 2.6085 -3.04562 0
M  V30 7709 H 774.665 1.53885 -4.00022 0
M  V30 7710 H 778.849 1.05032 -4.85059 0
M  V30 7711 H 774.105 0.392502 -6.10139 0
M  V30 7712 H 778.279 -0.0888479 -6.96343 0
M  V30 7713 H 775.906 -0.423657 -7.59019 0
M  V30 7714 N 777.481 1.45874 0.596531 0
M  V30 7715 C 778.706 1.54247 1.38646 0
M  V30 7716 C 779.131 0.179571 1.87241 0
M  V30 7717 O 778.489 -0.837831 1.6078 0
M  V30 7718 C 778.537 2.54015 2.55946 0
M  V30 7719 O 777.641 2.06561 3.5694 0
M  V30 7720 H 776.982 0.519555 0.413471 0
M  V30 7721 H 779.512 1.91327 0.724936 0
M  V30 7722 H 779.522 2.73179 3.03047 0
M  V30 7723 H 778.197 3.52994 2.19928 0
M  V30 7724 H 776.774 1.97324 3.16414 0
M  V30 7725 N 778.959 -0.83999 1.33349 0
M  V30 7726 C 780.236 -1.57973 1.15342 0
M  V30 7727 C 780.616 -2.09226 -0.280632 0
M  V30 7728 O 779.964 -1.89317 -1.2795 0
M  V30 7729 C 780.174 -2.71446 2.19359 0
M  V30 7730 C 781.522 -3.40654 2.53456 0
M  V30 7731 O 782.546 -2.81686 2.18017 0
M  V30 7732 O 781.405 -4.47101 3.14266 0
M  V30 7733 H 778.499 -0.6964 0.446044 0
M  V30 7734 H 781.045 -0.882843 1.44927 0
M  V30 7735 H 779.817 -2.31205 3.1569 0
M  V30 7736 H 779.44 -3.488 1.90852 0
M  V30 7737 N 780.437 -1.16799 -1.0581 0
M  V30 7738 C 781.683 -0.963929 -1.79109 0
M  V30 7739 C 782.038 0.502569 -1.8572 0
M  V30 7740 O 781.331 1.36813 -1.34137 0
M  V30 7741 C 781.525 -1.53111 -3.22942 0
M  V30 7742 C 781.354 -3.05123 -3.30348 0
M  V30 7743 C 780.124 -3.73804 -3.39998 0
M  V30 7744 C 782.322 -4.02777 -3.19805 0
M  V30 7745 N 780.304 -5.1348 -3.36469 0
M  V30 7746 C 781.675 -5.28866 -3.23576 0
M  V30 7747 C 783.73 -3.94533 -3.03724 0
M  V30 7748 C 782.433 -6.47669 -3.12918 0
M  V30 7749 C 784.459 -5.12913 -2.94405 0
M  V30 7750 C 783.821 -6.37884 -2.98803 0
M  V30 7751 H 779.92 -0.406555 -0.66801 0
M  V30 7752 H 782.504 -1.48277 -1.26183 0
M  V30 7753 H 780.675 -1.03869 -3.74254 0
M  V30 7754 H 782.407 -1.2643 -3.84444 0
M  V30 7755 H 779.162 -3.24457 -3.44999 0
M  V30 7756 H 779.586 -5.86477 -3.38191 0
M  V30 7757 H 784.228 -2.98763 -2.99166 0
M  V30 7758 H 781.946 -7.43656 -3.16231 0
M  V30 7759 H 785.532 -5.08309 -2.83042 0
M  V30 7760 H 784.412 -7.27946 -2.91657 0
M  V30 7761 N 781.915 1.24427 -0.967243 0
M  V30 7762 C 782.825 2.29109 -0.504592 0
M  V30 7763 C 783.841 1.68495 0.434224 0
M  V30 7764 O 785.017 1.99041 0.307379 0
M  V30 7765 C 782.082 3.46133 0.198273 0
M  V30 7766 C 781.143 4.22149 -0.780313 0
M  V30 7767 C 780.376 5.33585 -0.110896 0
M  V30 7768 O 780.599 5.59676 1.10088 0
M  V30 7769 O 779.533 5.96522 -0.802823 0
M  V30 7770 H 783.359 2.708 -1.37482 0
M  V30 7771 H 780.944 1.30111 -0.73426 0
M  V30 7772 H 782.826 4.17205 0.593124 0
M  V30 7773 H 781.501 3.0642 1.04347 0
M  V30 7774 H 780.408 3.53454 -1.22561 0
M  V30 7775 H 781.741 4.65677 -1.59392 0
M  V30 7776 N 783.393 0.737304 1.3929 0
M  V30 7777 C 784.618 0.295237 2.05288 0
M  V30 7778 C 785.043 -1.06235 1.55228 0
M  V30 7779 O 784.401 -1.67365 0.697043 0
M  V30 7780 C 784.449 0.309146 3.59272 0
M  V30 7781 O 783.553 -0.702437 4.06374 0
M  V30 7782 H 782.894 0.133762 0.650387 0
M  V30 7783 H 785.424 1.00387 1.78279 0
M  V30 7784 H 785.434 0.154336 4.07708 0
M  V30 7785 H 784.109 1.29974 3.95069 0
M  V30 7786 H 782.686 -0.513574 3.69346 0
M  V30 7787 N 784.871 -1.49948 0.485112 0
M  V30 7788 C 785.801 -2.31675 -0.291364 0
M  V30 7789 C 786.782 -1.39216 -0.977383 0
M  V30 7790 O 787.967 -1.68133 -0.971855 0
M  V30 7791 C 785.097 -3.19326 -1.36558 0
M  V30 7792 C 784.051 -4.2045 -0.800359 0
M  V30 7793 C 783.377 -4.96931 -1.97391 0
M  V30 7794 C 784.677 -5.21925 0.197867 0
M  V30 7795 H 786.371 -2.96839 0.390775 0
M  V30 7796 H 783.917 -1.42749 0.189375 0
M  V30 7797 H 785.87 -3.75304 -1.91638 0
M  V30 7798 H 784.594 -2.52074 -2.07668 0
M  V30 7799 H 783.253 -3.65594 -0.271428 0
M  V30 7800 H 782.901 -4.26141 -2.67232 0
M  V30 7801 H 782.601 -5.65344 -1.60187 0
M  V30 7802 H 784.125 -5.55749 -2.52935 0
M  V30 7803 H 785.539 -5.72691 -0.264239 0
M  V30 7804 H 783.936 -5.98138 0.484908 0
M  V30 7805 H 785.006 -4.71809 1.11912 0
M  V30 7806 N 786.349 -0.21828 -1.56081 0
M  V30 7807 C 787.574 0.422302 -2.03055 0
M  V30 7808 C 787.999 1.5279 -1.09713 0
M  V30 7809 O 787.357 1.81102 -0.0847187 0
M  V30 7810 C 787.405 0.934177 -3.48289 0
M  V30 7811 O 786.509 2.04574 -3.58083 0
M  V30 7812 H 785.85 0.0959764 -0.657027 0
M  V30 7813 H 788.38 -0.335958 -2.01823 0
M  V30 7814 H 788.39 1.24484 -3.88546 0
M  V30 7815 H 787.065 0.124963 -4.15712 0
M  V30 7816 H 785.642 1.74196 -3.29712 0
M  V30 7817 N 787.827 1.57504 0.0551401 0
M  V30 7818 C 789.075 1.87684 0.74962 0
M  V30 7819 C 789.396 0.812547 1.77264 0
M  V30 7820 O 788.666 -0.15694 1.9527 0
M  V30 7821 H 787.246 0.6926 0.279846 0
M  V30 7822 H 789.908 1.94881 0.0272745 0
M  V30 7823 H 789.004 2.85734 1.25548 0
M  V30 7824 N 789.305 -0.326896 1.54172 0
M  V30 7825 C 790.215 -1.42525 1.86343 0
M  V30 7826 C 791.231 -1.56764 0.75505 0
M  V30 7827 O 792.407 -1.71924 1.04901 0
M  V30 7828 C 789.472 -2.77286 2.08119 0
M  V30 7829 C 788.533 -2.7225 3.31931 0
M  V30 7830 C 787.766 -4.00584 3.52659 0
M  V30 7831 O 787.989 -4.98686 2.76891 0
M  V30 7832 O 786.923 -4.04045 4.46129 0
M  V30 7833 H 790.749 -1.18249 2.79734 0
M  V30 7834 H 788.334 -0.520614 1.40036 0
M  V30 7835 H 790.216 -3.57065 2.23791 0
M  V30 7836 H 788.891 -3.01459 1.17917 0
M  V30 7837 H 787.798 -1.91033 3.21647 0
M  V30 7838 H 789.131 -2.53032 4.2218 0
M  V30 7839 N 790.784 -1.46188 -0.588786 0
M  V30 7840 C 792.195 -1.45421 -1.17088 0
M  V30 7841 C 792.546 -0.191801 -1.9526 0
M  V30 7842 O 791.671 0.705497 -2.04577 0
M  V30 7843 C 792.266 -2.63467 -2.13004 0
M  V30 7844 C 790.825 -2.6576 -2.6655 0
M  V30 7845 C 789.972 -2.38002 -1.42304 0
M  V30 7846 H 792.923 -1.54156 -0.377052 0
M  V30 7847 H 792.944 -2.38638 -2.96365 0
M  V30 7848 H 792.456 -3.55331 -1.56081 0
M  V30 7849 H 790.557 -1.77952 -3.27359 0
M  V30 7850 H 790.67 -3.65545 -3.09699 0
M  V30 7851 H 789.034 -1.87936 -1.71907 0
M  V30 7852 H 789.817 -3.32035 -0.872209 0
M  V30 7853 N 792.262 0.832906 -1.33792 0
M  V30 7854 C 793.209 1.94314 -1.24541 0
M  V30 7855 C 794.179 1.65646 -0.122753 0
M  V30 7856 O 795.364 1.88394 -0.30204 0
M  V30 7857 C 792.504 3.30395 -0.996641 0
M  V30 7858 C 791.617 3.71422 -2.20612 0
M  V30 7859 C 790.752 4.96401 -1.89101 0
M  V30 7860 C 789.791 5.2998 -3.06247 0
M  V30 7861 N 788.928 6.46137 -2.74685 0
M  V30 7862 H 793.768 2.01559 -2.19495 0
M  V30 7863 H 791.305 0.986243 -1.09141 0
M  V30 7864 H 793.263 4.08803 -0.832817 0
M  V30 7865 H 791.893 3.22691 -0.0838242 0
M  V30 7866 H 790.945 2.88488 -2.47949 0
M  V30 7867 H 792.257 3.92215 -3.0817 0
M  V30 7868 H 791.411 5.82572 -1.69396 0
M  V30 7869 H 790.15 4.7759 -0.987882 0
M  V30 7870 H 789.155 4.42312 -3.26559 0
M  V30 7871 H 790.38 5.50737 -3.97323 0
M  V30 7872 H 788.326 6.28801 -1.86938 0
M  V30 7873 H 788.243 6.67054 -3.55774 0
M  V30 7874 H 789.511 7.35403 -2.58461 0
M  V30 7875 N 793.74 1.17359 1.05189 0
M  V30 7876 C 794.67 0.91365 2.14883 0
M  V30 7877 C 795.651 -0.144365 1.69486 0
M  V30 7878 O 796.836 0.00587861 1.94199 0
M  V30 7879 C 793.966 0.426196 3.44675 0
M  V30 7880 C 792.92 1.4234 4.03638 0
M  V30 7881 C 792.246 0.793902 5.28773 0
M  V30 7882 C 793.546 2.7966 4.41121 0
M  V30 7883 H 795.24 1.831 2.36885 0
M  V30 7884 H 792.786 0.881781 1.13845 0
M  V30 7885 H 794.739 0.231767 4.20762 0
M  V30 7886 H 793.463 -0.526693 3.22325 0
M  V30 7887 H 792.122 1.60457 3.2962 0
M  V30 7888 H 791.77 -0.165824 5.02727 0
M  V30 7889 H 791.47 1.45959 5.69183 0
M  V30 7890 H 792.994 0.609747 6.07548 0
M  V30 7891 H 794.408 2.6526 5.08242 0
M  V30 7892 H 792.805 3.42807 4.92548 0
M  V30 7893 H 793.875 3.34068 3.51464 0
M  V30 7894 N 795.218 -1.23913 0.973828 0
M  V30 7895 C 796.128 -2.28838 0.516735 0
M  V30 7896 C 797.144 -1.68723 -0.425282 0
M  V30 7897 O 798.32 -1.99201 -0.296819 0
M  V30 7898 C 795.385 -3.46233 -0.179914 0
M  V30 7899 C 794.446 -4.21729 0.80269 0
M  V30 7900 C 793.679 -5.33518 0.139191 0
M  V30 7901 O 793.902 -5.60252 -1.07118 0
M  V30 7902 O 792.836 -5.96088 0.834447 0
M  V30 7903 H 796.662 -2.70067 1.38916 0
M  V30 7904 H 794.247 -1.2972 0.74115 0
M  V30 7905 H 796.129 -4.17514 -0.570991 0
M  V30 7906 H 794.804 -3.06969 -1.02721 0
M  V30 7907 H 793.711 -3.52799 1.24434 0
M  V30 7908 H 795.044 -4.64825 1.61859 0
M  V30 7909 N 796.696 -0.74468 -1.38897 0
M  V30 7910 C 798.112 -0.421302 -1.53939 0
M  V30 7911 C 798.312 1.06668 -1.70951 0
M  V30 7912 O 797.368 1.85278 -1.71547 0
M  V30 7913 C 798.681 -1.21278 -2.75159 0
M  V30 7914 C 800.229 -1.20196 -2.89001 0
M  V30 7915 C 800.704 -1.97621 -4.13171 0
M  V30 7916 N 802.195 -1.94836 -4.2023 0
M  V30 7917 C 802.93 -2.51545 -5.15279 0
M  V30 7918 N 802.426 -3.1693 -6.16058 0
M  V30 7919 N 804.219 -2.41524 -5.07565 0
M  V30 7920 H 796.37 -1.70914 -1.26103 0
M  V30 7921 H 798.633 -0.724058 -0.611919 0
M  V30 7922 H 798.339 -2.26609 -2.68963 0
M  V30 7923 H 798.213 -0.823677 -3.68097 0
M  V30 7924 H 800.6 -0.156742 -2.94683 0
M  V30 7925 H 800.681 -1.63051 -1.97099 0
M  V30 7926 H 800.325 -3.02149 -4.0825 0
M  V30 7927 H 800.255 -1.52166 -5.04136 0
M  V30 7928 H 802.746 -1.4721 -3.48048 0
M  V30 7929 H 803.059 -3.57644 -6.85062 0
M  V30 7930 H 801.404 -3.21023 -6.16417 0
M  V30 7931 H 804.595 -1.90077 -4.27771 0
M  V30 7932 H 804.768 -2.86016 -5.81462 0
M  V30 7933 N 798.174 1.49689 -0.493057 0
M  V30 7934 C 799.137 2.27502 0.278485 0
M  V30 7935 C 800.137 1.33184 0.901037 0
M  V30 7936 O 801.327 1.56415 0.766801 0
M  V30 7937 C 798.459 3.10881 1.39878 0
M  V30 7938 H 799.652 2.97163 -0.404219 0
M  V30 7939 H 797.205 1.54324 -0.247774 0
M  V30 7940 H 797.94 2.45767 2.11587 0
M  V30 7941 H 797.725 3.80219 0.957924 0
M  V30 7942 H 799.215 3.69673 1.94247 0
M  V30 7943 N 799.652 0.226554 1.55963 0
M  V30 7944 C 800.899 -0.403789 1.98433 0
M  V30 7945 C 801.227 -1.59416 1.1143 0
M  V30 7946 O 800.482 -1.95042 0.160389 0
M  V30 7947 C 800.781 -0.87642 3.46488 0
M  V30 7948 C 800.447 0.203973 4.50438 0
M  V30 7949 C 799.109 0.500754 4.78587 0
M  V30 7950 C 801.461 0.934396 5.12756 0
M  V30 7951 C 798.789 1.53239 5.66334 0
M  V30 7952 C 801.141 1.9554 6.0162 0
M  V30 7953 C 799.805 2.25905 6.28111 0
M  V30 7954 H 799.075 -0.147757 0.726119 0
M  V30 7955 H 801.722 0.330121 1.88633 0
M  V30 7956 H 800.027 -1.68918 3.53517 0
M  V30 7957 H 801.724 -1.37407 3.76723 0
M  V30 7958 H 798.314 -0.0374917 4.28584 0
M  V30 7959 H 802.498 0.718355 4.91074 0
M  V30 7960 H 797.754 1.77321 5.85122 0
M  V30 7961 H 801.928 2.52642 6.48957 0
M  V30 7962 H 799.555 3.05985 6.959 0
M  V30 7963 N 801.13 -1.57531 -0.0467866 0
M  V30 7964 C 802.063 -2.00734 -1.08541 0
M  V30 7965 C 803.041 -0.888508 -1.36177 0
M  V30 7966 O 804.225 -1.1529 -1.49132 0
M  V30 7967 C 801.352 -2.36535 -2.42423 0
M  V30 7968 C 800.398 -3.58681 -2.3076 0
M  V30 7969 S 801.231 -5.08536 -1.67785 0
M  V30 7970 C 802.387 -5.47562 -3.03194 0
M  V30 7971 H 802.62 -2.88516 -0.717345 0
M  V30 7972 H 800.153 -1.5226 -0.256181 0
M  V30 7973 H 802.111 -2.57834 -3.19424 0
M  V30 7974 H 800.772 -1.49236 -2.76382 0
M  V30 7975 H 799.965 -3.81329 -3.29552 0
M  V30 7976 H 799.567 -3.37142 -1.61899 0
M  V30 7977 H 801.859 -5.47163 -3.99524 0
M  V30 7978 H 802.802 -6.48082 -2.85299 0
M  V30 7979 H 803.21 -4.75042 -3.04951 0
M  V30 7980 N 802.608 0.318715 -1.54344 0
M  V30 7981 C 803.885 1.07461 -1.63437 0
M  V30 7982 C 804.265 2.05771 -0.47131 0
M  V30 7983 O 803.613 2.22175 0.53391 0
M  V30 7984 C 803.823 1.77224 -3.00654 0
M  V30 7985 C 805.171 2.30069 -3.56866 0
M  V30 7986 O 806.195 1.87284 -3.0299 0
M  V30 7987 O 805.054 3.08412 -4.51159 0
M  V30 7988 H 802.148 0.495627 -0.66203 0
M  V30 7989 H 804.694 0.318218 -1.6669 0
M  V30 7990 H 803.466 1.05742 -3.76742 0
M  V30 7991 H 803.089 2.59662 -3.01101 0
M  V30 7992 N 804.086 1.46499 0.581025 0
M  V30 7993 C 805.334 1.51596 1.33653 0
M  V30 7994 C 805.655 0.169859 1.94259 0
M  V30 7995 O 804.925 -0.803776 1.78651 0
M  V30 7996 H 803.505 0.558346 0.496244 0
M  V30 7997 H 806.167 1.8264 0.680338 0
M  V30 7998 H 805.263 2.26956 2.14237 0
M  V30 7999 N 805.565 -0.825799 1.34232 0
M  V30 8000 C 806.79 -1.61883 1.29648 0
M  V30 8001 C 807.215 -1.87669 -0.127295 0
M  V30 8002 O 806.573 -1.45016 -1.08813 0
M  V30 8003 C 806.621 -2.93846 2.09014 0
M  V30 8004 O 805.725 -3.85778 1.4577 0
M  V30 8005 H 805.066 -0.492454 0.445405 0
M  V30 8006 H 807.596 -1.02641 1.76992 0
M  V30 8007 H 807.606 -3.43435 2.20264 0
M  V30 8008 H 806.281 -2.74401 3.12533 0
M  V30 8009 H 804.858 -3.4429 1.43245 0
M  V30 8010 N 807.043 -1.17915 -1.04565 0
M  V30 8011 C 807.991 -0.897919 -2.1457 0
M  V30 8012 C 808.985 0.139883 -1.68821 0
M  V30 8013 O 810.191 -0.00779463 -1.79998 0
M  V30 8014 H 806.566 -0.272867 -0.700748 0
M  V30 8015 H 808.537 -1.83268 -2.3549 0
M  V30 8016 C 807.286 -0.434634 -3.44973 0
M  V30 8017 H 806.609 -1.22469 -3.8058 0
M  V30 8018 H 808.049 -0.276804 -4.23095 0
M  V30 8019 C 806.508 0.848738 -3.26034 0
M  V30 8020 O 807.038 1.9141 -3.53164 0
M  V30 8021 N 805.244 0.799373 -2.79389 0
M  V30 8022 H 804.791 -0.0678192 -2.57511 0
M  V30 8023 H 804.749 1.6585 -2.67098 0
M  V30 8024 N 808.521 1.23394 -0.980386 0
M  V30 8025 C 809.937 1.43961 -0.689008 0
M  V30 8026 C 810.137 1.87229 0.744809 0
M  V30 8027 O 809.193 2.01831 1.51725 0
M  V30 8028 C 810.506 2.49128 -1.68392 0
M  V30 8029 C 812.054 2.62941 -1.69796 0
M  V30 8030 C 812.529 3.71317 -2.68118 0
M  V30 8031 N 814.02 3.7876 -2.66636 0
M  V30 8032 C 814.755 4.62176 -3.39383 0
M  V30 8033 N 814.251 5.49682 -4.21688 0
M  V30 8034 N 816.044 4.56372 -3.28147 0
M  V30 8035 H 808.195 0.936106 -1.90659 0
M  V30 8036 H 810.458 0.473023 -0.821555 0
M  V30 8037 H 810.164 2.24252 -2.70931 0
M  V30 8038 H 810.038 3.47514 -1.46675 0
M  V30 8039 H 812.425 2.87168 -0.679617 0
M  V30 8040 H 812.506 1.64871 -1.95579 0
M  V30 8041 H 812.15 3.4784 -3.70095 0
M  V30 8042 H 812.08 4.68929 -2.3961 0
M  V30 8043 H 814.571 3.16226 -2.06904 0
M  V30 8044 H 814.884 6.10323 -4.74053 0
M  V30 8045 H 813.229 5.49306 -4.25779 0
M  V30 8046 H 816.42 3.87029 -2.63299 0
M  V30 8047 H 816.593 5.21153 -3.85102 0
M  V30 8048 N 809.999 0.752036 1.385 0
M  V30 8049 C 810.946 0.123288 2.3047 0
M  V30 8050 C 811.916 -0.711326 1.50098 0
M  V30 8051 O 813.101 -0.667775 1.78733 0
M  V30 8052 C 810.241 -0.765085 3.36512 0
M  V30 8053 C 809.354 0.0839885 4.31918 0
M  V30 8054 C 808.489 -0.807243 5.25031 0
M  V30 8055 C 807.528 0.0455583 6.12083 0
M  V30 8056 N 806.665 -0.802547 6.97498 0
M  V30 8057 H 811.505 0.913169 2.83664 0
M  V30 8058 H 809.042 0.46195 1.39658 0
M  V30 8059 H 811 -1.29476 3.966 0
M  V30 8060 H 809.63 -1.52077 2.84732 0
M  V30 8061 H 808.682 0.731276 3.73305 0
M  V30 8062 H 809.994 0.74265 4.9324 0
M  V30 8063 H 809.148 -1.40414 5.90228 0
M  V30 8064 H 807.887 -1.49964 4.64071 0
M  V30 8065 H 806.892 0.655137 5.45883 0
M  V30 8066 H 808.117 0.734994 6.75111 0
M  V30 8067 H 806.063 -1.47992 6.39089 0
M  V30 8068 H 805.98 -0.200747 7.55733 0
M  V30 8069 H 807.248 -1.38447 7.67107 0
M  V30 8070 N 811.477 -1.49425 0.500989 0
M  V30 8071 C 812.754 -1.9531 -0.106551 0
M  V30 8072 C 813.134 -1.44248 -1.54129 0
M  V30 8073 O 812.482 -0.656237 -2.18874 0
M  V30 8074 C 812.692 -3.48995 -0.0191972 0
M  V30 8075 C 814.04 -4.24161 -0.193129 0
M  V30 8076 O 815.064 -3.56075 -0.0943843 0
M  V30 8077 O 813.923 -5.45064 -0.395869 0
M  V30 8078 H 811.017 -0.82149 -0.0953068 0
M  V30 8079 H 813.563 -1.6007 0.563526 0
M  V30 8080 H 812.335 -3.78794 0.981353 0
M  V30 8081 H 811.958 -3.90852 -0.72942 0
M  V30 8082 N 812.955 -0.234822 -1.55841 0
M  V30 8083 C 813.885 0.664217 -2.23854 0
M  V30 8084 C 814.866 1.19076 -1.2147 0
M  V30 8085 O 816.051 1.23232 -1.50091 0
M  V30 8086 C 813.181 1.86666 -2.9287 0
M  V30 8087 C 812.135 1.47341 -4.01839 0
M  V30 8088 C 811.461 2.75571 -4.58219 0
M  V30 8089 C 812.761 0.653479 -5.18196 0
M  V30 8090 H 814.455 0.0971213 -2.99242 0
M  V30 8091 H 812.001 0.0452724 -1.43929 0
M  V30 8092 H 813.954 2.50116 -3.39146 0
M  V30 8093 H 812.678 2.45894 -2.1495 0
M  V30 8094 H 811.337 0.862314 -3.56314 0
M  V30 8095 H 810.985 3.32971 -3.77014 0
M  V30 8096 H 810.685 2.49987 -5.31771 0
M  V30 8097 H 812.209 3.39939 -5.07221 0
M  V30 8098 H 813.623 1.19198 -5.60771 0
M  V30 8099 H 812.02 0.494188 -5.98062 0
M  V30 8100 H 813.09 -0.337004 -4.83728 0
M  V30 8101 N 814.433 1.57553 0.0384317 0
M  V30 8102 C 815.679 1.89121 0.732199 0
M  V30 8103 C 816.012 0.831404 1.75503 0
M  V30 8104 O 815.287 -0.154642 1.93884 0
M  V30 8105 C 815.57 3.31338 1.41021 0
M  V30 8106 C 815.423 4.48004 0.401532 0
M  V30 8107 C 816.742 3.72318 2.34665 0
M  V30 8108 H 813.861 0.687819 0.264715 0
M  V30 8109 H 816.503 1.89999 -0.00496279 0
M  V30 8110 H 814.653 3.3072 2.03854 0
M  V30 8111 H 816.325 4.60755 -0.224159 0
M  V30 8112 H 814.568 4.32895 -0.280092 0
M  V30 8113 H 815.239 5.44377 0.91423 0
M  V30 8114 H 817.715 3.74243 1.81883 0
M  V30 8115 H 816.591 4.72652 2.7909 0
M  V30 8116 H 816.852 3.04062 3.20934 0
M  V30 8117 N 815.911 -0.310526 1.54511 0
M  V30 8118 C 816.858 -1.38264 1.84802 0
M  V30 8119 C 817.828 -1.50808 0.696141 0
M  V30 8120 O 819.013 -1.6582 0.943846 0
M  V30 8121 C 816.153 -2.74422 2.09252 0
M  V30 8122 C 815.266 -2.70405 3.36906 0
M  V30 8123 C 814.401 -3.98495 3.51248 0
M  V30 8124 C 813.44 -3.88836 4.72729 0
M  V30 8125 N 812.577 -5.08683 4.83928 0
M  V30 8126 H 817.417 -1.11732 2.76261 0
M  V30 8127 H 814.954 -0.540609 1.36806 0
M  V30 8128 H 816.912 -3.53593 2.21422 0
M  V30 8129 H 815.542 -2.99235 1.2107 0
M  V30 8130 H 814.594 -1.83151 3.33406 0
M  V30 8131 H 815.906 -2.59155 4.26193 0
M  V30 8132 H 815.06 -4.861 3.63031 0
M  V30 8133 H 813.799 -4.12567 2.60077 0
M  V30 8134 H 812.804 -2.99615 4.60989 0
M  V30 8135 H 814.029 -3.76318 5.65298 0
M  V30 8136 H 811.975 -5.23236 3.95677 0
M  V30 8137 H 811.892 -4.99819 5.67201 0
M  V30 8138 H 813.16 -5.97966 5.00057 0
M  V30 8139 N 817.389 -1.46805 -0.573248 0
M  V30 8140 C 818.617 -1.56191 -1.3569 0
M  V30 8141 C 819.032 -0.206362 -1.87669 0
M  V30 8142 O 818.389 0.797883 -1.64134 0
M  V30 8143 C 818.44 -2.57433 -2.53792 0
M  V30 8144 O 818.161 -3.87724 -2.03965 0
M  V30 8145 C 819.662 -2.76851 -3.4622 0
M  V30 8146 H 816.882 -0.527907 -0.414192 0
M  V30 8147 H 819.426 -1.92292 -0.695989 0
M  V30 8148 H 817.581 -2.24311 -3.15854 0
M  V30 8149 H 817.995 -4.42909 -2.80948 0
M  V30 8150 H 819.469 -3.5159 -4.25545 0
M  V30 8151 H 819.946 -1.84095 -3.98755 0
M  V30 8152 H 820.552 -3.11107 -2.89987 0
M  V30 8153 N 818.867 0.818669 -1.34668 0
M  V30 8154 C 819.814 1.92983 -1.26595 0
M  V30 8155 C 820.784 1.65506 -0.140315 0
M  V30 8156 O 821.969 1.88063 -0.322005 0
M  V30 8157 C 819.109 3.2932 -1.03163 0
M  V30 8158 C 818.222 3.69061 -2.24539 0
M  V30 8159 C 817.357 4.94368 -1.94355 0
M  V30 8160 C 816.396 5.26702 -3.11851 0
M  V30 8161 N 815.533 6.43187 -2.81522 0
M  V30 8162 H 820.373 1.99219 -2.2162 0
M  V30 8163 H 817.91 0.974612 -1.1018 0
M  V30 8164 H 819.868 4.07897 -0.87613 0
M  V30 8165 H 818.498 3.22584 -0.118045 0
M  V30 8166 H 817.55 2.85842 -2.50995 0
M  V30 8167 H 818.862 3.88924 -3.12313 0
M  V30 8168 H 818.016 5.80742 -1.75566 0
M  V30 8169 H 816.755 4.76515 -1.03848 0
M  V30 8170 H 815.76 4.38823 -3.31231 0
M  V30 8171 H 816.985 5.46492 -4.03142 0
M  V30 8172 H 814.931 6.26783 -1.93596 0
M  V30 8173 H 814.848 6.63243 -3.62829 0
M  V30 8174 H 816.116 7.32621 -2.66247 0
M  V30 8175 N 820.346 1.18468 1.03938 0
M  V30 8176 C 821.276 0.936389 2.13902 0
M  V30 8177 C 822.257 -0.126381 1.6963 0
M  V30 8178 O 823.442 0.0264757 1.94182 0
M  V30 8179 C 820.572 0.462729 3.44204 0
M  V30 8180 C 819.526 1.46613 4.02105 0
M  V30 8181 C 818.852 0.84994 5.27902 0
M  V30 8182 C 820.152 2.84323 4.3813 0
M  V30 8183 H 821.846 1.85602 2.3493 0
M  V30 8184 H 819.392 0.893806 1.12903 0
M  V30 8185 H 821.345 0.276382 4.20493 0
M  V30 8186 H 820.069 -0.492477 3.22866 0
M  V30 8187 H 818.728 1.63944 3.27899 0
M  V30 8188 H 818.376 -0.112493 5.02874 0
M  V30 8189 H 818.076 1.51988 5.67603 0
M  V30 8190 H 819.6 0.674152 6.06867 0
M  V30 8191 H 821.014 2.70636 5.054 0
M  V30 8192 H 819.411 3.48012 4.88884 0
M  V30 8193 H 820.481 3.37776 3.47901 0
M  V30 8194 N 821.824 -1.22873 0.986916 0
M  V30 8195 C 823.072 -1.91084 0.658121 0
M  V30 8196 C 823.393 -1.77304 -0.811675 0
M  V30 8197 O 822.663 -1.15649 -1.58121 0
M  V30 8198 H 821.243 -0.707251 0.240427 0
M  V30 8199 H 823.905 -1.49357 1.25213 0
M  V30 8200 H 823.001 -2.98373 0.915428 0
M  V30 8201 N 823.302 -0.75937 -1.38099 0
M  V30 8202 C 824.548 -0.327559 -2.00745 0
M  V30 8203 C 824.903 1.08042 -1.592 0
M  V30 8204 O 824.196 1.7306 -0.822236 0
M  V30 8205 C 824.39 -0.394999 -3.55211 0
M  V30 8206 C 824.219 -1.80798 -4.11755 0
M  V30 8207 C 822.989 -2.42585 -4.43262 0
M  V30 8208 C 825.187 -2.76556 -4.33614 0
M  V30 8209 N 823.169 -3.75784 -4.85448 0
M  V30 8210 C 824.54 -3.94532 -4.78273 0
M  V30 8211 C 826.595 -2.74004 -4.15724 0
M  V30 8212 C 825.298 -5.10322 -5.06916 0
M  V30 8213 C 827.324 -3.88957 -4.45496 0
M  V30 8214 C 826.686 -5.05672 -4.90383 0
M  V30 8215 H 822.785 -0.166644 -0.764038 0
M  V30 8216 H 825.369 -0.99056 -1.67619 0
M  V30 8217 H 823.54 0.237761 -3.87672 0
M  V30 8218 H 825.272 0.0576828 -4.04659 0
M  V30 8219 H 822.027 -1.94302 -4.31907 0
M  V30 8220 H 822.451 -4.44234 -5.10867 0
M  V30 8221 H 827.093 -1.84948 -3.80203 0
M  V30 8222 H 824.811 -5.99988 -5.41332 0
M  V30 8223 H 828.397 -3.88308 -4.33253 0
M  V30 8224 H 827.277 -5.93146 -5.1298 0
M  V30 8225 N 824.78 1.49157 -0.508906 0
M  V30 8226 C 826.191 1.86593 -0.0630975 0
M  V30 8227 C 826.542 1.42051 1.35337 0
M  V30 8228 O 825.667 0.801866 2.00995 0
M  V30 8229 C 826.262 3.38629 -0.107729 0
M  V30 8230 C 824.821 3.75336 0.282776 0
M  V30 8231 C 823.968 2.7317 -0.4768 0
M  V30 8232 H 826.919 1.41362 -0.72128 0
M  V30 8233 H 826.94 3.74271 0.685689 0
M  V30 8234 H 826.452 3.71017 -1.13876 0
M  V30 8235 H 824.553 3.48558 1.31675 0
M  V30 8236 H 824.666 4.79081 -0.0421728 0
M  V30 8237 H 823.03 2.54591 0.0743552 0
M  V30 8238 H 823.813 3.08403 -1.50807 0
M  V30 8239 N 826.258 0.243083 1.55714 0
M  V30 8240 C 827.221 -0.644723 2.19945 0
M  V30 8241 C 828.221 -1.10562 1.16759 0
M  V30 8242 O 829.411 -1.01095 1.41865 0
M  V30 8243 C 826.543 -1.88569 2.83997 0
M  V30 8244 H 827.736 -0.0843839 2.99781 0
M  V30 8245 H 825.289 -0.00647246 1.56299 0
M  V30 8246 H 826.024 -2.48736 2.08089 0
M  V30 8247 H 825.809 -1.56345 3.59581 0
M  V30 8248 H 827.299 -2.51774 3.33166 0
M  V30 8249 N 827.736 -1.57571 -0.0300757 0
M  V30 8250 C 828.984 -1.88852 -0.719666 0
M  V30 8251 C 829.305 -0.840645 -1.75949 0
M  V30 8252 O 828.575 0.125854 -1.95495 0
M  V30 8253 H 827.155 -0.696965 -0.268792 0
M  V30 8254 H 829.817 -1.949 0.00373285 0
M  V30 8255 H 828.913 -2.87695 -1.20987 0
M  V30 8256 N 829.214 0.302327 -1.54673 0
M  V30 8257 C 830.46 1.03924 -1.74149 0
M  V30 8258 C 830.793 1.86968 -0.525041 0
M  V30 8259 O 830.068 1.88538 0.477868 0
M  V30 8260 C 830.351 1.94633 -3.02969 0
M  V30 8261 C 830.204 1.14778 -4.34909 0
M  V30 8262 C 831.523 2.93826 -3.27649 0
M  V30 8263 H 828.642 0.376405 -0.633631 0
M  V30 8264 H 831.284 0.314007 -1.87387 0
M  V30 8265 H 829.434 2.56471 -2.91813 0
M  V30 8266 H 831.106 0.552363 -4.57981 0
M  V30 8267 H 829.349 0.450462 -4.31455 0
M  V30 8268 H 830.02 1.81495 -5.21309 0
M  V30 8269 H 832.496 2.42117 -3.38406 0
M  V30 8270 H 831.372 3.54462 -4.19104 0
M  V30 8271 H 831.633 3.67416 -2.45882 0
M  V30 8272 N 830.692 1.47107 0.565454 0
M  V30 8273 C 831.92 1.56909 1.3486 0
M  V30 8274 C 832.335 0.216312 1.87557 0
M  V30 8275 O 831.692 -0.789168 1.64555 0
M  V30 8276 C 831.743 2.58776 2.52423 0
M  V30 8277 O 831.464 3.888 2.01906 0
M  V30 8278 C 832.965 2.78683 3.44747 0
M  V30 8279 H 830.185 0.530096 0.411387 0
M  V30 8280 H 832.729 1.92658 0.685782 0
M  V30 8281 H 830.884 2.25983 3.1466 0
M  V30 8282 H 831.298 4.44393 2.78595 0
M  V30 8283 H 832.772 3.53842 4.23674 0
M  V30 8284 H 833.249 1.86208 3.97773 0
M  V30 8285 H 833.855 3.12641 2.88333 0
M  V30 8286 N 832.17 -0.811516 1.35101 0
M  V30 8287 C 833.1 -1.9378 1.30275 0
M  V30 8288 C 834.081 -1.69165 0.178075 0
M  V30 8289 O 835.266 -1.90599 0.372256 0
M  V30 8290 C 832.396 -3.30439 1.06899 0
M  V30 8291 C 831.35 -3.69523 2.15955 0
M  V30 8292 C 830.676 -5.0429 1.77751 0
M  V30 8293 C 831.976 -3.80419 3.57881 0
M  V30 8294 H 833.67 -1.98075 2.24514 0
M  V30 8295 H 831.216 -0.951586 1.08078 0
M  V30 8296 H 833.169 -4.08828 1.02164 0
M  V30 8297 H 831.893 -3.26473 0.0910462 0
M  V30 8298 H 830.552 -2.93416 2.19778 0
M  V30 8299 H 830.2 -4.96823 0.785876 0
M  V30 8300 H 829.9 -5.31411 2.5075 0
M  V30 8301 H 831.424 -5.85125 1.74533 0
M  V30 8302 H 832.838 -4.49051 3.56407 0
M  V30 8303 H 831.235 -4.19005 4.29598 0
M  V30 8304 H 832.305 -2.82105 3.94391 0
M  V30 8305 N 833.648 -1.19017 -1.03309 0
M  V30 8306 C 834.925 -0.899659 -1.73682 0
M  V30 8307 C 835.305 0.595677 -2.02521 0
M  V30 8308 O 834.653 1.55263 -1.67648 0
M  V30 8309 C 834.863 -1.75508 -3.01659 0
M  V30 8310 C 836.211 -1.98679 -3.75249 0
M  V30 8311 O 837.235 -1.72624 -3.11576 0
M  V30 8312 O 836.094 -2.42587 -4.89708 0
M  V30 8313 H 833.188 -0.334903 -0.756154 0
M  V30 8314 H 835.734 -1.29809 -1.09305 0
M  V30 8315 H 834.506 -2.7684 -2.76542 0
M  V30 8316 H 834.129 -1.35565 -3.73775 0
M  V30 8317 N 835.127 1.22348 -0.993418 0
M  V30 8318 C 836.06 2.22898 -0.489073 0
M  V30 8319 C 837.038 1.56222 0.450927 0
M  V30 8320 O 838.222 1.84705 0.376351 0
M  V30 8321 C 835.349 3.37448 0.290946 0
M  V30 8322 C 834.395 4.22328 -0.595123 0
M  V30 8323 S 835.228 4.94677 -2.05072 0
M  V30 8324 C 836.384 6.12667 -1.28021 0
M  V30 8325 H 836.617 2.65333 -1.34111 0
M  V30 8326 H 834.15 1.32032 -0.800429 0
M  V30 8327 H 836.108 4.03867 0.734944 0
M  V30 8328 H 834.769 2.93519 1.11826 0
M  V30 8329 H 833.962 5.04 0.00507413 0
M  V30 8330 H 833.564 3.61043 -0.975906 0
M  V30 8331 H 835.856 6.75279 -0.548129 0
M  V30 8332 H 836.799 6.771 -2.07223 0
M  V30 8333 H 837.207 5.58898 -0.793272 0
M  V30 8334 N 836.605 0.766683 1.37694 0
M  V30 8335 C 837.854 0.325425 1.99057 0
M  V30 8336 C 838.167 -1.10275 1.61551 0
M  V30 8337 O 839.373 -1.64513 2.1598 0
M  V30 8338 C 837.829 0.530886 3.55963 0
M  V30 8339 C 837.437 1.96899 4.02411 0
M  V30 8340 C 839.181 0.152997 4.24224 0
M  V30 8341 C 837.088 2.12232 5.52007 0
M  V30 8342 H 836.018 0.117929 0.744721 0
M  V30 8343 H 838.669 0.945091 1.5729 0
M  V30 8344 H 837.051 -0.158162 3.95684 0
M  V30 8345 H 838.225 2.69258 3.73948 0
M  V30 8346 H 836.54 2.303 3.46916 0
M  V30 8347 H 839.137 0.24614 5.34133 0
M  V30 8348 H 839.48 -0.896096 4.06541 0
M  V30 8349 H 840.013 0.794398 3.89787 0
M  V30 8350 H 836.752 3.15442 5.7461 0
M  V30 8351 H 836.272 1.4435 5.82171 0
M  V30 8352 H 837.951 1.9185 6.17902 0
M  V30 8353 N 838.083 -1.48885 0.516809 0
M  V30 8354 C 839.308 -2.0739 -0.0205201 0
M  V30 8355 C 839.733 -1.37259 -1.28614 0
M  V30 8356 O 839.091 -0.434304 -1.76021 0
M  V30 8357 C 839.139 -3.59793 -0.24104 0
M  V30 8358 O 838.243 -3.90957 -1.31251 0
M  V30 8359 H 837.584 -0.663167 0.0332564 0
M  V30 8360 H 840.114 -1.91477 0.720956 0
M  V30 8361 H 840.124 -4.0531 -0.467737 0
M  V30 8362 H 838.799 -4.10244 0.68356 0
M  V30 8363 H 837.376 -3.57234 -1.06951 0
M  V30 8364 N 839.561 -0.251338 -1.55583 0
M  V30 8365 C 840.508 0.646337 -2.21565 0
M  V30 8366 C 841.478 1.16796 -1.18102 0
M  V30 8367 O 842.663 1.22162 -1.46564 0
M  V30 8368 C 839.803 1.83557 -2.92234 0
M  V30 8369 C 838.916 1.35006 -4.10363 0
M  V30 8370 C 838.051 2.4992 -4.68736 0
M  V30 8371 C 837.09 1.98253 -5.79105 0
M  V30 8372 N 836.227 3.06551 -6.31642 0
M  V30 8373 H 841.067 0.0769881 -2.97901 0
M  V30 8374 H 838.604 0.026238 -1.47077 0
M  V30 8375 H 840.562 2.53425 -3.31408 0
M  V30 8376 H 839.192 2.37733 -2.18364 0
M  V30 8377 H 838.244 0.545274 -3.76472 0
M  V30 8378 H 839.556 0.931435 -4.90026 0
M  V30 8379 H 838.71 3.27823 -5.10507 0
M  V30 8380 H 837.449 2.95086 -3.88298 0
M  V30 8381 H 836.454 1.18822 -5.36807 0
M  V30 8382 H 837.679 1.54051 -6.61396 0
M  V30 8383 H 835.625 3.51143 -5.54107 0
M  V30 8384 H 835.542 2.69033 -7.06511 0
M  V30 8385 H 836.81 3.84499 -6.78071 0
M  V30 8386 N 841.039 1.57585 0.0217189 0
M  V30 8387 C 842.455 1.55072 0.377484 0
M  V30 8388 C 842.655 0.978423 1.76151 0
M  V30 8389 O 841.711 0.602688 2.45202 0
M  V30 8390 C 843.024 2.99462 0.272605 0
M  V30 8391 C 844.572 3.11047 0.349148 0
M  V30 8392 C 845.047 4.57182 0.273636 0
M  V30 8393 N 846.538 4.62007 0.332206 0
M  V30 8394 C 847.273 5.72631 0.296782 0
M  V30 8395 N 846.769 6.92472 0.21322 0
M  V30 8396 N 848.562 5.61028 0.347053 0
M  V30 8397 H 840.713 1.93133 -0.883925 0
M  V30 8398 H 842.976 0.886151 -0.33681 0
M  V30 8399 H 842.682 3.45088 -0.67878 0
M  V30 8400 H 842.556 3.61901 1.06335 0
M  V30 8401 H 844.943 2.65364 1.29097 0
M  V30 8402 H 845.024 2.51425 -0.471085 0
M  V30 8403 H 844.668 5.03534 -0.664548 0
M  V30 8404 H 844.598 5.14724 1.11207 0
M  V30 8405 H 847.089 3.75788 0.399003 0
M  V30 8406 H 847.402 7.72563 0.191492 0
M  V30 8407 H 845.747 6.94769 0.179161 0
M  V30 8408 H 848.938 4.66298 0.410378 0
M  V30 8409 H 849.111 6.47229 0.315979 0
M  V30 8410 N 842.517 -0.29412 1.54831 0
M  V30 8411 C 843.763 -1.02999 1.74697 0
M  V30 8412 C 844.096 -1.86687 0.534949 0
M  V30 8413 O 843.371 -1.88789 -0.467863 0
M  V30 8414 C 843.654 -1.93024 3.03996 0
M  V30 8415 C 843.507 -1.1247 4.35512 0
M  V30 8416 C 844.826 -2.92085 3.29203 0
M  V30 8417 H 841.945 -0.373039 0.635618 0
M  V30 8418 H 844.587 -0.304065 1.87551 0
M  V30 8419 H 842.737 -2.5492 2.93169 0
M  V30 8420 H 844.409 -0.528067 4.58268 0
M  V30 8421 H 842.652 -0.427574 4.31688 0
M  V30 8422 H 843.323 -1.78728 5.22265 0
M  V30 8423 H 845.799 -2.40319 3.39685 0
M  V30 8424 H 844.675 -3.52234 4.20978 0
M  V30 8425 H 844.936 -3.66107 2.47827 0
M  V30 8426 N 843.995 -1.47404 -0.557645 0
M  V30 8427 C 845.225 -1.57393 -1.33832 0
M  V30 8428 C 845.633 -0.222978 -1.87881 0
M  V30 8429 O 844.976 0.793854 -1.65661 0
M  V30 8430 C 845.038 -2.53882 -2.54528 0
M  V30 8431 C 844.702 -3.99585 -2.21767 0
M  V30 8432 C 845.699 -4.88082 -1.79087 0
M  V30 8433 C 843.384 -4.44917 -2.3314 0
M  V30 8434 C 845.378 -6.1993 -1.48209 0
M  V30 8435 C 843.065 -5.76793 -2.01874 0
M  V30 8436 C 844.063 -6.64121 -1.59476 0
M  V30 8437 O 843.751 -7.93546 -1.28607 0
M  V30 8438 H 843.483 -0.534172 -0.41429 0
M  V30 8439 H 846.037 -1.93733 -0.682404 0
M  V30 8440 H 844.267 -2.12609 -3.23009 0
M  V30 8441 H 845.956 -2.54003 -3.16603 0
M  V30 8442 H 846.722 -4.54307 -1.69794 0
M  V30 8443 H 842.601 -3.77152 -2.65099 0
M  V30 8444 H 846.145 -6.88049 -1.15043 0
M  V30 8445 H 842.042 -6.1011 -2.10799 0
M  V30 8446 H 842.81 -8.06046 -1.42241 0
M  V30 8447 N 845.473 0.80434 -1.35529 0
M  V30 8448 C 846.719 1.56328 -1.30127 0
M  V30 8449 C 847.074 1.92008 0.122699 0
M  V30 8450 O 846.367 1.58693 1.07364 0
M  V30 8451 C 846.561 2.85988 -2.14349 0
M  V30 8452 C 846.39 2.62977 -3.64792 0
M  V30 8453 C 845.16 2.58757 -4.34019 0
M  V30 8454 C 847.358 2.332 -4.58391 0
M  V30 8455 N 845.34 2.27487 -5.70195 0
M  V30 8456 C 846.711 2.11788 -5.82706 0
M  V30 8457 C 848.766 2.19082 -4.4711 0
M  V30 8458 C 847.469 1.77688 -6.97008 0
M  V30 8459 C 849.495 1.86378 -5.61264 0
M  V30 8460 C 848.857 1.65804 -6.84608 0
M  V30 8461 H 844.956 0.57368 -0.531428 0
M  V30 8462 H 847.54 0.941313 -1.70433 0
M  V30 8463 H 845.711 3.46077 -1.76311 0
M  V30 8464 H 847.443 3.51571 -2.00449 0
M  V30 8465 H 844.198 2.73484 -3.86656 0
M  V30 8466 H 844.622 2.1464 -6.42074 0
M  V30 8467 H 849.264 2.33686 -3.5235 0
M  V30 8468 H 846.982 1.61822 -7.91732 0
M  V30 8469 H 850.568 1.7616 -5.5449 0
M  V30 8470 H 849.448 1.40868 -7.71444 0
M  V30 8471 N 846.951 1.19563 1.02676 0
M  V30 8472 C 848.197 1.00105 1.76371 0
M  V30 8473 C 848.53 -0.466823 1.88506 0
M  V30 8474 O 847.805 -1.34665 1.40341 0
M  V30 8475 C 848.088 1.67321 3.18866 0
M  V30 8476 C 847.941 3.21486 3.1459 0
M  V30 8477 C 849.26 1.39794 4.17308 0
M  V30 8478 H 846.379 0.365075 0.640226 0
M  V30 8479 H 849.021 1.47433 1.19848 0
M  V30 8480 H 847.171 1.27081 3.67128 0
M  V30 8481 H 848.843 3.70953 2.7421 0
M  V30 8482 H 847.086 3.5292 2.52249 0
M  V30 8483 H 847.757 3.63665 4.15273 0
M  V30 8484 H 850.233 1.74685 3.77657 0
M  V30 8485 H 849.109 1.89371 5.15199 0
M  V30 8486 H 849.37 0.323505 4.40915 0
M  V30 8487 N 848.429 -1.21819 0.999893 0
M  V30 8488 C 849.706 -1.86318 0.595384 0
M  V30 8489 C 850.086 -1.8965 -0.927143 0
M  V30 8490 O 849.434 -1.3921 -1.81199 0
M  V30 8491 C 849.644 -3.26837 1.22387 0
M  V30 8492 C 850.992 -4.03272 1.32878 0
M  V30 8493 O 852.016 -3.36129 1.1788 0
M  V30 8494 O 850.875 -5.23477 1.56952 0
M  V30 8495 H 847.969 -0.801638 0.203238 0
M  V30 8496 H 850.515 -1.29542 1.09622 0
M  V30 8497 H 849.287 -3.19084 2.26497 0
M  V30 8498 H 848.91 -3.91226 0.709069 0
M  V30 8499 N 849.908 -0.773975 -1.37286 0
M  V30 8500 C 851.133 -0.349561 -2.04433 0
M  V30 8501 C 851.558 1.02082 -1.5799 0
M  V30 8502 O 850.916 1.65458 -0.741172 0
M  V30 8503 C 850.964 -0.404292 -3.58326 0
M  V30 8504 O 850.068 0.594447 -4.08093 0
M  V30 8505 H 849.409 -0.150959 -0.646612 0
M  V30 8506 H 851.939 -1.05079 -1.75555 0
M  V30 8507 H 851.949 -0.262378 -4.07155 0
M  V30 8508 H 850.624 -1.40403 -3.91484 0
M  V30 8509 H 849.201 0.415468 -3.70578 0
M  V30 8510 N 851.386 1.48609 -0.524698 0
M  V30 8511 C 852.802 1.58557 -0.182199 0
M  V30 8512 C 853.002 1.52732 1.31435 0
M  V30 8513 O 852.058 1.41362 2.0922 0
M  V30 8514 C 853.371 2.90406 -0.78004 0
M  V30 8515 C 854.919 3.03924 -0.748293 0
M  V30 8516 C 855.394 4.38427 -1.32462 0
M  V30 8517 N 856.885 4.4498 -1.28635 0
M  V30 8518 C 857.62 5.47551 -1.70223 0
M  V30 8519 N 857.116 6.57103 -2.19515 0
M  V30 8520 N 858.909 5.38402 -1.61493 0
M  V30 8521 H 851.06 1.50638 -1.4974 0
M  V30 8522 H 853.323 0.714952 -0.622533 0
M  V30 8523 H 853.029 3.00308 -1.83052 0
M  V30 8524 H 852.903 3.76343 -0.254075 0
M  V30 8525 H 855.29 2.93638 0.293407 0
M  V30 8526 H 855.371 2.19611 -1.31167 0
M  V30 8527 H 855.015 4.49466 -2.36522 0
M  V30 8528 H 854.945 5.21418 -0.736967 0
M  V30 8529 H 857.436 3.66393 -0.92545 0
M  V30 8530 H 857.749 7.31499 -2.49257 0
M  V30 8531 H 856.094 6.58081 -2.23506 0
M  V30 8532 H 859.285 4.5171 -1.22785 0
M  V30 8533 H 859.458 6.18208 -1.94225 0
M  V30 8534 N 852.864 0.259585 1.55447 0
M  V30 8535 C 854.111 -0.361607 1.99245 0
M  V30 8536 C 854.439 -1.57017 1.14787 0
M  V30 8537 O 853.694 -1.94658 0.201724 0
M  V30 8538 C 853.993 -0.802727 3.48269 0
M  V30 8539 C 853.659 0.299472 4.49904 0
M  V30 8540 C 852.321 0.602157 4.77418 0
M  V30 8541 C 854.673 1.04295 5.10658 0
M  V30 8542 C 852.001 1.65217 5.62957 0
M  V30 8543 C 854.353 2.08257 5.97337 0
M  V30 8544 C 853.017 2.39177 6.23178 0
M  V30 8545 H 852.287 -0.132322 0.72909 0
M  V30 8546 H 854.934 0.370059 1.8789 0
M  V30 8547 H 853.239 -1.61381 3.5702 0
M  V30 8548 H 854.936 -1.29385 3.79553 0
M  V30 8549 H 851.526 0.0534256 4.28567 0
M  V30 8550 H 855.71 0.822358 4.89439 0
M  V30 8551 H 850.966 1.89692 5.81229 0
M  V30 8552 H 855.14 2.6635 6.43452 0
M  V30 8553 H 852.767 3.20677 6.89253 0
M  V30 8554 N 854.342 -1.57594 -0.0133615 0
M  V30 8555 C 855.619 -1.81173 -0.737273 0
M  V30 8556 C 855.999 -0.861395 -1.92726 0
M  V30 8557 O 855.347 0.0929324 -2.28311 0
M  V30 8558 C 855.557 -3.29314 -1.15557 0
M  V30 8559 C 856.905 -3.94707 -1.56498 0
M  V30 8560 O 857.929 -3.33557 -1.24973 0
M  V30 8561 O 856.788 -5.02402 -2.15069 0
M  V30 8562 H 853.882 -0.745575 -0.357837 0
M  V30 8563 H 856.428 -1.69696 0.0110674 0
M  V30 8564 H 855.2 -3.90096 -0.30677 0
M  V30 8565 H 854.823 -3.45739 -1.96343 0
M  V30 8566 N 855.82 0.285905 -1.54985 0
M  V30 8567 C 857.05 1.03626 -1.78732 0
M  V30 8568 C 857.458 1.80896 -0.554377 0
M  V30 8569 O 856.801 1.77161 0.48578 0
M  V30 8570 C 856.863 2.05185 -2.95193 0
M  V30 8571 C 856.527 1.46973 -4.32722 0
M  V30 8572 C 857.524 0.891986 -5.12191 0
M  V30 8573 C 855.209 1.50081 -4.79355 0
M  V30 8574 C 857.203 0.353078 -6.36421 0
M  V30 8575 C 854.89 0.958037 -6.03544 0
M  V30 8576 C 855.888 0.385157 -6.81913 0
M  V30 8577 O 855.576 -0.149341 -8.03761 0
M  V30 8578 H 855.308 0.312416 -0.599477 0
M  V30 8579 H 857.862 0.326067 -2.02795 0
M  V30 8580 H 856.092 2.79928 -2.66791 0
M  V30 8581 H 857.781 2.66244 -3.0638 0
M  V30 8582 H 858.547 0.860762 -4.77301 0
M  V30 8583 H 854.426 1.9361 -4.18373 0
M  V30 8584 H 857.97 -0.0947181 -6.97536 0
M  V30 8585 H 853.867 0.986458 -6.37918 0
M  V30 8586 H 854.635 -0.0374719 -8.18491 0
M  V30 8587 N 857.298 1.47698 0.54982 0
M  V30 8588 C 858.547 1.53961 1.30303 0
M  V30 8589 C 858.86 0.209731 1.94472 0
M  V30 8590 O 860.066 0.150418 2.71083 0
M  V30 8591 C 858.522 2.71436 2.36328 0
M  V30 8592 C 858.13 4.10983 1.78316 0
M  V30 8593 C 859.874 2.86996 3.12783 0
M  V30 8594 C 857.781 5.19747 2.82164 0
M  V30 8595 H 856.711 0.573098 0.489975 0
M  V30 8596 H 859.362 1.73989 0.583089 0
M  V30 8597 H 857.744 2.44801 3.11269 0
M  V30 8598 H 858.918 4.47552 1.09697 0
M  V30 8599 H 857.233 4.00371 1.1442 0
M  V30 8600 H 859.83 3.65422 3.90347 0
M  V30 8601 H 860.173 1.95712 3.67427 0
M  V30 8602 H 860.706 3.13436 2.44954 0
M  V30 8603 H 857.445 6.12932 2.32366 0
M  V30 8604 H 856.965 4.87688 3.49171 0
M  V30 8605 H 858.644 5.47014 3.4552 0
M  V30 8606 N 858.776 -0.797141 1.35954 0
M  V30 8607 C 859.686 -1.94088 1.31784 0
M  V30 8608 C 860.702 -1.72588 0.221227 0
M  V30 8609 O 861.878 -1.96256 0.452255 0
M  V30 8610 C 858.943 -3.28828 1.09878 0
M  V30 8611 C 858.004 -3.63158 2.28942 0
M  V30 8612 C 857.237 -4.91469 2.08072 0
M  V30 8613 O 857.46 -5.60616 1.05196 0
M  V30 8614 O 856.394 -5.24277 2.95664 0
M  V30 8615 H 860.22 -2.00554 2.28061 0
M  V30 8616 H 857.805 -0.936288 1.16422 0
M  V30 8617 H 859.687 -4.09473 0.995485 0
M  V30 8618 H 858.362 -3.23271 0.16659 0
M  V30 8619 H 857.269 -2.82851 2.44839 0
M  V30 8620 H 858.602 -3.7343 3.20641 0
M  V30 8621 N 860.254 -1.20106 -1.0204 0
M  V30 8622 C 861.482 -1.0344 -1.79186 0
M  V30 8623 C 861.897 0.416542 -1.84148 0
M  V30 8624 O 861.254 1.28925 -1.29168 0
M  V30 8625 C 861.305 -1.60663 -3.23836 0
M  V30 8626 O 861.026 -3.00079 -3.19193 0
M  V30 8627 C 862.527 -1.48897 -4.17546 0
M  V30 8628 H 859.747 -0.364093 -0.563629 0
M  V30 8629 H 862.291 -1.5911 -1.28469 0
M  V30 8630 H 860.446 -1.09122 -3.71714 0
M  V30 8631 H 860.86 -3.27162 -4.09958 0
M  V30 8632 H 862.334 -1.93703 -5.16898 0
M  V30 8633 H 862.811 -0.440843 -4.36982 0
M  V30 8634 H 863.417 -1.9961 -3.75547 0
M  V30 8635 N 861.732 1.21287 -1.00634 0
M  V30 8636 C 862.978 1.90671 -0.690822 0
M  V30 8637 C 863.311 1.77996 0.776592 0
M  V30 8638 O 862.586 1.15748 1.5631 0
M  V30 8639 C 862.869 3.42426 -1.11428 0
M  V30 8640 C 862.722 3.64086 -2.64124 0
M  V30 8641 C 864.041 4.34851 -0.677686 0
M  V30 8642 H 861.16 0.692419 -0.252439 0
M  V30 8643 H 863.802 1.42893 -1.25226 0
M  V30 8644 H 861.952 3.83249 -0.636586 0
M  V30 8645 H 863.624 3.32582 -3.19667 0
M  V30 8646 H 861.867 3.07906 -3.05576 0
M  V30 8647 H 862.538 4.7042 -2.88806 0
M  V30 8648 H 865.014 4.01619 -1.0882 0
M  V30 8649 H 863.89 5.39675 -1.00213 0
M  V30 8650 H 864.151 4.4009 0.421125 0
M  V30 8651 N 863.21 0.781244 1.36873 0
M  V30 8652 C 864.438 0.361566 2.03716 0
M  V30 8653 C 864.853 -1.01937 1.58916 0
M  V30 8654 O 864.21 -1.65237 0.774783 0
M  V30 8655 C 864.261 0.406391 3.59208 0
M  V30 8656 O 863.982 1.73286 4.02372 0
M  V30 8657 C 865.483 -0.0236894 4.43294 0
M  V30 8658 H 862.703 0.150133 0.653988 0
M  V30 8659 H 865.247 1.05781 1.75016 0
M  V30 8660 H 863.402 -0.241364 3.86647 0
M  V30 8661 H 863.816 1.67804 4.96933 0
M  V30 8662 H 865.29 0.0588205 5.51969 0
M  V30 8663 H 865.767 -1.07529 4.25833 0
M  V30 8664 H 866.373 0.59624 4.211 0
M  V30 8665 N 864.689 -1.48329 0.532571 0
M  V30 8666 C 865.919 -2.066 0.00353785 0
M  V30 8667 C 866.327 -1.38913 -1.28451 0
M  V30 8668 O 865.67 -0.471385 -1.77549 0
M  V30 8669 C 865.732 -3.58342 -0.288324 0
M  V30 8670 C 865.396 -4.47917 0.906631 0
M  V30 8671 C 866.393 -4.87534 1.80572 0
M  V30 8672 C 864.078 -4.89783 1.11436 0
M  V30 8673 C 866.072 -5.6779 2.89642 0
M  V30 8674 C 863.759 -5.69809 2.20819 0
M  V30 8675 C 864.757 -6.08721 3.09755 0
M  V30 8676 O 864.445 -6.8714 4.17246 0
M  V30 8677 H 864.177 -0.675263 0.0315661 0
M  V30 8678 H 866.731 -1.91669 0.738375 0
M  V30 8679 H 864.961 -3.71395 -1.07717 0
M  V30 8680 H 866.65 -3.98726 -0.759752 0
M  V30 8681 H 867.416 -4.5581 1.65719 0
M  V30 8682 H 863.295 -4.58977 0.431382 0
M  V30 8683 H 866.839 -5.98082 3.59087 0
M  V30 8684 H 862.736 -6.00947 2.35655 0
M  V30 8685 H 863.504 -7.05498 4.14988 0
M  V30 8686 N 866.167 -0.267825 -1.55308 0
M  V30 8687 C 867.444 0.402449 -1.91415 0
M  V30 8688 C 867.824 1.7428 -1.1912 0
M  V30 8689 O 867.172 2.2631 -0.315609 0
M  V30 8690 C 867.382 0.549926 -3.4464 0
M  V30 8691 C 868.73 0.836188 -4.16285 0
M  V30 8692 O 869.754 0.635009 -3.50494 0
M  V30 8693 O 868.613 1.22051 -5.32697 0
M  V30 8694 H 865.707 0.219177 -0.797427 0
M  V30 8695 H 868.253 -0.313439 -1.6678 0
M  V30 8696 H 867.025 -0.393641 -3.89315 0
M  V30 8697 H 866.648 1.31556 -3.75205 0
M  V30 8698 N 867.645 1.57599 0.00500368 0
M  V30 8699 C 868.893 1.89973 0.68953 0
M  V30 8700 C 869.214 0.868531 1.7459 0
M  V30 8701 O 868.484 -0.0947367 1.95671 0
M  V30 8702 H 867.064 0.701153 0.25767 0
M  V30 8703 H 869.726 1.94869 -0.0347392 0
M  V30 8704 H 868.822 2.89584 1.16394 0
M  V30 8705 N 869.123 -0.277682 1.55134 0
M  V30 8706 C 870.372 -1.00766 1.74726 0
M  V30 8707 C 870.685 -1.87617 0.553092 0
M  V30 8708 O 871.891 -2.64058 0.631318 0
M  V30 8709 C 870.347 -1.84147 3.09221 0
M  V30 8710 C 869.955 -1.02186 4.3619 0
M  V30 8711 C 871.699 -2.56604 3.38164 0
M  V30 8712 C 869.606 -1.84978 5.61727 0
M  V30 8713 H 868.536 -0.379948 0.651273 0
M  V30 8714 H 871.187 -0.263543 1.81598 0
M  V30 8715 H 869.569 -2.62637 2.96375 0
M  V30 8716 H 870.743 -0.281459 4.5994 0
M  V30 8717 H 869.058 -0.412054 4.14356 0
M  V30 8718 H 871.655 -3.18942 4.29162 0
M  V30 8719 H 871.998 -3.26647 2.58085 0
M  V30 8720 H 872.531 -1.85147 3.52087 0
M  V30 8721 H 869.27 -1.19365 6.4454 0
M  V30 8722 H 868.79 -2.56628 5.42128 0
M  V30 8723 H 870.469 -2.42458 5.99853 0
M  V30 8724 N 870.601 -1.47988 -0.541979 0
M  V30 8725 C 871.533 -1.5769 -1.66332 0
M  V30 8726 C 872.546 -0.461994 -1.56107 0
M  V30 8727 O 873.735 -0.732306 -1.62787 0
M  V30 8728 C 870.835 -1.47939 -3.04905 0
M  V30 8729 C 870.008 -2.74263 -3.40733 0
M  V30 8730 C 869.067 -2.58133 -4.58534 0
M  V30 8731 O 868.093 -3.31991 -4.62354 0
M  V30 8732 N 869.295 -1.6696 -5.55972 0
M  V30 8733 H 872.06 -2.54389 -1.5845 0
M  V30 8734 H 869.621 -1.4456 -0.728979 0
M  V30 8735 H 871.613 -1.34861 -3.81569 0
M  V30 8736 H 870.183 -0.592626 -3.06931 0
M  V30 8737 H 869.403 -3.01992 -2.53366 0
M  V30 8738 H 870.691 -3.58094 -3.6145 0
M  V30 8739 H 870.089 -1.06134 -5.55655 0
M  V30 8740 H 868.646 -1.59826 -6.31901 0
M  V30 8741 N 872.079 0.78992 -1.36375 0
M  V30 8742 C 873.495 1.0879 -1.16777 0
M  V30 8743 C 873.695 2.01498 0.00848236 0
M  V30 8744 O 872.751 2.43338 0.674007 0
M  V30 8745 C 874.064 1.70285 -2.47837 0
M  V30 8746 C 875.612 1.82629 -2.54196 0
M  V30 8747 C 876.087 2.47539 -3.85342 0
M  V30 8748 N 877.578 2.55008 -3.86685 0
M  V30 8749 C 878.313 3.06041 -4.84898 0
M  V30 8750 N 877.809 3.57385 -5.93505 0
M  V30 8751 N 879.602 3.04748 -4.72319 0
M  V30 8752 H 871.753 0.173985 -2.11686 0
M  V30 8753 H 874.016 0.139798 -0.937636 0
M  V30 8754 H 873.722 1.09633 -3.34176 0
M  V30 8755 H 873.596 2.69799 -2.63607 0
M  V30 8756 H 875.983 2.42419 -1.68276 0
M  V30 8757 H 876.064 0.81923 -2.42327 0
M  V30 8758 H 875.708 1.88393 -4.71668 0
M  V30 8759 H 875.638 3.48815 -3.94507 0
M  V30 8760 H 878.129 2.18651 -3.08221 0
M  V30 8761 H 878.442 3.94674 -6.64419 0
M  V30 8762 H 876.787 3.55538 -5.97175 0
M  V30 8763 H 879.978 2.63925 -3.86602 0
M  V30 8764 H 880.151 3.44212 -5.49019 0
M  V30 8765 N 873.557 1.20646 1.01402 0
M  V30 8766 C 874.504 0.957618 2.09996 0
M  V30 8767 C 875.474 -0.113115 1.65714 0
M  V30 8768 O 876.659 0.032142 1.90773 0
M  V30 8769 C 873.799 0.5186 3.41181 0
M  V30 8770 C 872.912 1.65777 3.98926 0
M  V30 8771 C 872.047 1.16881 5.18182 0
M  V30 8772 C 871.086 2.2809 5.68015 0
M  V30 8773 N 870.223 1.80392 6.7853 0
M  V30 8774 H 875.063 1.88732 2.30617 0
M  V30 8775 H 872.6 0.940703 1.13089 0
M  V30 8776 H 874.558 0.245367 4.16478 0
M  V30 8777 H 873.188 -0.3741 3.20625 0
M  V30 8778 H 872.24 2.04586 3.207 0
M  V30 8779 H 873.552 2.49507 4.31912 0
M  V30 8780 H 872.706 0.851694 6.00692 0
M  V30 8781 H 871.445 0.301434 4.86768 0
M  V30 8782 H 870.45 2.60614 4.84108 0
M  V30 8783 H 871.675 3.15308 6.01463 0
M  V30 8784 H 869.621 0.959856 6.4894 0
M  V30 8785 H 869.538 2.57701 7.10722 0
M  V30 8786 H 870.806 1.51688 7.64598 0
M  V30 8787 N 875.035 -1.20752 1.01276 0
M  V30 8788 C 876.263 -1.94006 0.718976 0
M  V30 8789 C 876.678 -1.74544 -0.719711 0
M  V30 8790 O 876.035 -1.05697 -1.48776 0
M  V30 8791 C 876.086 -3.46208 1.04031 0
M  V30 8792 O 875.807 -3.65031 2.42248 0
M  V30 8793 C 877.308 -4.36614 0.767032 0
M  V30 8794 H 874.528 -0.616743 0.264327 0
M  V30 8795 H 877.072 -1.53352 1.3529 0
M  V30 8796 H 875.227 -3.84756 0.451852 0
M  V30 8797 H 875.641 -4.59054 2.53712 0
M  V30 8798 H 877.115 -5.42076 1.04198 0
M  V30 8799 H 877.592 -4.38182 -0.298851 0
M  V30 8800 H 878.198 -4.03723 1.33746 0
M  V30 8801 N 876.513 -0.788492 -1.36457 0
M  V30 8802 C 877.759 -0.360995 -1.99561 0
M  V30 8803 C 878.092 1.06433 -1.62437 0
M  V30 8804 O 877.367 1.7352 -0.878705 0
M  V30 8805 C 877.65 -0.523735 -3.56271 0
M  V30 8806 C 877.503 -1.99268 -4.03252 0
M  V30 8807 C 878.822 0.0617908 -4.40057 0
M  V30 8808 H 875.941 -0.13264 -0.724966 0
M  V30 8809 H 878.583 -0.994659 -1.61884 0
M  V30 8810 H 876.733 0.0156979 -3.88497 0
M  V30 8811 H 878.405 -2.59311 -3.81518 0
M  V30 8812 H 876.648 -2.49561 -3.54826 0
M  V30 8813 H 877.319 -2.05752 -5.12221 0
M  V30 8814 H 879.795 -0.398674 -4.14186 0
M  V30 8815 H 878.671 -0.0821089 -5.48839 0
M  V30 8816 H 878.932 1.15381 -4.26778 0
M  V30 8817 N 877.991 1.48044 -0.54043 0
M  V30 8818 C 879.237 2.02797 -0.0101718 0
M  V30 8819 C 879.57 1.41565 1.32939 0
M  V30 8820 O 878.845 0.565139 1.86109 0
M  V30 8821 C 879.128 3.59959 0.100758 0
M  V30 8822 C 878.981 4.31654 -1.26471 0
M  V30 8823 C 880.3 4.32347 0.822455 0
M  V30 8824 H 877.419 0.736982 -0.00517052 0
M  V30 8825 H 880.061 1.76656 -0.69948 0
M  V30 8826 H 878.211 3.82363 0.687824 0
M  V30 8827 H 879.883 4.20639 -1.89369 0
M  V30 8828 H 878.126 3.92663 -1.84386 0
M  V30 8829 H 878.797 5.401 -1.13998 0
M  V30 8830 H 881.273 4.14835 0.324164 0
M  V30 8831 H 880.149 5.41978 0.868993 0
M  V30 8832 H 880.41 4.00369 1.87501 0
M  V30 8833 N 879.47 0.276058 1.55163 0
M  V30 8834 C 880.42 -0.625549 2.19251 0
M  V30 8835 C 881.404 -1.11769 1.15744 0
M  V30 8836 O 882.596 -1.0626 1.41555 0
M  V30 8837 C 879.725 -1.80879 2.91784 0
M  V30 8838 C 878.811 -1.33379 4.0258 0
M  V30 8839 N 879.202 -0.575002 5.02521 0
M  V30 8840 C 877.5 -1.61666 4.15668 0
M  V30 8841 C 878.201 -0.325164 5.8079 0
M  V30 8842 N 877.177 -0.897851 5.36134 0
M  V30 8843 H 880.979 -0.0379943 2.93875 0
M  V30 8844 H 878.493 0.079661 1.62205 0
M  V30 8845 H 880.49 -2.466 3.36146 0
M  V30 8846 H 879.15 -2.40028 2.1867 0
M  V30 8847 H 880.161 -0.222256 5.17423 0
M  V30 8848 H 876.838 -2.21745 3.53745 0
M  V30 8849 H 878.228 0.282598 6.71305 0
M  V30 8850 N 880.948 -1.576 0.00335426 0
M  V30 8851 C 882.196 -1.90336 -0.679446 0
M  V30 8852 C 882.517 -0.877777 -1.74127 0
M  V30 8853 O 881.787 0.0843585 -1.95718 0
M  V30 8854 H 880.367 -0.702509 -0.253948 0
M  V30 8855 H 883.029 -1.94848 0.0450731 0
M  V30 8856 H 882.125 -2.90197 -1.14857 0
M  V30 8857 N 882.426 0.269451 -1.5528 0
M  V30 8858 C 883.674 0.998604 -1.75705 0
M  V30 8859 C 883.995 1.86691 -0.563175 0
M  V30 8860 O 883.265 1.91305 0.421811 0
M  V30 8861 H 881.845 0.371698 -0.647958 0
M  V30 8862 H 884.507 0.292826 -1.92688 0
M  V30 8863 H 883.603 1.63348 -2.6594 0
M  V30 8864 N 883.904 1.48273 0.534124 0
M  V30 8865 C 885.129 1.59988 1.31979 0
M  V30 8866 C 885.554 0.258824 1.86311 0
M  V30 8867 O 884.912 -0.768885 1.64188 0
M  V30 8868 C 884.96 2.64642 2.44943 0
M  V30 8869 O 884.064 2.21515 3.47858 0
M  V30 8870 H 883.405 0.536625 0.391063 0
M  V30 8871 H 885.935 1.94229 0.643135 0
M  V30 8872 H 885.945 2.85786 2.91187 0
M  V30 8873 H 884.62 3.62004 2.04758 0
M  V30 8874 H 883.197 2.10567 3.0776 0
M  V30 8875 N 885.382 -0.782676 1.36792 0
M  V30 8876 C 886.312 -1.90973 1.34356 0
M  V30 8877 C 887.293 -1.6875 0.213917 0
M  V30 8878 O 888.478 -1.89766 0.412601 0
M  V30 8879 C 885.608 -3.28097 1.13884 0
M  V30 8880 C 884.562 -3.6486 2.23744 0
M  V30 8881 C 883.888 -5.00406 1.88408 0
M  V30 8882 C 885.188 -3.72742 3.6587 0
M  V30 8883 H 886.882 -1.93268 2.28665 0
M  V30 8884 H 884.428 -0.928447 1.10072 0
M  V30 8885 H 886.381 -4.06569 1.10813 0
M  V30 8886 H 885.105 -3.26206 0.160275 0
M  V30 8887 H 883.764 -2.88689 2.25952 0
M  V30 8888 H 883.412 -4.95044 0.891083 0
M  V30 8889 H 883.112 -5.25973 2.61966 0
M  V30 8890 H 884.636 -5.81291 1.86905 0
M  V30 8891 H 886.05 -4.4139 3.65852 0
M  V30 8892 H 884.447 -4.09798 4.38389 0
M  V30 8893 H 885.517 -2.73676 4.00287 0
M  V30 8894 N 886.86 -1.21182 -1.00761 0
M  V30 8895 C 888.109 -1.02166 -1.73911 0
M  V30 8896 C 888.422 0.445638 -1.90456 0
M  V30 8897 O 889.628 0.755132 -2.60787 0
M  V30 8898 C 888.084 -1.77936 -3.12837 0
M  V30 8899 C 887.692 -3.28819 -3.04273 0
M  V30 8900 C 889.436 -1.67319 -3.90134 0
M  V30 8901 C 887.343 -3.97089 -4.38262 0
M  V30 8902 H 886.273 -0.378665 -0.652019 0
M  V30 8903 H 888.924 -1.44891 -1.12601 0
M  V30 8904 H 887.306 -1.28003 -3.74742 0
M  V30 8905 H 888.48 -3.86035 -2.51622 0
M  V30 8906 H 886.795 -3.39949 -2.40465 0
M  V30 8907 H 889.392 -2.15659 -4.8928 0
M  V30 8908 H 889.735 -0.630959 -4.11491 0
M  V30 8909 H 890.268 -2.14716 -3.34876 0
M  V30 8910 H 887.007 -5.01503 -4.22107 0
M  V30 8911 H 886.527 -3.44662 -4.90885 0
M  V30 8912 H 888.206 -4.01854 -5.07072 0
M  V30 8913 N 888.338 1.20213 -1.01915 0
M  V30 8914 C 889.749 1.7136 -0.741131 0
M  V30 8915 C 890.1 1.81705 0.740107 0
M  V30 8916 O 889.225 1.48139 1.57746 0
M  V30 8917 C 889.82 3.11231 -1.33869 0
M  V30 8918 C 888.379 3.59677 -1.10948 0
M  V30 8919 C 887.526 2.36809 -1.4428 0
M  V30 8920 H 890.477 1.05191 -1.1883 0
M  V30 8921 H 890.498 3.7342 -0.730585 0
M  V30 8922 H 890.01 3.03669 -2.41675 0
M  V30 8923 H 888.111 3.72568 -0.0492052 0
M  V30 8924 H 888.224 4.44351 -1.79134 0
M  V30 8925 H 886.588 2.39674 -0.861881 0
M  V30 8926 H 887.371 2.31886 -2.53148 0
M  V30 8927 N 889.816 0.795718 1.36037 0
M  V30 8928 C 890.766 0.171437 2.27355 0
M  V30 8929 C 891.75 -0.648346 1.47259 0
M  V30 8930 O 892.942 -0.507386 1.69572 0
M  V30 8931 C 890.071 -0.687876 3.36338 0
M  V30 8932 C 889.157 0.141041 4.23865 0
M  V30 8933 N 889.548 1.19868 4.91391 0
M  V30 8934 C 887.846 -0.0791045 4.4593 0
M  V30 8935 C 888.547 1.70382 5.56188 0
M  V30 8936 N 887.523 1.01202 5.34097 0
M  V30 8937 H 891.325 0.980846 2.7705 0
M  V30 8938 H 888.839 0.635798 1.49437 0
M  V30 8939 H 890.836 -1.15107 4.00694 0
M  V30 8940 H 889.496 -1.49576 2.88196 0
M  V30 8941 H 890.507 1.58119 4.93172 0
M  V30 8942 H 887.184 -0.856993 4.0861 0
M  V30 8943 H 888.574 2.58715 6.20093 0
M  V30 8944 N 891.294 -1.47756 0.548274 0
M  V30 8945 C 892.705 -1.8636 0.112547 0
M  V30 8946 C 893.056 -1.45589 -1.31523 0
M  V30 8947 O 892.181 -0.854874 -1.98799 0
M  V30 8948 C 892.776 -3.38224 0.197473 0
M  V30 8949 C 891.335 -3.75954 -0.183163 0
M  V30 8950 C 890.482 -2.7181 0.549059 0
M  V30 8951 H 893.433 -1.394 0.758506 0
M  V30 8952 H 893.454 -3.75957 -0.586217 0
M  V30 8953 H 892.966 -3.67868 1.23673 0
M  V30 8954 H 891.067 -3.51926 -1.22387 0
M  V30 8955 H 891.18 -4.78801 0.169178 0
M  V30 8956 H 889.544 -2.54699 -0.00682862 0
M  V30 8957 H 890.327 -3.04296 1.5893 0
M  V30 8958 N 892.772 -0.284283 -1.55015 0
M  V30 8959 C 894.019 0.329864 -1.99795 0
M  V30 8960 C 894.347 1.55171 -1.1727 0
M  V30 8961 O 893.602 1.94312 -0.232667 0
M  V30 8962 C 893.901 0.747219 -3.49502 0
M  V30 8963 C 893.567 -0.37101 -4.49371 0
M  V30 8964 C 892.229 -0.678034 -4.76399 0
M  V30 8965 C 894.581 -1.12406 -5.08935 0
M  V30 8966 C 891.909 -1.74152 -5.60257 0
M  V30 8967 C 894.261 -2.17734 -5.93948 0
M  V30 8968 C 892.925 -2.49061 -6.19294 0
M  V30 8969 H 892.195 0.120706 -0.731103 0
M  V30 8970 H 894.842 -0.399904 -1.87278 0
M  V30 8971 H 893.147 1.55681 -3.59542 0
M  V30 8972 H 894.844 1.2333 -3.81563 0
M  V30 8973 H 891.434 -0.1216 -4.28427 0
M  V30 8974 H 895.618 -0.900119 -4.88069 0
M  V30 8975 H 890.874 -1.98915 -5.78137 0
M  V30 8976 H 895.048 -2.76553 -6.39133 0
M  V30 8977 H 892.675 -3.31602 -6.84064 0
M  V30 8978 N 894.251 1.57596 -0.0117121 0
M  V30 8979 C 895.499 1.90694 0.669342 0
M  V30 8980 C 895.82 0.886999 1.73659 0
M  V30 8981 O 895.09 -0.0739779 1.9576 0
M  V30 8982 H 893.67 0.703846 0.250219 0
M  V30 8983 H 896.332 1.94821 -0.0554057 0
M  V30 8984 H 895.428 2.90802 1.13316 0
M  V30 8985 N 895.729 -0.261212 1.5542 0
M  V30 8986 C 896.975 -0.992699 1.76843 0
M  V30 8987 C 897.308 -1.8551 0.574428 0
M  V30 8988 O 896.583 -1.89739 -0.427713 0
M  V30 8989 C 896.866 -1.86532 3.08022 0
M  V30 8990 C 896.719 -1.03206 4.378 0
M  V30 8991 C 898.038 -2.85036 3.35324 0
M  V30 8992 H 895.157 -0.359473 0.643388 0
M  V30 8993 H 897.799 -0.264214 1.88154 0
M  V30 8994 H 895.949 -2.48644 2.9851 0
M  V30 8995 H 897.621 -0.430743 4.59285 0
M  V30 8996 H 895.864 -0.335911 4.32497 0
M  V30 8997 H 896.535 -1.6761 5.25938 0
M  V30 8998 H 899.011 -2.3306 3.44706 0
M  V30 8999 H 897.887 -3.43226 4.28354 0
M  V30 9000 H 898.148 -3.60768 2.55537 0
M  V30 9001 N 897.207 -1.48554 -0.526253 0
M  V30 9002 C 898.432 -1.60686 -1.31129 0
M  V30 9003 C 898.857 -0.268701 -1.86171 0
M  V30 9004 O 898.215 0.760167 -1.64594 0
M  V30 9005 C 898.263 -2.65938 -2.43536 0
M  V30 9006 O 897.367 -2.23356 -3.46678 0
M  V30 9007 H 896.708 -0.538691 -0.388211 0
M  V30 9008 H 899.238 -1.94567 -0.632826 0
M  V30 9009 H 899.248 -2.87327 -2.89668 0
M  V30 9010 H 897.923 -3.63085 -2.02835 0
M  V30 9011 H 896.5 -2.12196 -3.06639 0
M  V30 9012 N 898.685 0.775411 -1.37205 0
M  V30 9013 C 899.615 1.90258 -1.35367 0
M  V30 9014 C 900.596 1.68634 -0.222864 0
M  V30 9015 O 901.781 1.89545 -0.422659 0
M  V30 9016 C 898.911 3.27488 -1.15623 0
M  V30 9017 C 897.865 3.63668 -2.25676 0
M  V30 9018 C 897.191 4.994 -1.91059 0
M  V30 9019 C 898.491 3.70797 -3.67841 0
M  V30 9020 H 900.185 1.92053 -2.29687 0
M  V30 9021 H 897.731 0.922597 -1.10563 0
M  V30 9022 H 899.684 4.05976 -1.12968 0
M  V30 9023 H 898.408 3.26117 -0.177573 0
M  V30 9024 H 897.067 2.87486 -2.2748 0
M  V30 9025 H 896.715 4.94565 -0.917324 0
M  V30 9026 H 896.415 5.24576 -2.64751 0
M  V30 9027 H 897.939 5.80291 -1.89985 0
M  V30 9028 H 899.353 4.39444 -3.68187 0
M  V30 9029 H 897.75 4.07468 -4.40556 0
M  V30 9030 H 898.82 2.71549 -4.01732 0
M  V30 9031 N 900.163 1.21714 1.00117 0
M  V30 9032 C 901.41 1.0367 1.73951 0
M  V30 9033 C 901.738 -0.429289 1.89703 0
M  V30 9034 O 900.993 -1.33475 1.43119 0
M  V30 9035 C 901.292 1.68345 3.15269 0
M  V30 9036 C 900.958 3.18214 3.19454 0
M  V30 9037 C 899.62 3.59109 3.20303 0
M  V30 9038 C 901.972 4.14179 3.16394 0
M  V30 9039 C 899.3 4.94467 3.15783 0
M  V30 9040 C 901.652 5.49502 3.13416 0
M  V30 9041 C 900.316 5.8979 3.12577 0
M  V30 9042 H 899.586 0.379355 0.63653 0
M  V30 9043 H 902.233 1.51361 1.17312 0
M  V30 9044 H 900.538 1.12957 3.75164 0
M  V30 9045 H 902.235 1.51882 3.71124 0
M  V30 9046 H 898.825 2.85646 3.19538 0
M  V30 9047 H 903.009 3.83607 3.14895 0
M  V30 9048 H 898.265 5.24923 3.13473 0
M  V30 9049 H 902.439 6.23595 3.10003 0
M  V30 9050 H 900.066 6.94643 3.08829 0
M  V30 9051 N 901.641 -1.19671 1.02551 0
M  V30 9052 C 902.551 -2.26441 0.613329 0
M  V30 9053 C 903.567 -1.70375 -0.353339 0
M  V30 9054 O 904.743 -2.0028 -0.212064 0
M  V30 9055 C 901.808 -3.46684 -0.0329028 0
M  V30 9056 C 900.869 -4.17945 0.980837 0
M  V30 9057 C 900.102 -5.32448 0.36535 0
M  V30 9058 O 900.325 -5.64291 -0.832596 0
M  V30 9059 O 899.259 -5.92012 1.08652 0
M  V30 9060 H 903.085 -2.63932 1.50246 0
M  V30 9061 H 900.67 -1.2646 0.795502 0
M  V30 9062 H 902.552 -4.1956 -0.393395 0
M  V30 9063 H 901.227 -3.1105 -0.896089 0
M  V30 9064 H 900.134 -3.47204 1.39286 0
M  V30 9065 H 901.467 -4.57542 1.81428 0
M  V30 9066 N 903.119 -0.802921 -1.35613 0
M  V30 9067 C 904.367 -0.380822 -1.9848 0
M  V30 9068 C 904.688 1.05464 -1.6402 0
M  V30 9069 O 903.958 1.72908 -0.920854 0
M  V30 9070 H 902.538 -0.137824 -0.734176 0
M  V30 9071 H 905.2 -1.02795 -1.65587 0
M  V30 9072 H 904.296 -0.483565 -3.08331 0
M  V30 9073 N 904.597 1.47463 -0.556102 0
M  V30 9074 C 905.529 2.28046 0.22968 0
M  V30 9075 C 906.542 1.3694 0.880409 0
M  V30 9076 O 907.731 1.61773 0.754447 0
M  V30 9077 C 904.831 3.11165 1.34273 0
M  V30 9078 C 904.004 4.30225 0.789004 0
M  V30 9079 C 903.063 4.94948 1.78641 0
M  V30 9080 O 902.089 5.53372 1.33297 0
M  V30 9081 N 903.291 4.89543 3.11974 0
M  V30 9082 H 906.056 2.96125 -0.461558 0
M  V30 9083 H 903.617 1.5708 -0.392105 0
M  V30 9084 H 905.609 3.51331 2.00869 0
M  V30 9085 H 904.179 2.45337 1.93722 0
M  V30 9086 H 903.399 3.94163 -0.0536971 0
M  V30 9087 H 904.687 5.07238 0.398378 0
M  V30 9088 H 904.085 4.43275 3.51459 0
M  V30 9089 H 902.642 5.33732 3.74131 0
M  V30 9090 N 906.075 0.2925 1.54862 0
M  V30 9091 C 907.321 -0.319736 2.00264 0
M  V30 9092 C 907.654 -1.5419 1.18064 0
M  V30 9093 O 906.929 -1.92821 0.254983 0
M  V30 9094 C 907.212 -0.684753 3.5353 0
M  V30 9095 C 907.065 0.545961 4.46474 0
M  V30 9096 C 908.384 -1.51456 4.13218 0
M  V30 9097 H 905.503 -0.11474 0.728014 0
M  V30 9098 H 908.145 0.402907 1.85679 0
M  V30 9099 H 906.295 -1.30044 3.66089 0
M  V30 9100 H 907.967 1.18448 4.45834 0
M  V30 9101 H 906.21 1.1808 4.1742 0
M  V30 9102 H 906.881 0.246544 5.51449 0
M  V30 9103 H 909.357 -0.994421 4.04043 0
M  V30 9104 H 908.233 -1.73875 5.20633 0
M  V30 9105 H 908.494 -2.5011 3.64551 0
M  V30 9106 N 907.553 -1.57587 0.0200696 0
M  V30 9107 C 908.8 -1.91424 -0.660525 0
M  V30 9108 C 909.128 -0.895626 -1.72652 0
M  V30 9109 O 908.383 0.096771 -1.95461 0
M  V30 9110 C 908.682 -3.32002 -1.32323 0
M  V30 9111 C 908.348 -4.49223 -0.388487 0
M  V30 9112 C 907.01 -4.81021 -0.131184 0
M  V30 9113 C 909.362 -5.20581 0.253906 0
M  V30 9114 C 906.69 -5.81539 0.776471 0
M  V30 9115 C 909.042 -6.22067 1.14956 0
M  V30 9116 C 907.706 -6.52311 1.41584 0
M  V30 9117 H 906.976 -0.700472 -0.241703 0
M  V30 9118 H 909.623 -1.91333 0.0798991 0
M  V30 9119 H 907.928 -3.28312 -2.13819 0
M  V30 9120 H 909.625 -3.5545 -1.85623 0
M  V30 9121 H 906.215 -4.24391 -0.599207 0
M  V30 9122 H 910.399 -4.96253 0.068164 0
M  V30 9123 H 905.655 -6.03322 0.990575 0
M  V30 9124 H 909.829 -6.76484 1.65357 0
M  V30 9125 H 907.456 -7.30017 2.12083 0
M  V30 9126 N 909.032 0.252966 -1.55557 0
M  V30 9127 C 910.279 0.981852 -1.77104 0
M  V30 9128 C 910.607 1.85547 -0.583305 0
M  V30 9129 O 909.862 1.90836 0.43359 0
M  V30 9130 C 910.161 1.87785 -3.04091 0
M  V30 9131 C 909.827 1.16009 -4.35721 0
M  V30 9132 C 908.489 0.961697 -4.71492 0
M  V30 9133 C 910.841 0.650884 -5.1712 0
M  V30 9134 C 908.169 0.241704 -5.86202 0
M  V30 9135 C 910.521 -0.0556124 -6.32576 0
M  V30 9136 C 909.185 -0.265536 -6.66972 0
M  V30 9137 H 908.455 0.359285 -0.64807 0
M  V30 9138 H 911.102 0.252443 -1.89829 0
M  V30 9139 H 909.407 2.67412 -2.86353 0
M  V30 9140 H 911.104 2.44339 -3.17961 0
M  V30 9141 H 907.694 1.32465 -4.07616 0
M  V30 9142 H 911.878 0.791719 -4.89944 0
M  V30 9143 H 907.134 0.0685292 -6.11362 0
M  V30 9144 H 911.308 -0.457839 -6.94893 0
M  V30 9145 H 908.935 -0.8254 -7.55706 0
M  V30 9146 N 910.51 1.48831 0.518367 0
M  V30 9147 C 911.738 1.6112 1.298 0
M  V30 9148 C 912.153 0.275872 1.86774 0
M  V30 9149 O 911.51 -0.736416 1.66983 0
M  V30 9150 C 911.561 2.66675 2.44063 0
M  V30 9151 O 911.282 3.95027 1.89434 0
M  V30 9152 C 912.783 2.8951 3.35706 0
M  V30 9153 H 910.003 0.542916 0.394314 0
M  V30 9154 H 912.547 1.94743 0.624142 0
M  V30 9155 H 910.702 2.35879 3.07311 0
M  V30 9156 H 911.116 4.53031 2.64316 0
M  V30 9157 H 912.59 3.67142 4.12202 0
M  V30 9158 H 913.067 1.98768 3.91648 0
M  V30 9159 H 913.673 3.21656 2.7824 0
M  V30 9160 N 911.988 -0.768124 1.37614 0
M  V30 9161 C 913.265 -1.51637 1.23554 0
M  V30 9162 C 913.645 -2.1042 -0.169331 0
M  V30 9163 O 912.993 -1.95834 -1.17735 0
M  V30 9164 C 913.203 -2.59436 2.33439 0
M  V30 9165 C 914.551 -3.2674 2.71157 0
M  V30 9166 O 915.575 -2.69733 2.32642 0
M  V30 9167 O 914.434 -4.29814 3.37524 0
M  V30 9168 H 911.528 -0.671778 0.482332 0
M  V30 9169 H 914.074 -0.804779 1.49403 0
M  V30 9170 H 912.846 -2.14146 3.27502 0
M  V30 9171 H 912.469 -3.38192 2.09073 0
M  V30 9172 N 913.466 -1.22244 -0.994698 0
M  V30 9173 C 914.712 -1.05752 -1.73747 0
M  V30 9174 C 915.067 0.403416 -1.88123 0
M  V30 9175 O 914.36 1.29511 -1.412 0
M  V30 9176 C 914.554 -1.70014 -3.14372 0
M  V30 9177 C 914.383 -3.22205 -3.1371 0
M  V30 9178 C 913.153 -3.91301 -3.19705 0
M  V30 9179 C 915.351 -4.19163 -2.98005 0
M  V30 9180 N 913.333 -5.30594 -3.08778 0
M  V30 9181 C 914.704 -5.45274 -2.95087 0
M  V30 9182 C 916.759 -4.10078 -2.82383 0
M  V30 9183 C 915.462 -6.63345 -2.78146 0
M  V30 9184 C 917.488 -5.27797 -2.66803 0
M  V30 9185 C 916.85 -6.52826 -2.6457 0
M  V30 9186 H 912.949 -0.441393 -0.64552 0
M  V30 9187 H 915.533 -1.54757 -1.18146 0
M  V30 9188 H 913.704 -1.23562 -3.68221 0
M  V30 9189 H 915.436 -1.46631 -3.77202 0
M  V30 9190 H 912.191 -3.42289 -3.27315 0
M  V30 9191 H 912.615 -6.0358 -3.06628 0
M  V30 9192 H 917.257 -3.14201 -2.82909 0
M  V30 9193 H 914.975 -7.59373 -2.76367 0
M  V30 9194 H 918.561 -5.22598 -2.557 0
M  V30 9195 H 917.441 -7.42383 -2.5266 0
M  V30 9196 N 914.944 1.19125 -1.03184 0
M  V30 9197 C 916.172 1.92838 -0.74975 0
M  V30 9198 C 916.587 1.75667 0.691851 0
M  V30 9199 O 915.944 1.0805 1.47076 0
M  V30 9200 C 915.995 3.44509 -1.09525 0
M  V30 9201 O 915.716 3.6113 -2.48025 0
M  V30 9202 C 917.217 4.35338 -0.836397 0
M  V30 9203 H 914.437 0.61246 -0.274105 0
M  V30 9204 H 916.981 1.5118 -1.37712 0
M  V30 9205 H 915.136 3.83988 -0.513006 0
M  V30 9206 H 915.55 4.54959 -2.60984 0
M  V30 9207 H 917.024 5.4035 -1.12808 0
M  V30 9208 H 917.501 4.38602 0.229102 0
M  V30 9209 H 918.107 4.01544 -1.40152 0
M  V30 9210 N 916.422 0.810101 1.35185 0
M  V30 9211 C 917.369 0.220927 2.2974 0
M  V30 9212 C 918.339 -0.647024 1.5298 0
M  V30 9213 O 919.524 -0.591367 1.81404 0
M  V30 9214 C 916.664 -0.62167 3.39454 0
M  V30 9215 C 915.777 0.267104 4.31173 0
M  V30 9216 C 914.912 -0.583833 5.27982 0
M  V30 9217 C 913.951 0.305123 6.11339 0
M  V30 9218 N 913.088 -0.505992 7.00274 0
M  V30 9219 H 917.928 1.03266 2.79536 0
M  V30 9220 H 915.465 0.520768 1.37573 0
M  V30 9221 H 917.423 -1.12539 4.01735 0
M  V30 9222 H 916.053 -1.39863 2.90926 0
M  V30 9223 H 915.105 0.88895 3.69867 0
M  V30 9224 H 916.417 0.951182 4.89647 0
M  V30 9225 H 915.571 -1.15254 5.95652 0
M  V30 9226 H 914.31 -1.30146 4.70014 0
M  V30 9227 H 913.315 0.886075 5.42613 0
M  V30 9228 H 914.54 1.02067 6.71386 0
M  V30 9229 H 912.486 -1.20753 6.4479 0
M  V30 9230 H 912.403 0.119966 7.55905 0
M  V30 9231 H 913.671 -1.05787 7.72288 0
M  V30 9232 N 917.9 -1.47166 0.563914 0
M  V30 9233 C 918.833 -2.27058 -0.227989 0
M  V30 9234 C 919.811 -1.34468 -0.914179 0
M  V30 9235 O 920.995 -1.63857 -0.931829 0
M  V30 9236 C 918.122 -3.11689 -1.32543 0
M  V30 9237 C 917.168 -4.19906 -0.747084 0
M  V30 9238 S 918.001 -5.33916 0.41153 0
M  V30 9239 C 919.157 -6.22112 -0.687566 0
M  V30 9240 H 919.39 -2.93876 0.449939 0
M  V30 9241 H 916.923 -1.50372 0.350382 0
M  V30 9242 H 918.881 -3.61017 -1.95389 0
M  V30 9243 H 917.542 -2.44221 -1.97522 0
M  V30 9244 H 916.735 -4.78876 -1.57141 0
M  V30 9245 H 916.337 -3.73493 -0.194671 0
M  V30 9246 H 918.629 -6.58867 -1.578 0
M  V30 9247 H 919.572 -7.07971 -0.135058 0
M  V30 9248 H 919.98 -5.55871 -0.983255 0
M  V30 9249 N 919.378 -0.300708 -1.54705 0
M  V30 9250 C 920.341 0.562648 -2.22187 0
M  V30 9251 C 921.341 1.06152 -1.20782 0
M  V30 9252 O 922.531 0.957596 -1.45519 0
M  V30 9253 C 919.663 1.77899 -2.908 0
M  V30 9254 H 920.856 -0.0269361 -2.99888 0
M  V30 9255 H 918.409 -0.0515412 -1.56215 0
M  V30 9256 H 919.144 2.40841 -2.17177 0
M  V30 9257 H 918.929 1.42892 -3.65136 0
M  V30 9258 H 920.419 2.39236 -3.42281 0
M  V30 9259 N 920.856 1.57574 -0.0284266 0
M  V30 9260 C 922.102 1.92056 0.651327 0
M  V30 9261 C 922.435 0.905092 1.71819 0
M  V30 9262 O 921.71 -0.0722703 1.94366 0
M  V30 9263 C 921.993 3.37021 1.26841 0
M  V30 9264 C 921.846 4.49304 0.211157 0
M  V30 9265 C 923.165 3.81936 2.18662 0
M  V30 9266 H 920.284 0.698428 0.235304 0
M  V30 9267 H 922.926 1.89807 -0.0855435 0
M  V30 9268 H 921.076 3.39068 1.89644 0
M  V30 9269 H 922.748 4.5939 -0.419379 0
M  V30 9270 H 920.991 4.31317 -0.463445 0
M  V30 9271 H 921.662 5.47764 0.682518 0
M  V30 9272 H 924.138 3.8162 1.65847 0
M  V30 9273 H 923.014 4.84064 2.58792 0
M  V30 9274 H 923.275 3.174 3.07749 0
M  V30 9275 N 922.334 -0.244713 1.55689 0
M  V30 9276 C 923.264 -1.30667 1.93516 0
M  V30 9277 C 924.245 -1.50094 0.800371 0
M  V30 9278 O 925.43 -1.62665 1.06083 0
M  V30 9279 C 922.56 -2.66101 2.23176 0
M  V30 9280 C 921.514 -2.61366 3.38927 0
M  V30 9281 C 920.84 -4.00616 3.54134 0
M  V30 9282 C 922.14 -2.18161 4.74555 0
M  V30 9283 H 923.834 -0.992546 2.82469 0
M  V30 9284 H 921.38 -0.476018 1.35905 0
M  V30 9285 H 923.333 -3.4053 2.48228 0
M  V30 9286 H 922.057 -2.99154 1.31051 0
M  V30 9287 H 920.716 -1.89395 3.13887 0
M  V30 9288 H 920.364 -4.30938 2.59426 0
M  V30 9289 H 920.064 -3.98335 4.31975 0
M  V30 9290 H 921.588 -4.76741 3.8151 0
M  V30 9291 H 923.002 -2.82323 4.98965 0
M  V30 9292 H 921.399 -2.26988 5.55515 0
M  V30 9293 H 922.469 -1.13333 4.7147 0
M  V30 9294 N 923.813 -1.49104 -0.510467 0
M  V30 9295 C 924.76 -1.65074 -1.61305 0
M  V30 9296 C 925.73 -0.492362 -1.58635 0
M  V30 9297 O 926.915 -0.718241 -1.76765 0
M  V30 9298 C 924.055 -1.71457 -2.99493 0
M  V30 9299 C 923.168 -2.98536 -3.12251 0
M  V30 9300 C 922.303 -2.95957 -4.41116 0
M  V30 9301 C 921.342 -4.17655 -4.47471 0
M  V30 9302 N 920.479 -4.13041 -5.67751 0
M  V30 9303 H 925.319 -2.59222 -1.46996 0
M  V30 9304 H 922.856 -1.28535 -0.715346 0
M  V30 9305 H 924.814 -1.7314 -3.79577 0
M  V30 9306 H 923.444 -0.807834 -3.12528 0
M  V30 9307 H 922.496 -3.06509 -2.25292 0
M  V30 9308 H 923.808 -3.88527 -3.12807 0
M  V30 9309 H 922.962 -2.96149 -5.2951 0
M  V30 9310 H 921.701 -2.03728 -4.4311 0
M  V30 9311 H 920.706 -4.17717 -3.57481 0
M  V30 9312 H 921.931 -5.11066 -4.472 0
M  V30 9313 H 919.877 -3.23643 -5.70606 0
M  V30 9314 H 919.794 -4.96757 -5.69884 0
M  V30 9315 H 921.062 -4.17322 -6.58379 0
M  V30 9316 N 925.291 0.760815 -1.38019 0
M  V30 9317 C 926.254 1.85604 -1.34476 0
M  V30 9318 C 927.254 1.58897 -0.24666 0
M  V30 9319 O 928.444 1.66776 -0.50314 0
M  V30 9320 C 925.576 3.22945 -1.09176 0
M  V30 9321 H 926.769 1.90155 -2.31908 0
M  V30 9322 H 924.322 0.961746 -1.23208 0
M  V30 9323 H 925.057 3.24066 -0.123216 0
M  V30 9324 H 924.842 3.43723 -1.88672 0
M  V30 9325 H 926.332 4.03022 -1.09375 0
M  V30 9326 N 926.769 1.22769 0.988202 0
M  V30 9327 C 927.717 0.999271 2.10041 0
M  V30 9328 C 928.711 -0.0591767 1.69297 0
M  V30 9329 O 929.917 0.0936653 1.79756 0
M  V30 9330 H 926.292 0.30599 0.686931 0
M  V30 9331 H 928.263 1.94294 2.26478 0
M  V30 9332 C 927.012 0.59873 3.42506 0
M  V30 9333 H 926.335 1.40487 3.74304 0
M  V30 9334 H 927.775 0.478353 4.21293 0
M  V30 9335 C 926.234 -0.692216 3.29712 0
M  V30 9336 O 926.764 -1.74342 3.61895 0
M  V30 9337 N 924.97 -0.665163 2.82885 0
M  V30 9338 H 924.517 0.190604 2.56894 0
M  V30 9339 H 924.475 -1.52917 2.74706 0
M  V30 9340 N 928.247 -1.18576 1.03814 0
M  V30 9341 C 929.194 -2.2212 0.626988 0
M  V30 9342 C 930.164 -1.62064 -0.363912 0
M  V30 9343 O 931.349 -1.89041 -0.258469 0
M  V30 9344 C 928.489 -3.45099 -0.00650133 0
M  V30 9345 C 927.602 -4.19503 1.03156 0
M  V30 9346 C 926.737 -5.29932 0.366852 0
M  V30 9347 C 925.776 -5.96104 1.39018 0
M  V30 9348 N 924.913 -6.98076 0.750625 0
M  V30 9349 H 929.753 -2.56646 1.51449 0
M  V30 9350 H 927.29 -1.26084 0.757702 0
M  V30 9351 H 929.248 -4.15363 -0.391108 0
M  V30 9352 H 927.878 -3.11201 -0.857536 0
M  V30 9353 H 926.93 -3.48092 1.53414 0
M  V30 9354 H 928.242 -4.64843 1.80893 0
M  V30 9355 H 927.396 -6.06657 -0.0720979 0
M  V30 9356 H 926.135 -4.85687 -0.442631 0
M  V30 9357 H 925.14 -5.18122 1.8393 0
M  V30 9358 H 926.365 -6.42432 2.20132 0
M  V30 9359 H 924.311 -6.55989 -0.0385981 0
M  V30 9360 H 924.228 -7.41655 1.46574 0
M  V30 9361 H 925.496 -7.78776 0.335986 0
M  V30 9362 N 929.725 -0.817259 -1.34754 0
M  V30 9363 C 930.972 -0.402648 -1.98457 0
M  V30 9364 C 931.3 1.03287 -1.64809 0
M  V30 9365 O 930.555 1.73316 -0.908851 0
M  V30 9366 C 930.854 -0.5453 -3.53216 0
M  V30 9367 C 930.52 -1.9457 -4.06759 0
M  V30 9368 C 929.182 -2.32881 -4.21094 0
M  V30 9369 C 931.534 -2.86141 -4.35629 0
M  V30 9370 C 928.862 -3.62108 -4.61622 0
M  V30 9371 C 931.214 -4.14826 -4.776 0
M  V30 9372 C 929.878 -4.53121 -4.9014 0
M  V30 9373 H 929.148 -0.147339 -0.726204 0
M  V30 9374 H 931.795 -1.04011 -1.60791 0
M  V30 9375 H 930.1 0.175576 -3.91406 0
M  V30 9376 H 931.797 -0.205112 -4.00475 0
M  V30 9377 H 928.387 -1.6381 -3.96061 0
M  V30 9378 H 932.571 -2.57788 -4.24098 0
M  V30 9379 H 927.827 -3.91613 -4.69521 0
M  V30 9380 H 932.001 -4.85874 -4.98899 0
M  V30 9381 H 929.628 -5.53307 -5.21302 0
M  V30 9382 N 931.203 1.46865 -0.571711 0
M  V30 9383 C 932.431 2.06818 -0.0583975 0
M  V30 9384 C 932.846 1.42218 1.24175 0
M  V30 9385 O 932.203 0.523655 1.74826 0
M  V30 9386 C 932.254 3.61281 0.125673 0
M  V30 9387 O 931.975 4.23462 -1.123 0
M  V30 9388 C 933.476 4.38137 0.674604 0
M  V30 9389 H 930.696 0.668948 -0.052438 0
M  V30 9390 H 933.24 1.88656 -0.789251 0
M  V30 9391 H 931.395 3.78908 0.806707 0
M  V30 9392 H 931.809 5.16192 -0.929869 0
M  V30 9393 H 933.283 5.46845 0.752626 0
M  V30 9394 H 933.76 4.05419 1.68915 0
M  V30 9395 H 934.366 4.2529 0.0287979 0
M  V30 9396 N 932.681 0.308908 1.54543 0
M  V30 9397 C 933.591 -0.572939 2.27496 0
M  V30 9398 C 934.607 -1.14171 1.31305 0
M  V30 9399 O 935.783 -1.16481 1.64299 0
M  V30 9400 C 932.848 -1.72483 3.0075 0
M  V30 9401 C 931.909 -1.18934 4.12496 0
M  V30 9402 C 931.142 -2.28634 4.82247 0
M  V30 9403 O 931.365 -3.48691 4.5141 0
M  V30 9404 O 930.299 -1.94879 5.69478 0
M  V30 9405 H 934.125 0.0190877 3.03694 0
M  V30 9406 H 931.71 0.0750943 1.49211 0
M  V30 9407 H 933.592 -2.39578 3.46671 0
M  V30 9408 H 932.267 -2.30332 2.2744 0
M  V30 9409 H 931.174 -0.483904 3.70957 0
M  V30 9410 H 932.507 -0.656185 4.87806 0
M  V30 9411 N 934.159 -1.57557 0.0367827 0
M  V30 9412 C 935.387 -1.96419 -0.650168 0
M  V30 9413 C 935.802 -0.913656 -1.6522 0
M  V30 9414 O 935.159 0.103718 -1.82205 0
M  V30 9415 C 935.21 -3.35355 -1.3498 0
M  V30 9416 O 934.931 -4.36379 -0.387905 0
M  V30 9417 C 936.432 -3.88892 -2.12786 0
M  V30 9418 H 933.652 -0.646751 -0.178756 0
M  V30 9419 H 936.196 -2.04261 0.0988197 0
M  V30 9420 H 934.351 -3.28708 -2.05012 0
M  V30 9421 H 934.765 -5.16969 -0.885596 0
M  V30 9422 H 936.239 -4.88428 -2.5718 0
M  V30 9423 H 936.716 -3.23547 -2.97008 0
M  V30 9424 H 937.322 -3.98831 -1.47694 0
M  V30 9425 N 935.637 0.236453 -1.55816 0
M  V30 9426 C 936.585 1.31259 -1.92025 0
M  V30 9427 C 937.579 1.49292 -0.800518 0
M  V30 9428 O 938.785 1.50643 -0.985229 0
M  V30 9429 H 935.16 0.439751 -0.610019 0
M  V30 9430 H 937.131 0.979926 -2.81851 0
M  V30 9431 C 935.88 2.65892 -2.24046 0
M  V30 9432 H 935.203 2.5282 -3.09713 0
M  V30 9433 H 936.643 3.40039 -2.53277 0
M  V30 9434 C 935.102 3.19777 -1.0604 0
M  V30 9435 O 935.632 4.00473 -0.313786 0
M  V30 9436 N 933.838 2.77946 -0.848209 0
M  V30 9437 H 933.385 2.12433 -1.45706 0
M  V30 9438 H 933.343 3.14342 -0.0603424 0
M  V30 9439 N 937.115 1.49373 0.502552 0
M  V30 9440 C 938.526 1.52 1.0841 0
M  V30 9441 C 938.877 0.305317 1.9381 0
M  V30 9442 O 938.002 -0.585023 2.08342 0
M  V30 9443 C 938.597 2.75437 1.97281 0
M  V30 9444 C 937.156 2.80848 2.50602 0
M  V30 9445 C 936.303 2.45894 1.28186 0
M  V30 9446 H 939.254 1.56092 0.286533 0
M  V30 9447 H 939.275 2.55511 2.81947 0
M  V30 9448 H 938.787 3.63827 1.35098 0
M  V30 9449 H 936.888 1.96735 3.16427 0
M  V30 9450 H 937.001 3.82979 2.8786 0
M  V30 9451 H 935.365 1.97639 1.60657 0
M  V30 9452 H 936.148 3.36556 0.677139 0
M  V30 9453 N 938.594 -0.753485 1.38421 0
M  V30 9454 C 939.526 -1.87692 1.31547 0
M  V30 9455 C 940.539 -1.612 0.227671 0
M  V30 9456 O 941.728 -1.71778 0.485238 0
M  V30 9457 C 938.828 -3.23329 1.01545 0
M  V30 9458 C 938.001 -3.77324 2.21236 0
M  V30 9459 C 937.06 -4.91478 1.87977 0
M  V30 9460 O 936.086 -5.06106 2.60472 0
M  V30 9461 N 937.288 -5.74466 0.834796 0
M  V30 9462 H 940.053 -1.94099 2.28354 0
M  V30 9463 H 937.614 -0.933421 1.32283 0
M  V30 9464 H 939.606 -3.9724 0.773477 0
M  V30 9465 H 938.176 -3.12307 0.135334 0
M  V30 9466 H 937.396 -2.94978 2.61498 0
M  V30 9467 H 938.684 -4.10131 3.01115 0
M  V30 9468 H 938.082 -5.65217 0.233606 0
M  V30 9469 H 936.639 -6.48524 0.652703 0
M  V30 9470 N 940.072 -1.23292 -0.981677 0
M  V30 9471 C 941.318 -1.06582 -1.72535 0
M  V30 9472 C 941.651 0.396538 -1.90108 0
M  V30 9473 O 940.926 1.29363 -1.45243 0
M  V30 9474 C 941.209 -1.7904 -3.12437 0
M  V30 9475 C 941.062 -3.32941 -3.02441 0
M  V30 9476 C 942.381 -1.55185 -4.11832 0
M  V30 9477 H 939.5 -0.388585 -0.626236 0
M  V30 9478 H 942.142 -1.51779 -1.14293 0
M  V30 9479 H 940.292 -1.40619 -3.62158 0
M  V30 9480 H 941.964 -3.80875 -2.60254 0
M  V30 9481 H 940.207 -3.62039 -2.38977 0
M  V30 9482 H 940.878 -3.78827 -4.0149 0
M  V30 9483 H 943.354 -1.88581 -3.70913 0
M  V30 9484 H 942.23 -2.08362 -5.07815 0
M  V30 9485 H 942.491 -0.486925 -4.3941 0
M  V30 9486 N 941.55 1.18024 -1.04442 0
M  V30 9487 C 942.78 1.91753 -0.769044 0
M  V30 9488 C 943.188 1.76629 0.678141 0
M  V30 9489 O 942.531 1.09589 1.47431 0
M  V30 9490 C 942.593 3.43505 -1.0604 0
M  V30 9491 C 942.257 3.82409 -2.50225 0
M  V30 9492 C 943.254 3.8588 -3.48414 0
M  V30 9493 C 940.939 4.13594 -2.85036 0
M  V30 9494 C 942.933 4.19993 -4.79463 0
M  V30 9495 C 940.62 4.47377 -4.1629 0
M  V30 9496 C 941.618 4.50553 -5.13314 0
M  V30 9497 O 941.306 4.83546 -6.42214 0
M  V30 9498 H 941.038 0.615466 -0.279603 0
M  V30 9499 H 943.592 1.5065 -1.3962 0
M  V30 9500 H 941.822 3.84866 -0.376125 0
M  V30 9501 H 943.511 3.98486 -0.772235 0
M  V30 9502 H 944.277 3.6192 -3.2286 0
M  V30 9503 H 940.156 4.10297 -2.10185 0
M  V30 9504 H 943.7 4.22387 -5.55189 0
M  V30 9505 H 939.597 4.70798 -4.4161 0
M  V30 9506 H 940.365 5.01433 -6.46921 0
M  V30 9507 N 943.028 0.824394 1.34319 0
M  V30 9508 C 944.258 0.425576 2.02169 0
M  V30 9509 C 944.666 -0.973596 1.62227 0
M  V30 9510 O 944.009 -1.64173 0.824199 0
M  V30 9511 C 944.071 0.449902 3.56674 0
M  V30 9512 C 943.735 1.80266 4.19944 0
M  V30 9513 C 944.732 2.76373 4.40357 0
M  V30 9514 C 942.417 2.09155 4.56683 0
M  V30 9515 C 944.411 3.9954 4.96635 0
M  V30 9516 C 942.098 3.32581 5.12672 0
M  V30 9517 C 943.096 4.27591 5.32592 0
M  V30 9518 O 942.784 5.48837 5.87395 0
M  V30 9519 H 942.516 0.168866 0.654569 0
M  V30 9520 H 945.07 1.11441 1.7254 0
M  V30 9521 H 943.3 -0.295631 3.85568 0
M  V30 9522 H 944.989 0.0709302 4.05838 0
M  V30 9523 H 945.755 2.55351 4.12336 0
M  V30 9524 H 941.634 1.36004 4.40481 0
M  V30 9525 H 945.178 4.73709 5.12099 0
M  V30 9526 H 941.075 3.53466 5.40122 0
M  V30 9527 H 941.843 5.50377 6.05828 0
M  V30 9528 N 944.506 -1.46559 0.579492 0
M  V30 9529 C 945.438 -2.28383 -0.19337 0
M  V30 9530 C 946.451 -1.38324 -0.858511 0
M  V30 9531 O 947.64 -1.62952 -0.728615 0
M  V30 9532 C 944.74 -3.13262 -1.29306 0
M  V30 9533 C 943.913 -4.31426 -0.720459 0
M  V30 9534 C 942.972 -4.97728 -1.70744 0
M  V30 9535 O 941.998 -5.55423 -1.24476 0
M  V30 9536 N 943.2 -4.94445 -3.04146 0
M  V30 9537 H 945.965 -2.95353 0.508611 0
M  V30 9538 H 943.526 -1.56436 0.417046 0
M  V30 9539 H 945.518 -3.54483 -1.95254 0
M  V30 9540 H 944.088 -2.48388 -1.89795 0
M  V30 9541 H 943.308 -3.94028 0.116398 0
M  V30 9542 H 944.596 -5.07808 -0.31763 0
M  V30 9543 H 943.994 -4.4881 -3.44363 0
M  V30 9544 H 942.551 -5.39616 -3.65592 0
M  V30 9545 N 945.984 -0.3171 -1.54377 0
M  V30 9546 C 946.947 0.53905 -2.22771 0
M  V30 9547 C 947.947 1.04865 -1.21901 0
M  V30 9548 O 949.137 0.942108 -1.46526 0
M  V30 9549 C 946.269 1.74804 -2.92671 0
M  V30 9550 H 947.462 -0.0587417 -2.99842 0
M  V30 9551 H 945.015 -0.068107 -1.56152 0
M  V30 9552 H 945.75 2.38524 -2.1972 0
M  V30 9553 H 945.535 1.39011 -3.66631 0
M  V30 9554 H 947.025 2.35592 -3.44799 0
M  V30 9555 N 947.462 1.57535 -0.0451378 0
M  V30 9556 C 948.687 1.97172 0.64326 0
M  V30 9557 C 949.112 0.922266 1.63939 0
M  V30 9558 O 948.47 -0.115155 1.80934 0
M  V30 9559 C 948.518 3.35889 1.3119 0
M  V30 9560 O 947.622 3.33387 2.42748 0
M  V30 9561 H 946.963 0.642469 0.167719 0
M  V30 9562 H 949.493 2.04295 -0.111747 0
M  V30 9563 H 949.503 3.72481 1.66499 0
M  V30 9564 H 948.178 4.1181 0.581823 0
M  V30 9565 H 946.755 3.08533 2.09432 0
M  V30 9566 N 948.94 -0.228186 1.55939 0
M  V30 9567 C 949.87 -1.28607 1.94891 0
M  V30 9568 C 950.851 -1.49236 0.816245 0
M  V30 9569 O 952.036 -1.61531 1.07803 0
M  V30 9570 C 949.166 -2.63719 2.25986 0
M  V30 9571 C 948.12 -2.57757 3.4168 0
M  V30 9572 C 947.446 -3.96837 3.58364 0
M  V30 9573 C 948.746 -2.13116 4.76843 0
M  V30 9574 H 950.44 -0.962531 2.83506 0
M  V30 9575 H 947.986 -0.461577 1.36402 0
M  V30 9576 H 949.939 -3.37878 2.51826 0
M  V30 9577 H 948.663 -2.97747 1.34217 0
M  V30 9578 H 947.322 -1.86055 3.15878 0
M  V30 9579 H 946.97 -4.28162 2.63982 0
M  V30 9580 H 946.67 -3.93731 4.36176 0
M  V30 9581 H 948.194 -4.72668 3.86545 0
M  V30 9582 H 949.608 -2.77015 5.01932 0
M  V30 9583 H 948.005 -2.21083 5.57891 0
M  V30 9584 H 949.075 -1.08326 4.72645 0
M  V30 9585 N 950.418 -1.49637 -0.494624 0
M  V30 9586 C 951.834 -1.36541 -0.826361 0
M  V30 9587 C 952.034 -0.403386 -1.97421 0
M  V30 9588 O 951.09 0.162614 -2.51976 0
M  V30 9589 C 952.403 -2.77401 -1.16057 0
M  V30 9590 C 953.951 -2.86148 -1.26841 0
M  V30 9591 C 954.426 -4.27789 -1.63587 0
M  V30 9592 N 955.917 -4.3063 -1.70624 0
M  V30 9593 C 956.652 -5.37198 -2.00514 0
M  V30 9594 N 956.148 -6.54004 -2.28584 0
M  V30 9595 N 957.941 -5.2462 -2.01818 0
M  V30 9596 H 950.092 -2.10776 0.26219 0
M  V30 9597 H 952.355 -0.946419 0.0547235 0
M  V30 9598 H 952.061 -3.49526 -0.390434 0
M  V30 9599 H 951.935 -3.1317 -2.10249 0
M  V30 9600 H 954.322 -2.14256 -2.02925 0
M  V30 9601 H 954.403 -2.53953 -0.30684 0
M  V30 9602 H 954.047 -5.00209 -0.880507 0
M  V30 9603 H 953.977 -4.57453 -2.60854 0
M  V30 9604 H 956.468 -3.46393 -1.51065 0
M  V30 9605 H 956.781 -7.31041 -2.50598 0
M  V30 9606 H 955.126 -6.57219 -2.26027 0
M  V30 9607 H 958.317 -4.32371 -1.79369 0
M  V30 9608 H 958.49 -6.07765 -2.24778 0
M  V30 9609 N 951.896 0.746133 -1.38819 0
M  V30 9610 C 953.307 1.32384 -1.31648 0
M  V30 9611 C 953.658 1.96185 0.0243086 0
M  V30 9612 O 952.783 1.95567 0.92641 0
M  V30 9613 C 953.378 2.40712 -2.38418 0
M  V30 9614 C 951.937 2.94185 -2.34803 0
M  V30 9615 C 951.084 1.67639 -2.20891 0
M  V30 9616 H 954.035 0.544457 -1.49068 0
M  V30 9617 H 954.056 3.20833 -2.04564 0
M  V30 9618 H 953.568 1.94247 -3.3599 0
M  V30 9619 H 951.669 3.44959 -1.40834 0
M  V30 9620 H 951.782 3.48057 -3.29231 0
M  V30 9621 H 950.146 1.9155 -1.67871 0
M  V30 9622 H 950.929 1.23242 -3.20416 0
M  V30 9623 N 953.375 1.23811 0.975125 0
M  V30 9624 C 954.605 1.0986 1.7497 0
M  V30 9625 C 955.013 -0.352366 1.8589 0
M  V30 9626 O 954.356 -1.2553 1.34119 0
M  V30 9627 C 954.418 1.65584 3.19096 0
M  V30 9628 C 954.082 3.14395 3.3167 0
M  V30 9629 C 955.079 4.1163 3.17579 0
M  V30 9630 C 952.764 3.54208 3.56149 0
M  V30 9631 C 954.758 5.46661 3.27781 0
M  V30 9632 C 952.445 4.89382 3.65989 0
M  V30 9633 C 953.443 5.85418 3.51817 0
M  V30 9634 O 953.131 7.18135 3.61299 0
M  V30 9635 H 952.863 0.384854 0.555755 0
M  V30 9636 H 955.417 1.64242 1.23343 0
M  V30 9637 H 953.647 1.05627 3.71994 0
M  V30 9638 H 955.336 1.47032 3.78334 0
M  V30 9639 H 956.102 3.82214 2.98559 0
M  V30 9640 H 951.981 2.79968 3.66249 0
M  V30 9641 H 955.525 6.21601 3.16636 0
M  V30 9642 H 951.422 5.18473 3.84521 0
M  V30 9643 H 952.19 7.25956 3.78061 0
M  V30 9644 N 954.853 -1.17469 1.05066 0
M  V30 9645 C 956.101 -1.87327 0.758485 0
M  V30 9646 C 956.422 -1.81358 -0.716549 0
M  V30 9647 O 955.692 -1.23868 -1.51768 0
M  V30 9648 H 954.272 -0.693512 0.277579 0
M  V30 9649 H 956.934 -1.4251 1.32954 0
M  V30 9650 H 956.03 -2.93101 1.0723 0
M  V30 9651 N 956.331 -0.831506 -1.3388 0
M  V30 9652 C 957.577 -0.424302 -1.98312 0
M  V30 9653 C 957.91 1.01211 -1.65741 0
M  V30 9654 O 957.185 1.70636 -0.933464 0
M  V30 9655 C 957.468 -0.636815 -3.54424 0
M  V30 9656 C 957.321 -2.11997 -3.96708 0
M  V30 9657 C 958.64 -0.0782411 -4.4003 0
M  V30 9658 H 955.759 -0.155637 -0.720379 0
M  V30 9659 H 958.401 -1.04566 -1.58638 0
M  V30 9660 H 956.551 -0.107907 -3.8835 0
M  V30 9661 H 958.223 -2.71317 -3.73075 0
M  V30 9662 H 956.466 -2.60723 -3.46707 0
M  V30 9663 H 957.137 -2.21944 -5.05416 0
M  V30 9664 H 959.613 -0.530243 -4.12708 0
M  V30 9665 H 958.489 -0.256676 -5.483 0
M  V30 9666 H 958.75 1.01745 -4.30233 0
M  V30 9667 N 957.809 1.4625 -0.587256 0
M  V30 9668 C 959.037 2.06744 -0.08033 0
M  V30 9669 C 959.452 1.43527 1.2266 0
M  V30 9670 O 958.809 0.542168 1.74261 0
M  V30 9671 C 958.86 3.61394 0.0873469 0
M  V30 9672 O 958.581 4.22247 -1.16785 0
M  V30 9673 C 960.082 4.38828 0.628095 0
M  V30 9674 H 957.302 0.668354 -0.0595301 0
M  V30 9675 H 959.846 1.87808 -0.809217 0
M  V30 9676 H 958.001 3.79742 0.766473 0
M  V30 9677 H 958.415 5.15176 -0.984565 0
M  V30 9678 H 959.889 5.47613 0.694583 0
M  V30 9679 H 960.366 4.07188 1.64606 0
M  V30 9680 H 960.972 4.25297 -0.0163115 0
M  V30 9681 N 959.287 0.325282 1.54207 0
M  V30 9682 C 960.533 -0.277185 2.00897 0
M  V30 9683 C 960.866 -1.51651 1.21308 0
M  V30 9684 O 960.141 -1.92237 0.295825 0
M  V30 9685 C 960.424 -0.60961 3.54902 0
M  V30 9686 C 960.277 0.640542 4.45216 0
M  V30 9687 C 961.596 -1.42656 4.16338 0
M  V30 9688 H 958.715 -0.0992722 0.730284 0
M  V30 9689 H 961.357 0.442201 1.84783 0
M  V30 9690 H 959.507 -1.22249 3.68765 0
M  V30 9691 H 961.179 1.27878 4.43221 0
M  V30 9692 H 959.422 1.26908 4.14821 0
M  V30 9693 H 960.093 0.363459 5.50802 0
M  V30 9694 H 962.569 -0.908494 4.06061 0
M  V30 9695 H 961.445 -1.62792 5.24204 0
M  V30 9696 H 961.706 -2.42321 3.69774 0
M  V30 9697 N 960.765 -1.57509 0.0534917 0
M  V30 9698 C 961.995 -1.96812 -0.628386 0
M  V30 9699 C 962.403 -0.929808 -1.64776 0
M  V30 9700 O 961.746 0.0941155 -1.83459 0
M  V30 9701 C 961.808 -3.32361 -1.37027 0
M  V30 9702 C 961.472 -4.54185 -0.506465 0
M  V30 9703 C 962.469 -5.19398 0.228412 0
M  V30 9704 C 960.154 -5.00398 -0.43671 0
M  V30 9705 C 962.148 -6.29162 1.02146 0
M  V30 9706 C 959.835 -6.10039 0.360022 0
M  V30 9707 C 960.833 -6.74282 1.08779 0
M  V30 9708 O 960.521 -7.81814 1.87142 0
M  V30 9709 H 960.253 -0.65257 -0.176432 0
M  V30 9710 H 962.807 -2.05067 0.116908 0
M  V30 9711 H 961.037 -3.20667 -2.16125 0
M  V30 9712 H 962.726 -3.56395 -1.94261 0
M  V30 9713 H 963.492 -4.84651 0.184003 0
M  V30 9714 H 959.371 -4.50183 -0.992772 0
M  V30 9715 H 962.915 -6.79238 1.59002 0
M  V30 9716 H 958.812 -6.44222 0.406061 0
M  V30 9717 H 959.58 -7.98602 1.79378 0
M  V30 9718 N 962.243 0.219913 -1.56058 0
M  V30 9719 C 963.193 1.27606 -1.88946 0
M  V30 9720 C 964.177 1.42209 -0.752691 0
M  V30 9721 O 965.369 1.44996 -1.01514 0
M  V30 9722 C 962.498 2.62614 -2.21108 0
M  V30 9723 C 961.584 2.51906 -3.4118 0
M  V30 9724 N 961.975 2.10851 -4.59756 0
M  V30 9725 C 960.273 2.82861 -3.44827 0
M  V30 9726 C 960.974 2.11434 -5.41914 0
M  V30 9727 N 959.95 2.51985 -4.81669 0
M  V30 9728 H 963.752 0.94957 -2.78137 0
M  V30 9729 H 961.266 0.428468 -1.56646 0
M  V30 9730 H 963.263 3.38869 -2.42844 0
M  V30 9731 H 961.923 2.96108 -1.3323 0
M  V30 9732 H 962.934 1.81956 -4.84884 0
M  V30 9733 H 959.611 3.20716 -2.67297 0
M  V30 9734 H 961.001 1.81803 -6.46836 0
M  V30 9735 N 963.721 1.49897 0.486681 0
M  V30 9736 C 964.946 1.64106 1.26823 0
M  V30 9737 C 965.371 0.317967 1.85393 0
M  V30 9738 O 964.729 -0.71626 1.66551 0
M  V30 9739 C 964.777 2.72301 2.36399 0
M  V30 9740 O 963.881 2.32469 3.40634 0
M  V30 9741 H 963.222 0.548794 0.373793 0
M  V30 9742 H 965.752 1.96177 0.581017 0
M  V30 9743 H 965.762 2.94906 2.81948 0
M  V30 9744 H 964.437 3.68335 1.93137 0
M  V30 9745 H 963.014 2.20251 3.00905 0
M  V30 9746 N 965.199 -0.738761 1.39212 0
M  V30 9747 C 966.129 -1.86602 1.40364 0
M  V30 9748 C 967.11 -1.67984 0.267495 0
M  V30 9749 O 968.295 -1.88358 0.472765 0
M  V30 9750 C 965.425 -3.24308 1.24265 0
M  V30 9751 C 964.379 -3.57557 2.35239 0
M  V30 9752 C 963.705 -4.94159 2.04233 0
M  V30 9753 C 965.005 -3.60914 3.77543 0
M  V30 9754 H 966.699 -1.85896 2.34698 0
M  V30 9755 H 964.245 -0.892959 1.1297 0
M  V30 9756 H 966.198 -4.02838 1.23692 0
M  V30 9757 H 964.922 -3.25531 0.263974 0
M  V30 9758 H 963.581 -2.81354 2.35022 0
M  V30 9759 H 963.229 -4.91959 1.04813 0
M  V30 9760 H 962.929 -5.17373 2.78567 0
M  V30 9761 H 964.453 -5.7505 2.05303 0
M  V30 9762 H 965.867 -4.29528 3.79709 0
M  V30 9763 H 964.264 -3.95644 4.51205 0
M  V30 9764 H 965.334 -2.60803 4.08791 0
M  V30 9765 N 966.677 -1.24326 -0.968545 0
M  V30 9766 C 968.093 -1.00847 -1.23701 0
M  V30 9767 C 968.293 0.283235 -1.99499 0
M  V30 9768 O 967.349 0.999607 -2.31871 0
M  V30 9769 C 968.662 -2.22295 -2.02498 0
M  V30 9770 C 970.21 -2.26911 -2.15593 0
M  V30 9771 C 970.685 -3.47978 -2.97784 0
M  V30 9772 N 972.176 -3.48289 -3.05367 0
M  V30 9773 C 972.911 -4.38625 -3.69318 0
M  V30 9774 N 972.407 -5.39213 -4.34995 0
M  V30 9775 N 974.2 -4.26339 -3.66322 0
M  V30 9776 H 966.351 -2.07335 -0.461087 0
M  V30 9777 H 968.614 -0.909805 -0.26638 0
M  V30 9778 H 968.32 -3.161 -1.54188 0
M  V30 9779 H 968.194 -2.24344 -3.03232 0
M  V30 9780 H 970.581 -1.33639 -2.63106 0
M  V30 9781 H 970.662 -2.28888 -1.14209 0
M  V30 9782 H 970.306 -4.41564 -2.50965 0
M  V30 9783 H 970.236 -3.43244 -3.99364 0
M  V30 9784 H 972.727 -2.75517 -2.58648 0
M  V30 9785 H 973.04 -6.04378 -4.81608 0
M  V30 9786 H 971.385 -5.43101 -4.33667 0
M  V30 9787 H 974.576 -3.46991 -3.14189 0
M  V30 9788 H 974.749 -4.9694 -4.15878 0
M  V30 9789 N 968.156 1.1691 -1.05688 0
M  V30 9790 C 969.088 2.20648 -0.620237 0
M  V30 9791 C 970.101 1.59652 0.318604 0
M  V30 9792 O 971.29 1.78157 0.110553 0
M  V30 9793 C 968.39 3.38716 0.111729 0
M  V30 9794 C 967.563 4.29277 -0.839062 0
M  V30 9795 C 966.622 5.25993 -0.147453 0
M  V30 9796 O 965.648 5.63787 -0.783151 0
M  V30 9797 N 966.85 5.69725 1.11327 0
M  V30 9798 H 969.615 2.58731 -1.51256 0
M  V30 9799 H 967.176 1.31858 -0.939412 0
M  V30 9800 H 969.168 4.00455 0.584657 0
M  V30 9801 H 967.738 2.99189 0.905784 0
M  V30 9802 H 966.958 3.64894 -1.4915 0
M  V30 9803 H 968.246 4.86669 -1.48428 0
M  V30 9804 H 967.644 5.41103 1.64999 0
M  V30 9805 H 966.201 6.33584 1.53018 0
M  V30 9806 N 969.634 0.838594 1.33437 0
M  V30 9807 C 971.045 0.490934 1.8013 0
M  V30 9808 C 971.396 -0.990024 1.6939 0
M  V30 9809 O 970.521 -1.77139 1.24302 0
M  V30 9810 C 971.116 0.884347 3.27055 0
M  V30 9811 C 969.675 0.588829 3.71766 0
M  V30 9812 C 968.822 1.09282 2.54858 0
M  V30 9813 H 971.773 1.02732 1.20962 0
M  V30 9814 H 971.794 0.194283 3.80004 0
M  V30 9815 H 971.306 1.96225 3.34839 0
M  V30 9816 H 969.407 -0.479018 3.69508 0
M  V30 9817 H 969.52 1.14387 4.65245 0
M  V30 9818 H 967.884 0.513702 2.49466 0
M  V30 9819 H 968.667 2.1775 2.65405 0
M  V30 9820 N 971.112 -1.45937 0.595003 0
M  V30 9821 C 972.342 -2.06399 0.0911607 0
M  V30 9822 C 972.75 -1.44236 -1.22444 0
M  V30 9823 O 972.093 -0.546265 -1.7539 0
M  V30 9824 C 972.155 -3.59242 -0.136079 0
M  V30 9825 C 971.819 -4.43668 1.09579 0
M  V30 9826 C 972.816 -4.79437 2.01088 0
M  V30 9827 C 970.501 -4.84616 1.32109 0
M  V30 9828 C 972.495 -5.54995 3.13464 0
M  V30 9829 C 970.182 -5.5993 2.44788 0
M  V30 9830 C 971.18 -5.95035 3.35294 0
M  V30 9831 O 970.868 -6.68825 4.46014 0
M  V30 9832 H 970.6 -0.673316 0.0601779 0
M  V30 9833 H 973.154 -1.88365 0.819005 0
M  V30 9834 H 971.384 -3.75629 -0.918676 0
M  V30 9835 H 973.073 -4.0159 -0.589954 0
M  V30 9836 H 973.839 -4.48371 1.84902 0
M  V30 9837 H 969.718 -4.56735 0.625662 0
M  V30 9838 H 973.262 -5.82314 3.84131 0
M  V30 9839 H 969.159 -5.90411 2.60931 0
M  V30 9840 H 969.927 -6.87262 4.44537 0
M  V30 9841 N 972.59 -0.333456 -1.54032 0
M  V30 9842 C 973.553 0.515392 -2.2333 0
M  V30 9843 C 974.553 1.03566 -1.23007 0
M  V30 9844 O 975.743 0.926514 -1.47517 0
M  V30 9845 C 972.875 1.7169 -2.94508 0
M  V30 9846 H 974.068 -0.0905407 -2.99763 0
M  V30 9847 H 971.621 -0.0846651 -1.56071 0
M  V30 9848 H 972.356 2.3618 -2.22237 0
M  V30 9849 H 972.141 1.35115 -3.68085 0
M  V30 9850 H 973.631 2.31922 -3.47278 0
M  V30 9851 N 974.068 1.57479 -0.061844 0
M  V30 9852 C 975.296 1.97429 0.618837 0
M  V30 9853 C 975.711 0.939826 1.63746 0
M  V30 9854 O 975.068 -0.0747173 1.82347 0
M  V30 9855 C 975.119 3.3746 1.29628 0
M  V30 9856 O 974.84 4.36941 0.318431 0
M  V30 9857 C 976.341 3.92228 2.06572 0
M  V30 9858 H 973.561 0.649513 0.168444 0
M  V30 9859 H 976.105 2.04078 -0.131303 0
M  V30 9860 H 974.26 3.31928 1.99757 0
M  V30 9861 H 974.674 5.18313 0.803239 0
M  V30 9862 H 976.148 4.92458 2.49377 0
M  V30 9863 H 976.625 3.28231 2.91824 0
M  V30 9864 H 977.231 4.01131 1.4133 0
M  V30 9865 N 975.546 -0.211634 1.56173 0
M  V30 9866 C 976.494 -1.28188 1.94089 0
M  V30 9867 C 977.488 -1.47999 0.824167 0
M  V30 9868 O 978.694 -1.49056 1.00907 0
M  V30 9869 H 975.069 -0.42999 0.616938 0
M  V30 9870 H 977.04 -0.934962 2.83374 0
M  V30 9871 C 975.789 -2.62294 2.28248 0
M  V30 9872 H 975.112 -2.4786 3.13696 0
M  V30 9873 H 976.552 -3.35967 2.58655 0
M  V30 9874 C 975.011 -3.18049 1.11113 0
M  V30 9875 O 975.541 -3.99923 0.377458 0
M  V30 9876 N 973.747 -2.76561 0.892321 0
M  V30 9877 H 973.294 -2.10088 1.49067 0
M  V30 9878 H 973.252 -3.14206 0.110344 0
M  V30 9879 N 977.024 -1.50153 -0.478725 0
M  V30 9880 C 978.435 -1.53706 -1.05978 0
M  V30 9881 C 978.786 -0.336112 -1.933 0
M  V30 9882 O 977.911 0.551803 -2.09246 0
M  V30 9883 C 978.506 -2.78541 -1.92874 0
M  V30 9884 C 977.065 -2.848 -2.46102 0
M  V30 9885 C 976.212 -2.47902 -1.24257 0
M  V30 9886 H 979.163 -1.56528 -0.261664 0
M  V30 9887 H 979.184 -2.59964 -2.77847 0
M  V30 9888 H 978.696 -3.6593 -1.29293 0
M  V30 9889 H 976.797 -2.01744 -3.13257 0
M  V30 9890 H 976.91 -3.87511 -2.81731 0
M  V30 9891 H 975.274 -2.0017 -1.57493 0
M  V30 9892 H 976.057 -3.3759 -0.62351 0
M  V30 9893 N 978.502 0.731368 -1.39602 0
M  V30 9894 C 979.742 1.5036 -1.3846 0
M  V30 9895 C 980.106 1.91991 0.018784 0
M  V30 9896 O 981.307 2.68351 0.155236 0
M  V30 9897 C 979.578 2.70755 -2.33295 0
M  V30 9898 S 981.137 3.6036 -2.50372 0
M  V30 9899 H 977.955 0.514271 -0.490964 0
M  V30 9900 H 980.557 0.856654 -1.75732 0
M  V30 9901 H 979.261 2.38316 -3.34116 0
M  V30 9902 H 978.792 3.40376 -1.97251 0
M  V30 9903 H 980.807 4.64529 -1.74435 0
M  V30 9904 N 979.98 1.24838 0.961938 0
M  V30 9905 C 980.927 1.04582 2.05745 0
M  V30 9906 C 981.897 -0.0427281 1.66045 0
M  V30 9907 O 983.082 0.113026 1.90465 0
M  V30 9908 C 980.222 0.66284 3.38675 0
M  V30 9909 C 979.335 1.82548 3.91536 0
M  V30 9910 C 978.47 1.38753 5.12758 0
M  V30 9911 C 977.509 2.51976 5.5783 0
M  V30 9912 N 976.646 2.09009 6.70268 0
M  V30 9913 H 981.486 1.98343 2.22405 0
M  V30 9914 H 979.023 0.987822 1.08998 0
M  V30 9915 H 980.981 0.421788 4.15062 0
M  V30 9916 H 979.611 -0.237776 3.21923 0
M  V30 9917 H 978.663 2.18004 3.11735 0
M  V30 9918 H 979.975 2.67601 4.20941 0
M  V30 9919 H 979.129 1.1057 5.96539 0
M  V30 9920 H 977.868 0.507618 4.85051 0
M  V30 9921 H 976.873 2.80912 4.72619 0
M  V30 9922 H 978.098 3.40534 5.87549 0
M  V30 9923 H 976.044 1.23423 6.44285 0
M  V30 9924 H 975.961 2.87613 6.99153 0
M  V30 9925 H 977.229 1.83981 7.57477 0
M  V30 9926 N 981.458 -1.16348 1.06306 0
M  V30 9927 C 982.735 -1.829 0.69331 0
M  V30 9928 C 983.115 -1.94298 -0.82531 0
M  V30 9929 O 982.463 -1.48619 -1.73565 0
M  V30 9930 C 982.673 -3.1989 1.3954 0
M  V30 9931 C 984.021 -3.95662 1.54068 0
M  V30 9932 O 985.045 -3.29408 1.35532 0
M  V30 9933 O 983.904 -5.14422 1.84479 0
M  V30 9934 H 980.998 -0.789738 0.245445 0
M  V30 9935 H 983.544 -1.23549 1.16334 0
M  V30 9936 H 982.316 -3.06629 2.43093 0
M  V30 9937 H 981.939 -3.86918 0.915453 0
M  V30 9938 N 982.937 -0.845659 -1.3299 0
M  V30 9939 C 983.885 -0.272412 -2.30999 0
M  V30 9940 C 984.879 0.599311 -1.58444 0
M  V30 9941 O 986.085 0.488117 -1.73255 0
M  V30 9942 H 982.46 -0.0693751 -0.748793 0
M  V30 9943 H 984.431 -1.11343 -2.76849 0
M  V30 9944 C 983.18 0.532019 -3.43606 0
M  V30 9945 H 982.503 -0.129455 -3.9959 0
M  V30 9946 H 983.943 0.898853 -4.14363 0
M  V30 9947 C 982.402 1.71364 -2.90062 0
M  V30 9948 O 982.932 2.81252 -2.8681 0
M  V30 9949 N 981.138 1.53775 -2.4658 0
M  V30 9950 H 980.685 0.643836 -2.49424 0
M  V30 9951 H 980.643 2.32982 -2.11108 0
M  V30 9952 N 984.415 1.45619 -0.602734 0
M  V30 9953 C 985.363 2.32228 0.131484 0
M  V30 9954 C 986.357 1.45681 0.864484 0
M  V30 9955 O 987.563 1.62193 0.7806 0
M  V30 9956 H 983.938 0.7495 0.0612638 0
M  V30 9957 H 985.909 2.91941 -0.617496 0
M  V30 9958 C 984.658 3.29213 1.11866 0
M  V30 9959 H 983.981 3.95801 0.564061 0
M  V30 9960 H 985.421 3.92554 1.60242 0
M  V30 9961 C 983.88 2.56028 2.18978 0
M  V30 9962 O 984.41 2.33806 3.26646 0
M  V30 9963 N 982.616 2.16245 1.94129 0
M  V30 9964 H 982.163 2.34518 1.06579 0
M  V30 9965 H 982.121 1.67601 2.66003 0
M  V30 9966 N 985.893 0.34162 1.53853 0
M  V30 9967 C 987.141 -0.254979 2.00485 0
M  V30 9968 C 987.462 -1.51222 1.23114 0
M  V30 9969 O 986.732 -1.92966 0.337787 0
M  V30 9970 H 985.312 -0.0972084 0.740648 0
M  V30 9971 H 987.974 0.462332 1.89337 0
M  V30 9972 H 987.07 -0.498778 3.08089 0
M  V30 9973 N 987.371 -1.57444 0.0701946 0
M  V30 9974 C 988.619 -1.93047 -0.598106 0
M  V30 9975 C 988.94 -0.950841 -1.70247 0
M  V30 9976 O 988.21 0.00127177 -1.959 0
M  V30 9977 H 986.79 -0.712648 -0.223924 0
M  V30 9978 H 989.452 -1.94481 0.127674 0
M  V30 9979 H 988.548 -2.94807 -1.02445 0
M  V30 9980 N 988.849 0.203349 -1.56283 0
M  V30 9981 C 990.089 0.931871 -1.81922 0
M  V30 9982 C 990.453 1.8079 -0.646459 0
M  V30 9983 O 991.654 2.57157 -0.782556 0
M  V30 9984 C 989.925 1.73347 -3.12547 0
M  V30 9985 S 991.484 2.51514 -3.59564 0
M  V30 9986 H 988.302 0.312706 -0.638542 0
M  V30 9987 H 990.904 0.195931 -1.94516 0
M  V30 9988 H 989.608 1.08038 -3.95924 0
M  V30 9989 H 989.139 2.51138 -3.02809 0
M  V30 9990 H 991.154 3.7552 -3.24345 0
M  V30 9991 N 990.327 1.50405 0.470755 0
M  V30 9992 C 991.237 1.7208 1.59454 0
M  V30 9993 C 992.253 0.603932 1.63183 0
M  V30 9994 O 993.429 0.882296 1.81046 0
M  V30 9995 C 990.494 1.81057 2.95667 0
M  V30 9996 C 989.555 3.04792 3.02324 0
M  V30 9997 C 988.788 3.13332 4.3204 0
M  V30 9998 O 989.011 2.28655 5.22564 0
M  V30 9999 O 987.945 4.0606 4.44296 0
M  V30 10000 H 991.771 2.67343 1.44089 0
M  V30 10001 H 989.356 1.34505 0.650286 0
M  V30 10002 H 991.238 1.8914 3.76569 0
M  V30 10003 H 989.913 0.889782 3.11231 0
M  V30 10004 H 988.82 3.0221 2.205 0
M  V30 10005 H 990.153 3.96451 2.91698 0
M  V30 10006 N 991.805 -0.723954 1.39988 0
M  V30 10007 C 992.737 -1.84859 1.35498 0
M  V30 10008 C 993.75 -1.60681 0.261812 0
M  V30 10009 O 994.939 -1.7071 0.521566 0
M  V30 10010 C 992.039 -3.21103 1.08381 0
M  V30 10011 C 991.212 -3.72546 2.2919 0
M  V30 10012 C 990.271 -4.8738 1.9836 0
M  V30 10013 O 989.297 -5.00467 2.71149 0
M  V30 10014 N 990.499 -5.72566 0.956461 0
M  V30 10015 H 993.264 -1.89212 2.3242 0
M  V30 10016 H 990.825 -0.905152 1.34233 0
M  V30 10017 H 992.817 -3.9551 0.857564 0
M  V30 10018 H 991.387 -3.1195 0.201549 0
M  V30 10019 H 990.607 -2.89365 2.67697 0
M  V30 10020 H 991.895 -4.03652 3.09746 0
M  V30 10021 H 991.293 -5.64595 0.353444 0
M  V30 10022 H 989.85 -6.46993 0.790118 0
M  V30 10023 N 993.283 -1.25346 -0.955304 0
M  V30 10024 C 994.529 -1.10218 -1.70235 0
M  V30 10025 C 994.862 0.356124 -1.90907 0
M  V30 10026 O 994.137 1.26253 -1.47954 0
M  V30 10027 C 994.42 -1.85627 -3.08569 0
M  V30 10028 C 994.273 -3.39281 -2.95311 0
M  V30 10029 C 995.592 -1.63886 -4.08448 0
M  V30 10030 H 992.711 -0.401781 -0.617852 0
M  V30 10031 H 995.353 -1.5417 -1.11048 0
M  V30 10032 H 993.503 -1.48269 -3.59094 0
M  V30 10033 H 995.175 -3.8631 -2.52116 0
M  V30 10034 H 993.418 -3.67027 -2.31244 0
M  V30 10035 H 994.089 -3.87258 -3.93364 0
M  V30 10036 H 996.565 -1.96406 -3.6683 0
M  V30 10037 H 995.441 -2.19087 -5.03281 0
M  V30 10038 H 995.702 -0.580021 -4.38279 0
M  V30 10039 N 994.761 1.15782 -1.06922 0
M  V30 10040 C 996.001 1.88135 -0.799043 0
M  V30 10041 C 996.365 1.80203 0.662632 0
M  V30 10042 O 997.566 2.47543 1.04767 0
M  V30 10043 C 995.837 3.3339 -1.28786 0
M  V30 10044 S 997.396 4.23525 -1.1477 0
M  V30 10045 H 994.214 0.649313 -0.289679 0
M  V30 10046 H 996.816 1.3972 -1.36743 0
M  V30 10047 H 995.52 3.36705 -2.34645 0
M  V30 10048 H 995.051 3.86857 -0.714489 0
M  V30 10049 H 997.066 4.96131 -0.0825264 0
M  V30 10050 N 996.239 0.8527 1.3254 0
M  V30 10051 C 997.485 0.455798 1.97612 0
M  V30 10052 C 997.818 -0.985616 1.6733 0
M  V30 10053 O 997.093 -1.69129 0.960493 0
M  V30 10054 C 997.376 0.69312 3.53366 0
M  V30 10055 C 997.229 2.18281 3.93285 0
M  V30 10056 C 998.548 0.148236 4.3985 0
M  V30 10057 H 995.667 0.167078 0.717812 0
M  V30 10058 H 998.309 1.07076 1.56954 0
M  V30 10059 H 996.459 0.169677 3.88129 0
M  V30 10060 H 998.131 2.77218 3.68711 0
M  V30 10061 H 996.374 2.66206 3.42515 0
M  V30 10062 H 997.045 2.29957 5.01821 0
M  V30 10063 H 999.521 0.595834 4.11812 0
M  V30 10064 H 998.397 0.343873 5.47822 0
M  V30 10065 H 998.658 -0.948872 4.31797 0
M  V30 10066 N 997.718 -1.45297 0.610449 0
M  V30 10067 C 998.648 -2.33311 -0.0939698 0
M  V30 10068 C 999.629 -1.46999 -0.85588 0
M  V30 10069 O 1000.81 -1.75764 -0.825865 0
M  V30 10070 C 997.944 -3.29751 -1.09003 0
M  V30 10071 C 996.898 -4.2572 -0.441146 0
M  V30 10072 C 996.224 -5.11873 -1.54566 0
M  V30 10073 C 997.524 -5.1837 0.639489 0
M  V30 10074 H 999.218 -2.92459 0.640941 0
M  V30 10075 H 996.764 -1.40631 0.309675 0
M  V30 10076 H 998.717 -3.90195 -1.59141 0
M  V30 10077 H 997.441 -2.68768 -1.85557 0
M  V30 10078 H 996.1 -3.66579 0.0393908 0
M  V30 10079 H 995.748 -4.47256 -2.30155 0
M  V30 10080 H 995.448 -5.76886 -1.11698 0
M  V30 10081 H 996.972 -5.75185 -2.04925 0
M  V30 10082 H 998.386 -5.7287 0.22207 0
M  V30 10083 H 996.783 -5.91876 0.990089 0
M  V30 10084 H 997.853 -4.60627 1.51495 0
M  V30 10085 N 999.196 -0.349774 -1.5367 0
M  V30 10086 C 1000.42 0.248692 -2.05904 0
M  V30 10087 C 1000.85 1.42942 -1.22267 0
M  V30 10088 O 1000.2 1.79732 -0.237899 0
M  V30 10089 C 1000.25 0.635639 -3.54953 0
M  V30 10090 O 999.356 1.7349 -3.74132 0
M  V30 10091 H 998.697 0.0399477 -0.662797 0
M  V30 10092 H 1001.23 -0.505795 -1.9825 0
M  V30 10093 H 1001.24 0.911064 -3.97698 0
M  V30 10094 H 999.912 -0.227805 -4.15276 0
M  V30 10095 H 998.489 1.45626 -3.43289 0
M  V30 10096 N 1000.67 1.57404 -0.0785433 0
M  V30 10097 C 1001.62 2.09632 0.896565 0
M  V30 10098 C 1002.61 1.00754 1.25449 0
M  V30 10099 O 1003.8 1.27053 1.23234 0
M  V30 10100 C 1000.93 2.66694 2.16169 0
M  V30 10101 C 1000.01 3.82588 1.82994 0
M  V30 10102 N 1000.41 4.91286 1.203 0
M  V30 10103 C 998.704 3.92011 2.12704 0
M  V30 10104 C 999.405 5.72077 1.05367 0
M  V30 10105 N 998.381 5.20567 1.56559 0
M  V30 10106 H 1002.18 2.9106 0.407621 0
M  V30 10107 H 999.697 1.61917 0.125155 0
M  V30 10108 H 1001.69 3.0243 2.86952 0
M  V30 10109 H 1000.35 1.86716 2.65645 0
M  V30 10110 H 1001.36 5.10509 0.871817 0
M  V30 10111 H 998.042 3.23018 2.6451 0
M  V30 10112 H 999.432 6.69523 0.564685 0
M  V30 10113 N 1002.15 -0.195058 1.56388 0
M  V30 10114 C 1003.57 -0.545894 1.49974 0
M  V30 10115 C 1003.77 -1.85851 0.778568 0
M  V30 10116 O 1002.82 -2.50346 0.329105 0
M  V30 10117 C 1004.14 -0.600599 2.94641 0
M  V30 10118 C 1005.68 -0.689429 3.05313 0
M  V30 10119 C 1006.16 -0.775243 4.51391 0
M  V30 10120 N 1007.65 -0.838769 4.55542 0
M  V30 10121 C 1008.39 -0.925337 5.65884 0
M  V30 10122 N 1007.88 -0.974204 6.85916 0
M  V30 10123 N 1009.67 -0.962528 5.53798 0
M  V30 10124 H 1001.83 0.66595 2.0169 0
M  V30 10125 H 1004.09 0.237215 0.917842 0
M  V30 10126 H 1003.79 0.29478 3.50462 0
M  V30 10127 H 1003.67 -1.45528 3.47996 0
M  V30 10128 H 1006.06 -1.57524 2.4954 0
M  V30 10129 H 1006.14 0.191451 2.55083 0
M  V30 10130 H 1005.78 0.106215 5.07789 0
M  V30 10131 H 1005.71 -1.67193 4.99354 0
M  V30 10132 H 1008.2 -0.810249 3.69112 0
M  V30 10133 H 1008.51 -1.04077 7.6576 0
M  V30 10134 H 1006.86 -0.942881 6.88574 0
M  V30 10135 H 1010.05 -0.921188 4.58946 0
M  V30 10136 H 1010.22 -1.02653 6.39817 0
M  V30 10137 N 1003.63 -1.50653 -0.462772 0
M  V30 10138 C 1004.86 -1.65826 -1.23731 0
M  V30 10139 C 1005.27 -0.345002 -1.85621 0
M  V30 10140 O 1004.63 0.673935 -1.69601 0
M  V30 10141 C 1004.68 -2.7555 -2.33997 0
M  V30 10142 O 1004.4 -4.01785 -1.74643 0
M  V30 10143 C 1005.9 -3.0177 -3.2473 0
M  V30 10144 H 1003.12 -0.557177 -0.373892 0
M  V30 10145 H 1005.67 -1.96925 -0.551434 0
M  V30 10146 H 1003.82 -2.47122 -2.98345 0
M  V30 10147 H 1004.24 -4.62529 -2.4732 0
M  V30 10148 H 1005.71 -3.82188 -3.98292 0
M  V30 10149 H 1006.19 -2.13167 -3.84001 0
M  V30 10150 H 1006.79 -3.31761 -2.66111 0
M  V30 10151 N 1005.11 0.71652 -1.4037 0
M  V30 10152 C 1006.39 1.46947 -1.29097 0
M  V30 10153 C 1006.77 2.10903 0.0911182 0
M  V30 10154 O 1006.11 2.00068 1.10385 0
M  V30 10155 C 1006.32 2.50594 -2.42907 0
M  V30 10156 C 1007.67 3.16451 -2.83097 0
M  V30 10157 O 1008.7 2.60913 -2.42493 0
M  V30 10158 O 1007.55 4.16991 -3.53244 0
M  V30 10159 H 1004.65 0.653413 -0.506932 0
M  V30 10160 H 1007.19 0.748774 -1.52287 0
M  V30 10161 H 1005.97 2.01843 -3.35224 0
M  V30 10162 H 1005.59 3.302 -2.21481 0
M  V30 10163 N 1006.59 1.25851 0.948643 0
M  V30 10164 C 1007.53 1.06559 2.06756 0
M  V30 10165 C 1008.53 -0.00528632 1.69399 0
M  V30 10166 O 1009.73 0.150806 1.79367 0
M  V30 10167 H 1006.11 0.327689 0.676848 0
M  V30 10168 H 1008.08 2.01401 2.20182 0
M  V30 10169 C 1006.83 0.707392 3.40428 0
M  V30 10170 H 1006.15 1.52324 3.69645 0
M  V30 10171 H 1007.59 0.612142 4.19558 0
M  V30 10172 C 1006.05 -0.58697 3.31747 0
M  V30 10173 O 1006.58 -1.62741 3.67258 0
M  V30 10174 N 1004.79 -0.574828 2.84858 0
M  V30 10175 H 1004.33 0.272236 2.56157 0
M  V30 10176 H 1004.29 -1.441 2.79432 0
M  V30 10177 N 1008.06 -1.15214 1.07534 0
M  V30 10178 C 1009.34 -1.82155 0.71267 0
M  V30 10179 C 1009.72 -1.95163 -0.804655 0
M  V30 10180 O 1009.07 -1.50451 -1.71979 0
M  V30 10181 C 1009.28 -3.18392 1.42925 0
M  V30 10182 C 1010.63 -3.94005 1.58256 0
M  V30 10183 O 1011.65 -3.27952 1.39018 0
M  V30 10184 O 1010.51 -5.12436 1.89925 0
M  V30 10185 H 1007.6 -0.78709 0.253808 0
M  V30 10186 H 1010.15 -1.22309 1.17638 0
M  V30 10187 H 1008.92 -3.04034 2.46331 0
M  V30 10188 H 1008.55 -3.85925 0.956439 0
M  V30 10189 N 1009.54 -0.859717 -1.32086 0
M  V30 10190 C 1010.79 -0.464662 -1.96686 0
M  V30 10191 C 1011.11 0.98412 -1.68345 0
M  V30 10192 O 1010.38 1.68847 -0.993361 0
M  V30 10193 H 1008.96 -0.168838 -0.727669 0
M  V30 10194 H 1011.62 -1.09726 -1.61079 0
M  V30 10195 H 1010.72 -0.613904 -3.06003 0
M  V30 10196 N 1011.02 1.44971 -0.618145 0
M  V30 10197 C 1011.95 2.33357 0.0815955 0
M  V30 10198 C 1012.93 1.47451 0.848072 0
M  V30 10199 O 1014.12 1.762 0.816532 0
M  V30 10200 C 1011.25 3.30324 1.07253 0
M  V30 10201 C 1010.2 4.25948 0.418563 0
M  V30 10202 C 1009.53 5.12685 1.51849 0
M  V30 10203 C 1010.83 5.18024 -0.66697 0
M  V30 10204 H 1012.52 2.92115 -0.656442 0
M  V30 10205 H 1010.07 1.40465 -0.317129 0
M  V30 10206 H 1012.02 3.91033 1.57069 0
M  V30 10207 H 1010.74 2.69748 1.8413 0
M  V30 10208 H 1009.4 3.66553 -0.0588308 0
M  V30 10209 H 1009.05 4.4847 2.2778 0
M  V30 10210 H 1008.75 5.7747 1.08637 0
M  V30 10211 H 1010.27 5.76264 2.01871 0
M  V30 10212 H 1011.69 5.72744 -0.252448 0
M  V30 10213 H 1010.09 5.91343 -1.02146 0
M  V30 10214 H 1011.16 4.59817 -1.53936 0
M  V30 10215 N 1012.5 0.357919 1.53482 0
M  V30 10216 C 1013.75 -0.2337 2.00744 0
M  V30 10217 C 1014.07 -1.49908 1.2471 0
M  V30 10218 O 1013.34 -1.92597 0.358235 0
M  V30 10219 H 1011.92 -0.0893474 0.741637 0
M  V30 10220 H 1014.58 0.482388 1.88836 0
M  V30 10221 H 1013.68 -0.466073 3.086 0
M  V30 10222 N 1013.98 -1.5736 0.0868897 0
M  V30 10223 C 1015.22 -1.94054 -0.578741 0
M  V30 10224 C 1015.55 -0.968047 -1.68698 0
M  V30 10225 O 1014.81 0.0137824 -1.95695 0
M  V30 10226 C 1015.11 -3.37316 -1.18123 0
M  V30 10227 C 1014.77 -4.50467 -0.197607 0
M  V30 10228 C 1013.43 -4.81145 0.072952 0
M  V30 10229 C 1015.79 -5.19036 0.474473 0
M  V30 10230 C 1013.11 -5.77723 1.02242 0
M  V30 10231 C 1015.47 -6.16632 1.41236 0
M  V30 10232 C 1014.13 -6.45719 1.69124 0
M  V30 10233 H 1013.4 -0.710093 -0.211776 0
M  V30 10234 H 1016.05 -1.90822 0.160978 0
M  V30 10235 H 1014.35 -3.37085 -1.99701 0
M  V30 10236 H 1016.05 -3.63003 -1.7038 0
M  V30 10237 H 1012.64 -4.2655 -0.418669 0
M  V30 10238 H 1016.82 -4.95518 0.278581 0
M  V30 10239 H 1012.08 -5.98578 1.24557 0
M  V30 10240 H 1016.25 -6.68862 1.939 0
M  V30 10241 H 1013.88 -7.20365 2.42855 0
M  V30 10242 N 1015.45 0.186762 -1.56489 0
M  V30 10243 C 1016.87 0.537933 -1.50261 0
M  V30 10244 C 1017.07 1.85435 -0.788414 0
M  V30 10245 O 1016.13 2.50168 -0.342377 0
M  V30 10246 C 1017.44 0.584965 -2.94955 0
M  V30 10247 C 1018.99 0.673228 -3.05674 0
M  V30 10248 C 1019.46 0.751294 -4.51796 0
M  V30 10249 N 1020.95 0.814599 -4.55981 0
M  V30 10250 C 1021.69 0.895313 -5.66367 0
M  V30 10251 N 1021.18 0.937814 -6.86423 0
M  V30 10252 N 1022.98 0.933145 -5.543 0
M  V30 10253 H 1015.13 -0.676636 -2.01334 0
M  V30 10254 H 1017.39 -0.242079 -0.916571 0
M  V30 10255 H 1017.1 -0.313361 -3.50301 0
M  V30 10256 H 1016.97 1.4368 -3.48763 0
M  V30 10257 H 1019.36 1.56198 -2.50372 0
M  V30 10258 H 1019.44 -0.204976 -2.54977 0
M  V30 10259 H 1019.08 -0.133143 -5.07725 0
M  V30 10260 H 1019.01 1.64542 -5.00233 0
M  V30 10261 H 1021.5 0.790662 -3.69536 0
M  V30 10262 H 1021.82 1.00015 -7.66301 0
M  V30 10263 H 1020.16 0.906351 -6.89065 0
M  V30 10264 H 1023.35 0.896836 -4.59428 0
M  V30 10265 H 1023.53 0.992588 -6.40353 0
M  V30 10266 N 1016.93 1.50896 0.454776 0
M  V30 10267 C 1018.17 1.64347 1.21529 0
M  V30 10268 C 1018.54 0.343869 1.88896 0
M  V30 10269 O 1019.74 0.353973 2.66459 0
M  V30 10270 C 1018.01 2.80199 2.21864 0
M  V30 10271 S 1019.57 3.13879 3.06636 0
M  V30 10272 H 1016.39 0.579193 0.412379 0
M  V30 10273 H 1018.99 1.88741 0.509629 0
M  V30 10274 H 1017.69 3.73086 1.70982 0
M  V30 10275 H 1017.22 2.57941 2.97036 0
M  V30 10276 H 1019.24 2.58964 4.23264 0
M  V30 10277 N 1018.41 -0.709066 1.40748 0
M  V30 10278 C 1019.36 -1.82312 1.4153 0
M  V30 10279 C 1020.33 -1.63868 0.271392 0
M  V30 10280 O 1021.51 -1.8491 0.470431 0
M  V30 10281 C 1018.65 -3.2008 1.29006 0
M  V30 10282 C 1017.77 -3.50051 2.53156 0
M  V30 10283 C 1016.9 -4.7736 2.33025 0
M  V30 10284 C 1015.94 -5.00255 3.52719 0
M  V30 10285 N 1015.08 -6.18782 3.31743 0
M  V30 10286 H 1019.92 -1.80978 2.36751 0
M  V30 10287 H 1017.45 -0.883975 1.17577 0
M  V30 10288 H 1019.41 -3.99645 1.19749 0
M  V30 10289 H 1018.04 -3.20626 0.374014 0
M  V30 10290 H 1017.09 -2.64993 2.72916 0
M  V30 10291 H 1018.41 -3.62877 3.42231 0
M  V30 10292 H 1017.56 -5.64954 2.21159 0
M  V30 10293 H 1016.3 -4.66756 1.41386 0
M  V30 10294 H 1015.3 -4.11114 3.65055 0
M  V30 10295 H 1016.53 -5.12728 4.45295 0
M  V30 10296 H 1014.47 -6.09416 2.42791 0
M  V30 10297 H 1014.39 -6.32313 4.14386 0
M  V30 10298 H 1015.66 -7.09146 3.23623 0
M  V30 10299 N 1019.89 -1.26353 -0.941956 0
M  V30 10300 C 1021.13 -1.13071 -1.70277 0
M  V30 10301 C 1021.49 0.320699 -1.89303 0
M  V30 10302 O 1022.69 0.575624 -2.62564 0
M  V30 10303 C 1020.97 -1.87777 -3.04096 0
M  V30 10304 S 1022.52 -1.9054 -3.95272 0
M  V30 10305 H 1019.34 -0.403912 -0.585129 0
M  V30 10306 H 1021.94 -1.6006 -1.12254 0
M  V30 10307 H 1020.65 -2.92447 -2.87929 0
M  V30 10308 H 1020.18 -1.41226 -3.67177 0
M  V30 10309 H 1022.19 -0.991548 -4.86192 0
M  V30 10310 N 1021.37 1.14642 -1.08144 0
M  V30 10311 C 1022.6 1.89484 -0.830864 0
M  V30 10312 C 1023.01 1.78443 0.616722 0
M  V30 10313 O 1022.37 1.14191 1.42361 0
M  V30 10314 C 1022.42 3.39554 -1.24039 0
M  V30 10315 O 1022.14 3.50286 -2.63119 0
M  V30 10316 C 1023.64 4.31399 -1.02029 0
M  V30 10317 H 1020.86 0.600283 -0.299835 0
M  V30 10318 H 1023.4 1.45204 -1.44001 0
M  V30 10319 H 1021.56 3.81467 -0.675407 0
M  V30 10320 H 1021.97 4.43481 -2.80045 0
M  V30 10321 H 1023.45 5.35079 -1.35625 0
M  V30 10322 H 1023.92 4.39179 0.0428697 0
M  V30 10323 H 1024.53 3.95238 -1.57057 0
M  V30 10324 N 1022.85 0.866709 1.31628 0
M  V30 10325 C 1024.09 0.476026 1.96825 0
M  V30 10326 C 1024.42 -0.970994 1.68529 0
M  V30 10327 O 1023.68 -1.69823 0.97255 0
M  V30 10328 C 1023.97 0.676018 3.50948 0
M  V30 10329 C 1023.64 2.09533 3.99258 0
M  V30 10330 C 1022.3 2.48349 4.1216 0
M  V30 10331 C 1024.65 3.02112 4.24709 0
M  V30 10332 C 1021.98 3.78991 4.47864 0
M  V30 10333 C 1024.33 4.32266 4.61875 0
M  V30 10334 C 1023 4.71 4.72985 0
M  V30 10335 H 1022.27 0.17419 0.720235 0
M  V30 10336 H 1024.92 1.09907 1.5682 0
M  V30 10337 H 1023.22 -0.0301867 3.91788 0
M  V30 10338 H 1024.92 0.353604 3.99438 0
M  V30 10339 H 1021.51 1.78396 3.89709 0
M  V30 10340 H 1025.69 2.73351 4.14238 0
M  V30 10341 H 1020.95 4.08769 4.54663 0
M  V30 10342 H 1025.12 5.04055 4.80522 0
M  V30 10343 H 1022.75 5.72273 5.00407 0
M  V30 10344 N 1024.32 -1.44642 0.625825 0
M  V30 10345 C 1025.57 -2.01695 0.127948 0
M  V30 10346 C 1025.89 -1.49439 -1.25271 0
M  V30 10347 O 1025.16 -0.695873 -1.83124 0
M  V30 10348 H 1023.74 -0.745685 0.0443096 0
M  V30 10349 H 1026.4 -1.7721 0.811332 0
M  V30 10350 H 1025.5 -3.11966 0.0915933 0
M  V30 10351 N 1025.8 -0.366053 -1.5329 0
M  V30 10352 C 1027.05 0.223493 -2.01263 0
M  V30 10353 C 1027.38 1.48736 -1.25331 0
M  V30 10354 O 1026.63 1.92805 -0.335341 0
M  V30 10355 C 1026.93 0.560906 -3.52971 0
M  V30 10356 C 1026.6 -0.60869 -4.46773 0
M  V30 10357 C 1025.26 -0.929609 -4.72135 0
M  V30 10358 C 1027.61 -1.39225 -5.02261 0
M  V30 10359 C 1024.94 -2.03606 -5.50238 0
M  V30 10360 C 1027.29 -2.48912 -5.81572 0
M  V30 10361 C 1025.95 -2.81538 -6.05221 0
M  V30 10362 H 1025.22 0.0817818 -0.736473 0
M  V30 10363 H 1027.87 -0.498613 -1.84895 0
M  V30 10364 H 1026.18 1.36403 -3.67289 0
M  V30 10365 H 1027.87 1.02931 -3.87564 0
M  V30 10366 H 1024.46 -0.348529 -4.27181 0
M  V30 10367 H 1028.65 -1.15757 -4.82612 0
M  V30 10368 H 1023.9 -2.29281 -5.6678 0
M  V30 10369 H 1028.08 -3.10044 -6.23575 0
M  V30 10370 H 1025.7 -3.67396 -6.65525 0
M  V30 10371 N 1027.28 1.57312 -0.0952337 0
M  V30 10372 C 1028.21 2.11059 0.893678 0
M  V30 10373 C 1029.22 1.04787 1.24594 0
M  V30 10374 O 1030.41 1.32233 1.19903 0
M  V30 10375 C 1027.51 2.57552 2.20272 0
M  V30 10376 C 1026.69 3.87661 2.02578 0
M  V30 10377 C 1025.75 4.2 3.16996 0
M  V30 10378 O 1024.77 4.89219 2.90953 0
M  V30 10379 N 1025.97 3.75414 4.42769 0
M  V30 10380 H 1028.74 2.96532 0.434632 0
M  V30 10381 H 1026.3 1.6165 0.0898661 0
M  V30 10382 H 1028.29 2.76232 2.95766 0
M  V30 10383 H 1026.86 1.7709 2.576 0
M  V30 10384 H 1026.08 3.78128 1.11413 0
M  V30 10385 H 1027.37 4.7278 1.88032 0
M  V30 10386 H 1026.77 3.1954 4.66809 0
M  V30 10387 H 1025.32 3.99249 5.15212 0
M  V30 10388 N 1028.76 -0.17846 1.56586 0
M  V30 10389 C 1029.69 -1.22342 1.98884 0
M  V30 10390 C 1030.67 -1.46564 0.86331 0
M  V30 10391 O 1031.85 -1.58019 1.12887 0
M  V30 10392 C 1028.98 -2.56396 2.34261 0
M  V30 10393 C 1027.94 -2.46756 3.49708 0
M  V30 10394 C 1027.26 -3.85235 3.70807 0
M  V30 10395 C 1028.56 -1.97838 4.83381 0
M  V30 10396 H 1030.26 -0.871848 2.86425 0
M  V30 10397 H 1027.8 -0.417948 1.37801 0
M  V30 10398 H 1029.76 -3.29695 2.62448 0
M  V30 10399 H 1028.48 -2.93327 1.43621 0
M  V30 10400 H 1027.14 -1.75912 3.21637 0
M  V30 10401 H 1026.79 -4.19547 2.7747 0
M  V30 10402 H 1026.49 -3.79655 4.48481 0
M  V30 10403 H 1028.01 -4.60131 4.01387 0
M  V30 10404 H 1029.43 -2.60906 5.10491 0
M  V30 10405 H 1027.82 -2.03223 5.64642 0
M  V30 10406 H 1028.89 -0.932339 4.75852 0
M  V30 10407 N 1030.24 -1.51135 -0.446768 0
M  V30 10408 C 1031.51 -1.5387 -1.20762 0
M  V30 10409 C 1031.89 -0.297446 -2.08994 0
M  V30 10410 O 1031.24 0.717975 -2.16927 0
M  V30 10411 C 1031.45 -2.84767 -2.01764 0
M  V30 10412 C 1032.8 -3.3636 -2.59128 0
M  V30 10413 O 1033.82 -2.86254 -2.11984 0
M  V30 10414 O 1032.68 -4.23765 -3.45088 0
M  V30 10415 H 1029.78 -0.618228 -0.549293 0
M  V30 10416 H 1032.32 -1.63442 -0.456605 0
M  V30 10417 H 1031.09 -3.6657 -1.36901 0
M  V30 10418 H 1030.72 -2.78313 -2.8395 0
M  V30 10419 N 1031.71 0.701592 -1.41122 0
M  V30 10420 C 1032.94 1.49049 -1.43499 0
M  V30 10421 C 1033.36 1.88761 -0.0385684 0
M  V30 10422 O 1032.71 1.56384 0.940755 0
M  V30 10423 C 1032.76 2.7569 -2.33832 0
M  V30 10424 O 1032.49 2.37653 -3.68039 0
M  V30 10425 C 1033.99 3.69479 -2.44949 0
M  V30 10426 H 1031.21 0.459519 -0.488961 0
M  V30 10427 H 1033.75 0.864318 -1.85337 0
M  V30 10428 H 1031.91 3.34559 -1.95318 0
M  V30 10429 H 1032.32 3.19241 -4.16156 0
M  V30 10430 H 1033.79 4.55139 -3.12334 0
M  V30 10431 H 1034.27 4.13553 -1.47887 0
M  V30 10432 H 1034.88 3.16517 -2.84072 0
M  V30 10433 N 1033.19 1.2685 0.935242 0
M  V30 10434 C 1034.47 1.03483 1.65984 0
M  V30 10435 C 1034.85 -0.432859 2.06614 0
M  V30 10436 O 1034.2 -1.4145 1.79455 0
M  V30 10437 C 1034.41 1.98924 2.86758 0
M  V30 10438 C 1035.75 2.2787 3.58274 0
M  V30 10439 O 1036.78 1.96838 2.96873 0
M  V30 10440 O 1035.64 2.80734 4.68882 0
M  V30 10441 H 1032.73 0.393932 0.72715 0
M  V30 10442 H 1035.28 1.38085 0.986445 0
M  V30 10443 H 1034.05 2.9794 2.53668 0
M  V30 10444 H 1033.67 1.64839 3.6182 0
M  V30 10445 N 1034.67 -1.14067 1.0875 0
M  V30 10446 C 1035.58 -2.22871 0.732498 0
M  V30 10447 C 1036.6 -1.72008 -0.26253 0
M  V30 10448 O 1037.77 -2.01123 -0.105601 0
M  V30 10449 C 1034.84 -3.46371 0.150913 0
M  V30 10450 C 1033.9 -4.12158 1.201 0
M  V30 10451 C 1033.13 -5.29763 0.647075 0
M  V30 10452 O 1033.35 -5.67911 -0.532307 0
M  V30 10453 O 1032.29 -5.8542 1.3988 0
M  V30 10454 H 1036.11 -2.55596 1.64025 0
M  V30 10455 H 1033.7 -1.22065 0.861417 0
M  V30 10456 H 1035.58 -4.21055 -0.170442 0
M  V30 10457 H 1034.26 -3.15362 -0.729948 0
M  V30 10458 H 1033.16 -3.39332 1.57494 0
M  V30 10459 H 1034.5 -4.47282 2.05426 0
M  V30 10460 N 1036.15 -0.873678 -1.31166 0
M  V30 10461 C 1037.56 -0.566109 -1.49223 0
M  V30 10462 C 1037.76 0.898889 -1.80339 0
M  V30 10463 O 1036.82 1.68084 -1.88425 0
M  V30 10464 C 1038.13 -1.46952 -2.62346 0
M  V30 10465 C 1039.68 -1.47195 -2.76229 0
M  V30 10466 C 1040.16 -2.36102 -3.92454 0
M  V30 10467 N 1041.65 -2.34003 -3.99746 0
M  V30 10468 C 1042.38 -2.99513 -4.88958 0
M  V30 10469 N 1041.88 -3.74206 -5.83045 0
M  V30 10470 N 1043.67 -2.88802 -4.82234 0
M  V30 10471 H 1035.82 -1.82156 -1.09239 0
M  V30 10472 H 1038.09 -0.779086 -0.54012 0
M  V30 10473 H 1037.79 -2.51213 -2.4614 0
M  V30 10474 H 1037.67 -1.17077 -3.5857 0
M  V30 10475 H 1040.05 -0.436902 -2.91848 0
M  V30 10476 H 1040.13 -1.81095 -1.80661 0
M  V30 10477 H 1039.78 -3.39685 -3.77593 0
M  V30 10478 H 1039.71 -1.99524 -4.87337 0
M  V30 10479 H 1042.2 -1.79713 -3.32433 0
M  V30 10480 H 1042.51 -4.21312 -6.47855 0
M  V30 10481 H 1040.86 -3.78314 -5.83012 0
M  V30 10482 H 1044.05 -2.29984 -4.07707 0
M  V30 10483 H 1044.22 -3.40136 -5.51554 0
M  V30 10484 N 1037.63 1.44308 -0.633487 0
M  V30 10485 C 1038.58 2.27814 0.0919619 0
M  V30 10486 C 1039.56 1.38798 0.813882 0
M  V30 10487 O 1040.75 1.62587 0.699601 0
M  V30 10488 C 1037.88 3.26158 1.07125 0
M  V30 10489 C 1036.97 4.22663 0.348831 0
M  V30 10490 N 1037.36 5.01938 -0.623854 0
M  V30 10491 C 1035.66 4.42041 0.592958 0
M  V30 10492 C 1036.36 5.72129 -1.05088 0
M  V30 10493 N 1035.33 5.42205 -0.389183 0
M  V30 10494 H 1039.14 2.86515 -0.654721 0
M  V30 10495 H 1036.65 1.55773 -0.459178 0
M  V30 10496 H 1038.65 3.84742 1.60559 0
M  V30 10497 H 1037.31 2.69019 1.81821 0
M  V30 10498 H 1038.32 5.08119 -1.00176 0
M  V30 10499 H 1034.99 3.95997 1.32261 0
M  V30 10500 H 1036.38 6.45797 -1.85461 0
M  V30 10501 N 1039.1 0.374177 1.53094 0
M  V30 10502 C 1040.34 -0.21278 2.03289 0
M  V30 10503 C 1040.71 -1.45291 1.25517 0
M  V30 10504 O 1041.91 -2.11605 1.65761 0
M  V30 10505 C 1040.18 -0.48913 3.54037 0
M  V30 10506 S 1041.74 -1.04853 4.26088 0
M  V30 10507 H 1038.56 -0.0612752 0.708355 0
M  V30 10508 H 1041.16 0.519031 1.88484 0
M  V30 10509 H 1039.86 0.420786 4.08237 0
M  V30 10510 H 1039.39 -1.24978 3.7302 0
M  V30 10511 H 1041.41 -2.33213 4.3798 0
M  V30 10512 N 1040.58 -1.57259 0.103575 0
M  V30 10513 C 1041.83 -1.93832 -0.55786 0
M  V30 10514 C 1042.14 -0.988087 -1.68808 0
M  V30 10515 O 1043.35 -1.24786 -2.41124 0
M  V30 10516 C 1041.81 -3.44433 -1.04373 0
M  V30 10517 C 1041.41 -4.47963 0.0571971 0
M  V30 10518 C 1043.16 -3.89953 -1.67742 0
M  V30 10519 C 1041.07 -5.89727 -0.444505 0
M  V30 10520 H 1040 -0.723536 -0.212161 0
M  V30 10521 H 1042.65 -1.82606 0.180944 0
M  V30 10522 H 1041.03 -3.50841 -1.83648 0
M  V30 10523 H 1042.2 -4.53209 0.83298 0
M  V30 10524 H 1040.52 -4.12104 0.596588 0
M  V30 10525 H 1043.11 -4.93272 -2.06365 0
M  V30 10526 H 1043.46 -3.2907 -2.54988 0
M  V30 10527 H 1043.99 -3.86281 -0.950342 0
M  V30 10528 H 1040.73 -6.5433 0.391543 0
M  V30 10529 H 1040.25 -5.87935 -1.18711 0
M  V30 10530 H 1041.93 -6.40558 -0.910739 0
M  V30 10531 N 1042.06 0.170153 -1.56679 0
M  V30 10532 C 1043.02 1.19443 -1.95617 0
M  V30 10533 C 1044.02 1.37118 -0.83996 0
M  V30 10534 O 1045.21 1.34504 -1.10699 0
M  V30 10535 C 1042.35 2.55926 -2.25199 0
M  V30 10536 H 1043.54 0.86095 -2.87276 0
M  V30 10537 H 1041.09 0.412646 -1.50755 0
M  V30 10538 H 1041.83 2.94286 -1.36257 0
M  V30 10539 H 1041.61 2.44464 -3.06562 0
M  V30 10540 H 1043.1 3.29742 -2.56242 0
M  V30 10541 N 1043.54 1.5137 0.438746 0
M  V30 10542 C 1044.78 1.64211 1.19006 0
M  V30 10543 C 1045.12 0.356607 1.90898 0
M  V30 10544 O 1044.39 -0.643722 1.83539 0
M  V30 10545 C 1044.68 2.8445 2.20817 0
M  V30 10546 C 1044.53 4.22972 1.53018 0
M  V30 10547 C 1045.85 3.00207 3.21813 0
M  V30 10548 H 1042.97 0.597628 0.431288 0
M  V30 10549 H 1045.61 1.8385 0.479487 0
M  V30 10550 H 1043.76 2.67836 2.81418 0
M  V30 10551 H 1045.43 4.5125 0.957654 0
M  V30 10552 H 1043.67 4.25736 0.832556 0
M  V30 10553 H 1044.34 5.03094 2.27158 0
M  V30 10554 H 1046.82 3.15522 2.71266 0
M  V30 10555 H 1045.7 3.85904 3.90345 0
M  V30 10556 H 1045.96 2.12216 3.87836 0
M  V30 10557 N 1045.02 -0.694098 1.41492 0
M  V30 10558 C 1045.95 -1.81943 1.39389 0
M  V30 10559 C 1046.96 -1.6009 0.295836 0
M  V30 10560 O 1048.15 -1.69565 0.557658 0
M  V30 10561 C 1045.25 -3.18731 1.15167 0
M  V30 10562 C 1044.42 -3.67601 2.37041 0
M  V30 10563 C 1043.48 -4.83063 2.08654 0
M  V30 10564 O 1042.51 -4.94603 2.81704 0
M  V30 10565 N 1043.71 -5.70409 1.0777 0
M  V30 10566 H 1046.48 -1.84239 2.36381 0
M  V30 10567 H 1044.04 -0.876475 1.36123 0
M  V30 10568 H 1046.03 -3.93602 0.941264 0
M  V30 10569 H 1044.6 -3.11452 0.267673 0
M  V30 10570 H 1043.82 -2.83622 2.73774 0
M  V30 10571 H 1045.11 -3.96991 3.18239 0
M  V30 10572 H 1044.5 -5.63718 0.473123 0
M  V30 10573 H 1043.06 -6.45172 0.927177 0
M  V30 10574 N 1046.49 -1.27344 -0.928501 0
M  V30 10575 C 1047.44 -1.09835 -2.05034 0
M  V30 10576 C 1048.44 -0.0216643 -1.69386 0
M  V30 10577 O 1049.64 -0.179323 -1.79105 0
M  V30 10578 H 1046.02 -0.338416 -0.671549 0
M  V30 10579 H 1047.99 -2.04879 -2.1695 0
M  V30 10580 C 1046.74 -0.761462 -3.3926 0
M  V30 10581 H 1046.06 -1.58186 -3.67175 0
M  V30 10582 H 1047.5 -0.678812 -4.18531 0
M  V30 10583 C 1045.96 0.534118 -3.32639 0
M  V30 10584 O 1046.49 1.56877 -3.69801 0
M  V30 10585 N 1044.7 0.529437 -2.85736 0
M  V30 10586 H 1044.24 -0.312954 -2.55692 0
M  V30 10587 H 1044.2 1.39637 -2.81689 0
M  V30 10588 N 1047.97 1.13488 -1.09353 0
M  V30 10589 C 1049.22 1.84748 -0.829126 0
M  V30 10590 C 1049.55 1.83485 0.645247 0
M  V30 10591 O 1048.8 1.26767 1.49093 0
M  V30 10592 C 1049.1 3.32584 -1.30854 0
M  V30 10593 C 1048.77 3.54028 -2.7924 0
M  V30 10594 C 1047.43 3.59588 -3.19765 0
M  V30 10595 C 1049.78 3.62058 -3.74918 0
M  V30 10596 C 1047.11 3.70712 -4.54741 0
M  V30 10597 C 1049.46 3.7471 -5.09682 0
M  V30 10598 C 1048.13 3.78523 -5.49797 0
M  V30 10599 H 1047.4 0.67604 -0.303399 0
M  V30 10600 H 1050.04 1.33989 -1.36818 0
M  V30 10601 H 1048.35 3.85689 -0.689275 0
M  V30 10602 H 1050.04 3.86166 -1.08059 0
M  V30 10603 H 1046.63 3.50354 -2.4688 0
M  V30 10604 H 1050.82 3.57043 -3.44723 0
M  V30 10605 H 1046.07 3.71931 -4.8526 0
M  V30 10606 H 1050.25 3.79866 -5.83674 0
M  V30 10607 H 1047.88 3.86895 -6.54382 0
M  V30 10608 N 1049.45 0.880621 1.30701 0
M  V30 10609 C 1050.38 0.360251 2.30704 0
M  V30 10610 C 1051.36 -0.554572 1.60806 0
M  V30 10611 O 1052.55 -0.469345 1.88443 0
M  V30 10612 C 1049.68 -0.429888 3.44629 0
M  V30 10613 C 1048.63 0.392786 4.26194 0
M  V30 10614 C 1047.96 -0.52369 5.32129 0
M  V30 10615 C 1049.26 1.63258 4.96129 0
M  V30 10616 H 1050.95 1.19591 2.74478 0
M  V30 10617 H 1048.5 0.576508 1.31956 0
M  V30 10618 H 1050.45 -0.804532 4.13649 0
M  V30 10619 H 1049.17 -1.29916 2.99649 0
M  V30 10620 H 1047.83 0.749514 3.58856 0
M  V30 10621 H 1047.48 -1.39054 4.83397 0
M  V30 10622 H 1047.18 0.0229272 5.87596 0
M  V30 10623 H 1048.71 -0.894946 6.04006 0
M  V30 10624 H 1050.12 1.32877 5.57689 0
M  V30 10625 H 1048.52 2.11906 5.61441 0
M  V30 10626 H 1049.59 2.37944 4.22505 0
M  V30 10627 N 1050.93 -1.4397 0.641131 0
M  V30 10628 C 1052.18 -2.01163 0.147026 0
M  V30 10629 C 1052.49 -1.51099 -1.24211 0
M  V30 10630 O 1053.7 -2.00487 -1.83078 0
M  V30 10631 C 1052.15 -3.59275 0.212068 0
M  V30 10632 C 1051.76 -4.18334 1.60314 0
M  V30 10633 C 1053.51 -4.23903 -0.225057 0
M  V30 10634 C 1051.41 -5.68701 1.62276 0
M  V30 10635 H 1050.34 -0.75226 0.051201 0
M  V30 10636 H 1052.99 -1.65075 0.801396 0
M  V30 10637 H 1051.38 -3.92708 -0.509589 0
M  V30 10638 H 1052.55 -3.96422 2.34918 0
M  V30 10639 H 1050.86 -3.66031 1.9852 0
M  V30 10640 H 1053.46 -5.34205 -0.230074 0
M  V30 10641 H 1053.8 -3.96956 -1.25426 0
M  V30 10642 H 1054.34 -3.95309 0.44444 0
M  V30 10643 H 1051.08 -6.00397 2.63066 0
M  V30 10644 H 1050.6 -5.92705 0.919797 0
M  V30 10645 H 1052.28 -6.32521 1.36112 0
M  V30 10646 N 1052.41 -0.382291 -1.52893 0
M  V30 10647 C 1053.65 0.202133 -2.01489 0
M  V30 10648 C 1053.98 1.47399 -1.26901 0
M  V30 10649 O 1053.24 1.92439 -0.355771 0
M  V30 10650 C 1053.54 0.523437 -3.53546 0
M  V30 10651 C 1053.2 -0.656042 -4.46102 0
M  V30 10652 C 1051.86 -0.979633 -4.71123 0
M  V30 10653 C 1054.22 -1.44545 -5.00756 0
M  V30 10654 C 1051.54 -2.0943 -5.48047 0
M  V30 10655 C 1053.9 -2.55066 -5.78899 0
M  V30 10656 C 1052.56 -2.87942 -6.02201 0
M  V30 10657 H 1051.83 0.0739659 -0.737299 0
M  V30 10658 H 1054.48 -0.518196 -1.84356 0
M  V30 10659 H 1052.78 1.325 -3.68715 0
M  V30 10660 H 1054.48 0.988148 -3.88634 0
M  V30 10661 H 1051.07 -0.393818 -4.26787 0
M  V30 10662 H 1055.25 -1.20869 -4.81357 0
M  V30 10663 H 1050.51 -2.3528 -5.64317 0
M  V30 10664 H 1054.68 -3.1664 -6.20252 0
M  V30 10665 H 1052.31 -3.74435 -6.61591 0
M  V30 10666 N 1053.89 1.57202 -0.111913 0
M  V30 10667 C 1055.11 1.99723 0.559054 0
M  V30 10668 C 1055.54 0.990968 1.59879 0
M  V30 10669 O 1054.89 -0.038311 1.8126 0
M  V30 10670 C 1054.94 3.41151 1.16826 0
M  V30 10671 O 1054.05 3.43383 2.2839 0
M  V30 10672 H 1053.39 0.649004 0.140319 0
M  V30 10673 H 1055.92 2.03637 -0.198295 0
M  V30 10674 H 1055.93 3.79208 1.50551 0
M  V30 10675 H 1054.6 4.13907 0.406637 0
M  V30 10676 H 1053.18 3.17138 1.96158 0
M  V30 10677 N 1055.36 -0.161842 1.56767 0
M  V30 10678 C 1056.59 -0.896274 1.87034 0
M  V30 10679 C 1057.01 -1.74617 0.699314 0
M  V30 10680 O 1056.37 -1.77861 -0.351435 0
M  V30 10681 C 1056.42 -1.74105 3.15784 0
M  V30 10682 O 1055.52 -2.84372 2.98674 0
M  V30 10683 H 1054.86 -0.250523 0.614926 0
M  V30 10684 H 1057.39 -0.157127 2.03996 0
M  V30 10685 H 1057.4 -2.13907 3.4743 0
M  V30 10686 H 1056.08 -1.11684 4.00624 0
M  V30 10687 H 1054.66 -2.48084 2.78404 0
M  V30 10688 N 1056.84 -1.516 -0.430713 0
M  V30 10689 C 1057.77 -1.69594 -1.54177 0
M  V30 10690 C 1058.79 -0.576518 -1.5225 0
M  V30 10691 O 1059.98 -0.85104 -1.56906 0
M  V30 10692 C 1057.08 -1.70148 -2.93092 0
M  V30 10693 C 1056.25 -2.98782 -3.1945 0
M  V30 10694 C 1055.31 -2.91435 -4.38123 0
M  V30 10695 O 1054.33 -3.65372 -4.36454 0
M  V30 10696 N 1055.54 -2.0774 -5.42056 0
M  V30 10697 H 1058.3 -2.65442 -1.39143 0
M  V30 10698 H 1055.86 -1.49569 -0.61974 0
M  V30 10699 H 1057.85 -1.62793 -3.70514 0
M  V30 10700 H 1056.42 -0.818667 -3.0169 0
M  V30 10701 H 1055.64 -3.19954 -2.30267 0
M  V30 10702 H 1056.93 -3.83919 -3.33892 0
M  V30 10703 H 1056.33 -1.47059 -5.46251 0
M  V30 10704 H 1054.89 -2.06259 -6.18305 0
M  V30 10705 N 1058.32 0.686584 -1.41858 0
M  V30 10706 C 1059.57 1.44879 -1.41908 0
M  V30 10707 C 1059.9 1.94175 -0.0311408 0
M  V30 10708 O 1059.17 1.70131 0.942646 0
M  V30 10709 C 1059.46 2.65428 -2.43352 0
M  V30 10710 C 1059.31 2.2184 -3.91289 0
M  V30 10711 C 1060.63 3.67635 -2.41934 0
M  V30 10712 H 1057.75 0.525477 -0.516762 0
M  V30 10713 H 1060.39 0.781263 -1.73194 0
M  V30 10714 H 1058.54 3.2238 -2.16803 0
M  V30 10715 H 1060.21 1.70146 -4.28775 0
M  V30 10716 H 1058.45 1.53531 -4.05722 0
M  V30 10717 H 1059.13 3.08376 -4.5783 0
M  V30 10718 H 1061.6 3.20376 -2.65516 0
M  V30 10719 H 1060.48 4.49579 -3.14913 0
M  V30 10720 H 1060.74 4.17953 -1.44111 0
M  V30 10721 N 1059.8 1.27835 0.921735 0
M  V30 10722 C 1060.76 1.11108 2.00469 0
M  V30 10723 C 1061.76 0.053203 1.60712 0
M  V30 10724 O 1062.95 0.298308 1.71627 0
M  V30 10725 C 1060.08 0.694269 3.33755 0
M  V30 10726 H 1061.28 2.07279 2.16738 0
M  V30 10727 H 1058.83 1.10708 1.10333 0
M  V30 10728 H 1059.56 -0.268561 3.23186 0
M  V30 10729 H 1059.35 1.45836 3.6397 0
M  V30 10730 H 1060.84 0.59965 4.13272 0
M  V30 10731 N 1061.28 -1.12907 1.09954 0
M  V30 10732 C 1062.52 -1.83661 0.833761 0
M  V30 10733 C 1062.84 -1.84736 -0.642798 0
M  V30 10734 O 1064.04 -2.51437 -1.0243 0
M  V30 10735 C 1062.5 -3.29763 1.44168 0
M  V30 10736 C 1062.11 -3.3706 2.95118 0
M  V30 10737 C 1063.85 -4.05522 1.25509 0
M  V30 10738 C 1061.76 -4.77467 3.48969 0
M  V30 10739 H 1060.69 -0.688115 0.308242 0
M  V30 10740 H 1063.34 -1.27166 1.32291 0
M  V30 10741 H 1061.72 -3.86094 0.880215 0
M  V30 10742 H 1062.9 -2.90695 3.57537 0
M  V30 10743 H 1061.21 -2.7477 3.12874 0
M  V30 10744 H 1063.81 -5.09188 1.63191 0
M  V30 10745 H 1064.15 -4.15837 0.196208 0
M  V30 10746 H 1064.68 -3.55536 1.78435 0
M  V30 10747 H 1061.42 -4.72344 4.54501 0
M  V30 10748 H 1060.94 -5.24305 2.91315 0
M  V30 10749 H 1062.62 -5.46397 3.46495 0
M  V30 10750 N 1062.75 -0.88754 -1.30232 0
M  V30 10751 C 1064.17 -0.581904 -1.48614 0
M  V30 10752 C 1064.37 0.879711 -1.81282 0
M  V30 10753 O 1063.43 1.66076 -1.90198 0
M  V30 10754 C 1064.74 -1.49726 -2.60773 0
M  V30 10755 C 1066.29 -1.50117 -2.74653 0
M  V30 10756 C 1066.76 -2.40251 -3.89927 0
M  V30 10757 N 1068.25 -2.38229 -3.97242 0
M  V30 10758 C 1068.99 -3.04682 -4.85754 0
M  V30 10759 N 1068.48 -3.80369 -5.79043 0
M  V30 10760 N 1070.28 -2.93901 -4.79144 0
M  V30 10761 H 1062.43 -1.83304 -1.073 0
M  V30 10762 H 1064.69 -0.78477 -0.531826 0
M  V30 10763 H 1064.4 -2.5381 -2.43462 0
M  V30 10764 H 1064.27 -1.20874 -3.57308 0
M  V30 10765 H 1066.66 -0.467832 -2.91368 0
M  V30 10766 H 1066.74 -1.83001 -1.7873 0
M  V30 10767 H 1066.38 -3.43671 -3.73969 0
M  V30 10768 H 1066.31 -2.04682 -4.85194 0
M  V30 10769 H 1068.8 -1.83229 -3.30508 0
M  V30 10770 H 1069.12 -4.28159 -6.4335 0
M  V30 10771 H 1067.46 -3.84477 -5.78967 0
M  V30 10772 H 1070.65 -2.34296 -4.05245 0
M  V30 10773 H 1070.83 -3.45967 -5.47915 0
M  V30 10774 N 1064.23 1.43628 -0.648757 0
M  V30 10775 C 1065.48 2.01465 -0.16002 0
M  V30 10776 C 1065.8 1.51413 1.22878 0
M  V30 10777 O 1065.07 0.724919 1.81994 0
M  V30 10778 H 1063.65 0.744885 -0.0561672 0
M  V30 10779 H 1066.31 1.75897 -0.839422 0
M  V30 10780 H 1065.41 3.1178 -0.141213 0
M  V30 10781 N 1065.71 0.390394 1.52688 0
M  V30 10782 C 1066.96 -0.192697 2.00777 0
M  V30 10783 C 1067.27 -1.4781 1.28108 0
M  V30 10784 O 1068.48 -2.1413 1.66914 0
M  V30 10785 C 1066.93 -0.393955 3.57737 0
M  V30 10786 C 1066.54 0.878259 4.39307 0
M  V30 10787 C 1068.29 -0.933352 4.14112 0
M  V30 10788 C 1066.19 0.645218 5.8787 0
M  V30 10789 H 1065.12 -0.0757862 0.750182 0
M  V30 10790 H 1067.77 0.512961 1.76184 0
M  V30 10791 H 1066.16 -1.16149 3.78583 0
M  V30 10792 H 1067.33 1.65049 4.30227 0
M  V30 10793 H 1065.65 1.34269 3.94158 0
M  V30 10794 H 1068.24 -1.12343 5.22765 0
M  V30 10795 H 1068.59 -1.90272 3.70273 0
M  V30 10796 H 1069.12 -0.225361 3.97161 0
M  V30 10797 H 1065.86 1.58562 6.36033 0
M  V30 10798 H 1065.38 -0.0880609 5.99735 0
M  V30 10799 H 1067.06 0.280178 6.46393 0
M  V30 10800 N 1067.19 -1.57141 0.120249 0
M  V30 10801 C 1068.6 -1.82256 -0.404931 0
M  V30 10802 C 1068.95 -1.03748 -1.66526 0
M  V30 10803 O 1068.08 -0.274456 -2.14653 0
M  V30 10804 C 1068.67 -3.30588 -0.741431 0
M  V30 10805 C 1067.23 -3.56379 -1.21124 0
M  V30 10806 C 1066.38 -2.76421 -0.220569 0
M  V30 10807 H 1069.33 -1.54897 0.345361 0
M  V30 10808 H 1069.35 -3.45284 -1.59872 0
M  V30 10809 H 1068.86 -3.87701 0.176036 0
M  V30 10810 H 1066.96 -3.04625 -2.14556 0
M  V30 10811 H 1067.07 -4.64952 -1.1557 0
M  V30 10812 H 1065.44 -2.44666 -0.707857 0
M  V30 10813 H 1066.22 -3.36294 0.690018 0
M  V30 10814 N 1068.67 0.153526 -1.5685 0
M  V30 10815 C 1069.91 0.867232 -1.8299 0
M  V30 10816 C 1070.24 1.81462 -0.700125 0
M  V30 10817 O 1069.5 1.93207 0.311348 0
M  V30 10818 C 1069.8 1.68066 -3.15418 0
M  V30 10819 C 1069.46 0.880635 -4.42217 0
M  V30 10820 C 1068.12 0.659899 -4.76654 0
M  V30 10821 C 1070.48 0.320698 -5.20212 0
M  V30 10822 C 1067.8 -0.131588 -5.86552 0
M  V30 10823 C 1070.16 -0.457794 -6.30941 0
M  V30 10824 C 1068.82 -0.689168 -6.63933 0
M  V30 10825 H 1068.09 0.317343 -0.669608 0
M  V30 10826 H 1070.74 0.131208 -1.9105 0
M  V30 10827 H 1069.04 2.4866 -3.02779 0
M  V30 10828 H 1070.74 2.23623 -3.32857 0
M  V30 10829 H 1067.33 1.06274 -4.15215 0
M  V30 10830 H 1071.51 0.47853 -4.93988 0
M  V30 10831 H 1066.77 -0.320413 -6.1056 0
M  V30 10832 H 1070.94 -0.898839 -6.90575 0
M  V30 10833 H 1068.57 -1.30433 -7.48927 0
M  V30 10834 N 1070.14 1.51827 0.422667 0
M  V30 10835 C 1071.37 1.69049 1.1929 0
M  V30 10836 C 1071.79 0.394095 1.84641 0
M  V30 10837 O 1071.14 -0.628731 1.71328 0
M  V30 10838 C 1071.2 2.81657 2.26609 0
M  V30 10839 O 1070.92 4.06275 1.63929 0
M  V30 10840 C 1072.42 3.10274 3.16615 0
M  V30 10841 H 1069.64 0.566894 0.358988 0
M  V30 10842 H 1072.18 1.98318 0.499029 0
M  V30 10843 H 1070.34 2.54945 2.91688 0
M  V30 10844 H 1070.75 4.68924 2.3497 0
M  V30 10845 H 1072.22 3.92613 3.88019 0
M  V30 10846 H 1072.7 2.23273 3.78214 0
M  V30 10847 H 1073.31 3.387 2.57221 0
M  V30 10848 N 1071.62 -0.679052 1.4222 0
M  V30 10849 C 1072.55 -1.80481 1.48152 0
M  V30 10850 C 1073.53 -1.66698 0.338502 0
M  V30 10851 O 1074.72 -1.86183 0.552228 0
M  V30 10852 C 1071.85 -3.18746 1.37908 0
M  V30 10853 C 1070.8 -3.47258 2.50192 0
M  V30 10854 C 1070.13 -4.85052 2.25008 0
M  V30 10855 C 1071.43 -3.44576 3.92511 0
M  V30 10856 H 1073.12 -1.75774 2.42371 0
M  V30 10857 H 1070.67 -0.844241 1.16656 0
M  V30 10858 H 1072.62 -3.97229 1.40666 0
M  V30 10859 H 1071.35 -3.24119 0.401806 0
M  V30 10860 H 1070 -2.71133 2.46744 0
M  V30 10861 H 1069.65 -4.8707 1.25584 0
M  V30 10862 H 1069.35 -5.05092 3.00259 0
M  V30 10863 H 1070.88 -5.65825 2.29508 0
M  V30 10864 H 1072.29 -4.13036 3.97585 0
M  V30 10865 H 1070.69 -3.76151 4.67579 0
M  V30 10866 H 1071.76 -2.4323 4.19484 0
M  V30 10867 N 1073.1 -1.28322 -0.914942 0
M  V30 10868 C 1074.33 -1.1837 -1.70304 0
M  V30 10869 C 1074.75 0.254291 -1.86373 0
M  V30 10870 O 1074.11 1.18398 -1.37301 0
M  V30 10871 C 1074.16 -1.88603 -3.07346 0
M  V30 10872 O 1073.26 -1.19268 -3.94777 0
M  V30 10873 H 1072.6 -0.410978 -0.52153 0
M  V30 10874 H 1075.13 -1.69622 -1.14409 0
M  V30 10875 H 1075.14 -1.96463 -3.57584 0
M  V30 10876 H 1073.82 -2.93201 -2.94967 0
M  V30 10877 H 1072.39 -1.19563 -3.53212 0
M  V30 10878 N 1074.58 1.12322 -1.10551 0
M  V30 10879 C 1075.81 1.87679 -0.87087 0
M  V30 10880 C 1076.22 1.79711 0.578733 0
M  V30 10881 O 1075.58 1.17185 1.39907 0
M  V30 10882 C 1075.63 3.36846 -1.31213 0
M  V30 10883 O 1075.35 3.44626 -2.70489 0
M  V30 10884 C 1076.85 4.29138 -1.11156 0
M  V30 10885 H 1074.07 0.593788 -0.3125 0
M  V30 10886 H 1076.62 1.42116 -1.47048 0
M  V30 10887 H 1074.77 3.79948 -0.756169 0
M  V30 10888 H 1075.18 4.37441 -2.89389 0
M  V30 10889 H 1076.66 5.32082 -1.46944 0
M  V30 10890 H 1077.14 4.39171 -0.0502963 0
M  V30 10891 H 1077.74 3.91818 -1.65405 0
M  V30 10892 N 1076.06 0.894434 1.2976 0
M  V30 10893 C 1076.99 0.325525 2.26877 0
M  V30 10894 C 1078 -0.525218 1.54095 0
M  V30 10895 O 1079.19 -0.343231 1.75169 0
M  V30 10896 C 1076.29 -0.554952 3.34325 0
M  V30 10897 C 1075.46 0.268868 4.36573 0
M  V30 10898 C 1074.52 -0.543601 5.23385 0
M  V30 10899 O 1073.55 0.0370454 5.69188 0
M  V30 10900 N 1074.75 -1.85079 5.50205 0
M  V30 10901 H 1077.52 1.16021 2.76332 0
M  V30 10902 H 1075.08 0.758382 1.43039 0
M  V30 10903 H 1077.07 -1.10476 3.89329 0
M  V30 10904 H 1075.64 -1.29031 2.84727 0
M  V30 10905 H 1074.86 1.0001 3.81302 0
M  V30 10906 H 1076.15 0.833248 5.01931 0
M  V30 10907 H 1075.54 -2.34533 5.14792 0
M  V30 10908 H 1074.1 -2.34784 6.08046 0
M  V30 10909 N 1077.53 -1.43282 0.656365 0
M  V30 10910 C 1078.44 -2.34576 -0.033864 0
M  V30 10911 C 1079.46 -1.5406 -0.808793 0
M  V30 10912 O 1080.64 -1.867 -0.755322 0
M  V30 10913 C 1077.7 -3.32378 -0.986197 0
M  V30 10914 C 1076.76 -4.28797 -0.207851 0
M  V30 10915 C 1076 -5.21927 -1.11482 0
M  V30 10916 O 1076.22 -5.19554 -2.35414 0
M  V30 10917 O 1075.15 -5.99045 -0.585536 0
M  V30 10918 H 1078.98 -2.95099 0.717668 0
M  V30 10919 H 1076.56 -1.43475 0.416556 0
M  V30 10920 H 1078.45 -3.9251 -1.53341 0
M  V30 10921 H 1077.12 -2.74354 -1.7179 0
M  V30 10922 H 1076.03 -3.72134 0.383022 0
M  V30 10923 H 1077.36 -4.89811 0.48435 0
M  V30 10924 N 1079.01 -0.398486 -1.52479 0
M  V30 10925 C 1080.29 0.238776 -1.94137 0
M  V30 10926 C 1080.67 1.63558 -1.33462 0
M  V30 10927 O 1080.02 2.22821 -0.506272 0
M  V30 10928 C 1080.23 0.255863 -3.48061 0
M  V30 10929 C 1081.58 0.480376 -4.21874 0
M  V30 10930 O 1082.6 0.335679 -3.54615 0
M  V30 10931 O 1081.46 0.764654 -5.41124 0
M  V30 10932 H 1078.55 0.150806 -0.813134 0
M  V30 10933 H 1081.1 -0.453659 -1.63524 0
M  V30 10934 H 1079.87 -0.722171 -3.84578 0
M  V30 10935 H 1079.49 0.99284 -3.85004 0
M  V30 10936 N 1080.49 1.57075 -0.12858 0
M  V30 10937 C 1081.74 1.9581 0.527868 0
M  V30 10938 C 1082.07 1.01253 1.65715 0
M  V30 10939 O 1081.35 0.0514853 1.94432 0
M  V30 10940 C 1081.63 3.44406 1.05151 0
M  V30 10941 C 1081.48 4.49737 -0.0750113 0
M  V30 10942 C 1082.8 3.95069 1.9393 0
M  V30 10943 H 1079.92 0.711978 0.19041 0
M  V30 10944 H 1082.56 1.88879 -0.206081 0
M  V30 10945 H 1080.71 3.50443 1.67697 0
M  V30 10946 H 1082.38 4.55793 -0.710685 0
M  V30 10947 H 1080.63 4.27497 -0.736809 0
M  V30 10948 H 1081.3 5.50996 0.332779 0
M  V30 10949 H 1083.77 3.91395 1.41241 0
M  V30 10950 H 1082.65 4.99542 2.27484 0
M  V30 10951 H 1082.91 3.36329 2.86941 0
M  V30 10952 N 1081.97 -0.145205 1.5693 0
M  V30 10953 C 1082.9 -1.20881 1.93553 0
M  V30 10954 C 1083.88 -1.41467 0.801612 0
M  V30 10955 O 1085.06 -1.5605 1.05739 0
M  V30 10956 C 1082.19 -2.5674 2.20912 0
M  V30 10957 C 1081.24 -2.52738 3.43549 0
M  V30 10958 S 1082.07 -1.99257 4.97048 0
M  V30 10959 C 1083.23 -3.36842 5.27531 0
M  V30 10960 H 1083.46 -0.896362 2.83465 0
M  V30 10961 H 1080.99 -0.350894 1.5036 0
M  V30 10962 H 1082.95 -3.34923 2.37354 0
M  V30 10963 H 1081.61 -2.85174 1.31661 0
M  V30 10964 H 1080.8 -3.52753 3.59974 0
M  V30 10965 H 1080.41 -1.82665 3.26358 0
M  V30 10966 H 1082.7 -4.32958 5.21108 0
M  V30 10967 H 1083.64 -3.25268 6.28973 0
M  V30 10968 H 1084.05 -3.3406 4.55043 0
M  V30 10969 N 1083.45 -1.52049 -0.414609 0
M  V30 10970 C 1084.69 -1.66084 -1.16379 0
M  V30 10971 C 1085.03 -0.386932 -1.90306 0
M  V30 10972 O 1084.3 0.614441 -1.8454 0
M  V30 10973 C 1084.58 -2.87927 -2.16264 0
M  V30 10974 C 1084.44 -4.25353 -1.46269 0
M  V30 10975 C 1085.76 -3.05289 -3.16996 0
M  V30 10976 H 1082.88 -0.604414 -0.421726 0
M  V30 10977 H 1085.52 -1.8459 -0.450177 0
M  V30 10978 H 1083.67 -2.7228 -2.77121 0
M  V30 10979 H 1085.34 -4.52717 -0.885743 0
M  V30 10980 H 1083.58 -4.27006 -0.76472 0
M  V30 10981 H 1084.25 -5.06644 -2.19126 0
M  V30 10982 H 1086.73 -3.19798 -2.66212 0
M  V30 10983 H 1085.61 -3.92065 -3.84156 0
M  V30 10984 H 1085.87 -2.1836 -3.84411 0
M  V30 10985 N 1084.93 0.6715 -1.42579 0
M  V30 10986 C 1086.34 1.2522 -1.38481 0
M  V30 10987 C 1086.69 1.96038 -0.079719 0
M  V30 10988 O 1085.81 2.00203 0.821441 0
M  V30 10989 C 1086.41 2.27736 -2.50842 0
M  V30 10990 C 1084.97 2.81325 -2.50067 0
M  V30 10991 C 1084.11 1.55694 -2.29466 0
M  V30 10992 H 1087.06 0.464673 -1.51745 0
M  V30 10993 H 1087.09 3.09539 -2.21283 0
M  V30 10994 H 1086.6 1.76164 -3.45815 0
M  V30 10995 H 1084.7 3.37008 -1.58922 0
M  V30 10996 H 1084.81 3.30116 -3.47218 0
M  V30 10997 H 1083.18 1.82383 -1.77788 0
M  V30 10998 H 1083.96 1.06084 -3.26498 0
M  V30 10999 N 1086.4 1.28806 0.908124 0
M  V30 11000 C 1087.65 1.1646 1.66027 0
M  V30 11001 C 1087.98 -0.285025 1.92097 0
M  V30 11002 O 1087.26 -1.20675 1.52538 0
M  V30 11003 C 1087.54 1.96951 3.01467 0
M  V30 11004 C 1087.39 3.50007 2.82515 0
M  V30 11005 C 1088.71 1.78932 4.02084 0
M  V30 11006 H 1085.83 0.424435 0.602515 0
M  V30 11007 H 1088.47 1.58185 1.0525 0
M  V30 11008 H 1086.62 1.61495 3.53344 0
M  V30 11009 H 1088.3 3.95401 2.37605 0
M  V30 11010 H 1086.54 3.75356 2.17463 0
M  V30 11011 H 1087.21 4.01591 3.7872 0
M  V30 11012 H 1089.69 2.09885 3.59287 0
M  V30 11013 H 1088.56 2.37615 4.94803 0
M  V30 11014 H 1088.82 0.742286 4.35824 0
M  V30 11015 N 1087.88 -1.11734 1.11145 0
M  V30 11016 C 1089.11 -1.87755 0.881062 0
M  V30 11017 C 1089.53 -1.79461 -0.563496 0
M  V30 11018 O 1088.89 -1.15481 -1.39763 0
M  V30 11019 C 1088.94 -3.34641 1.34342 0
M  V30 11020 O 1088.04 -4.09195 0.513157 0
M  V30 11021 H 1087.38 -0.583111 0.317613 0
M  V30 11022 H 1089.91 -1.41256 1.48013 0
M  V30 11023 H 1089.92 -3.85486 1.33658 0
M  V30 11024 H 1088.6 -3.39994 2.39534 0
M  V30 11025 H 1087.17 -3.68269 0.585833 0
M  V30 11026 N 1089.36 -0.901303 -1.29284 0
M  V30 11027 C 1090.61 -0.527 -1.95108 0
M  V30 11028 C 1090.93 0.930065 -1.71391 0
M  V30 11029 O 1090.2 1.65601 -1.04658 0
M  V30 11030 H 1088.78 -0.191903 -0.721929 0
M  V30 11031 H 1091.44 -1.14795 -1.57506 0
M  V30 11032 H 1090.54 -0.710945 -3.03895 0
M  V30 11033 N 1090.84 1.42931 -0.663954 0
M  V30 11034 C 1091.79 2.32577 0.03287 0
M  V30 11035 C 1092.78 1.49217 0.801918 0
M  V30 11036 O 1093.99 1.65358 0.711106 0
M  V30 11037 H 1090.36 0.751424 0.0294198 0
M  V30 11038 H 1092.33 2.89059 -0.740763 0
M  V30 11039 C 1091.08 3.33661 0.978025 0
M  V30 11040 H 1090.4 3.97837 0.395681 0
M  V30 11041 H 1091.84 3.98997 1.43448 0
M  V30 11042 C 1090.3 2.65085 2.07922 0
M  V30 11043 O 1090.83 2.4745 3.16435 0
M  V30 11044 N 1089.04 2.24285 1.84783 0
M  V30 11045 H 1088.59 2.38827 0.965368 0
M  V30 11046 H 1088.54 1.78732 2.58655 0
M  V30 11047 N 1092.32 0.406567 1.52266 0
M  V30 11048 C 1093.73 -0.063607 1.86592 0
M  V30 11049 C 1094.08 -1.4466 1.32544 0
M  V30 11050 O 1093.2 -2.05971 0.663692 0
M  V30 11051 C 1093.8 -0.122198 3.3858 0
M  V30 11052 C 1092.36 -0.536701 3.72554 0
M  V30 11053 C 1091.5 0.290422 2.75775 0
M  V30 11054 H 1094.45 0.623738 1.45929 0
M  V30 11055 H 1094.48 -0.937964 3.68758 0
M  V30 11056 H 1093.99 0.884495 3.77887 0
M  V30 11057 H 1092.09 -1.55013 3.38824 0
M  V30 11058 H 1092.2 -0.282867 4.78264 0
M  V30 11059 H 1090.57 -0.246864 2.53501 0
M  V30 11060 H 1091.35 1.29541 3.17921 0
M  V30 11061 N 1093.79 -1.57004 0.136909 0
M  V30 11062 C 1095.02 -2.00587 -0.527209 0
M  V30 11063 C 1095.44 -1.01628 -1.58283 0
M  V30 11064 O 1094.8 0.00946934 -1.81298 0
M  V30 11065 C 1094.85 -3.42967 -1.11384 0
M  V30 11066 O 1093.95 -3.46973 -2.22898 0
M  V30 11067 H 1093.3 -0.651155 -0.129976 0
M  V30 11068 H 1095.83 -2.03296 0.230667 0
M  V30 11069 H 1095.84 -3.81555 -1.44499 0
M  V30 11070 H 1094.51 -4.14502 -0.340736 0
M  V30 11071 H 1093.09 -3.20219 -1.91087 0
M  V30 11072 N 1095.27 0.136881 -1.57004 0
M  V30 11073 C 1096.52 0.847775 -1.83899 0
M  V30 11074 C 1096.85 1.80709 -0.719332 0
M  V30 11075 O 1096.1 1.93527 0.290838 0
M  V30 11076 C 1096.4 1.64711 -3.17183 0
M  V30 11077 C 1096.07 0.833683 -4.43126 0
M  V30 11078 C 1094.73 0.609306 -4.77327 0
M  V30 11079 C 1097.08 0.265504 -5.20523 0
M  V30 11080 C 1094.41 -0.193793 -5.8638 0
M  V30 11081 C 1096.76 -0.524688 -6.3042 0
M  V30 11082 C 1095.43 -0.759548 -6.63164 0
M  V30 11083 H 1094.7 0.310223 -0.672936 0
M  V30 11084 H 1097.34 0.110937 -1.91178 0
M  V30 11085 H 1095.65 2.45435 -3.054 0
M  V30 11086 H 1097.34 2.20081 -3.3521 0
M  V30 11087 H 1093.93 1.01864 -4.16319 0
M  V30 11088 H 1098.12 0.426109 -4.94467 0
M  V30 11089 H 1093.37 -0.385153 -6.10186 0
M  V30 11090 H 1097.55 -0.972033 -6.89583 0
M  V30 11091 H 1095.18 -1.38369 -7.47501 0
M  V30 11092 N 1096.75 1.52266 0.40654 0
M  V30 11093 C 1098 1.66452 1.15325 0
M  V30 11094 C 1098.33 0.395728 1.90432 0
M  V30 11095 O 1097.58 -0.621382 1.85573 0
M  V30 11096 C 1097.88 2.8389 2.1712 0
M  V30 11097 C 1097.55 4.22011 1.58801 0
M  V30 11098 C 1096.21 4.59579 1.42621 0
M  V30 11099 C 1098.56 5.08074 1.16236 0
M  V30 11100 C 1095.89 5.80885 0.823967 0
M  V30 11101 C 1098.24 6.29988 0.574284 0
M  V30 11102 C 1096.9 6.66303 0.399638 0
M  V30 11103 H 1096.17 0.609092 0.422005 0
M  V30 11104 H 1098.82 1.86374 0.440131 0
M  V30 11105 H 1097.13 2.58314 2.94586 0
M  V30 11106 H 1098.82 2.92063 2.74774 0
M  V30 11107 H 1095.41 3.92408 1.72378 0
M  V30 11108 H 1099.6 4.79631 1.27544 0
M  V30 11109 H 1094.85 6.07644 0.676694 0
M  V30 11110 H 1099.03 6.96 0.236081 0
M  V30 11111 H 1096.65 7.60169 -0.0691262 0
M  V30 11112 N 1098.23 -0.663929 1.42933 0
M  V30 11113 C 1099.47 -1.42603 1.44195 0
M  V30 11114 C 1099.81 -1.94101 0.0620284 0
M  V30 11115 O 1099.08 -1.71609 -0.91546 0
M  V30 11116 C 1099.37 -2.61522 2.47544 0
M  V30 11117 C 1099.22 -2.15587 3.94769 0
M  V30 11118 C 1100.54 -3.6374 2.47753 0
M  V30 11119 H 1097.66 -0.517189 0.525056 0
M  V30 11120 H 1100.3 -0.75361 1.74415 0
M  V30 11121 H 1098.45 -3.1889 2.21904 0
M  V30 11122 H 1100.12 -1.63303 4.31428 0
M  V30 11123 H 1098.36 -1.47057 4.08114 0
M  V30 11124 H 1099.03 -3.01053 4.62678 0
M  V30 11125 H 1101.51 -3.16111 2.70579 0
M  V30 11126 H 1100.39 -4.44512 3.22025 0
M  V30 11127 H 1100.65 -4.15607 1.50742 0
M  V30 11128 N 1099.71 -1.29285 -0.901281 0
M  V30 11129 C 1100.95 -1.16934 -1.64836 0
M  V30 11130 C 1101.28 0.279826 -1.92982 0
M  V30 11131 O 1100.55 1.19179 -1.55478 0
M  V30 11132 H 1099.13 -0.429768 -0.61099 0
M  V30 11133 H 1101.79 -1.62189 -1.08077 0
M  V30 11134 H 1100.88 -1.71821 -2.60545 0
M  V30 11135 N 1101.18 1.11143 -1.11736 0
M  V30 11136 C 1102.43 1.82311 -0.862875 0
M  V30 11137 C 1102.75 1.85735 0.613326 0
M  V30 11138 O 1103.95 2.53034 0.984168 0
M  V30 11139 C 1102.41 3.27427 -1.49396 0
M  V30 11140 C 1102.02 3.32323 -3.00443 0
M  V30 11141 C 1103.76 4.03474 -1.31944 0
M  V30 11142 C 1101.67 4.71855 -3.56521 0
M  V30 11143 H 1100.6 0.683124 -0.31915 0
M  V30 11144 H 1103.25 1.25045 -1.34298 0
M  V30 11145 H 1101.63 3.84644 -0.941528 0
M  V30 11146 H 1102.8 2.84971 -3.62117 0
M  V30 11147 H 1101.12 2.69758 -3.17206 0
M  V30 11148 H 1103.72 5.06528 -1.71271 0
M  V30 11149 H 1104.06 4.15473 -0.262339 0
M  V30 11150 H 1104.59 3.52652 -1.84069 0
M  V30 11151 H 1101.33 4.65054 -4.61958 0
M  V30 11152 H 1100.85 5.19604 -2.99619 0
M  V30 11153 H 1102.53 5.40816 -3.55144 0
M  V30 11154 N 1102.66 0.908147 1.28804 0
M  V30 11155 C 1103.94 0.457561 1.90173 0
M  V30 11156 C 1104.32 -1.06333 1.82364 0
M  V30 11157 O 1103.67 -1.90892 1.25589 0
M  V30 11158 C 1103.88 0.981624 3.34911 0
M  V30 11159 C 1105.23 1.03037 4.11908 0
M  V30 11160 O 1106.25 0.929878 3.43848 0
M  V30 11161 O 1105.11 1.18257 5.33552 0
M  V30 11162 H 1102.2 0.144081 0.814352 0
M  V30 11163 H 1104.75 0.998565 1.37211 0
M  V30 11164 H 1103.52 2.02561 3.34791 0
M  V30 11165 H 1103.14 0.421122 3.95364 0
M  V30 11166 N 1104.14 -1.42577 0.671525 0
M  V30 11167 C 1105.39 -2.01584 0.192431 0
M  V30 11168 C 1105.72 -1.53076 -1.19992 0
M  V30 11169 O 1104.97 -0.722196 -1.81887 0
M  V30 11170 C 1105.27 -3.56985 0.172097 0
M  V30 11171 C 1104.94 -4.24912 1.50867 0
M  V30 11172 C 1103.6 -4.43182 1.87464 0
M  V30 11173 C 1105.95 -4.6322 2.38908 0
M  V30 11174 C 1103.28 -4.97031 3.11732 0
M  V30 11175 C 1105.63 -5.18447 3.62485 0
M  V30 11176 C 1104.29 -5.34932 3.99255 0
M  V30 11177 H 1103.56 -0.737647 0.0704155 0
M  V30 11178 H 1106.21 -1.70807 0.865862 0
M  V30 11179 H 1104.52 -3.87411 -0.584835 0
M  V30 11180 H 1106.21 -4.00419 -0.215749 0
M  V30 11181 H 1102.8 -4.11048 1.21397 0
M  V30 11182 H 1106.99 -4.4878 2.1192 0
M  V30 11183 H 1102.24 -5.07979 3.40246 0
M  V30 11184 H 1106.42 -5.47075 4.30909 0
M  V30 11185 H 1104.04 -5.76422 4.95623 0
M  V30 11186 N 1105.62 -0.414636 -1.52048 0
M  V30 11187 C 1106.9 0.218172 -1.94379 0
M  V30 11188 C 1107.28 1.62133 -1.35189 0
M  V30 11189 O 1106.62 2.22271 -0.529877 0
M  V30 11190 C 1106.83 0.218932 -3.48313 0
M  V30 11191 C 1108.18 0.435604 -4.2236 0
M  V30 11192 O 1109.21 0.298049 -3.54951 0
M  V30 11193 O 1108.06 0.707217 -5.41905 0
M  V30 11194 H 1105.16 0.142173 -0.814688 0
M  V30 11195 H 1107.7 -0.470977 -1.63033 0
M  V30 11196 H 1106.48 -0.76292 -3.83791 0
M  V30 11197 H 1106.1 0.951949 -3.86036 0
M  V30 11198 N 1107.1 1.56929 -0.145233 0
M  V30 11199 C 1108.06 2.15483 0.781002 0
M  V30 11200 C 1109.06 1.09617 1.17647 0
M  V30 11201 O 1110.25 1.35265 1.09768 0
M  V30 11202 C 1107.38 2.7165 2.05959 0
M  V30 11203 H 1108.57 2.98667 0.271685 0
M  V30 11204 H 1106.13 1.55952 0.1042 0
M  V30 11205 H 1106.86 1.92127 2.61262 0
M  V30 11206 H 1106.65 3.491 1.78526 0
M  V30 11207 H 1108.14 3.16769 2.72116 0
M  V30 11208 N 1108.58 -0.128553 1.57075 0
M  V30 11209 C 1109.51 -1.18362 1.96273 0
M  V30 11210 C 1110.52 -1.3818 0.860818 0
M  V30 11211 O 1111.71 -1.37424 1.13916 0
M  V30 11212 C 1108.81 -2.54533 2.23755 0
M  V30 11213 C 1107.98 -2.55446 3.55058 0
M  V30 11214 C 1107.04 -3.73291 3.70864 0
M  V30 11215 O 1106.07 -3.57315 4.43074 0
M  V30 11216 N 1107.27 -4.91481 3.08912 0
M  V30 11217 H 1110.03 -0.850276 2.87385 0
M  V30 11218 H 1107.6 -0.317931 1.58748 0
M  V30 11219 H 1109.59 -3.31912 2.31553 0
M  V30 11220 H 1108.16 -2.80087 1.38816 0
M  V30 11221 H 1107.38 -1.6385 3.58534 0
M  V30 11222 H 1108.67 -2.53104 4.4138 0
M  V30 11223 H 1108.06 -5.07364 2.50196 0
M  V30 11224 H 1106.62 -5.6657 3.22245 0
M  V30 11225 N 1110.05 -1.5248 -0.398459 0
M  V30 11226 C 1111.33 -1.57634 -1.15805 0
M  V30 11227 C 1111.71 -0.363785 -2.07942 0
M  V30 11228 O 1111.06 0.648598 -2.19101 0
M  V30 11229 C 1111.27 -2.91042 -1.92602 0
M  V30 11230 C 1112.62 -3.44433 -2.48296 0
M  V30 11231 O 1113.64 -2.92853 -2.0277 0
M  V30 11232 O 1112.5 -4.34529 -3.31432 0
M  V30 11233 H 1109.59 -0.63539 -0.529347 0
M  V30 11234 H 1112.14 -1.64812 -0.404376 0
M  V30 11235 H 1110.91 -3.7074 -1.25169 0
M  V30 11236 H 1110.53 -2.87206 -2.74952 0
M  V30 11237 N 1111.53 0.65634 -1.43283 0
M  V30 11238 C 1112.76 1.44906 -1.48382 0
M  V30 11239 C 1113.18 1.87823 -0.101993 0
M  V30 11240 O 1112.54 1.57178 0.903597 0
M  V30 11241 C 1112.59 2.66231 -2.43215 0
M  V30 11242 O 1111.69 3.65176 -1.91625 0
M  V30 11243 H 1111.03 0.434601 -0.502014 0
M  V30 11244 H 1113.56 0.803429 -1.88165 0
M  V30 11245 H 1113.57 3.14083 -2.60414 0
M  V30 11246 H 1112.25 2.34336 -3.43598 0
M  V30 11247 H 1110.82 3.24302 -1.84072 0
M  V30 11248 N 1113.01 1.29761 0.894412 0
M  V30 11249 C 1114.24 1.2094 1.67872 0
M  V30 11250 C 1114.65 -0.229192 1.87404 0
M  V30 11251 O 1114.01 -1.15278 1.41482 0
M  V30 11252 C 1114.06 1.92424 3.06032 0
M  V30 11253 O 1113.78 3.30665 2.87388 0
M  V30 11254 C 1115.28 1.90144 4.0045 0
M  V30 11255 H 1112.5 0.418942 0.524145 0
M  V30 11256 H 1115.05 1.71226 1.11813 0
M  V30 11257 H 1113.2 1.4596 3.58851 0
M  V30 11258 H 1113.62 3.66741 3.74969 0
M  V30 11259 H 1115.09 2.44716 4.94791 0
M  V30 11260 H 1115.57 0.878175 4.30331 0
M  V30 11261 H 1116.17 2.36375 3.53563 0
M  V30 11262 N 1114.49 -1.10549 1.12324 0
M  V30 11263 C 1115.74 -1.81851 0.872531 0
M  V30 11264 C 1116.05 -1.86058 -0.603468 0
M  V30 11265 O 1117.26 -2.53553 -0.970736 0
M  V30 11266 C 1115.71 -3.26631 1.51131 0
M  V30 11267 C 1115.32 -3.30725 3.02201 0
M  V30 11268 C 1117.06 -4.02768 1.34082 0
M  V30 11269 C 1114.97 -4.69957 3.59018 0
M  V30 11270 H 1113.9 -0.681422 0.322769 0
M  V30 11271 H 1116.55 -1.24332 1.34959 0
M  V30 11272 H 1114.93 -3.8414 0.961913 0
M  V30 11273 H 1116.11 -2.83046 3.63623 0
M  V30 11274 H 1114.42 -2.68072 3.18632 0
M  V30 11275 H 1117.02 -5.05612 1.73955 0
M  V30 11276 H 1117.36 -4.15328 0.284369 0
M  V30 11277 H 1117.9 -3.51671 1.85937 0
M  V30 11278 H 1114.63 -4.62597 4.64418 0
M  V30 11279 H 1114.15 -5.18008 3.02371 0
M  V30 11280 H 1115.83 -5.38925 3.58007 0
M  V30 11281 N 1115.97 -0.914965 -1.28321 0
M  V30 11282 C 1117.21 -0.548749 -1.94923 0
M  V30 11283 C 1117.54 0.907776 -1.72016 0
M  V30 11284 O 1116.8 1.66097 -1.03491 0
M  V30 11285 C 1117.09 -0.805805 -3.48198 0
M  V30 11286 C 1116.76 -2.24207 -3.91206 0
M  V30 11287 C 1115.42 -2.63475 -4.02659 0
M  V30 11288 C 1117.77 -3.17667 -4.13204 0
M  V30 11289 C 1115.1 -3.95353 -4.3349 0
M  V30 11290 C 1117.45 -4.4911 -4.45514 0
M  V30 11291 C 1116.12 -4.8823 -4.55179 0
M  V30 11292 H 1115.39 -0.200801 -0.713274 0
M  V30 11293 H 1118.04 -1.15652 -1.52633 0
M  V30 11294 H 1116.34 -0.115244 -3.9163 0
M  V30 11295 H 1118.04 -0.501609 -3.9785 0
M  V30 11296 H 1114.63 -1.92737 -3.82819 0
M  V30 11297 H 1118.81 -2.88537 -4.03807 0
M  V30 11298 H 1114.07 -4.25362 -4.39178 0
M  V30 11299 H 1118.24 -5.21542 -4.61483 0
M  V30 11300 H 1115.87 -5.90451 -4.78823 0
M  V30 11301 N 1117.44 1.42219 -0.679077 0
M  V30 11302 C 1118.69 2.01479 -0.203119 0
M  V30 11303 C 1119.02 1.5371 1.19178 0
M  V30 11304 O 1118.27 0.731832 1.81501 0
M  V30 11305 C 1118.57 3.56889 -0.191027 0
M  V30 11306 C 1118.24 4.24106 -1.53118 0
M  V30 11307 C 1116.9 4.42182 -1.89812 0
M  V30 11308 C 1119.25 4.61946 -2.41361 0
M  V30 11309 C 1116.58 4.95371 -3.14364 0
M  V30 11310 C 1118.93 5.16518 -3.65229 0
M  V30 11311 C 1117.6 5.32807 -4.02086 0
M  V30 11312 H 1116.87 0.737263 -0.0743264 0
M  V30 11313 H 1119.51 1.70346 -0.874908 0
M  V30 11314 H 1117.82 3.87715 0.564282 0
M  V30 11315 H 1119.52 4.00528 0.194511 0
M  V30 11316 H 1116.11 4.10399 -1.23575 0
M  V30 11317 H 1120.29 4.4765 -2.14297 0
M  V30 11318 H 1115.55 5.06167 -3.42935 0
M  V30 11319 H 1119.72 5.44782 -4.33804 0
M  V30 11320 H 1117.35 5.73785 -4.98673 0
M  V30 11321 N 1118.92 0.422693 1.51826 0
M  V30 11322 C 1120.15 -0.15017 2.06856 0
M  V30 11323 C 1120.57 -1.36946 1.28948 0
M  V30 11324 O 1119.93 -1.78393 0.32338 0
M  V30 11325 C 1119.98 -0.465563 3.57582 0
M  V30 11326 O 1119.08 -1.55442 3.81984 0
M  V30 11327 H 1118.42 -0.00827931 0.663948 0
M  V30 11328 H 1120.95 0.599806 1.95611 0
M  V30 11329 H 1120.96 -0.720279 4.01592 0
M  V30 11330 H 1119.64 0.425679 4.13716 0
M  V30 11331 H 1118.21 -1.29081 3.49846 0
M  V30 11332 N 1120.4 -1.5685 0.153553 0
M  V30 11333 C 1121.68 -1.8796 -0.541328 0
M  V30 11334 C 1122.06 -1.06059 -1.82523 0
M  V30 11335 O 1121.4 -0.149295 -2.28012 0
M  V30 11336 C 1121.61 -3.39697 -0.800442 0
M  V30 11337 C 1122.96 -4.09057 -1.13832 0
M  V30 11338 O 1123.99 -3.44913 -0.889578 0
M  V30 11339 O 1122.85 -5.22347 -1.60673 0
M  V30 11340 H 1119.94 -0.779268 -0.276895 0
M  V30 11341 H 1122.49 -1.68626 0.190657 0
M  V30 11342 H 1121.26 -3.91151 0.107935 0
M  V30 11343 H 1120.88 -3.64582 -1.58638 0
M  V30 11344 N 1121.88 0.120221 -1.57141 0
M  V30 11345 C 1122.81 1.17787 -1.95452 0
M  V30 11346 C 1123.79 1.40174 -0.824016 0
M  V30 11347 O 1124.97 1.54348 -1.08208 0
M  V30 11348 C 1122.1 2.53193 -2.24969 0
M  V30 11349 C 1121.15 2.47241 -3.47526 0
M  V30 11350 S 1121.98 1.91325 -5.00155 0
M  V30 11351 C 1123.13 3.28406 -5.32823 0
M  V30 11352 H 1123.37 0.851152 -2.84856 0
M  V30 11353 H 1120.9 0.326929 -1.50899 0
M  V30 11354 H 1122.86 3.31104 -2.42652 0
M  V30 11355 H 1121.52 2.83043 -1.36181 0
M  V30 11356 H 1120.71 3.46981 -3.65541 0
M  V30 11357 H 1120.31 1.7745 -3.29223 0
M  V30 11358 H 1122.61 4.24613 -5.2793 0
M  V30 11359 H 1123.55 3.1522 -6.34068 0
M  V30 11360 H 1123.96 3.26779 -4.603 0
M  V30 11361 N 1123.36 1.52689 0.390367 0
M  V30 11362 C 1124.58 1.71839 1.16129 0
M  V30 11363 C 1125.01 0.435226 1.82996 0
M  V30 11364 O 1124.36 -0.60889 1.70769 0
M  V30 11365 C 1124.41 2.86784 2.18603 0
M  V30 11366 O 1123.52 2.53662 3.25161 0
M  V30 11367 H 1122.86 0.571455 0.338135 0
M  V30 11368 H 1125.39 1.99475 0.45508 0
M  V30 11369 H 1125.4 3.12239 2.62622 0
M  V30 11370 H 1124.07 3.79872 1.69322 0
M  V30 11371 H 1122.65 2.38942 2.86289 0
M  V30 11372 N 1124.83 -0.648732 1.43629 0
M  V30 11373 C 1125.78 -1.76145 1.49136 0
M  V30 11374 C 1126.75 -1.62569 0.340649 0
M  V30 11375 O 1127.94 -1.82748 0.548435 0
M  V30 11376 C 1125.08 -3.14321 1.42466 0
M  V30 11377 C 1124.19 -3.38999 2.67776 0
M  V30 11378 C 1123.32 -4.67047 2.53062 0
M  V30 11379 C 1122.36 -4.84845 3.7362 0
M  V30 11380 N 1121.5 -6.04155 3.57689 0
M  V30 11381 H 1126.34 -1.70774 2.44213 0
M  V30 11382 H 1123.88 -0.833311 1.2122 0
M  V30 11383 H 1125.84 -3.94206 1.36592 0
M  V30 11384 H 1124.47 -3.18751 0.509666 0
M  V30 11385 H 1123.52 -2.53179 2.83909 0
M  V30 11386 H 1124.83 -3.48035 3.57314 0
M  V30 11387 H 1123.98 -5.55066 2.44922 0
M  V30 11388 H 1122.72 -4.60339 1.61056 0
M  V30 11389 H 1121.73 -3.95261 3.82163 0
M  V30 11390 H 1122.95 -4.9338 4.6664 0
M  V30 11391 H 1120.9 -5.9857 2.6842 0
M  V30 11392 H 1120.82 -6.14169 4.40832 0
M  V30 11393 H 1122.08 -6.94782 3.53409 0
M  V30 11394 N 1126.31 -1.30234 -0.887518 0
M  V30 11395 C 1127.26 -1.13013 -1.9802 0
M  V30 11396 C 1128.25 -0.0460253 -1.60834 0
M  V30 11397 O 1129.44 -0.26907 -1.74943 0
M  V30 11398 C 1126.57 -0.821397 -3.33329 0
M  V30 11399 C 1125.65 -1.94564 -3.76837 0
M  V30 11400 N 1126.04 -3.19068 -3.92465 0
M  V30 11401 C 1124.34 -1.84142 -4.06211 0
M  V30 11402 C 1125.04 -3.92495 -4.29328 0
M  V30 11403 N 1124.02 -3.20526 -4.39049 0
M  V30 11404 H 1127.82 -2.07446 -2.0819 0
M  V30 11405 H 1125.34 -1.21536 -1.07716 0
M  V30 11406 H 1127.33 -0.679046 -4.11333 0
M  V30 11407 H 1125.99 0.114891 -3.24497 0
M  V30 11408 H 1127 -3.54386 -3.77665 0
M  V30 11409 H 1123.68 -0.97865 -4.05868 0
M  V30 11410 H 1125.07 -4.99701 -4.49164 0
M  V30 11411 N 1127.79 1.09952 -1.12909 0
M  V30 11412 C 1128.72 2.15689 -0.745217 0
M  V30 11413 C 1129.7 1.60409 0.266007 0
M  V30 11414 O 1130.89 1.8783 0.158783 0
M  V30 11415 C 1128.01 3.38541 -0.103846 0
M  V30 11416 C 1127.06 4.12529 -1.0827 0
M  V30 11417 S 1127.89 4.67442 -2.61262 0
M  V30 11418 C 1129.05 5.936 -1.9847 0
M  V30 11419 H 1129.28 2.47918 -1.64086 0
M  V30 11420 H 1126.81 1.21817 -0.948682 0
M  V30 11421 H 1128.77 4.09677 0.259816 0
M  V30 11422 H 1127.43 3.04541 0.768982 0
M  V30 11423 H 1126.63 5.00632 -0.581653 0
M  V30 11424 H 1126.23 3.47228 -1.38955 0
M  V30 11425 H 1128.52 6.64308 -1.33048 0
M  V30 11426 H 1129.46 6.48374 -2.84634 0
M  V30 11427 H 1129.87 5.45864 -1.43848 0
M  V30 11428 N 1129.27 0.921757 1.27833 0
M  V30 11429 C 1130.52 0.55493 1.93916 0
M  V30 11430 C 1130.83 -0.907191 1.7329 0
M  V30 11431 O 1132.04 -1.38253 2.33663 0
M  V30 11432 C 1130.49 0.941644 3.47363 0
M  V30 11433 C 1130.1 2.42404 3.76755 0
M  V30 11434 C 1131.84 0.645785 4.19559 0
M  V30 11435 C 1129.75 2.75046 5.23549 0
M  V30 11436 H 1128.68 0.203818 0.72593 0
M  V30 11437 H 1131.33 1.12176 1.4522 0
M  V30 11438 H 1129.71 0.303519 3.94835 0
M  V30 11439 H 1130.89 3.10957 3.40062 0
M  V30 11440 H 1129.2 2.69118 3.17749 0
M  V30 11441 H 1131.8 0.866237 5.27637 0
M  V30 11442 H 1132.14 -0.41676 4.14209 0
M  V30 11443 H 1132.68 1.24274 3.7789 0
M  V30 11444 H 1129.42 3.80186 5.33984 0
M  V30 11445 H 1128.94 2.11138 5.6141 0
M  V30 11446 H 1130.61 2.62474 5.91368 0
M  V30 11447 N 1130.75 -1.41857 0.686609 0
M  V30 11448 C 1131.99 -2.01368 0.213801 0
M  V30 11449 C 1132.32 -1.5434 -1.18361 0
M  V30 11450 O 1131.58 -0.741447 -1.81111 0
M  V30 11451 C 1131.88 -3.56783 0.209951 0
M  V30 11452 C 1131.54 -4.23288 1.55365 0
M  V30 11453 C 1130.2 -4.41169 1.92154 0
M  V30 11454 C 1132.56 -4.6066 2.43807 0
M  V30 11455 C 1129.88 -4.93697 3.16986 0
M  V30 11456 C 1132.24 -5.14573 3.67963 0
M  V30 11457 C 1130.9 -5.30667 4.04906 0
M  V30 11458 H 1130.17 -0.736858 0.0782352 0
M  V30 11459 H 1132.82 -1.69879 0.88393 0
M  V30 11460 H 1131.12 -3.88009 -0.543712 0
M  V30 11461 H 1132.82 -4.00625 -0.173267 0
M  V30 11462 H 1129.41 -4.09738 1.2575 0
M  V30 11463 H 1133.59 -4.46507 2.16668 0
M  V30 11464 H 1128.85 -5.04342 3.45615 0
M  V30 11465 H 1133.02 -5.42473 4.36687 0
M  V30 11466 H 1130.65 -5.71133 5.01709 0
M  V30 11467 N 1132.22 -0.430739 -1.51599 0
M  V30 11468 C 1133.17 0.384024 -2.27583 0
M  V30 11469 C 1134.14 1.02254 -1.30895 0
M  V30 11470 O 1135.33 1.0427 -1.59789 0
M  V30 11471 C 1132.47 1.48291 -3.11615 0
M  V30 11472 C 1131.58 0.863187 -4.23288 0
M  V30 11473 C 1130.71 1.93657 -4.94642 0
M  V30 11474 C 1129.75 1.29493 -5.98246 0
M  V30 11475 N 1128.89 2.30939 -6.63032 0
M  V30 11476 H 1133.73 -0.270314 -2.96771 0
M  V30 11477 H 1131.27 -0.145148 -1.46382 0
M  V30 11478 H 1133.23 2.13124 -3.58656 0
M  V30 11479 H 1131.86 2.10697 -2.44554 0
M  V30 11480 H 1130.91 0.103326 -3.8026 0
M  V30 11481 H 1132.22 0.354676 -4.97537 0
M  V30 11482 H 1131.37 2.66167 -5.45197 0
M  V30 11483 H 1130.11 2.4788 -4.20008 0
M  V30 11484 H 1129.12 0.555262 -5.46989 0
M  V30 11485 H 1130.34 0.760122 -6.74833 0
M  V30 11486 H 1128.29 2.84254 -5.91216 0
M  V30 11487 H 1128.21 1.84961 -7.33025 0
M  V30 11488 H 1129.47 3.02953 -7.1822 0
M  V30 11489 N 1133.7 1.56767 -0.161869 0
M  V30 11490 C 1134.63 2.1466 0.803356 0
M  V30 11491 C 1135.65 1.09977 1.20037 0
M  V30 11492 O 1136.84 1.37199 1.14187 0
M  V30 11493 C 1133.94 2.66663 2.09151 0
M  V30 11494 C 1133.11 3.95904 1.85953 0
M  V30 11495 C 1132.17 4.33067 2.98897 0
M  V30 11496 O 1131.19 5.01119 2.69942 0
M  V30 11497 N 1132.4 3.93856 4.26448 0
M  V30 11498 H 1135.16 2.98108 0.308472 0
M  V30 11499 H 1132.72 1.61886 0.0212238 0
M  V30 11500 H 1134.71 2.88528 2.83784 0
M  V30 11501 H 1133.28 1.87856 2.49857 0
M  V30 11502 H 1132.5 3.82513 0.952751 0
M  V30 11503 H 1133.79 4.8033 1.67811 0
M  V30 11504 H 1133.19 3.39051 4.52836 0
M  V30 11505 H 1131.75 4.20741 4.97815 0
M  V30 11506 N 1135.18 -0.111886 1.57202 0
M  V30 11507 C 1136.13 -1.13688 2.00858 0
M  V30 11508 C 1137.1 -1.40752 0.881939 0
M  V30 11509 O 1138.28 -1.52498 1.14669 0
M  V30 11510 C 1135.42 -2.45641 2.42393 0
M  V30 11511 C 1134.54 -2.25452 3.68504 0
M  V30 11512 C 1133.67 -3.50686 3.9899 0
M  V30 11513 C 1132.71 -3.25685 5.18262 0
M  V30 11514 N 1131.85 -4.4314 5.44583 0
M  V30 11515 H 1136.69 -0.757611 2.88209 0
M  V30 11516 H 1134.22 -0.362582 1.42561 0
M  V30 11517 H 1136.18 -3.22627 2.64514 0
M  V30 11518 H 1134.81 -2.81447 1.58074 0
M  V30 11519 H 1133.86 -1.39349 3.53958 0
M  V30 11520 H 1135.18 -2.0296 4.55641 0
M  V30 11521 H 1134.33 -4.36087 4.21797 0
M  V30 11522 H 1133.07 -3.76216 3.10343 0
M  V30 11523 H 1132.07 -2.38675 4.95292 0
M  V30 11524 H 1133.3 -3.01518 6.08493 0
M  V30 11525 H 1131.24 -4.68778 4.58893 0
M  V30 11526 H 1131.16 -4.23778 6.26058 0
M  V30 11527 H 1132.43 -5.29654 5.71915 0
M  V30 11528 N 1136.66 -1.52894 -0.382264 0
M  V30 11529 C 1137.91 -1.67489 -1.12385 0
M  V30 11530 C 1138.22 -0.424565 -1.90937 0
M  V30 11531 O 1139.43 -0.450763 -2.67732 0
M  V30 11532 C 1137.88 -2.96019 -2.04697 0
M  V30 11533 C 1137.49 -4.28255 -1.31535 0
M  V30 11534 C 1139.23 -3.19981 -2.78949 0
M  V30 11535 C 1137.14 -5.47887 -2.22652 0
M  V30 11536 H 1136.07 -0.624002 -0.423246 0
M  V30 11537 H 1138.72 -1.79392 -0.386107 0
M  V30 11538 H 1137.1 -2.77878 -2.82134 0
M  V30 11539 H 1138.28 -4.56971 -0.592771 0
M  V30 11540 H 1136.59 -4.10607 -0.692148 0
M  V30 11541 H 1139.19 -4.06541 -3.47316 0
M  V30 11542 H 1139.53 -2.35335 -3.43399 0
M  V30 11543 H 1140.07 -3.38718 -2.08602 0
M  V30 11544 H 1136.81 -6.3496 -1.62806 0
M  V30 11545 H 1136.33 -5.23473 -2.92807 0
M  V30 11546 H 1138 -5.82026 -2.82586 0
M  V30 11547 N 1138.14 0.641106 -1.43971 0
M  V30 11548 C 1139.41 1.39897 -1.36704 0
M  V30 11549 C 1139.79 2.1109 -0.0208051 0
M  V30 11550 O 1139.14 2.05638 0.99625 0
M  V30 11551 C 1139.35 2.37366 -2.55849 0
M  V30 11552 C 1140.7 3.01 -2.99473 0
M  V30 11553 O 1141.72 2.47692 -2.55982 0
M  V30 11554 O 1140.58 3.9768 -3.74851 0
M  V30 11555 H 1137.68 0.625623 -0.540855 0
M  V30 11556 H 1140.22 0.666997 -1.56042 0
M  V30 11557 H 1139 1.8379 -3.45452 0
M  V30 11558 H 1138.62 3.17995 -2.38673 0
M  V30 11559 N 1139.62 1.30703 0.880598 0
M  V30 11560 C 1140.86 1.19541 1.62955 0
M  V30 11561 C 1141.18 -0.249089 1.93403 0
M  V30 11562 O 1140.45 -1.1669 1.57354 0
M  V30 11563 H 1139.03 0.439434 0.604075 0
M  V30 11564 H 1141.7 1.63888 1.05483 0
M  V30 11565 H 1140.79 1.75945 2.57779 0
M  V30 11566 N 1141.09 -1.09351 1.1349 0
M  V30 11567 C 1142.32 -1.85304 0.920324 0
M  V30 11568 C 1142.74 -1.81182 -0.530883 0
M  V30 11569 O 1142.09 -1.20853 -1.36751 0
M  V30 11570 C 1142.14 -3.33249 1.40098 0
M  V30 11571 O 1141.87 -3.37333 2.79531 0
M  V30 11572 C 1143.37 -4.2604 1.22495 0
M  V30 11573 H 1140.59 -0.585294 0.328134 0
M  V30 11574 H 1143.13 -1.38168 1.50765 0
M  V30 11575 H 1141.29 -3.7781 0.85664 0
M  V30 11576 H 1141.7 -4.29614 3.00885 0
M  V30 11577 H 1143.17 -5.27999 1.61 0
M  V30 11578 H 1143.65 -4.38883 0.166717 0
M  V30 11579 H 1144.26 -3.87295 1.75735 0
M  V30 11580 N 1142.57 -0.928524 -1.27343 0
M  V30 11581 C 1143.82 -0.568267 -1.93946 0
M  V30 11582 C 1144.14 0.893501 -1.73325 0
M  V30 11583 O 1143.41 1.63344 -1.08147 0
M  V30 11584 H 1141.99 -0.207173 -0.717696 0
M  V30 11585 H 1144.65 -1.1811 -1.55036 0
M  V30 11586 H 1143.75 -0.775246 -3.02318 0
M  V30 11587 N 1144.05 1.41491 -0.694123 0
M  V30 11588 C 1145.47 1.55358 -0.365532 0
M  V30 11589 C 1145.67 1.66994 1.12762 0
M  V30 11590 O 1144.72 1.64756 1.91342 0
M  V30 11591 C 1146.03 2.79352 -1.11279 0
M  V30 11592 C 1147.58 2.93147 -1.097 0
M  V30 11593 C 1148.06 4.20027 -1.82597 0
M  V30 11594 N 1149.55 4.26981 -1.7956 0
M  V30 11595 C 1150.28 5.24013 -2.32805 0
M  V30 11596 N 1149.78 6.27083 -2.94515 0
M  V30 11597 N 1151.57 5.15943 -2.23069 0
M  V30 11598 H 1143.72 1.32183 -1.66257 0
M  V30 11599 H 1145.99 0.637624 -0.701527 0
M  V30 11600 H 1145.69 2.76958 -2.16765 0
M  V30 11601 H 1145.57 3.70827 -0.690439 0
M  V30 11602 H 1147.95 2.95057 -0.0504037 0
M  V30 11603 H 1148.03 2.02849 -1.55839 0
M  V30 11604 H 1147.68 4.18878 -2.87235 0
M  V30 11605 H 1147.61 5.09294 -1.33893 0
M  V30 11606 H 1150.1 3.53129 -1.34567 0
M  V30 11607 H 1150.41 6.97511 -3.32714 0
M  V30 11608 H 1148.76 6.27589 -2.98592 0
M  V30 11609 H 1151.95 4.34346 -1.74532 0
M  V30 11610 H 1152.12 5.91396 -2.64868 0
M  V30 11611 N 1145.53 0.438773 1.51369 0
M  V30 11612 C 1146.44 -0.378074 2.31534 0
M  V30 11613 C 1147.45 -1.02632 1.40508 0
M  V30 11614 O 1148.63 -1.02138 1.73579 0
M  V30 11615 C 1145.69 -1.46374 3.14286 0
M  V30 11616 C 1144.76 -0.835473 4.21092 0
M  V30 11617 C 1143.99 -1.86941 4.99889 0
M  V30 11618 O 1144.21 -3.0918 4.79337 0
M  V30 11619 O 1143.15 -1.45914 5.83946 0
M  V30 11620 H 1146.97 0.276401 3.0244 0
M  V30 11621 H 1144.56 0.201281 1.48038 0
M  V30 11622 H 1146.44 -2.09335 3.65728 0
M  V30 11623 H 1145.11 -2.10227 2.46143 0
M  V30 11624 H 1144.02 -0.167775 3.73724 0
M  V30 11625 H 1145.35 -0.240406 4.91613 0
M  V30 11626 N 1147.01 -1.56678 0.170181 0
M  V30 11627 C 1148.25 -1.96024 -0.475147 0
M  V30 11628 C 1148.57 -1.0588 -1.64465 0
M  V30 11629 O 1149.77 -1.34901 -2.35614 0
M  V30 11630 C 1148.23 -3.4855 -0.896704 0
M  V30 11631 C 1147.84 -4.47318 0.247142 0
M  V30 11632 C 1149.58 -3.96716 -1.51052 0
M  V30 11633 C 1147.49 -5.91082 -0.193982 0
M  V30 11634 H 1146.42 -0.731883 -0.181282 0
M  V30 11635 H 1149.07 -1.81674 0.25823 0
M  V30 11636 H 1147.45 -3.58314 -1.68603 0
M  V30 11637 H 1148.63 -4.49268 1.02445 0
M  V30 11638 H 1146.94 -4.09203 0.770839 0
M  V30 11639 H 1149.54 -5.01581 -1.85258 0
M  V30 11640 H 1149.88 -3.39588 -2.40802 0
M  V30 11641 H 1150.41 -3.89965 -0.785652 0
M  V30 11642 H 1147.15 -6.5208 0.668714 0
M  V30 11643 H 1146.67 -5.92441 -0.936675 0
M  V30 11644 H 1148.35 -6.43844 -0.638237 0
M  V30 11645 N 1148.48 0.103547 -1.57259 0
M  V30 11646 C 1149.41 1.12714 -2.04494 0
M  V30 11647 C 1150.39 1.42278 -0.932255 0
M  V30 11648 O 1151.58 1.52453 -1.20298 0
M  V30 11649 C 1148.71 2.44927 -2.46228 0
M  V30 11650 C 1147.66 2.2979 -3.61082 0
M  V30 11651 C 1146.99 3.67105 -3.88765 0
M  V30 11652 C 1148.29 1.7455 -4.9227 0
M  V30 11653 H 1149.98 0.734198 -2.90258 0
M  V30 11654 H 1147.53 0.351725 -1.39638 0
M  V30 11655 H 1149.48 3.16798 -2.77879 0
M  V30 11656 H 1148.21 2.8614 -1.57453 0
M  V30 11657 H 1146.87 1.60366 -3.29664 0
M  V30 11658 H 1146.51 4.05831 -2.97171 0
M  V30 11659 H 1146.21 3.57825 -4.66084 0
M  V30 11660 H 1147.74 4.40456 -4.22884 0
M  V30 11661 H 1149.15 2.36253 -5.22358 0
M  V30 11662 H 1147.55 1.76051 -5.73695 0
M  V30 11663 H 1148.62 0.704242 -4.79759 0
M  V30 11664 N 1149.96 1.53094 0.37415 0
M  V30 11665 C 1150.92 1.78264 1.44065 0
M  V30 11666 C 1151.92 0.652892 1.46949 0
M  V30 11667 O 1153.11 0.921046 1.47859 0
M  V30 11668 C 1150.25 1.89693 2.83248 0
M  V30 11669 H 1151.44 2.73505 1.23025 0
M  V30 11670 H 1148.99 1.44041 0.60678 0
M  V30 11671 H 1149.73 0.964884 3.09613 0
M  V30 11672 H 1149.51 2.71855 2.82554 0
M  V30 11673 H 1151 2.10787 3.60498 0
M  V30 11674 N 1151.44 -0.633461 1.44309 0
M  V30 11675 C 1152.4 -1.72743 1.50641 0
M  V30 11676 C 1153.4 -1.56031 0.388718 0
M  V30 11677 O 1154.59 -1.61568 0.651251 0
M  V30 11678 C 1151.72 -3.11804 1.37809 0
M  V30 11679 H 1152.92 -1.68503 2.48086 0
M  V30 11680 H 1150.47 -0.846912 1.31366 0
M  V30 11681 H 1151.21 -3.2164 0.414483 0
M  V30 11682 H 1150.99 -3.2534 2.18852 0
M  V30 11683 H 1152.48 -3.91538 1.45216 0
M  V30 11684 N 1152.92 -1.31168 -0.873655 0
M  V30 11685 C 1153.87 -1.18432 -2.00191 0
M  V30 11686 C 1154.86 -0.0934873 -1.69142 0
M  V30 11687 O 1156.07 -0.255126 -1.78183 0
M  V30 11688 H 1152.44 -0.366594 -0.656592 0
M  V30 11689 H 1154.41 -2.13896 -2.08065 0
M  V30 11690 C 1153.16 -0.904668 -3.35725 0
M  V30 11691 H 1152.48 -1.73617 -3.60135 0
M  V30 11692 H 1153.92 -0.855715 -4.15275 0
M  V30 11693 C 1152.38 0.392554 -3.34605 0
M  V30 11694 O 1152.91 1.41052 -3.76121 0
M  V30 11695 N 1151.12 0.40777 -2.87725 0
M  V30 11696 H 1150.67 -0.42112 -2.54134 0
M  V30 11697 H 1150.62 1.27564 -2.87358 0
M  V30 11698 N 1154.4 1.08748 -1.14068 0
M  V30 11699 C 1155.81 1.33125 -0.880341 0
M  V30 11700 C 1156.01 1.9569 0.480396 0
M  V30 11701 O 1155.07 2.2077 1.22543 0
M  V30 11702 C 1156.38 2.23618 -2.01036 0
M  V30 11703 C 1157.93 2.37108 -2.04326 0
M  V30 11704 C 1158.4 3.30941 -3.1661 0
M  V30 11705 N 1159.9 3.38517 -3.16166 0
M  V30 11706 C 1160.63 4.11142 -3.99687 0
M  V30 11707 N 1160.13 4.86505 -4.93239 0
M  V30 11708 N 1161.92 4.06938 -3.87761 0
M  V30 11709 H 1154.07 0.665164 -2.01716 0
M  V30 11710 H 1156.33 0.355612 -0.878774 0
M  V30 11711 H 1156.04 1.84885 -2.99183 0
M  V30 11712 H 1155.91 3.24056 -1.93049 0
M  V30 11713 H 1158.3 2.75101 -1.06787 0
M  V30 11714 H 1158.38 1.36424 -2.16384 0
M  V30 11715 H 1158.03 2.93669 -4.14392 0
M  V30 11716 H 1157.96 4.31545 -3.01789 0
M  V30 11717 H 1160.45 2.84786 -2.48405 0
M  V30 11718 H 1160.76 5.39372 -5.53441 0
M  V30 11719 H 1159.1 4.8557 -4.9724 0
M  V30 11720 H 1162.3 3.47166 -3.13996 0
M  V30 11721 H 1162.47 4.63275 -4.53079 0
M  V30 11722 N 1155.87 0.935264 1.26849 0
M  V30 11723 C 1157.12 0.580548 1.94313 0
M  V30 11724 C 1157.45 -0.877205 1.73259 0
M  V30 11725 O 1156.73 -1.62679 1.06611 0
M  V30 11726 C 1157.01 0.916445 3.48243 0
M  V30 11727 C 1156.86 2.42851 3.78607 0
M  V30 11728 C 1158.18 0.427665 4.38017 0
M  V30 11729 H 1155.3 0.21239 0.705733 0
M  V30 11730 H 1157.94 1.16841 1.49827 0
M  V30 11731 H 1156.09 0.416169 3.86265 0
M  V30 11732 H 1157.77 3.00106 3.50335 0
M  V30 11733 H 1156.01 2.8745 3.24892 0
M  V30 11734 H 1156.68 2.61405 4.8618 0
M  V30 11735 H 1159.16 0.856525 4.07189 0
M  V30 11736 H 1158.03 0.691571 5.44526 0
M  V30 11737 H 1158.29 -0.672344 4.36958 0
M  V30 11738 N 1157.35 -1.41121 0.701616 0
M  V30 11739 C 1158.26 -2.34565 0.0407815 0
M  V30 11740 C 1159.28 -1.56555 -0.75937 0
M  V30 11741 O 1160.45 -1.89008 -0.695542 0
M  V30 11742 C 1157.52 -3.35347 -0.879954 0
M  V30 11743 C 1156.58 -4.29241 -0.0713279 0
M  V30 11744 C 1155.81 -5.25209 -0.948211 0
M  V30 11745 O 1156.04 -5.26781 -2.18766 0
M  V30 11746 O 1154.97 -6.00605 -0.394657 0
M  V30 11747 H 1158.8 -2.92666 0.811188 0
M  V30 11748 H 1156.38 -1.42077 0.461991 0
M  V30 11749 H 1158.26 -3.9719 -1.40776 0
M  V30 11750 H 1156.94 -2.7968 -1.62975 0
M  V30 11751 H 1155.85 -3.70727 0.50122 0
M  V30 11752 H 1157.18 -4.88022 0.639935 0
M  V30 11753 N 1158.83 -0.446794 -1.51134 0
M  V30 11754 C 1159.78 0.374154 -2.29571 0
M  V30 11755 C 1160.77 1.01241 -1.35818 0
M  V30 11756 O 1161.98 0.946293 -1.53119 0
M  V30 11757 H 1158.35 0.13948 -0.738951 0
M  V30 11758 H 1160.32 -0.308117 -2.96805 0
M  V30 11759 C 1159.07 1.45754 -3.15675 0
M  V30 11760 H 1158.4 0.975787 -3.87709 0
M  V30 11761 H 1159.84 2.00502 -3.73597 0
M  V30 11762 C 1158.3 2.44606 -2.31667 0
M  V30 11763 O 1158.83 3.49352 -1.98284 0
M  V30 11764 N 1157.03 2.15725 -1.94708 0
M  V30 11765 H 1156.58 1.30572 -2.22056 0
M  V30 11766 H 1156.54 2.82103 -1.38798 0
M  V30 11767 N 1160.31 1.56586 -0.178487 0
M  V30 11768 C 1161.55 1.9739 0.465306 0
M  V30 11769 C 1161.89 1.06474 1.6241 0
M  V30 11770 O 1161.16 0.113316 1.9417 0
M  V30 11771 C 1161.45 3.47577 0.941408 0
M  V30 11772 C 1161.3 4.49271 -0.218054 0
M  V30 11773 C 1162.62 4.01038 1.81263 0
M  V30 11774 H 1159.74 0.717676 0.167663 0
M  V30 11775 H 1162.38 1.88128 -0.266067 0
M  V30 11776 H 1160.53 3.556 1.56463 0
M  V30 11777 H 1162.2 4.53301 -0.855332 0
M  V30 11778 H 1160.44 4.24936 -0.872441 0
M  V30 11779 H 1161.11 5.51776 0.157315 0
M  V30 11780 H 1163.59 3.9569 1.28718 0
M  V30 11781 H 1162.47 5.06526 2.11476 0
M  V30 11782 H 1162.73 3.45288 2.76096 0
M  V30 11783 N 1161.79 -0.095206 1.57312 0
M  V30 11784 C 1162.7 -1.13388 2.05379 0
M  V30 11785 C 1163.71 -1.43868 0.978668 0
M  V30 11786 O 1164.89 -1.54512 1.29182 0
M  V30 11787 C 1161.95 -2.43444 2.46852 0
M  V30 11788 C 1161.01 -2.20146 3.68557 0
M  V30 11789 C 1160.25 -3.44001 4.08043 0
M  V30 11790 O 1160.47 -4.52233 3.47623 0
M  V30 11791 O 1159.4 -3.33596 5.00997 0
M  V30 11792 H 1163.23 -0.755622 2.9415 0
M  V30 11793 H 1160.82 -0.307707 1.46197 0
M  V30 11794 H 1162.7 -3.20027 2.74155 0
M  V30 11795 H 1161.37 -2.80696 1.61219 0
M  V30 11796 H 1160.28 -1.41345 3.46371 0
M  V30 11797 H 1161.61 -1.87787 4.54969 0
M  V30 11798 N 1163.26 -1.53291 -0.366026 0
M  V30 11799 C 1164.49 -1.73665 -1.13381 0
M  V30 11800 C 1164.91 -0.464284 -1.8228 0
M  V30 11801 O 1164.27 0.581645 -1.71717 0
M  V30 11802 C 1164.32 -2.90225 -2.14013 0
M  V30 11803 O 1163.42 -2.58803 -3.21084 0
M  V30 11804 H 1162.77 -0.576762 -0.329 0
M  V30 11805 H 1165.3 -2.00174 -0.423287 0
M  V30 11806 H 1165.31 -3.16378 -2.57622 0
M  V30 11807 H 1163.98 -3.82518 -1.63257 0
M  V30 11808 H 1162.56 -2.43466 -2.82451 0
M  V30 11809 N 1164.74 0.6258 -1.44643 0
M  V30 11810 C 1165.67 1.74858 -1.54748 0
M  V30 11811 C 1166.65 1.65327 -0.400138 0
M  V30 11812 O 1167.84 1.84005 -0.620948 0
M  V30 11813 C 1164.97 3.13408 -1.49643 0
M  V30 11814 C 1163.92 3.37733 -2.62908 0
M  V30 11815 C 1163.25 4.76367 -2.42855 0
M  V30 11816 C 1164.55 3.29771 -4.05029 0
M  V30 11817 H 1166.24 1.66658 -2.48728 0
M  V30 11818 H 1163.79 0.800363 -1.19709 0
M  V30 11819 H 1165.74 3.91735 -1.55312 0
M  V30 11820 H 1164.47 3.22404 -0.521824 0
M  V30 11821 H 1163.12 2.61788 -2.56637 0
M  V30 11822 H 1162.77 4.82074 -1.43575 0
M  V30 11823 H 1162.47 4.936 -3.18799 0
M  V30 11824 H 1164 5.56917 -2.50351 0
M  V30 11825 H 1165.41 3.97996 -4.12641 0
M  V30 11826 H 1163.81 3.58538 -4.81218 0
M  V30 11827 H 1164.88 2.27493 -4.28223 0
M  V30 11828 N 1166.22 1.31629 0.866686 0
M  V30 11829 C 1167.18 1.1951 1.95576 0
M  V30 11830 C 1168.18 0.121319 1.60342 0
M  V30 11831 O 1169.37 0.370832 1.70207 0
M  V30 11832 C 1166.51 0.835201 3.30511 0
M  V30 11833 H 1167.7 2.16285 2.07752 0
M  V30 11834 H 1165.25 1.15288 1.05539 0
M  V30 11835 H 1165.99 -0.131245 3.24034 0
M  V30 11836 H 1165.77 1.61142 3.57457 0
M  V30 11837 H 1167.26 0.774393 4.10357 0
M  V30 11838 N 1167.7 -1.08142 1.14644 0
M  V30 11839 C 1168.95 -1.80582 0.916327 0
M  V30 11840 C 1169.27 -1.86355 -0.556969 0
M  V30 11841 O 1168.53 -1.33736 -1.42875 0
M  V30 11842 C 1168.83 -3.25962 1.46573 0
M  V30 11843 C 1168.49 -3.40302 2.95814 0
M  V30 11844 C 1167.16 -3.43922 3.36557 0
M  V30 11845 C 1169.51 -3.43758 3.91765 0
M  V30 11846 C 1166.84 -3.48594 4.7191 0
M  V30 11847 C 1169.19 -3.49965 5.26979 0
M  V30 11848 C 1167.85 -3.5186 5.67231 0
M  V30 11849 H 1167.12 -0.660795 0.335308 0
M  V30 11850 H 1169.77 -1.27309 1.43055 0
M  V30 11851 H 1168.07 -3.81961 0.872507 0
M  V30 11852 H 1169.77 -3.80571 1.2636 0
M  V30 11853 H 1166.36 -3.38176 2.63315 0
M  V30 11854 H 1170.55 -3.40189 3.61366 0
M  V30 11855 H 1165.8 -3.48355 5.02453 0
M  V30 11856 H 1169.98 -3.51585 6.01133 0
M  V30 11857 H 1167.6 -3.55233 6.72097 0
M  V30 11858 N 1169.18 -0.941978 -1.26351 0
M  V30 11859 C 1170.45 -0.507822 -1.88893 0
M  V30 11860 C 1170.83 1.0146 -1.85119 0
M  V30 11861 O 1170.18 1.87495 -1.30606 0
M  V30 11862 C 1170.39 -1.07007 -3.3219 0
M  V30 11863 C 1171.74 -1.13922 -4.09032 0
M  V30 11864 O 1172.76 -1.02072 -3.41262 0
M  V30 11865 O 1171.62 -1.32362 -5.30229 0
M  V30 11866 H 1168.72 -0.165621 -0.810246 0
M  V30 11867 H 1171.26 -1.03459 -1.34515 0
M  V30 11868 H 1170.04 -2.11366 -3.29302 0
M  V30 11869 H 1169.66 -0.525797 -3.94108 0
M  V30 11870 N 1170.66 1.40747 -0.709091 0
M  V30 11871 C 1171.9 2.01796 -0.254976 0
M  V30 11872 C 1172.26 1.55202 1.13711 0
M  V30 11873 O 1171.55 0.759312 1.75912 0
M  V30 11874 C 1171.74 3.56404 -0.266685 0
M  V30 11875 C 1171.57 4.18005 -1.65837 0
M  V30 11876 C 1170.34 4.51719 -2.26447 0
M  V30 11877 C 1172.54 4.43302 -2.60744 0
M  V30 11878 N 1170.52 4.9868 -3.58039 0
M  V30 11879 C 1171.89 4.92185 -3.77033 0
M  V30 11880 C 1173.95 4.25332 -2.58839 0
M  V30 11881 C 1172.65 5.24984 -4.91715 0
M  V30 11882 C 1174.68 4.59228 -3.72644 0
M  V30 11883 C 1174.04 5.08294 -4.87664 0
M  V30 11884 H 1170.14 0.769549 -0.138991 0
M  V30 11885 H 1172.72 1.71081 -0.929488 0
M  V30 11886 H 1170.89 3.86562 0.377365 0
M  V30 11887 H 1172.63 4.04188 0.203528 0
M  V30 11888 H 1169.38 4.38631 -1.78605 0
M  V30 11889 H 1169.8 5.2655 -4.25528 0
M  V30 11890 H 1174.45 3.86623 -1.71121 0
M  V30 11891 H 1172.16 5.6261 -5.80082 0
M  V30 11892 H 1175.75 4.4697 -3.72437 0
M  V30 11893 H 1174.63 5.3403 -5.74267 0
M  V30 11894 N 1172.13 0.454803 1.50895 0
M  V30 11895 C 1173.38 -0.107367 2.01414 0
M  V30 11896 C 1173.7 -1.42243 1.34262 0
M  V30 11897 O 1174.9 -2.06858 1.75846 0
M  V30 11898 C 1173.36 -0.241872 3.59086 0
M  V30 11899 C 1172.97 1.06379 4.35187 0
M  V30 11900 C 1174.71 -0.756873 4.17698 0
M  V30 11901 C 1172.62 0.893973 5.84604 0
M  V30 11902 H 1171.55 -0.0439003 0.752721 0
M  V30 11903 H 1174.2 0.587225 1.7385 0
M  V30 11904 H 1172.58 -0.999873 3.83169 0
M  V30 11905 H 1173.75 1.83148 4.2284 0
M  V30 11906 H 1172.07 1.50865 3.88109 0
M  V30 11907 H 1174.67 -0.900697 5.27059 0
M  V30 11908 H 1175.01 -1.74397 3.7801 0
M  V30 11909 H 1175.54 -0.0567088 3.9776 0
M  V30 11910 H 1172.28 1.85395 6.28736 0
M  V30 11911 H 1171.8 0.166387 5.99569 0
M  V30 11912 H 1173.48 0.554084 6.44623 0
M  V30 11913 N 1173.61 -1.56489 0.186789 0
M  V30 11914 C 1174.84 -2.02163 -0.463126 0
M  V30 11915 C 1175.26 -1.06612 -1.54969 0
M  V30 11916 O 1174.62 -0.0482139 -1.81236 0
M  V30 11917 C 1174.67 -3.46337 -1.00416 0
M  V30 11918 O 1173.77 -3.53889 -2.11747 0
M  V30 11919 H 1173.11 -0.65496 -0.109194 0
M  V30 11920 H 1175.64 -2.02459 0.295227 0
M  V30 11921 H 1175.65 -3.85959 -1.32287 0
M  V30 11922 H 1174.33 -4.15376 -0.208693 0
M  V30 11923 H 1172.9 -3.26136 -1.80803 0
M  V30 11924 N 1175.09 0.086862 -1.5736 0
M  V30 11925 C 1176.04 1.10478 -2.02641 0
M  V30 11926 C 1177.01 1.39331 -0.904219 0
M  V30 11927 O 1178.19 1.50654 -1.17081 0
M  V30 11928 C 1175.33 2.41754 -2.4627 0
M  V30 11929 C 1174.44 2.19561 -3.72044 0
M  V30 11930 C 1173.58 3.44294 -4.04519 0
M  V30 11931 C 1172.62 3.17399 -5.23378 0
M  V30 11932 N 1171.76 4.3442 -5.51564 0
M  V30 11933 H 1176.6 0.711663 -2.89378 0
M  V30 11934 H 1174.13 0.339856 -1.4312 0
M  V30 11935 H 1176.09 3.18378 -2.69613 0
M  V30 11936 H 1174.72 2.78896 -1.62532 0
M  V30 11937 H 1173.77 1.337 -3.5613 0
M  V30 11938 H 1175.08 1.95685 -4.58812 0
M  V30 11939 H 1174.24 4.29321 -4.28682 0
M  V30 11940 H 1172.98 3.71232 -3.16289 0
M  V30 11941 H 1171.98 2.30765 -4.99026 0
M  V30 11942 H 1173.21 2.91799 -6.13213 0
M  V30 11943 H 1171.15 4.61418 -4.66293 0
M  V30 11944 H 1171.07 4.13764 -6.3272 0
M  V30 11945 H 1172.34 5.20489 -5.80269 0
M  V30 11946 N 1176.57 1.53483 0.357892 0
M  V30 11947 C 1177.52 1.81143 1.45911 0
M  V30 11948 C 1178.51 0.681002 1.55109 0
M  V30 11949 O 1179.72 0.864086 1.57904 0
M  V30 11950 H 1176.09 0.573663 0.486225 0
M  V30 11951 H 1178.06 2.733 1.19789 0
M  V30 11952 C 1176.81 2.02509 2.8264 0
M  V30 11953 H 1176.13 2.88938 2.76324 0
M  V30 11954 H 1177.57 2.25837 3.58851 0
M  V30 11955 C 1176.03 0.806412 3.27106 0
M  V30 11956 O 1176.56 -0.00116809 4.017 0
M  V30 11957 N 1174.77 0.627677 2.8374 0
M  V30 11958 H 1174.32 1.28601 2.23203 0
M  V30 11959 H 1174.27 -0.186301 3.13848 0
M  V30 11960 N 1178.05 -0.61812 1.44973 0
M  V30 11961 C 1178.98 -1.74035 1.55673 0
M  V30 11962 C 1179.96 -1.65112 0.4089 0
M  V30 11963 O 1181.14 -1.83673 0.630698 0
M  V30 11964 C 1178.27 -3.1261 1.51303 0
M  V30 11965 C 1177.23 -3.36334 2.64696 0
M  V30 11966 C 1176.55 -4.75072 2.45378 0
M  V30 11967 C 1177.85 -3.27618 4.06772 0
M  V30 11968 H 1179.55 -1.65336 2.49608 0
M  V30 11969 H 1177.09 -0.794003 1.20132 0
M  V30 11970 H 1179.04 -3.90906 1.57388 0
M  V30 11971 H 1177.77 -3.22123 0.538914 0
M  V30 11972 H 1176.43 -2.60423 2.58022 0
M  V30 11973 H 1176.08 -4.81306 1.46129 0
M  V30 11974 H 1175.78 -4.91903 3.21412 0
M  V30 11975 H 1177.3 -5.55582 2.53301 0
M  V30 11976 H 1178.71 -3.95802 4.14746 0
M  V30 11977 H 1177.11 -3.55981 4.83113 0
M  V30 11978 H 1178.18 -2.25219 4.29423 0
M  V30 11979 N 1179.52 -1.32087 -0.859693 0
M  V30 11980 C 1180.75 -1.25167 -1.64368 0
M  V30 11981 C 1181.16 0.183572 -1.88307 0
M  V30 11982 O 1180.5 1.12945 -1.44876 0
M  V30 11983 C 1180.57 -1.93641 -3.02892 0
M  V30 11984 C 1180.23 -3.4298 -3.02017 0
M  V30 11985 C 1181.23 -4.38551 -2.79229 0
M  V30 11986 C 1178.91 -3.84835 -3.22812 0
M  V30 11987 C 1180.91 -5.73952 -2.77232 0
M  V30 11988 C 1178.59 -5.20346 -3.20442 0
M  V30 11989 C 1179.59 -6.14716 -2.97681 0
M  V30 11990 O 1179.28 -7.47748 -2.95175 0
M  V30 11991 H 1179.01 -0.433327 -0.518848 0
M  V30 11992 H 1181.57 -1.7468 -1.08055 0
M  V30 11993 H 1179.8 -1.3869 -3.60974 0
M  V30 11994 H 1181.48 -1.80497 -3.63559 0
M  V30 11995 H 1182.25 -4.07542 -2.62935 0
M  V30 11996 H 1178.13 -3.11806 -3.39555 0
M  V30 11997 H 1181.67 -6.47584 -2.59385 0
M  V30 11998 H 1177.57 -5.50987 -3.36279 0
M  V30 11999 H 1178.34 -7.57046 -3.11165 0
M  V30 12000 N 1181 1.07532 -1.15215 0
M  V30 12001 C 1182.25 1.8052 -0.937234 0
M  V30 12002 C 1182.6 1.84954 0.530084 0
M  V30 12003 O 1181.9 1.32091 1.3879 0
M  V30 12004 C 1182.09 3.2518 -1.483 0
M  V30 12005 C 1181.92 3.34841 -3.00185 0
M  V30 12006 C 1180.69 3.45509 -3.68716 0
M  V30 12007 C 1182.89 3.25749 -3.97985 0
M  V30 12008 N 1180.87 3.44055 -5.08429 0
M  V30 12009 C 1182.24 3.31391 -5.24004 0
M  V30 12010 C 1184.29 3.09547 -3.89981 0
M  V30 12011 C 1183 3.22498 -6.42952 0
M  V30 12012 C 1185.02 3.01987 -5.08486 0
M  V30 12013 C 1184.39 3.08239 -6.33378 0
M  V30 12014 H 1180.48 0.673971 -0.396594 0
M  V30 12015 H 1183.07 1.2837 -1.46387 0
M  V30 12016 H 1181.24 3.75754 -0.983021 0
M  V30 12017 H 1182.97 3.86279 -1.20709 0
M  V30 12018 H 1179.73 3.49778 -3.193 0
M  V30 12019 H 1180.15 3.4686 -5.81392 0
M  V30 12020 H 1184.79 3.03568 -2.94289 0
M  V30 12021 H 1182.51 3.27236 -7.38879 0
M  V30 12022 H 1186.1 2.90557 -5.04051 0
M  V30 12023 H 1184.98 3.02431 -7.23537 0
M  V30 12024 N 1182.48 0.948665 1.2585 0
M  V30 12025 C 1183.71 0.617229 1.97479 0
M  V30 12026 C 1184.12 -0.809406 1.7057 0
M  V30 12027 O 1183.48 -1.54066 0.97826 0
M  V30 12028 C 1183.53 0.859065 3.51144 0
M  V30 12029 O 1183.25 2.2296 3.77121 0
M  V30 12030 C 1184.75 0.539197 4.40009 0
M  V30 12031 H 1181.97 0.231933 0.629641 0
M  V30 12032 H 1184.52 1.27141 1.60173 0
M  V30 12033 H 1182.67 0.25138 3.86584 0
M  V30 12034 H 1183.09 2.29524 4.71613 0
M  V30 12035 H 1184.56 0.758986 5.46757 0
M  V30 12036 H 1185.04 -0.526062 4.36038 0
M  V30 12037 H 1185.64 1.12594 4.10125 0
M  V30 12038 N 1183.96 -1.40369 0.716545 0
M  V30 12039 C 1185.24 -1.94737 0.183576 0
M  V30 12040 C 1185.62 -1.65464 -1.31092 0
M  V30 12041 O 1184.96 -0.972832 -2.06756 0
M  V30 12042 C 1185.17 -3.45438 0.497339 0
M  V30 12043 C 1186.52 -4.2235 0.436526 0
M  V30 12044 O 1187.55 -3.53553 0.433454 0
M  V30 12045 O 1186.4 -5.44923 0.41489 0
M  V30 12046 H 1183.5 -0.82655 0.0272785 0
M  V30 12047 H 1186.04 -1.49972 0.794143 0
M  V30 12048 H 1184.82 -3.60107 1.53097 0
M  V30 12049 H 1184.44 -3.97342 -0.143141 0
M  V30 12050 N 1185.44 -0.462799 -1.50652 0
M  V30 12051 C 1186.66 0.0952726 -2.07181 0
M  V30 12052 C 1187.09 1.33479 -1.32533 0
M  V30 12053 O 1186.44 1.77473 -0.370564 0
M  V30 12054 C 1186.49 0.370592 -3.58691 0
M  V30 12055 O 1185.6 1.4526 -3.85971 0
M  V30 12056 H 1184.94 -0.00932702 -0.663934 0
M  V30 12057 H 1187.47 -0.651458 -1.93951 0
M  V30 12058 H 1187.48 0.613551 -4.0336 0
M  V30 12059 H 1186.15 -0.535219 -4.12442 0
M  V30 12060 H 1184.73 1.1976 -3.53146 0
M  V30 12061 N 1186.91 1.56388 -0.195085 0
M  V30 12062 C 1187.86 2.15705 0.738595 0
M  V30 12063 C 1188.85 1.09782 1.1763 0
M  V30 12064 O 1190.04 1.35844 1.1347 0
M  V30 12065 C 1187.17 2.81994 1.95791 0
M  V30 12066 C 1186.26 3.95108 1.54111 0
M  V30 12067 N 1186.65 4.98856 0.835261 0
M  V30 12068 C 1184.94 4.06709 1.8304 0
M  V30 12069 C 1185.65 5.78317 0.626417 0
M  V30 12070 N 1184.62 5.30746 1.17513 0
M  V30 12071 H 1188.42 2.93281 0.190597 0
M  V30 12072 H 1185.94 1.62399 0.00470391 0
M  V30 12073 H 1187.93 3.22883 2.63728 0
M  V30 12074 H 1186.59 2.05906 2.51063 0
M  V30 12075 H 1187.61 5.1557 0.490732 0
M  V30 12076 H 1184.28 3.41749 2.39821 0
M  V30 12077 H 1185.67 6.71867 0.0664935 0
M  V30 12078 N 1188.39 -0.0785156 1.57404 0
M  V30 12079 C 1189.62 -0.790893 1.90862 0
M  V30 12080 C 1190.03 -1.7198 0.788644 0
M  V30 12081 O 1189.37 -1.82027 -0.247322 0
M  V30 12082 C 1189.44 -1.64362 3.19727 0
M  V30 12083 C 1189.1 -0.884796 4.48353 0
M  V30 12084 C 1190.1 -0.207074 5.19487 0
M  V30 12085 C 1187.78 -0.853962 4.94988 0
M  V30 12086 C 1189.78 0.491329 6.35504 0
M  V30 12087 C 1187.46 -0.151783 6.10911 0
M  V30 12088 C 1188.46 0.519669 6.8102 0
M  V30 12089 O 1188.15 1.21055 7.94733 0
M  V30 12090 H 1187.88 -0.230427 0.635515 0
M  V30 12091 H 1190.43 -0.0551231 2.05326 0
M  V30 12092 H 1188.66 -2.42203 3.01454 0
M  V30 12093 H 1190.35 -2.23406 3.38887 0
M  V30 12094 H 1191.12 -0.222247 4.84491 0
M  V30 12095 H 1187 -1.36605 4.40296 0
M  V30 12096 H 1190.54 1.01598 6.90162 0
M  V30 12097 H 1186.44 -0.134514 6.4536 0
M  V30 12098 H 1187.21 1.11914 8.10813 0
M  V30 12099 N 1189.87 -1.5367 -0.349747 0
M  V30 12100 C 1190.82 -1.81223 -1.42922 0
M  V30 12101 C 1191.79 -0.657536 -1.52531 0
M  V30 12102 O 1192.97 -0.90134 -1.68168 0
M  V30 12103 C 1190.11 -2.022 -2.79659 0
M  V30 12104 C 1189.23 -3.29915 -2.78891 0
M  V30 12105 C 1188.36 -3.40993 -4.07305 0
M  V30 12106 C 1187.4 -4.6268 -4.00741 0
M  V30 12107 N 1186.54 -4.70826 -5.20833 0
M  V30 12108 H 1191.38 -2.73328 -1.18727 0
M  V30 12109 H 1188.91 -1.35386 -0.57525 0
M  V30 12110 H 1190.87 -2.12351 -3.59114 0
M  V30 12111 H 1189.5 -1.13416 -3.0222 0
M  V30 12112 H 1188.55 -3.28637 -1.91577 0
M  V30 12113 H 1189.87 -4.19459 -2.69917 0
M  V30 12114 H 1189.02 -3.50542 -4.95182 0
M  V30 12115 H 1187.76 -2.49493 -4.19052 0
M  V30 12116 H 1186.76 -4.53215 -3.11249 0
M  V30 12117 H 1187.99 -5.55538 -3.90582 0
M  V30 12118 H 1185.93 -3.82233 -5.33136 0
M  V30 12119 H 1185.85 -5.54297 -5.14092 0
M  V30 12120 H 1187.12 -4.84677 -6.10499 0
M  V30 12121 N 1191.35 0.610423 -1.45298 0
M  V30 12122 C 1192.57 1.40112 -1.52917 0
M  V30 12123 C 1193 1.87404 -0.161696 0
M  V30 12124 O 1192.36 1.59973 0.853135 0
M  V30 12125 C 1192.4 2.58359 -2.51561 0
M  V30 12126 O 1191.51 3.58895 -2.03146 0
M  V30 12127 H 1190.85 0.41841 -0.515586 0
M  V30 12128 H 1193.38 0.743159 -1.90626 0
M  V30 12129 H 1193.39 3.0564 -2.70275 0
M  V30 12130 H 1192.06 2.23286 -3.50879 0
M  V30 12131 H 1190.64 3.18282 -1.94296 0
M  V30 12132 N 1192.83 1.32541 0.852676 0
M  V30 12133 C 1194.08 1.22567 1.60188 0
M  V30 12134 C 1194.39 -0.210594 1.94463 0
M  V30 12135 O 1195.59 -0.432214 2.68038 0
M  V30 12136 C 1194.05 2.14678 2.88862 0
M  V30 12137 C 1193.66 3.63398 2.62004 0
M  V30 12138 C 1195.4 2.13545 3.66877 0
M  V30 12139 C 1193.31 4.47464 3.86691 0
M  V30 12140 H 1192.24 0.455184 0.601102 0
M  V30 12141 H 1194.89 1.57515 0.941347 0
M  V30 12142 H 1193.27 1.72647 3.56383 0
M  V30 12143 H 1194.45 4.13783 2.02782 0
M  V30 12144 H 1192.76 3.66681 1.97316 0
M  V30 12145 H 1195.36 2.73589 4.59405 0
M  V30 12146 H 1195.7 1.12694 4.00756 0
M  V30 12147 H 1196.23 2.53866 3.06263 0
M  V30 12148 H 1192.97 5.49136 3.57952 0
M  V30 12149 H 1192.49 4.01829 4.45302 0
M  V30 12150 H 1194.17 4.60565 4.5441 0
M  V30 12151 N 1194.3 -1.0692 1.15784 0
M  V30 12152 C 1195.53 -1.83849 0.959903 0
M  V30 12153 C 1195.95 -1.8169 -0.486873 0
M  V30 12154 O 1195.31 -1.21305 -1.34739 0
M  V30 12155 C 1195.36 -3.28642 1.48414 0
M  V30 12156 O 1194.46 -4.0665 0.686249 0
M  V30 12157 H 1193.81 -0.569115 0.342059 0
M  V30 12158 H 1196.34 -1.34851 1.53871 0
M  V30 12159 H 1196.35 -3.7947 1.49888 0
M  V30 12160 H 1195.02 -3.29529 2.53739 0
M  V30 12161 H 1193.6 -3.65453 0.741501 0
M  V30 12162 N 1195.78 -0.955326 -1.25345 0
M  V30 12163 C 1197.03 -0.611388 -1.93365 0
M  V30 12164 C 1197.36 0.84953 -1.74633 0
M  V30 12165 O 1196.64 1.60962 -1.09185 0
M  V30 12166 C 1196.92 -0.971732 -3.46741 0
M  V30 12167 C 1196.77 -2.48843 -3.74696 0
M  V30 12168 C 1198.09 -0.497295 -4.37281 0
M  V30 12169 H 1195.21 -0.223591 -0.702265 0
M  V30 12170 H 1197.85 -1.1921 -1.47949 0
M  V30 12171 H 1196 -0.477568 -3.85554 0
M  V30 12172 H 1197.67 -3.05641 -3.45516 0
M  V30 12173 H 1195.92 -2.92582 -3.20278 0
M  V30 12174 H 1196.59 -2.69107 -4.8196 0
M  V30 12175 H 1199.06 -0.921196 -4.05775 0
M  V30 12176 H 1197.94 -0.778113 -5.43357 0
M  V30 12177 H 1198.2 0.602743 -4.37972 0
M  V30 12178 N 1197.26 1.39987 -0.723979 0
M  V30 12179 C 1198.19 2.28185 -0.0257726 0
M  V30 12180 C 1199.17 1.43795 0.75907 0
M  V30 12181 O 1200.36 1.73198 0.743948 0
M  V30 12182 C 1197.48 3.24489 0.970811 0
M  V30 12183 C 1196.53 4.25607 0.275778 0
M  V30 12184 S 1197.36 5.26035 -1.00237 0
M  V30 12185 C 1198.52 6.25899 -0.00809987 0
M  V30 12186 H 1198.75 2.87054 -0.773761 0
M  V30 12187 H 1196.28 1.45546 -0.515332 0
M  V30 12188 H 1198.24 3.80496 1.54055 0
M  V30 12189 H 1196.9 2.6466 1.69156 0
M  V30 12190 H 1196.1 4.93374 1.02946 0
M  V30 12191 H 1195.7 3.73343 -0.22163 0
M  V30 12192 H 1197.99 6.72323 0.835971 0
M  V30 12193 H 1198.93 7.05086 -0.652607 0
M  V30 12194 H 1199.34 5.63355 0.359377 0
M  V30 12195 N 1198.74 0.470782 1.50404 0
M  V30 12196 C 1200.16 0.124919 1.5911 0
M  V30 12197 C 1200.36 -1.36855 1.47895 0
M  V30 12198 O 1199.41 -2.1418 1.33728 0
M  V30 12199 C 1200.72 0.674839 2.9303 0
M  V30 12200 C 1202.27 0.638239 3.06424 0
M  V30 12201 C 1202.75 1.1657 4.42917 0
M  V30 12202 N 1204.24 1.1251 4.49328 0
M  V30 12203 C 1204.97 1.50373 5.53331 0
M  V30 12204 N 1204.47 1.95684 6.6459 0
M  V30 12205 N 1206.26 1.41978 5.43874 0
M  V30 12206 H 1198.41 1.44212 1.55938 0
M  V30 12207 H 1200.68 0.596354 0.73693 0
M  V30 12208 H 1200.38 1.72106 3.06712 0
M  V30 12209 H 1200.26 0.118234 3.77015 0
M  V30 12210 H 1202.64 -0.399075 2.92389 0
M  V30 12211 H 1202.72 1.23164 2.24197 0
M  V30 12212 H 1202.37 2.20164 4.57701 0
M  V30 12213 H 1202.3 0.548513 5.23736 0
M  V30 12214 H 1204.79 0.79276 3.69491 0
M  V30 12215 H 1205.1 2.22724 7.40009 0
M  V30 12216 H 1203.45 1.99636 6.65711 0
M  V30 12217 H 1206.64 1.0642 4.55842 0
M  V30 12218 H 1206.81 1.71812 6.24808 0
M  V30 12219 N 1200.22 -1.56282 0.203376 0
M  V30 12220 C 1201.15 -2.2247 -0.709183 0
M  V30 12221 C 1202.13 -1.19046 -1.21499 0
M  V30 12222 O 1203.31 -1.47578 -1.26231 0
M  V30 12223 C 1200.44 -2.8905 -1.92529 0
M  V30 12224 C 1199.4 -3.98789 -1.55407 0
M  V30 12225 C 1198.72 -4.52574 -2.84747 0
M  V30 12226 C 1200.02 -5.16774 -0.75775 0
M  V30 12227 H 1201.72 -2.98986 -0.157392 0
M  V30 12228 H 1199.26 -1.43808 -0.0742613 0
M  V30 12229 H 1201.22 -3.34038 -2.56898 0
M  V30 12230 H 1199.94 -2.09952 -2.50175 0
M  V30 12231 H 1198.6 -3.54504 -0.933928 0
M  V30 12232 H 1198.25 -3.70229 -3.40499 0
M  V30 12233 H 1197.95 -5.26627 -2.6065 0
M  V30 12234 H 1199.47 -5.00269 -3.5009 0
M  V30 12235 H 1200.89 -5.58256 -1.30472 0
M  V30 12236 H 1199.28 -5.96945 -0.614583 0
M  V30 12237 H 1200.35 -4.84308 0.239476 0
M  V30 12238 N 1201.7 0.070167 -1.57444 0
M  V30 12239 C 1202.66 1.06761 -2.02817 0
M  V30 12240 C 1203.66 1.31498 -0.925462 0
M  V30 12241 O 1204.85 1.27192 -1.19029 0
M  V30 12242 C 1201.98 2.41086 -2.41019 0
M  V30 12243 H 1203.17 0.67651 -2.9217 0
M  V30 12244 H 1200.73 0.315936 -1.53074 0
M  V30 12245 H 1201.46 2.85025 -1.54697 0
M  V30 12246 H 1201.25 2.24472 -3.21488 0
M  V30 12247 H 1202.74 3.12778 -2.76694 0
M  V30 12248 N 1203.17 1.53854 0.341593 0
M  V30 12249 C 1204.45 1.61823 1.09875 0
M  V30 12250 C 1204.83 0.440711 2.06448 0
M  V30 12251 O 1204.18 -0.566833 2.21358 0
M  V30 12252 C 1204.39 2.9799 1.81668 0
M  V30 12253 C 1205.74 3.53411 2.35341 0
M  V30 12254 O 1206.76 3.00177 1.91761 0
M  V30 12255 O 1205.62 4.4653 3.15076 0
M  V30 12256 H 1202.71 0.654599 0.5054 0
M  V30 12257 H 1205.26 1.66199 0.342929 0
M  V30 12258 H 1204.03 3.7513 1.11323 0
M  V30 12259 H 1203.65 2.97213 2.64103 0
M  V30 12260 N 1204.65 -0.602709 1.4562 0
M  V30 12261 C 1205.6 -1.71312 1.54664 0
M  V30 12262 C 1206.57 -1.61403 0.392197 0
M  V30 12263 O 1207.75 -1.80911 0.606297 0
M  V30 12264 C 1204.89 -3.09629 1.52393 0
M  V30 12265 C 1204.01 -3.30308 2.78425 0
M  V30 12266 C 1203.14 -4.5876 2.67793 0
M  V30 12267 C 1202.18 -4.72713 3.88855 0
M  V30 12268 N 1201.32 -5.92469 3.76729 0
M  V30 12269 H 1206.16 -1.62918 2.49523 0
M  V30 12270 H 1203.69 -0.794324 1.2381 0
M  V30 12271 H 1205.65 -3.89661 1.49064 0
M  V30 12272 H 1204.28 -3.16968 0.610816 0
M  V30 12273 H 1203.33 -2.44018 2.9182 0
M  V30 12274 H 1204.65 -3.36491 3.68205 0
M  V30 12275 H 1203.8 -5.46993 2.62457 0
M  V30 12276 H 1202.54 -4.54983 1.75619 0
M  V30 12277 H 1201.54 -3.82903 3.94545 0
M  V30 12278 H 1202.77 -4.78284 4.82101 0
M  V30 12279 H 1200.72 -5.89728 2.87328 0
M  V30 12280 H 1200.63 -5.99833 4.60148 0
M  V30 12281 H 1201.9 -6.83187 3.75334 0
M  V30 12282 N 1206.13 -1.32992 -0.845635 0
M  V30 12283 C 1207.36 -1.27087 -1.63268 0
M  V30 12284 C 1207.77 0.159481 -1.88125 0
M  V30 12285 O 1207.13 1.09948 -1.45663 0
M  V30 12286 C 1207.18 -2.03649 -2.98679 0
M  V30 12287 O 1206.9 -3.41104 -2.74918 0
M  V30 12288 C 1208.4 -2.04875 -3.93117 0
M  V30 12289 H 1205.62 -0.438107 -0.508236 0
M  V30 12290 H 1208.17 -1.75257 -1.05381 0
M  V30 12291 H 1206.32 -1.59178 -3.53187 0
M  V30 12292 H 1206.74 -3.80405 -3.61099 0
M  V30 12293 H 1208.21 -2.62911 -4.85368 0
M  V30 12294 H 1208.69 -1.03728 -4.26775 0
M  V30 12295 H 1209.29 -2.49334 -3.44547 0
M  V30 12296 N 1207.61 1.06304 -1.1635 0
M  V30 12297 C 1209.02 1.31227 -0.90838 0
M  V30 12298 C 1209.22 1.96665 0.438779 0
M  V30 12299 O 1208.28 2.2332 1.17833 0
M  V30 12300 C 1209.59 2.19303 -2.05734 0
M  V30 12301 C 1211.14 2.3272 -2.09309 0
M  V30 12302 C 1211.62 3.24151 -3.23559 0
M  V30 12303 N 1213.11 3.31734 -3.23275 0
M  V30 12304 C 1213.84 4.02572 -4.08318 0
M  V30 12305 N 1213.34 4.75933 -5.03448 0
M  V30 12306 N 1215.13 3.98621 -3.96305 0
M  V30 12307 H 1207.28 0.622228 -2.03081 0
M  V30 12308 H 1209.54 0.336892 -0.886119 0
M  V30 12309 H 1209.25 1.78497 -3.03037 0
M  V30 12310 H 1209.12 3.19888 -1.99879 0
M  V30 12311 H 1211.51 2.72774 -1.12599 0
M  V30 12312 H 1211.59 1.31804 -2.19229 0
M  V30 12313 H 1211.24 2.84813 -4.20528 0
M  V30 12314 H 1211.17 4.25046 -3.10875 0
M  V30 12315 H 1213.66 2.79453 -2.5439 0
M  V30 12316 H 1213.97 5.27512 -5.64758 0
M  V30 12317 H 1212.32 4.74913 -5.07427 0
M  V30 12318 H 1215.51 3.40427 -3.21289 0
M  V30 12319 H 1215.68 4.5356 -4.62804 0
M  V30 12320 N 1209.09 0.96196 1.24836 0
M  V30 12321 C 1210.5 0.667561 1.44968 0
M  V30 12322 C 1210.7 -0.772521 1.86103 0
M  V30 12323 O 1209.76 -1.54704 1.99557 0
M  V30 12324 C 1211.07 1.64675 2.516 0
M  V30 12325 C 1212.62 1.65874 2.65433 0
M  V30 12326 C 1213.09 2.62576 3.75257 0
M  V30 12327 N 1214.58 2.60984 3.82677 0
M  V30 12328 C 1215.32 3.32484 4.67163 0
M  V30 12329 N 1214.82 4.13482 5.55882 0
M  V30 12330 N 1216.61 3.21336 4.61193 0
M  V30 12331 H 1208.76 1.89248 0.964307 0
M  V30 12332 H 1211.02 0.814443 0.485167 0
M  V30 12333 H 1210.73 2.67572 2.2825 0
M  V30 12334 H 1210.6 1.415 3.49653 0
M  V30 12335 H 1212.99 0.636912 2.88145 0
M  V30 12336 H 1213.07 1.9311 1.67756 0
M  V30 12337 H 1212.71 3.6489 3.53295 0
M  V30 12338 H 1212.64 2.32622 4.72435 0
M  V30 12339 H 1215.14 2.02187 3.19263 0
M  V30 12340 H 1215.45 4.6494 6.17293 0
M  V30 12341 H 1213.79 4.17578 5.55566 0
M  V30 12342 H 1216.98 2.57524 3.90895 0
M  V30 12343 H 1217.16 3.77323 5.26812 0
M  V30 12344 N 1210.56 -1.39601 0.731392 0
M  V30 12345 C 1211.79 -2.04887 0.28789 0
M  V30 12346 C 1212.21 -1.55138 -1.076 0
M  V30 12347 O 1211.56 -0.71471 -1.67923 0
M  V30 12348 C 1211.61 -3.6044 0.276629 0
M  V30 12349 O 1211.34 -4.08358 1.58668 0
M  V30 12350 C 1212.84 -4.4292 -0.183485 0
M  V30 12351 H 1210.06 -0.658976 0.126459 0
M  V30 12352 H 1212.6 -1.78716 0.994031 0
M  V30 12353 H 1210.76 -3.85526 -0.380597 0
M  V30 12354 H 1211.17 -5.02659 1.4978 0
M  V30 12355 H 1212.64 -5.51822 -0.140207 0
M  V30 12356 H 1213.12 -4.2168 -1.22811 0
M  V30 12357 H 1213.73 -4.22976 0.444042 0
M  V30 12358 N 1212.04 -0.478751 -1.50152 0
M  V30 12359 C 1213.29 0.073694 -2.02666 0
M  V30 12360 C 1213.62 1.38679 -1.35947 0
M  V30 12361 O 1212.9 1.88286 -0.4877 0
M  V30 12362 C 1213.18 0.249516 -3.59235 0
M  V30 12363 C 1213.03 -1.08514 -4.36514 0
M  V30 12364 C 1214.35 1.00053 -4.28576 0
M  V30 12365 H 1211.47 0.0253082 -0.736565 0
M  V30 12366 H 1214.11 -0.625834 -1.79397 0
M  V30 12367 H 1212.26 0.845343 -3.79192 0
M  V30 12368 H 1213.93 -1.71814 -4.28109 0
M  V30 12369 H 1212.18 -1.67992 -3.99952 0
M  V30 12370 H 1212.85 -0.915676 -5.44352 0
M  V30 12371 H 1215.32 0.495422 -4.1314 0
M  V30 12372 H 1214.2 1.09236 -5.37921 0
M  V30 12373 H 1214.46 2.03896 -3.92274 0
M  V30 12374 N 1213.52 1.56172 -0.211661 0
M  V30 12375 C 1214.77 1.98332 0.423332 0
M  V30 12376 C 1215.1 1.09895 1.60115 0
M  V30 12377 O 1214.37 0.154477 1.93886 0
M  V30 12378 C 1214.66 3.49495 0.86747 0
M  V30 12379 C 1214.51 4.48708 -0.313302 0
M  V30 12380 C 1215.83 4.04793 1.72716 0
M  V30 12381 H 1212.95 0.72107 0.152402 0
M  V30 12382 H 1215.59 1.87521 -0.305912 0
M  V30 12383 H 1213.74 3.58839 1.48885 0
M  V30 12384 H 1215.41 4.51385 -0.951291 0
M  V30 12385 H 1213.66 4.2299 -0.96238 0
M  V30 12386 H 1214.33 5.51985 0.0402402 0
M  V30 12387 H 1216.8 3.98332 1.20296 0
M  V30 12388 H 1215.68 5.10898 2.00684 0
M  V30 12389 H 1215.94 3.51067 2.68709 0
M  V30 12390 N 1215 -0.0618163 1.57479 0
M  V30 12391 C 1215.93 -1.09931 2.01116 0
M  V30 12392 C 1216.94 -1.34405 0.91865 0
M  V30 12393 O 1218.13 -1.32469 1.19642 0
M  V30 12394 C 1215.23 -2.44814 2.34349 0
M  V30 12395 C 1214.41 -2.40157 3.65573 0
M  V30 12396 C 1213.46 -3.57226 3.86363 0
M  V30 12397 O 1212.49 -3.38202 4.5783 0
M  V30 12398 N 1213.69 -4.77937 3.2948 0
M  V30 12399 H 1216.46 -0.727621 2.90733 0
M  V30 12400 H 1214.02 -0.250315 1.59953 0
M  V30 12401 H 1216.01 -3.21792 2.45422 0
M  V30 12402 H 1214.58 -2.73947 1.50571 0
M  V30 12403 H 1213.8 -1.48496 3.65161 0
M  V30 12404 H 1215.09 -2.34156 4.51717 0
M  V30 12405 H 1214.49 -4.96296 2.7149 0
M  V30 12406 H 1213.04 -5.52392 3.45986 0
M  V30 12407 N 1216.48 -1.54033 -0.333429 0
M  V30 12408 C 1217.71 -1.75461 -1.09073 0
M  V30 12409 C 1218.11 -0.498488 -1.82515 0
M  V30 12410 O 1217.46 0.540029 -1.75583 0
M  V30 12411 C 1217.52 -2.88744 -2.14166 0
M  V30 12412 C 1217.18 -4.27998 -1.60209 0
M  V30 12413 C 1218.18 -5.09206 -1.04907 0
M  V30 12414 C 1215.87 -4.74513 -1.6475 0
M  V30 12415 C 1217.86 -6.35035 -0.548615 0
M  V30 12416 C 1215.55 -6.00312 -1.14318 0
M  V30 12417 C 1216.54 -6.80406 -0.594667 0
M  V30 12418 O 1216.23 -8.0384 -0.097891 0
M  V30 12419 H 1215.96 -0.589586 -0.330702 0
M  V30 12420 H 1218.52 -2.01697 -0.388274 0
M  V30 12421 H 1216.75 -2.58057 -2.87999 0
M  V30 12422 H 1218.44 -2.98048 -2.7554 0
M  V30 12423 H 1219.2 -4.74428 -1.00713 0
M  V30 12424 H 1215.08 -4.12222 -2.06384 0
M  V30 12425 H 1218.63 -6.97497 -0.119823 0
M  V30 12426 H 1214.52 -6.34583 -1.18215 0
M  V30 12427 H 1215.29 -8.1822 -0.214237 0
M  V30 12428 N 1217.95 0.594978 -1.45938 0
M  V30 12429 C 1218.88 1.71536 -1.58422 0
M  V30 12430 C 1219.87 1.64441 -0.435116 0
M  V30 12431 O 1221.05 1.82647 -0.659839 0
M  V30 12432 C 1218.18 3.10163 -1.56257 0
M  V30 12433 C 1217.13 3.3208 -2.70013 0
M  V30 12434 C 1216.46 4.71108 -2.52905 0
M  V30 12435 C 1217.76 3.21105 -4.11933 0
M  V30 12436 H 1219.45 1.61344 -2.52207 0
M  V30 12437 H 1217 0.774791 -1.2138 0
M  V30 12438 H 1218.95 3.88352 -1.63587 0
M  V30 12439 H 1217.68 3.21225 -0.590093 0
M  V30 12440 H 1216.34 2.56286 -2.62132 0
M  V30 12441 H 1215.98 4.7892 -1.53768 0
M  V30 12442 H 1215.68 4.86727 -3.29197 0
M  V30 12443 H 1217.21 5.51482 -2.62107 0
M  V30 12444 H 1218.62 3.89153 -4.2099 0
M  V30 12445 H 1217.02 3.4825 -4.88715 0
M  V30 12446 H 1218.09 2.18359 -4.32952 0
M  V30 12447 N 1219.43 1.33438 0.838571 0
M  V30 12448 C 1220.38 1.23698 1.96981 0
M  V30 12449 C 1221.37 0.138299 1.68835 0
M  V30 12450 O 1222.58 0.302278 1.77444 0
M  V30 12451 H 1218.96 0.383874 0.646641 0
M  V30 12452 H 1220.93 2.19337 2.02321 0
M  V30 12453 C 1219.68 0.993362 3.33208 0
M  V30 12454 H 1219 1.83104 3.55405 0
M  V30 12455 H 1220.44 0.965517 4.1286 0
M  V30 12456 C 1218.9 -0.303701 3.35528 0
M  V30 12457 O 1219.43 -1.3103 3.79729 0
M  V30 12458 N 1217.63 -0.331342 2.88705 0
M  V30 12459 H 1217.18 0.488351 2.52929 0
M  V30 12460 H 1217.14 -1.199 2.9064 0
M  V30 12461 N 1220.91 -1.05686 1.16912 0
M  V30 12462 C 1221.86 -2.15417 0.877404 0
M  V30 12463 C 1222.85 -1.6868 -0.155986 0
M  V30 12464 O 1224.06 -1.79998 -0.00938156 0
M  V30 12465 H 1220.43 -0.70332 0.266168 0
M  V30 12466 H 1222.4 -2.37228 1.81012 0
M  V30 12467 C 1221.15 -3.45372 0.401696 0
M  V30 12468 H 1220.48 -3.81732 1.18832 0
M  V30 12469 H 1221.92 -4.2334 0.236418 0
M  V30 12470 C 1220.38 -3.25209 -0.87981 0
M  V30 12471 O 1220.91 -3.51322 -1.94771 0
M  V30 12472 N 1219.11 -2.78614 -0.825997 0
M  V30 12473 H 1218.66 -2.57564 0.0432439 0
M  V30 12474 H 1218.62 -2.65503 -1.68391 0
M  V30 12475 N 1222.39 -0.968567 -1.24324 0
M  V30 12476 C 1223.8 -0.66964 -1.74278 0
M  V30 12477 C 1224.15 0.81461 -1.7849 0
M  V30 12478 O 1223.28 1.63736 -1.4149 0
M  V30 12479 C 1223.87 -1.20885 -3.165 0
M  V30 12480 C 1222.43 -0.959808 -3.63957 0
M  V30 12481 C 1221.58 -1.34365 -2.42573 0
M  V30 12482 H 1224.53 -1.14379 -1.10015 0
M  V30 12483 H 1224.55 -0.57555 -3.76122 0
M  V30 12484 H 1224.06 -2.28912 -3.13402 0
M  V30 12485 H 1222.16 0.104894 -3.72452 0
M  V30 12486 H 1222.27 -1.60606 -4.51378 0
M  V30 12487 H 1220.64 -0.762039 -2.43033 0
M  V30 12488 H 1221.42 -2.43343 -2.42155 0
M  V30 12489 N 1223.87 1.39211 -0.738786 0
M  V30 12490 C 1225.28 1.54116 -0.414773 0
M  V30 12491 C 1225.48 1.70497 1.07392 0
M  V30 12492 O 1224.54 1.7076 1.86003 0
M  V30 12493 C 1225.85 2.7567 -1.2011 0
M  V30 12494 C 1227.4 2.89508 -1.1897 0
M  V30 12495 C 1227.87 4.14005 -1.95868 0
M  V30 12496 N 1229.37 4.21052 -1.93053 0
M  V30 12497 C 1230.1 5.16341 -2.49358 0
M  V30 12498 N 1229.6 6.17396 -3.14316 0
M  V30 12499 N 1231.39 5.08585 -2.3937 0
M  V30 12500 H 1223.54 1.26827 -1.70378 0
M  V30 12501 H 1225.8 0.614983 -0.721457 0
M  V30 12502 H 1225.51 2.69922 -2.25467 0
M  V30 12503 H 1225.38 3.68443 -0.808065 0
M  V30 12504 H 1227.77 2.94747 -0.144248 0
M  V30 12505 H 1227.85 1.97788 -1.62214 0
M  V30 12506 H 1227.5 4.09527 -3.00416 0
M  V30 12507 H 1227.43 5.04776 -1.50028 0
M  V30 12508 H 1229.92 3.48669 -1.45733 0
M  V30 12509 H 1230.23 6.86572 -3.54737 0
M  V30 12510 H 1228.57 6.17772 -3.18407 0
M  V30 12511 H 1231.77 4.28573 -1.88262 0
M  V30 12512 H 1231.94 5.8267 -2.83549 0
M  V30 12513 N 1225.34 0.486708 1.49896 0
M  V30 12514 C 1226.57 -0.0622999 2.07306 0
M  V30 12515 C 1226.99 -1.31353 1.3464 0
M  V30 12516 O 1226.35 -1.76861 0.398752 0
M  V30 12517 C 1226.4 -0.313481 3.59235 0
M  V30 12518 O 1225.5 -1.39101 3.88233 0
M  V30 12519 H 1224.85 0.0198885 0.663702 0
M  V30 12520 H 1227.38 0.682232 1.92891 0
M  V30 12521 H 1227.39 -0.549302 4.04285 0
M  V30 12522 H 1226.06 0.600767 4.11538 0
M  V30 12523 H 1224.64 -1.14127 3.55006 0
M  V30 12524 N 1226.82 -1.56058 0.219941 0
M  V30 12525 C 1228.07 -1.98554 -0.412808 0
M  V30 12526 C 1228.4 -1.10742 -1.5953 0
M  V30 12527 O 1227.68 -0.164757 -1.93801 0
M  V30 12528 C 1227.96 -3.4995 -0.848923 0
M  V30 12529 C 1227.81 -4.48535 0.337094 0
M  V30 12530 C 1229.13 -4.05703 -1.70567 0
M  V30 12531 H 1226.25 -0.721869 -0.148576 0
M  V30 12532 H 1228.89 -1.87356 0.315852 0
M  V30 12533 H 1227.04 -3.59624 -1.46979 0
M  V30 12534 H 1228.72 -4.50874 0.975216 0
M  V30 12535 H 1226.96 -4.22474 0.984798 0
M  V30 12536 H 1227.63 -5.51999 -0.0109665 0
M  V30 12537 H 1230.11 -3.98964 -1.18182 0
M  V30 12538 H 1228.98 -5.11955 -1.97972 0
M  V30 12539 H 1229.24 -3.52487 -2.66844 0
M  V30 12540 N 1228.3 0.053464 -1.57509 0
M  V30 12541 C 1229.55 0.750212 -1.88414 0
M  V30 12542 C 1229.88 1.76288 -0.814619 0
M  V30 12543 O 1229.16 1.93728 0.173136 0
M  V30 12544 C 1229.44 1.44176 -3.29978 0
M  V30 12545 C 1229.29 0.444263 -4.47601 0
M  V30 12546 C 1230.61 2.38207 -3.70061 0
M  V30 12547 H 1227.73 0.271266 -0.685262 0
M  V30 12548 H 1230.37 0.0131676 -1.89995 0
M  V30 12549 H 1228.52 2.07001 -3.2876 0
M  V30 12550 H 1230.19 -0.180182 -4.60948 0
M  V30 12551 H 1228.44 -0.238771 -4.33142 0
M  V30 12552 H 1229.11 0.966134 -5.43479 0
M  V30 12553 H 1231.58 1.85446 -3.7249 0
M  V30 12554 H 1230.46 2.83588 -4.69967 0
M  V30 12555 H 1230.72 3.23821 -3.00985 0
M  V30 12556 N 1229.78 1.54207 0.325255 0
M  V30 12557 C 1231.03 1.72587 1.06497 0
M  V30 12558 C 1231.36 0.497228 1.87727 0
M  V30 12559 O 1230.63 -0.505804 1.87808 0
M  V30 12560 C 1230.92 3.00046 1.99109 0
M  V30 12561 C 1230.77 4.33158 1.21221 0
M  V30 12562 C 1232.09 3.23251 2.98658 0
M  V30 12563 H 1229.21 0.627974 0.38577 0
M  V30 12564 H 1231.85 1.869 0.34179 0
M  V30 12565 H 1230 2.87973 2.60775 0
M  V30 12566 H 1231.67 4.57111 0.620289 0
M  V30 12567 H 1229.91 4.30739 0.514462 0
M  V30 12568 H 1230.59 5.18558 1.89214 0
M  V30 12569 H 1233.06 3.34774 2.47114 0
M  V30 12570 H 1231.94 4.13796 3.60645 0
M  V30 12571 H 1232.2 2.40401 3.71026 0
M  V30 12572 N 1231.26 -0.58723 1.46251 0
M  V30 12573 C 1232.21 -1.69141 1.5289 0
M  V30 12574 C 1233.19 -1.56096 0.39024 0
M  V30 12575 O 1234.38 -1.65087 0.638373 0
M  V30 12576 C 1231.51 -3.07922 1.51785 0
M  V30 12577 C 1230.6 -3.2628 2.70928 0
M  V30 12578 N 1230.99 -3.14815 3.95885 0
M  V30 12579 C 1229.29 -3.57207 2.67056 0
M  V30 12580 C 1229.99 -3.35055 4.75514 0
M  V30 12581 N 1228.96 -3.59999 4.0731 0
M  V30 12582 H 1232.77 -1.588 2.47305 0
M  V30 12583 H 1230.28 -0.791124 1.41827 0
M  V30 12584 H 1232.28 -3.87164 1.54628 0
M  V30 12585 H 1230.94 -3.19397 0.584435 0
M  V30 12586 H 1231.95 -2.92778 4.27202 0
M  V30 12587 H 1228.63 -3.75394 1.82717 0
M  V30 12588 H 1230.02 -3.31412 5.84479 0
M  V30 12589 N 1232.74 -1.33881 -0.831482 0
M  V30 12590 C 1234.15 -1.23112 -1.40358 0
M  V30 12591 C 1234.5 0.146944 -1.95649 0
M  V30 12592 O 1233.62 1.04689 -1.89391 0
M  V30 12593 C 1234.22 -2.22899 -2.5515 0
M  V30 12594 C 1232.78 -2.15946 -3.08292 0
M  V30 12595 C 1231.92 -2.09975 -1.81124 0
M  V30 12596 H 1234.87 -1.45372 -0.63661 0
M  V30 12597 H 1234.9 -1.841 -3.32997 0
M  V30 12598 H 1234.41 -3.23186 -2.14878 0
M  V30 12599 H 1232.51 -1.18987 -3.53091 0
M  V30 12600 H 1232.62 -3.06822 -3.67964 0
M  V30 12601 H 1230.99 -1.55564 -2.01673 0
M  V30 12602 H 1231.77 -3.12082 -1.43037 0
M  V30 12603 N 1234.21 1.05064 -1.1747 0
M  V30 12604 C 1235.46 1.78089 -0.963883 0
M  V30 12605 C 1235.79 1.87766 0.507365 0
M  V30 12606 O 1235.04 1.37477 1.39279 0
M  V30 12607 C 1235.34 3.21961 -1.55164 0
M  V30 12608 C 1235.01 3.32339 -3.04732 0
M  V30 12609 C 1233.67 3.34878 -3.45557 0
M  V30 12610 C 1236.02 3.3325 -4.00741 0
M  V30 12611 C 1233.35 3.35959 -4.80987 0
M  V30 12612 C 1235.7 3.3587 -5.36073 0
M  V30 12613 C 1234.37 3.36697 -5.7636 0
M  V30 12614 H 1233.64 0.651672 -0.35271 0
M  V30 12615 H 1236.28 1.23471 -1.4638 0
M  V30 12616 H 1234.59 3.79514 -0.973471 0
M  V30 12617 H 1236.29 3.77087 -1.36406 0
M  V30 12618 H 1232.88 3.31076 -2.72188 0
M  V30 12619 H 1237.06 3.30488 -3.70258 0
M  V30 12620 H 1232.32 3.34911 -5.11512 0
M  V30 12621 H 1236.49 3.35524 -6.10243 0
M  V30 12622 H 1234.12 3.37288 -6.81279 0
M  V30 12623 N 1235.69 0.975146 1.23809 0
M  V30 12624 C 1236.65 0.516157 2.23312 0
M  V30 12625 C 1237.65 -0.39136 1.55965 0
M  V30 12626 O 1238.84 -0.185783 1.73206 0
M  V30 12627 C 1235.98 -0.251534 3.39971 0
M  V30 12628 H 1237.17 1.3959 2.65433 0
M  V30 12629 H 1234.72 0.760493 1.36551 0
M  V30 12630 H 1235.46 -1.14805 3.03299 0
M  V30 12631 H 1235.24 0.399825 3.90056 0
M  V30 12632 H 1236.73 -0.561438 4.13809 0
M  V30 12633 N 1237.17 -1.38817 0.746158 0
M  V30 12634 C 1238.42 -1.99885 0.298425 0
M  V30 12635 C 1238.74 -1.59518 -1.12156 0
M  V30 12636 O 1238.01 -0.848568 -1.76568 0
M  V30 12637 H 1236.59 -0.739247 0.107347 0
M  V30 12638 H 1239.25 -1.69696 0.9586 0
M  V30 12639 H 1238.35 -3.10067 0.355656 0
M  V30 12640 N 1238.65 -0.49465 -1.49636 0
M  V30 12641 C 1239.88 0.0490417 -2.06542 0
M  V30 12642 C 1240.29 1.31945 -1.35599 0
M  V30 12643 O 1239.63 1.78691 -0.426047 0
M  V30 12644 C 1239.69 0.379426 -3.57492 0
M  V30 12645 C 1239.35 -0.792345 -4.50079 0
M  V30 12646 C 1240.35 -1.68106 -4.91972 0
M  V30 12647 C 1238.04 -0.98935 -4.9246 0
M  V30 12648 C 1240.03 -2.75099 -5.74978 0
M  V30 12649 C 1237.72 -2.06247 -5.75244 0
M  V30 12650 C 1238.72 -2.94163 -6.16407 0
M  V30 12651 O 1238.4 -3.99623 -6.97536 0
M  V30 12652 H 1238.14 -0.0143708 -0.675847 0
M  V30 12653 H 1240.69 -0.689358 -1.93486 0
M  V30 12654 H 1238.92 1.17133 -3.68533 0
M  V30 12655 H 1240.61 0.860979 -3.96664 0
M  V30 12656 H 1241.37 -1.54065 -4.59879 0
M  V30 12657 H 1237.25 -0.314435 -4.59926 0
M  V30 12658 H 1240.8 -3.4375 -6.07027 0
M  V30 12659 H 1236.69 -2.20285 -6.06749 0
M  V30 12660 H 1237.46 -3.96899 -7.15831 0
M  V30 12661 N 1240.13 1.55939 -0.228214 0
M  V30 12662 C 1241.06 2.2357 0.6737 0
M  V30 12663 C 1242.04 1.20964 1.1959 0
M  V30 12664 O 1243.22 1.49568 1.23867 0
M  V30 12665 C 1240.35 2.92076 1.87906 0
M  V30 12666 C 1239.31 4.01211 1.49043 0
M  V30 12667 C 1238.63 4.57047 2.77511 0
M  V30 12668 C 1239.93 5.17914 0.67544 0
M  V30 12669 H 1241.63 2.99199 0.109806 0
M  V30 12670 H 1239.17 1.43908 0.0513732 0
M  V30 12671 H 1241.12 3.38083 2.51551 0
M  V30 12672 H 1239.85 2.13906 2.46803 0
M  V30 12673 H 1238.51 3.55945 0.877411 0
M  V30 12674 H 1238.16 3.75599 3.34566 0
M  V30 12675 H 1237.86 5.30707 2.52239 0
M  V30 12676 H 1239.38 5.05776 3.42087 0
M  V30 12677 H 1240.79 5.60261 1.21575 0
M  V30 12678 H 1239.19 5.97847 0.519536 0
M  V30 12679 H 1240.26 4.83866 -0.316495 0
M  V30 12680 N 1241.6 -0.0451101 1.57535 0
M  V30 12681 C 1242.85 -0.739114 1.88529 0
M  V30 12682 C 1243.18 -1.76208 0.823468 0
M  V30 12683 O 1242.43 -1.94893 -0.177512 0
M  V30 12684 C 1242.73 -1.45938 3.26247 0
M  V30 12685 C 1242.4 -0.57391 4.47233 0
M  V30 12686 C 1241.06 -0.329974 4.80067 0
M  V30 12687 C 1243.41 0.0384272 5.21186 0
M  V30 12688 C 1240.74 0.535339 5.84253 0
M  V30 12689 C 1243.09 0.891349 6.26289 0
M  V30 12690 C 1241.76 1.1449 6.57608 0
M  V30 12691 H 1241.03 -0.270461 0.689878 0
M  V30 12692 H 1243.67 0.000714103 1.915 0
M  V30 12693 H 1241.98 -2.27212 3.1919 0
M  V30 12694 H 1243.68 -2.00162 3.47471 0
M  V30 12695 H 1240.27 -0.774181 4.2155 0
M  V30 12696 H 1244.45 -0.137096 4.96111 0
M  V30 12697 H 1239.71 0.740253 6.06902 0
M  V30 12698 H 1243.88 1.37243 6.82743 0
M  V30 12699 H 1241.51 1.81715 7.38162 0
M  V30 12700 N 1243.08 -1.54377 -0.317073 0
M  V30 12701 C 1244.33 -1.72893 -1.05424 0
M  V30 12702 C 1244.66 -0.506082 -1.87801 0
M  V30 12703 O 1243.91 0.51213 -1.8888 0
M  V30 12704 C 1244.21 -2.96066 -2.00199 0
M  V30 12705 C 1243.88 -4.30551 -1.33927 0
M  V30 12706 C 1242.54 -4.67112 -1.15584 0
M  V30 12707 C 1244.89 -5.13986 -0.864158 0
M  V30 12708 C 1242.22 -5.84701 -0.483892 0
M  V30 12709 C 1244.57 -6.32264 -0.206006 0
M  V30 12710 C 1243.24 -6.67499 -0.0104849 0
M  V30 12711 H 1242.51 -0.63266 -0.385776 0
M  V30 12712 H 1245.15 -1.88623 -0.330722 0
M  V30 12713 H 1243.46 -2.7505 -2.79024 0
M  V30 12714 H 1245.15 -3.07586 -2.57278 0
M  V30 12715 H 1241.74 -4.0179 -1.49207 0
M  V30 12716 H 1245.93 -4.86252 -0.993635 0
M  V30 12717 H 1241.18 -6.10555 -0.32127 0
M  V30 12718 H 1245.36 -6.96192 0.170108 0
M  V30 12719 H 1242.99 -7.58472 0.512209 0
M  V30 12720 N 1244.56 0.579466 -1.4656 0
M  V30 12721 C 1245.79 1.36351 -1.55615 0
M  V30 12722 C 1246.2 1.87755 -0.198405 0
M  V30 12723 O 1245.56 1.63795 0.804834 0
M  V30 12724 C 1245.61 2.54881 -2.56355 0
M  V30 12725 O 1245.33 2.05607 -3.86856 0
M  V30 12726 C 1246.83 3.47391 -2.75381 0
M  V30 12727 H 1244.05 0.416426 -0.526147 0
M  V30 12728 H 1246.6 0.704134 -1.91995 0
M  V30 12729 H 1244.75 3.16802 -2.2297 0
M  V30 12730 H 1245.17 2.82823 -4.41714 0
M  V30 12731 H 1246.64 4.27031 -3.49783 0
M  V30 12732 H 1247.12 3.99532 -1.82403 0
M  V30 12733 H 1247.72 2.91303 -3.09875 0
M  V30 12734 N 1246.04 1.3432 0.824371 0
M  V30 12735 C 1247.32 1.17178 1.56616 0
M  V30 12736 C 1247.7 -0.256195 2.0954 0
M  V30 12737 O 1247.04 -1.25732 1.90798 0
M  V30 12738 C 1247.25 2.22511 2.68867 0
M  V30 12739 C 1248.6 2.57414 3.37673 0
M  V30 12740 O 1249.63 2.2129 2.79122 0
M  V30 12741 O 1248.48 3.19462 4.43403 0
M  V30 12742 H 1245.58 0.454141 0.691147 0
M  V30 12743 H 1248.12 1.45948 0.865869 0
M  V30 12744 H 1246.9 3.18366 2.27505 0
M  V30 12745 H 1246.52 1.9491 3.46548 0
M  V30 12746 N 1247.52 -1.0444 1.18026 0
M  V30 12747 C 1248.76 -1.77972 0.984767 0
M  V30 12748 C 1249.12 -1.86294 -0.480861 0
M  V30 12749 O 1248.41 -1.35724 -1.35239 0
M  V30 12750 C 1248.6 -3.21134 1.56869 0
M  V30 12751 C 1248.43 -3.26765 3.08958 0
M  V30 12752 C 1247.2 -3.35612 3.77747 0
M  V30 12753 C 1249.4 -3.15083 4.06482 0
M  V30 12754 N 1247.38 -3.30454 5.17372 0
M  V30 12755 C 1248.75 -3.17382 5.32606 0
M  V30 12756 C 1250.81 -2.99099 3.98051 0
M  V30 12757 C 1249.51 -3.05338 6.51277 0
M  V30 12758 C 1251.54 -2.88399 5.16314 0
M  V30 12759 C 1250.9 -2.91338 6.41328 0
M  V30 12760 H 1247 -0.66322 0.414323 0
M  V30 12761 H 1249.58 -1.24444 1.49739 0
M  V30 12762 H 1247.75 -3.73016 1.0823 0
M  V30 12763 H 1249.49 -3.82943 1.30908 0
M  V30 12764 H 1246.24 -3.41189 3.28462 0
M  V30 12765 H 1246.67 -3.31324 5.90384 0
M  V30 12766 H 1251.31 -2.95659 3.02234 0
M  V30 12767 H 1249.03 -3.07531 7.47296 0
M  V30 12768 H 1252.61 -2.77091 5.11578 0
M  V30 12769 H 1251.49 -2.83141 7.31301 0
M  V30 12770 N 1248.99 -0.981699 -1.2329 0
M  V30 12771 C 1250.24 -0.651302 -1.9174 0
M  V30 12772 C 1250.57 0.815318 -1.76587 0
M  V30 12773 O 1249.82 1.60377 -1.1215 0
M  V30 12774 C 1250.12 -0.989244 -3.43437 0
M  V30 12775 C 1249.79 -2.44629 -3.78771 0
M  V30 12776 C 1248.45 -2.84449 -3.88127 0
M  V30 12777 C 1250.8 -3.39123 -3.95784 0
M  V30 12778 C 1248.13 -4.17775 -4.11923 0
M  V30 12779 C 1250.48 -4.72095 -4.21081 0
M  V30 12780 C 1249.15 -5.11672 -4.28659 0
M  V30 12781 H 1248.42 -0.238328 -0.701627 0
M  V30 12782 H 1251.06 -1.2358 -1.46288 0
M  V30 12783 H 1249.37 -0.322677 -3.90469 0
M  V30 12784 H 1251.07 -0.711796 -3.94632 0
M  V30 12785 H 1247.66 -2.12759 -3.72064 0
M  V30 12786 H 1251.84 -3.09536 -3.87945 0
M  V30 12787 H 1247.1 -4.48043 -4.16013 0
M  V30 12788 H 1251.27 -5.45271 -4.33189 0
M  V30 12789 H 1248.9 -6.15003 -4.46851 0
M  V30 12790 N 1250.47 1.3842 -0.753509 0
M  V30 12791 C 1251.89 1.53668 -0.431095 0
M  V30 12792 C 1252.09 1.71626 1.05578 0
M  V30 12793 O 1251.14 1.72723 1.84182 0
M  V30 12794 C 1252.46 2.74381 -1.23027 0
M  V30 12795 C 1254.01 2.8823 -1.22034 0
M  V30 12796 C 1254.48 4.11904 -2.00248 0
M  V30 12797 N 1255.97 4.18981 -1.97508 0
M  V30 12798 C 1256.71 5.13667 -2.5482 0
M  V30 12799 N 1256.2 6.14027 -3.20846 0
M  V30 12800 N 1258 5.06017 -2.44751 0
M  V30 12801 H 1250.15 1.25012 -1.71714 0
M  V30 12802 H 1252.41 0.607296 -0.727939 0
M  V30 12803 H 1252.12 2.67515 -2.28317 0
M  V30 12804 H 1251.99 3.67565 -0.847098 0
M  V30 12805 H 1254.38 2.94578 -0.175502 0
M  V30 12806 H 1254.46 1.96057 -1.64303 0
M  V30 12807 H 1254.1 4.06318 -3.04742 0
M  V30 12808 H 1254.03 5.03157 -1.55373 0
M  V30 12809 H 1256.52 3.47104 -1.49423 0
M  V30 12810 H 1256.84 6.82771 -3.61999 0
M  V30 12811 H 1255.18 6.1436 -3.24941 0
M  V30 12812 H 1258.37 4.26552 -1.92797 0
M  V30 12813 H 1258.54 5.7963 -2.89713 0
M  V30 12814 N 1251.95 0.502579 1.49372 0
M  V30 12815 C 1253.36 0.055187 1.86618 0
M  V30 12816 C 1253.71 -1.35938 1.41476 0
M  V30 12817 O 1252.84 -2.01333 0.793338 0
M  V30 12818 C 1253.43 0.0933734 3.38671 0
M  V30 12819 C 1251.99 -0.298685 3.75213 0
M  V30 12820 C 1251.14 0.465216 2.7337 0
M  V30 12821 H 1254.09 0.715281 1.41667 0
M  V30 12822 H 1254.11 -0.701549 3.73977 0
M  V30 12823 H 1253.62 1.12303 3.71497 0
M  V30 12824 H 1251.72 -1.33151 3.47996 0
M  V30 12825 H 1251.84 0.0218637 4.79095 0
M  V30 12826 H 1250.2 -0.0851469 2.54558 0
M  V30 12827 H 1250.98 1.49498 3.09039 0
M  V30 12828 N 1253.43 -1.55816 0.23648 0
M  V30 12829 C 1254.39 -2.1967 -0.654041 0
M  V30 12830 C 1255.39 -1.1629 -1.11056 0
M  V30 12831 O 1256.58 -1.41435 -1.01695 0
M  V30 12832 C 1253.71 -2.83196 -1.89771 0
M  V30 12833 H 1254.91 -2.99743 -0.0970911 0
M  V30 12834 H 1252.46 -1.56295 -0.013098 0
M  V30 12835 H 1253.19 -2.07033 -2.49616 0
M  V30 12836 H 1252.98 -3.58915 -1.57868 0
M  V30 12837 H 1254.47 -3.32095 -2.53184 0
M  V30 12838 N 1254.91 0.036755 -1.57557 0
M  V30 12839 C 1255.85 1.03975 -2.06053 0
M  V30 12840 C 1256.82 1.36384 -0.948089 0
M  V30 12841 O 1258.01 1.46853 -1.21815 0
M  V30 12842 C 1255.15 2.33796 -2.53837 0
M  V30 12843 C 1254.26 2.07614 -3.78841 0
M  V30 12844 C 1253.4 3.3125 -4.15267 0
M  V30 12845 C 1252.44 3.00587 -5.33211 0
M  V30 12846 N 1251.57 4.16653 -5.65106 0
M  V30 12847 H 1256.41 0.61924 -2.91495 0
M  V30 12848 H 1253.95 0.294151 -1.44129 0
M  V30 12849 H 1255.91 3.09639 -2.79606 0
M  V30 12850 H 1254.54 2.73584 -1.71323 0
M  V30 12851 H 1253.59 1.22302 -3.60203 0
M  V30 12852 H 1254.9 1.80989 -4.64806 0
M  V30 12853 H 1254.06 4.15466 -4.42123 0
M  V30 12854 H 1252.79 3.60981 -3.27939 0
M  V30 12855 H 1251.8 2.14772 -5.06115 0
M  V30 12856 H 1253.02 2.72142 -6.22186 0
M  V30 12857 H 1250.97 4.4635 -4.80737 0
M  V30 12858 H 1250.89 3.93425 -6.45564 0
M  V30 12859 H 1252.16 5.01764 -5.96534 0
M  V30 12860 N 1256.39 1.54543 0.308881 0
M  V30 12861 C 1257.63 1.7266 1.04266 0
M  V30 12862 C 1257.95 0.51518 1.88694 0
M  V30 12863 O 1259.15 0.577988 2.65276 0
M  V30 12864 C 1257.61 3.05448 1.9034 0
M  V30 12865 C 1257.22 4.34043 1.10953 0
M  V30 12866 C 1258.96 3.32925 2.63365 0
M  V30 12867 C 1256.87 5.57886 1.96258 0
M  V30 12868 H 1255.8 0.643485 0.392992 0
M  V30 12869 H 1258.45 1.8103 0.300077 0
M  V30 12870 H 1256.83 2.91023 2.68555 0
M  V30 12871 H 1258.01 4.59279 0.374069 0
M  V30 12872 H 1256.32 4.13442 0.495453 0
M  V30 12873 H 1258.92 4.22649 3.27524 0
M  V30 12874 H 1259.26 2.51451 3.3178 0
M  V30 12875 H 1259.79 3.48285 1.92204 0
M  V30 12876 H 1256.53 6.42005 1.32326 0
M  V30 12877 H 1256.05 5.36847 2.67498 0
M  V30 12878 H 1257.73 5.94846 2.54494 0
M  V30 12879 N 1257.86 -0.571685 1.46866 0
M  V30 12880 C 1258.8 -1.69502 1.52788 0
M  V30 12881 C 1259.77 -1.58071 0.381109 0
M  V30 12882 O 1260.96 -1.79132 0.586844 0
M  V30 12883 C 1258.09 -3.07642 1.41682 0
M  V30 12884 C 1257.13 -3.37562 2.6068 0
M  V30 12885 S 1257.96 -3.28413 4.22971 0
M  V30 12886 C 1259.12 -4.69073 4.14393 0
M  V30 12887 H 1259.35 -1.64221 2.47828 0
M  V30 12888 H 1256.89 -0.751334 1.34886 0
M  V30 12889 H 1258.84 -3.8733 1.35962 0
M  V30 12890 H 1257.51 -3.10403 0.480517 0
M  V30 12891 H 1256.7 -4.38233 2.48933 0
M  V30 12892 H 1256.3 -2.65464 2.63448 0
M  V30 12893 H 1258.59 -5.59706 3.81754 0
M  V30 12894 H 1259.54 -4.85877 5.15101 0
M  V30 12895 H 1259.94 -4.4644 3.45473 0
M  V30 12896 N 1259.34 -1.34755 -0.817236 0
M  V30 12897 C 1260.76 -1.14561 -1.11121 0
M  V30 12898 C 1260.96 0.0490776 -2.0144 0
M  V30 12899 O 1260.01 0.722897 -2.41931 0
M  V30 12900 C 1261.33 -2.44356 -1.75244 0
M  V30 12901 C 1262.87 -2.50465 -1.87713 0
M  V30 12902 C 1263.35 -3.80276 -2.55253 0
M  V30 12903 N 1264.84 -3.81468 -2.62747 0
M  V30 12904 C 1265.58 -4.78634 -3.15749 0
M  V30 12905 N 1265.07 -5.86184 -3.6927 0
M  V30 12906 N 1266.86 -4.66083 -3.14203 0
M  V30 12907 H 1259.02 -2.11293 -0.2166 0
M  V30 12908 H 1261.28 -0.934629 -0.158661 0
M  V30 12909 H 1260.98 -3.31899 -1.16344 0
M  V30 12910 H 1260.86 -2.58117 -2.75055 0
M  V30 12911 H 1263.25 -1.63358 -2.45761 0
M  V30 12912 H 1263.33 -2.40627 -0.867887 0
M  V30 12913 H 1262.97 -4.67776 -1.97858 0
M  V30 12914 H 1262.9 -3.87399 -3.56693 0
M  V30 12915 H 1265.39 -3.03753 -2.24817 0
M  V30 12916 H 1265.7 -6.56332 -4.0798 0
M  V30 12917 H 1264.05 -5.8989 -3.67498 0
M  V30 12918 H 1267.24 -3.81206 -2.7166 0
M  V30 12919 H 1267.41 -5.41973 -3.55203 0
M  V30 12920 N 1260.82 1.03812 -1.18578 0
M  V30 12921 C 1261.78 2.10049 -0.91718 0
M  V30 12922 C 1262.78 1.60498 0.0985122 0
M  V30 12923 O 1263.97 1.73674 -0.135213 0
M  V30 12924 C 1261.1 3.38813 -0.376599 0
M  V30 12925 H 1262.3 2.3531 -1.85927 0
M  V30 12926 H 1259.85 1.20277 -0.998156 0
M  V30 12927 H 1260.59 3.19216 0.571983 0
M  V30 12928 H 1260.37 3.76096 -1.10881 0
M  V30 12929 H 1261.86 4.17084 -0.207453 0
M  V30 12930 N 1262.3 0.988223 1.22768 0
M  V30 12931 C 1263.54 0.672085 1.91975 0
M  V30 12932 C 1263.9 -0.786719 1.7558 0
M  V30 12933 O 1263.19 -1.561 1.111 0
M  V30 12934 C 1263.39 1.00744 3.42907 0
M  V30 12935 C 1263.21 2.4973 3.73985 0
M  V30 12936 C 1261.98 3.16058 3.94253 0
M  V30 12937 C 1264.18 3.47831 3.78838 0
M  V30 12938 N 1262.16 4.54568 4.12603 0
M  V30 12939 C 1263.54 4.7178 4.02273 0
M  V30 12940 C 1265.59 3.42203 3.61665 0
M  V30 12941 C 1264.29 5.90789 4.10318 0
M  V30 12942 C 1266.32 4.60584 3.70967 0
M  V30 12943 C 1265.68 5.83331 3.94847 0
M  V30 12944 H 1261.78 0.297129 0.723352 0
M  V30 12945 H 1264.36 1.26728 1.47811 0
M  V30 12946 H 1262.54 0.440869 3.8589 0
M  V30 12947 H 1264.27 0.647774 3.99482 0
M  V30 12948 H 1261.02 2.66536 3.91479 0
M  V30 12949 H 1261.45 5.26399 4.25715 0
M  V30 12950 H 1266.09 2.48323 3.42193 0
M  V30 12951 H 1263.81 6.85078 4.28596 0
M  V30 12952 H 1267.39 4.57813 3.59024 0
M  V30 12953 H 1266.27 6.73403 4.01868 0
M  V30 12954 N 1263.78 -1.38018 0.760839 0
M  V30 12955 C 1265 -2.04757 0.330038 0
M  V30 12956 C 1265.43 -1.57009 -1.03585 0
M  V30 12957 O 1264.78 -0.725349 -1.66158 0
M  V30 12958 C 1264.83 -3.58696 0.370082 0
M  V30 12959 O 1263.94 -4.07507 -0.633361 0
M  V30 12960 H 1263.28 -0.648023 0.144782 0
M  V30 12961 H 1265.81 -1.7655 1.03399 0
M  V30 12962 H 1265.82 -4.07387 0.223515 0
M  V30 12963 H 1264.49 -3.92806 1.36661 0
M  V30 12964 H 1263.07 -3.70165 -0.45081 0
M  V30 12965 N 1265.25 -0.510493 -1.49103 0
M  V30 12966 C 1266.53 0.0941122 -1.95373 0
M  V30 12967 C 1266.91 1.53207 -1.45227 0
M  V30 12968 O 1266.26 2.18452 -0.670161 0
M  V30 12969 C 1266.47 -0.00302507 -3.49 0
M  V30 12970 C 1267.82 0.166117 -4.24275 0
M  V30 12971 O 1268.84 0.0717097 -3.56128 0
M  V30 12972 O 1267.7 0.361155 -5.45305 0
M  V30 12973 H 1264.79 0.0900741 -0.82208 0
M  V30 12974 H 1267.34 -0.573707 -1.59708 0
M  V30 12975 H 1266.11 -1.00545 -3.78162 0
M  V30 12976 H 1265.73 0.704518 -3.91308 0
M  V30 12977 N 1266.73 1.55688 -0.24474 0
M  V30 12978 C 1267.98 1.98498 0.379852 0
M  V30 12979 C 1268.3 1.13416 1.58625 0
M  V30 12980 O 1267.57 0.216456 1.947 0
M  V30 12981 H 1266.15 0.73312 0.143334 0
M  V30 12982 H 1268.81 1.91858 -0.343027 0
M  V30 12983 H 1267.91 3.04367 0.690463 0
M  V30 12984 N 1268.21 -0.0283989 1.57574 0
M  V30 12985 C 1269.43 -0.734537 1.93957 0
M  V30 12986 C 1269.86 -1.68062 0.844787 0
M  V30 12987 O 1269.22 -1.802 -0.199432 0
M  V30 12988 C 1269.27 -1.46716 3.29404 0
M  V30 12989 O 1268.37 -2.58036 3.217 0
M  V30 12990 H 1267.71 -0.197507 0.633946 0
M  V30 12991 H 1270.24 0.0163258 2.04593 0
M  V30 12992 H 1270.25 -1.83693 3.64309 0
M  V30 12993 H 1268.93 -0.773292 4.08648 0
M  V30 12994 H 1267.5 -2.23597 2.98427 0
M  V30 12995 N 1269.69 -1.54705 -0.300681 0
M  V30 12996 C 1270.64 -1.82062 -1.37249 0
M  V30 12997 C 1271.62 -0.677804 -1.45927 0
M  V30 12998 O 1272.81 -0.938447 -1.50074 0
M  V30 12999 C 1269.94 -2.07168 -2.73745 0
M  V30 13000 C 1269.03 -3.27634 -2.69289 0
M  V30 13001 N 1269.42 -4.48182 -2.34449 0
M  V30 13002 C 1267.72 -3.29668 -3.00391 0
M  V30 13003 C 1268.42 -5.30199 -2.39298 0
M  V30 13004 N 1267.39 -4.67929 -2.76665 0
M  V30 13005 H 1271.2 -2.72829 -1.09277 0
M  V30 13006 H 1268.71 -1.54209 -0.509259 0
M  V30 13007 H 1270.71 -2.24914 -3.51026 0
M  V30 13008 H 1269.37 -1.17668 -3.02629 0
M  V30 13009 H 1270.38 -4.74778 -2.06898 0
M  V30 13010 H 1267.06 -2.50276 -3.34168 0
M  V30 13011 H 1268.45 -6.36519 -2.15157 0
M  V30 13012 N 1271.17 0.563888 -1.47167 0
M  V30 13013 C 1272.1 1.68137 -1.62025 0
M  V30 13014 C 1273.08 1.63481 -0.469899 0
M  V30 13015 O 1274.26 1.81206 -0.698432 0
M  V30 13016 C 1271.39 3.06779 -1.62801 0
M  V30 13017 C 1270.35 3.26278 -2.76996 0
M  V30 13018 C 1269.67 4.65638 -2.62841 0
M  V30 13019 C 1270.97 3.12295 -4.18651 0
M  V30 13020 H 1272.67 1.55958 -2.55573 0
M  V30 13021 H 1270.21 0.74887 -1.22996 0
M  V30 13022 H 1272.17 3.84795 -1.71787 0
M  V30 13023 H 1270.89 3.19901 -0.658097 0
M  V30 13024 H 1269.55 2.50668 -2.67509 0
M  V30 13025 H 1269.2 4.75551 -1.63892 0
M  V30 13026 H 1268.9 4.79635 -3.39447 0
M  V30 13027 H 1270.42 5.45798 -2.73746 0
M  V30 13028 H 1271.83 3.80136 -4.2915 0
M  V30 13029 H 1270.23 3.37805 -4.95992 0
M  V30 13030 H 1271.3 2.09126 -4.37486 0
M  V30 13031 N 1272.64 1.35187 0.810078 0
M  V30 13032 C 1273.57 1.30481 1.93641 0
M  V30 13033 C 1274.56 0.179875 1.69146 0
M  V30 13034 O 1275.74 0.374284 1.90559 0
M  V30 13035 C 1272.87 1.07251 3.30325 0
M  V30 13036 C 1271.82 2.16348 3.69293 0
M  V30 13037 C 1271.15 1.78288 5.04101 0
M  V30 13038 C 1272.45 3.58285 3.80038 0
M  V30 13039 H 1274.14 2.24725 1.97836 0
M  V30 13040 H 1271.69 1.08179 0.950436 0
M  V30 13041 H 1273.64 1.02599 4.08719 0
M  V30 13042 H 1272.37 0.0945203 3.26463 0
M  V30 13043 H 1271.03 2.2009 2.93182 0
M  V30 13044 H 1270.67 0.791163 4.96739 0
M  V30 13045 H 1270.37 2.51315 5.31144 0
M  V30 13046 H 1271.9 1.75155 5.84938 0
M  V30 13047 H 1273.31 3.56884 4.48672 0
M  V30 13048 H 1271.71 4.30044 4.18548 0
M  V30 13049 H 1272.78 3.94691 2.81685 0
M  V30 13050 N 1274.12 -1.03182 1.19127 0
M  V30 13051 C 1275.53 -1.57984 0.994888 0
M  V30 13052 C 1275.88 -1.90898 -0.453019 0
M  V30 13053 O 1275.01 -1.70556 -1.33191 0
M  V30 13054 C 1275.6 -2.8705 1.79966 0
M  V30 13055 C 1274.16 -3.38435 1.64737 0
M  V30 13056 C 1273.31 -2.11912 1.78854 0
M  V30 13057 H 1276.26 -0.857458 1.33542 0
M  V30 13058 H 1276.28 -3.57821 1.294 0
M  V30 13059 H 1275.79 -2.63062 2.85341 0
M  V30 13060 H 1273.9 -3.67416 0.619358 0
M  V30 13061 H 1274.01 -4.11665 2.45089 0
M  V30 13062 H 1272.37 -2.23642 1.21886 0
M  V30 13063 H 1273.16 -1.90369 2.85682 0
M  V30 13064 N 1275.6 -0.99472 -1.22242 0
M  V30 13065 C 1276.85 -0.672596 -1.91322 0
M  V30 13066 C 1277.18 0.793542 -1.77247 0
M  V30 13067 O 1276.45 1.57407 -1.14251 0
M  V30 13068 C 1276.74 -1.08155 -3.43474 0
M  V30 13069 C 1276.59 -2.60638 -3.6659 0
M  V30 13070 C 1277.91 -0.636161 -4.35478 0
M  V30 13071 H 1275.03 -0.24582 -0.694796 0
M  V30 13072 H 1277.67 -1.23857 -1.44082 0
M  V30 13073 H 1275.82 -0.599987 -3.83839 0
M  V30 13074 H 1277.49 -3.16479 -3.35617 0
M  V30 13075 H 1275.74 -3.02624 -3.10808 0
M  V30 13076 H 1276.41 -2.84304 -4.73155 0
M  V30 13077 H 1278.88 -1.04982 -4.02639 0
M  V30 13078 H 1277.76 -0.950584 -5.40606 0
M  V30 13079 H 1278.02 0.4631 -4.39668 0
M  V30 13080 N 1277.08 1.37613 -0.768148 0
M  V30 13081 C 1278.33 1.99023 -0.327543 0
M  V30 13082 C 1278.64 1.61669 1.10103 0
M  V30 13083 O 1279.85 2.16155 1.64284 0
M  V30 13084 C 1278.3 3.55906 -0.534674 0
M  V30 13085 C 1277.91 4.02201 -1.97327 0
M  V30 13086 C 1279.65 4.24208 -0.157512 0
M  V30 13087 C 1277.56 5.51781 -2.12819 0
M  V30 13088 H 1276.49 0.744595 -0.118722 0
M  V30 13089 H 1279.14 1.5719 -0.946764 0
M  V30 13090 H 1277.52 3.95701 0.153951 0
M  V30 13091 H 1278.7 3.73661 -2.69655 0
M  V30 13092 H 1277.01 3.46671 -2.30669 0
M  V30 13093 H 1279.61 5.34107 -0.251824 0
M  V30 13094 H 1279.95 4.06636 0.89177 0
M  V30 13095 H 1280.49 3.89703 -0.798546 0
M  V30 13096 H 1277.23 5.74274 -3.16053 0
M  V30 13097 H 1276.75 5.82017 -1.4497 0
M  V30 13098 H 1278.42 6.17697 -1.92508 0
M  V30 13099 N 1278.56 0.518393 1.4883 0
M  V30 13100 C 1279.5 -0.264197 2.31095 0
M  V30 13101 C 1280.5 -0.946455 1.40494 0
M  V30 13102 O 1281.7 -0.872161 1.57459 0
M  V30 13103 H 1278.08 -0.104065 0.744765 0
M  V30 13104 H 1280.05 0.449375 2.94997 0
M  V30 13105 C 1278.8 -1.30527 3.2227 0
M  V30 13106 H 1278.12 -0.789695 3.91923 0
M  V30 13107 H 1279.56 -1.82449 3.82738 0
M  V30 13108 C 1278.02 -2.33274 2.43073 0
M  V30 13109 O 1278.55 -3.39493 2.14726 0
M  V30 13110 N 1276.76 -2.06189 2.04779 0
M  V30 13111 H 1276.3 -1.19829 2.28033 0
M  V30 13112 H 1276.26 -2.7516 1.521 0
M  V30 13113 N 1280.03 -1.55556 0.252993 0
M  V30 13114 C 1281.26 -2.03491 -0.374022 0
M  V30 13115 C 1281.68 -1.13208 -1.51094 0
M  V30 13116 O 1281.03 -0.147705 -1.81901 0
M  V30 13117 C 1281.09 -3.50724 -0.876047 0
M  V30 13118 O 1280.81 -4.37569 0.215574 0
M  V30 13119 C 1282.31 -4.14448 -1.57313 0
M  V30 13120 H 1279.53 -0.665183 -0.0881644 0
M  V30 13121 H 1282.07 -2.00964 0.378636 0
M  V30 13122 H 1280.23 -3.53766 -1.57886 0
M  V30 13123 H 1280.64 -5.24235 -0.166625 0
M  V30 13124 H 1282.11 -5.19142 -1.87606 0
M  V30 13125 H 1282.59 -3.61299 -2.49719 0
M  V30 13126 H 1283.2 -4.15346 -0.914735 0
M  V30 13127 N 1281.51 0.0200419 -1.57587 0
M  V30 13128 C 1282.74 0.720556 -1.93947 0
M  V30 13129 C 1283.16 1.68407 -0.853499 0
M  V30 13130 O 1282.51 1.81713 0.169337 0
M  V30 13131 C 1282.56 1.46982 -3.3027 0
M  V30 13132 O 1282.28 0.544971 -4.34697 0
M  V30 13133 C 1283.79 2.26667 -3.80968 0
M  V30 13134 H 1281.01 0.201956 -0.639887 0
M  V30 13135 H 1283.55 -0.0251175 -2.04485 0
M  V30 13136 H 1281.7 2.16729 -3.21103 0
M  V30 13137 H 1282.12 1.07139 -5.13441 0
M  V30 13138 H 1283.59 2.74621 -4.78839 0
M  V30 13139 H 1284.07 3.0848 -3.12629 0
M  V30 13140 H 1284.68 1.61976 -3.93248 0
M  V30 13141 N 1282.99 1.54862 0.292472 0
M  V30 13142 C 1283.92 1.89406 1.36556 0
M  V30 13143 C 1284.9 0.753838 1.52484 0
M  V30 13144 O 1286.09 1.01031 1.6585 0
M  V30 13145 C 1283.22 2.14888 2.72838 0
M  V30 13146 C 1282.17 3.3073 2.71665 0
M  V30 13147 C 1281.5 3.41648 4.11316 0
M  V30 13148 C 1282.8 4.67622 2.32651 0
M  V30 13149 H 1284.49 2.79284 1.07894 0
M  V30 13150 H 1282.04 1.34377 0.517585 0
M  V30 13151 H 1283.99 2.3764 3.48002 0
M  V30 13152 H 1282.71 1.2179 3.03042 0
M  V30 13153 H 1281.37 3.07915 1.98958 0
M  V30 13154 H 1281.02 2.46051 4.38711 0
M  V30 13155 H 1280.72 4.19522 4.11431 0
M  V30 13156 H 1282.24 3.6667 4.88248 0
M  V30 13157 H 1283.66 4.90048 2.97533 0
M  V30 13158 H 1282.06 5.48272 2.43963 0
M  V30 13159 H 1283.13 4.67762 1.27777 0
M  V30 13160 N 1284.47 -0.556076 1.47464 0
M  V30 13161 C 1285.72 -1.31061 1.53842 0
M  V30 13162 C 1286.04 -1.93943 0.202806 0
M  V30 13163 O 1285.31 -1.7999 -0.773338 0
M  V30 13164 H 1283.89 -0.486696 0.566689 0
M  V30 13165 H 1286.55 -0.64924 1.83769 0
M  V30 13166 H 1285.65 -2.10354 2.30559 0
M  V30 13167 N 1285.95 -1.35615 -0.802897 0
M  V30 13168 C 1287.19 -1.30293 -1.5619 0
M  V30 13169 C 1287.55 0.120656 -1.92021 0
M  V30 13170 O 1286.84 1.07195 -1.58807 0
M  V30 13171 C 1287.04 -2.14653 -2.8576 0
M  V30 13172 C 1286.86 -3.65072 -2.62589 0
M  V30 13173 C 1285.63 -4.34294 -2.58295 0
M  V30 13174 C 1287.83 -4.58639 -2.32712 0
M  V30 13175 N 1285.81 -5.70437 -2.2688 0
M  V30 13176 C 1287.19 -5.82931 -2.11168 0
M  V30 13177 C 1289.24 -4.47343 -2.18606 0
M  V30 13178 C 1287.94 -6.97196 -1.76946 0
M  V30 13179 C 1289.97 -5.61462 -1.85781 0
M  V30 13180 C 1289.33 -6.84784 -1.65075 0
M  V30 13181 H 1285.43 -0.532038 -0.573114 0
M  V30 13182 H 1288.01 -1.70533 -0.939498 0
M  V30 13183 H 1286.19 -1.76679 -3.45889 0
M  V30 13184 H 1287.92 -2.00823 -3.51358 0
M  V30 13185 H 1284.67 -3.86947 -2.73073 0
M  V30 13186 H 1285.1 -6.42302 -2.13956 0
M  V30 13187 H 1289.74 -3.52599 -2.33311 0
M  V30 13188 H 1287.46 -7.91904 -1.60979 0
M  V30 13189 H 1291.04 -5.54677 -1.7557 0
M  V30 13190 H 1289.92 -7.71594 -1.40046 0
M  V30 13191 N 1287.43 1.02549 -1.19673 0
M  V30 13192 C 1288.84 1.57454 -1.00325 0
M  V30 13193 C 1289.19 1.91136 0.442889 0
M  V30 13194 O 1288.31 1.7126 1.32284 0
M  V30 13195 C 1288.91 2.86091 -1.81486 0
M  V30 13196 C 1287.47 3.37557 -1.6653 0
M  V30 13197 C 1286.61 2.1096 -1.79975 0
M  V30 13198 H 1289.56 0.850364 -1.33994 0
M  V30 13199 H 1289.59 3.5713 -1.31296 0
M  V30 13200 H 1289.1 2.61546 -2.86733 0
M  V30 13201 H 1287.2 3.67083 -0.638834 0
M  V30 13202 H 1287.31 4.1036 -2.47269 0
M  V30 13203 H 1285.68 2.22993 -1.23071 0
M  V30 13204 H 1286.46 1.88852 -2.86688 0
M  V30 13205 N 1288.9 1.00119 1.21713 0
M  V30 13206 C 1289.85 0.551452 2.25969 0
M  V30 13207 C 1290.85 -0.402075 1.64559 0
M  V30 13208 O 1292.05 -0.273685 1.77907 0
M  V30 13209 H 1288.43 0.159968 0.734789 0
M  V30 13210 H 1290.4 1.44201 2.61244 0
M  V30 13211 C 1289.15 -0.109992 3.47526 0
M  V30 13212 H 1288.47 0.614686 3.95046 0
M  V30 13213 H 1289.91 -0.388007 4.22221 0
M  V30 13214 C 1288.37 -1.34798 3.08757 0
M  V30 13215 O 1288.9 -2.44266 3.189 0
M  V30 13216 N 1287.1 -1.2263 2.63458 0
M  V30 13217 H 1286.65 -0.335571 2.55405 0
M  V30 13218 H 1286.61 -2.05565 2.37887 0
M  V30 13219 N 1290.38 -1.37203 0.775435 0
M  V30 13220 C 1291.63 -1.99207 0.340756 0
M  V30 13221 C 1291.95 -1.61861 -1.08747 0
M  V30 13222 O 1291.22 -0.88583 -1.74728 0
M  V30 13223 H 1289.8 -0.736803 0.123004 0
M  V30 13224 H 1292.46 -1.67625 0.994379 0
M  V30 13225 H 1291.56 -3.09243 0.421346 0
M  V30 13226 N 1291.86 -0.526279 -1.48553 0
M  V30 13227 C 1292.79 0.227364 -2.3239 0
M  V30 13228 C 1293.77 0.93862 -1.41859 0
M  V30 13229 O 1294.96 0.925119 -1.70749 0
M  V30 13230 C 1292.09 1.277 -3.22971 0
M  V30 13231 C 1291.04 0.684107 -4.22497 0
M  V30 13232 C 1290.37 1.83612 -5.02186 0
M  V30 13233 C 1291.67 -0.341723 -5.21181 0
M  V30 13234 H 1293.36 -0.472486 -2.95648 0
M  V30 13235 H 1290.91 -0.228669 -1.42173 0
M  V30 13236 H 1292.86 1.81215 -3.80446 0
M  V30 13237 H 1291.58 2.00638 -2.57705 0
M  V30 13238 H 1290.24 0.170505 -3.66203 0
M  V30 13239 H 1289.89 2.55379 -4.33348 0
M  V30 13240 H 1289.59 1.44536 -5.69547 0
M  V30 13241 H 1291.11 2.37513 -5.62512 0
M  V30 13242 H 1292.53 0.106207 -5.73202 0
M  V30 13243 H 1290.92 -0.649673 -5.96573 0
M  V30 13244 H 1291.99 -1.2488 -4.68543 0
M  V30 13245 N 1293.34 1.5542 -0.261239 0
M  V30 13246 C 1294.3 2.20683 0.619011 0
M  V30 13247 C 1295.3 1.18042 1.09192 0
M  V30 13248 O 1296.49 1.43035 0.99432 0
M  V30 13249 C 1293.62 2.86179 1.85242 0
M  V30 13250 H 1294.82 2.99859 0.0493924 0
M  V30 13251 H 1292.37 1.56296 -0.0117687 0
M  V30 13252 H 1293.1 2.10978 2.4629 0
M  V30 13253 H 1292.89 3.61381 1.52138 0
M  V30 13254 H 1294.38 3.36081 2.47869 0
M  V30 13255 N 1294.82 -0.0116844 1.57596 0
M  V30 13256 C 1296.06 -0.698089 1.89234 0
M  V30 13257 C 1296.38 -1.75581 0.862016 0
M  V30 13258 O 1297.58 -2.49602 1.06822 0
M  V30 13259 C 1296.04 -1.29277 3.3588 0
M  V30 13260 C 1295.65 -0.27049 4.47183 0
M  V30 13261 C 1297.39 -1.95805 3.76644 0
M  V30 13262 C 1295.3 -0.874502 5.84899 0
M  V30 13263 H 1294.23 -0.264495 0.706087 0
M  V30 13264 H 1296.88 0.0469451 1.8344 0
M  V30 13265 H 1295.26 -2.08809 3.36474 0
M  V30 13266 H 1296.44 0.499381 4.58086 0
M  V30 13267 H 1294.75 0.293676 4.15363 0
M  V30 13268 H 1297.35 -2.41879 4.76863 0
M  V30 13269 H 1297.69 -2.78366 3.09545 0
M  V30 13270 H 1298.22 -1.23023 3.78299 0
M  V30 13271 H 1294.96 -0.0879263 6.55441 0
M  V30 13272 H 1294.48 -1.61381 5.77682 0
M  V30 13273 H 1296.16 -1.37665 6.32185 0
M  V30 13274 N 1296.29 -1.55015 -0.284256 0
M  V30 13275 C 1297.57 -1.6579 -1.03794 0
M  V30 13276 C 1297.95 -0.517029 -2.04671 0
M  V30 13277 O 1297.3 0.484287 -2.23309 0
M  V30 13278 C 1297.51 -3.04527 -1.70483 0
M  V30 13279 C 1298.86 -3.61903 -2.22062 0
M  V30 13280 O 1299.88 -3.07087 -1.80488 0
M  V30 13281 O 1298.74 -4.57917 -2.98286 0
M  V30 13282 H 1295.83 -0.672906 -0.480757 0
M  V30 13283 H 1298.38 -1.67357 -0.281009 0
M  V30 13284 H 1297.15 -3.79004 -0.973238 0
M  V30 13285 H 1296.77 -3.0681 -2.5289 0
M  V30 13286 N 1297.77 0.548248 -1.47757 0
M  V30 13287 C 1299.02 1.30458 -1.56052 0
M  V30 13288 C 1299.37 1.91096 -0.22363 0
M  V30 13289 O 1298.67 1.75375 0.771644 0
M  V30 13290 C 1298.86 2.42911 -2.62162 0
M  V30 13291 C 1298.69 1.93293 -4.06039 0
M  V30 13292 C 1297.46 1.76727 -4.73387 0
M  V30 13293 C 1299.66 1.47214 -4.9278 0
M  V30 13294 N 1297.64 1.21543 -6.01748 0
M  V30 13295 C 1299.01 1.03855 -6.1124 0
M  V30 13296 C 1301.06 1.35348 -4.79151 0
M  V30 13297 C 1299.77 0.498086 -7.17573 0
M  V30 13298 C 1301.79 0.827023 -5.85589 0
M  V30 13299 C 1301.16 0.40341 -7.03244 0
M  V30 13300 H 1297.25 0.469075 -0.625694 0
M  V30 13301 H 1299.84 0.620405 -1.84551 0
M  V30 13302 H 1298.01 3.08847 -2.35516 0
M  V30 13303 H 1299.74 3.09924 -2.60249 0
M  V30 13304 H 1296.5 1.99709 -4.29433 0
M  V30 13305 H 1296.92 0.960132 -6.70157 0
M  V30 13306 H 1301.56 1.66708 -3.88546 0
M  V30 13307 H 1299.28 0.172123 -8.07917 0
M  V30 13308 H 1302.87 0.738641 -5.77092 0
M  V30 13309 H 1301.75 0.00236338 -7.842 0
M  V30 13310 N 1299.25 1.36039 0.795694 0
M  V30 13311 C 1300.21 1.29709 1.88966 0
M  V30 13312 C 1301.21 0.206142 1.59473 0
M  V30 13313 O 1302.4 0.460534 1.68002 0
M  V30 13314 C 1299.53 1.00922 3.25619 0
M  V30 13315 H 1300.73 2.26993 1.95995 0
M  V30 13316 H 1298.28 1.2072 0.992791 0
M  V30 13317 H 1299.02 0.0407027 3.24274 0
M  V30 13318 H 1298.8 1.79863 3.48413 0
M  V30 13319 H 1300.29 0.990826 4.05675 0
M  V30 13320 N 1300.73 -1.01913 1.20215 0
M  V30 13321 C 1301.69 -2.08563 0.950481 0
M  V30 13322 C 1302.69 -1.60634 -0.0729659 0
M  V30 13323 O 1303.88 -1.73437 0.162826 0
M  V30 13324 C 1301.01 -3.38171 0.430453 0
M  V30 13325 H 1302.21 -2.32323 1.89647 0
M  V30 13326 H 1299.76 -1.18674 1.01716 0
M  V30 13327 H 1300.49 -3.20086 -0.521126 0
M  V30 13328 H 1300.28 -3.74284 1.1685 0
M  V30 13329 H 1301.77 -4.16702 0.273781 0
M  V30 13330 N 1302.21 -1.00763 -1.2118 0
M  V30 13331 C 1303.43 -0.710515 -1.9485 0
M  V30 13332 C 1303.86 0.720934 -1.73736 0
M  V30 13333 O 1303.21 1.49484 -1.02588 0
M  V30 13334 C 1303.26 -1.04035 -3.45267 0
M  V30 13335 O 1302.37 -0.147047 -4.12138 0
M  V30 13336 H 1301.71 -0.264472 -0.609057 0
M  V30 13337 H 1304.24 -1.34858 -1.53865 0
M  V30 13338 H 1304.25 -0.9883 -3.95849 0
M  V30 13339 H 1302.92 -2.08334 -3.59958 0
M  V30 13340 H 1301.5 -0.255847 -3.72021 0
M  V30 13341 N 1303.68 1.3679 -0.7827 0
M  V30 13342 C 1305.1 1.52719 -0.463594 0
M  V30 13343 C 1305.3 1.73827 1.01914 0
M  V30 13344 O 1304.36 1.76591 1.80477 0
M  V30 13345 C 1305.67 2.71709 -1.2882 0
M  V30 13346 C 1307.22 2.85577 -1.2812 0
M  V30 13347 C 1307.69 4.07564 -2.0894 0
M  V30 13348 N 1309.18 4.14697 -2.0635 0
M  V30 13349 C 1309.92 5.08147 -2.65659 0
M  V30 13350 N 1309.41 6.07083 -3.33799 0
M  V30 13351 N 1311.21 5.00712 -2.55429 0
M  V30 13352 H 1303.36 1.21342 -1.74327 0
M  V30 13353 H 1305.62 0.591719 -0.740657 0
M  V30 13354 H 1305.33 2.62612 -2.3394 0
M  V30 13355 H 1305.2 3.65686 -0.924873 0
M  V30 13356 H 1307.59 2.94139 -0.237947 0
M  V30 13357 H 1307.67 1.92528 -1.68424 0
M  V30 13358 H 1307.31 3.99763 -3.13293 0
M  V30 13359 H 1307.24 4.99748 -1.66011 0
M  V30 13360 H 1309.73 3.43856 -1.56752 0
M  V30 13361 H 1310.05 6.74939 -3.764 0
M  V30 13362 H 1308.39 6.07329 -3.379 0
M  V30 13363 H 1311.58 4.22367 -2.01802 0
M  V30 13364 H 1311.76 5.73354 -3.01943 0
M  V30 13365 N 1305.16 0.53415 1.48272 0
M  V30 13366 C 1306.09 -0.215037 2.32508 0
M  V30 13367 C 1307.07 -0.931083 1.42355 0
M  V30 13368 O 1308.26 -0.916051 1.71237 0
M  V30 13369 C 1305.39 -1.25985 3.23643 0
M  V30 13370 C 1304.34 -0.661692 4.22854 0
M  V30 13371 C 1303.67 -1.80946 5.03153 0
M  V30 13372 C 1304.97 0.369358 5.20992 0
M  V30 13373 H 1306.66 0.488158 2.95394 0
M  V30 13374 H 1304.21 0.236206 1.4205 0
M  V30 13375 H 1306.16 -1.79195 3.81402 0
M  V30 13376 H 1304.89 -1.99268 2.58766 0
M  V30 13377 H 1303.54 -0.151082 3.66289 0
M  V30 13378 H 1303.19 -2.53077 4.34696 0
M  V30 13379 H 1302.89 -1.41513 5.70305 0
M  V30 13380 H 1304.42 -2.34526 5.63764 0
M  V30 13381 H 1305.83 -0.0758076 5.7325 0
M  V30 13382 H 1304.23 0.681301 5.9622 0
M  V30 13383 H 1305.3 1.27363 4.67875 0
M  V30 13384 N 1306.64 -1.55279 0.269478 0
M  V30 13385 C 1307.87 -2.03581 -0.351907 0
M  V30 13386 C 1308.28 -1.14747 -1.50432 0
M  V30 13387 O 1307.62 -0.158939 -1.83011 0
M  V30 13388 C 1307.68 -3.48041 -0.900444 0
M  V30 13389 C 1307.35 -4.56835 0.122612 0
M  V30 13390 C 1308.34 -5.11329 0.940149 0
M  V30 13391 C 1306.03 -5.01651 0.255224 0
M  V30 13392 C 1308.02 -6.09151 1.87654 0
M  V30 13393 C 1305.71 -5.993 1.19509 0
M  V30 13394 C 1306.71 -6.52931 2.00426 0
M  V30 13395 O 1306.4 -7.48671 2.92825 0
M  V30 13396 H 1306.13 -0.670627 -0.0850629 0
M  V30 13397 H 1308.68 -2.01514 0.39766 0
M  V30 13398 H 1306.91 -3.47329 -1.69998 0
M  V30 13399 H 1308.6 -3.79713 -1.43431 0
M  V30 13400 H 1309.37 -4.77522 0.848402 0
M  V30 13401 H 1305.25 -4.59556 -0.364579 0
M  V30 13402 H 1308.79 -6.50937 2.50853 0
M  V30 13403 H 1304.69 -6.32526 1.28768 0
M  V30 13404 H 1305.46 -7.66368 2.87442 0
M  V30 13405 N 1308.12 0.00332656 -1.576 0
M  V30 13406 C 1309.36 0.684275 -1.91544 0
M  V30 13407 C 1309.72 1.71565 -0.870814 0
M  V30 13408 O 1309.01 1.9124 0.117405 0
M  V30 13409 C 1309.21 1.37237 -3.30001 0
M  V30 13410 C 1309.04 0.409158 -4.47835 0
M  V30 13411 C 1307.81 0.0207716 -5.05296 0
M  V30 13412 C 1310 -0.323226 -5.13283 0
M  V30 13413 N 1307.99 -0.941002 -6.06645 0
M  V30 13414 C 1309.36 -1.13979 -6.09433 0
M  V30 13415 C 1311.41 -0.387419 -4.9639 0
M  V30 13416 C 1310.11 -2.0147 -6.90509 0
M  V30 13417 C 1312.14 -1.24954 -5.78049 0
M  V30 13418 C 1311.5 -2.05396 -6.73789 0
M  V30 13419 H 1307.6 0.223698 -0.749322 0
M  V30 13420 H 1310.19 -0.0562395 -1.94619 0
M  V30 13421 H 1308.36 2.0832 -3.27807 0
M  V30 13422 H 1310.09 2.00775 -3.51385 0
M  V30 13423 H 1306.84 0.38844 -4.72004 0
M  V30 13424 H 1307.27 -1.41716 -6.62001 0
M  V30 13425 H 1311.91 0.220225 -4.22226 0
M  V30 13426 H 1309.63 -2.63303 -7.64001 0
M  V30 13427 H 1313.21 -1.30308 -5.6702 0
M  V30 13428 H 1312.09 -2.71028 -7.35876 0
M  V30 13429 N 1309.6 1.55164 0.276031 0
M  V30 13430 C 1310.84 1.75887 1.00953 0
M  V30 13431 C 1311.18 0.5567 1.8605 0
M  V30 13432 O 1310.45 -0.445799 1.89322 0
M  V30 13433 C 1310.73 3.06228 1.89463 0
M  V30 13434 C 1310.59 4.36795 1.07379 0
M  V30 13435 C 1311.91 3.32589 2.88223 0
M  V30 13436 H 1309.02 0.639929 0.365596 0
M  V30 13437 H 1311.67 1.87893 0.282156 0
M  V30 13438 H 1309.82 2.96124 2.51481 0
M  V30 13439 H 1311.49 4.58853 0.474549 0
M  V30 13440 H 1309.73 4.32157 0.377165 0
M  V30 13441 H 1310.4 5.24315 1.72621 0
M  V30 13442 H 1312.88 3.42467 2.36338 0
M  V30 13443 H 1311.75 4.2506 3.47297 0
M  V30 13444 H 1312.02 2.52083 3.6319 0
M  V30 13445 N 1311.07 -0.540404 1.48045 0
M  V30 13446 C 1312.35 -1.30148 1.46017 0
M  V30 13447 C 1312.73 -2.10445 0.166171 0
M  V30 13448 O 1312.08 -2.12013 -0.852223 0
M  V30 13449 C 1312.29 -2.19177 2.71593 0
M  V30 13450 C 1313.64 -2.79655 3.19497 0
M  V30 13451 O 1314.66 -2.2947 2.72437 0
M  V30 13452 O 1313.52 -3.70912 4.01356 0
M  V30 13453 H 1310.61 -0.586879 0.582668 0
M  V30 13454 H 1313.16 -0.557918 1.60267 0
M  V30 13455 H 1311.93 -1.59556 3.57292 0
M  V30 13456 H 1311.56 -3.00798 2.60012 0
M  V30 13457 N 1312.55 -1.36459 -0.788468 0
M  V30 13458 C 1313.52 -1.3071 -1.88275 0
M  V30 13459 C 1314.52 -0.214596 -1.59362 0
M  V30 13460 O 1315.71 -0.469437 -1.67756 0
M  V30 13461 C 1312.84 -1.02648 -3.25079 0
M  V30 13462 H 1314.03 -2.28029 -1.94788 0
M  V30 13463 H 1311.58 -1.21245 -0.986375 0
M  V30 13464 H 1312.32 -0.0578992 -3.24248 0
M  V30 13465 H 1312.1 -1.81708 -3.47454 0
M  V30 13466 H 1313.59 -1.01233 -4.05144 0
M  V30 13467 N 1314.03 1.01274 -1.20754 0
M  V30 13468 C 1315.26 1.78265 -1.04427 0
M  V30 13469 C 1315.67 1.84718 0.409361 0
M  V30 13470 O 1315.01 1.30195 1.29595 0
M  V30 13471 C 1315.07 3.24037 -1.55693 0
M  V30 13472 C 1314.74 3.41181 -3.04047 0
M  V30 13473 C 1315.73 3.30087 -4.0167 0
M  V30 13474 C 1313.42 3.66872 -3.43089 0
M  V30 13475 C 1315.41 3.44436 -5.36323 0
M  V30 13476 C 1313.1 3.80865 -4.77896 0
M  V30 13477 C 1314.1 3.69652 -5.74322 0
M  V30 13478 O 1313.79 3.83211 -7.06686 0
M  V30 13479 H 1313.52 0.567327 -0.367582 0
M  V30 13480 H 1316.07 1.28336 -1.60372 0
M  V30 13481 H 1314.3 3.75067 -0.941382 0
M  V30 13482 H 1315.99 3.82676 -1.35328 0
M  V30 13483 H 1316.76 3.10172 -3.72852 0
M  V30 13484 H 1312.64 3.74685 -2.68574 0
M  V30 13485 H 1316.18 3.35601 -6.1157 0
M  V30 13486 H 1312.08 4.00282 -5.06403 0
M  V30 13487 H 1312.85 4.00205 -7.13987 0
M  V30 13488 N 1315.51 1.01404 1.20644 0
M  V30 13489 C 1316.76 0.701909 1.89946 0
M  V30 13490 C 1317.08 -0.768212 1.78686 0
M  V30 13491 O 1316.34 -1.57348 1.16363 0
M  V30 13492 C 1316.64 1.07995 3.40693 0
M  V30 13493 C 1316.3 2.54585 3.72152 0
M  V30 13494 C 1314.97 2.94639 3.80449 0
M  V30 13495 C 1317.32 3.49497 3.86654 0
M  V30 13496 C 1314.65 4.2855 4.00702 0
M  V30 13497 C 1317 4.83093 4.08416 0
M  V30 13498 C 1315.66 5.22857 4.14942 0
M  V30 13499 H 1314.93 0.256847 0.695062 0
M  V30 13500 H 1317.58 1.27415 1.4296 0
M  V30 13501 H 1315.88 0.426089 3.89476 0
M  V30 13502 H 1317.58 0.816176 3.92606 0
M  V30 13503 H 1314.17 2.22548 3.66292 0
M  V30 13504 H 1318.36 3.19713 3.79602 0
M  V30 13505 H 1313.61 4.58916 4.03988 0
M  V30 13506 H 1317.79 5.56565 4.18579 0
M  V30 13507 H 1315.41 6.26634 4.30388 0
M  V30 13508 N 1316.99 -1.36373 0.789944 0
M  V30 13509 C 1318.26 -1.9349 0.286543 0
M  V30 13510 C 1318.64 -1.7218 -1.22136 0
M  V30 13511 O 1317.99 -1.08106 -2.01309 0
M  V30 13512 C 1318.2 -3.42316 0.679749 0
M  V30 13513 C 1319.55 -4.19442 0.659791 0
M  V30 13514 O 1320.57 -3.50758 0.620256 0
M  V30 13515 O 1319.43 -5.41957 0.703159 0
M  V30 13516 H 1316.53 -0.823942 0.0710537 0
M  V30 13517 H 1319.07 -1.45551 0.872523 0
M  V30 13518 H 1317.85 -3.51485 1.7197 0
M  V30 13519 H 1317.47 -3.97542 0.0676823 0
M  V30 13520 N 1318.47 -0.542005 -1.47987 0
M  V30 13521 C 1319.41 0.214151 -2.29804 0
M  V30 13522 C 1320.38 0.922625 -1.38119 0
M  V30 13523 O 1321.57 0.921301 -1.67083 0
M  V30 13524 C 1318.71 1.24768 -3.21756 0
M  V30 13525 C 1317.82 0.546824 -4.28525 0
M  V30 13526 C 1316.96 1.56432 -5.07644 0
M  V30 13527 C 1315.99 0.847598 -6.06203 0
M  V30 13528 N 1315.13 1.81121 -6.78336 0
M  V30 13529 H 1319.97 -0.489707 -2.93949 0
M  V30 13530 H 1317.51 -0.253331 -1.44902 0
M  V30 13531 H 1319.47 1.85933 -3.73477 0
M  V30 13532 H 1318.1 1.91976 -2.59509 0
M  V30 13533 H 1317.15 -0.179026 -3.79978 0
M  V30 13534 H 1318.46 -0.0153623 -4.98798 0
M  V30 13535 H 1317.61 2.24992 -5.63439 0
M  V30 13536 H 1316.35 2.16041 -4.37238 0
M  V30 13537 H 1315.36 0.147989 -5.49601 0
M  V30 13538 H 1316.58 0.257454 -6.78612 0
M  V30 13539 H 1314.53 2.39615 -6.10672 0
M  V30 13540 H 1314.45 1.30077 -7.44725 0
M  V30 13541 H 1315.71 2.48842 -7.38714 0
M  V30 13542 N 1319.94 1.55134 -0.277709 0
M  V30 13543 C 1321.19 1.98831 0.338982 0
M  V30 13544 C 1321.51 1.16958 1.56781 0
M  V30 13545 O 1322.71 1.50811 2.25762 0
M  V30 13546 C 1321.17 3.53899 0.654465 0
M  V30 13547 C 1320.78 4.44553 -0.554703 0
M  V30 13548 C 1322.52 4.06179 1.23364 0
M  V30 13549 C 1320.43 5.91014 -0.213663 0
M  V30 13550 H 1319.36 0.742632 0.130434 0
M  V30 13551 H 1322.01 1.79463 -0.382768 0
M  V30 13552 H 1320.39 3.69078 1.43519 0
M  V30 13553 H 1321.56 4.41143 -1.33151 0
M  V30 13554 H 1319.88 4.02921 -1.0509 0
M  V30 13555 H 1322.48 5.13152 1.50265 0
M  V30 13556 H 1322.82 3.5537 2.16836 0
M  V30 13557 H 1323.35 3.9445 0.515147 0
M  V30 13558 H 1320.09 6.45924 -1.11633 0
M  V30 13559 H 1319.61 5.97486 0.526329 0
M  V30 13560 H 1321.29 6.46712 0.19319 0
M  V30 13561 N 1321.42 0.00503138 1.57599 0
M  V30 13562 C 1322.33 -1.00097 2.12174 0
M  V30 13563 C 1323.35 -1.37353 1.06818 0
M  V30 13564 O 1324.52 -1.45984 1.38747 0
M  V30 13565 C 1321.59 -2.27252 2.61835 0
M  V30 13566 C 1320.65 -1.96262 3.81811 0
M  V30 13567 C 1319.88 -3.17355 4.29094 0
M  V30 13568 O 1320.11 -4.2921 3.75679 0
M  V30 13569 O 1319.04 -3.01059 5.21198 0
M  V30 13570 H 1322.87 -0.567024 2.9836 0
M  V30 13571 H 1320.45 -0.214109 1.47858 0
M  V30 13572 H 1322.33 -3.01944 2.93952 0
M  V30 13573 H 1321.01 -2.69875 1.78744 0
M  V30 13574 H 1319.91 -1.19031 3.54658 0
M  V30 13575 H 1321.25 -1.58473 4.65991 0
M  V30 13576 N 1322.9 -1.55308 -0.267798 0
M  V30 13577 C 1323.85 -1.84933 -1.33356 0
M  V30 13578 C 1324.83 -0.708605 -1.44456 0
M  V30 13579 O 1326.03 -0.970069 -1.4805 0
M  V30 13580 C 1323.15 -2.12927 -2.69289 0
M  V30 13581 C 1322.24 -3.33273 -2.62279 0
M  V30 13582 N 1322.63 -4.53055 -2.24889 0
M  V30 13583 C 1320.93 -3.35966 -2.93331 0
M  V30 13584 C 1321.63 -5.35156 -2.27998 0
M  V30 13585 N 1320.61 -4.73692 -2.66677 0
M  V30 13586 H 1324.41 -2.75086 -1.03465 0
M  V30 13587 H 1321.92 -1.55254 -0.476435 0
M  V30 13588 H 1323.92 -2.32309 -3.46177 0
M  V30 13589 H 1322.58 -1.24061 -3.00065 0
M  V30 13590 H 1323.59 -4.79059 -1.9678 0
M  V30 13591 H 1320.27 -2.57308 -3.28784 0
M  V30 13592 H 1321.66 -6.4094 -2.01608 0
M  V30 13593 N 1324.38 0.532545 -1.4833 0
M  V30 13594 C 1325.6 1.31809 -1.60129 0
M  V30 13595 C 1326.03 1.86283 -0.260807 0
M  V30 13596 O 1325.39 1.6427 0.767137 0
M  V30 13597 C 1325.43 2.44661 -2.64903 0
M  V30 13598 O 1324.54 3.47622 -2.21885 0
M  V30 13599 H 1323.88 0.390492 -0.53704 0
M  V30 13600 H 1326.41 0.641068 -1.94297 0
M  V30 13601 H 1326.42 2.90883 -2.86096 0
M  V30 13602 H 1325.09 2.04373 -3.62222 0
M  V30 13603 H 1323.67 3.07536 -2.10894 0
M  V30 13604 N 1325.86 1.36875 0.78122 0
M  V30 13605 C 1327.08 1.34732 1.57019 0
M  V30 13606 C 1327.5 -0.0695423 1.88672 0
M  V30 13607 O 1326.86 -1.02873 1.50743 0
M  V30 13608 C 1326.91 2.17668 2.88623 0
M  V30 13609 O 1326.63 3.53832 2.5833 0
M  V30 13610 C 1328.13 2.23398 3.82895 0
M  V30 13611 H 1325.35 0.461857 0.486754 0
M  V30 13612 H 1327.89 1.80086 0.968989 0
M  V30 13613 H 1326.05 1.75848 3.4519 0
M  V30 13614 H 1326.46 3.972 3.42538 0
M  V30 13615 H 1327.94 2.85769 4.72271 0
M  V30 13616 H 1328.41 1.23972 4.2134 0
M  V30 13617 H 1329.02 2.65489 3.32258 0
M  V30 13618 N 1327.33 -1.00632 1.21289 0
M  V30 13619 C 1328.58 -1.74388 1.02932 0
M  V30 13620 C 1328.91 -1.8952 -0.437327 0
M  V30 13621 O 1328.16 -1.42551 -1.3408 0
M  V30 13622 C 1328.46 -3.1598 1.67007 0
M  V30 13623 C 1328.13 -3.208 3.16857 0
M  V30 13624 C 1326.79 -3.21823 3.57748 0
M  V30 13625 C 1329.14 -3.18147 4.12834 0
M  V30 13626 C 1326.47 -3.17877 4.93124 0
M  V30 13627 C 1328.82 -3.15743 5.48169 0
M  V30 13628 C 1327.49 -3.15074 5.88459 0
M  V30 13629 H 1326.76 -0.638133 0.376653 0
M  V30 13630 H 1329.4 -1.17953 1.50862 0
M  V30 13631 H 1327.71 -3.75639 1.11365 0
M  V30 13632 H 1329.41 -3.71764 1.50307 0
M  V30 13633 H 1326 -3.20746 2.84289 0
M  V30 13634 H 1330.18 -3.16519 3.82269 0
M  V30 13635 H 1325.44 -3.15696 5.2359 0
M  V30 13636 H 1329.61 -3.12644 6.22275 0
M  V30 13637 H 1327.24 -3.11771 6.93327 0
M  V30 13638 N 1328.81 -1.02043 -1.20104 0
M  V30 13639 C 1330.09 -0.626922 -1.85281 0
M  V30 13640 C 1330.47 0.894819 -1.91197 0
M  V30 13641 O 1329.82 1.7881 -1.42265 0
M  V30 13642 C 1330.03 -1.27917 -3.24713 0
M  V30 13643 C 1331.37 -1.39704 -4.00959 0
M  V30 13644 O 1332.4 -1.23568 -3.3408 0
M  V30 13645 O 1331.26 -1.65814 -5.20738 0
M  V30 13646 H 1328.35 -0.216815 -0.798073 0
M  V30 13647 H 1330.9 -1.11804 -1.27663 0
M  V30 13648 H 1329.67 -2.3188 -3.15194 0
M  V30 13649 H 1329.29 -0.775371 -3.89966 0
M  V30 13650 N 1330.29 1.35952 -0.797165 0
M  V30 13651 C 1331.54 1.98639 -0.372405 0
M  V30 13652 C 1331.86 1.63571 1.06158 0
M  V30 13653 O 1331.13 0.913516 1.73297 0
M  V30 13654 H 1329.71 0.734753 -0.13471 0
M  V30 13655 H 1332.37 1.66022 -1.02092 0
M  V30 13656 H 1331.47 3.08533 -0.47049 0
M  V30 13657 N 1331.77 0.549846 1.47697 0
M  V30 13658 C 1332.7 -0.190364 2.32723 0
M  V30 13659 C 1333.68 -0.915933 1.43334 0
M  V30 13660 O 1334.86 -0.897838 1.72199 0
M  V30 13661 C 1331.99 -1.22545 3.24961 0
M  V30 13662 C 1330.95 -0.616805 4.23532 0
M  V30 13663 C 1330.27 -1.75599 5.05044 0
M  V30 13664 C 1331.57 0.424595 5.20571 0
M  V30 13665 H 1333.27 0.519461 2.94859 0
M  V30 13666 H 1330.81 0.251259 1.41791 0
M  V30 13667 H 1332.77 -1.75139 3.83281 0
M  V30 13668 H 1331.49 -1.96512 2.60865 0
M  V30 13669 H 1330.15 -0.112224 3.66428 0
M  V30 13670 H 1329.8 -2.48453 4.37356 0
M  V30 13671 H 1329.5 -1.35456 5.71774 0
M  V30 13672 H 1331.02 -2.28533 5.6622 0
M  V30 13673 H 1332.44 -0.0150025 5.73298 0
M  V30 13674 H 1330.83 0.7445 5.95464 0
M  V30 13675 H 1331.9 1.32318 4.66497 0
M  V30 13676 N 1333.25 -1.54984 0.285932 0
M  V30 13677 C 1334.52 -1.91872 -0.380083 0
M  V30 13678 C 1334.9 -1.21146 -1.72878 0
M  V30 13679 O 1334.25 -0.341999 -2.25926 0
M  V30 13680 C 1334.46 -3.45258 -0.509667 0
M  V30 13681 C 1335.81 -4.17232 -0.787549 0
M  V30 13682 O 1336.83 -3.51211 -0.594062 0
M  V30 13683 O 1335.69 -5.34085 -1.15826 0
M  V30 13684 H 1332.79 -0.799931 -0.209856 0
M  V30 13685 H 1335.33 -1.66403 0.332882 0
M  V30 13686 H 1334.1 -3.88829 0.439049 0
M  V30 13687 H 1333.73 -3.76715 -1.27168 0
M  V30 13688 N 1334.72 -0.0133892 -1.57594 0
M  V30 13689 C 1336.14 0.342848 -1.55874 0
M  V30 13690 C 1336.34 1.73928 -1.01742 0
M  V30 13691 O 1335.4 2.43798 -0.657158 0
M  V30 13692 C 1336.71 0.205831 -2.99995 0
M  V30 13693 C 1338.26 0.279774 -3.11747 0
M  V30 13694 C 1338.73 0.171729 -4.57678 0
M  V30 13695 N 1340.22 0.22921 -4.62633 0
M  V30 13696 C 1340.96 0.169153 -5.7315 0
M  V30 13697 N 1340.45 0.0589166 -6.92775 0
M  V30 13698 N 1342.25 0.221995 -5.61661 0
M  V30 13699 H 1334.4 -0.926727 -1.91117 0
M  V30 13700 H 1336.66 -0.356466 -0.878428 0
M  V30 13701 H 1336.37 -0.755482 -3.4349 0
M  V30 13702 H 1336.24 0.982476 -3.6418 0
M  V30 13703 H 1338.63 1.23154 -2.68174 0
M  V30 13704 H 1338.71 -0.526974 -2.50313 0
M  V30 13705 H 1338.35 -0.776547 -5.01928 0
M  V30 13706 H 1338.28 0.997138 -5.17073 0
M  V30 13707 H 1340.77 0.315196 -3.76583 0
M  V30 13708 H 1341.09 0.0193526 -7.72798 0
M  V30 13709 H 1339.43 0.0243543 -6.94996 0
M  V30 13710 H 1342.62 0.306406 -4.67096 0
M  V30 13711 H 1342.8 0.171727 -6.47772 0
M  V30 13712 N 1336.2 1.55448 0.259558 0
M  V30 13713 C 1337.62 1.47588 0.607442 0
M  V30 13714 C 1337.82 0.701053 1.88911 0
M  V30 13715 O 1336.87 0.225305 2.51493 0
M  V30 13716 C 1338.19 2.91905 0.72192 0
M  V30 13717 C 1339.74 3.02201 0.815087 0
M  V30 13718 C 1340.21 4.47799 0.961231 0
M  V30 13719 N 1341.7 4.51684 1.02642 0
M  V30 13720 C 1342.44 5.61574 1.15854 0
M  V30 13721 N 1341.93 6.81301 1.257 0
M  V30 13722 N 1343.73 5.49344 1.1907 0
M  V30 13723 H 1335.88 2.04271 -0.581981 0
M  V30 13724 H 1338.14 0.926865 -0.199059 0
M  V30 13725 H 1337.85 3.51382 -0.149611 0
M  V30 13726 H 1337.72 3.41681 1.59793 0
M  V30 13727 H 1340.11 2.42813 1.67708 0
M  V30 13728 H 1340.19 2.55656 -0.0858102 0
M  V30 13729 H 1339.83 5.07794 0.103848 0
M  V30 13730 H 1339.76 4.92013 1.87698 0
M  V30 13731 H 1342.25 3.65446 0.962184 0
M  V30 13732 H 1342.57 7.60801 1.35652 0
M  V30 13733 H 1340.91 6.84087 1.2268 0
M  V30 13734 H 1344.1 4.54745 1.11018 0
M  V30 13735 H 1344.27 6.35025 1.29022 0
M  V30 13736 N 1337.68 -0.524672 1.4861 0
M  V30 13737 C 1339.1 -0.853703 1.34848 0
M  V30 13738 C 1339.3 -1.98194 0.363529 0
M  V30 13739 O 1338.35 -2.51597 -0.213348 0
M  V30 13740 C 1339.67 -1.21622 2.75006 0
M  V30 13741 C 1341.21 -1.3258 2.83534 0
M  V30 13742 C 1341.69 -1.72172 4.24406 0
M  V30 13743 N 1343.18 -1.79265 4.27105 0
M  V30 13744 C 1343.91 -2.11296 5.33049 0
M  V30 13745 N 1343.41 -2.41714 6.49266 0
M  V30 13746 N 1345.2 -2.12347 5.20447 0
M  V30 13747 H 1337.35 0.219671 2.11261 0
M  V30 13748 H 1339.62 0.0356444 0.94733 0
M  V30 13749 H 1339.32 -0.460776 3.48669 0
M  V30 13750 H 1339.2 -2.16516 3.0887 0
M  V30 13751 H 1341.58 -2.072 2.10124 0
M  V30 13752 H 1341.67 -0.357943 2.53283 0
M  V30 13753 H 1341.31 -0.981108 4.98334 0
M  V30 13754 H 1341.24 -2.70017 4.52104 0
M  V30 13755 H 1343.73 -1.58013 3.43279 0
M  V30 13756 H 1344.04 -2.65276 7.25843 0
M  V30 13757 H 1342.39 -2.39222 6.52532 0
M  V30 13758 H 1345.58 -1.88044 4.28669 0
M  V30 13759 H 1345.75 -2.36978 6.03113 0
M  V30 13760 N 1339.16 -1.37287 -0.77395 0
M  V30 13761 C 1340.09 -1.35569 -1.90114 0
M  V30 13762 C 1341.07 -0.224658 -1.6861 0
M  V30 13763 O 1342.25 -0.424676 -1.895 0
M  V30 13764 C 1339.38 -1.15971 -3.27365 0
M  V30 13765 C 1338.34 -2.26063 -3.63427 0
M  V30 13766 C 1337.66 -1.9159 -4.99197 0
M  V30 13767 C 1338.96 -3.68236 -3.70405 0
M  V30 13768 H 1340.66 -2.29891 -1.91808 0
M  V30 13769 H 1338.2 -1.10661 -0.92142 0
M  V30 13770 H 1340.16 -1.134 -4.05855 0
M  V30 13771 H 1338.88 -0.181043 -3.26098 0
M  V30 13772 H 1337.54 -2.27786 -2.87244 0
M  V30 13773 H 1337.19 -0.922586 -4.94467 0
M  V30 13774 H 1336.89 -2.65309 -5.24294 0
M  V30 13775 H 1338.41 -1.90602 -5.80089 0
M  V30 13776 H 1339.83 -3.68655 -4.39052 0
M  V30 13777 H 1338.22 -4.4099 -4.06999 0
M  V30 13778 H 1339.29 -4.02021 -2.71122 0
M  V30 13779 N 1340.64 0.999871 -1.21821 0
M  V30 13780 C 1341.88 1.73497 -1.0365 0
M  V30 13781 C 1342.21 1.90194 0.430271 0
M  V30 13782 O 1341.48 1.45655 1.31002 0
M  V30 13783 H 1340.06 0.642804 -0.380541 0
M  V30 13784 H 1342.72 1.20461 -1.53216 0
M  V30 13785 H 1341.81 2.73215 -1.50864 0
M  V30 13786 N 1342.11 1.02678 1.19562 0
M  V30 13787 C 1343.06 0.576385 2.20594 0
M  V30 13788 C 1344.05 -0.373747 1.56499 0
M  V30 13789 O 1345.24 -0.195058 1.75922 0
M  V30 13790 C 1342.37 -0.0735507 3.43221 0
M  V30 13791 C 1341.46 0.898896 4.14464 0
M  V30 13792 N 1341.85 2.06048 4.61928 0
M  V30 13793 C 1340.14 0.721889 4.40119 0
M  V30 13794 C 1340.85 2.67364 5.16615 0
M  V30 13795 N 1339.82 1.95344 5.07289 0
M  V30 13796 H 1343.62 1.46179 2.54968 0
M  V30 13797 H 1341.14 0.893484 1.35612 0
M  V30 13798 H 1343.13 -0.413825 4.14841 0
M  V30 13799 H 1341.79 -0.954671 3.10348 0
M  V30 13800 H 1342.81 2.43999 4.5682 0
M  V30 13801 H 1339.48 -0.110317 4.17354 0
M  V30 13802 H 1340.87 3.65726 5.63644 0
M  V30 13803 N 1343.59 -1.35528 0.804364 0
M  V30 13804 C 1344.84 -1.98084 0.380196 0
M  V30 13805 C 1345.15 -1.64531 -1.05778 0
M  V30 13806 O 1346.36 -2.20435 -1.58495 0
M  V30 13807 C 1344.82 -3.54364 0.628848 0
M  V30 13808 C 1344.42 -3.96828 2.07921 0
M  V30 13809 C 1346.17 -4.23641 0.269927 0
M  V30 13810 C 1344.08 -5.45944 2.27374 0
M  V30 13811 H 1343.01 -0.741185 0.138422 0
M  V30 13812 H 1345.66 -1.54624 0.988107 0
M  V30 13813 H 1344.04 -3.9597 -0.0489837 0
M  V30 13814 H 1345.21 -3.6638 2.79467 0
M  V30 13815 H 1343.53 -3.40433 2.39779 0
M  V30 13816 H 1346.12 -5.33251 0.393344 0
M  V30 13817 H 1346.47 -4.08858 -0.783644 0
M  V30 13818 H 1347 -3.87448 0.901588 0
M  V30 13819 H 1343.74 -5.65693 3.31168 0
M  V30 13820 H 1343.26 -5.77969 1.6035 0
M  V30 13821 H 1344.94 -6.12376 2.08817 0
M  V30 13822 N 1345.07 -0.557671 -1.47404 0
M  V30 13823 C 1345.98 0.19289 -2.33806 0
M  V30 13824 C 1347 0.911424 -1.4822 0
M  V30 13825 O 1348.17 0.880214 -1.81147 0
M  V30 13826 C 1345.24 1.20937 -3.24923 0
M  V30 13827 C 1344.3 0.498209 -4.26399 0
M  V30 13828 C 1343.53 1.46626 -5.13163 0
M  V30 13829 O 1343.76 2.70111 -5.0239 0
M  V30 13830 O 1342.69 0.990497 -5.93694 0
M  V30 13831 H 1346.52 -0.515861 -2.99287 0
M  V30 13832 H 1344.1 -0.318283 -1.4597 0
M  V30 13833 H 1345.98 1.7961 -3.81206 0
M  V30 13834 H 1344.66 1.90003 -2.6207 0
M  V30 13835 H 1343.56 -0.129736 -3.73875 0
M  V30 13836 H 1344.9 -0.151015 -4.91968 0
M  V30 13837 N 1346.55 1.54831 -0.294147 0
M  V30 13838 C 1347.48 2.20696 0.61854 0
M  V30 13839 C 1348.49 1.19754 1.10285 0
M  V30 13840 O 1349.68 1.46383 1.02148 0
M  V30 13841 C 1346.78 2.83429 1.85798 0
M  V30 13842 C 1345.96 4.10239 1.51731 0
M  V30 13843 C 1345.02 4.56841 2.61119 0
M  V30 13844 O 1344.04 5.22194 2.26501 0
M  V30 13845 N 1345.24 4.2858 3.91534 0
M  V30 13846 H 1348.01 2.9965 0.054714 0
M  V30 13847 H 1345.57 1.61484 -0.116052 0
M  V30 13848 H 1347.56 3.11541 2.5831 0
M  V30 13849 H 1346.13 2.08356 2.33038 0
M  V30 13850 H 1345.35 3.89212 0.625142 0
M  V30 13851 H 1346.64 4.92824 1.26499 0
M  V30 13852 H 1346.04 3.7621 4.22472 0
M  V30 13853 H 1344.59 4.61418 4.60366 0
M  V30 13854 N 1348.03 0.0217466 1.57585 0
M  V30 13855 C 1348.96 -0.997112 2.05263 0
M  V30 13856 C 1349.94 -1.32186 0.946873 0
M  V30 13857 O 1351.12 -1.43979 1.21665 0
M  V30 13858 C 1348.25 -2.3191 2.46851 0
M  V30 13859 C 1347.3 -2.14948 3.68375 0
M  V30 13860 S 1348.13 -1.45517 5.15349 0
M  V30 13861 C 1349.28 -2.79101 5.60226 0
M  V30 13862 H 1349.52 -0.591229 2.91362 0
M  V30 13863 H 1347.05 -0.189741 1.5323 0
M  V30 13864 H 1349.01 -3.07913 2.71477 0
M  V30 13865 H 1347.67 -2.69633 1.61112 0
M  V30 13866 H 1346.86 -3.12661 3.95296 0
M  V30 13867 H 1346.46 -1.47088 3.43862 0
M  V30 13868 H 1348.76 -3.75357 5.64015 0
M  V30 13869 H 1349.7 -2.56853 6.59873 0
M  V30 13870 H 1350.11 -2.84009 4.87851 0
M  V30 13871 N 1349.51 -1.55583 -0.251311 0
M  V30 13872 C 1350.73 -1.81259 -0.997636 0
M  V30 13873 C 1351.15 -0.596861 -1.79117 0
M  V30 13874 O 1350.51 0.434425 -1.77254 0
M  V30 13875 C 1350.56 -3.05097 -1.93902 0
M  V30 13876 O 1350.28 -4.21976 -1.1776 0
M  V30 13877 C 1351.78 -3.4354 -2.8017 0
M  V30 13878 H 1349 -0.603279 -0.29376 0
M  V30 13879 H 1351.54 -2.02635 -0.27553 0
M  V30 13880 H 1349.7 -2.85784 -2.61546 0
M  V30 13881 H 1350.11 -4.92133 -1.81398 0
M  V30 13882 H 1351.59 -4.33305 -3.41981 0
M  V30 13883 H 1352.06 -2.63924 -3.51057 0
M  V30 13884 H 1352.67 -3.65189 -2.17985 0
M  V30 13885 N 1350.98 0.516783 -1.48886 0
M  V30 13886 C 1351.93 1.61653 -1.60786 0
M  V30 13887 C 1352.92 1.54056 -0.464271 0
M  V30 13888 O 1354.11 1.61853 -0.716412 0
M  V30 13889 C 1351.24 3.0033 -1.66304 0
M  V30 13890 C 1350.32 3.12982 -2.86187 0
M  V30 13891 N 1350.72 2.95568 -4.10455 0
M  V30 13892 C 1349.01 3.44059 -2.83795 0
M  V30 13893 C 1349.71 3.11986 -4.90958 0
M  V30 13894 N 1348.69 3.40156 -4.24022 0
M  V30 13895 H 1352.49 1.4682 -2.546 0
M  V30 13896 H 1350.01 0.722555 -1.4544 0
M  V30 13897 H 1352 3.79345 -1.72924 0
M  V30 13898 H 1350.66 3.16245 -0.736158 0
M  V30 13899 H 1351.67 2.72062 -4.40684 0
M  V30 13900 H 1348.35 3.66249 -2.0042 0
M  V30 13901 H 1349.74 3.03149 -5.99625 0
M  V30 13902 N 1352.46 1.37696 0.766659 0
M  V30 13903 C 1353.87 1.29668 1.34324 0
M  V30 13904 C 1354.22 -0.0534297 1.96127 0
M  V30 13905 O 1353.35 -0.95534 1.94171 0
M  V30 13906 C 1353.94 2.34818 2.44225 0
M  V30 13907 C 1352.5 2.3041 2.97638 0
M  V30 13908 C 1351.65 2.18378 1.70899 0
M  V30 13909 H 1354.6 1.48244 0.566526 0
M  V30 13910 H 1354.62 1.99778 3.23835 0
M  V30 13911 H 1354.13 3.3307 1.99214 0
M  V30 13912 H 1352.23 1.35698 3.47011 0
M  V30 13913 H 1352.35 3.24028 3.52906 0
M  V30 13914 H 1350.71 1.65008 1.94021 0
M  V30 13915 H 1351.49 3.18551 1.27985 0
M  V30 13916 N 1353.94 -0.993397 1.22349 0
M  V30 13917 C 1355.19 -1.73287 1.04775 0
M  V30 13918 C 1355.51 -1.89973 -0.417201 0
M  V30 13919 O 1354.77 -1.43966 -1.32561 0
M  V30 13920 C 1355.07 -3.14191 1.70349 0
M  V30 13921 C 1354.73 -3.17421 3.20241 0
M  V30 13922 C 1353.4 -3.1801 3.61141 0
M  V30 13923 C 1355.75 -3.13751 4.16185 0
M  V30 13924 C 1353.08 -3.12628 4.96468 0
M  V30 13925 C 1355.43 -3.09911 5.51487 0
M  V30 13926 C 1354.09 -3.08815 5.91768 0
M  V30 13927 H 1353.36 -0.634102 0.3834 0
M  V30 13928 H 1356.01 -1.16346 1.52105 0
M  V30 13929 H 1354.31 -3.74437 1.15343 0
M  V30 13930 H 1356.01 -3.70149 1.54242 0
M  V30 13931 H 1352.6 -3.17713 2.87674 0
M  V30 13932 H 1356.79 -3.12446 3.85605 0
M  V30 13933 H 1352.04 -3.10125 5.26909 0
M  V30 13934 H 1356.22 -3.06026 6.25556 0
M  V30 13935 H 1353.84 -3.044 6.96595 0
M  V30 13936 N 1355.42 -1.03311 -1.19015 0
M  V30 13937 C 1356.67 -0.730593 -1.88432 0
M  V30 13938 C 1356.99 0.743392 -1.80274 0
M  V30 13939 O 1356.26 1.5359 -1.21601 0
M  V30 13940 H 1354.84 -0.267253 -0.697556 0
M  V30 13941 H 1357.5 -1.30824 -1.44468 0
M  V30 13942 H 1356.59 -1.02867 -2.9466 0
M  V30 13943 N 1356.9 1.35099 -0.81154 0
M  V30 13944 C 1357.83 2.32264 -0.239925 0
M  V30 13945 C 1358.81 1.57708 0.637354 0
M  V30 13946 O 1359.99 1.85751 0.566598 0
M  V30 13947 C 1357.12 3.41931 0.608325 0
M  V30 13948 C 1356.08 4.27659 -0.170869 0
M  V30 13949 C 1355.4 5.28691 0.799398 0
M  V30 13950 C 1356.7 5.0394 -1.37266 0
M  V30 13951 H 1358.4 2.8032 -1.05172 0
M  V30 13952 H 1355.94 1.34773 -0.507185 0
M  V30 13953 H 1357.89 4.08911 1.01832 0
M  V30 13954 H 1356.62 2.92496 1.45306 0
M  V30 13955 H 1355.28 3.62265 -0.562094 0
M  V30 13956 H 1354.93 4.75521 1.63977 0
M  V30 13957 H 1354.63 5.86921 0.282331 0
M  V30 13958 H 1356.15 5.98542 1.20749 0
M  V30 13959 H 1357.56 5.63838 -1.03728 0
M  V30 13960 H 1355.96 5.7169 -1.82456 0
M  V30 13961 H 1357.03 4.34295 -2.15676 0
M  V30 13962 N 1358.37 0.56548 1.47106 0
M  V30 13963 C 1359.34 -0.167191 2.28589 0
M  V30 13964 C 1360.34 -0.835005 1.3742 0
M  V30 13965 O 1361.53 -0.689598 1.59969 0
M  V30 13966 C 1358.66 -1.24548 3.17333 0
M  V30 13967 H 1359.85 0.548677 2.94838 0
M  V30 13968 H 1357.4 0.322749 1.52931 0
M  V30 13969 H 1358.14 -1.99348 2.55794 0
M  V30 13970 H 1357.92 -0.771335 3.84438 0
M  V30 13971 H 1359.41 -1.75985 3.78707 0
M  V30 13972 N 1359.85 -1.54672 0.302354 0
M  V30 13973 C 1361.1 -1.99345 -0.307307 0
M  V30 13974 C 1361.41 -1.19437 -1.549 0
M  V30 13975 O 1362.62 -1.54384 -2.23334 0
M  V30 13976 C 1361.08 -3.54896 -0.59808 0
M  V30 13977 C 1360.68 -4.43614 0.625357 0
M  V30 13978 C 1362.43 -4.08091 -1.16886 0
M  V30 13979 C 1360.34 -5.90599 0.307661 0
M  V30 13980 H 1359.27 -0.744614 -0.118603 0
M  V30 13981 H 1361.92 -1.78832 0.411271 0
M  V30 13982 H 1360.3 -3.71314 -1.37629 0
M  V30 13983 H 1361.47 -4.38969 1.40152 0
M  V30 13984 H 1359.79 -4.01198 1.11487 0
M  V30 13985 H 1362.38 -5.15477 -1.42082 0
M  V30 13986 H 1362.73 -3.58775 -2.11155 0
M  V30 13987 H 1363.26 -3.9522 -0.452329 0
M  V30 13988 H 1360 -6.44067 1.21895 0
M  V30 13989 H 1359.52 -5.98248 -0.431208 0
M  V30 13990 H 1361.2 -6.46937 -0.0902796 0
M  V30 13991 N 1361.33 -0.0301034 -1.57571 0
M  V30 13992 C 1362.58 0.648323 -1.91841 0
M  V30 13993 C 1362.91 1.72078 -0.906601 0
M  V30 13994 O 1362.16 1.95518 0.0843233 0
M  V30 13995 C 1362.46 1.30206 -3.32838 0
M  V30 13996 C 1362.13 0.359876 -4.49462 0
M  V30 13997 C 1360.79 0.100552 -4.81095 0
M  V30 13998 C 1363.14 -0.287048 -5.20409 0
M  V30 13999 C 1360.47 -0.813484 -5.81033 0
M  V30 14000 C 1362.82 -1.18914 -6.21323 0
M  V30 14001 C 1361.48 -1.45735 -6.51397 0
M  V30 14002 H 1360.75 0.237238 -0.701997 0
M  V30 14003 H 1363.4 -0.0920804 -1.91278 0
M  V30 14004 H 1361.71 2.11724 -3.29667 0
M  V30 14005 H 1363.4 1.83356 -3.56625 0
M  V30 14006 H 1359.99 0.572172 -4.24764 0
M  V30 14007 H 1364.18 -0.0997611 -4.962 0
M  V30 14008 H 1359.43 -1.02897 -6.02679 0
M  V30 14009 H 1363.61 -1.69661 -6.75417 0
M  V30 14010 H 1361.23 -2.16727 -7.28652 0
M  V30 14011 N 1362.81 1.55714 0.243056 0
M  V30 14012 C 1364.06 1.77375 0.968638 0
M  V30 14013 C 1364.38 0.594781 1.85708 0
M  V30 14014 O 1363.65 -0.38928 1.91993 0
M  V30 14015 H 1362.23 0.654174 0.360646 0
M  V30 14016 H 1364.89 1.93157 0.260079 0
M  V30 14017 H 1363.99 2.68674 1.5881 0
M  V30 14018 N 1364.29 -0.50888 1.49158 0
M  V30 14019 C 1365.2 -1.63782 1.67966 0
M  V30 14020 C 1366.21 -1.64667 0.562207 0
M  V30 14021 O 1367.39 -1.83232 0.835935 0
M  V30 14022 C 1364.45 -3.00179 1.73474 0
M  V30 14023 C 1363.51 -3.09983 2.97 0
M  V30 14024 C 1362.75 -4.39875 3.02235 0
M  V30 14025 O 1362.97 -5.28214 2.15282 0
M  V30 14026 O 1361.9 -4.54486 3.94621 0
M  V30 14027 H 1365.73 -1.50846 2.63589 0
M  V30 14028 H 1363.32 -0.684306 1.32807 0
M  V30 14029 H 1365.2 -3.8126 1.79495 0
M  V30 14030 H 1363.87 -3.13394 0.810287 0
M  V30 14031 H 1362.78 -2.28119 2.965 0
M  V30 14032 H 1364.11 -3.01693 3.88899 0
M  V30 14033 N 1365.76 -1.381 -0.759346 0
M  V30 14034 C 1366.71 -1.31373 -1.86347 0
M  V30 14035 C 1367.7 -0.199113 -1.59663 0
M  V30 14036 O 1368.89 -0.43459 -1.71582 0
M  V30 14037 C 1366.02 -1.13537 -3.23982 0
M  V30 14038 C 1365.11 -2.29596 -3.56576 0
M  V30 14039 N 1365.5 -3.55023 -3.60267 0
M  V30 14040 C 1363.79 -2.22022 -3.86811 0
M  V30 14041 C 1364.5 -4.31629 -3.89963 0
M  V30 14042 N 1363.47 -3.60915 -4.06499 0
M  V30 14043 H 1367.27 -2.26345 -1.8747 0
M  V30 14044 H 1364.79 -1.3125 -0.956415 0
M  V30 14045 H 1366.78 -1.06801 -4.02988 0
M  V30 14046 H 1365.44 -0.194922 -3.24114 0
M  V30 14047 H 1366.46 -3.88769 -3.42168 0
M  V30 14048 H 1363.13 -1.36104 -3.94692 0
M  V30 14049 H 1364.52 -5.40238 -3.9949 0
M  V30 14050 N 1367.24 0.986894 -1.22875 0
M  V30 14051 C 1368.17 2.09628 -1.0285 0
M  V30 14052 C 1369.15 1.70019 0.0525118 0
M  V30 14053 O 1370.34 1.93883 -0.110874 0
M  V30 14054 C 1367.47 3.41866 -0.61194 0
M  V30 14055 C 1366.42 3.95351 -1.63956 0
M  V30 14056 C 1365.75 5.23707 -1.07865 0
M  V30 14057 C 1367.05 4.25354 -3.03102 0
M  V30 14058 H 1368.74 2.26639 -1.95641 0
M  V30 14059 H 1366.29 1.0891 -0.942048 0
M  V30 14060 H 1368.24 4.18893 -0.458936 0
M  V30 14061 H 1366.97 3.24701 0.35164 0
M  V30 14062 H 1365.62 3.20462 -1.78045 0
M  V30 14063 H 1365.27 5.02888 -0.106246 0
M  V30 14064 H 1364.97 5.60459 -1.76522 0
M  V30 14065 H 1366.5 6.03362 -0.937359 0
M  V30 14066 H 1367.91 4.93156 -2.92353 0
M  V30 14067 H 1366.31 4.73292 -3.68938 0
M  V30 14068 H 1367.38 3.32887 -3.52583 0
M  V30 14069 N 1368.72 1.0394 1.18466 0
M  V30 14070 C 1369.97 0.742042 1.88414 0
M  V30 14071 C 1370.3 -0.730138 1.80275 0
M  V30 14072 O 1369.55 -1.54844 1.19674 0
M  V30 14073 C 1369.85 1.15198 3.38326 0
M  V30 14074 C 1369.52 2.62422 3.66668 0
M  V30 14075 C 1368.18 3.02643 3.74113 0
M  V30 14076 C 1370.53 3.5762 3.79153 0
M  V30 14077 C 1367.86 4.36953 3.91522 0
M  V30 14078 C 1370.21 4.91647 3.98077 0
M  V30 14079 C 1368.87 5.31541 4.03758 0
M  V30 14080 H 1368.14 0.271532 0.689457 0
M  V30 14081 H 1370.79 1.30419 1.40225 0
M  V30 14082 H 1369.1 0.508607 3.88485 0
M  V30 14083 H 1370.79 0.899269 3.90787 0
M  V30 14084 H 1367.38 2.30268 3.61489 0
M  V30 14085 H 1371.57 3.27693 3.72735 0
M  V30 14086 H 1366.82 4.67382 3.94163 0
M  V30 14087 H 1371 5.65318 4.0668 0
M  V30 14088 H 1368.62 6.35622 4.16999 0
M  V30 14089 N 1370.2 -1.34667 0.818693 0
M  V30 14090 C 1371.45 -1.98414 0.404759 0
M  V30 14091 C 1371.77 -1.64919 -1.03112 0
M  V30 14092 O 1371.03 -0.910695 -1.73219 0
M  V30 14093 C 1371.33 -3.53157 0.549059 0
M  V30 14094 C 1370.99 -4.06552 1.95003 0
M  V30 14095 C 1369.66 -4.20846 2.33329 0
M  V30 14096 C 1372.01 -4.35324 2.86604 0
M  V30 14097 C 1369.34 -4.61236 3.62599 0
M  V30 14098 C 1371.69 -4.77159 4.15334 0
M  V30 14099 C 1370.35 -4.89658 4.53642 0
M  V30 14100 H 1369.62 -0.726047 0.148112 0
M  V30 14101 H 1372.27 -1.60681 1.04182 0
M  V30 14102 H 1370.57 -3.91425 -0.17141 0
M  V30 14103 H 1372.27 -4.00453 0.209374 0
M  V30 14104 H 1368.86 -3.95887 1.64231 0
M  V30 14105 H 1373.04 -4.23823 2.58239 0
M  V30 14106 H 1368.3 -4.69104 3.92112 0
M  V30 14107 H 1372.47 -4.98381 4.86404 0
M  V30 14108 H 1370.1 -5.20713 5.53861 0
M  V30 14109 N 1371.68 -0.573274 -1.46804 0
M  V30 14110 C 1372.9 -0.0605984 -2.06811 0
M  V30 14111 C 1373.32 1.24024 -1.4235 0
M  V30 14112 O 1372.68 1.7477 -0.525515 0
M  V30 14113 C 1372.73 0.121828 -3.61295 0
M  V30 14114 O 1372.45 -1.12751 -4.23342 0
M  V30 14115 C 1373.95 0.669941 -4.38208 0
M  V30 14116 H 1371.17 -0.0531498 -0.668892 0
M  V30 14117 H 1373.71 -0.791259 -1.88572 0
M  V30 14118 H 1371.87 0.802674 -3.78993 0
M  V30 14119 H 1372.28 -0.935361 -5.16092 0
M  V30 14120 H 1373.76 0.746806 -5.46925 0
M  V30 14121 H 1374.23 1.68483 -4.05598 0
M  V30 14122 H 1374.84 0.0242721 -4.25293 0
M  V30 14123 N 1373.15 1.5451 -0.310553 0
M  V30 14124 C 1374.43 1.92452 0.34951 0
M  V30 14125 C 1374.81 1.23881 1.70929 0
M  V30 14126 O 1374.16 0.377898 2.25353 0
M  V30 14127 C 1374.37 3.46026 0.454675 0
M  V30 14128 C 1375.72 4.18432 0.721071 0
M  V30 14129 O 1376.74 3.52112 0.538112 0
M  V30 14130 O 1375.6 5.3586 1.07314 0
M  V30 14131 H 1372.69 0.803168 0.197103 0
M  V30 14132 H 1375.24 1.65852 -0.359313 0
M  V30 14133 H 1374.01 3.88081 -0.500853 0
M  V30 14134 H 1373.64 3.7869 1.21159 0
M  V30 14135 N 1374.63 0.0384594 1.57553 0
M  V30 14136 C 1375.88 -0.633249 1.93291 0
M  V30 14137 C 1376.23 -1.69196 0.915995 0
M  V30 14138 O 1375.53 -1.91484 -0.0666597 0
M  V30 14139 C 1375.72 -1.28439 3.33524 0
M  V30 14140 C 1375.55 -0.290279 4.48762 0
M  V30 14141 C 1374.32 0.113206 5.05173 0
M  V30 14142 C 1376.52 0.459201 5.12246 0
M  V30 14143 N 1374.5 1.10151 6.03937 0
M  V30 14144 C 1375.87 1.30097 6.06197 0
M  V30 14145 C 1377.93 0.518891 4.95189 0
M  V30 14146 C 1376.63 2.19706 6.84924 0
M  V30 14147 C 1378.66 1.40236 5.74533 0
M  V30 14148 C 1378.02 2.23189 6.68106 0
M  V30 14149 H 1374.12 -0.203752 0.754989 0
M  V30 14150 H 1376.7 0.107819 1.94401 0
M  V30 14151 H 1374.87 -1.99555 3.33215 0
M  V30 14152 H 1376.6 -1.91388 3.56585 0
M  V30 14153 H 1373.36 -0.26316 4.72868 0
M  V30 14154 H 1373.78 1.59218 6.58011 0
M  V30 14155 H 1378.42 -0.108201 4.22662 0
M  V30 14156 H 1376.14 2.83467 7.56751 0
M  V30 14157 H 1379.73 1.45295 5.63365 0
M  V30 14158 H 1378.61 2.90443 7.28432 0
M  V30 14159 N 1376.11 -1.55841 -0.234795 0
M  V30 14160 C 1377.53 -1.48536 -0.583885 0
M  V30 14161 C 1377.73 -0.731018 -1.87772 0
M  V30 14162 O 1376.78 -0.265287 -2.51103 0
M  V30 14163 C 1378.1 -2.93017 -0.675389 0
M  V30 14164 C 1379.64 -3.03459 -0.766906 0
M  V30 14165 C 1380.12 -4.49272 -0.889868 0
M  V30 14166 N 1381.61 -4.5326 -0.95443 0
M  V30 14167 C 1382.35 -5.63346 -1.06905 0
M  V30 14168 N 1381.84 -6.83215 -1.14845 0
M  V30 14169 N 1383.63 -5.51169 -1.10315 0
M  V30 14170 H 1375.79 -2.0332 0.614405 0
M  V30 14171 H 1378.05 -0.923581 0.213779 0
M  V30 14172 H 1377.75 -3.51099 0.205493 0
M  V30 14173 H 1377.63 -3.4418 -1.54337 0
M  V30 14174 H 1380.02 -2.4545 -1.63823 0
M  V30 14175 H 1380.1 -2.55487 0.126472 0
M  V30 14176 H 1379.74 -5.07895 -0.0230489 0
M  V30 14177 H 1379.67 -4.94937 -1.79847 0
M  V30 14178 H 1382.16 -3.6693 -0.903923 0
M  V30 14179 H 1382.47 -7.62863 -1.23532 0
M  V30 14180 H 1380.82 -6.85952 -1.11781 0
M  V30 14181 H 1384.01 -4.56453 -1.03769 0
M  V30 14182 H 1384.18 -6.36998 -1.18903 0
M  V30 14183 N 1377.59 0.500963 -1.49426 0
M  V30 14184 C 1378.52 1.61114 -1.69011 0
M  V30 14185 C 1379.5 1.61341 -0.538813 0
M  V30 14186 O 1380.69 1.78081 -0.77466 0
M  V30 14187 C 1377.82 2.99598 -1.75666 0
M  V30 14188 C 1376.77 3.14236 -2.90585 0
M  V30 14189 C 1376.1 4.54071 -2.82354 0
M  V30 14190 C 1377.4 2.94258 -4.3152 0
M  V30 14191 H 1379.09 1.44978 -2.61957 0
M  V30 14192 H 1376.64 0.69603 -1.26061 0
M  V30 14193 H 1378.59 3.77163 -1.87953 0
M  V30 14194 H 1377.31 3.16822 -0.793186 0
M  V30 14195 H 1375.97 2.39096 -2.779 0
M  V30 14196 H 1375.62 4.68172 -1.83914 0
M  V30 14197 H 1375.32 4.64806 -3.59485 0
M  V30 14198 H 1376.84 5.33696 -2.96649 0
M  V30 14199 H 1378.26 3.61592 -4.44886 0
M  V30 14200 H 1376.65 3.16464 -5.09873 0
M  V30 14201 H 1377.72 1.90383 -4.45962 0
M  V30 14202 N 1379.07 1.38501 0.752011 0
M  V30 14203 C 1380.32 1.34529 1.50819 0
M  V30 14204 C 1380.64 -0.0636155 1.94896 0
M  V30 14205 O 1379.91 -1.01161 1.6776 0
M  V30 14206 H 1378.49 0.49501 0.559441 0
M  V30 14207 H 1381.15 1.73196 0.893822 0
M  V30 14208 H 1380.24 1.99713 2.39835 0
M  V30 14209 N 1380.55 -0.980364 1.23396 0
M  V30 14210 C 1381.51 -2.05433 1.01635 0
M  V30 14211 C 1382.51 -1.60785 -0.0218244 0
M  V30 14212 O 1383.7 -1.72832 0.217922 0
M  V30 14213 C 1380.83 -3.36631 0.537822 0
M  V30 14214 H 1382.02 -2.26172 1.96943 0
M  V30 14215 H 1379.58 -1.15378 1.05441 0
M  V30 14216 H 1380.31 -3.21581 -0.41903 0
M  V30 14217 H 1380.1 -3.70377 1.28698 0
M  V30 14218 H 1381.59 -4.1562 0.406213 0
M  V30 14219 N 1382.02 -1.04567 -1.17913 0
M  V30 14220 C 1383.27 -0.747179 -1.8735 0
M  V30 14221 C 1383.59 0.728274 -1.81537 0
M  V30 14222 O 1384.79 1.14048 -2.46385 0
M  V30 14223 C 1383.25 -1.28629 -3.36129 0
M  V30 14224 C 1382.86 -2.79073 -3.5046 0
M  V30 14225 C 1384.6 -1.06455 -4.10935 0
M  V30 14226 C 1382.51 -3.26316 -4.93226 0
M  V30 14227 H 1381.44 -0.275807 -0.701745 0
M  V30 14228 H 1384.09 -1.26215 -1.33199 0
M  V30 14229 H 1382.47 -0.699151 -3.89779 0
M  V30 14230 H 1383.64 -3.43587 -3.07057 0
M  V30 14231 H 1381.96 -2.99716 -2.89066 0
M  V30 14232 H 1384.56 -1.3926 -5.16247 0
M  V30 14233 H 1384.9 -0.00201298 -4.163 0
M  V30 14234 H 1385.43 -1.61656 -3.63472 0
M  V30 14235 H 1382.17 -4.31972 -4.93032 0
M  V30 14236 H 1381.69 -2.6654 -5.37323 0
M  V30 14237 H 1383.37 -3.2063 -5.61966 0
M  V30 14238 N 1383.5 1.34231 -0.825823 0
M  V30 14239 C 1384.75 1.97454 -0.411661 0
M  V30 14240 C 1385.06 1.66193 1.03147 0
M  V30 14241 O 1386.27 2.22929 1.54968 0
M  V30 14242 C 1384.73 3.53318 -0.685145 0
M  V30 14243 C 1384.33 3.9347 -2.14208 0
M  V30 14244 C 1386.08 4.23158 -0.337291 0
M  V30 14245 C 1383.98 5.42258 -2.3603 0
M  V30 14246 H 1382.91 0.738889 -0.150196 0
M  V30 14247 H 1385.57 1.53033 -1.01258 0
M  V30 14248 H 1383.95 3.95998 -0.0140178 0
M  V30 14249 H 1385.12 3.61888 -2.85261 0
M  V30 14250 H 1383.44 3.36575 -2.45165 0
M  V30 14251 H 1386.03 5.32558 -0.47813 0
M  V30 14252 H 1386.38 4.10053 0.718499 0
M  V30 14253 H 1386.91 3.85965 -0.963113 0
M  V30 14254 H 1383.65 5.60352 -3.40126 0
M  V30 14255 H 1383.17 5.75345 -1.69524 0
M  V30 14256 H 1384.85 6.08976 -2.18533 0
M  V30 14257 N 1384.98 0.581051 1.46498 0
M  V30 14258 C 1386.4 0.242599 1.57745 0
M  V30 14259 C 1386.6 -1.25508 1.57639 0
M  V30 14260 O 1385.65 -2.0367 1.49247 0
M  V30 14261 C 1386.96 0.890342 2.87217 0
M  V30 14262 C 1388.51 0.863778 3.00845 0
M  V30 14263 C 1388.99 1.49103 4.3305 0
M  V30 14264 N 1390.48 1.4553 4.39745 0
M  V30 14265 C 1391.21 1.91003 5.40653 0
M  V30 14266 N 1390.71 2.44442 6.48244 0
M  V30 14267 N 1392.5 1.8193 5.31844 0
M  V30 14268 H 1384.65 1.55382 1.44811 0
M  V30 14269 H 1386.92 0.649375 0.690664 0
M  V30 14270 H 1386.62 1.94383 2.93101 0
M  V30 14271 H 1386.5 0.397569 3.75099 0
M  V30 14272 H 1388.88 -0.181089 2.94544 0
M  V30 14273 H 1388.96 1.39455 2.14443 0
M  V30 14274 H 1388.61 2.53509 4.40109 0
M  V30 14275 H 1388.54 0.935496 5.18224 0
M  V30 14276 H 1391.03 1.06466 3.62593 0
M  V30 14277 H 1391.34 2.77002 7.2145 0
M  V30 14278 H 1389.69 2.48467 6.49068 0
M  V30 14279 H 1392.88 1.3994 4.46693 0
M  V30 14280 H 1393.05 2.17685 6.10342 0
M  V30 14281 N 1386.46 -1.54343 0.318742 0
M  V30 14282 C 1387.7 -2.00777 -0.285699 0
M  V30 14283 C 1388.04 -1.20664 -1.52164 0
M  V30 14284 O 1387.31 -0.287674 -1.92361 0
M  V30 14285 C 1387.59 -3.54641 -0.624649 0
M  V30 14286 C 1387.45 -4.45483 0.621663 0
M  V30 14287 C 1388.77 -4.15729 -1.4442 0
M  V30 14288 H 1385.89 -0.729856 -0.102367 0
M  V30 14289 H 1388.53 -1.84968 0.434364 0
M  V30 14290 H 1386.68 -3.68243 -1.23811 0
M  V30 14291 H 1388.35 -4.43759 1.25998 0
M  V30 14292 H 1386.59 -4.15356 1.25148 0
M  V30 14293 H 1387.26 -5.50951 0.340106 0
M  V30 14294 H 1389.74 -4.05672 -0.925699 0
M  V30 14295 H 1388.62 -5.23509 -1.65013 0
M  V30 14296 H 1388.88 -3.68743 -2.43887 0
M  V30 14297 N 1387.94 -0.0468143 -1.5753 0
M  V30 14298 C 1389.35 0.309707 -1.56566 0
M  V30 14299 C 1389.55 1.7173 -1.05408 0
M  V30 14300 O 1388.61 2.4235 -0.708723 0
M  V30 14301 C 1389.92 0.142151 -3.00364 0
M  V30 14302 C 1391.47 0.213585 -3.1227 0
M  V30 14303 C 1391.94 0.0746102 -4.57939 0
M  V30 14304 N 1393.43 0.131027 -4.63015 0
M  V30 14305 C 1394.17 0.0475409 -5.7338 0
M  V30 14306 N 1393.67 -0.0880445 -6.92744 0
M  V30 14307 N 1395.46 0.102809 -5.62006 0
M  V30 14308 H 1387.61 -0.967057 -1.89108 0
M  V30 14309 H 1389.87 -0.375018 -0.870669 0
M  V30 14310 H 1389.58 -0.828171 -3.4181 0
M  V30 14311 H 1389.45 0.905006 -3.66182 0
M  V30 14312 H 1391.84 1.17438 -2.70726 0
M  V30 14313 H 1391.92 -0.57995 -2.49139 0
M  V30 14314 H 1391.56 -0.882839 -5.00168 0
M  V30 14315 H 1391.49 0.887235 -5.19072 0
M  V30 14316 H 1393.99 0.235246 -3.77167 0
M  V30 14317 H 1394.3 -0.144574 -7.72665 0
M  V30 14318 H 1392.64 -0.12307 -6.94891 0
M  V30 14319 H 1395.83 0.207259 -4.67641 0
M  V30 14320 H 1396.01 0.0342865 -6.47991 0
M  V30 14321 N 1389.41 1.55964 0.226527 0
M  V30 14322 C 1390.36 1.92007 1.28069 0
M  V30 14323 C 1391.33 0.776666 1.46823 0
M  V30 14324 O 1392.52 1.03213 1.60474 0
M  V30 14325 C 1389.66 2.23784 2.62707 0
M  V30 14326 C 1388.77 3.51034 2.51792 0
M  V30 14327 C 1387.9 3.72281 3.7892 0
M  V30 14328 C 1386.94 4.93062 3.62707 0
M  V30 14329 N 1386.08 5.10725 4.81772 0
M  V30 14330 H 1390.92 2.81898 0.96631 0
M  V30 14331 H 1388.46 1.39529 0.465847 0
M  V30 14332 H 1390.42 2.40217 3.41104 0
M  V30 14333 H 1389.05 1.37073 2.92251 0
M  V30 14334 H 1388.1 3.42822 1.64856 0
M  V30 14335 H 1389.41 4.39582 2.35731 0
M  V30 14336 H 1388.56 3.88783 4.6576 0
M  V30 14337 H 1387.3 2.82004 3.97901 0
M  V30 14338 H 1386.31 4.76515 2.7425 0
M  V30 14339 H 1387.53 5.84819 3.45201 0
M  V30 14340 H 1385.48 4.2339 5.01076 0
M  V30 14341 H 1385.4 5.93397 4.68419 0
M  V30 14342 H 1386.66 5.31658 5.70053 0
M  V30 14343 N 1390.89 -0.493031 1.4969 0
M  V30 14344 C 1391.86 -1.57598 1.6642 0
M  V30 14345 C 1392.86 -1.51615 0.535668 0
M  V30 14346 O 1394.05 -1.54626 0.802283 0
M  V30 14347 C 1391.18 -2.97249 1.66901 0
M  V30 14348 H 1392.37 -1.4409 2.63017 0
M  V30 14349 H 1389.92 -0.717846 1.3884 0
M  V30 14350 H 1390.66 -3.16225 0.719164 0
M  V30 14351 H 1390.44 -3.02999 2.48865 0
M  V30 14352 H 1391.93 -3.75914 1.81874 0
M  V30 14353 N 1392.37 -1.38898 -0.744656 0
M  V30 14354 C 1393.65 -1.2611 -1.49518 0
M  V30 14355 C 1394.03 0.133592 -2.10677 0
M  V30 14356 O 1393.38 1.14394 -1.97804 0
M  V30 14357 C 1393.59 -2.37809 -2.55437 0
M  V30 14358 C 1394.93 -2.76664 -3.22091 0
M  V30 14359 O 1395.96 -2.37187 -2.65746 0
M  V30 14360 O 1394.82 -3.44771 -4.24023 0
M  V30 14361 H 1391.91 -0.493664 -0.663494 0
M  V30 14362 H 1394.46 -1.50748 -0.779304 0
M  V30 14363 H 1393.23 -3.31089 -2.08556 0
M  V30 14364 H 1392.85 -2.14783 -3.34595 0
M  V30 14365 N 1393.85 0.973806 -1.23914 0
M  V30 14366 C 1395.1 1.71259 -1.07307 0
M  V30 14367 C 1395.42 1.91064 0.389831 0
M  V30 14368 O 1394.69 1.48401 1.27883 0
M  V30 14369 H 1393.27 0.634588 -0.39409 0
M  V30 14370 H 1395.93 1.17184 -1.55737 0
M  V30 14371 H 1395.03 2.69953 -1.56626 0
M  V30 14372 N 1395.33 1.05191 1.17357 0
M  V30 14373 C 1396.57 0.760479 1.87246 0
M  V30 14374 C 1396.9 -0.714618 1.81434 0
M  V30 14375 O 1396.17 -1.51636 1.24029 0
M  V30 14376 H 1394.75 0.278317 0.693216 0
M  V30 14377 H 1397.41 1.33106 1.42369 0
M  V30 14378 H 1396.5 1.07542 2.92987 0
M  V30 14379 N 1396.8 -1.33791 0.83293 0
M  V30 14380 C 1397.71 -2.33108 0.264169 0
M  V30 14381 C 1398.73 -1.6308 -0.606694 0
M  V30 14382 O 1399.91 -1.94777 -0.512225 0
M  V30 14383 C 1396.97 -3.42208 -0.556315 0
M  V30 14384 C 1396.03 -4.27966 0.338123 0
M  V30 14385 C 1395.27 -5.31856 -0.443297 0
M  V30 14386 O 1395.49 -5.45234 -1.6756 0
M  V30 14387 O 1394.42 -6.01632 0.179599 0
M  V30 14388 H 1398.25 -2.83602 1.08645 0
M  V30 14389 H 1395.83 -1.37027 0.595307 0
M  V30 14390 H 1397.72 -4.088 -1.02277 0
M  V30 14391 H 1396.39 -2.9394 -1.35575 0
M  V30 14392 H 1395.3 -3.64262 0.852293 0
M  V30 14393 H 1396.63 -4.79701 1.10217 0
M  V30 14394 N 1398.28 -0.588812 -1.46187 0
M  V30 14395 C 1399.22 0.189417 -2.27413 0
M  V30 14396 C 1400.19 0.891224 -1.36 0
M  V30 14397 O 1401.38 0.903883 -1.65415 0
M  V30 14398 C 1398.5 1.27233 -3.13894 0
M  V30 14399 C 1397.55 0.675705 -4.21113 0
M  V30 14400 S 1398.38 -0.502093 -5.33141 0
M  V30 14401 C 1399.54 0.581875 -6.23189 0
M  V30 14402 H 1399.77 -0.499754 -2.9307 0
M  V30 14403 H 1397.31 -0.375854 -1.49755 0
M  V30 14404 H 1399.26 1.89233 -3.64282 0
M  V30 14405 H 1397.92 1.93348 -2.47538 0
M  V30 14406 H 1397.12 1.48991 -4.81475 0
M  V30 14407 H 1396.72 0.131249 -3.7377 0
M  V30 14408 H 1399.01 1.46594 -6.6145 0
M  V30 14409 H 1399.95 0.0148739 -7.08098 0
M  V30 14410 H 1400.36 0.888764 -5.5746 0
M  V30 14411 N 1399.76 1.54172 -0.326923 0
M  V30 14412 C 1400.99 2.05044 0.276508 0
M  V30 14413 C 1401.4 1.20288 1.45521 0
M  V30 14414 O 1400.76 0.234324 1.80989 0
M  V30 14415 C 1400.81 3.54505 0.707714 0
M  V30 14416 O 1400.53 4.36042 -0.424098 0
M  V30 14417 C 1402.03 4.21482 1.3736 0
M  V30 14418 H 1399.25 0.668632 0.0563273 0
M  V30 14419 H 1401.8 1.98929 -0.474087 0
M  V30 14420 H 1399.95 3.60896 1.40828 0
M  V30 14421 H 1400.37 5.24433 -0.0836846 0
M  V30 14422 H 1401.84 5.27501 1.62623 0
M  V30 14423 H 1402.32 3.72802 2.32196 0
M  V30 14424 H 1402.92 4.19238 0.715526 0
M  V30 14425 N 1401.24 0.0551678 1.57503 0
M  V30 14426 C 1402.48 -0.618636 1.93134 0
M  V30 14427 C 1402.82 -1.70258 0.934125 0
M  V30 14428 O 1402.09 -1.9446 -0.0392699 0
M  V30 14429 C 1402.38 -1.21103 3.39126 0
M  V30 14430 C 1402.23 -0.134865 4.49598 0
M  V30 14431 C 1403.55 -2.12148 3.85592 0
M  V30 14432 H 1400.67 -0.223416 0.702321 0
M  V30 14433 H 1403.31 0.117748 1.89635 0
M  V30 14434 H 1401.46 -1.83862 3.42238 0
M  V30 14435 H 1403.13 0.497292 4.58612 0
M  V30 14436 H 1401.37 0.536587 4.30469 0
M  V30 14437 H 1402.04 -0.589447 5.48844 0
M  V30 14438 H 1404.52 -1.59346 3.8438 0
M  V30 14439 H 1403.4 -2.50539 4.88387 0
M  V30 14440 H 1403.66 -3.02318 3.22578 0
M  V30 14441 N 1402.72 -1.56081 -0.218252 0
M  V30 14442 C 1403.97 -1.78445 -0.94022 0
M  V30 14443 C 1404.28 -0.624317 -1.85369 0
M  V30 14444 O 1405.48 -0.731669 -2.61455 0
M  V30 14445 C 1403.94 -3.16026 -1.72208 0
M  V30 14446 C 1403.55 -4.39774 -0.854584 0
M  V30 14447 C 1405.29 -3.47714 -2.43506 0
M  V30 14448 C 1403.2 -5.68379 -1.63398 0
M  V30 14449 H 1402.13 -0.665303 -0.354806 0
M  V30 14450 H 1404.78 -1.82471 -0.194021 0
M  V30 14451 H 1403.16 -3.06185 -2.5113 0
M  V30 14452 H 1404.34 -4.60679 -0.105659 0
M  V30 14453 H 1402.65 -4.15627 -0.253562 0
M  V30 14454 H 1405.25 -4.41026 -3.02325 0
M  V30 14455 H 1405.59 -2.70367 -3.16555 0
M  V30 14456 H 1406.12 -3.58899 -1.71571 0
M  V30 14457 H 1402.86 -6.48628 -0.946704 0
M  V30 14458 H 1402.38 -5.5153 -2.35743 0
M  V30 14459 H 1404.06 -6.08672 -2.1938 0
M  V30 14460 N 1404.2 0.485086 -1.49949 0
M  V30 14461 C 1405.61 0.817651 -1.37064 0
M  V30 14462 C 1405.81 1.9716 -0.415949 0
M  V30 14463 O 1404.87 2.52074 0.146567 0
M  V30 14464 C 1406.18 1.14288 -2.78134 0
M  V30 14465 C 1407.73 1.25016 -2.8695 0
M  V30 14466 C 1408.2 1.60859 -4.28822 0
M  V30 14467 N 1409.69 1.67878 -4.31707 0
M  V30 14468 C 1410.43 1.97089 -5.38464 0
M  V30 14469 N 1409.93 2.24415 -6.55446 0
M  V30 14470 N 1411.72 1.98474 -5.25894 0
M  V30 14471 H 1403.87 -0.275606 -2.10604 0
M  V30 14472 H 1406.13 -0.0607486 -0.946052 0
M  V30 14473 H 1405.84 0.36817 -3.49768 0
M  V30 14474 H 1405.71 2.0825 -3.14502 0
M  V30 14475 H 1408.1 2.01556 -2.15544 0
M  V30 14476 H 1408.18 0.290664 -2.54143 0
M  V30 14477 H 1407.82 0.848639 -5.0076 0
M  V30 14478 H 1407.75 2.57936 -4.59104 0
M  V30 14479 H 1410.25 1.48856 -3.47347 0
M  V30 14480 H 1410.56 2.45938 -7.32622 0
M  V30 14481 H 1408.9 2.21837 -6.58645 0
M  V30 14482 H 1412.09 1.76612 -4.33504 0
M  V30 14483 H 1412.27 2.20904 -6.09184 0
M  V30 14484 N 1405.67 1.39291 0.737279 0
M  V30 14485 C 1406.9 1.39844 1.53162 0
M  V30 14486 C 1407.32 -0.00568546 1.88099 0
M  V30 14487 O 1406.68 -0.992085 1.51748 0
M  V30 14488 C 1406.73 2.27577 2.79716 0
M  V30 14489 O 1405.83 1.70408 3.75546 0
M  V30 14490 H 1405.17 0.476314 0.462624 0
M  V30 14491 H 1407.7 1.83258 0.909819 0
M  V30 14492 H 1407.71 2.42009 3.28475 0
M  V30 14493 H 1406.39 3.29621 2.53619 0
M  V30 14494 H 1404.97 1.65206 3.34307 0
M  V30 14495 N 1407.15 -0.967221 1.24429 0
M  V30 14496 C 1408.4 -1.70688 1.08213 0
M  V30 14497 C 1408.72 -1.91268 -0.379693 0
M  V30 14498 O 1407.99 -1.49077 -1.27094 0
M  V30 14499 H 1406.57 -0.632489 0.39745 0
M  V30 14500 H 1409.23 -1.16356 1.56356 0
M  V30 14501 H 1408.33 -2.69119 1.58055 0
M  V30 14502 N 1408.63 -1.05812 -1.16797 0
M  V30 14503 C 1409.88 -0.767008 -1.86547 0
M  V30 14504 C 1410.19 0.708979 -1.82299 0
M  V30 14505 O 1411.4 1.11428 -2.4758 0
M  V30 14506 C 1409.85 -1.32186 -3.34746 0
M  V30 14507 C 1409.46 -2.82774 -3.4748 0
M  V30 14508 C 1411.21 -1.10808 -4.09783 0
M  V30 14509 C 1409.11 -3.31529 -4.89737 0
M  V30 14510 H 1408.04 -0.283235 -0.698781 0
M  V30 14511 H 1410.69 -1.27621 -1.31853 0
M  V30 14512 H 1409.08 -0.740453 -3.89016 0
M  V30 14513 H 1410.25 -3.46825 -3.03396 0
M  V30 14514 H 1408.56 -3.02765 -2.85871 0
M  V30 14515 H 1411.16 -1.44728 -5.14741 0
M  V30 14516 H 1411.5 -0.046167 -4.16274 0
M  V30 14517 H 1412.04 -1.65502 -3.61737 0
M  V30 14518 H 1408.78 -4.37177 -4.88422 0
M  V30 14519 H 1408.3 -2.72224 -5.34466 0
M  V30 14520 H 1409.98 -3.26572 -5.58534 0
M  V30 14521 N 1410.11 1.33347 -0.840014 0
M  V30 14522 C 1411.07 2.27492 -0.279264 0
M  V30 14523 C 1412.07 1.51004 0.552669 0
M  V30 14524 O 1413.26 1.70305 0.366295 0
M  V30 14525 C 1410.39 3.35462 0.606466 0
M  V30 14526 H 1411.59 2.78601 -1.11001 0
M  V30 14527 H 1409.14 1.4377 -0.613187 0
M  V30 14528 H 1409.87 2.89596 1.45961 0
M  V30 14529 H 1409.66 3.92098 0.0111889 0
M  V30 14530 H 1411.15 4.05645 0.992052 0
M  V30 14531 N 1411.59 0.596556 1.45873 0
M  V30 14532 C 1412.82 0.093357 2.06389 0
M  V30 14533 C 1413.22 -1.2229 1.44367 0
M  V30 14534 O 1412.57 -1.75332 0.548131 0
M  V30 14535 C 1412.63 -0.132256 3.59257 0
M  V30 14536 C 1412.29 1.10051 4.43551 0
M  V30 14537 C 1413.29 2.01598 4.79223 0
M  V30 14538 C 1410.97 1.32625 4.84475 0
M  V30 14539 C 1412.97 3.14054 5.54661 0
M  V30 14540 C 1410.66 2.45384 5.5967 0
M  V30 14541 C 1411.65 3.35927 5.94678 0
M  V30 14542 O 1411.34 4.46726 6.6835 0
M  V30 14543 H 1411.07 0.0608944 0.673252 0
M  V30 14544 H 1413.63 0.821009 1.88278 0
M  V30 14545 H 1411.86 -0.914678 3.75727 0
M  V30 14546 H 1413.55 -0.585681 4.01652 0
M  V30 14547 H 1414.31 1.85379 4.48174 0
M  V30 14548 H 1410.19 0.630522 4.56668 0
M  V30 14549 H 1413.74 3.8475 5.81904 0
M  V30 14550 H 1409.63 2.6156 5.90133 0
M  V30 14551 H 1410.4 4.45268 6.86789 0
M  V30 14552 N 1413.06 -1.53996 0.335095 0
M  V30 14553 C 1414.31 -1.99952 -0.264954 0
M  V30 14554 C 1414.63 -1.22696 -1.52332 0
M  V30 14555 O 1415.83 -1.59086 -2.20009 0
M  V30 14556 C 1414.29 -3.56085 -0.522667 0
M  V30 14557 C 1413.9 -4.42188 0.719314 0
M  V30 14558 C 1415.64 -4.10478 -1.08204 0
M  V30 14559 C 1413.55 -5.89814 0.432867 0
M  V30 14560 H 1412.48 -0.746962 -0.102782 0
M  V30 14561 H 1415.13 -1.77919 0.449111 0
M  V30 14562 H 1413.51 -3.7415 -1.29722 0
M  V30 14563 H 1414.68 -4.35898 1.49432 0
M  V30 14564 H 1413 -3.98743 1.19972 0
M  V30 14565 H 1415.6 -5.18375 -1.31116 0
M  V30 14566 H 1415.94 -3.63173 -2.03497 0
M  V30 14567 H 1416.47 -3.96091 -0.368395 0
M  V30 14568 H 1413.21 -6.41336 1.35529 0
M  V30 14569 H 1412.73 -5.99028 -0.304214 0
M  V30 14570 H 1414.41 -6.46983 0.0469657 0
M  V30 14571 N 1414.54 -0.0635198 -1.57472 0
M  V30 14572 C 1415.47 0.90431 -2.15278 0
M  V30 14573 C 1416.45 1.31609 -1.07764 0
M  V30 14574 O 1417.64 1.38861 -1.35762 0
M  V30 14575 C 1414.77 2.17483 -2.70774 0
M  V30 14576 C 1413.72 1.90272 -3.8338 0
M  V30 14577 C 1413.05 3.23885 -4.25444 0
M  V30 14578 C 1414.35 1.21454 -5.07983 0
M  V30 14579 H 1416.04 0.422786 -2.964 0
M  V30 14580 H 1413.59 0.201918 -1.42577 0
M  V30 14581 H 1415.54 2.856 -3.09856 0
M  V30 14582 H 1414.26 2.67863 -1.86861 0
M  V30 14583 H 1412.92 1.24564 -3.44789 0
M  V30 14584 H 1412.57 3.72089 -3.38465 0
M  V30 14585 H 1412.27 3.06472 -5.01347 0
M  V30 14586 H 1413.8 3.93212 -4.67137 0
M  V30 14587 H 1415.21 1.79625 -5.44433 0
M  V30 14588 H 1413.61 1.14327 -5.89109 0
M  V30 14589 H 1414.68 0.19238 -4.84518 0
M  V30 14590 N 1416.02 1.56195 0.209972 0
M  V30 14591 C 1416.97 1.89755 1.26401 0
M  V30 14592 C 1417.95 0.761731 1.41727 0
M  V30 14593 O 1419.15 1.02435 1.44347 0
M  V30 14594 C 1416.27 2.22775 2.61201 0
M  V30 14595 C 1415.36 3.42777 2.49729 0
M  V30 14596 N 1415.75 4.61089 2.0792 0
M  V30 14597 C 1414.05 3.46621 2.8066 0
M  V30 14598 C 1414.75 5.43249 2.07979 0
M  V30 14599 N 1413.73 4.83263 2.48913 0
M  V30 14600 H 1417.53 2.78736 0.93184 0
M  V30 14601 H 1415.04 1.56915 0.418485 0
M  V30 14602 H 1417.04 2.44997 3.37316 0
M  V30 14603 H 1415.7 1.35112 2.95254 0
M  V30 14604 H 1416.71 4.86033 1.78865 0
M  V30 14605 H 1413.39 2.69334 3.19007 0
M  V30 14606 H 1414.78 6.47981 1.77681 0
M  V30 14607 N 1417.5 -0.477127 1.50204 0
M  V30 14608 C 1418.43 -1.58405 1.71552 0
M  V30 14609 C 1419.41 -1.60463 0.564413 0
M  V30 14610 O 1420.59 -1.76826 0.802893 0
M  V30 14611 C 1417.72 -2.96765 1.8041 0
M  V30 14612 C 1416.68 -3.09573 2.95548 0
M  V30 14613 C 1416 -4.49522 2.89542 0
M  V30 14614 C 1417.3 -2.87356 4.36147 0
M  V30 14615 H 1419 -1.40792 2.64231 0
M  V30 14616 H 1416.54 -0.675886 1.27153 0
M  V30 14617 H 1418.5 -3.74125 1.9393 0
M  V30 14618 H 1417.22 -3.1552 0.843489 0
M  V30 14619 H 1415.88 -2.34645 2.81669 0
M  V30 14620 H 1415.53 -4.65186 1.91339 0
M  V30 14621 H 1415.23 -4.59028 3.66834 0
M  V30 14622 H 1416.75 -5.28909 3.05102 0
M  V30 14623 H 1418.17 -3.54469 4.50583 0
M  V30 14624 H 1416.56 -3.08313 5.14843 0
M  V30 14625 H 1417.63 -1.83264 4.48935 0
M  V30 14626 N 1418.98 -1.3968 -0.729882 0
M  V30 14627 C 1419.92 -1.38808 -1.84393 0
M  V30 14628 C 1420.89 -0.247035 -1.64253 0
M  V30 14629 O 1422.08 -0.44293 -1.85588 0
M  V30 14630 C 1419.22 -1.2424 -3.2196 0
M  V30 14631 C 1418.33 -2.47932 -3.53771 0
M  V30 14632 C 1417.47 -2.25913 -4.80767 0
M  V30 14633 C 1416.51 -3.45254 -5.05436 0
M  V30 14634 N 1415.64 -3.2252 -6.23638 0
M  V30 14635 H 1420.48 -2.34038 -1.84473 0
M  V30 14636 H 1418.02 -1.16252 -0.901332 0
M  V30 14637 H 1419.98 -1.13804 -4.01378 0
M  V30 14638 H 1418.61 -0.326375 -3.21146 0
M  V30 14639 H 1417.66 -2.68952 -2.69015 0
M  V30 14640 H 1418.97 -3.36806 -3.67917 0
M  V30 14641 H 1418.13 -2.12748 -5.68175 0
M  V30 14642 H 1416.86 -1.34441 -4.68804 0
M  V30 14643 H 1415.87 -3.58912 -4.16488 0
M  V30 14644 H 1417.09 -4.37634 -5.19282 0
M  V30 14645 H 1415.04 -2.33718 -6.12953 0
M  V30 14646 H 1414.96 -4.04954 -6.38395 0
M  V30 14647 H 1416.23 -3.1306 -7.13872 0
M  V30 14648 N 1420.45 0.960609 -1.2494 0
M  V30 14649 C 1421.68 1.7446 -1.12153 0
M  V30 14650 C 1422.1 1.85335 0.321315 0
M  V30 14651 O 1421.46 1.32944 1.23271 0
M  V30 14652 C 1421.51 3.13945 -1.774 0
M  V30 14653 O 1420.61 3.9882 -1.04958 0
M  V30 14654 H 1419.96 0.536007 -0.391909 0
M  V30 14655 H 1422.49 1.2045 -1.65388 0
M  V30 14656 H 1422.5 3.64434 -1.83444 0
M  V30 14657 H 1421.17 3.05346 -2.82377 0
M  V30 14658 H 1419.75 3.57293 -1.06752 0
M  V30 14659 N 1421.93 1.0643 1.16234 0
M  V30 14660 C 1423.16 0.80148 1.9042 0
M  V30 14661 C 1423.57 -0.648064 1.77755 0
M  V30 14662 O 1422.91 -1.4555 1.12076 0
M  V30 14663 C 1422.98 1.11855 3.41656 0
M  V30 14664 C 1422.64 2.5668 3.78107 0
M  V30 14665 C 1423.64 3.54914 3.79911 0
M  V30 14666 C 1421.32 2.92015 4.08696 0
M  V30 14667 C 1423.32 4.86522 4.11795 0
M  V30 14668 C 1421 4.23823 4.40247 0
M  V30 14669 C 1422 5.20887 4.41776 0
M  V30 14670 O 1421.69 6.50329 4.72575 0
M  V30 14671 H 1421.42 0.290009 0.610632 0
M  V30 14672 H 1423.97 1.42157 1.48258 0
M  V30 14673 H 1422.2 0.441395 3.84173 0
M  V30 14674 H 1423.89 0.839759 3.97118 0
M  V30 14675 H 1424.66 3.28957 3.56388 0
M  V30 14676 H 1420.54 2.17119 4.0667 0
M  V30 14677 H 1424.08 5.62278 4.12903 0
M  V30 14678 H 1419.98 4.49538 4.63235 0
M  V30 14679 H 1420.75 6.55339 4.90381 0
M  V30 14680 N 1423.41 -1.329 0.847073 0
M  V30 14681 C 1424.69 -1.921 0.368351 0
M  V30 14682 C 1425.07 -1.77205 -1.14724 0
M  V30 14683 O 1424.42 -1.16547 -1.96543 0
M  V30 14684 C 1424.63 -3.39125 0.824326 0
M  V30 14685 C 1425.97 -4.16267 0.837097 0
M  V30 14686 O 1427 -3.47812 0.768466 0
M  V30 14687 O 1425.86 -5.38487 0.932389 0
M  V30 14688 H 1422.95 -0.820187 0.105936 0
M  V30 14689 H 1425.5 -1.41719 0.933471 0
M  V30 14690 H 1424.27 -3.43875 1.86723 0
M  V30 14691 H 1423.89 -3.96898 0.236233 0
M  V30 14692 N 1424.89 -0.604284 -1.45555 0
M  V30 14693 C 1426.13 -0.0983316 -2.02561 0
M  V30 14694 C 1426.47 1.26659 -1.47211 0
M  V30 14695 O 1425.74 1.83476 -0.645519 0
M  V30 14696 C 1426.03 -0.0558349 -3.60057 0
M  V30 14697 C 1425.88 -1.45119 -4.25747 0
M  V30 14698 C 1427.2 0.633708 -4.35514 0
M  V30 14699 H 1424.32 -0.0372071 -0.73606 0
M  V30 14700 H 1426.96 -0.775623 -1.73448 0
M  V30 14701 H 1425.11 0.520935 -3.84992 0
M  V30 14702 H 1426.78 -2.07478 -4.12008 0
M  V30 14703 H 1425.02 -2.01283 -3.84275 0
M  V30 14704 H 1425.69 -1.37372 -5.34633 0
M  V30 14705 H 1428.17 0.143501 -4.15852 0
M  V30 14706 H 1427.05 0.632538 -5.45243 0
M  V30 14707 H 1427.31 1.69917 -4.08143 0
M  V30 14708 N 1426.37 1.53816 -0.343257 0
M  V30 14709 C 1427.31 2.26505 0.529002 0
M  V30 14710 C 1428.31 1.28639 1.1022 0
M  V30 14711 O 1429.51 1.46348 1.04797 0
M  V30 14712 H 1425.89 0.727789 0.189279 0
M  V30 14713 H 1427.86 2.98211 -0.106096 0
M  V30 14714 C 1426.61 3.05062 1.6683 0
M  V30 14715 H 1425.93 3.80198 1.23651 0
M  V30 14716 H 1427.37 3.59138 2.2538 0
M  V30 14717 C 1425.83 2.14543 2.59756 0
M  V30 14718 O 1426.36 1.74132 3.61996 0
M  V30 14719 N 1424.57 1.79628 2.28434 0
M  V30 14720 H 1424.11 2.12688 1.45332 0
M  V30 14721 H 1424.07 1.19345 2.90868 0
M  V30 14722 N 1427.84 0.0718701 1.57436 0
M  V30 14723 C 1429.09 -0.596799 1.92669 0
M  V30 14724 C 1429.41 -1.70765 0.953876 0
M  V30 14725 O 1430.61 -2.43589 1.19903 0
M  V30 14726 C 1429.07 -1.11291 3.42261 0
M  V30 14727 C 1428.68 -0.0330681 4.47988 0
M  V30 14728 C 1430.42 -1.75564 3.86494 0
M  V30 14729 C 1428.33 -0.56323 5.88712 0
M  V30 14730 H 1427.26 -0.226695 0.719114 0
M  V30 14731 H 1429.91 0.144117 1.82933 0
M  V30 14732 H 1428.29 -1.9068 3.4707 0
M  V30 14733 H 1429.46 0.741501 4.54795 0
M  V30 14734 H 1427.78 0.513438 4.13222 0
M  V30 14735 H 1430.38 -2.16261 4.89014 0
M  V30 14736 H 1430.72 -2.61566 3.23865 0
M  V30 14737 H 1431.25 -1.02798 3.84288 0
M  V30 14738 H 1427.99 0.259632 6.54986 0
M  V30 14739 H 1427.51 -1.30532 5.85424 0
M  V30 14740 H 1429.19 -1.03961 6.38593 0
M  V30 14741 N 1429.32 -1.56304 -0.201686 0
M  V30 14742 C 1430.25 -1.90538 -1.27389 0
M  V30 14743 C 1431.27 -0.795422 -1.42045 0
M  V30 14744 O 1432.46 -1.07381 -1.42589 0
M  V30 14745 C 1429.56 -2.11638 -2.64694 0
M  V30 14746 C 1428.73 -3.42755 -2.71731 0
M  V30 14747 C 1427.79 -3.53047 -3.90185 0
M  V30 14748 O 1426.81 -4.25923 -3.77595 0
M  V30 14749 N 1428.02 -2.85649 -5.05356 0
M  V30 14750 H 1430.78 -2.83106 -0.983411 0
M  V30 14751 H 1428.34 -1.57092 -0.391638 0
M  V30 14752 H 1430.33 -2.15818 -3.42352 0
M  V30 14753 H 1428.9 -1.256 -2.86258 0
M  V30 14754 H 1428.12 -3.50501 -1.80397 0
M  V30 14755 H 1429.41 -4.29092 -2.73418 0
M  V30 14756 H 1428.81 -2.26256 -5.18483 0
M  V30 14757 H 1427.37 -2.95465 -5.80985 0
M  V30 14758 N 1430.8 0.469154 -1.50455 0
M  V30 14759 C 1432.03 1.24432 -1.653 0
M  V30 14760 C 1432.44 1.85766 -0.33713 0
M  V30 14761 O 1431.8 1.69313 0.681118 0
M  V30 14762 C 1431.85 2.35163 -2.74555 0
M  V30 14763 O 1431.57 1.76344 -4.01042 0
M  V30 14764 C 1433.07 3.26006 -3.00391 0
M  V30 14765 H 1430.29 0.376251 -0.555587 0
M  V30 14766 H 1432.84 0.559777 -1.96689 0
M  V30 14767 H 1430.99 2.99389 -2.45855 0
M  V30 14768 H 1431.41 2.49278 -4.61477 0
M  V30 14769 H 1432.88 3.99909 -3.80496 0
M  V30 14770 H 1433.36 3.84901 -2.11537 0
M  V30 14771 H 1433.96 2.67515 -3.3063 0
M  V30 14772 N 1432.28 1.40065 0.722464 0
M  V30 14773 C 1433.53 1.37698 1.47932 0
M  V30 14774 C 1433.85 -0.0222608 1.94987 0
M  V30 14775 O 1433.12 -0.975795 1.69868 0
M  V30 14776 H 1431.7 0.506766 0.548815 0
M  V30 14777 H 1434.36 1.75053 0.856884 0
M  V30 14778 H 1433.46 2.04756 2.35545 0
M  V30 14779 N 1433.76 -0.95397 1.25448 0
M  V30 14780 C 1434.98 -1.73863 1.13077 0
M  V30 14781 C 1435.41 -1.85503 -0.311481 0
M  V30 14782 O 1434.77 -1.33596 -1.22564 0
M  V30 14783 C 1434.81 -3.13 1.79062 0
M  V30 14784 O 1433.92 -3.98258 1.07072 0
M  V30 14785 H 1433.26 -0.533921 0.394746 0
M  V30 14786 H 1435.79 -1.19571 1.66024 0
M  V30 14787 H 1435.8 -3.63456 1.85374 0
M  V30 14788 H 1434.47 -3.03844 2.83992 0
M  V30 14789 H 1433.05 -3.56722 1.08645 0
M  V30 14790 N 1435.24 -1.07045 -1.15668 0
M  V30 14791 C 1436.18 -0.68226 -2.22369 0
M  V30 14792 C 1437.18 0.305448 -1.66623 0
M  V30 14793 O 1438.38 0.169495 -1.792 0
M  V30 14794 H 1434.76 -0.202536 -0.724212 0
M  V30 14795 H 1436.73 -1.59187 -2.52393 0
M  V30 14796 C 1435.48 -0.0928131 -3.47576 0
M  V30 14797 H 1434.8 -0.843964 -3.90791 0
M  V30 14798 H 1436.24 0.14118 -4.23765 0
M  V30 14799 C 1434.7 1.16567 -3.16091 0
M  V30 14800 O 1435.23 2.25257 -3.32599 0
M  V30 14801 N 1433.44 1.07061 -2.7016 0
M  V30 14802 H 1432.98 0.186091 -2.56927 0
M  V30 14803 H 1432.94 1.91346 -2.49468 0
M  V30 14804 N 1436.71 1.32449 -0.85411 0
M  V30 14805 C 1437.68 2.27183 -0.303377 0
M  V30 14806 C 1438.68 1.51582 0.536622 0
M  V30 14807 O 1439.87 1.70684 0.348211 0
M  V30 14808 C 1437 3.36086 0.570852 0
M  V30 14809 H 1438.19 2.77408 -1.1395 0
M  V30 14810 H 1435.74 1.43111 -0.628402 0
M  V30 14811 H 1436.48 2.91128 1.42881 0
M  V30 14812 H 1436.26 3.92088 -0.030399 0
M  V30 14813 H 1437.75 4.06675 0.948972 0
M  V30 14814 N 1438.19 0.611994 1.45232 0
M  V30 14815 C 1439.43 0.111974 2.04093 0
M  V30 14816 C 1439.8 -1.23571 1.4695 0
M  V30 14817 O 1441 -1.82671 1.97192 0
M  V30 14818 C 1439.27 0.0779401 3.57315 0
M  V30 14819 S 1440.83 -0.360247 4.37319 0
M  V30 14820 H 1437.64 0.0517217 0.709116 0
M  V30 14821 H 1440.25 0.811087 1.77881 0
M  V30 14822 H 1438.95 1.06223 3.96415 0
M  V30 14823 H 1438.48 -0.643028 3.88109 0
M  V30 14824 H 1440.5 -1.6088 4.69396 0
M  V30 14825 N 1439.67 -1.53632 0.351409 0
M  V30 14826 C 1440.62 -2.26782 -0.516983 0
M  V30 14827 C 1441.61 -1.29222 -1.09536 0
M  V30 14828 O 1442.82 -1.46901 -1.04019 0
M  V30 14829 H 1439.19 -0.728783 -0.185417 0
M  V30 14830 H 1441.16 -2.98151 0.121909 0
M  V30 14831 C 1439.91 -3.05943 -1.6521 0
M  V30 14832 H 1439.24 -3.80848 -1.21633 0
M  V30 14833 H 1440.68 -3.60328 -2.23472 0
M  V30 14834 C 1439.13 -2.15917 -2.58614 0
M  V30 14835 O 1439.66 -1.76049 -3.61067 0
M  V30 14836 N 1437.87 -1.80837 -2.27478 0
M  V30 14837 H 1437.42 -2.13456 -1.44202 0
M  V30 14838 H 1437.38 -1.20886 -2.90231 0
M  V30 14839 N 1441.15 -0.0802183 -1.57396 0
M  V30 14840 C 1442.08 0.913777 -2.10197 0
M  V30 14841 C 1443.09 1.25588 -1.03593 0
M  V30 14842 O 1444.28 1.21159 -1.31083 0
M  V30 14843 C 1441.38 2.2272 -2.55439 0
M  V30 14844 C 1440.55 2.06268 -3.8571 0
M  V30 14845 C 1439.61 3.20989 -4.16956 0
M  V30 14846 O 1438.64 2.95608 -4.8642 0
M  V30 14847 N 1439.84 4.46331 -3.71172 0
M  V30 14848 H 1442.61 0.462908 -2.96103 0
M  V30 14849 H 1440.17 0.105287 -1.61557 0
M  V30 14850 H 1442.16 2.98389 -2.73397 0
M  V30 14851 H 1440.73 2.59278 -1.74624 0
M  V30 14852 H 1439.95 1.15016 -3.77048 0
M  V30 14853 H 1441.24 1.92535 -4.70965 0
M  V30 14854 H 1440.64 4.69837 -3.15071 0
M  V30 14855 H 1439.19 5.18999 -3.94314 0
M  V30 14856 N 1442.63 1.56409 0.193394 0
M  V30 14857 C 1444.04 1.70624 0.757915 0
M  V30 14858 C 1444.39 0.687074 1.83776 0
M  V30 14859 O 1443.51 -0.15616 2.15836 0
M  V30 14860 C 1444.11 3.09352 1.38156 0
M  V30 14861 C 1442.67 3.25326 1.89315 0
M  V30 14862 C 1441.81 2.66576 0.763727 0
M  V30 14863 H 1444.76 1.58668 -0.0317034 0
M  V30 14864 H 1444.79 3.06776 2.25098 0
M  V30 14865 H 1444.3 3.83506 0.595398 0
M  V30 14866 H 1442.4 2.5609 2.70644 0
M  V30 14867 H 1442.51 4.32848 2.05376 0
M  V30 14868 H 1440.88 2.25797 1.17846 0
M  V30 14869 H 1441.66 3.43298 -0.0102243 0
M  V30 14870 N 1444.1 -0.461169 1.50702 0
M  V30 14871 C 1445.33 -1.23554 1.65958 0
M  V30 14872 C 1445.75 -1.85584 0.346977 0
M  V30 14873 O 1445.1 -1.69672 -0.672129 0
M  V30 14874 C 1445.15 -2.33704 2.75799 0
M  V30 14875 O 1444.88 -1.74215 4.01971 0
M  V30 14876 C 1446.38 -3.24409 3.02116 0
M  V30 14877 H 1443.6 -0.373299 0.557574 0
M  V30 14878 H 1446.14 -0.549338 1.96984 0
M  V30 14879 H 1444.3 -2.98081 2.47439 0
M  V30 14880 H 1444.71 -2.46827 4.62792 0
M  V30 14881 H 1446.18 -3.97885 3.82611 0
M  V30 14882 H 1446.66 -3.83774 2.13576 0
M  V30 14883 H 1447.27 -2.65757 3.32044 0
M  V30 14884 N 1445.58 -1.40446 -0.715026 0
M  V30 14885 C 1446.53 -1.37235 -1.82073 0
M  V30 14886 C 1447.52 -0.249808 -1.58949 0
M  V30 14887 O 1448.71 -0.488958 -1.70112 0
M  V30 14888 C 1445.84 -1.23786 -3.20206 0
M  V30 14889 C 1444.92 -2.40824 -3.49091 0
M  V30 14890 N 1445.31 -3.66305 -3.4879 0
M  V30 14891 C 1443.61 -2.34215 -3.79551 0
M  V30 14892 C 1444.31 -4.43817 -3.76034 0
M  V30 14893 N 1443.29 -3.73664 -3.94811 0
M  V30 14894 H 1447.09 -2.32195 -1.80174 0
M  V30 14895 H 1444.6 -1.34226 -0.914175 0
M  V30 14896 H 1446.6 -1.19568 -3.99386 0
M  V30 14897 H 1445.26 -0.297938 -3.2333 0
M  V30 14898 H 1446.27 -3.99458 -3.29626 0
M  V30 14899 H 1442.95 -1.48592 -3.90162 0
M  V30 14900 H 1444.34 -5.52674 -3.82101 0
M  V30 14901 N 1447.06 0.947303 -1.25952 0
M  V30 14902 C 1448.47 1.50755 -1.10136 0
M  V30 14903 C 1448.82 1.93566 0.320437 0
M  V30 14904 O 1447.95 1.79326 1.21125 0
M  V30 14905 C 1448.54 2.7397 -1.99313 0
M  V30 14906 C 1447.1 3.26283 -1.8766 0
M  V30 14907 C 1446.25 1.99088 -1.93027 0
M  V30 14908 H 1449.2 0.763427 -1.39131 0
M  V30 14909 H 1449.22 3.48057 -1.53742 0
M  V30 14910 H 1448.73 2.42781 -3.02785 0
M  V30 14911 H 1446.83 3.62277 -0.870992 0
M  V30 14912 H 1446.95 3.93803 -2.72866 0
M  V30 14913 H 1445.31 2.14714 -1.37003 0
M  V30 14914 H 1446.09 1.70237 -2.98118 0
M  V30 14915 N 1448.54 1.07657 1.15099 0
M  V30 14916 C 1449.49 0.694043 2.22004 0
M  V30 14917 C 1450.48 -0.296607 1.66783 0
M  V30 14918 O 1451.69 -0.159989 1.79288 0
M  V30 14919 H 1448.06 0.206374 0.723128 0
M  V30 14920 H 1450.03 1.60523 2.51545 0
M  V30 14921 C 1448.78 0.111245 3.47522 0
M  V30 14922 H 1448.1 0.864677 3.90338 0
M  V30 14923 H 1449.54 -0.118705 4.23834 0
M  V30 14924 C 1448 -1.14889 3.16705 0
M  V30 14925 O 1448.53 -2.2349 3.33789 0
M  V30 14926 N 1446.74 -1.05627 2.70724 0
M  V30 14927 H 1446.29 -0.172463 2.57022 0
M  V30 14928 H 1446.24 -1.9002 2.50479 0
M  V30 14929 N 1450.02 -1.31994 0.861122 0
M  V30 14930 C 1451.26 -1.96636 0.466754 0
M  V30 14931 C 1451.59 -1.6845 -0.982328 0
M  V30 14932 O 1450.86 -0.995157 -1.68741 0
M  V30 14933 H 1449.44 -0.727489 0.169613 0
M  V30 14934 H 1452.1 -1.60962 1.09897 0
M  V30 14935 H 1451.19 -3.05937 0.61716 0
M  V30 14936 N 1451.49 -0.619688 -1.44906 0
M  V30 14937 C 1452.77 -0.0510703 -1.95533 0
M  V30 14938 C 1453.15 1.42013 -1.56191 0
M  V30 14939 O 1452.5 2.12879 -0.830356 0
M  V30 14940 C 1452.71 -0.261896 -3.48016 0
M  V30 14941 C 1454.06 -0.149057 -4.24338 0
M  V30 14942 O 1455.08 -0.192655 -3.55679 0
M  V30 14943 O 1453.94 -0.0443345 -5.46482 0
M  V30 14944 H 1451.03 0.0288461 -0.826497 0
M  V30 14945 H 1453.58 -0.690594 -1.55013 0
M  V30 14946 H 1452.35 -1.28319 -3.69662 0
M  V30 14947 H 1451.98 0.412314 -3.95456 0
M  V30 14948 N 1452.97 1.53444 -0.359552 0
M  V30 14949 C 1454.21 2.03077 0.232169 0
M  V30 14950 C 1454.58 1.24125 1.46482 0
M  V30 14951 O 1455.78 1.63735 2.13177 0
M  V30 14952 C 1454.05 3.53554 0.522891 0
M  V30 14953 S 1455.61 4.25068 1.08914 0
M  V30 14954 H 1452.43 0.707738 0.0680317 0
M  V30 14955 H 1455.03 1.88971 -0.501022 0
M  V30 14956 H 1453.73 4.0862 -0.381812 0
M  V30 14957 H 1453.26 3.71811 1.28532 0
M  V30 14958 H 1455.28 4.35734 2.37382 0
M  V30 14959 N 1454.45 0.0885642 1.57351 0
M  V30 14960 C 1455.68 -0.588641 1.98871 0
M  V30 14961 C 1456.1 -1.61333 0.967125 0
M  V30 14962 O 1455.46 -1.81183 -0.0652149 0
M  V30 14963 C 1455.51 -1.21877 3.39379 0
M  V30 14964 O 1454.61 -2.33462 3.39955 0
M  V30 14965 H 1453.95 -0.149938 0.64685 0
M  V30 14966 H 1456.48 0.168043 2.03909 0
M  V30 14967 H 1456.49 -1.56163 3.76931 0
M  V30 14968 H 1455.17 -0.468037 4.13258 0
M  V30 14969 H 1453.74 -2.00844 3.14191 0
M  V30 14970 N 1455.93 -1.56509 -0.185096 0
M  V30 14971 C 1456.88 -1.91742 -1.23366 0
M  V30 14972 C 1457.86 -0.784182 -1.40497 0
M  V30 14973 O 1459.05 -1.04718 -1.42699 0
M  V30 14974 C 1456.18 -2.26903 -2.57624 0
M  V30 14975 C 1455.27 -3.46707 -2.44244 0
M  V30 14976 N 1455.66 -4.64338 -2.00558 0
M  V30 14977 C 1453.96 -3.51042 -2.7511 0
M  V30 14978 C 1454.66 -5.46489 -1.9931 0
M  V30 14979 N 1453.64 -4.87162 -2.41193 0
M  V30 14980 H 1457.44 -2.80184 -0.887378 0
M  V30 14981 H 1454.95 -1.57561 -0.393468 0
M  V30 14982 H 1456.95 -2.50332 -3.33376 0
M  V30 14983 H 1455.61 -1.39792 -2.93067 0
M  V30 14984 H 1456.62 -4.88817 -1.7111 0
M  V30 14985 H 1453.3 -2.74375 -3.14682 0
M  V30 14986 H 1454.69 -6.50726 -1.67349 0
M  V30 14987 N 1457.41 0.45317 -1.50944 0
M  V30 14988 C 1458.65 1.20389 -1.62827 0
M  V30 14989 C 1458.98 1.91559 -0.336982 0
M  V30 14990 O 1458.24 1.83574 0.678153 0
M  V30 14991 C 1458.54 2.25747 -2.7708 0
M  V30 14992 C 1458.2 1.71703 -4.16928 0
M  V30 14993 C 1456.86 1.56686 -4.54976 0
M  V30 14994 C 1459.22 1.31804 -5.04259 0
M  V30 14995 C 1456.54 1.0022 -5.78077 0
M  V30 14996 C 1458.9 0.767738 -6.27924 0
M  V30 14997 C 1457.56 0.604341 -6.64759 0
M  V30 14998 H 1456.83 0.440536 -0.595827 0
M  V30 14999 H 1459.48 0.497234 -1.84932 0
M  V30 15000 H 1457.78 3.0239 -2.49134 0
M  V30 15001 H 1459.48 2.83625 -2.83475 0
M  V30 15002 H 1456.07 1.84364 -3.86921 0
M  V30 15003 H 1460.25 1.42233 -4.75482 0
M  V30 15004 H 1455.51 0.863228 -6.05275 0
M  V30 15005 H 1459.68 0.449994 -6.94945 0
M  V30 15006 H 1457.31 0.164663 -7.60022 0
M  V30 15007 N 1458.88 1.40823 0.707568 0
M  V30 15008 C 1460.12 1.40992 1.47989 0
M  V30 15009 C 1460.49 0.0138056 1.91995 0
M  V30 15010 O 1461.69 -0.109666 2.68576 0
M  V30 15011 C 1459.96 2.37857 2.66756 0
M  V30 15012 S 1461.52 2.56453 3.56058 0
M  V30 15013 H 1458.34 0.499622 0.505864 0
M  V30 15014 H 1460.94 1.77161 0.826703 0
M  V30 15015 H 1459.64 3.38113 2.32611 0
M  V30 15016 H 1459.17 2.03 3.36979 0
M  V30 15017 H 1461.19 1.82294 4.61501 0
M  V30 15018 N 1460.36 -0.94061 1.26453 0
M  V30 15019 C 1461.61 -1.68687 1.12031 0
M  V30 15020 C 1461.94 -1.91571 -0.336252 0
M  V30 15021 O 1461.19 -1.49458 -1.26336 0
M  V30 15022 C 1461.49 -3.06683 1.83521 0
M  V30 15023 C 1461.16 -3.03553 3.33416 0
M  V30 15024 C 1459.82 -3.02407 3.74304 0
M  V30 15025 C 1462.17 -2.95817 4.29118 0
M  V30 15026 C 1459.5 -2.9129 5.09281 0
M  V30 15027 C 1461.85 -2.86242 5.64135 0
M  V30 15028 C 1460.52 -2.83438 6.04333 0
M  V30 15029 H 1459.79 -0.61727 0.40995 0
M  V30 15030 H 1462.43 -1.0979 1.56902 0
M  V30 15031 H 1460.74 -3.69208 1.31121 0
M  V30 15032 H 1462.43 -3.63274 1.69802 0
M  V30 15033 H 1459.02 -3.05226 3.00891 0
M  V30 15034 H 1463.21 -2.9581 3.9851 0
M  V30 15035 H 1458.46 -2.87498 5.39588 0
M  V30 15036 H 1462.64 -2.79219 6.37973 0
M  V30 15037 H 1460.27 -2.74581 7.08879 0
M  V30 15038 N 1461.84 -1.08266 -1.14527 0
M  V30 15039 C 1463.25 -0.832702 -1.67102 0
M  V30 15040 C 1463.6 0.640776 -1.85441 0
M  V30 15041 O 1462.73 1.49505 -1.56452 0
M  V30 15042 C 1463.32 -1.50502 -3.03537 0
M  V30 15043 C 1461.88 -1.30234 -3.53152 0
M  V30 15044 C 1461.03 -1.56873 -2.28661 0
M  V30 15045 H 1463.98 -1.24344 -0.986118 0
M  V30 15046 H 1464 -0.931426 -3.68924 0
M  V30 15047 H 1463.51 -2.57741 -2.90157 0
M  V30 15048 H 1461.61 -0.250582 -3.71756 0
M  V30 15049 H 1461.73 -2.02898 -4.34015 0
M  V30 15050 H 1460.09 -0.990214 -2.34663 0
M  V30 15051 H 1460.87 -2.65316 -2.17859 0
M  V30 15052 N 1463.32 1.31536 -0.86811 0
M  V30 15053 C 1464.57 1.97066 -0.478829 0
M  V30 15054 C 1464.9 1.68469 0.966021 0
M  V30 15055 O 1464.17 0.980166 1.67997 0
M  V30 15056 C 1464.46 3.52533 -0.734313 0
M  V30 15057 C 1464.31 3.90711 -2.22856 0
M  V30 15058 C 1465.63 4.39647 -0.199559 0
M  V30 15059 H 1462.75 0.715813 -0.175444 0
M  V30 15060 H 1465.39 1.55694 -1.08901 0
M  V30 15061 H 1463.54 3.87905 -0.214962 0
M  V30 15062 H 1465.21 3.65451 -2.81502 0
M  V30 15063 H 1463.45 3.39385 -2.70185 0
M  V30 15064 H 1464.13 4.99103 -2.35797 0
M  V30 15065 H 1466.6 4.11088 -0.643853 0
M  V30 15066 H 1465.48 5.47383 -0.407783 0
M  V30 15067 H 1465.74 4.32875 0.898414 0
M  V30 15068 N 1464.8 0.627364 1.44575 0
M  V30 15069 C 1466.21 0.213149 1.85479 0
M  V30 15070 C 1466.56 -1.23458 1.52488 0
M  V30 15071 O 1465.68 -1.93885 0.961115 0
M  V30 15072 C 1466.28 0.380063 3.36661 0
M  V30 15073 C 1464.84 0.020385 3.76394 0
M  V30 15074 C 1463.99 0.695225 2.68444 0
M  V30 15075 H 1466.94 0.832771 1.35095 0
M  V30 15076 H 1466.96 -0.382078 3.78577 0
M  V30 15077 H 1466.47 1.43383 3.60642 0
M  V30 15078 H 1464.57 -1.03179 3.58029 0
M  V30 15079 H 1464.68 0.42782 4.77186 0
M  V30 15080 H 1463.05 0.130898 2.54363 0
M  V30 15081 H 1463.83 1.75151 2.95257 0
M  V30 15082 N 1466.28 -1.53251 0.367684 0
M  V30 15083 C 1467.22 -2.27318 -0.4929 0
M  V30 15084 C 1468.22 -1.30376 -1.08159 0
M  V30 15085 O 1469.42 -1.47996 -1.02455 0
M  V30 15086 H 1465.8 -0.730709 -0.177677 0
M  V30 15087 H 1467.77 -2.98005 0.153525 0
M  V30 15088 C 1466.52 -3.07678 -1.61955 0
M  V30 15089 H 1465.84 -3.82117 -1.17587 0
M  V30 15090 H 1467.28 -3.62678 -2.19638 0
M  V30 15091 C 1465.74 -2.18648 -2.5631 0
M  V30 15092 O 1466.27 -1.79869 -3.5918 0
M  V30 15093 N 1464.48 -1.83239 -2.25548 0
M  V30 15094 H 1464.02 -2.14973 -1.4193 0
M  V30 15095 H 1463.98 -1.23957 -2.88933 0
M  V30 15096 N 1467.75 -0.0969077 -1.57302 0
M  V30 15097 C 1469 0.566373 -1.94418 0
M  V30 15098 C 1469.33 1.68078 -0.978769 0
M  V30 15099 O 1468.58 1.957 0.0013214 0
M  V30 15100 C 1468.88 1.15972 -3.38061 0
M  V30 15101 C 1468.55 0.16892 -4.50583 0
M  V30 15102 C 1467.21 -0.103587 -4.81088 0
M  V30 15103 C 1469.56 -0.507513 -5.18723 0
M  V30 15104 C 1466.89 -1.05919 -5.7706 0
M  V30 15105 C 1469.24 -1.4516 -6.1572 0
M  V30 15106 C 1467.91 -1.73232 -6.44629 0
M  V30 15107 H 1467.18 0.207251 -0.711427 0
M  V30 15108 H 1469.82 -0.173125 -1.90716 0
M  V30 15109 H 1468.13 1.97551 -3.3835 0
M  V30 15110 H 1469.83 1.68066 -3.64081 0
M  V30 15111 H 1466.42 0.391501 -4.26808 0
M  V30 15112 H 1470.6 -0.310127 -4.9533 0
M  V30 15113 H 1465.86 -1.28366 -5.97773 0
M  V30 15114 H 1470.03 -1.98155 -6.67613 0
M  V30 15115 H 1467.66 -2.47436 -7.18804 0
M  V30 15116 N 1469.23 1.56605 0.176793 0
M  V30 15117 C 1470.16 1.9254 1.24342 0
M  V30 15118 C 1471.18 0.81792 1.40762 0
M  V30 15119 O 1472.37 1.09636 1.40862 0
M  V30 15120 C 1469.47 2.15822 2.61293 0
M  V30 15121 C 1468.64 3.47035 2.66243 0
M  V30 15122 C 1467.7 3.5921 3.84519 0
M  V30 15123 O 1466.72 4.31876 3.70771 0
M  V30 15124 N 1467.93 2.93653 5.00748 0
M  V30 15125 H 1470.69 2.84635 0.938246 0
M  V30 15126 H 1468.25 1.57695 0.366597 0
M  V30 15127 H 1470.24 2.21237 3.38875 0
M  V30 15128 H 1468.81 1.30138 2.84223 0
M  V30 15129 H 1468.03 3.53326 1.74798 0
M  V30 15130 H 1469.32 4.33388 2.66557 0
M  V30 15131 H 1468.72 2.34476 5.14818 0
M  V30 15132 H 1467.28 3.04671 5.76211 0
M  V30 15133 N 1470.71 -0.445159 1.51182 0
M  V30 15134 C 1472.13 -0.781023 1.39184 0
M  V30 15135 C 1472.33 -1.95988 0.468076 0
M  V30 15136 O 1471.38 -2.52374 -0.0796822 0
M  V30 15137 C 1472.69 -1.06874 2.81067 0
M  V30 15138 C 1474.24 -1.17364 2.90163 0
M  V30 15139 C 1474.72 -1.49433 4.32936 0
M  V30 15140 N 1476.21 -1.56373 4.36006 0
M  V30 15141 C 1476.94 -1.82743 5.435 0
M  V30 15142 N 1476.44 -2.06958 6.61166 0
M  V30 15143 N 1478.23 -1.84461 5.30971 0
M  V30 15144 H 1470.38 0.331347 2.098 0
M  V30 15145 H 1472.65 0.0858102 0.944108 0
M  V30 15146 H 1472.35 -0.275306 3.50621 0
M  V30 15147 H 1472.23 -1.99839 3.19913 0
M  V30 15148 H 1474.61 -1.95771 2.20812 0
M  V30 15149 H 1474.69 -0.22318 2.54825 0
M  V30 15150 H 1474.34 -0.715573 5.02834 0
M  V30 15151 H 1474.27 -2.45673 4.65782 0
M  V30 15152 H 1476.76 -1.39595 3.51172 0
M  V30 15153 H 1477.07 -2.26427 7.38885 0
M  V30 15154 H 1475.42 -2.04297 6.64295 0
M  V30 15155 H 1478.61 -1.65057 4.38034 0
M  V30 15156 H 1478.78 -2.04675 6.14827 0
M  V30 15157 N 1472.19 -1.41197 -0.700089 0
M  V30 15158 C 1473.43 -1.40519 -1.46227 0
M  V30 15159 C 1473.77 -0.0126108 -1.94196 0
M  V30 15160 O 1473.04 0.958837 -1.69223 0
M  V30 15161 C 1473.32 -2.40808 -2.67738 0
M  V30 15162 C 1473.18 -3.89154 -2.25563 0
M  V30 15163 C 1474.5 -2.38415 -3.69927 0
M  V30 15164 H 1471.62 -0.511724 -0.530384 0
M  V30 15165 H 1474.26 -1.72441 -0.797754 0
M  V30 15166 H 1472.41 -2.13717 -3.24434 0
M  V30 15167 H 1474.08 -4.27132 -1.74229 0
M  V30 15168 H 1472.32 -4.04239 -1.57395 0
M  V30 15169 H 1472.99 -4.54866 -3.12731 0
M  V30 15170 H 1475.47 -2.62447 -3.22895 0
M  V30 15171 H 1474.35 -3.10609 -4.52563 0
M  V30 15172 H 1474.61 -1.40116 -4.19309 0
M  V30 15173 N 1473.67 0.933891 -1.2695 0
M  V30 15174 C 1474.91 1.69554 -1.14153 0
M  V30 15175 C 1475.27 1.89503 0.308639 0
M  V30 15176 O 1476.47 2.62925 0.558894 0
M  V30 15177 C 1474.74 3.02894 -1.8971 0
M  V30 15178 S 1476.3 3.94051 -1.93053 0
M  V30 15179 H 1473.12 0.582546 -0.407629 0
M  V30 15180 H 1475.72 1.11233 -1.60772 0
M  V30 15181 H 1474.42 2.86061 -2.94274 0
M  V30 15182 H 1473.96 3.6627 -1.43561 0
M  V30 15183 H 1475.97 4.85551 -1.02249 0
M  V30 15184 N 1475.14 1.08871 1.13951 0
M  V30 15185 C 1476.39 0.819665 1.84732 0
M  V30 15186 C 1476.71 -0.656535 1.83615 0
M  V30 15187 O 1475.98 -1.47614 1.28791 0
M  V30 15188 H 1474.56 0.30023 0.684011 0
M  V30 15189 H 1477.22 1.37568 1.38062 0
M  V30 15190 H 1476.32 1.16809 2.89417 0
M  V30 15191 N 1476.62 -1.31073 0.875073 0
M  V30 15192 C 1477.86 -1.98313 0.495116 0
M  V30 15193 C 1478.23 -1.67629 -0.93619 0
M  V30 15194 O 1479.43 -2.28122 -1.42176 0
M  V30 15195 C 1477.7 -3.49424 0.750847 0
M  V30 15196 S 1479.26 -4.36259 0.471512 0
M  V30 15197 H 1476.07 -0.686614 0.184613 0
M  V30 15198 H 1478.68 -1.59378 1.1322 0
M  V30 15199 H 1477.38 -3.69246 1.79124 0
M  V30 15200 H 1476.91 -3.9327 0.100946 0
M  V30 15201 H 1478.93 -4.91322 -0.69407 0
M  V30 15202 N 1478.1 -0.635022 -1.4424 0
M  V30 15203 C 1479.51 -0.222982 -1.85364 0
M  V30 15204 C 1479.86 1.22648 -1.5314 0
M  V30 15205 O 1478.99 1.93373 -0.971384 0
M  V30 15206 C 1479.58 -0.397912 -3.36455 0
M  V30 15207 C 1478.14 -0.0403458 -3.76378 0
M  V30 15208 C 1477.29 -0.709451 -2.68071 0
M  V30 15209 H 1480.24 -0.839923 -1.34651 0
M  V30 15210 H 1480.26 0.361996 -3.78774 0
M  V30 15211 H 1479.77 -1.45294 -3.59877 0
M  V30 15212 H 1477.87 1.01279 -3.58571 0
M  V30 15213 H 1477.99 -0.453121 -4.76952 0
M  V30 15214 H 1476.35 -0.144386 -2.5429 0
M  V30 15215 H 1477.13 -1.76715 -2.94324 0
M  V30 15216 N 1479.58 1.53054 -0.375806 0
M  V30 15217 C 1480.81 2.05521 0.210828 0
M  V30 15218 C 1481.22 1.24837 1.4217 0
M  V30 15219 O 1480.56 0.284634 1.81481 0
M  V30 15220 C 1480.62 3.53417 0.658548 0
M  V30 15221 C 1480.29 4.54906 -0.437025 0
M  V30 15222 C 1481.28 5.03638 -1.29016 0
M  V30 15223 C 1478.97 4.98701 -0.600194 0
M  V30 15224 C 1480.96 5.94777 -2.29171 0
M  V30 15225 C 1478.65 5.89644 -1.6051 0
M  V30 15226 C 1479.65 6.37573 -2.44929 0
M  V30 15227 O 1479.33 7.26721 -3.43703 0
M  V30 15228 H 1479.07 0.674893 0.0386627 0
M  V30 15229 H 1481.62 1.98296 -0.535534 0
M  V30 15230 H 1479.85 3.58215 1.45667 0
M  V30 15231 H 1481.54 3.88692 1.16933 0
M  V30 15232 H 1482.31 4.70543 -1.17534 0
M  V30 15233 H 1478.18 4.60976 0.0471346 0
M  V30 15234 H 1481.73 6.3211 -2.95099 0
M  V30 15235 H 1477.63 6.22153 -1.72035 0
M  V30 15236 H 1478.39 7.44746 -3.39553 0
M  V30 15237 N 1481.06 0.105248 1.57248 0
M  V30 15238 C 1482.3 -0.554956 1.94331 0
M  V30 15239 C 1482.63 -1.68087 0.988528 0
M  V30 15240 O 1481.9 -1.95854 0.042366 0
M  V30 15241 H 1480.48 -0.207994 0.717459 0
M  V30 15242 H 1483.14 0.170964 1.94149 0
M  V30 15243 H 1482.23 -0.95853 2.97016 0
M  V30 15244 N 1482.53 -1.56697 -0.168486 0
M  V30 15245 C 1483.47 -1.91738 -1.23741 0
M  V30 15246 C 1484.45 -0.780522 -1.42642 0
M  V30 15247 O 1485.63 -1.0341 -1.57602 0
M  V30 15248 C 1482.76 -2.17077 -2.59991 0
M  V30 15249 C 1481.8 -3.39759 -2.5781 0
M  V30 15250 S 1482.64 -4.94035 -2.06614 0
M  V30 15251 C 1483.79 -5.22472 -3.44636 0
M  V30 15252 H 1484.02 -2.82104 -0.938344 0
M  V30 15253 H 1481.56 -1.49822 -0.373177 0
M  V30 15254 H 1483.52 -2.32356 -3.38409 0
M  V30 15255 H 1482.18 -1.27413 -2.87097 0
M  V30 15256 H 1481.37 -3.54698 -3.58058 0
M  V30 15257 H 1480.97 -3.2361 -1.8749 0
M  V30 15258 H 1483.26 -5.14623 -4.40647 0
M  V30 15259 H 1484.21 -6.24075 -3.34569 0
M  V30 15260 H 1484.61 -4.50034 -3.40779 0
M  V30 15261 N 1484.01 0.437135 -1.51416 0
M  V30 15262 C 1485.43 0.773631 -1.39596 0
M  V30 15263 C 1485.63 1.95737 -0.478463 0
M  V30 15264 O 1484.68 2.52413 0.0662971 0
M  V30 15265 C 1486 1.05381 -2.8163 0
M  V30 15266 C 1487.55 1.15824 -2.90782 0
M  V30 15267 C 1488.02 1.47135 -4.33722 0
M  V30 15268 N 1489.51 1.54059 -4.3683 0
M  V30 15269 C 1490.25 1.79858 -5.44462 0
M  V30 15270 N 1489.74 2.03449 -6.62254 0
M  V30 15271 N 1491.54 1.81642 -5.31942 0
M  V30 15272 H 1483.69 -0.342468 -2.09621 0
M  V30 15273 H 1485.95 -0.0908158 -0.94364 0
M  V30 15274 H 1485.66 0.256708 -3.50762 0
M  V30 15275 H 1485.53 1.98139 -3.20968 0
M  V30 15276 H 1487.92 1.94597 -2.21847 0
M  V30 15277 H 1488 0.209663 -2.54939 0
M  V30 15278 H 1487.64 0.688897 -5.03206 0
M  V30 15279 H 1487.57 2.43199 -4.67078 0
M  V30 15280 H 1490.06 1.3773 -3.51907 0
M  V30 15281 H 1490.38 2.22506 -7.40075 0
M  V30 15282 H 1488.72 2.00771 -6.65369 0
M  V30 15283 H 1491.91 1.62731 -4.38903 0
M  V30 15284 H 1492.08 2.01411 -6.15904 0
M  V30 15285 N 1485.49 1.41566 0.692592 0
M  V30 15286 C 1486.42 1.46423 1.81886 0
M  V30 15287 C 1487.4 0.32258 1.67013 0
M  V30 15288 O 1488.59 0.534437 1.86701 0
M  V30 15289 C 1485.72 1.3486 3.20047 0
M  V30 15290 C 1484.67 2.46867 3.49629 0
M  V30 15291 C 1484 2.20369 4.87177 0
M  V30 15292 C 1485.3 3.89205 3.48306 0
M  V30 15293 H 1486.99 2.40683 1.78079 0
M  V30 15294 H 1484.54 1.15845 0.855334 0
M  V30 15295 H 1486.49 1.36869 3.98553 0
M  V30 15296 H 1485.21 0.370859 3.24488 0
M  V30 15297 H 1483.87 2.44146 2.73475 0
M  V30 15298 H 1483.52 1.20931 4.88247 0
M  V30 15299 H 1483.22 2.95426 5.07934 0
M  V30 15300 H 1484.74 2.24099 5.6799 0
M  V30 15301 H 1486.16 3.93626 4.16811 0
M  V30 15302 H 1484.56 4.63969 3.80595 0
M  V30 15303 H 1485.63 4.17144 2.47222 0
M  V30 15304 N 1486.97 -0.927146 1.27443 0
M  V30 15305 C 1487.93 -2.00938 1.10257 0
M  V30 15306 C 1488.93 -1.60733 0.0463898 0
M  V30 15307 O 1490.12 -1.71752 0.291029 0
M  V30 15308 C 1487.25 -3.34047 0.680115 0
M  V30 15309 H 1488.45 -2.17615 2.06358 0
M  V30 15310 H 1486 -1.10802 1.10239 0
M  V30 15311 H 1486.73 -3.23069 -0.282259 0
M  V30 15312 H 1486.52 -3.64585 1.44291 0
M  V30 15313 H 1488.01 -4.13523 0.582126 0
M  V30 15314 N 1488.45 -1.09474 -1.13372 0
M  V30 15315 C 1489.67 -0.853093 -1.89043 0
M  V30 15316 C 1490.1 0.590075 -1.78605 0
M  V30 15317 O 1489.45 1.41462 -1.13394 0
M  V30 15318 C 1489.5 -1.29359 -3.36599 0
M  V30 15319 O 1488.61 -0.452355 -4.09912 0
M  V30 15320 H 1487.95 -0.308922 -0.587761 0
M  V30 15321 H 1490.48 -1.459 -1.43437 0
M  V30 15322 H 1490.49 -1.27921 -3.87428 0
M  V30 15323 H 1489.16 -2.3446 -3.43513 0
M  V30 15324 H 1487.74 -0.531098 -3.69099 0
M  V30 15325 N 1489.92 1.30607 -0.882012 0
M  V30 15326 C 1490.87 2.3016 -0.336011 0
M  V30 15327 C 1491.87 1.60037 0.555389 0
M  V30 15328 O 1493.07 1.74536 0.440152 0
M  V30 15329 H 1489.45 0.746595 -0.0899982 0
M  V30 15330 H 1491.42 2.73673 -1.18936 0
M  V30 15331 C 1490.17 3.44942 0.437061 0
M  V30 15332 H 1489.49 3.99081 -0.2396 0
M  V30 15333 H 1490.93 4.16684 0.784242 0
M  V30 15334 C 1489.39 2.94678 1.633 0
M  V30 15335 O 1489.92 2.94457 2.73236 0
M  V30 15336 N 1488.13 2.50727 1.46917 0
M  V30 15337 H 1487.67 2.51105 0.574807 0
M  V30 15338 H 1487.63 2.17453 2.27072 0
M  V30 15339 N 1491.4 0.642663 1.43901 0
M  V30 15340 C 1492.35 -0.0774542 2.27868 0
M  V30 15341 C 1493.34 -0.805028 1.39313 0
M  V30 15342 O 1494.53 -0.689234 1.63029 0
M  V30 15343 C 1491.66 -1.05046 3.26834 0
M  V30 15344 C 1490.74 -0.321911 4.22877 0
M  V30 15345 N 1491.13 0.655802 5.01531 0
M  V30 15346 C 1489.43 -0.5648 4.42409 0
M  V30 15347 C 1490.13 1.08729 5.71448 0
M  V30 15348 N 1489.11 0.423699 5.41946 0
M  V30 15349 H 1492.91 0.672951 2.86092 0
M  V30 15350 H 1490.43 0.469088 1.55478 0
M  V30 15351 H 1492.42 -1.58106 3.85756 0
M  V30 15352 H 1491.08 -1.80104 2.70171 0
M  V30 15353 H 1492.09 1.0341 5.07471 0
M  V30 15354 H 1488.77 -1.29736 3.96831 0
M  V30 15355 H 1490.16 1.89569 6.44603 0
M  V30 15356 N 1492.88 -1.52852 0.383918 0
M  V30 15357 C 1493.81 -2.29213 -0.44539 0
M  V30 15358 C 1494.79 -1.3238 -1.06815 0
M  V30 15359 O 1495.98 -1.61269 -1.08194 0
M  V30 15360 C 1493.11 -3.09497 -1.57573 0
M  V30 15361 C 1492.06 -4.14168 -1.07928 0
M  V30 15362 C 1491.39 -4.82644 -2.30128 0
M  V30 15363 C 1492.69 -5.22082 -0.151035 0
M  V30 15364 H 1494.38 -2.98786 0.19172 0
M  V30 15365 H 1491.93 -1.43695 0.0936471 0
M  V30 15366 H 1493.88 -3.61672 -2.16267 0
M  V30 15367 H 1492.6 -2.37647 -2.24034 0
M  V30 15368 H 1491.26 -3.62966 -0.514909 0
M  V30 15369 H 1490.91 -4.07348 -2.95087 0
M  V30 15370 H 1490.61 -5.53388 -1.97574 0
M  V30 15371 H 1492.14 -5.37621 -2.89475 0
M  V30 15372 H 1493.55 -5.69649 -0.646003 0
M  V30 15373 H 1491.95 -6.00041 0.0844833 0
M  V30 15374 H 1493.02 -4.78228 0.801618 0
M  V30 15375 N 1494.36 -0.113586 -1.5719 0
M  V30 15376 C 1495.59 0.553592 -1.99356 0
M  V30 15377 C 1496 1.60567 -0.993154 0
M  V30 15378 O 1495.36 1.82494 0.0147252 0
M  V30 15379 C 1495.41 1.18462 -3.41539 0
M  V30 15380 O 1495.13 0.174602 -4.37752 0
M  V30 15381 C 1496.63 1.93564 -3.98808 0
M  V30 15382 H 1493.85 0.146998 -0.6547 0
M  V30 15383 H 1496.4 -0.198329 -2.03536 0
M  V30 15384 H 1494.55 1.88736 -3.38316 0
M  V30 15385 H 1494.97 0.632395 -5.20674 0
M  V30 15386 H 1496.44 2.33051 -5.00391 0
M  V30 15387 H 1496.92 2.80874 -3.37648 0
M  V30 15388 H 1497.52 1.28066 -4.0556 0
M  V30 15389 N 1495.84 1.56784 0.160173 0
M  V30 15390 C 1497.08 1.84422 0.881348 0
M  V30 15391 C 1497.44 0.696069 1.78938 0
M  V30 15392 O 1498.64 0.853174 2.54901 0
M  V30 15393 C 1496.91 3.17208 1.64662 0
M  V30 15394 S 1498.47 3.66363 2.41503 0
M  V30 15395 H 1495.29 0.646923 0.294978 0
M  V30 15396 H 1497.89 1.94982 0.142215 0
M  V30 15397 H 1496.6 3.98753 0.970782 0
M  V30 15398 H 1496.13 3.0962 2.42692 0
M  V30 15399 H 1498.14 3.34577 3.66432 0
M  V30 15400 N 1497.32 -0.429099 1.51646 0
M  V30 15401 C 1498.23 -1.54648 1.76412 0
M  V30 15402 C 1499.24 -1.61455 0.648703 0
M  V30 15403 O 1500.42 -1.78544 0.931888 0
M  V30 15404 C 1497.48 -2.90562 1.89142 0
M  V30 15405 C 1496.54 -2.93804 3.13014 0
M  V30 15406 C 1495.78 -4.23235 3.25127 0
M  V30 15407 O 1496 -5.1606 2.42979 0
M  V30 15408 O 1494.93 -4.32929 4.18158 0
M  V30 15409 H 1498.76 -1.36661 2.71215 0
M  V30 15410 H 1496.34 -0.612946 1.36247 0
M  V30 15411 H 1498.23 -3.7121 1.99453 0
M  V30 15412 H 1496.9 -3.08659 0.975272 0
M  V30 15413 H 1495.81 -2.12082 3.08175 0
M  V30 15414 H 1497.14 -2.80654 4.04344 0
M  V30 15415 N 1498.79 -1.41931 -0.685074 0
M  V30 15416 C 1500.04 -1.41571 -1.44229 0
M  V30 15417 C 1500.36 -0.0294445 -1.94978 0
M  V30 15418 O 1499.63 0.930414 -1.72395 0
M  V30 15419 H 1498.21 -0.521138 -0.535186 0
M  V30 15420 H 1500.87 -1.77263 -0.81017 0
M  V30 15421 H 1499.97 -2.10929 -2.30034 0
M  V30 15422 N 1500.27 0.920374 -1.27933 0
M  V30 15423 C 1501.55 1.64765 -1.05413 0
M  V30 15424 C 1501.93 2.07106 0.408717 0
M  V30 15425 O 1501.28 1.81094 1.39346 0
M  V30 15426 C 1501.49 2.84417 -2.02257 0
M  V30 15427 C 1502.83 3.5559 -2.32036 0
M  V30 15428 O 1503.86 2.94555 -2.00289 0
M  V30 15429 O 1502.72 4.65574 -2.86187 0
M  V30 15430 H 1499.81 0.722503 -0.402391 0
M  V30 15431 H 1502.36 0.970263 -1.39226 0
M  V30 15432 H 1501.13 2.50174 -3.0088 0
M  V30 15433 H 1500.75 3.59872 -1.6905 0
M  V30 15434 N 1501.75 1.10074 1.1279 0
M  V30 15435 C 1503.16 0.859181 1.65756 0
M  V30 15436 C 1503.51 -0.611193 1.86437 0
M  V30 15437 O 1502.64 -1.46997 1.58811 0
M  V30 15438 C 1503.23 1.55312 3.01104 0
M  V30 15439 C 1501.79 1.35836 3.51035 0
M  V30 15440 C 1500.94 1.60491 2.26137 0
M  V30 15441 H 1503.89 1.25897 0.966211 0
M  V30 15442 H 1503.91 0.990001 3.67395 0
M  V30 15443 H 1503.42 2.62325 2.8602 0
M  V30 15444 H 1501.52 0.309694 3.71311 0
M  V30 15445 H 1501.64 2.09777 4.30732 0
M  V30 15446 H 1500 1.02742 2.33058 0
M  V30 15447 H 1500.78 2.68748 2.1361 0
M  V30 15448 N 1503.23 -1.30138 0.888926 0
M  V30 15449 C 1504.46 -2.00143 0.524437 0
M  V30 15450 C 1504.87 -1.66608 -0.888093 0
M  V30 15451 O 1504.23 -0.905326 -1.58462 0
M  V30 15452 C 1504.28 -3.54769 0.694327 0
M  V30 15453 O 1504 -3.87112 2.05125 0
M  V30 15454 C 1505.5 -4.42045 0.333354 0
M  V30 15455 H 1502.72 -0.639775 0.202309 0
M  V30 15456 H 1505.26 -1.65929 1.19531 0
M  V30 15457 H 1503.42 -3.87335 0.0707712 0
M  V30 15458 H 1503.83 -4.81807 2.07275 0
M  V30 15459 H 1505.31 -5.49702 0.503107 0
M  V30 15460 H 1505.78 -4.33109 -0.728893 0
M  V30 15461 H 1506.39 -4.14931 0.933398 0
M  V30 15462 N 1504.71 -0.650285 -1.43559 0
M  V30 15463 C 1505.65 0.0550615 -2.32535 0
M  V30 15464 C 1506.65 0.81612 -1.48445 0
M  V30 15465 O 1507.85 0.726853 -1.64672 0
M  V30 15466 H 1504.23 0.0365887 -0.751109 0
M  V30 15467 H 1506.2 -0.713146 -2.89753 0
M  V30 15468 C 1504.95 1.00982 -3.32713 0
M  V30 15469 H 1504.27 0.433626 -3.97441 0
M  V30 15470 H 1505.71 1.47249 -3.9761 0
M  V30 15471 C 1504.17 2.10442 -2.63089 0
M  V30 15472 O 1504.7 3.18782 -2.44419 0
M  V30 15473 N 1502.91 1.86915 -2.22511 0
M  V30 15474 H 1502.45 0.988113 -2.37895 0
M  V30 15475 H 1502.41 2.60348 -1.76256 0
M  V30 15476 N 1506.18 1.52647 -0.392018 0
M  V30 15477 C 1507.09 2.30261 0.449093 0
M  V30 15478 C 1508.11 1.37286 1.06905 0
M  V30 15479 O 1509.29 1.70357 1.07427 0
M  V30 15480 C 1506.35 3.09636 1.55969 0
M  V30 15481 C 1505.41 4.18324 0.964566 0
M  V30 15482 C 1504.64 4.93904 2.02224 0
M  V30 15483 O 1504.87 4.69603 3.23773 0
M  V30 15484 O 1503.8 5.79183 1.63802 0
M  V30 15485 H 1507.63 3.03147 -0.183269 0
M  V30 15486 H 1505.21 1.48587 -0.155664 0
M  V30 15487 H 1507.09 3.59118 2.20482 0
M  V30 15488 H 1505.77 2.39561 2.17697 0
M  V30 15489 H 1504.68 3.73031 0.282618 0
M  V30 15490 H 1506.01 4.90641 0.391466 0
M  V30 15491 N 1507.66 0.121921 1.57128 0
M  V30 15492 C 1509.07 -0.402991 1.82299 0
M  V30 15493 C 1509.42 -1.66415 1.03925 0
M  V30 15494 O 1508.55 -2.14623 0.27674 0
M  V30 15495 C 1509.14 -0.737913 3.30666 0
M  V30 15496 C 1507.7 -1.20745 3.56508 0
M  V30 15497 C 1506.85 -0.217628 2.76445 0
M  V30 15498 H 1509.8 0.347009 1.5486 0
M  V30 15499 H 1509.82 -1.59505 3.45454 0
M  V30 15500 H 1509.33 0.180162 3.87682 0
M  V30 15501 H 1507.44 -2.14232 3.04853 0
M  V30 15502 H 1507.55 -1.15075 4.65075 0
M  V30 15503 H 1505.91 -0.705253 2.44741 0
M  V30 15504 H 1506.7 0.693596 3.3622 0
M  V30 15505 N 1509.14 -1.56867 -0.151857 0
M  V30 15506 C 1510.55 -1.72573 -0.712411 0
M  V30 15507 C 1510.9 -0.735557 -1.8189 0
M  V30 15508 O 1510.03 0.09888 -2.16174 0
M  V30 15509 C 1510.62 -3.12906 -1.29905 0
M  V30 15510 C 1509.18 -3.30231 -1.80623 0
M  V30 15511 C 1508.33 -2.68507 -0.692781 0
M  V30 15512 H 1511.28 -1.58528 0.0737603 0
M  V30 15513 H 1511.3 -3.12636 -2.16885 0
M  V30 15514 H 1510.81 -3.84949 -0.493509 0
M  V30 15515 H 1508.91 -2.63176 -2.6376 0
M  V30 15516 H 1509.03 -4.38141 -1.93828 0
M  V30 15517 H 1507.39 -2.28842 -1.11818 0
M  V30 15518 H 1508.17 -3.43151 0.10124 0
M  V30 15519 N 1510.62 0.421051 -1.51871 0
M  V30 15520 C 1511.85 1.1911 -1.69175 0
M  V30 15521 C 1512.26 1.84599 -0.39606 0
M  V30 15522 O 1511.62 1.71395 0.626907 0
M  V30 15523 C 1511.67 2.26309 -2.81898 0
M  V30 15524 O 1511.39 1.63496 -4.06449 0
M  V30 15525 C 1512.89 3.16285 -3.10611 0
M  V30 15526 H 1510.11 0.358385 -0.567275 0
M  V30 15527 H 1512.66 0.496919 -1.98371 0
M  V30 15528 H 1510.81 2.91416 -2.55255 0
M  V30 15529 H 1511.22 2.3447 -4.69174 0
M  V30 15530 H 1512.7 3.87601 -3.93026 0
M  V30 15531 H 1513.18 3.77976 -2.23676 0
M  V30 15532 H 1513.78 2.5686 -3.38973 0
M  V30 15533 N 1512.1 1.42293 0.677538 0
M  V30 15534 C 1513.01 1.47953 1.82063 0
M  V30 15535 C 1514.02 0.36851 1.70053 0
M  V30 15536 O 1515.2 0.618996 1.91652 0
M  V30 15537 C 1512.26 1.3769 3.18186 0
M  V30 15538 C 1511.32 2.59261 3.42173 0
M  V30 15539 C 1510.56 2.49478 4.71801 0
M  V30 15540 O 1510.78 1.52915 5.49521 0
M  V30 15541 O 1509.71 3.39562 4.96972 0
M  V30 15542 H 1513.54 2.4443 1.80244 0
M  V30 15543 H 1511.13 1.24027 0.832932 0
M  V30 15544 H 1513.01 1.34319 3.9942 0
M  V30 15545 H 1511.68 0.443377 3.20649 0
M  V30 15546 H 1510.59 2.68207 2.60798 0
M  V30 15547 H 1511.92 3.51503 3.44538 0
M  V30 15548 N 1513.57 -0.913576 1.28419 0
M  V30 15549 C 1514.51 -2.02073 1.08163 0
M  V30 15550 C 1515.52 -1.62766 0.0333064 0
M  V30 15551 O 1516.71 -1.76347 0.27638 0
M  V30 15552 C 1513.81 -3.33151 0.621596 0
M  V30 15553 C 1512.98 -4.01068 1.74536 0
M  V30 15554 C 1512.04 -5.10428 1.27868 0
M  V30 15555 O 1511.07 -5.33617 1.98094 0
M  V30 15556 N 1512.27 -5.80326 0.141976 0
M  V30 15557 H 1515.03 -2.20009 2.0351 0
M  V30 15558 H 1512.59 -1.08488 1.20174 0
M  V30 15559 H 1514.59 -4.03638 0.292989 0
M  V30 15560 H 1513.16 -3.11685 -0.239031 0
M  V30 15561 H 1512.38 -3.24127 2.24355 0
M  V30 15562 H 1513.66 -4.4319 2.49919 0
M  V30 15563 H 1513.06 -5.63956 -0.443845 0
M  V30 15564 H 1511.62 -6.51676 -0.127354 0
M  V30 15565 N 1515.05 -1.1067 -1.12204 0
M  V30 15566 C 1516.29 -0.860466 -1.85406 0
M  V30 15567 C 1516.66 0.603027 -1.82284 0
M  V30 15568 O 1517.86 0.965713 -2.50853 0
M  V30 15569 C 1516.13 -1.39677 -3.28976 0
M  V30 15570 S 1517.69 -1.28633 -4.19522 0
M  V30 15571 H 1514.51 -0.31087 -0.639438 0
M  V30 15572 H 1517.11 -1.41263 -1.35148 0
M  V30 15573 H 1515.81 -2.45588 -3.28808 0
M  V30 15574 H 1515.34 -0.841293 -3.84299 0
M  V30 15575 H 1517.36 -0.245599 -4.95592 0
M  V30 15576 N 1516.53 1.29665 -0.895815 0
M  V30 15577 C 1517.78 1.9533 -0.518725 0
M  V30 15578 C 1518.1 1.70995 0.937322 0
M  V30 15579 O 1517.37 1.03955 1.66043 0
M  V30 15580 H 1515.95 0.722736 -0.188841 0
M  V30 15581 H 1518.61 1.57991 -1.14126 0
M  V30 15582 H 1517.71 3.04193 -0.698057 0
M  V30 15583 N 1518.01 0.657889 1.43212 0
M  V30 15584 C 1518.94 -0.0172114 2.33494 0
M  V30 15585 C 1519.92 -0.807087 1.49733 0
M  V30 15586 O 1521.1 -0.767631 1.78385 0
M  V30 15587 C 1518.23 -0.981029 3.33156 0
M  V30 15588 C 1517.19 -0.30094 4.26941 0
M  V30 15589 C 1516.51 -1.37653 5.16678 0
M  V30 15590 C 1517.81 0.809572 5.15988 0
M  V30 15591 H 1519.51 0.736749 2.90194 0
M  V30 15592 H 1517.05 0.355744 1.39537 0
M  V30 15593 H 1519.01 -1.46226 3.95216 0
M  V30 15594 H 1517.73 -1.76621 2.74723 0
M  V30 15595 H 1516.39 0.159893 3.66251 0
M  V30 15596 H 1516.04 -2.15326 4.54581 0
M  V30 15597 H 1515.74 -0.926704 5.80246 0
M  V30 15598 H 1517.26 -1.85903 5.81612 0
M  V30 15599 H 1518.68 0.410297 5.7183 0
M  V30 15600 H 1517.07 1.18415 5.88301 0
M  V30 15601 H 1518.14 1.66558 4.55397 0
M  V30 15602 N 1519.49 -1.52437 0.400108 0
M  V30 15603 C 1520.73 -2.01711 -0.178605 0
M  V30 15604 C 1521.06 -1.28613 -1.45908 0
M  V30 15605 O 1520.32 -0.378206 -1.92011 0
M  V30 15606 C 1520.62 -3.54133 -0.482141 0
M  V30 15607 C 1520.28 -4.45306 0.70806 0
M  V30 15608 C 1518.94 -4.69947 1.03455 0
M  V30 15609 C 1521.3 -4.99035 1.50379 0
M  V30 15610 C 1518.62 -5.45566 2.15812 0
M  V30 15611 C 1520.98 -5.75883 2.61805 0
M  V30 15612 C 1519.64 -5.98799 2.9495 0
M  V30 15613 H 1518.91 -0.738112 -0.0653562 0
M  V30 15614 H 1521.56 -1.83738 0.539676 0
M  V30 15615 H 1519.86 -3.70237 -1.28188 0
M  V30 15616 H 1521.56 -3.89761 -0.942725 0
M  V30 15617 H 1518.15 -4.26298 0.443599 0
M  V30 15618 H 1522.33 -4.79913 1.26479 0
M  V30 15619 H 1517.59 -5.61532 2.4185 0
M  V30 15620 H 1521.76 -6.16514 3.23857 0
M  V30 15621 H 1519.39 -6.57176 3.8213 0
M  V30 15622 N 1520.96 -0.130252 -1.57061 0
M  V30 15623 C 1522.19 0.535707 -2.00362 0
M  V30 15624 C 1522.61 1.58712 -1.00956 0
M  V30 15625 O 1521.97 1.81292 0.0171546 0
M  V30 15626 C 1522.02 1.12836 -3.42491 0
M  V30 15627 O 1521.12 2.24367 -3.46025 0
M  V30 15628 H 1520.47 0.132735 -0.650598 0
M  V30 15629 H 1523 -0.222047 -2.03392 0
M  V30 15630 H 1523.01 1.46115 -3.80939 0
M  V30 15631 H 1521.68 0.358304 -4.14354 0
M  V30 15632 H 1520.26 1.92443 -3.19406 0
M  V30 15633 N 1522.44 1.56945 0.143535 0
M  V30 15634 C 1523.69 1.83538 0.855563 0
M  V30 15635 C 1524.02 0.711666 1.81013 0
M  V30 15636 O 1523.27 -0.299039 1.93402 0
M  V30 15637 C 1523.57 3.16482 1.66054 0
M  V30 15638 C 1523.24 4.42768 0.85246 0
M  V30 15639 C 1521.9 4.77064 0.629535 0
M  V30 15640 C 1524.25 5.20406 0.287567 0
M  V30 15641 C 1521.58 5.86457 -0.168934 0
M  V30 15642 C 1523.93 6.30637 -0.49796 0
M  V30 15643 C 1522.6 6.6348 -0.731429 0
M  V30 15644 H 1521.87 0.671615 0.313073 0
M  V30 15645 H 1524.51 1.9113 0.11904 0
M  V30 15646 H 1522.82 3.04357 2.46727 0
M  V30 15647 H 1524.52 3.34274 2.215 0
M  V30 15648 H 1521.11 4.15884 1.03628 0
M  V30 15649 H 1525.29 4.94282 0.447066 0
M  V30 15650 H 1520.55 6.10343 -0.359283 0
M  V30 15651 H 1524.72 6.89989 -0.942792 0
M  V30 15652 H 1522.35 7.48081 -1.35199 0
M  V30 15653 N 1523.92 -0.412991 1.52093 0
M  V30 15654 C 1525.33 -0.991955 1.58168 0
M  V30 15655 C 1525.68 -1.91655 0.419834 0
M  V30 15656 O 1524.81 -2.11448 -0.460308 0
M  V30 15657 C 1525.4 -1.80581 2.86663 0
M  V30 15658 C 1523.96 -2.33487 2.9523 0
M  V30 15659 C 1523.11 -1.13362 2.5307 0
M  V30 15660 H 1526.06 -0.193364 1.57518 0
M  V30 15661 H 1526.08 -2.66282 2.71798 0
M  V30 15662 H 1525.59 -1.13262 3.71205 0
M  V30 15663 H 1523.69 -3.0419 2.15173 0
M  V30 15664 H 1523.81 -2.64617 3.99393 0
M  V30 15665 H 1522.17 -1.48641 2.06828 0
M  V30 15666 H 1522.95 -0.476148 3.39982 0
M  V30 15667 N 1525.4 -1.4265 -0.669982 0
M  V30 15668 C 1526.64 -1.44866 -1.44199 0
M  V30 15669 C 1527 -0.0647049 -1.91891 0
M  V30 15670 O 1528.2 0.0384187 -2.68773 0
M  V30 15671 C 1526.48 -2.44846 -2.60356 0
M  V30 15672 S 1528.03 -2.65803 -3.49134 0
M  V30 15673 H 1524.85 -0.512859 -0.49244 0
M  V30 15674 H 1527.45 -1.7929 -0.779442 0
M  V30 15675 H 1526.16 -3.44161 -2.23565 0
M  V30 15676 H 1525.69 -2.11863 -3.31478 0
M  V30 15677 H 1527.7 -1.94466 -4.56506 0
M  V30 15678 N 1526.88 0.906753 -1.28902 0
M  V30 15679 C 1527.82 2.01004 -1.13429 0
M  V30 15680 C 1528.79 1.66074 -0.0295031 0
M  V30 15681 O 1529.98 1.89793 -0.195727 0
M  V30 15682 C 1527.12 3.35473 -0.809457 0
M  V30 15683 C 1526.23 3.83229 -1.99398 0
M  V30 15684 C 1525.37 5.06241 -1.60915 0
M  V30 15685 C 1524.41 5.46348 -2.7599 0
M  V30 15686 N 1523.54 6.60548 -2.37952 0
M  V30 15687 H 1528.38 2.13571 -2.07825 0
M  V30 15688 H 1525.92 1.046 -1.03428 0
M  V30 15689 H 1527.88 4.12836 -0.601845 0
M  V30 15690 H 1526.51 3.22652 0.0975896 0
M  V30 15691 H 1525.56 3.01962 -2.31351 0
M  V30 15692 H 1526.87 4.08908 -2.85649 0
M  V30 15693 H 1526.03 5.91168 -1.36401 0
M  V30 15694 H 1524.77 4.82385 -0.718021 0
M  V30 15695 H 1523.77 4.59959 -3.01195 0
M  V30 15696 H 1525 5.72188 -3.65757 0
M  V30 15697 H 1522.94 6.38309 -1.51318 0
M  V30 15698 H 1522.86 6.85987 -3.17738 0
M  V30 15699 H 1524.13 7.48762 -2.1674 0
M  V30 15700 N 1528.36 1.11264 1.11616 0
M  V30 15701 C 1529.3 0.764321 2.19684 0
M  V30 15702 C 1530.3 -0.243396 1.67642 0
M  V30 15703 O 1531.5 -0.102869 1.79706 0
M  V30 15704 H 1527.88 0.229275 0.716196 0
M  V30 15705 H 1529.85 1.68445 2.46311 0
M  V30 15706 C 1528.6 0.22175 3.46992 0
M  V30 15707 H 1527.92 0.988422 3.87389 0
M  V30 15708 H 1529.36 0.0161946 4.23997 0
M  V30 15709 C 1527.82 -1.04755 3.202 0
M  V30 15710 O 1528.35 -2.12758 3.4073 0
M  V30 15711 N 1526.56 -0.969608 2.73947 0
M  V30 15712 H 1526.1 -0.0906063 2.57441 0
M  V30 15713 H 1526.06 -1.81955 2.56397 0
M  V30 15714 N 1529.83 -1.29188 0.902679 0
M  V30 15715 C 1531.08 -1.95052 0.529076 0
M  V30 15716 C 1531.4 -1.7149 -0.92824 0
M  V30 15717 O 1530.67 -1.04834 -1.65489 0
M  V30 15718 H 1529.25 -0.721725 0.192671 0
M  V30 15719 H 1531.91 -1.57384 1.14962 0
M  V30 15720 H 1531.01 -3.03819 0.714179 0
M  V30 15721 N 1531.31 -0.665475 -1.42861 0
M  V30 15722 C 1532.73 -0.334157 -1.56063 0
M  V30 15723 C 1532.93 1.16104 -1.64688 0
M  V30 15724 O 1531.98 1.94622 -1.60867 0
M  V30 15725 C 1533.3 -1.05628 -2.81537 0
M  V30 15726 C 1534.84 -1.03771 -2.95297 0
M  V30 15727 C 1535.32 -1.74098 -4.2362 0
M  V30 15728 N 1536.81 -1.7092 -4.30512 0
M  V30 15729 C 1537.55 -2.222 -5.28597 0
M  V30 15730 N 1537.04 -2.81821 -6.32889 0
M  V30 15731 N 1538.83 -2.12628 -5.20332 0
M  V30 15732 H 1530.99 -1.6356 -1.35506 0
M  V30 15733 H 1533.25 -0.688538 -0.651628 0
M  V30 15734 H 1532.95 -2.11141 -2.81269 0
M  V30 15735 H 1532.83 -0.615586 -3.72143 0
M  V30 15736 H 1535.22 0.00905324 -2.95099 0
M  V30 15737 H 1535.3 -1.51721 -2.05948 0
M  V30 15738 H 1534.94 -2.78737 -4.2458 0
M  V30 15739 H 1534.87 -1.23604 -5.11888 0
M  V30 15740 H 1537.36 -1.27425 -3.55769 0
M  V30 15741 H 1537.67 -3.18594 -7.04072 0
M  V30 15742 H 1536.02 -2.85887 -6.33478 0
M  V30 15743 H 1539.21 -1.65746 -4.37774 0
M  V30 15744 H 1539.38 -2.52899 -5.96612 0
M  V30 15745 N 1532.79 1.52222 -0.408187 0
M  V30 15746 C 1534.03 2.03713 0.167444 0
M  V30 15747 C 1534.39 1.28722 1.42459 0
M  V30 15748 O 1535.59 1.70434 2.0786 0
M  V30 15749 C 1533.87 3.55039 0.410146 0
M  V30 15750 S 1535.42 4.28318 0.953358 0
M  V30 15751 H 1532.24 0.709544 0.0454811 0
M  V30 15752 H 1534.84 1.87281 -0.560888 0
M  V30 15753 H 1533.55 4.07199 -0.511618 0
M  V30 15754 H 1533.08 3.75712 1.16638 0
M  V30 15755 H 1535.09 4.43066 2.23399 0
M  V30 15756 N 1534.27 0.138579 1.5699 0
M  V30 15757 C 1535.51 -0.51539 1.96142 0
M  V30 15758 C 1535.85 -1.65067 1.02306 0
M  V30 15759 O 1535.12 -1.94395 0.0638645 0
M  V30 15760 C 1535.4 -1.02956 3.45068 0
M  V30 15761 C 1535.26 0.103646 4.49681 0
M  V30 15762 C 1536.58 -1.91411 3.96295 0
M  V30 15763 H 1533.7 -0.185873 0.713176 0
M  V30 15764 H 1536.34 0.218103 1.88744 0
M  V30 15765 H 1534.49 -1.65462 3.51503 0
M  V30 15766 H 1536.16 0.739693 4.55331 0
M  V30 15767 H 1534.4 0.764014 4.27019 0
M  V30 15768 H 1535.07 -0.297688 5.51197 0
M  V30 15769 H 1537.55 -1.38746 3.92286 0
M  V30 15770 H 1536.43 -2.24298 5.0098 0
M  V30 15771 H 1536.69 -2.84793 3.38149 0
M  V30 15772 N 1535.75 -1.57019 -0.13521 0
M  V30 15773 C 1537.16 -1.73319 -0.694067 0
M  V30 15774 C 1537.51 -0.754808 -1.811 0
M  V30 15775 O 1536.63 0.0759463 -2.16267 0
M  V30 15776 C 1537.23 -3.14266 -1.26579 0
M  V30 15777 C 1535.79 -3.32128 -1.7711 0
M  V30 15778 C 1534.93 -2.69226 -0.664263 0
M  V30 15779 H 1537.88 -1.58441 0.0905702 0
M  V30 15780 H 1537.91 -3.14919 -2.13557 0
M  V30 15781 H 1537.42 -3.85451 -0.452652 0
M  V30 15782 H 1535.52 -2.65959 -2.60953 0
M  V30 15783 H 1535.63 -4.40172 -1.8917 0
M  V30 15784 H 1534 -2.30016 -1.09384 0
M  V30 15785 H 1534.78 -3.43024 0.13763 0
M  V30 15786 N 1537.22 0.404919 -1.52309 0
M  V30 15787 C 1538.17 1.51412 -1.7657 0
M  V30 15788 C 1539.17 1.5713 -0.632983 0
M  V30 15789 O 1540.37 1.60486 -0.815121 0
M  V30 15790 H 1536.75 0.503636 -0.55844 0
M  V30 15791 H 1538.72 1.28137 -2.69488 0
M  V30 15792 C 1537.47 2.88733 -1.93722 0
M  V30 15793 H 1536.79 2.85078 -2.80304 0
M  V30 15794 H 1538.23 3.65626 -2.14695 0
M  V30 15795 C 1536.69 3.29431 -0.705444 0
M  V30 15796 O 1537.22 4.01506 0.124693 0
M  V30 15797 N 1535.43 2.85536 -0.540128 0
M  V30 15798 H 1534.97 2.27052 -1.21677 0
M  V30 15799 H 1534.93 3.13126 0.282723 0
M  V30 15800 N 1538.7 1.43003 0.662408 0
M  V30 15801 C 1539.93 1.47341 1.44825 0
M  V30 15802 C 1540.34 0.0870204 1.89 0
M  V30 15803 O 1539.68 -0.911158 1.59511 0
M  V30 15804 C 1539.75 2.34882 2.7216 0
M  V30 15805 C 1539.41 3.82567 2.49983 0
M  V30 15806 C 1540.41 4.73909 2.13791 0
M  V30 15807 C 1538.09 4.26962 2.64592 0
M  V30 15808 C 1540.09 6.07639 1.92493 0
M  V30 15809 C 1537.77 5.60748 2.4291 0
M  V30 15810 C 1538.77 6.50903 2.06915 0
M  V30 15811 O 1538.46 7.82217 1.85451 0
M  V30 15812 H 1538.19 0.502932 0.451703 0
M  V30 15813 H 1540.74 1.88312 0.820224 0
M  V30 15814 H 1538.97 1.88782 3.37488 0
M  V30 15815 H 1540.66 2.3053 3.34082 0
M  V30 15816 H 1541.43 4.40892 2.02088 0
M  V30 15817 H 1537.31 3.5707 2.91586 0
M  V30 15818 H 1540.85 6.77971 1.64321 0
M  V30 15819 H 1536.75 5.93335 2.54212 0
M  V30 15820 H 1537.52 7.93702 1.9995 0
M  V30 15821 N 1540.18 -0.899904 1.29381 0
M  V30 15822 C 1541.41 -1.68139 1.20053 0
M  V30 15823 C 1541.82 -1.87654 -0.241391 0
M  V30 15824 O 1541.16 -1.41334 -1.17347 0
M  V30 15825 C 1541.22 -3.08703 1.84235 0
M  V30 15826 C 1540.89 -3.12421 3.3353 0
M  V30 15827 C 1541.88 -2.92583 4.29757 0
M  V30 15828 C 1539.57 -3.34493 3.74726 0
M  V30 15829 C 1541.56 -2.94751 5.65156 0
M  V30 15830 C 1539.25 -3.36292 5.10246 0
M  V30 15831 C 1540.25 -3.16443 6.05271 0
M  V30 15832 O 1539.94 -3.18029 7.38317 0
M  V30 15833 H 1539.67 -0.531928 0.417167 0
M  V30 15834 H 1542.22 -1.13375 1.71275 0
M  V30 15835 H 1540.45 -3.65068 1.27524 0
M  V30 15836 H 1542.14 -3.68938 1.69232 0
M  V30 15837 H 1542.91 -2.75343 3.99264 0
M  V30 15838 H 1538.79 -3.48983 3.01217 0
M  V30 15839 H 1542.33 -2.79176 6.39301 0
M  V30 15840 H 1538.23 -3.53063 5.40386 0
M  V30 15841 H 1539 -3.34297 7.47119 0
M  V30 15842 N 1541.66 -1.11854 -1.11024 0
M  V30 15843 C 1542.59 -0.803129 -2.19253 0
M  V30 15844 C 1543.57 0.230417 -1.68532 0
M  V30 15845 O 1544.75 0.0929421 -1.93977 0
M  V30 15846 C 1541.88 -0.250265 -3.46397 0
M  V30 15847 C 1540.84 -1.21617 -4.10357 0
M  V30 15848 C 1540.16 -0.523821 -5.32128 0
M  V30 15849 C 1541.46 -2.56852 -4.54779 0
M  V30 15850 H 1543.16 -1.7081 -2.45895 0
M  V30 15851 H 1540.7 -0.822712 -1.18184 0
M  V30 15852 H 1542.66 -0.0173732 -4.21396 0
M  V30 15853 H 1541.38 0.690018 -3.19228 0
M  V30 15854 H 1540.04 -1.43477 -3.37357 0
M  V30 15855 H 1539.69 0.421408 -5.01232 0
M  V30 15856 H 1539.39 -1.16809 -5.75873 0
M  V30 15857 H 1540.91 -0.299823 -6.09863 0
M  V30 15858 H 1542.33 -2.39056 -5.21081 0
M  V30 15859 H 1540.72 -3.17301 -5.09353 0
M  V30 15860 H 1541.79 -3.15751 -3.68007 0
M  V30 15861 N 1543.14 1.28707 -0.909517 0
M  V30 15862 C 1544.38 1.9693 -0.547521 0
M  V30 15863 C 1544.74 1.70052 0.891417 0
M  V30 15864 O 1545.94 2.31811 1.36078 0
M  V30 15865 C 1544.21 3.4731 -0.843226 0
M  V30 15866 S 1545.77 4.34856 -0.587013 0
M  V30 15867 H 1542.59 0.681478 -0.202753 0
M  V30 15868 H 1545.19 1.5632 -1.17406 0
M  V30 15869 H 1543.9 3.64367 -1.88851 0
M  V30 15870 H 1543.43 3.92865 -0.205179 0
M  V30 15871 H 1545.44 4.92989 0.563561 0
M  V30 15872 N 1544.61 0.673042 1.42506 0
M  V30 15873 C 1545.89 0.123606 1.95209 0
M  V30 15874 C 1546.27 -1.36118 1.61354 0
M  V30 15875 O 1545.62 -2.0965 0.908793 0
M  V30 15876 C 1545.83 0.39088 3.46804 0
M  V30 15877 C 1547.18 0.306445 4.23493 0
M  V30 15878 O 1548.2 0.32453 3.54719 0
M  V30 15879 O 1547.06 0.247127 5.45941 0
M  V30 15880 H 1544.15 0.00184868 0.826998 0
M  V30 15881 H 1546.7 0.74765 1.52343 0
M  V30 15882 H 1545.47 1.41951 3.64645 0
M  V30 15883 H 1545.1 -0.265259 3.96714 0
M  V30 15884 N 1546.09 -1.52004 0.416254 0
M  V30 15885 C 1547.34 -2.0149 -0.15689 0
M  V30 15886 C 1547.66 -1.30343 -1.45037 0
M  V30 15887 O 1546.93 -0.431503 -1.91089 0
M  V30 15888 H 1545.51 -0.744508 -0.0609682 0
M  V30 15889 H 1548.17 -1.86857 0.55413 0
M  V30 15890 H 1547.27 -3.10155 -0.347917 0
M  V30 15891 N 1547.57 -0.146903 -1.56914 0
M  V30 15892 C 1548.82 0.504981 -1.96412 0
M  V30 15893 C 1549.15 1.64522 -1.0318 0
M  V30 15894 O 1548.42 1.94359 -0.0741728 0
M  V30 15895 C 1548.71 1.01125 -3.45609 0
M  V30 15896 C 1548.56 -0.127493 -4.49619 0
M  V30 15897 C 1549.88 1.89306 -3.97305 0
M  V30 15898 H 1547 0.182088 -0.714152 0
M  V30 15899 H 1549.64 -0.22811 -1.88626 0
M  V30 15900 H 1547.79 1.63595 -3.52376 0
M  V30 15901 H 1549.46 -0.763829 -4.54932 0
M  V30 15902 H 1547.71 -0.786649 -4.26608 0
M  V30 15903 H 1548.38 0.268453 -5.51347 0
M  V30 15904 H 1550.85 1.36664 -3.93017 0
M  V30 15905 H 1549.73 2.21638 -5.02163 0
M  V30 15906 H 1549.99 2.82996 -3.39655 0
M  V30 15907 N 1549.05 1.57088 0.126881 0
M  V30 15908 C 1550.33 1.7539 0.8659 0
M  V30 15909 C 1550.71 0.720288 1.98432 0
M  V30 15910 O 1550.05 -0.2572 2.27048 0
M  V30 15911 C 1550.26 3.20131 1.38985 0
M  V30 15912 C 1551.61 3.82404 1.84532 0
M  V30 15913 O 1552.64 3.23685 1.48682 0
M  V30 15914 O 1551.49 4.85599 2.50711 0
M  V30 15915 H 1548.59 0.717853 0.41063 0
M  V30 15916 H 1551.13 1.69335 0.111236 0
M  V30 15917 H 1549.91 3.86871 0.587056 0
M  V30 15918 H 1549.53 3.30692 2.20745 0
M  V30 15919 N 1550.53 -0.396836 1.52522 0
M  V30 15920 C 1551.8 -1.15638 1.57757 0
M  V30 15921 C 1552.18 -2.07903 0.365998 0
M  V30 15922 O 1551.53 -2.1917 -0.646266 0
M  V30 15923 C 1551.74 -1.92292 2.91247 0
M  V30 15924 C 1553.09 -2.47929 3.44697 0
M  V30 15925 O 1554.11 -2.02458 2.93069 0
M  V30 15926 O 1552.97 -3.30969 4.34881 0
M  V30 15927 H 1550.07 -0.52867 0.635953 0
M  V30 15928 H 1552.61 -0.402622 1.64855 0
M  V30 15929 H 1551.38 -1.24775 3.70873 0
M  V30 15930 H 1551.01 -2.74646 2.87498 0
M  V30 15931 N 1552.01 -1.43353 -0.654814 0
M  V30 15932 C 1553.25 -1.46387 -1.42654 0
M  V30 15933 C 1553.61 -0.0850538 -1.91812 0
M  V30 15934 O 1554.81 0.00990964 -2.68798 0
M  V30 15935 C 1553.08 -2.47594 -2.57744 0
M  V30 15936 S 1554.64 -2.69491 -3.46295 0
M  V30 15937 H 1551.46 -0.518053 -0.486972 0
M  V30 15938 H 1554.06 -1.80107 -0.760382 0
M  V30 15939 H 1552.76 -3.46513 -2.19902 0
M  V30 15940 H 1552.3 -2.15367 -3.29212 0
M  V30 15941 H 1554.31 -1.99297 -4.54418 0
M  V30 15942 N 1553.48 0.89303 -1.29857 0
M  V30 15943 C 1554.43 1.98497 -1.12173 0
M  V30 15944 C 1555.42 1.60852 -0.039207 0
M  V30 15945 O 1556.61 1.75055 -0.261652 0
M  V30 15946 C 1553.74 3.33674 -0.807259 0
M  V30 15947 C 1552.82 3.77658 -1.92965 0
M  V30 15948 N 1553.22 3.93814 -3.17402 0
M  V30 15949 C 1551.51 4.06988 -1.82419 0
M  V30 15950 C 1552.21 4.30988 -3.90671 0
M  V30 15951 N 1551.19 4.40403 -3.18662 0
M  V30 15952 H 1554.99 2.09068 -2.06562 0
M  V30 15953 H 1552.51 1.0823 -1.21078 0
M  V30 15954 H 1554.5 4.11617 -0.661603 0
M  V30 15955 H 1553.16 3.24445 0.128646 0
M  V30 15956 H 1554.17 3.79164 -3.52782 0
M  V30 15957 H 1550.85 4.06279 -0.961436 0
M  V30 15958 H 1552.24 4.51278 -4.97793 0
M  V30 15959 N 1554.96 1.12442 1.10429 0
M  V30 15960 C 1556.24 0.791191 1.78884 0
M  V30 15961 C 1556.62 -0.719044 1.98477 0
M  V30 15962 O 1555.97 -1.65275 1.57786 0
M  V30 15963 C 1556.18 1.56632 3.11877 0
M  V30 15964 C 1557.52 1.75236 3.86752 0
M  V30 15965 O 1558.55 1.53145 3.21598 0
M  V30 15966 O 1557.41 2.12025 5.03694 0
M  V30 15967 H 1554.5 0.287788 0.775311 0
M  V30 15968 H 1557.05 1.22844 1.17078 0
M  V30 15969 H 1555.82 2.59317 2.93037 0
M  V30 15970 H 1555.44 1.12332 3.81402 0
M  V30 15971 N 1556.44 -1.28223 0.91633 0
M  V30 15972 C 1557.39 -2.29188 0.396916 0
M  V30 15973 C 1558.38 -1.61453 -0.512763 0
M  V30 15974 O 1559.59 -1.75641 -0.393723 0
M  V30 15975 H 1555.96 -0.743947 0.109761 0
M  V30 15976 H 1557.93 -2.70423 1.2615 0
M  V30 15977 C 1556.68 -3.4598 -0.345452 0
M  V30 15978 H 1556.01 -3.98306 0.345326 0
M  V30 15979 H 1557.45 -4.18617 -0.67349 0
M  V30 15980 C 1555.9 -2.98904 -1.55429 0
M  V30 15981 O 1556.43 -3.01598 -2.65333 0
M  V30 15982 N 1554.64 -2.54534 -1.40217 0
M  V30 15983 H 1554.19 -2.52541 -0.508029 0
M  V30 15984 H 1554.15 -2.23397 -2.21227 0
M  V30 15985 N 1557.92 -0.68059 -1.42147 0
M  V30 15986 C 1559.14 -0.212293 -2.06311 0
M  V30 15987 C 1559.57 1.12402 -1.50822 0
M  V30 15988 O 1558.93 1.70037 -0.629051 0
M  V30 15989 C 1558.97 -0.164156 -3.60226 0
M  V30 15990 O 1558.08 0.865582 -4.03214 0
M  V30 15991 H 1557.42 -0.107451 -0.655248 0
M  V30 15992 H 1559.95 -0.931233 -1.82179 0
M  V30 15993 H 1559.96 0.0100422 -4.07999 0
M  V30 15994 H 1558.63 -1.13952 -3.99985 0
M  V30 15995 H 1557.21 0.661955 -3.66978 0
M  V30 15996 N 1559.4 1.51781 -0.424309 0
M  V30 15997 C 1560.67 1.94514 0.205791 0
M  V30 15998 C 1561.05 1.36219 1.61269 0
M  V30 15999 O 1560.4 0.544019 2.21929 0
M  V30 16000 C 1560.61 3.48445 0.196749 0
M  V30 16001 C 1561.96 4.22628 0.408702 0
M  V30 16002 O 1562.98 3.55133 0.275441 0
M  V30 16003 O 1561.84 5.42344 0.672698 0
M  V30 16004 H 1558.94 0.815576 0.136983 0
M  V30 16005 H 1561.48 1.6273 -0.481349 0
M  V30 16006 H 1560.25 3.83297 -0.787342 0
M  V30 16007 H 1559.88 3.86634 0.92735 0
M  V30 16008 N 1560.87 0.155222 1.56834 0
M  V30 16009 C 1561.78 -0.794179 2.20749 0
M  V30 16010 C 1562.8 -1.26546 1.19424 0
M  V30 16011 O 1563.98 -1.32094 1.5203 0
M  V30 16012 C 1561.04 -2.01261 2.82303 0
M  V30 16013 C 1560.1 -1.58976 3.98779 0
M  V30 16014 C 1559.33 -2.75011 4.57389 0
M  V30 16015 O 1559.56 -3.91449 4.14879 0
M  V30 16016 O 1558.49 -2.50011 5.4752 0
M  V30 16017 H 1562.32 -0.280064 3.02406 0
M  V30 16018 H 1559.9 -0.0722048 1.49225 0
M  V30 16019 H 1561.78 -2.72551 3.21394 0
M  V30 16020 H 1560.46 -2.51609 2.03653 0
M  V30 16021 H 1559.37 -0.846848 3.64389 0
M  V30 16022 H 1560.7 -1.13336 4.78974 0
M  V30 16023 N 1562.35 -1.57153 -0.118549 0
M  V30 16024 C 1563.28 -1.97022 -1.1711 0
M  V30 16025 C 1564.3 -0.869599 -1.37629 0
M  V30 16026 O 1565.49 -1.14788 -1.36696 0
M  V30 16027 C 1562.59 -2.25371 -2.53103 0
M  V30 16028 C 1561.76 -3.56677 -2.5318 0
M  V30 16029 C 1560.82 -3.73233 -3.70922 0
M  V30 16030 O 1559.84 -4.4534 -3.54487 0
M  V30 16031 N 1561.05 -3.12036 -4.89504 0
M  V30 16032 H 1563.81 -2.87921 -0.831959 0
M  V30 16033 H 1561.37 -1.58947 -0.307817 0
M  V30 16034 H 1563.36 -2.33662 -3.3043 0
M  V30 16035 H 1561.93 -1.40597 -2.79197 0
M  V30 16036 H 1561.15 -3.5957 -1.61564 0
M  V30 16037 H 1562.44 -4.42982 -2.50288 0
M  V30 16038 H 1561.84 -2.53422 -5.05761 0
M  V30 16039 H 1560.4 -3.25846 -5.64506 0
M  V30 16040 N 1563.83 0.388742 -1.5273 0
M  V30 16041 C 1564.76 1.48133 -1.80496 0
M  V30 16042 C 1565.74 1.56899 -0.657008 0
M  V30 16043 O 1566.93 1.71844 -0.904621 0
M  V30 16044 C 1564.06 2.85742 -1.97405 0
M  V30 16045 C 1563.01 2.91815 -3.13094 0
M  V30 16046 C 1562.34 4.31876 -3.15258 0
M  V30 16047 C 1563.64 2.61438 -4.52159 0
M  V30 16048 H 1565.33 1.25147 -2.7199 0
M  V30 16049 H 1562.88 0.600603 -1.30877 0
M  V30 16050 H 1564.83 3.62182 -2.15412 0
M  V30 16051 H 1563.55 3.10065 -1.02601 0
M  V30 16052 H 1562.21 2.17824 -2.9487 0
M  V30 16053 H 1561.86 4.53239 -2.18135 0
M  V30 16054 H 1561.56 4.3686 -3.92972 0
M  V30 16055 H 1563.08 5.10221 -3.3542 0
M  V30 16056 H 1564.5 3.27596 -4.70483 0
M  V30 16057 H 1562.89 2.77771 -5.31943 0
M  V30 16058 H 1563.96 1.56778 -4.58856 0
M  V30 16059 N 1565.31 1.43698 0.647203 0
M  V30 16060 C 1566.55 1.47142 1.41876 0
M  V30 16061 C 1566.91 0.0952249 1.91764 0
M  V30 16062 O 1568.11 0.00434552 2.688 0
M  V30 16063 C 1566.38 2.48957 2.56428 0
M  V30 16064 S 1567.94 2.71323 3.44861 0
M  V30 16065 H 1564.76 0.520628 0.484218 0
M  V30 16066 H 1567.36 1.80507 0.75082 0
M  V30 16067 H 1566.07 3.47674 2.18061 0
M  V30 16068 H 1565.6 2.17109 3.28066 0
M  V30 16069 H 1567.61 2.01704 4.53354 0
M  V30 16070 N 1566.79 -0.886131 1.30328 0
M  V30 16071 C 1568.03 -1.6346 1.18849 0
M  V30 16072 C 1568.36 -1.93295 -0.257285 0
M  V30 16073 O 1567.63 -1.56858 -1.17356 0
M  V30 16074 H 1566.21 -0.605932 0.43687 0
M  V30 16075 H 1568.87 -1.06177 1.63439 0
M  V30 16076 H 1567.96 -2.58522 1.7485 0
M  V30 16077 N 1568.26 -1.13026 -1.09832 0
M  V30 16078 C 1569.49 -0.91246 -1.85693 0
M  V30 16079 C 1569.91 0.538558 -1.80956 0
M  V30 16080 O 1569.26 1.37262 -1.20273 0
M  V30 16081 C 1569.32 -1.38684 -3.3384 0
M  V30 16082 O 1569.04 -2.78099 -3.38515 0
M  V30 16083 C 1570.54 -1.20688 -4.26555 0
M  V30 16084 H 1567.76 -0.32565 -0.58668 0
M  V30 16085 H 1570.3 -1.50177 -1.38806 0
M  V30 16086 H 1568.46 -0.840617 -3.7817 0
M  V30 16087 H 1568.87 -2.99061 -4.30886 0
M  V30 16088 H 1570.34 -1.5876 -5.28677 0
M  V30 16089 H 1570.82 -0.148111 -4.3895 0
M  V30 16090 H 1571.43 -1.74092 -3.88036 0
M  V30 16091 N 1569.74 1.27735 -0.923117 0
M  V30 16092 C 1570.67 2.29395 -0.435907 0
M  V30 16093 C 1571.65 1.62542 0.501403 0
M  V30 16094 O 1572.84 1.89884 0.407135 0
M  V30 16095 C 1569.97 3.45856 0.316348 0
M  V30 16096 C 1568.92 4.24672 -0.532697 0
M  V30 16097 C 1568.25 5.33563 0.348454 0
M  V30 16098 C 1569.55 4.90494 -1.79481 0
M  V30 16099 H 1571.24 2.70398 -1.28551 0
M  V30 16100 H 1568.79 1.29989 -0.619581 0
M  V30 16101 H 1570.74 4.1607 0.668098 0
M  V30 16102 H 1569.47 3.03758 1.19994 0
M  V30 16103 H 1568.12 3.56198 -0.867093 0
M  V30 16104 H 1567.77 4.87708 1.23086 0
M  V30 16105 H 1567.47 5.87202 -0.216104 0
M  V30 16106 H 1569 6.06622 0.695878 0
M  V30 16107 H 1570.41 5.53019 -1.5114 0
M  V30 16108 H 1568.81 5.5417 -2.30251 0
M  V30 16109 H 1569.88 4.14454 -2.51707 0
M  V30 16110 N 1571.22 0.688118 1.41784 0
M  V30 16111 C 1572.17 0.00661035 2.32599 0
M  V30 16112 C 1573.16 -0.776475 1.50556 0
M  V30 16113 O 1574.37 -0.682937 1.66541 0
M  V30 16114 H 1570.74 -0.0166615 0.751815 0
M  V30 16115 H 1572.71 0.789718 2.8776 0
M  V30 16116 C 1571.46 -0.921251 3.35273 0
M  V30 16117 H 1570.79 -0.328099 3.98451 0
M  V30 16118 H 1572.23 -1.36655 4.01374 0
M  V30 16119 C 1570.69 -2.03393 2.68576 0
M  V30 16120 O 1571.22 -3.1219 2.52785 0
M  V30 16121 N 1569.42 -1.8095 2.27389 0
M  V30 16122 H 1568.97 -0.924692 2.40431 0
M  V30 16123 H 1568.93 -2.55584 1.83096 0
M  V30 16124 N 1572.7 -1.51554 0.432352 0
M  V30 16125 C 1573.65 -2.29204 -0.396044 0
M  V30 16126 C 1574.64 -1.34846 -1.02532 0
M  V30 16127 O 1575.85 -1.52209 -0.960861 0
M  V30 16128 H 1572.22 -0.737587 -0.146525 0
M  V30 16129 H 1574.19 -2.97085 0.279781 0
M  V30 16130 C 1572.94 -3.1427 -1.4876 0
M  V30 16131 H 1572.26 -3.8676 -1.01274 0
M  V30 16132 H 1573.7 -3.71667 -2.04058 0
M  V30 16133 C 1572.16 -2.29322 -2.46806 0
M  V30 16134 O 1572.69 -1.94941 -3.51228 0
M  V30 16135 N 1570.9 -1.92641 -2.17573 0
M  V30 16136 H 1570.45 -2.208 -1.32685 0
M  V30 16137 H 1570.4 -1.361 -2.83415 0
M  V30 16138 N 1574.18 -0.163538 -1.56749 0
M  V30 16139 C 1575.4 0.489888 -2.01017 0
M  V30 16140 C 1575.82 1.57327 -1.04373 0
M  V30 16141 O 1575.18 1.82449 -0.0433414 0
M  V30 16142 C 1575.23 1.07537 -3.45135 0
M  V30 16143 O 1574.95 0.0352465 -4.38086 0
M  V30 16144 C 1576.45 1.80779 -4.04764 0
M  V30 16145 H 1573.67 0.126095 -0.659046 0
M  V30 16146 H 1576.21 -0.262982 -2.02802 0
M  V30 16147 H 1574.37 1.77877 -3.44149 0
M  V30 16148 H 1574.78 0.466426 -5.22422 0
M  V30 16149 H 1576.26 2.17014 -5.07552 0
M  V30 16150 H 1576.73 2.6999 -3.46413 0
M  V30 16151 H 1577.34 1.15098 -4.09429 0
M  V30 16152 N 1575.65 1.57214 0.110213 0
M  V30 16153 C 1576.89 1.87133 0.822229 0
M  V30 16154 C 1577.26 0.752645 1.76633 0
M  V30 16155 O 1578.46 0.933837 2.52057 0
M  V30 16156 C 1576.73 3.22286 1.54487 0
M  V30 16157 S 1578.29 3.73861 2.29725 0
M  V30 16158 H 1575.11 0.65598 0.274248 0
M  V30 16159 H 1577.71 1.95336 0.0801112 0
M  V30 16160 H 1576.41 4.0164 0.84343 0
M  V30 16161 H 1575.94 3.17184 2.32719 0
M  V30 16162 H 1577.96 3.46066 3.55602 0
M  V30 16163 N 1577.13 -0.380637 1.52934 0
M  V30 16164 C 1578.36 -1.15033 1.72575 0
M  V30 16165 C 1578.78 -1.82715 0.446869 0
M  V30 16166 O 1578.14 -1.71154 -0.598004 0
M  V30 16167 C 1578.19 -2.16773 2.8817 0
M  V30 16168 O 1577.29 -3.23539 2.55727 0
M  V30 16169 H 1576.63 -0.334489 0.573597 0
M  V30 16170 H 1579.16 -0.442369 1.9976 0
M  V30 16171 H 1579.17 -2.60629 3.13905 0
M  V30 16172 H 1577.85 -1.669 3.80943 0
M  V30 16173 H 1576.43 -2.84761 2.4076 0
M  V30 16174 N 1578.61 -1.44039 -0.639573 0
M  V30 16175 C 1579.84 -1.50063 -1.43164 0
M  V30 16176 C 1580.26 -0.123906 -1.87691 0
M  V30 16177 O 1579.62 0.885192 -1.58221 0
M  V30 16178 C 1579.67 -2.46305 -2.63375 0
M  V30 16179 O 1578.77 -1.95874 -3.62915 0
M  V30 16180 H 1578.11 -0.507052 -0.428713 0
M  V30 16181 H 1580.64 -1.8909 -0.781415 0
M  V30 16182 H 1580.65 -2.64062 -3.11023 0
M  V30 16183 H 1579.33 -3.46309 -2.3031 0
M  V30 16184 H 1577.9 -1.87844 -3.22132 0
M  V30 16185 N 1580.09 0.879207 -1.30796 0
M  V30 16186 C 1581.31 1.66975 -1.23021 0
M  V30 16187 C 1581.74 1.87004 0.202798 0
M  V30 16188 O 1581.1 1.40514 1.14566 0
M  V30 16189 C 1581.14 3.02028 -1.97007 0
M  V30 16190 O 1580.25 3.91338 -1.30109 0
M  V30 16191 H 1579.59 0.509998 -0.425204 0
M  V30 16192 H 1582.12 1.09688 -1.72713 0
M  V30 16193 H 1582.13 3.5203 -2.06249 0
M  V30 16194 H 1580.8 2.8677 -3.01224 0
M  V30 16195 H 1579.38 3.49781 -1.29258 0
M  V30 16196 N 1581.57 1.13606 1.09231 0
M  V30 16197 C 1582.53 0.818197 2.14099 0
M  V30 16198 C 1583.53 -0.173275 1.59864 0
M  V30 16199 O 1584.72 0.05405 1.74116 0
M  V30 16200 C 1581.85 0.218138 3.40201 0
M  V30 16201 H 1583.05 1.74748 2.43727 0
M  V30 16202 H 1580.6 0.940962 1.24802 0
M  V30 16203 H 1581.33 -0.720269 3.162 0
M  V30 16204 H 1581.12 0.932156 3.80859 0
M  V30 16205 H 1582.61 0.0126639 4.17598 0
M  V30 16206 N 1583.05 -1.27244 0.929878 0
M  V30 16207 C 1584.29 -1.94269 0.57146 0
M  V30 16208 C 1584.62 -1.73064 -0.887639 0
M  V30 16209 O 1583.88 -1.05422 -1.64878 0
M  V30 16210 C 1584.17 -3.47233 0.846386 0
M  V30 16211 C 1583.84 -3.88563 2.28757 0
M  V30 16212 C 1582.5 -3.99557 2.68156 0
M  V30 16213 C 1584.85 -4.09468 3.22467 0
M  V30 16214 C 1582.18 -4.28846 4.00385 0
M  V30 16215 C 1584.53 -4.40242 4.54279 0
M  V30 16216 C 1583.2 -4.4945 4.93509 0
M  V30 16217 H 1582.47 -0.710882 0.209112 0
M  V30 16218 H 1585.12 -1.51273 1.17425 0
M  V30 16219 H 1583.42 -3.91469 0.160941 0
M  V30 16220 H 1585.12 -3.97238 0.548006 0
M  V30 16221 H 1581.71 -3.80544 1.97192 0
M  V30 16222 H 1585.89 -4.00412 2.9323 0
M  V30 16223 H 1581.15 -4.34184 4.30458 0
M  V30 16224 H 1585.32 -4.55365 5.26892 0
M  V30 16225 H 1582.95 -4.71899 5.95999 0
M  V30 16226 N 1584.52 -0.695628 -1.41417 0
M  V30 16227 C 1585.75 -0.235654 -2.05554 0
M  V30 16228 C 1586.17 1.11513 -1.52349 0
M  V30 16229 O 1585.52 1.69688 -0.671743 0
M  V30 16230 C 1585.57 -0.184809 -3.61027 0
M  V30 16231 O 1585.3 -1.48224 -4.12264 0
M  V30 16232 C 1586.8 0.296147 -4.4231 0
M  V30 16233 H 1584.02 -0.109648 -0.661981 0
M  V30 16234 H 1586.56 -0.948227 -1.81187 0
M  V30 16235 H 1584.72 0.478588 -3.84432 0
M  V30 16236 H 1585.13 -1.36939 -5.06308 0
M  V30 16237 H 1586.6 0.280597 -5.51286 0
M  V30 16238 H 1587.08 1.33503 -4.18418 0
M  V30 16239 H 1587.69 -0.336253 -4.23969 0
M  V30 16240 N 1586 1.51322 -0.440383 0
M  V30 16241 C 1587.24 2.04022 0.124196 0
M  V30 16242 C 1587.61 1.31715 1.39697 0
M  V30 16243 O 1588.81 1.74804 2.04198 0
M  V30 16244 C 1587.08 3.55829 0.334744 0
M  V30 16245 S 1588.64 4.30244 0.862291 0
M  V30 16246 H 1585.45 0.710349 0.0304204 0
M  V30 16247 H 1588.06 1.86049 -0.600487 0
M  V30 16248 H 1586.76 4.06022 -0.597876 0
M  V30 16249 H 1586.29 3.78101 1.08642 0
M  V30 16250 H 1588.31 4.47705 2.13951 0
M  V30 16251 N 1587.48 0.171848 1.5666 0
M  V30 16252 C 1588.73 -0.472034 1.9651 0
M  V30 16253 C 1589.05 -1.63743 1.05893 0
M  V30 16254 O 1588.32 -1.95498 0.125396 0
M  V30 16255 H 1586.9 -0.177377 0.725635 0
M  V30 16256 H 1589.56 0.253155 1.93249 0
M  V30 16257 H 1588.66 -0.831693 3.00814 0
M  V30 16258 N 1588.96 -1.5727 -0.101874 0
M  V30 16259 C 1589.91 -1.98011 -1.13029 0
M  V30 16260 C 1590.89 -0.857554 -1.36143 0
M  V30 16261 O 1592.08 -1.12135 -1.36948 0
M  V30 16262 C 1589.21 -2.4024 -2.45234 0
M  V30 16263 C 1588.3 -3.59166 -2.25522 0
M  V30 16264 N 1588.69 -4.74317 -1.75662 0
M  V30 16265 C 1586.99 -3.65132 -2.56115 0
M  V30 16266 C 1587.69 -5.56286 -1.70061 0
M  V30 16267 N 1586.66 -4.99262 -2.15031 0
M  V30 16268 H 1590.47 -2.84493 -0.737611 0
M  V30 16269 H 1587.98 -1.59426 -0.309395 0
M  V30 16270 H 1589.98 -2.67652 -3.19637 0
M  V30 16271 H 1588.64 -1.55131 -2.85245 0
M  V30 16272 H 1589.65 -4.972 -1.44958 0
M  V30 16273 H 1586.33 -2.9067 -2.99696 0
M  V30 16274 H 1587.72 -6.58682 -1.3262 0
M  V30 16275 N 1590.44 0.372521 -1.53134 0
M  V30 16276 C 1591.68 1.11368 -1.68646 0
M  V30 16277 C 1592 1.90034 -0.437275 0
M  V30 16278 O 1591.27 1.88062 0.548593 0
M  V30 16279 H 1589.85 0.414129 -0.621696 0
M  V30 16280 H 1592.52 0.42082 -1.90303 0
M  V30 16281 H 1591.61 1.80738 -2.54441 0
M  V30 16282 N 1591.91 1.44376 0.631925 0
M  V30 16283 C 1592.82 1.5367 1.77264 0
M  V30 16284 C 1593.84 0.422425 1.68794 0
M  V30 16285 O 1595.02 0.679656 1.89585 0
M  V30 16286 C 1592.08 1.47743 3.13644 0
M  V30 16287 C 1591.14 2.70015 3.33752 0
M  V30 16288 C 1590.37 2.64362 4.63626 0
M  V30 16289 O 1590.6 1.7032 5.44378 0
M  V30 16290 O 1589.53 3.55201 4.85918 0
M  V30 16291 H 1593.36 2.5004 1.72376 0
M  V30 16292 H 1590.94 1.26614 0.793052 0
M  V30 16293 H 1592.82 1.46958 3.94945 0
M  V30 16294 H 1591.5 0.545165 3.19076 0
M  V30 16295 H 1590.41 2.76369 2.52133 0
M  V30 16296 H 1591.74 3.62286 3.33181 0
M  V30 16297 N 1593.39 -0.872258 1.31261 0
M  V30 16298 C 1594.63 -1.63914 1.22113 0
M  V30 16299 C 1595 -1.9076 -0.217873 0
M  V30 16300 O 1596.2 -2.65293 -0.432812 0
M  V30 16301 C 1594.47 -2.93498 2.03945 0
M  V30 16302 S 1596.03 -3.84391 2.11634 0
M  V30 16303 H 1592.84 -0.562434 0.434959 0
M  V30 16304 H 1595.45 -1.03435 1.65896 0
M  V30 16305 H 1594.15 -2.71695 3.07587 0
M  V30 16306 H 1593.68 -3.59004 1.60872 0
M  V30 16307 H 1595.7 -4.8012 1.25298 0
M  V30 16308 N 1594.87 -1.14184 -1.08627 0
M  V30 16309 C 1596.12 -0.903271 -1.80344 0
M  V30 16310 C 1596.43 0.571801 -1.87056 0
M  V30 16311 O 1597.64 0.92756 -2.55164 0
M  V30 16312 C 1596.09 -1.56653 -3.24018 0
M  V30 16313 C 1595.7 -3.07771 -3.25548 0
M  V30 16314 C 1597.45 -1.40899 -4.00434 0
M  V30 16315 C 1595.35 -3.66943 -4.63796 0
M  V30 16316 H 1594.28 -0.334288 -0.675846 0
M  V30 16317 H 1596.93 -1.3705 -1.22023 0
M  V30 16318 H 1595.32 -1.02698 -3.82452 0
M  V30 16319 H 1596.49 -3.68375 -2.76834 0
M  V30 16320 H 1594.8 -3.23136 -2.62625 0
M  V30 16321 H 1597.4 -1.82511 -5.02587 0
M  V30 16322 H 1597.74 -0.354822 -4.14785 0
M  V30 16323 H 1598.28 -1.91879 -3.48464 0
M  V30 16324 H 1595.02 -4.72203 -4.54648 0
M  V30 16325 H 1594.54 -3.11119 -5.12801 0
M  V30 16326 H 1596.22 -3.67103 -5.32771 0
M  V30 16327 N 1596.35 1.26749 -0.936613 0
M  V30 16328 C 1597.76 1.75925 -0.62507 0
M  V30 16329 C 1598.11 1.76359 0.859771 0
M  V30 16330 O 1597.24 1.37277 1.67284 0
M  V30 16331 C 1597.83 3.19474 -1.12791 0
M  V30 16332 C 1596.39 3.66282 -0.866872 0
M  V30 16333 C 1595.54 2.45913 -1.28148 0
M  V30 16334 H 1598.49 1.1289 -1.11542 0
M  V30 16335 H 1598.51 3.77465 -0.479643 0
M  V30 16336 H 1598.02 3.19126 -2.20862 0
M  V30 16337 H 1596.12 3.72065 0.199647 0
M  V30 16338 H 1596.23 4.55319 -1.49067 0
M  V30 16339 H 1594.6 2.44894 -0.699941 0
M  V30 16340 H 1595.38 2.4827 -2.37101 0
M  V30 16341 N 1597.83 0.703118 1.41046 0
M  V30 16342 C 1598.79 0.0514476 2.29142 0
M  V30 16343 C 1599.79 -0.700223 1.44753 0
M  V30 16344 O 1600.98 -0.533985 1.65814 0
M  V30 16345 C 1598.11 -0.93735 3.2776 0
M  V30 16346 H 1599.3 0.827201 2.88266 0
M  V30 16347 H 1596.86 0.467045 1.49159 0
M  V30 16348 H 1597.59 -1.7406 2.7363 0
M  V30 16349 H 1597.38 -0.4014 3.9004 0
M  V30 16350 H 1598.87 -1.39088 3.93757 0
M  V30 16351 N 1599.3 -1.51086 0.448402 0
M  V30 16352 C 1600.25 -2.24885 -0.375609 0
M  V30 16353 C 1601.24 -1.27553 -0.980769 0
M  V30 16354 O 1602.43 -1.52583 -0.897076 0
M  V30 16355 C 1599.56 -3.10235 -1.47 0
M  V30 16356 C 1598.65 -4.15003 -0.873686 0
M  V30 16357 N 1599.04 -5.05799 -0.00756268 0
M  V30 16358 C 1597.33 -4.31182 -1.14009 0
M  V30 16359 C 1598.04 -5.80772 0.328514 0
M  V30 16360 N 1597.01 -5.42822 -0.290661 0
M  V30 16361 H 1600.81 -2.92446 0.291962 0
M  V30 16362 H 1598.33 -1.60287 0.261145 0
M  V30 16363 H 1600.32 -3.61691 -2.07328 0
M  V30 16364 H 1598.98 -2.44219 -2.13979 0
M  V30 16365 H 1600 -5.1665 0.359676 0
M  V30 16366 H 1596.67 -3.7639 -1.80656 0
M  V30 16367 H 1598.06 -6.63896 1.03399 0
M  V30 16368 N 1600.78 -0.180154 -1.56567 0
M  V30 16369 C 1602.03 0.456651 -1.98208 0
M  V30 16370 C 1602.38 1.60262 -1.06461 0
M  V30 16371 O 1601.68 1.91307 -0.106011 0
M  V30 16372 C 1601.87 0.978895 -3.43733 0
M  V30 16373 C 1601.7 -0.114936 -4.49553 0
M  V30 16374 C 1600.47 -0.567571 -5.02102 0
M  V30 16375 C 1602.67 -0.918528 -5.06031 0
M  V30 16376 N 1600.65 -1.64078 -5.91567 0
M  V30 16377 C 1602.02 -1.84147 -5.92022 0
M  V30 16378 C 1604.08 -0.96262 -4.88506 0
M  V30 16379 C 1602.78 -2.8048 -6.62362 0
M  V30 16380 C 1604.8 -1.91393 -5.59573 0
M  V30 16381 C 1604.17 -2.82434 -6.45299 0
M  V30 16382 H 1600.27 0.13495 -0.770268 0
M  V30 16383 H 1602.85 -0.282408 -1.92641 0
M  V30 16384 H 1601.02 1.68744 -3.49828 0
M  V30 16385 H 1602.75 1.58506 -3.72368 0
M  V30 16386 H 1599.51 -0.163649 -4.73317 0
M  V30 16387 H 1599.93 -2.17814 -6.41004 0
M  V30 16388 H 1604.57 -0.272775 -4.21919 0
M  V30 16389 H 1602.29 -3.50448 -7.28156 0
M  V30 16390 H 1605.88 -1.95427 -5.47996 0
M  V30 16391 H 1604.76 -3.54847 -6.99324 0
M  V30 16392 N 1602.26 1.57322 0.0935319 0
M  V30 16393 C 1603.68 1.5319 0.447781 0
M  V30 16394 C 1603.88 0.897107 1.80428 0
M  V30 16395 O 1602.93 0.490285 2.47694 0
M  V30 16396 C 1604.25 2.97908 0.408832 0
M  V30 16397 C 1605.79 3.09132 0.490576 0
M  V30 16398 C 1606.27 4.55459 0.481759 0
M  V30 16399 N 1607.76 4.60013 0.542468 0
M  V30 16400 C 1608.49 5.70683 0.557509 0
M  V30 16401 N 1607.99 6.9078 0.528664 0
M  V30 16402 N 1609.78 5.58862 0.602438 0
M  V30 16403 H 1601.93 1.96962 -0.794965 0
M  V30 16404 H 1604.2 0.900583 -0.296064 0
M  V30 16405 H 1603.9 3.47823 -0.520766 0
M  V30 16406 H 1603.78 3.56678 1.22722 0
M  V30 16407 H 1606.16 2.59203 1.41059 0
M  V30 16408 H 1606.25 2.53311 -0.355982 0
M  V30 16409 H 1605.89 5.0604 -0.43432 0
M  V30 16410 H 1605.82 5.09119 1.34555 0
M  V30 16411 H 1608.31 3.73578 0.569892 0
M  V30 16412 H 1608.62 7.70887 0.543467 0
M  V30 16413 H 1606.97 6.9323 0.495687 0
M  V30 16414 H 1610.16 4.63942 0.622514 0
M  V30 16415 H 1610.33 6.45116 0.610691 0
M  V30 16416 N 1603.74 -0.364395 1.53329 0
M  V30 16417 C 1604.98 -1.11559 1.71272 0
M  V30 16418 C 1605.34 -1.86521 0.455401 0
M  V30 16419 O 1606.54 -2.63888 0.511533 0
M  V30 16420 C 1604.81 -2.04838 2.92875 0
M  V30 16421 S 1606.37 -2.87462 3.31529 0
M  V30 16422 H 1603.19 -0.377267 0.602653 0
M  V30 16423 H 1605.79 -0.396684 1.91433 0
M  V30 16424 H 1604.5 -1.48532 3.82579 0
M  V30 16425 H 1604.03 -2.81199 2.75119 0
M  V30 16426 H 1606.04 -4.07144 2.83634 0
M  V30 16427 N 1605.22 -1.44709 -0.62426 0
M  V30 16428 C 1606.49 -1.38328 -1.38292 0
M  V30 16429 C 1606.87 -0.0454388 -2.11051 0
M  V30 16430 O 1606.22 0.972183 -2.06787 0
M  V30 16431 C 1606.43 -2.58602 -2.34364 0
M  V30 16432 C 1607.78 -3.02966 -2.97484 0
M  V30 16433 O 1608.8 -2.58856 -2.44688 0
M  V30 16434 O 1607.66 -3.79466 -3.93278 0
M  V30 16435 H 1604.76 -0.54812 -0.619269 0
M  V30 16436 H 1607.3 -1.5681 -0.648741 0
M  V30 16437 H 1606.07 -3.47573 -1.79746 0
M  V30 16438 H 1605.7 -2.42368 -3.15188 0
M  V30 16439 N 1606.69 0.865285 -1.31722 0
M  V30 16440 C 1607.64 1.97294 -1.19766 0
M  V30 16441 C 1608.61 1.65896 -0.0823232 0
M  V30 16442 O 1609.8 1.89075 -0.256009 0
M  V30 16443 C 1606.94 3.32727 -0.915776 0
M  V30 16444 C 1606.05 3.76691 -2.11489 0
M  V30 16445 C 1605.18 5.00865 -1.76939 0
M  V30 16446 C 1604.22 5.37291 -2.93232 0
M  V30 16447 N 1603.36 6.52643 -2.58846 0
M  V30 16448 H 1608.2 2.06851 -2.14515 0
M  V30 16449 H 1605.74 1.01256 -1.06703 0
M  V30 16450 H 1607.7 4.10712 -0.732881 0
M  V30 16451 H 1606.33 3.228 -0.00510917 0
M  V30 16452 H 1605.38 2.94449 -2.4084 0
M  V30 16453 H 1606.69 3.99613 -2.98514 0
M  V30 16454 H 1605.84 5.86529 -1.5514 0
M  V30 16455 H 1604.58 4.79857 -0.871125 0
M  V30 16456 H 1603.59 4.50143 -3.15675 0
M  V30 16457 H 1604.81 5.60262 -3.83775 0
M  V30 16458 H 1602.76 6.33172 -1.71548 0
M  V30 16459 H 1602.68 6.75531 -3.39401 0
M  V30 16460 H 1603.94 7.41487 -2.40451 0
M  V30 16461 N 1608.17 1.14759 1.0802 0
M  V30 16462 C 1609.59 0.8888 1.32561 0
M  V30 16463 C 1609.79 -0.467926 1.95992 0
M  V30 16464 O 1608.84 -1.21135 2.21546 0
M  V30 16465 C 1610.16 2.02456 2.22333 0
M  V30 16466 C 1611.71 2.05831 2.35802 0
M  V30 16467 C 1612.18 3.18711 3.28918 0
M  V30 16468 N 1613.67 3.18315 3.36496 0
M  V30 16469 C 1614.41 4.02297 4.08589 0
M  V30 16470 N 1613.9 4.96327 4.83354 0
M  V30 16471 N 1615.7 3.90344 4.0446 0
M  V30 16472 H 1607.85 2.02135 0.652307 0
M  V30 16473 H 1610.11 0.881021 0.35001 0
M  V30 16474 H 1609.82 3.00354 1.82976 0
M  V30 16475 H 1609.69 1.95108 3.2282 0
M  V30 16476 H 1612.08 1.08537 2.74415 0
M  V30 16477 H 1612.16 2.17248 1.35044 0
M  V30 16478 H 1611.8 4.16253 2.91025 0
M  V30 16479 H 1611.73 3.04531 4.29614 0
M  V30 16480 H 1614.22 2.50214 2.83199 0
M  V30 16481 H 1614.54 5.56865 5.35837 0
M  V30 16482 H 1612.88 5.00321 4.82394 0
M  V30 16483 H 1616.07 3.162 3.45159 0
M  V30 16484 H 1616.24 4.56019 4.60381 0
M  V30 16485 N 1609.65 -1.26251 0.943322 0
M  V30 16486 C 1610.6 -2.28295 0.445441 0
M  V30 16487 C 1611.59 -1.62504 -0.478401 0
M  V30 16488 O 1612.8 -1.76437 -0.356378 0
M  V30 16489 H 1609.17 -0.741451 0.125517 0
M  V30 16490 H 1611.14 -2.67687 1.31858 0
M  V30 16491 C 1609.89 -3.46635 -0.271987 0
M  V30 16492 H 1609.22 -3.97484 0.429734 0
M  V30 16493 H 1610.66 -4.19951 -0.584544 0
M  V30 16494 C 1609.12 -3.02133 -1.49054 0
M  V30 16495 O 1609.65 -3.07158 -2.58876 0
M  V30 16496 N 1607.85 -2.57451 -1.34787 0
M  V30 16497 H 1607.4 -2.53562 -0.454347 0
M  V30 16498 H 1607.36 -2.28039 -2.16438 0
M  V30 16499 N 1611.13 -0.710588 -1.40671 0
M  V30 16500 C 1612.41 -0.175319 -1.94813 0
M  V30 16501 C 1612.79 1.31792 -1.64906 0
M  V30 16502 O 1612.13 2.07167 -0.964058 0
M  V30 16503 C 1612.34 -0.482691 -3.45646 0
M  V30 16504 C 1613.69 -0.418619 -4.22531 0
M  V30 16505 O 1614.72 -0.418463 -3.53733 0
M  V30 16506 O 1613.58 -0.391787 -5.45094 0
M  V30 16507 H 1610.67 -0.0237744 -0.826658 0
M  V30 16508 H 1613.22 -0.787778 -1.50307 0
M  V30 16509 H 1611.99 -1.51569 -3.60753 0
M  V30 16510 H 1611.61 0.159984 -3.97278 0
M  V30 16511 N 1612.61 1.50847 -0.456408 0
M  V30 16512 C 1613.85 2.04143 0.102549 0
M  V30 16513 C 1614.21 1.33189 1.38292 0
M  V30 16514 O 1615.41 1.7696 2.02333 0
M  V30 16515 C 1613.68 3.56164 0.296985 0
M  V30 16516 S 1615.24 4.31134 0.816609 0
M  V30 16517 H 1612.06 0.710632 0.0228845 0
M  V30 16518 H 1614.66 1.85402 -0.620186 0
M  V30 16519 H 1613.37 4.05365 -0.640906 0
M  V30 16520 H 1612.9 3.79232 1.04626 0
M  V30 16521 H 1614.91 4.49949 2.0919 0
M  V30 16522 N 1614.09 0.188454 1.56469 0
M  V30 16523 C 1615.33 -0.452728 1.97682 0
M  V30 16524 C 1615.66 -1.61729 1.07506 0
M  V30 16525 O 1614.94 -1.94094 0.125677 0
M  V30 16526 C 1615.22 -0.919257 3.48169 0
M  V30 16527 C 1615.08 0.246656 4.49123 0
M  V30 16528 C 1616.39 -1.78706 4.02184 0
M  V30 16529 H 1613.51 -0.16309 0.718729 0
M  V30 16530 H 1616.16 0.27804 1.87955 0
M  V30 16531 H 1614.31 -1.54195 3.5659 0
M  V30 16532 H 1615.98 0.884178 4.52747 0
M  V30 16533 H 1614.22 0.89948 4.24372 0
M  V30 16534 H 1614.89 -0.122179 5.51865 0
M  V30 16535 H 1617.37 -1.26196 3.96502 0
M  V30 16536 H 1616.24 -2.08247 5.07863 0
M  V30 16537 H 1616.5 -2.73891 3.47039 0
M  V30 16538 N 1615.56 -1.5737 -0.0851874 0
M  V30 16539 C 1616.84 -1.77624 -0.819094 0
M  V30 16540 C 1617.22 -0.772645 -1.96452 0
M  V30 16541 O 1616.57 0.196912 -2.2765 0
M  V30 16542 C 1616.78 -3.23704 -1.30449 0
M  V30 16543 C 1618.13 -3.87163 -1.74328 0
M  V30 16544 O 1619.15 -3.27513 -1.40048 0
M  V30 16545 O 1618.01 -4.92075 -2.37748 0
M  V30 16546 H 1615.1 -0.728487 -0.391453 0
M  V30 16547 H 1617.65 -1.6957 -0.0663006 0
M  V30 16548 H 1616.42 -3.88292 -0.484277 0
M  V30 16549 H 1616.04 -3.36429 -2.119 0
M  V30 16550 N 1617.04 0.356258 -1.53521 0
M  V30 16551 C 1618.29 1.09573 -1.69818 0
M  V30 16552 C 1618.61 1.89559 -0.457406 0
M  V30 16553 O 1617.88 1.88633 0.528616 0
M  V30 16554 H 1616.46 0.407512 -0.626054 0
M  V30 16555 H 1619.12 0.400612 -1.90738 0
M  V30 16556 H 1618.22 1.7803 -2.56343 0
M  V30 16557 N 1618.52 1.45038 0.616577 0
M  V30 16558 C 1619.74 1.52321 1.40759 0
M  V30 16559 C 1620.17 0.15375 1.87471 0
M  V30 16560 O 1619.53 -0.859908 1.5961 0
M  V30 16561 C 1619.58 2.50464 2.59423 0
M  V30 16562 O 1618.68 2.01623 3.59753 0
M  V30 16563 H 1618.02 0.513808 0.420592 0
M  V30 16564 H 1620.55 1.90309 0.751234 0
M  V30 16565 H 1620.56 2.68977 3.06783 0
M  V30 16566 H 1619.24 3.4993 2.24771 0
M  V30 16567 H 1617.81 1.92945 3.19103 0
M  V30 16568 N 1620 -0.858287 1.32179 0
M  V30 16569 C 1621.27 -1.59548 1.13154 0
M  V30 16570 C 1621.65 -2.0882 -0.309439 0
M  V30 16571 O 1621 -1.87536 -1.30547 0
M  V30 16572 C 1621.21 -2.74443 2.15597 0
M  V30 16573 C 1622.56 -3.44115 2.48737 0
M  V30 16574 O 1623.58 -2.84664 2.14114 0
M  V30 16575 O 1622.44 -4.51389 3.08074 0
M  V30 16576 H 1619.54 -0.702481 0.436405 0
M  V30 16577 H 1622.08 -0.902731 1.43697 0
M  V30 16578 H 1620.86 -2.35533 3.12473 0
M  V30 16579 H 1620.48 -3.51397 1.86028 0
M  V30 16580 N 1621.48 -1.1533 -1.07409 0
M  V30 16581 C 1622.39 -0.863514 -2.1813 0
M  V30 16582 C 1623.4 0.159954 -1.73263 0
M  V30 16583 O 1624.58 -0.0139818 -2.01395 0
M  V30 16584 C 1621.64 -0.356271 -3.44865 0
M  V30 16585 C 1620.7 -1.44356 -4.04302 0
M  V30 16586 C 1619.94 -0.960429 -5.24987 0
M  V30 16587 O 1620.16 0.194227 -5.70069 0
M  V30 16588 O 1619.09 -1.74387 -5.76084 0
M  V30 16589 H 1622.92 -1.78909 -2.45408 0
M  V30 16590 H 1620.5 -0.932362 -1.16736 0
M  V30 16591 H 1622.39 -0.0798183 -4.21324 0
M  V30 16592 H 1621.06 0.541445 -3.1914 0
M  V30 16593 H 1619.97 -1.77361 -3.29384 0
M  V30 16594 H 1621.3 -2.31617 -4.34298 0
M  V30 16595 N 1622.95 1.25748 -0.950004 0
M  V30 16596 C 1623.9 2.23767 -0.43731 0
M  V30 16597 C 1624.89 1.53856 0.47088 0
M  V30 16598 O 1626.08 1.74358 0.304687 0
M  V30 16599 C 1623.21 3.4209 0.288037 0
M  V30 16600 C 1622.29 4.19274 -0.637955 0
M  V30 16601 N 1622.69 4.73909 -1.76759 0
M  V30 16602 C 1620.98 4.43772 -0.445251 0
M  V30 16603 C 1621.68 5.32323 -2.34535 0
M  V30 16604 N 1620.66 5.18511 -1.63239 0
M  V30 16605 H 1624.46 2.6361 -1.29949 0
M  V30 16606 H 1621.98 1.40934 -0.806931 0
M  V30 16607 H 1623.97 4.11441 0.672433 0
M  V30 16608 H 1622.63 3.03771 1.14688 0
M  V30 16609 H 1623.64 4.71184 -2.14955 0
M  V30 16610 H 1620.32 4.15848 0.37109 0
M  V30 16611 H 1621.71 5.85411 -3.29763 0
M  V30 16612 N 1624.43 0.718038 1.40292 0
M  V30 16613 C 1625.38 0.0559466 2.32533 0
M  V30 16614 C 1626.37 -0.744365 1.5217 0
M  V30 16615 O 1627.58 -0.647458 1.67952 0
M  V30 16616 H 1623.95 -0.000710627 0.752 0
M  V30 16617 H 1625.93 0.850579 2.8602 0
M  V30 16618 C 1624.67 -0.849927 3.37152 0
M  V30 16619 H 1624 -0.243507 3.99058 0
M  V30 16620 H 1625.44 -1.28111 4.04183 0
M  V30 16621 C 1623.9 -1.9765 2.7283 0
M  V30 16622 O 1624.43 -3.06757 2.59351 0
M  V30 16623 N 1622.63 -1.76086 2.31176 0
M  V30 16624 H 1622.18 -0.873485 2.42339 0
M  V30 16625 H 1622.14 -2.51643 1.88477 0
M  V30 16626 N 1625.91 -1.50602 0.464402 0
M  V30 16627 C 1627.15 -2.04194 -0.0917216 0
M  V30 16628 C 1627.51 -1.33921 -1.37584 0
M  V30 16629 O 1628.72 -1.78031 -2.01391 0
M  V30 16630 C 1626.99 -3.56316 -0.278093 0
M  V30 16631 S 1628.55 -4.31561 -0.793734 0
M  V30 16632 H 1625.36 -0.710743 -0.0191155 0
M  V30 16633 H 1627.97 -1.85071 0.63001 0
M  V30 16634 H 1626.67 -4.05019 0.662395 0
M  V30 16635 H 1626.2 -3.79782 -1.02613 0
M  V30 16636 H 1628.22 -4.51052 -2.06801 0
M  V30 16637 N 1627.39 -0.19675 -1.56367 0
M  V30 16638 C 1628.8 0.315555 -1.84014 0
M  V30 16639 C 1629.15 1.61267 -1.11747 0
M  V30 16640 O 1628.28 2.13058 -0.378824 0
M  V30 16641 C 1628.87 0.579307 -3.33811 0
M  V30 16642 C 1627.43 1.03598 -3.61862 0
M  V30 16643 C 1626.58 0.0854845 -2.77168 0
M  V30 16644 H 1629.53 -0.4205 -1.53028 0
M  V30 16645 H 1629.55 1.42841 -3.52671 0
M  V30 16646 H 1629.06 -0.364925 -3.86381 0
M  V30 16647 H 1627.16 1.99443 -3.14727 0
M  V30 16648 H 1627.27 0.927547 -4.70035 0
M  V30 16649 H 1625.64 0.58768 -2.47827 0
M  V30 16650 H 1626.42 -0.853221 -3.32528 0
M  V30 16651 N 1628.87 1.57413 0.0768405 0
M  V30 16652 C 1630.09 1.91224 0.790007 0
M  V30 16653 C 1630.51 0.792232 1.71374 0
M  V30 16654 O 1629.87 -0.234736 1.80984 0
M  V30 16655 C 1629.92 3.24757 1.58793 0
M  V30 16656 O 1629.64 4.3245 0.701329 0
M  V30 16657 C 1631.14 3.72549 2.40254 0
M  V30 16658 H 1628.36 0.63219 0.224893 0
M  V30 16659 H 1630.9 2.04442 0.0486173 0
M  V30 16660 H 1629.06 3.13081 2.28165 0
M  V30 16661 H 1629.47 5.09245 1.2558 0
M  V30 16662 H 1630.95 4.68628 2.91705 0
M  V30 16663 H 1631.42 3.01305 3.1955 0
M  V30 16664 H 1632.03 3.87153 1.76048 0
M  V30 16665 N 1630.34 -0.348112 1.53707 0
M  V30 16666 C 1631.29 -1.42782 1.77756 0
M  V30 16667 C 1632.28 -1.47942 0.63261 0
M  V30 16668 O 1633.47 -1.52889 0.891855 0
M  V30 16669 C 1630.6 -2.79986 1.98652 0
M  V30 16670 C 1629.69 -2.79237 3.19199 0
M  V30 16671 N 1630.08 -2.4812 4.40761 0
M  V30 16672 C 1628.37 -3.10387 3.20275 0
M  V30 16673 C 1629.08 -2.55489 5.2259 0
M  V30 16674 N 1628.05 -2.90923 4.592 0
M  V30 16675 H 1631.85 -1.17615 2.6934 0
M  V30 16676 H 1629.37 -0.556438 1.5257 0
M  V30 16677 H 1631.36 -3.57777 2.14013 0
M  V30 16678 H 1630.02 -3.06104 1.08307 0
M  V30 16679 H 1631.04 -2.214 4.68191 0
M  V30 16680 H 1627.71 -3.41706 2.39882 0
M  V30 16681 H 1629.1 -2.34629 6.29602 0
M  V30 16682 N 1631.82 -1.45363 -0.608876 0
M  V30 16683 C 1632.79 -1.53551 -1.70161 0
M  V30 16684 C 1633.79 -0.415146 -1.55349 0
M  V30 16685 O 1634.98 -0.67858 -1.6044 0
M  V30 16686 C 1632.11 -1.43081 -3.0942 0
M  V30 16687 H 1633.3 -2.5091 -1.64268 0
M  V30 16688 H 1630.85 -1.32785 -0.824493 0
M  V30 16689 H 1631.59 -0.469016 -3.20891 0
M  V30 16690 H 1631.37 -2.24343 -3.21579 0
M  V30 16691 H 1632.86 -1.51841 -3.89017 0
M  V30 16692 N 1633.3 0.851265 -1.32632 0
M  V30 16693 C 1634.71 1.4217 -1.21015 0
M  V30 16694 C 1635.06 1.95409 0.175972 0
M  V30 16695 O 1634.19 1.87816 1.07489 0
M  V30 16696 C 1634.78 2.58431 -2.19086 0
M  V30 16697 C 1633.34 3.11464 -2.11346 0
M  V30 16698 C 1632.49 1.84221 -2.07263 0
M  V30 16699 H 1635.44 0.65812 -1.44411 0
M  V30 16700 H 1635.46 3.35694 -1.79137 0
M  V30 16701 H 1634.97 2.19652 -3.1996 0
M  V30 16702 H 1633.07 3.54818 -1.13732 0
M  V30 16703 H 1633.19 3.72478 -3.01325 0
M  V30 16704 H 1631.55 2.0396 -1.52553 0
M  V30 16705 H 1632.33 1.47654 -3.09924 0
M  V30 16706 N 1634.78 1.15898 1.06796 0
M  V30 16707 C 1635.74 0.863427 2.12315 0
M  V30 16708 C 1636.74 -0.139326 1.60195 0
M  V30 16709 O 1637.93 0.0909705 1.73962 0
M  V30 16710 C 1635.06 0.290251 3.39662 0
M  V30 16711 H 1636.26 1.79879 2.39966 0
M  V30 16712 H 1633.81 0.967223 1.22778 0
M  V30 16713 H 1634.54 -0.653037 3.17657 0
M  V30 16714 H 1634.33 1.01273 3.78796 0
M  V30 16715 H 1635.82 0.10124 4.17477 0
M  V30 16716 N 1636.26 -1.25243 0.956659 0
M  V30 16717 C 1637.48 -1.97621 0.629337 0
M  V30 16718 C 1637.91 -1.70606 -0.792158 0
M  V30 16719 O 1637.26 -0.963192 -1.53598 0
M  V30 16720 C 1637.31 -3.49273 0.896687 0
M  V30 16721 O 1636.42 -4.12393 -0.0234986 0
M  V30 16722 H 1635.76 -0.619472 0.239061 0
M  V30 16723 H 1638.29 -1.5931 1.28381 0
M  V30 16724 H 1638.3 -3.99597 0.82377 0
M  V30 16725 H 1636.97 -3.68265 1.93271 0
M  V30 16726 H 1635.55 -3.72761 0.101796 0
M  V30 16727 N 1637.73 -0.725468 -1.3991 0
M  V30 16728 C 1638.97 -0.273803 -2.02558 0
M  V30 16729 C 1639.34 1.11503 -1.56305 0
M  V30 16730 O 1640.54 1.66424 -2.11084 0
M  V30 16731 C 1638.81 -0.361635 -3.55566 0
M  V30 16732 S 1640.37 0.0115918 -4.38798 0
M  V30 16733 H 1637.19 -0.107908 -0.702764 0
M  V30 16734 H 1639.79 -0.949876 -1.70873 0
M  V30 16735 H 1638.49 -1.37389 -3.8672 0
M  V30 16736 H 1638.02 0.332583 -3.91992 0
M  V30 16737 H 1640.04 1.2307 -4.80695 0
M  V30 16738 N 1639.21 1.50354 -0.472382 0
M  V30 16739 C 1640.14 2.3142 0.310995 0
M  V30 16740 C 1641.12 1.38383 0.989151 0
M  V30 16741 O 1642.31 1.67303 0.986074 0
M  V30 16742 C 1639.44 3.18157 1.3926 0
M  V30 16743 C 1638.39 4.19756 0.835977 0
M  V30 16744 C 1637.72 4.9524 2.01597 0
M  V30 16745 C 1639.02 5.22074 -0.15361 0
M  V30 16746 H 1640.71 2.97159 -0.365595 0
M  V30 16747 H 1638.26 1.42905 -0.177266 0
M  V30 16748 H 1640.21 3.73666 1.94813 0
M  V30 16749 H 1638.94 2.50305 2.09798 0
M  V30 16750 H 1637.59 3.65351 0.302414 0
M  V30 16751 H 1637.24 4.2386 2.70836 0
M  V30 16752 H 1636.94 5.63966 1.64974 0
M  V30 16753 H 1638.47 5.53584 2.57637 0
M  V30 16754 H 1639.88 5.72446 0.312783 0
M  V30 16755 H 1638.28 5.98527 -0.43418 0
M  V30 16756 H 1639.35 4.72741 -1.07908 0
M  V30 16757 N 1640.69 0.205039 1.56261 0
M  V30 16758 C 1641.97 -0.479238 1.89638 0
M  V30 16759 C 1642.35 -1.78938 1.12002 0
M  V30 16760 O 1641.7 -2.27398 0.224179 0
M  V30 16761 C 1641.91 -0.688324 3.42145 0
M  V30 16762 C 1643.25 -1.00322 4.12578 0
M  V30 16763 O 1644.28 -0.775697 3.47651 0
M  V30 16764 O 1643.14 -1.43412 5.27347 0
M  V30 16765 H 1640.23 -0.251125 0.78795 0
M  V30 16766 H 1642.78 0.245994 1.67908 0
M  V30 16767 H 1641.55 0.236479 3.90585 0
M  V30 16768 H 1641.17 -1.46565 3.696 0
M  V30 16769 N 1642.17 -1.57451 -0.0684915 0
M  V30 16770 C 1643.4 -1.9164 -0.779855 0
M  V30 16771 C 1643.81 -0.801309 -1.70952 0
M  V30 16772 O 1643.17 0.225134 -1.81106 0
M  V30 16773 C 1643.22 -3.25594 -1.57068 0
M  V30 16774 O 1642.94 -4.32816 -0.678385 0
M  V30 16775 C 1644.44 -3.73818 -2.38275 0
M  V30 16776 H 1641.66 -0.633374 -0.221537 0
M  V30 16777 H 1644.21 -2.04465 -0.0377746 0
M  V30 16778 H 1642.36 -3.14287 -2.26501 0
M  V30 16779 H 1642.78 -5.09903 -1.22877 0
M  V30 16780 H 1644.25 -4.70168 -2.89216 0
M  V30 16781 H 1644.73 -3.02995 -3.17947 0
M  V30 16782 H 1645.33 -3.88081 -1.73992 0
M  V30 16783 N 1643.65 0.339955 -1.5389 0
M  V30 16784 C 1644.58 1.43837 -1.78448 0
M  V30 16785 C 1645.59 1.48559 -0.665885 0
M  V30 16786 O 1646.78 1.51577 -0.942686 0
M  V30 16787 C 1643.88 2.82474 -1.87248 0
M  V30 16788 C 1643.05 3.01149 -3.17219 0
M  V30 16789 C 1642.11 4.20049 -3.16931 0
M  V30 16790 O 1641.14 4.13994 -3.90638 0
M  V30 16791 N 1642.34 5.28767 -2.39553 0
M  V30 16792 H 1645.11 1.2314 -2.73234 0
M  V30 16793 H 1642.67 0.529855 -1.52984 0
M  V30 16794 H 1644.66 3.60196 -1.84502 0
M  V30 16795 H 1643.23 2.96297 -0.996322 0
M  V30 16796 H 1642.45 2.10867 -3.3306 0
M  V30 16797 H 1643.74 3.10511 -4.03063 0
M  V30 16798 H 1643.14 5.36557 -1.79228 0
M  V30 16799 H 1641.69 6.04969 -2.42601 0
M  V30 16800 N 1645.13 1.45684 0.601159 0
M  V30 16801 C 1646.36 1.53351 1.38445 0
M  V30 16802 C 1646.76 0.167103 1.88461 0
M  V30 16803 O 1646.11 -0.842684 1.63231 0
M  V30 16804 C 1646.17 2.46214 2.61952 0
M  V30 16805 C 1645.83 3.92826 2.33532 0
M  V30 16806 C 1646.83 4.8255 1.93498 0
M  V30 16807 C 1644.51 4.378 2.46245 0
M  V30 16808 C 1646.51 6.15257 1.66547 0
M  V30 16809 C 1644.2 5.70546 2.18908 0
M  V30 16810 C 1645.19 6.59094 1.79121 0
M  V30 16811 O 1644.88 7.89378 1.52108 0
M  V30 16812 H 1644.61 0.521638 0.429965 0
M  V30 16813 H 1647.17 1.91622 0.739617 0
M  V30 16814 H 1645.4 2.02926 3.29178 0
M  V30 16815 H 1647.09 2.44492 3.24004 0
M  V30 16816 H 1647.85 4.49066 1.83207 0
M  V30 16817 H 1643.73 3.69115 2.76179 0
M  V30 16818 H 1647.28 6.8433 1.35418 0
M  V30 16819 H 1643.17 6.03583 2.28818 0
M  V30 16820 H 1643.94 8.01468 1.66107 0
M  V30 16821 N 1646.6 -0.84422 1.33082 0
M  V30 16822 C 1647.83 -1.63133 1.27261 0
M  V30 16823 C 1648.25 -1.88142 -0.157479 0
M  V30 16824 O 1647.6 -1.4578 -1.09793 0
M  V30 16825 C 1647.65 -2.98462 2.03967 0
M  V30 16826 O 1647.38 -2.74555 3.41396 0
M  V30 16827 C 1648.88 -3.92899 2.05293 0
M  V30 16828 H 1646.1 -0.507769 0.438647 0
M  V30 16829 H 1648.64 -1.05194 1.75369 0
M  V30 16830 H 1646.8 -3.53017 1.59554 0
M  V30 16831 H 1647.21 -3.60694 3.80789 0
M  V30 16832 H 1648.68 -4.85088 2.63427 0
M  V30 16833 H 1649.16 -4.26665 1.04183 0
M  V30 16834 H 1649.77 -3.44281 2.49701 0
M  V30 16835 N 1648.08 -1.16463 -1.0618 0
M  V30 16836 C 1649.32 -0.957536 -1.80584 0
M  V30 16837 C 1649.69 0.505554 -1.85225 0
M  V30 16838 O 1650.89 0.831384 -2.5562 0
M  V30 16839 C 1649.16 -1.56919 -3.21109 0
M  V30 16840 S 1650.72 -1.5069 -4.12114 0
M  V30 16841 H 1647.53 -0.344329 -0.62206 0
M  V30 16842 H 1650.14 -1.48228 -1.2747 0
M  V30 16843 H 1648.84 -2.62672 -3.15328 0
M  V30 16844 H 1648.37 -1.04382 -3.79299 0
M  V30 16845 H 1650.39 -0.507956 -4.93593 0
M  V30 16846 N 1649.56 1.24734 -0.963288 0
M  V30 16847 C 1650.84 1.88004 -0.539809 0
M  V30 16848 C 1651.22 1.86814 0.983035 0
M  V30 16849 O 1650.56 1.33769 1.85251 0
M  V30 16850 C 1650.77 3.30326 -1.1263 0
M  V30 16851 C 1652.12 4.07039 -1.20848 0
M  V30 16852 O 1653.15 3.3948 -1.07849 0
M  V30 16853 O 1652.01 5.27906 -1.41342 0
M  V30 16854 H 1649.1 0.807318 -0.17935 0
M  V30 16855 H 1651.65 1.3274 -1.05727 0
M  V30 16856 H 1650.42 3.25668 -2.16925 0
M  V30 16857 H 1650.04 3.93159 -0.592614 0
M  V30 16858 N 1651.04 0.732878 1.39523 0
M  V30 16859 C 1651.99 0.0806066 2.3246 0
M  V30 16860 C 1652.98 -0.728184 1.5295 0
M  V30 16861 O 1654.19 -0.629608 1.6863 0
M  V30 16862 H 1650.56 0.00726537 0.751965 0
M  V30 16863 H 1652.53 0.880867 2.85102 0
M  V30 16864 C 1651.28 -0.81412 3.38035 0
M  V30 16865 H 1650.6 -0.201168 3.99294 0
M  V30 16866 H 1652.04 -1.23817 4.05519 0
M  V30 16867 C 1650.5 -1.94745 2.74911 0
M  V30 16868 O 1651.03 -3.03989 2.6259 0
M  V30 16869 N 1649.24 -1.73624 2.3303 0
M  V30 16870 H 1648.79 -0.847733 2.43251 0
M  V30 16871 H 1648.74 -2.49629 1.91135 0
M  V30 16872 N 1652.52 -1.50101 0.480349 0
M  V30 16873 C 1653.47 -2.25631 -0.327823 0
M  V30 16874 C 1654.45 -1.29605 -0.953492 0
M  V30 16875 O 1655.64 -1.54451 -0.86451 0
M  V30 16876 C 1652.77 -3.13284 -1.40386 0
M  V30 16877 C 1651.86 -4.16763 -0.785461 0
M  V30 16878 N 1652.25 -5.05702 0.0997266 0
M  V30 16879 C 1650.55 -4.33503 -1.04838 0
M  V30 16880 C 1651.25 -5.79944 0.45163 0
M  V30 16881 N 1650.22 -5.43317 -0.175455 0
M  V30 16882 H 1654.02 -2.91761 0.353929 0
M  V30 16883 H 1651.54 -1.59697 0.295085 0
M  V30 16884 H 1653.54 -3.66008 -1.9961 0
M  V30 16885 H 1652.2 -2.48703 -2.08751 0
M  V30 16886 H 1653.21 -5.1577 0.469184 0
M  V30 16887 H 1649.88 -3.80138 -1.72631 0
M  V30 16888 H 1651.27 -6.61554 1.17458 0
M  V30 16889 N 1653.99 -0.213323 -1.5615 0
M  V30 16890 C 1654.93 0.732346 -2.17185 0
M  V30 16891 C 1655.94 1.16357 -1.13864 0
M  V30 16892 O 1657.13 1.09614 -1.40879 0
M  V30 16893 C 1654.23 2.0027 -2.73395 0
M  V30 16894 C 1653.4 1.72836 -4.01804 0
M  V30 16895 C 1652.46 2.84497 -4.4266 0
M  V30 16896 O 1651.49 2.5332 -5.09723 0
M  V30 16897 N 1652.69 4.13268 -4.07663 0
M  V30 16898 H 1655.45 0.210294 -2.98961 0
M  V30 16899 H 1653.01 -0.0320124 -1.61868 0
M  V30 16900 H 1655.01 2.74145 -2.97702 0
M  V30 16901 H 1653.58 2.43546 -1.9597 0
M  V30 16902 H 1652.8 0.826474 -3.85439 0
M  V30 16903 H 1654.08 1.51928 -4.85588 0
M  V30 16904 H 1653.48 4.41444 -3.53756 0
M  V30 16905 H 1652.04 4.83713 -4.36881 0
M  V30 16906 N 1655.47 1.57485 0.0601405 0
M  V30 16907 C 1656.71 1.89654 0.762278 0
M  V30 16908 C 1657.08 0.808458 1.74149 0
M  V30 16909 O 1658.28 1.01355 2.48959 0
M  V30 16910 C 1656.55 3.27038 1.44156 0
M  V30 16911 S 1658.11 3.8098 2.17715 0
M  V30 16912 H 1654.93 0.664373 0.253239 0
M  V30 16913 H 1657.53 1.95492 0.0179261 0
M  V30 16914 H 1656.23 4.0412 0.715225 0
M  V30 16915 H 1655.76 3.24427 2.2251 0
M  V30 16916 H 1657.78 3.57204 3.44413 0
M  V30 16917 N 1656.95 -0.331789 1.54068 0
M  V30 16918 C 1658.2 -1.06818 1.71093 0
M  V30 16919 C 1658.51 -1.89438 0.487111 0
M  V30 16920 O 1659.72 -2.66105 0.538544 0
M  V30 16921 C 1658.17 -1.94853 3.02589 0
M  V30 16922 C 1657.78 -1.17384 4.32348 0
M  V30 16923 C 1659.53 -2.68278 3.28979 0
M  V30 16924 C 1657.43 -2.04518 5.54911 0
M  V30 16925 H 1656.36 -0.402501 0.63758 0
M  V30 16926 H 1659.01 -0.326918 1.80564 0
M  V30 16927 H 1657.4 -2.72845 2.87004 0
M  V30 16928 H 1658.57 -0.442208 4.58673 0
M  V30 16929 H 1656.89 -0.556775 4.12661 0
M  V30 16930 H 1659.48 -3.33762 4.1774 0
M  V30 16931 H 1659.83 -3.35476 2.46498 0
M  V30 16932 H 1660.36 -1.97353 3.45394 0
M  V30 16933 H 1657.1 -1.41842 6.3997 0
M  V30 16934 H 1656.62 -2.75438 5.32817 0
M  V30 16935 H 1658.3 -2.63297 5.91002 0
M  V30 16936 N 1658.43 -1.46001 -0.593424 0
M  V30 16937 C 1659.65 -1.54541 -1.38318 0
M  V30 16938 C 1660.08 -0.183555 -1.87202 0
M  V30 16939 O 1659.44 0.834407 -1.60958 0
M  V30 16940 C 1659.48 -2.54559 -2.55405 0
M  V30 16941 O 1658.59 -2.07321 -3.56499 0
M  V30 16942 H 1657.93 -0.520434 -0.412364 0
M  V30 16943 H 1660.46 -1.9148 -0.720862 0
M  V30 16944 H 1660.47 -2.73823 -3.02465 0
M  V30 16945 H 1659.14 -3.53461 -2.19176 0
M  V30 16946 H 1657.72 -1.97997 -3.15993 0
M  V30 16947 N 1659.91 0.83715 -1.33527 0
M  V30 16948 C 1660.85 1.94709 -1.23924 0
M  V30 16949 C 1661.82 1.65684 -0.117494 0
M  V30 16950 O 1663.01 1.88489 -0.296057 0
M  V30 16951 C 1660.15 3.3071 -0.986146 0
M  V30 16952 C 1659.26 3.72121 -2.19432 0
M  V30 16953 C 1658.4 4.96999 -1.87524 0
M  V30 16954 C 1657.44 5.3095 -3.04563 0
M  V30 16955 N 1656.57 6.47006 -2.72632 0
M  V30 16956 H 1661.41 2.02255 -2.18854 0
M  V30 16957 H 1658.95 0.989703 -1.08827 0
M  V30 16958 H 1660.91 4.09065 -0.819834 0
M  V30 16959 H 1659.54 3.22716 -0.0735786 0
M  V30 16960 H 1658.59 2.89274 -2.47032 0
M  V30 16961 H 1659.9 3.93192 -3.06923 0
M  V30 16962 H 1659.06 5.83107 -1.67546 0
M  V30 16963 H 1657.79 4.77901 -0.972714 0
M  V30 16964 H 1656.8 4.43346 -3.25153 0
M  V30 16965 H 1658.02 5.51995 -3.95573 0
M  V30 16966 H 1655.97 6.29391 -1.8494 0
M  V30 16967 H 1655.89 6.6818 -3.53654 0
M  V30 16968 H 1657.16 7.3622 -2.56125 0
M  V30 16969 N 1661.38 1.17024 1.05561 0
M  V30 16970 C 1662.33 0.879696 2.15323 0
M  V30 16971 C 1663.33 -0.154191 1.68697 0
M  V30 16972 O 1664.53 -0.00746608 1.79998 0
M  V30 16973 H 1660.91 0.266916 0.703036 0
M  V30 16974 H 1662.88 1.81264 2.37035 0
M  V30 16975 C 1661.63 0.405371 3.45329 0
M  V30 16976 H 1660.95 1.19238 3.81605 0
M  V30 16977 H 1662.39 0.240923 4.23315 0
M  V30 16978 C 1660.85 -0.876349 3.25303 0
M  V30 16979 O 1661.38 -1.94397 3.51529 0
M  V30 16980 N 1659.59 -0.823031 2.78702 0
M  V30 16981 H 1659.13 0.0459847 2.57559 0
M  V30 16982 H 1659.09 -1.68108 2.65682 0
M  V30 16983 N 1662.86 -1.24221 0.969889 0
M  V30 16984 C 1664.11 -1.92952 0.643512 0
M  V30 16985 C 1664.46 -1.74393 -0.812698 0
M  V30 16986 O 1663.76 -1.08771 -1.57732 0
M  V30 16987 C 1663.95 -3.44365 0.956427 0
M  V30 16988 C 1663.78 -3.77651 2.4415 0
M  V30 16989 C 1662.55 -3.98901 3.1017 0
M  V30 16990 C 1664.75 -3.8396 3.42169 0
M  V30 16991 N 1662.73 -4.19305 4.48393 0
M  V30 16992 C 1664.1 -4.09232 4.65756 0
M  V30 16993 C 1666.16 -3.66705 3.36796 0
M  V30 16994 C 1664.86 -4.19043 5.84633 0
M  V30 16995 C 1666.88 -3.77764 4.55026 0
M  V30 16996 C 1666.25 -4.03463 5.77405 0
M  V30 16997 H 1662.35 -0.727683 0.286359 0
M  V30 16998 H 1664.93 -1.49676 1.2452 0
M  V30 16999 H 1663.1 -3.86502 0.383535 0
M  V30 17000 H 1664.83 -4.004 0.588399 0
M  V30 17001 H 1661.59 -3.95392 2.60695 0
M  V30 17002 H 1662.01 -4.33483 5.20021 0
M  V30 17003 H 1666.65 -3.45841 2.43215 0
M  V30 17004 H 1664.37 -4.38718 6.7864 0
M  V30 17005 H 1667.96 -3.65781 4.52433 0
M  V30 17006 H 1666.84 -4.1182 6.67363 0
M  V30 17007 N 1664.34 -0.740267 -1.39132 0
M  V30 17008 C 1665.59 -0.290953 -2.00702 0
M  V30 17009 C 1665.92 1.12051 -1.58613 0
M  V30 17010 O 1665.19 1.76488 -0.817457 0
M  V30 17011 C 1665.48 -0.398765 -3.57885 0
M  V30 17012 C 1665.33 -1.85038 -4.09977 0
M  V30 17013 C 1666.65 0.215717 -4.39571 0
M  V30 17014 H 1663.77 -0.107194 -0.729163 0
M  V30 17015 H 1666.41 -0.937411 -1.65265 0
M  V30 17016 H 1664.56 0.151613 -3.88204 0
M  V30 17017 H 1666.23 -2.45804 -3.90357 0
M  V30 17018 H 1664.48 -2.36994 -3.63341 0
M  V30 17019 H 1665.15 -1.87705 -5.19106 0
M  V30 17020 H 1667.62 -0.253518 -4.15327 0
M  V30 17021 H 1666.5 0.109966 -5.4879 0
M  V30 17022 H 1666.76 1.30242 -4.2248 0
M  V30 17023 N 1665.82 1.49844 -0.488302 0
M  V30 17024 C 1667.06 2.04314 0.0592245 0
M  V30 17025 C 1667.42 1.36093 1.35436 0
M  V30 17026 O 1668.62 1.81212 1.98533 0
M  V30 17027 C 1666.89 3.56714 0.221371 0
M  V30 17028 S 1668.45 4.3277 0.724976 0
M  V30 17029 H 1665.27 0.710957 0.00780581 0
M  V30 17030 H 1667.87 1.84045 -0.659373 0
M  V30 17031 H 1666.58 4.03914 -0.726746 0
M  V30 17032 H 1666.11 3.81366 0.965581 0
M  V30 17033 H 1668.12 4.54285 1.99599 0
M  V30 17034 N 1667.3 0.221601 1.56034 0
M  V30 17035 C 1668.57 -0.459097 1.90136 0
M  V30 17036 C 1668.95 -1.7774 1.13894 0
M  V30 17037 O 1668.3 -2.27147 0.248285 0
M  V30 17038 C 1668.51 -0.651996 3.42856 0
M  V30 17039 C 1669.86 -0.959402 4.13619 0
M  V30 17040 O 1670.88 -0.73878 3.48454 0
M  V30 17041 O 1669.74 -1.37811 5.28839 0
M  V30 17042 H 1666.84 -0.242753 0.790569 0
M  V30 17043 H 1669.38 0.263789 1.67637 0
M  V30 17044 H 1668.15 0.277892 3.90312 0
M  V30 17045 H 1667.78 -1.42637 3.71134 0
M  V30 17046 N 1668.77 -1.57515 -0.0517878 0
M  V30 17047 C 1670 -1.92456 -0.759485 0
M  V30 17048 C 1670.42 -0.819396 -1.70092 0
M  V30 17049 O 1669.77 0.205913 -1.81335 0
M  V30 17050 C 1669.83 -3.27242 -1.53606 0
M  V30 17051 O 1669.55 -4.33511 -0.632441 0
M  V30 17052 C 1671.05 -3.76324 -2.34297 0
M  V30 17053 H 1668.27 -0.635688 -0.214807 0
M  V30 17054 H 1670.81 -2.04494 -0.0160862 0
M  V30 17055 H 1668.97 -3.16671 -2.23155 0
M  V30 17056 H 1669.38 -5.11178 -1.17462 0
M  V30 17057 H 1670.85 -4.73209 -2.84213 0
M  V30 17058 H 1671.33 -3.06351 -3.14716 0
M  V30 17059 H 1671.94 -3.89904 -1.69866 0
M  V30 17060 N 1670.25 0.323614 -1.54242 0
M  V30 17061 C 1671.53 1.07979 -1.63095 0
M  V30 17062 C 1671.91 2.0592 -0.464774 0
M  V30 17063 O 1671.26 2.22004 0.540961 0
M  V30 17064 C 1671.47 1.78178 -3.0009 0
M  V30 17065 C 1672.82 2.31201 -3.56134 0
M  V30 17066 O 1673.84 1.88245 -3.02394 0
M  V30 17067 O 1672.7 3.09843 -4.50177 0
M  V30 17068 H 1669.79 0.497726 -0.660453 0
M  V30 17069 H 1672.34 0.323509 -1.66588 0
M  V30 17070 H 1671.11 1.06938 -3.76404 0
M  V30 17071 H 1670.73 2.60616 -3.00275 0
M  V30 17072 N 1671.73 1.46313 0.585673 0
M  V30 17073 C 1672.68 1.57018 1.71604 0
M  V30 17074 C 1673.67 0.438838 1.63617 0
M  V30 17075 O 1674.88 0.615597 1.69146 0
M  V30 17076 H 1671.25 0.493616 0.567316 0
M  V30 17077 H 1673.23 2.52065 1.59706 0
M  V30 17078 C 1671.97 1.57482 3.09992 0
M  V30 17079 H 1671.3 2.43872 3.16806 0
M  V30 17080 H 1672.74 1.69027 3.88852 0
M  V30 17081 C 1671.2 0.302944 3.35535 0
M  V30 17082 O 1671.73 -0.608066 3.97071 0
M  V30 17083 N 1669.93 0.191781 2.89966 0
M  V30 17084 H 1669.48 0.934025 2.4007 0
M  V30 17085 H 1669.44 -0.658341 3.0743 0
M  V30 17086 N 1673.21 -0.830057 1.33969 0
M  V30 17087 C 1674.49 -1.57112 1.16513 0
M  V30 17088 C 1674.87 -2.09429 -0.265075 0
M  V30 17089 O 1674.21 -1.90263 -1.26539 0
M  V30 17090 C 1674.42 -2.69808 2.2137 0
M  V30 17091 C 1675.77 -3.38761 2.55981 0
M  V30 17092 O 1676.8 -2.80058 2.20104 0
M  V30 17093 O 1675.66 -4.44753 3.1758 0
M  V30 17094 H 1672.75 -0.693066 0.451207 0
M  V30 17095 H 1675.3 -0.872048 1.4558 0
M  V30 17096 H 1674.07 -2.28852 3.17399 0
M  V30 17097 H 1673.69 -3.47372 1.93439 0
M  V30 17098 N 1674.69 -1.17582 -1.04939 0
M  V30 17099 C 1675.93 -0.976635 -1.79558 0
M  V30 17100 C 1676.29 0.48588 -1.8575 0
M  V30 17101 O 1677.49 0.804225 -2.56487 0
M  V30 17102 C 1675.76 -1.60316 -3.19427 0
M  V30 17103 S 1677.32 -1.55052 -4.10493 0
M  V30 17104 H 1674.14 -0.350907 -0.618373 0
M  V30 17105 H 1676.74 -1.49572 -1.25891 0
M  V30 17106 H 1675.45 -2.66002 -3.12524 0
M  V30 17107 H 1674.98 -1.08399 -3.78171 0
M  V30 17108 H 1676.99 -0.56028 -4.93027 0
M  V30 17109 N 1676.17 1.23705 -0.976463 0
M  V30 17110 C 1677.41 1.91635 -0.641897 0
M  V30 17111 C 1677.73 1.7661 0.826678 0
M  V30 17112 O 1677 1.14304 1.59096 0
M  V30 17113 H 1675.58 0.709264 -0.234422 0
M  V30 17114 H 1678.25 1.50414 -1.23943 0
M  V30 17115 H 1677.34 2.99138 -0.890099 0
M  V30 17116 N 1677.64 0.747635 1.38738 0
M  V30 17117 C 1678.92 0.226908 1.94279 0
M  V30 17118 C 1679.3 -1.27373 1.68343 0
M  V30 17119 O 1678.65 -2.04538 1.01865 0
M  V30 17120 C 1678.86 0.574164 3.44245 0
M  V30 17121 C 1680.21 0.530498 4.21273 0
M  V30 17122 O 1681.23 0.512102 3.525 0
M  V30 17123 O 1680.09 0.536171 5.43863 0
M  V30 17124 H 1677.18 0.0456834 0.825737 0
M  V30 17125 H 1679.73 0.827353 1.48165 0
M  V30 17126 H 1678.5 1.6108 3.56607 0
M  V30 17127 H 1678.12 -0.0545964 3.97563 0
M  V30 17128 N 1679.12 -1.49583 0.496242 0
M  V30 17129 C 1680.37 -2.02038 -0.0498643 0
M  V30 17130 C 1680.69 -1.37848 -1.37924 0
M  V30 17131 O 1679.96 -0.532188 -1.88533 0
M  V30 17132 H 1678.54 -0.746693 -0.0214177 0
M  V30 17133 H 1681.2 -1.83657 0.652399 0
M  V30 17134 H 1680.3 -3.11563 -0.183021 0
M  V30 17135 N 1680.6 -0.229873 -1.55915 0
M  V30 17136 C 1681.82 0.4072 -2.03363 0
M  V30 17137 C 1682.25 1.5197 -1.10845 0
M  V30 17138 O 1681.61 1.81034 -0.098175 0
M  V30 17139 C 1681.66 0.908268 -3.48974 0
M  V30 17140 O 1680.76 2.01907 -3.59593 0
M  V30 17141 H 1680.1 0.091091 -0.657722 0
M  V30 17142 H 1682.63 -0.350947 -2.01568 0
M  V30 17143 H 1682.64 1.21593 -3.8946 0
M  V30 17144 H 1681.32 0.0940655 -4.15794 0
M  V30 17145 H 1679.89 1.71741 -3.30998 0
M  V30 17146 N 1682.08 1.5754 0.0434337 0
M  V30 17147 C 1683.35 1.79733 0.771713 0
M  V30 17148 C 1683.73 0.82446 1.94334 0
M  V30 17149 O 1683.08 -0.136485 2.28092 0
M  V30 17150 C 1683.29 3.27049 1.2182 0
M  V30 17151 C 1684.64 3.91648 1.64002 0
M  V30 17152 O 1685.66 3.31111 1.31315 0
M  V30 17153 O 1684.52 4.98206 2.24618 0
M  V30 17154 H 1681.62 0.73861 0.372001 0
M  V30 17155 H 1684.16 1.69687 0.0213187 0
M  V30 17156 H 1682.94 3.89439 0.381158 0
M  V30 17157 H 1682.56 3.41929 2.02905 0
M  V30 17158 N 1683.56 -0.31543 1.54411 0
M  V30 17159 C 1684.47 -1.41136 1.87397 0
M  V30 17160 C 1685.48 -1.56199 0.76668 0
M  V30 17161 O 1686.66 -1.71139 1.06176 0
M  V30 17162 C 1683.72 -2.75731 2.10174 0
M  V30 17163 C 1682.78 -2.69776 3.33945 0
M  V30 17164 C 1682.02 -3.97952 3.55626 0
M  V30 17165 O 1682.24 -4.96614 2.80589 0
M  V30 17166 O 1681.17 -4.00719 4.49119 0
M  V30 17167 H 1685 -1.16167 2.80605 0
M  V30 17168 H 1682.58 -0.510193 1.40419 0
M  V30 17169 H 1684.47 -3.55392 2.26439 0
M  V30 17170 H 1683.14 -3.00574 1.20154 0
M  V30 17171 H 1682.05 -1.88638 3.23058 0
M  V30 17172 H 1683.38 -2.49887 4.24049 0
M  V30 17173 N 1685.03 -1.46622 -0.577906 0
M  V30 17174 C 1685.98 -1.57549 -1.68662 0
M  V30 17175 C 1686.95 -0.419536 -1.60714 0
M  V30 17176 O 1688.14 -0.636916 -1.79856 0
M  V30 17177 C 1685.28 -1.57627 -3.06998 0
M  V30 17178 C 1684.39 -2.83991 -3.25535 0
M  V30 17179 C 1683.52 -2.75541 -4.54148 0
M  V30 17180 C 1682.56 -3.96823 -4.66045 0
M  V30 17181 N 1681.7 -3.86731 -5.8599 0
M  V30 17182 H 1686.54 -2.52252 -1.58659 0
M  V30 17183 H 1684.08 -1.2514 -0.773195 0
M  V30 17184 H 1686.04 -1.55657 -3.87075 0
M  V30 17185 H 1684.67 -0.664527 -3.15886 0
M  V30 17186 H 1683.72 -2.9592 -2.3903 0
M  V30 17187 H 1685.03 -3.73864 -3.30193 0
M  V30 17188 H 1684.18 -2.71703 -5.42459 0
M  V30 17189 H 1682.92 -1.83317 -4.51936 0
M  V30 17190 H 1681.93 -4.00987 -3.76151 0
M  V30 17191 H 1683.15 -4.90149 -4.70033 0
M  V30 17192 H 1681.1 -2.97296 -5.84766 0
M  V30 17193 H 1681.02 -4.70263 -5.91937 0
M  V30 17194 H 1682.28 -3.86876 -6.76718 0
M  V30 17195 N 1686.51 0.822941 -1.34408 0
M  V30 17196 C 1687.46 1.95524 -1.25988 0
M  V30 17197 C 1688.45 1.68662 -0.157994 0
M  V30 17198 O 1689.66 1.77079 -0.322966 0
M  V30 17199 H 1686.04 0.642117 -0.391394 0
M  V30 17200 H 1688.01 1.99747 -2.21683 0
M  V30 17201 C 1686.76 3.32026 -1.03218 0
M  V30 17202 H 1686.08 3.53244 -1.87239 0
M  V30 17203 H 1687.52 4.11706 -1.01363 0
M  V30 17204 C 1685.98 3.3586 0.264523 0
M  V30 17205 O 1686.51 3.81232 1.26589 0
M  V30 17206 N 1684.71 2.89072 0.297626 0
M  V30 17207 H 1684.26 2.52341 -0.517836 0
M  V30 17208 H 1684.22 2.92019 1.165 0
M  V30 17209 N 1687.99 1.18137 1.04314 0
M  V30 17210 C 1689.23 0.986144 1.79038 0
M  V30 17211 C 1689.59 -0.476023 1.86005 0
M  V30 17212 O 1690.8 -0.790612 2.5691 0
M  V30 17213 C 1689.07 1.62008 3.18572 0
M  V30 17214 S 1690.63 1.57227 4.09665 0
M  V30 17215 H 1687.44 0.354181 0.616503 0
M  V30 17216 H 1690.05 1.50237 1.25096 0
M  V30 17217 H 1688.75 2.67655 3.11109 0
M  V30 17218 H 1688.28 1.10403 3.77591 0
M  V30 17219 H 1690.3 0.586418 4.92723 0
M  V30 17220 N 1689.47 -1.23186 0.98301 0
M  V30 17221 C 1690.42 -2.26762 0.517846 0
M  V30 17222 C 1691.41 -1.63944 -0.426459 0
M  V30 17223 O 1692.62 -1.77481 -0.300065 0
M  V30 17224 H 1688.99 -0.737082 0.149042 0
M  V30 17225 H 1690.96 -2.63356 1.40307 0
M  V30 17226 C 1689.71 -3.47324 -0.16157 0
M  V30 17227 H 1689.03 -3.95915 0.555973 0
M  V30 17228 H 1690.47 -4.21598 -0.450644 0
M  V30 17229 C 1688.93 -3.06722 -1.39366 0
M  V30 17230 O 1689.46 -3.15239 -2.48973 0
M  V30 17231 N 1687.67 -2.61609 -1.26528 0
M  V30 17232 H 1687.22 -2.54879 -0.373449 0
M  V30 17233 H 1687.17 -2.34809 -2.09074 0
M  V30 17234 N 1690.95 -0.754982 -1.38339 0
M  V30 17235 C 1692.17 -0.321355 -2.04895 0
M  V30 17236 C 1692.6 1.04249 -1.56569 0
M  V30 17237 O 1691.95 1.66464 -0.718299 0
M  V30 17238 C 1692 -0.354873 -3.5885 0
M  V30 17239 O 1691.11 0.65063 -4.07235 0
M  V30 17240 H 1690.45 -0.142033 -0.648631 0
M  V30 17241 H 1692.98 -1.02649 -1.76987 0
M  V30 17242 H 1692.99 -0.206243 -4.07478 0
M  V30 17243 H 1691.66 -1.34994 -3.93382 0
M  V30 17244 H 1690.24 0.466498 -3.69971 0
M  V30 17245 N 1692.42 1.49318 -0.504168 0
M  V30 17246 C 1693.65 2.06869 0.0359415 0
M  V30 17247 C 1694.07 1.3641 1.30529 0
M  V30 17248 O 1693.42 0.443416 1.77031 0
M  V30 17249 C 1693.48 3.60333 0.290233 0
M  V30 17250 O 1693.2 4.28141 -0.928801 0
M  V30 17251 C 1694.7 4.34606 0.873628 0
M  V30 17252 H 1691.92 0.670643 -0.0218893 0
M  V30 17253 H 1694.46 1.92058 -0.702432 0
M  V30 17254 H 1692.62 3.74836 0.978594 0
M  V30 17255 H 1693.03 5.19894 -0.693595 0
M  V30 17256 H 1694.5 5.42846 1.00112 0
M  V30 17257 H 1694.98 3.97297 1.87221 0
M  V30 17258 H 1695.59 4.24717 0.222638 0
M  V30 17259 N 1693.9 0.238138 1.5579 0
M  V30 17260 C 1694.81 -0.676049 2.24648 0
M  V30 17261 C 1695.83 -1.20038 1.25964 0
M  V30 17262 O 1697 -1.2385 1.58818 0
M  V30 17263 C 1694.07 -1.86014 2.92574 0
M  V30 17264 C 1693.13 -1.37615 4.06646 0
M  V30 17265 C 1692.36 -2.5038 4.71323 0
M  V30 17266 O 1692.59 -3.68906 4.35045 0
M  V30 17267 O 1691.52 -2.20636 5.60003 0
M  V30 17268 H 1695.35 -0.119372 3.03465 0
M  V30 17269 H 1692.93 0.00699789 1.49398 0
M  V30 17270 H 1694.81 -2.55132 3.35389 0
M  V30 17271 H 1693.49 -2.4046 2.16704 0
M  V30 17272 H 1692.4 -0.652503 3.68366 0
M  V30 17273 H 1693.73 -0.877871 4.84308 0
M  V30 17274 N 1695.38 -1.57561 -0.0350783 0
M  V30 17275 C 1696.61 -1.93251 -0.73903 0
M  V30 17276 C 1697.02 -0.83739 -1.69214 0
M  V30 17277 O 1696.38 0.186669 -1.81543 0
M  V30 17278 C 1696.43 -3.28853 -1.50127 0
M  V30 17279 O 1696.15 -4.34157 -0.586426 0
M  V30 17280 C 1697.65 -3.78788 -2.30292 0
M  V30 17281 H 1694.87 -0.63793 -0.208053 0
M  V30 17282 H 1697.42 -2.04499 0.00560398 0
M  V30 17283 H 1695.57 -3.1902 -2.19784 0
M  V30 17284 H 1695.99 -5.12395 -1.12034 0
M  V30 17285 H 1697.46 -4.76197 -2.79178 0
M  V30 17286 H 1697.94 -3.09671 -3.11449 0
M  V30 17287 H 1698.54 -3.91684 -1.65721 0
M  V30 17288 N 1696.86 0.307236 -1.54576 0
M  V30 17289 C 1698.1 1.05125 -1.75294 0
M  V30 17290 C 1698.46 1.84702 -0.524313 0
M  V30 17291 O 1699.66 2.61807 -0.609121 0
M  V30 17292 C 1697.93 1.93827 -3.00276 0
M  V30 17293 S 1699.49 2.74959 -3.41969 0
M  V30 17294 H 1696.31 0.35464 -0.61624 0
M  V30 17295 H 1698.91 0.325362 -1.92774 0
M  V30 17296 H 1697.62 1.3423 -3.87828 0
M  V30 17297 H 1697.15 2.70794 -2.85366 0
M  V30 17298 H 1699.16 3.96336 -2.9855 0
M  V30 17299 N 1698.34 1.46926 0.570122 0
M  V30 17300 C 1699.27 1.54487 1.69311 0
M  V30 17301 C 1700.28 0.432119 1.5696 0
M  V30 17302 O 1701.47 0.701107 1.64155 0
M  V30 17303 C 1698.57 1.42093 3.07673 0
M  V30 17304 C 1697.74 2.6771 3.45905 0
M  V30 17305 C 1696.8 2.49336 4.63377 0
M  V30 17306 O 1695.83 3.23107 4.68605 0
M  V30 17307 N 1697.03 1.56319 5.59057 0
M  V30 17308 H 1699.8 2.51319 1.63276 0
M  V30 17309 H 1697.36 1.43142 0.756434 0
M  V30 17310 H 1699.35 1.27554 3.84073 0
M  V30 17311 H 1697.92 0.533945 3.08006 0
M  V30 17312 H 1697.14 2.97102 2.59083 0
M  V30 17313 H 1698.43 3.51131 3.68218 0
M  V30 17314 H 1697.82 0.955109 5.57579 0
M  V30 17315 H 1696.38 1.47738 6.34836 0
M  V30 17316 N 1699.82 -0.815801 1.34842 0
M  V30 17317 C 1701.23 -1.38911 1.24742 0
M  V30 17318 C 1701.58 -1.95807 -0.124101 0
M  V30 17319 O 1700.7 -1.906 -1.02472 0
M  V30 17320 C 1701.3 -2.52532 2.25861 0
M  V30 17321 C 1699.86 -3.05751 2.1953 0
M  V30 17322 C 1699 -1.78661 2.12075 0
M  V30 17323 H 1701.95 -0.619601 1.46105 0
M  V30 17324 H 1701.98 -3.30826 1.87974 0
M  V30 17325 H 1701.49 -2.11092 3.25671 0
M  V30 17326 H 1699.59 -3.51678 1.23099 0
M  V30 17327 H 1699.7 -3.64358 3.11095 0
M  V30 17328 H 1698.07 -1.99844 1.57907 0
M  V30 17329 H 1698.85 -1.39385 3.1373 0
M  V30 17330 N 1701.29 -1.18689 -1.03686 0
M  V30 17331 C 1702.52 -1.01024 -1.81132 0
M  V30 17332 C 1702.94 0.436584 -1.82963 0
M  V30 17333 O 1702.3 1.31343 -1.24975 0
M  V30 17334 C 1702.35 -1.5742 -3.24424 0
M  V30 17335 O 1701.45 -0.79813 -4.04603 0
M  V30 17336 H 1700.79 -0.357623 -0.559465 0
M  V30 17337 H 1703.32 -1.57532 -1.30556 0
M  V30 17338 H 1703.33 -1.60295 -3.75193 0
M  V30 17339 H 1702.01 -2.6273 -3.22406 0
M  V30 17340 H 1700.59 -0.842 -3.6327 0
M  V30 17341 N 1702.77 1.22662 -0.989529 0
M  V30 17342 C 1703.7 2.23784 -0.495301 0
M  V30 17343 C 1704.72 1.5761 0.40779 0
M  V30 17344 O 1705.91 1.77255 0.210464 0
M  V30 17345 C 1703.01 3.37553 0.301836 0
M  V30 17346 C 1702.18 4.33312 -0.596578 0
M  V30 17347 C 1701.24 5.25991 0.148272 0
M  V30 17348 O 1700.26 5.67296 -0.46519 0
M  V30 17349 N 1701.47 5.62571 1.43158 0
M  V30 17350 H 1704.23 2.66819 -1.36483 0
M  V30 17351 H 1701.79 1.36928 -0.863853 0
M  V30 17352 H 1703.78 3.96538 0.808701 0
M  V30 17353 H 1702.35 2.93628 1.07243 0
M  V30 17354 H 1701.57 3.72697 -1.28416 0
M  V30 17355 H 1702.86 4.94239 -1.20853 0
M  V30 17356 H 1702.26 5.30979 1.95136 0
M  V30 17357 H 1700.82 6.23987 1.8837 0
M  V30 17358 N 1704.25 0.762308 1.37937 0
M  V30 17359 C 1705.5 0.322369 1.99918 0
M  V30 17360 C 1705.82 -1.09843 1.60514 0
M  V30 17361 O 1705.08 -1.76837 0.83829 0
M  V30 17362 C 1705.38 0.402558 3.55126 0
M  V30 17363 C 1705.04 1.78025 4.14268 0
M  V30 17364 C 1703.71 2.15727 4.30134 0
M  V30 17365 C 1706.06 2.68359 4.46803 0
M  V30 17366 C 1703.39 3.43217 4.75835 0
M  V30 17367 C 1705.74 3.95248 4.93925 0
M  V30 17368 C 1704.4 4.33007 5.07997 0
M  V30 17369 H 1703.67 0.117963 0.73155 0
M  V30 17370 H 1706.32 0.974491 1.64851 0
M  V30 17371 H 1704.62 -0.333119 3.90381 0
M  V30 17372 H 1706.32 0.0436064 4.00976 0
M  V30 17373 H 1702.91 1.4772 4.02339 0
M  V30 17374 H 1707.1 2.40493 4.34139 0
M  V30 17375 H 1702.35 3.72379 4.84916 0
M  V30 17376 H 1706.53 4.6538 5.18068 0
M  V30 17377 H 1704.15 5.31856 5.4317 0
M  V30 17378 N 1705.73 -1.49049 0.51208 0
M  V30 17379 C 1706.68 -2.30981 -0.273991 0
M  V30 17380 C 1707.67 -1.40092 -0.952402 0
M  V30 17381 O 1708.88 -1.57088 -0.878828 0
M  V30 17382 H 1705.25 -0.744317 -0.107221 0
M  V30 17383 H 1707.22 -2.95185 0.436866 0
M  V30 17384 C 1705.97 -3.21714 -1.31892 0
M  V30 17385 H 1705.29 -3.91585 -0.806302 0
M  V30 17386 H 1706.73 -3.81961 -1.8407 0
M  V30 17387 C 1705.19 -2.42082 -2.34303 0
M  V30 17388 O 1705.72 -2.13285 -3.40401 0
M  V30 17389 N 1703.93 -2.03903 -2.07055 0
M  V30 17390 H 1703.48 -2.27523 -1.20794 0
M  V30 17391 H 1703.43 -1.50932 -2.75802 0
M  V30 17392 N 1707.21 -0.246397 -1.55662 0
M  V30 17393 C 1708.45 0.38003 -2.00836 0
M  V30 17394 C 1708.81 1.55166 -1.13082 0
M  V30 17395 O 1710.01 2.24578 -1.4771 0
M  V30 17396 C 1708.28 0.779997 -3.48785 0
M  V30 17397 S 1709.84 1.39702 -4.15967 0
M  V30 17398 H 1706.66 0.119597 -0.700869 0
M  V30 17399 H 1709.26 -0.361512 -1.92128 0
M  V30 17400 H 1707.96 -0.0820223 -4.10318 0
M  V30 17401 H 1707.5 1.55373 -3.61418 0
M  V30 17402 H 1709.51 2.68606 -4.17211 0
M  V30 17403 N 1708.68 1.57577 0.026722 0
M  V30 17404 C 1710.09 1.77689 0.573022 0
M  V30 17405 C 1710.45 0.877771 1.7547 0
M  V30 17406 O 1709.57 0.0732156 2.16276 0
M  V30 17407 C 1710.17 3.22239 1.0463 0
M  V30 17408 C 1708.72 3.4354 1.5381 0
M  V30 17409 C 1707.87 2.73163 0.47722 0
M  V30 17410 H 1710.82 1.57441 -0.199502 0
M  V30 17411 H 1710.84 3.28882 1.91355 0
M  V30 17412 H 1710.36 3.87654 0.186047 0
M  V30 17413 H 1708.46 2.83304 2.42012 0
M  V30 17414 H 1708.57 4.52158 1.58398 0
M  V30 17415 H 1706.93 2.37004 0.932793 0
M  V30 17416 H 1707.72 3.41261 -0.373605 0
M  V30 17417 N 1710.16 -0.299034 1.54737 0
M  V30 17418 C 1711.11 -1.38889 1.86581 0
M  V30 17419 C 1712.1 -1.52396 0.739723 0
M  V30 17420 O 1713.31 -1.5449 0.92374 0
M  V30 17421 H 1709.68 -0.463969 0.591808 0
M  V30 17422 H 1711.66 -1.09268 2.77674 0
M  V30 17423 C 1710.4 -2.74702 2.13152 0
M  V30 17424 H 1709.73 -2.65092 2.99277 0
M  V30 17425 H 1711.17 -3.49967 2.39372 0
M  V30 17426 C 1709.63 -3.23789 0.930706 0
M  V30 17427 O 1710.16 -4.01412 0.152193 0
M  V30 17428 N 1708.36 -2.81137 0.735545 0
M  V30 17429 H 1707.91 -2.1813 1.37029 0
M  V30 17430 H 1707.87 -3.1433 -0.0663452 0
M  V30 17431 N 1711.64 -1.47227 -0.562322 0
M  V30 17432 C 1712.59 -1.55739 -1.66521 0
M  V30 17433 C 1713.57 -0.416678 -1.55411 0
M  V30 17434 O 1714.77 -0.666302 -1.6398 0
M  V30 17435 C 1711.89 -1.5699 -3.05302 0
M  V30 17436 C 1710.98 -2.76427 -3.21634 0
M  V30 17437 N 1711.37 -4.01172 -3.0805 0
M  V30 17438 C 1709.67 -2.73081 -3.52623 0
M  V30 17439 C 1710.37 -4.81132 -3.26936 0
M  V30 17440 N 1709.35 -4.13362 -3.53034 0
M  V30 17441 H 1713.15 -2.49965 -1.5458 0
M  V30 17442 H 1710.66 -1.4315 -0.766937 0
M  V30 17443 H 1712.66 -1.61178 -3.84483 0
M  V30 17444 H 1711.32 -0.638563 -3.18359 0
M  V30 17445 H 1712.33 -4.3211 -2.85485 0
M  V30 17446 H 1709.01 -1.89062 -3.72239 0
M  V30 17447 H 1710.4 -5.9002 -3.21444 0
M  V30 17448 N 1713.12 0.808639 -1.35273 0
M  V30 17449 C 1714.53 1.10389 -1.15267 0
M  V30 17450 C 1714.73 2.01467 0.0362501 0
M  V30 17451 O 1713.79 2.42386 0.707477 0
M  V30 17452 C 1715.1 1.73685 -2.45467 0
M  V30 17453 C 1716.65 1.86115 -2.51655 0
M  V30 17454 C 1717.13 2.52826 -3.81894 0
M  V30 17455 N 1718.62 2.60313 -3.83134 0
M  V30 17456 C 1719.35 3.12694 -4.80635 0
M  V30 17457 N 1718.85 3.6553 -5.88523 0
M  V30 17458 N 1720.64 3.11228 -4.68074 0
M  V30 17459 H 1712.79 0.203141 -2.11426 0
M  V30 17460 H 1715.05 0.152706 -0.93562 0
M  V30 17461 H 1714.76 1.14228 -3.32633 0
M  V30 17462 H 1714.63 2.73406 -2.59864 0
M  V30 17463 H 1717.02 2.44715 -1.64919 0
M  V30 17464 H 1717.1 0.852547 -2.41175 0
M  V30 17465 H 1716.75 1.94875 -4.69027 0
M  V30 17466 H 1716.68 3.54219 -3.89662 0
M  V30 17467 H 1719.17 2.22878 -3.05178 0
M  V30 17468 H 1719.48 4.03793 -6.58917 0
M  V30 17469 H 1717.83 3.63734 -5.92218 0
M  V30 17470 H 1721.02 2.69228 -3.82928 0
M  V30 17471 H 1721.19 3.51745 -5.44224 0
M  V30 17472 N 1714.6 1.19237 1.03055 0
M  V30 17473 C 1715.84 1.00508 1.77982 0
M  V30 17474 C 1716.2 -0.456267 1.865 0
M  V30 17475 O 1717.4 -0.763318 2.57734 0
M  V30 17476 C 1715.67 1.65377 3.16836 0
M  V30 17477 S 1717.23 1.61563 4.07974 0
M  V30 17478 H 1714.05 0.3607 0.612712 0
M  V30 17479 H 1716.65 1.51556 1.23495 0
M  V30 17480 H 1715.36 2.7094 3.08253 0
M  V30 17481 H 1714.89 1.14402 3.76399 0
M  V30 17482 H 1716.9 0.638645 4.92073 0
M  V30 17483 N 1716.07 -1.22136 0.99602 0
M  V30 17484 C 1717.32 -1.9028 0.66907 0
M  V30 17485 C 1717.64 -1.7837 -0.802717 0
M  V30 17486 O 1718.84 -2.41458 -1.24138 0
M  V30 17487 C 1717.3 -3.4116 1.1462 0
M  V30 17488 C 1716.91 -3.617 2.64343 0
M  V30 17489 C 1718.65 -4.14985 0.893718 0
M  V30 17490 C 1716.56 -5.06297 3.05642 0
M  V30 17491 H 1715.49 -0.71255 0.246554 0
M  V30 17492 H 1718.14 -1.38304 1.20599 0
M  V30 17493 H 1716.52 -3.92337 0.537378 0
M  V30 17494 H 1717.69 -3.21002 3.30597 0
M  V30 17495 H 1716.01 -3.01212 2.87507 0
M  V30 17496 H 1718.61 -5.21564 1.17794 0
M  V30 17497 H 1718.95 -4.15952 -0.17013 0
M  V30 17498 H 1719.48 -3.69846 1.46488 0
M  V30 17499 H 1716.22 -5.10472 4.11216 0
M  V30 17500 H 1715.74 -5.47885 2.44094 0
M  V30 17501 H 1717.42 -5.74743 2.97118 0
M  V30 17502 N 1717.55 -0.769612 -1.37531 0
M  V30 17503 C 1718.83 -0.257788 -1.93894 0
M  V30 17504 C 1719.21 1.24679 -1.70348 0
M  V30 17505 O 1718.56 2.02892 -1.05106 0
M  V30 17506 C 1718.77 -0.628857 -3.43288 0
M  V30 17507 C 1720.12 -0.597452 -4.20376 0
M  V30 17508 O 1721.14 -0.568117 -3.5164 0
M  V30 17509 O 1720 -0.622627 -5.42942 0
M  V30 17510 H 1717.09 -0.0588144 -0.824906 0
M  V30 17511 H 1719.64 -0.85082 -1.4683 0
M  V30 17512 H 1718.41 -1.66733 -3.54 0
M  V30 17513 H 1718.03 -0.00865929 -3.97599 0
M  V30 17514 N 1719.03 1.48775 -0.519977 0
M  V30 17515 C 1719.96 2.32292 0.237213 0
M  V30 17516 C 1720.94 1.4146 0.944625 0
M  V30 17517 O 1722.13 1.70355 0.932349 0
M  V30 17518 C 1719.26 3.22426 1.29068 0
M  V30 17519 C 1718.21 4.22204 0.702011 0
M  V30 17520 C 1717.54 5.01403 1.85739 0
M  V30 17521 C 1718.84 5.21321 -0.319626 0
M  V30 17522 H 1720.53 2.95846 -0.459949 0
M  V30 17523 H 1718.08 1.42268 -0.222641 0
M  V30 17524 H 1720.03 3.79674 1.82826 0
M  V30 17525 H 1718.75 2.56853 2.01728 0
M  V30 17526 H 1717.41 3.66128 0.186027 0
M  V30 17527 H 1717.06 4.32262 2.57214 0
M  V30 17528 H 1716.76 5.68929 1.46949 0
M  V30 17529 H 1718.28 5.615 2.39895 0
M  V30 17530 H 1719.7 5.73151 0.130505 0
M  V30 17531 H 1718.1 5.96843 -0.624377 0
M  V30 17532 H 1719.17 4.69069 -1.22893 0
M  V30 17533 N 1720.51 0.254649 1.55529 0
M  V30 17534 C 1721.73 -0.374795 2.03985 0
M  V30 17535 C 1722.16 -1.50188 1.13249 0
M  V30 17536 O 1721.52 -1.80855 0.126963 0
M  V30 17537 C 1721.56 -0.852635 3.50375 0
M  V30 17538 O 1720.67 -1.9616 3.6276 0
M  V30 17539 H 1720.01 -0.0806157 0.659088 0
M  V30 17540 H 1722.54 0.38297 2.00984 0
M  V30 17541 H 1722.55 -1.15381 3.91345 0
M  V30 17542 H 1721.22 -0.0279044 4.15891 0
M  V30 17543 H 1719.8 -1.66453 3.33688 0
M  V30 17544 N 1721.99 -1.57589 -0.0183649 0
M  V30 17545 C 1723.23 -1.89757 -0.707008 0
M  V30 17546 C 1723.56 -0.853257 -1.74785 0
M  V30 17547 O 1722.82 0.144406 -1.95166 0
M  V30 17548 C 1723.12 -3.28677 -1.4038 0
M  V30 17549 C 1722.78 -4.48142 -0.497917 0
M  V30 17550 C 1721.44 -4.80558 -0.248444 0
M  V30 17551 C 1723.8 -5.21046 0.126883 0
M  V30 17552 C 1721.12 -5.8326 0.634428 0
M  V30 17553 C 1723.48 -6.24686 0.997521 0
M  V30 17554 C 1722.14 -6.5557 1.25635 0
M  V30 17555 H 1721.41 -0.694369 -0.258713 0
M  V30 17556 H 1724.06 -1.91471 0.0332176 0
M  V30 17557 H 1722.36 -3.23 -2.21761 0
M  V30 17558 H 1724.06 -3.50818 -1.94236 0
M  V30 17559 H 1720.65 -4.22803 -0.702519 0
M  V30 17560 H 1724.83 -4.96272 -0.0528705 0
M  V30 17561 H 1720.09 -6.05558 0.843157 0
M  V30 17562 H 1724.26 -6.80315 1.48811 0
M  V30 17563 H 1721.89 -7.34972 1.94218 0
M  V30 17564 N 1723.46 0.290824 -1.54893 0
M  V30 17565 C 1724.71 1.02627 -1.74916 0
M  V30 17566 C 1725.04 1.86572 -0.538921 0
M  V30 17567 O 1724.32 1.88888 0.463844 0
M  V30 17568 C 1724.6 1.92376 -3.04407 0
M  V30 17569 C 1724.45 1.11542 -4.3575 0
M  V30 17570 C 1725.77 2.91383 -3.29824 0
M  V30 17571 H 1722.89 0.371685 -0.636411 0
M  V30 17572 H 1725.53 0.300072 -1.87615 0
M  V30 17573 H 1723.68 2.54295 -2.93711 0
M  V30 17574 H 1725.36 0.518312 -4.58379 0
M  V30 17575 H 1723.6 0.418386 -4.31778 0
M  V30 17576 H 1724.27 1.77616 -5.22644 0
M  V30 17577 H 1726.75 2.39595 -3.40196 0
M  V30 17578 H 1725.62 3.51338 -4.21726 0
M  V30 17579 H 1725.88 3.65579 -2.48606 0
M  V30 17580 N 1724.94 1.47523 0.554506 0
M  V30 17581 C 1726.18 1.55867 1.32231 0
M  V30 17582 C 1726.55 0.216987 1.9077 0
M  V30 17583 O 1727.75 0.175283 2.68228 0
M  V30 17584 C 1726.02 2.64761 2.40076 0
M  V30 17585 S 1727.58 2.92706 3.26908 0
M  V30 17586 H 1724.4 0.550369 0.450128 0
M  V30 17587 H 1727 1.84917 0.634504 0
M  V30 17588 H 1725.7 3.60838 1.95509 0
M  V30 17589 H 1725.23 2.37534 3.13594 0
M  V30 17590 H 1727.25 2.30127 4.39609 0
M  V30 17591 N 1726.42 -0.801453 1.357 0
M  V30 17592 C 1727.7 -1.54605 1.19819 0
M  V30 17593 C 1728.08 -2.09944 -0.220593 0
M  V30 17594 O 1727.43 -1.92904 -1.22475 0
M  V30 17595 C 1727.64 -2.65052 2.27043 0
M  V30 17596 C 1728.98 -3.33255 2.63109 0
M  V30 17597 O 1730.01 -2.75326 2.25995 0
M  V30 17598 O 1728.87 -4.37917 3.26942 0
M  V30 17599 H 1725.96 -0.68334 0.465807 0
M  V30 17600 H 1728.51 -0.840972 1.47397 0
M  V30 17601 H 1727.28 -2.22068 3.22182 0
M  V30 17602 H 1726.9 -3.4319 2.00764 0
M  V30 17603 N 1727.9 -1.19782 -1.02421 0
M  V30 17604 C 1729.15 -1.00133 -1.7555 0
M  V30 17605 C 1729.47 0.468503 -1.89288 0
M  V30 17606 O 1728.74 1.3391 -1.42986 0
M  V30 17607 H 1727.32 -0.367513 -0.650341 0
M  V30 17608 H 1729.98 -1.50758 -1.23523 0
M  V30 17609 H 1729.08 -1.45329 -2.76199 0
M  V30 17610 N 1729.38 1.21606 -1.00248 0
M  V30 17611 C 1730.65 1.86191 -0.599348 0
M  V30 17612 C 1731.03 1.89847 0.923104 0
M  V30 17613 O 1730.38 1.39595 1.80902 0
M  V30 17614 C 1730.59 3.26576 -1.23082 0
M  V30 17615 C 1731.94 4.02989 -1.33736 0
M  V30 17616 O 1732.96 3.35877 -1.18595 0
M  V30 17617 O 1731.82 5.23142 -1.58065 0
M  V30 17618 H 1728.92 0.801204 -0.204943 0
M  V30 17619 H 1731.46 1.29309 -1.09897 0
M  V30 17620 H 1730.24 3.18601 -2.27176 0
M  V30 17621 H 1729.86 3.91074 -0.717394 0
M  V30 17622 N 1730.86 0.776895 1.37121 0
M  V30 17623 C 1731.8 0.164838 2.30211 0
M  V30 17624 C 1732.77 -0.684137 1.51356 0
M  V30 17625 O 1733.96 -0.635428 1.79908 0
M  V30 17626 C 1731.1 -0.704263 3.37837 0
M  V30 17627 C 1730.21 0.161881 4.31697 0
M  V30 17628 C 1729.35 -0.712411 5.26401 0
M  V30 17629 C 1728.38 0.155953 6.11901 0
M  V30 17630 N 1727.52 -0.676607 6.98832 0
M  V30 17631 H 1732.36 0.964185 2.81971 0
M  V30 17632 H 1729.9 0.487065 1.38802 0
M  V30 17633 H 1731.86 -1.22302 3.98871 0
M  V30 17634 H 1730.49 -1.46916 2.87429 0
M  V30 17635 H 1729.54 0.798491 3.71925 0
M  V30 17636 H 1730.85 0.831496 4.91821 0
M  V30 17637 H 1730 -1.29745 5.92664 0
M  V30 17638 H 1728.74 -1.41569 4.66701 0
M  V30 17639 H 1727.75 0.753493 5.44612 0
M  V30 17640 H 1728.97 0.856645 6.73675 0
M  V30 17641 H 1726.92 -1.36441 6.41654 0
M  V30 17642 H 1726.84 -0.0644017 7.55973 0
M  V30 17643 H 1728.1 -1.24588 7.69479 0
M  V30 17644 N 1732.33 -1.48497 0.527859 0
M  V30 17645 C 1733.61 -1.9547 -0.0713049 0
M  V30 17646 C 1733.99 -1.47005 -1.51502 0
M  V30 17647 O 1733.34 -0.695609 -2.17655 0
M  V30 17648 C 1733.55 -3.48973 0.0437547 0
M  V30 17649 C 1734.9 -4.2444 -0.116591 0
M  V30 17650 O 1735.92 -3.56187 -0.0301431 0
M  V30 17651 O 1734.78 -5.4569 -0.297491 0
M  V30 17652 H 1731.87 -0.823075 -0.080474 0
M  V30 17653 H 1734.42 -1.59028 0.592307 0
M  V30 17654 H 1733.19 -3.76963 1.04952 0
M  V30 17655 H 1732.81 -3.92104 -0.658803 0
M  V30 17656 N 1733.81 -0.262893 -1.55392 0
M  V30 17657 C 1735.05 0.358707 -2.01228 0
M  V30 17658 C 1735.42 1.53958 -1.14722 0
M  V30 17659 O 1736.62 2.22999 -1.50083 0
M  V30 17660 C 1734.89 0.74296 -3.49592 0
M  V30 17661 S 1736.45 1.35282 -4.17426 0
M  V30 17662 H 1733.26 0.112156 -0.702098 0
M  V30 17663 H 1735.87 -0.38187 -1.91734 0
M  V30 17664 H 1734.57 -0.125537 -4.10208 0
M  V30 17665 H 1734.1 1.51531 -3.63045 0
M  V30 17666 H 1736.12 2.64166 -4.20037 0
M  V30 17667 N 1735.29 1.57597 0.0100073 0
M  V30 17668 C 1736.54 1.90411 0.697968 0
M  V30 17669 C 1736.87 0.862924 1.73975 0
M  V30 17670 O 1736.14 -0.119646 1.94132 0
M  V30 17671 C 1736.43 3.33828 1.35022 0
M  V30 17672 C 1736.28 4.48656 0.320659 0
M  V30 17673 C 1737.6 3.7649 2.27911 0
M  V30 17674 H 1734.72 0.692482 0.252266 0
M  V30 17675 H 1737.36 1.89959 -0.0392325 0
M  V30 17676 H 1735.51 3.34343 1.97856 0
M  V30 17677 H 1737.18 4.60276 -0.30723 0
M  V30 17678 H 1735.42 4.32319 -0.358128 0
M  V30 17679 H 1736.1 5.45937 0.815891 0
M  V30 17680 H 1738.57 3.77463 1.75104 0
M  V30 17681 H 1737.45 4.77609 2.70519 0
M  V30 17682 H 1737.71 3.09801 3.15398 0
M  V30 17683 N 1736.77 -0.282606 1.55045 0
M  V30 17684 C 1738.04 -1.03617 1.659 0
M  V30 17685 C 1738.42 -2.04615 0.519207 0
M  V30 17686 O 1737.77 -2.2336 -0.48191 0
M  V30 17687 C 1737.98 -1.70159 3.04708 0
M  V30 17688 C 1739.33 -2.21677 3.62139 0
M  V30 17689 O 1740.35 -1.80161 3.07279 0
M  V30 17690 O 1739.21 -2.97799 4.58234 0
M  V30 17691 H 1736.31 -0.48004 0.673417 0
M  V30 17692 H 1738.85 -0.279228 1.67387 0
M  V30 17693 H 1737.63 -0.969205 3.79107 0
M  V30 17694 H 1737.25 -2.52564 3.07079 0
M  V30 17695 N 1738.25 -1.47815 -0.546675 0
M  V30 17696 C 1739.49 -1.54674 -1.30078 0
M  V30 17697 C 1739.81 -0.215151 -1.93809 0
M  V30 17698 O 1739.08 0.761862 -1.80478 0
M  V30 17699 H 1737.66 -0.569776 -0.483078 0
M  V30 17700 H 1740.33 -1.84178 -0.637525 0
M  V30 17701 H 1739.42 -2.31894 -2.08882 0
M  V30 17702 N 1739.72 0.794246 -1.36123 0
M  V30 17703 C 1740.95 1.58813 -1.33391 0
M  V30 17704 C 1741.37 1.87915 0.0834599 0
M  V30 17705 O 1740.73 1.47516 1.05398 0
M  V30 17706 C 1740.78 2.88887 -2.15816 0
M  V30 17707 O 1739.88 3.82271 -1.54734 0
M  V30 17708 H 1739.22 0.481924 -0.456777 0
M  V30 17709 H 1741.75 0.984818 -1.79339 0
M  V30 17710 H 1741.76 3.38201 -2.2822 0
M  V30 17711 H 1740.44 2.67032 -3.18852 0
M  V30 17712 H 1739.02 3.40852 -1.51242 0
M  V30 17713 N 1741.2 1.20323 1.01785 0
M  V30 17714 C 1742.48 0.921703 1.72522 0
M  V30 17715 C 1742.86 -0.569838 2.03264 0
M  V30 17716 O 1742.21 -1.53115 1.69611 0
M  V30 17717 C 1742.42 1.79335 2.99399 0
M  V30 17718 C 1743.76 2.03442 3.72688 0
M  V30 17719 O 1744.79 1.76578 3.09352 0
M  V30 17720 O 1743.65 2.48803 4.86579 0
M  V30 17721 H 1740.74 0.344505 0.751828 0
M  V30 17722 H 1743.29 1.31191 1.07644 0
M  V30 17723 H 1742.06 2.80339 2.72994 0
M  V30 17724 H 1741.68 1.40314 3.72018 0
M  V30 17725 N 1742.68 -1.21073 1.00892 0
M  V30 17726 C 1743.59 -2.27265 0.582065 0
M  V30 17727 C 1744.61 -1.69872 -0.376785 0
M  V30 17728 O 1745.78 -1.99969 -0.239644 0
M  V30 17729 C 1742.85 -3.46606 -0.0806764 0
M  V30 17730 C 1741.91 -4.19257 0.923147 0
M  V30 17731 C 1741.14 -5.32901 0.291938 0
M  V30 17732 O 1741.36 -5.6309 -0.910282 0
M  V30 17733 O 1740.3 -5.93453 1.00483 0
M  V30 17734 H 1744.12 -2.65977 1.46594 0
M  V30 17735 H 1741.71 -1.27544 0.777999 0
M  V30 17736 H 1743.59 -4.18978 -0.451177 0
M  V30 17737 H 1742.27 -3.09785 -0.93887 0
M  V30 17738 H 1741.17 -3.4909 1.34488 0
M  V30 17739 H 1742.51 -4.59999 1.75106 0
M  V30 17740 N 1744.16 -0.784156 -1.36707 0
M  V30 17741 C 1745.4 -0.354658 -1.99675 0
M  V30 17742 C 1745.74 1.06948 -1.62098 0
M  V30 17743 O 1745.01 1.73798 -0.873192 0
M  V30 17744 C 1745.3 -0.512421 -3.56435 0
M  V30 17745 C 1745.15 -1.97987 -4.03883 0
M  V30 17746 C 1746.47 0.075762 -4.40035 0
M  V30 17747 H 1743.59 -0.130338 -0.725383 0
M  V30 17748 H 1746.23 -0.989515 -1.62199 0
M  V30 17749 H 1744.38 0.0280323 -3.8849 0
M  V30 17750 H 1746.05 -2.58098 -3.82339 0
M  V30 17751 H 1744.29 -2.48433 -3.55617 0
M  V30 17752 H 1744.96 -2.04125 -5.12871 0
M  V30 17753 H 1747.44 -0.385522 -4.1431 0
M  V30 17754 H 1746.32 -0.0646832 -5.48862 0
M  V30 17755 H 1746.58 1.16735 -4.2641 0
M  V30 17756 N 1745.64 1.48215 -0.535727 0
M  V30 17757 C 1746.88 2.021 -0.00372016 0
M  V30 17758 C 1747.21 1.41456 1.34221 0
M  V30 17759 O 1746.48 0.581987 1.87055 0
M  V30 17760 H 1745.06 0.746998 0.00161295 0
M  V30 17761 H 1747.72 1.81862 -0.700863 0
M  V30 17762 H 1746.81 3.11939 0.100352 0
M  V30 17763 N 1747.11 0.27113 1.5525 0
M  V30 17764 C 1748.35 -0.34803 2.01415 0
M  V30 17765 C 1748.72 -1.53347 1.15536 0
M  V30 17766 O 1749.92 -2.222 1.51264 0
M  V30 17767 C 1748.19 -0.72441 3.49982 0
M  V30 17768 S 1749.75 -1.33067 4.18137 0
M  V30 17769 H 1746.57 -0.108431 0.702683 0
M  V30 17770 H 1749.17 0.392033 1.91529 0
M  V30 17771 H 1747.87 0.14729 4.10136 0
M  V30 17772 H 1747.4 -1.49604 3.63844 0
M  V30 17773 H 1749.42 -2.61934 4.21432 0
M  V30 17774 N 1748.59 -1.576 -0.00164943 0
M  V30 17775 C 1749.84 -1.90778 -0.68786 0
M  V30 17776 C 1750.17 -0.872138 -1.73515 0
M  V30 17777 O 1749.45 0.109349 -1.94192 0
M  V30 17778 C 1749.73 -3.34539 -1.3325 0
M  V30 17779 C 1749.58 -4.48819 -0.296862 0
M  V30 17780 C 1750.9 -3.77693 -2.25911 0
M  V30 17781 H 1748.02 -0.69381 -0.24859 0
M  V30 17782 H 1750.66 -1.89936 0.0493059 0
M  V30 17783 H 1748.81 -3.35388 -1.9608 0
M  V30 17784 H 1750.48 -4.60106 0.331635 0
M  V30 17785 H 1748.73 -4.32123 0.38105 0
M  V30 17786 H 1749.4 -5.46362 -0.786927 0
M  V30 17787 H 1751.87 -3.78386 -1.73099 0
M  V30 17788 H 1750.75 -4.79037 -2.67983 0
M  V30 17789 H 1751.01 -3.11469 -3.1375 0
M  V30 17790 N 1750.07 0.274379 -1.55193 0
M  V30 17791 C 1751 1.34336 -1.90987 0
M  V30 17792 C 1751.98 1.51594 -0.771582 0
M  V30 17793 O 1753.17 1.6466 -1.0296 0
M  V30 17794 C 1750.3 2.70312 -2.18057 0
M  V30 17795 C 1749.25 2.67787 -3.33878 0
M  V30 17796 C 1748.58 4.07301 -3.46425 0
M  V30 17797 C 1749.88 2.27178 -4.70306 0
M  V30 17798 H 1751.57 1.04627 -2.80524 0
M  V30 17799 H 1749.12 0.501867 -1.34971 0
M  V30 17800 H 1751.07 3.45205 -2.41685 0
M  V30 17801 H 1749.79 3.01601 -1.25318 0
M  V30 17802 H 1748.45 1.95351 -3.10216 0
M  V30 17803 H 1748.1 4.3581 -2.51155 0
M  V30 17804 H 1747.8 4.06507 -4.24295 0
M  V30 17805 H 1749.32 4.83935 -3.72343 0
M  V30 17806 H 1750.74 2.91794 -4.93487 0
M  V30 17807 H 1749.14 2.37548 -5.51082 0
M  V30 17808 H 1750.21 1.22309 -4.69221 0
M  V30 17809 N 1751.55 1.48103 0.538828 0
M  V30 17810 C 1752.5 1.62398 1.66522 0
M  V30 17811 C 1753.49 0.490669 1.62138 0
M  V30 17812 O 1754.7 0.669098 1.67102 0
M  V30 17813 H 1751.07 0.511415 0.551324 0
M  V30 17814 H 1753.04 2.57018 1.51606 0
M  V30 17815 C 1751.79 1.67264 3.04824 0
M  V30 17816 H 1751.11 2.53828 3.08887 0
M  V30 17817 H 1752.55 1.81312 3.83278 0
M  V30 17818 C 1751.01 0.409539 3.34402 0
M  V30 17819 O 1751.54 -0.481433 3.98805 0
M  V30 17820 N 1749.75 0.283934 2.8921 0
M  V30 17821 H 1749.3 1.00993 2.36977 0
M  V30 17822 H 1749.25 -0.560201 3.09369 0
M  V30 17823 N 1753.03 -0.787016 1.36542 0
M  V30 17824 C 1754.27 -1.55817 1.3229 0
M  V30 17825 C 1754.63 -1.91759 -0.0961159 0
M  V30 17826 O 1755.83 -2.67508 -0.26322 0
M  V30 17827 C 1754.1 -2.79934 2.22198 0
M  V30 17828 S 1755.66 -3.70154 2.35651 0
M  V30 17829 H 1752.48 -0.533633 0.469847 0
M  V30 17830 H 1755.08 -0.926755 1.72138 0
M  V30 17831 H 1753.79 -2.51583 3.24244 0
M  V30 17832 H 1753.32 -3.48046 1.83378 0
M  V30 17833 H 1755.33 -4.71179 1.55579 0
M  V30 17834 N 1754.5 -1.20861 -1.01145 0
M  V30 17835 C 1755.73 -1.04769 -1.78413 0
M  V30 17836 C 1756.15 0.402846 -1.84452 0
M  V30 17837 O 1755.5 1.27962 -1.30123 0
M  V30 17838 C 1755.56 -1.63065 -3.22633 0
M  V30 17839 O 1755.28 -3.02443 -3.16954 0
M  V30 17840 C 1756.78 -1.51996 -4.16428 0
M  V30 17841 H 1754 -0.368271 -0.560908 0
M  V30 17842 H 1756.54 -1.6006 -1.27283 0
M  V30 17843 H 1754.7 -1.11882 -3.70892 0
M  V30 17844 H 1755.11 -3.30199 -4.07515 0
M  V30 17845 H 1756.58 -1.97539 -5.15444 0
M  V30 17846 H 1757.06 -0.473305 -4.36642 0
M  V30 17847 H 1757.67 -2.02396 -3.74054 0
M  V30 17848 N 1755.98 1.20536 -1.01532 0
M  V30 17849 C 1756.95 2.21495 -0.589298 0
M  V30 17850 C 1757.95 1.57167 0.339871 0
M  V30 17851 O 1759.14 1.73724 0.128736 0
M  V30 17852 C 1756.27 3.40614 0.139623 0
M  V30 17853 H 1757.46 2.607 -1.48241 0
M  V30 17854 H 1755.01 1.33977 -0.804977 0
M  V30 17855 H 1755.75 3.0691 1.04771 0
M  V30 17856 H 1755.53 3.88531 -0.52785 0
M  V30 17857 H 1757.02 4.15431 0.425083 0
M  V30 17858 N 1757.46 0.791395 1.36289 0
M  V30 17859 C 1758.69 0.375566 2.03971 0
M  V30 17860 C 1759.11 -1.00061 1.59277 0
M  V30 17861 O 1758.47 -1.64501 0.762182 0
M  V30 17862 C 1758.52 0.449891 3.57783 0
M  V30 17863 O 1757.62 -0.54243 4.08817 0
M  V30 17864 H 1756.96 0.159181 0.644637 0
M  V30 17865 H 1759.49 1.07306 1.74203 0
M  V30 17866 H 1759.5 0.314206 4.06788 0
M  V30 17867 H 1758.18 1.45377 3.89665 0
M  V30 17868 H 1756.75 -0.368243 3.71077 0
M  V30 17869 N 1758.94 -1.47929 0.54358 0
M  V30 17870 C 1759.87 -2.27843 -0.249005 0
M  V30 17871 C 1760.88 -1.36189 -0.891987 0
M  V30 17872 O 1762.07 -1.61127 -0.768135 0
M  V30 17873 C 1759.17 -3.10016 -1.36906 0
M  V30 17874 C 1758.35 -4.29541 -0.82545 0
M  V30 17875 C 1757.41 -4.93416 -1.82831 0
M  V30 17876 O 1756.43 -5.52222 -1.37984 0
M  V30 17877 N 1757.63 -4.86881 -3.16113 0
M  V30 17878 H 1760.4 -2.96505 0.436436 0
M  V30 17879 H 1757.96 -1.57407 0.378774 0
M  V30 17880 H 1759.95 -3.49616 -2.0384 0
M  V30 17881 H 1758.52 -2.43686 -1.95796 0
M  V30 17882 H 1757.74 -3.94195 0.0202776 0
M  V30 17883 H 1759.03 -5.06882 -0.441368 0
M  V30 17884 H 1758.43 -4.4028 -3.55205 0
M  V30 17885 H 1756.98 -5.30541 -3.78642 0
M  V30 17886 N 1760.42 -0.27936 -1.55104 0
M  V30 17887 C 1761.66 0.336205 -1.9969 0
M  V30 17888 C 1761.99 1.55542 -1.16777 0
M  V30 17889 O 1761.25 1.94385 -0.226497 0
M  V30 17890 C 1761.55 0.758312 -3.49263 0
M  V30 17891 C 1761.21 -0.356741 -4.49487 0
M  V30 17892 C 1759.87 -0.662905 -4.76612 0
M  V30 17893 C 1762.23 -1.10789 -5.09289 0
M  V30 17894 C 1759.55 -1.72373 -5.60807 0
M  V30 17895 C 1761.91 -2.15847 -5.94637 0
M  V30 17896 C 1760.57 -2.47094 -6.20081 0
M  V30 17897 H 1759.84 0.123026 -0.730716 0
M  V30 17898 H 1762.49 -0.393956 -1.87404 0
M  V30 17899 H 1760.79 1.56822 -3.59046 0
M  V30 17900 H 1762.49 1.24541 -3.8117 0
M  V30 17901 H 1759.08 -0.107997 -4.28464 0
M  V30 17902 H 1763.26 -0.884619 -4.88353 0
M  V30 17903 H 1758.52 -1.97079 -5.78766 0
M  V30 17904 H 1762.69 -2.74523 -6.40008 0
M  V30 17905 H 1760.32 -3.29428 -6.85114 0
M  V30 17906 N 1761.9 1.57599 -0.0067085 0
M  V30 17907 C 1762.84 2.08842 0.982532 0
M  V30 17908 C 1763.81 0.985339 1.33717 0
M  V30 17909 O 1765 1.25818 1.43438 0
M  V30 17910 C 1762.14 2.60188 2.26708 0
M  V30 17911 C 1761.25 3.84422 1.97087 0
M  V30 17912 C 1760.39 4.24244 3.19672 0
M  V30 17913 C 1759.42 5.41297 2.85769 0
M  V30 17914 N 1758.56 5.76381 4.00911 0
M  V30 17915 H 1763.4 2.93092 0.538618 0
M  V30 17916 H 1760.94 1.44885 0.254293 0
M  V30 17917 H 1762.9 2.88038 3.01811 0
M  V30 17918 H 1761.53 1.78802 2.68756 0
M  V30 17919 H 1760.58 3.63439 1.12323 0
M  V30 17920 H 1761.89 4.6962 1.68102 0
M  V30 17921 H 1761.04 4.53413 4.03115 0
M  V30 17922 H 1759.78 3.37769 3.518 0
M  V30 17923 H 1758.79 5.11846 2.00734 0
M  V30 17924 H 1760.01 6.29454 2.54881 0
M  V30 17925 H 1757.96 4.92863 4.32923 0
M  V30 17926 H 1757.88 6.56168 3.75473 0
M  V30 17927 H 1759.14 6.10144 4.85123 0
M  V30 17928 N 1763.37 -0.266145 1.55336 0
M  V30 17929 C 1764.61 -1.0044 1.7802 0
M  V30 17930 C 1764.98 -1.83247 0.573099 0
M  V30 17931 O 1766.18 -2.601 0.67832 0
M  V30 17932 C 1764.45 -1.85798 3.05309 0
M  V30 17933 S 1766.01 -2.65796 3.49139 0
M  V30 17934 H 1762.83 -0.338177 0.625426 0
M  V30 17935 H 1765.43 -0.274137 1.93568 0
M  V30 17936 H 1764.13 -1.23901 3.9125 0
M  V30 17937 H 1763.66 -2.63133 2.92446 0
M  V30 17938 H 1765.68 -3.88281 3.08953 0
M  V30 17939 N 1764.85 -1.48386 -0.530967 0
M  V30 17940 C 1765.81 -1.62355 -1.61782 0
M  V30 17941 C 1766.81 -0.496909 -1.5293 0
M  V30 17942 O 1768 -0.762672 -1.56617 0
M  V30 17943 C 1765.14 -1.59282 -3.014 0
M  V30 17944 H 1766.33 -2.59265 -1.50737 0
M  V30 17945 H 1763.88 -1.36969 -0.752948 0
M  V30 17946 H 1764.62 -0.638453 -3.17953 0
M  V30 17947 H 1764.4 -2.41073 -3.09235 0
M  V30 17948 H 1765.89 -1.72248 -3.80421 0
M  V30 17949 N 1766.33 0.779763 -1.36958 0
M  V30 17950 C 1767.55 1.57389 -1.35068 0
M  V30 17951 C 1767.98 1.87993 0.0635244 0
M  V30 17952 O 1767.34 1.48625 1.03828 0
M  V30 17953 C 1767.39 2.86582 -2.18868 0
M  V30 17954 O 1766.49 3.80609 -1.58779 0
M  V30 17955 H 1765.83 0.477052 -0.461863 0
M  V30 17956 H 1768.36 0.965741 -1.80373 0
M  V30 17957 H 1768.37 3.35761 -2.31794 0
M  V30 17958 H 1767.05 2.63635 -3.21666 0
M  V30 17959 H 1765.62 3.39229 -1.54848 0
M  V30 17960 N 1767.81 1.21396 1.00503 0
M  V30 17961 C 1769.06 1.02913 1.73935 0
M  V30 17962 C 1769.38 -0.438329 1.9001 0
M  V30 17963 O 1768.65 -1.31618 1.45098 0
M  V30 17964 H 1767.23 0.377813 0.644412 0
M  V30 17965 H 1769.89 1.52704 1.21109 0
M  V30 17966 H 1768.98 1.49705 2.73852 0
M  V30 17967 N 1769.29 -1.19996 1.0217 0
M  V30 17968 C 1770.56 -1.85214 0.628894 0
M  V30 17969 C 1770.94 -1.91292 -0.892784 0
M  V30 17970 O 1770.29 -1.42455 -1.78658 0
M  V30 17971 C 1770.5 -3.24576 1.28262 0
M  V30 17972 C 1771.85 -4.0081 1.4013 0
M  V30 17973 O 1772.87 -3.33948 1.23923 0
M  V30 17974 O 1771.73 -5.20561 1.66368 0
M  V30 17975 H 1768.83 -0.797842 0.217664 0
M  V30 17976 H 1771.37 -1.27544 1.1194 0
M  V30 17977 H 1770.14 -3.14947 2.32216 0
M  V30 17978 H 1769.77 -3.89884 0.77952 0
M  V30 17979 N 1770.76 -0.798611 -1.35867 0
M  V30 17980 C 1771.71 -0.201442 -2.29919 0
M  V30 17981 C 1772.68 0.659971 -1.52426 0
M  V30 17982 O 1773.87 0.606726 -1.80896 0
M  V30 17983 C 1771.01 0.650427 -3.38915 0
M  V30 17984 C 1770.12 -0.230539 -4.31384 0
M  V30 17985 C 1769.25 0.628575 -5.27468 0
M  V30 17986 C 1768.29 -0.253282 -6.11576 0
M  V30 17987 N 1767.43 0.565343 -6.9982 0
M  V30 17988 H 1772.27 -1.00892 -2.80401 0
M  V30 17989 H 1769.81 -0.509085 -1.3801 0
M  V30 17990 H 1771.76 1.15941 -4.00766 0
M  V30 17991 H 1770.39 1.42325 -2.8973 0
M  V30 17992 H 1769.45 -0.85756 -3.70608 0
M  V30 17993 H 1770.76 -0.909635 -4.90436 0
M  V30 17994 H 1769.91 1.203 -5.94653 0
M  V30 17995 H 1768.65 1.34127 -4.68894 0
M  V30 17996 H 1767.66 -0.84004 -5.43345 0
M  V30 17997 H 1768.88 -0.963713 -6.72227 0
M  V30 17998 H 1766.83 1.26216 -6.43743 0
M  V30 17999 H 1766.74 -0.0558752 -7.55979 0
M  V30 18000 H 1768.01 1.1233 -7.71364 0
M  V30 18001 N 1772.24 1.47639 -0.551417 0
M  V30 18002 C 1773.48 2.04382 -0.0274854 0
M  V30 18003 C 1773.85 1.41714 1.29542 0
M  V30 18004 O 1775.05 1.8947 1.90669 0
M  V30 18005 C 1773.32 3.57332 0.0698769 0
M  V30 18006 S 1774.88 4.35455 0.540771 0
M  V30 18007 H 1771.69 0.710648 -0.0223553 0
M  V30 18008 H 1774.3 1.81083 -0.73684 0
M  V30 18009 H 1773 4.00468 -0.897406 0
M  V30 18010 H 1772.53 3.85118 0.802962 0
M  V30 18011 H 1774.55 4.62342 1.80152 0
M  V30 18012 N 1773.72 0.287581 1.54954 0
M  V30 18013 C 1774.97 -0.326315 1.99043 0
M  V30 18014 C 1775.28 -1.56033 1.17954 0
M  V30 18015 O 1776.49 -2.24797 1.52246 0
M  V30 18016 C 1774.94 -0.631918 3.54309 0
M  V30 18017 C 1774.55 0.582998 4.4419 0
M  V30 18018 C 1776.3 -1.20775 4.06957 0
M  V30 18019 C 1774.2 0.251291 5.90866 0
M  V30 18020 H 1773.13 -0.125703 0.743448 0
M  V30 18021 H 1775.78 0.394188 1.79216 0
M  V30 18022 H 1774.17 -1.41166 3.69984 0
M  V30 18023 H 1775.34 1.35957 4.40287 0
M  V30 18024 H 1773.66 1.07653 4.02243 0
M  V30 18025 H 1776.25 -1.46995 5.14098 0
M  V30 18026 H 1776.6 -2.14569 3.56743 0
M  V30 18027 H 1777.13 -0.490021 3.9477 0
M  V30 18028 H 1773.87 1.15744 6.452 0
M  V30 18029 H 1773.39 -0.488274 5.97809 0
M  V30 18030 H 1775.07 -0.152008 6.46821 0
M  V30 18031 N 1775.2 -1.57593 0.0150662 0
M  V30 18032 C 1776.45 -1.90836 -0.665282 0
M  V30 18033 C 1776.77 -0.890693 -1.73469 0
M  V30 18034 O 1776.04 0.0698113 -1.95776 0
M  V30 18035 H 1774.62 -0.704377 -0.24872 0
M  V30 18036 H 1777.28 -1.94809 0.0595521 0
M  V30 18037 H 1776.38 -2.91043 -1.12697 0
M  V30 18038 N 1776.68 0.257904 -1.55475 0
M  V30 18039 C 1777.92 0.988933 -1.77054 0
M  V30 18040 C 1778.26 1.85387 -0.578375 0
M  V30 18041 O 1777.53 1.8983 0.423673 0
M  V30 18042 C 1777.81 1.85876 -3.08419 0
M  V30 18043 C 1777.67 1.02274 -4.38018 0
M  V30 18044 C 1778.99 2.84322 -3.3593 0
M  V30 18045 H 1776.1 0.358103 -0.644152 0
M  V30 18046 H 1778.75 0.260209 -1.8821 0
M  V30 18047 H 1776.9 2.48008 -2.99039 0
M  V30 18048 H 1778.57 0.420967 -4.59375 0
M  V30 18049 H 1776.81 0.326705 -4.32568 0
M  V30 18050 H 1777.48 1.6649 -5.26294 0
M  V30 18051 H 1779.96 2.32325 -3.45202 0
M  V30 18052 H 1778.83 3.42313 -4.29084 0
M  V30 18053 H 1779.1 3.60223 -2.56304 0
M  V30 18054 N 1778.15 1.48666 0.52309 0
M  V30 18055 C 1779.38 1.60707 1.30311 0
M  V30 18056 C 1779.8 0.269941 1.8686 0
M  V30 18057 O 1779.15 -0.741714 1.66748 0
M  V30 18058 C 1779.21 2.65899 2.44908 0
M  V30 18059 O 1778.93 3.94423 1.90688 0
M  V30 18060 C 1780.43 2.88443 3.36624 0
M  V30 18061 H 1777.65 0.541661 0.396035 0
M  V30 18062 H 1780.19 1.94544 0.630322 0
M  V30 18063 H 1778.35 2.34902 3.08058 0
M  V30 18064 H 1778.76 4.5219 2.65753 0
M  V30 18065 H 1780.23 3.65831 4.13366 0
M  V30 18066 H 1780.71 1.97524 3.92277 0
M  V30 18067 H 1781.32 3.20771 2.7926 0
M  V30 18068 N 1779.63 -0.772489 1.37369 0
M  V30 18069 C 1780.58 -1.90713 1.33158 0
M  V30 18070 C 1781.57 -1.67959 0.220482 0
M  V30 18071 O 1782.78 -1.75758 0.388465 0
M  V30 18072 H 1779.16 -0.627149 0.414956 0
M  V30 18073 H 1781.13 -1.91382 2.28944 0
M  V30 18074 C 1779.88 -3.27966 1.1547 0
M  V30 18075 H 1779.2 -3.46052 2.00221 0
M  V30 18076 H 1780.64 -4.0766 1.16574 0
M  V30 18077 C 1779.1 -3.3661 -0.139688 0
M  V30 18078 O 1779.63 -3.85668 -1.12353 0
M  V30 18079 N 1777.83 -2.89977 -0.190134 0
M  V30 18080 H 1777.38 -2.50246 0.611134 0
M  V30 18081 H 1777.34 -2.96142 -1.05582 0
M  V30 18082 N 1781.11 -1.21927 -0.998575 0
M  V30 18083 C 1782.53 -0.978007 -1.26124 0
M  V30 18084 C 1782.73 0.3318 -1.98749 0
M  V30 18085 O 1781.78 1.05585 -2.29364 0
M  V30 18086 C 1783.1 -2.17291 -2.07858 0
M  V30 18087 C 1784.64 -2.21586 -2.21062 0
M  V30 18088 C 1785.12 -3.40613 -3.06181 0
M  V30 18089 N 1786.61 -3.40739 -3.13769 0
M  V30 18090 C 1787.34 -4.29488 -3.79905 0
M  V30 18091 N 1786.84 -5.28445 -4.48015 0
M  V30 18092 N 1788.63 -4.17279 -3.76609 0
M  V30 18093 H 1780.78 -2.06149 -0.51151 0
M  V30 18094 H 1783.05 -0.903039 -0.288487 0
M  V30 18095 H 1782.75 -3.12246 -1.61851 0
M  V30 18096 H 1782.63 -2.16883 -3.08612 0
M  V30 18097 H 1785.01 -1.27183 -2.66286 0
M  V30 18098 H 1785.1 -2.26035 -1.19757 0
M  V30 18099 H 1784.74 -4.35313 -2.61659 0
M  V30 18100 H 1784.67 -3.33403 -4.07615 0
M  V30 18101 H 1787.16 -2.69128 -2.65289 0
M  V30 18102 H 1787.47 -5.92454 -4.96203 0
M  V30 18103 H 1785.82 -5.32364 -4.46782 0
M  V30 18104 H 1789.01 -3.39226 -3.22557 0
M  V30 18105 H 1789.18 -4.86651 -4.27873 0
M  V30 18106 N 1782.59 1.19452 -1.02805 0
M  V30 18107 C 1783.83 1.90815 -0.732731 0
M  V30 18108 C 1784.19 1.77774 0.725275 0
M  V30 18109 O 1785.39 2.43726 1.13363 0
M  V30 18110 C 1783.66 3.37692 -1.17042 0
M  V30 18111 S 1785.22 4.27281 -0.998818 0
M  V30 18112 H 1782.04 0.65905 -0.266784 0
M  V30 18113 H 1784.64 1.44418 -1.31771 0
M  V30 18114 H 1783.35 3.44708 -2.2272 0
M  V30 18115 H 1782.88 3.8912 -0.5787 0
M  V30 18116 H 1784.89 4.96116 0.0911076 0
M  V30 18117 N 1784.07 0.805805 1.35442 0
M  V30 18118 C 1785.34 0.309105 1.93142 0
M  V30 18119 C 1785.72 -1.20119 1.73593 0
M  V30 18120 O 1785.07 -2.00034 1.10448 0
M  V30 18121 C 1785.28 0.719653 3.415 0
M  V30 18122 C 1786.63 0.708697 4.18644 0
M  V30 18123 O 1787.65 0.661148 3.5001 0
M  V30 18124 O 1786.51 0.76636 5.411 0
M  V30 18125 H 1783.61 0.0806647 0.823057 0
M  V30 18126 H 1786.15 0.88945 1.44523 0
M  V30 18127 H 1784.92 1.7606 3.49455 0
M  V30 18128 H 1784.55 0.114073 3.97436 0
M  V30 18129 N 1785.54 -1.47344 0.559239 0
M  V30 18130 C 1786.79 -2.02068 0.035872 0
M  V30 18131 C 1787.11 -1.43573 -1.31953 0
M  V30 18132 O 1786.38 -0.611672 -1.86106 0
M  V30 18133 H 1784.96 -0.746929 0.0102713 0
M  V30 18134 H 1787.63 -1.80724 0.729707 0
M  V30 18135 H 1786.72 -3.12059 -0.0507123 0
M  V30 18136 N 1787.02 -0.295795 -1.54799 0
M  V30 18137 C 1788.27 0.315473 -2.00331 0
M  V30 18138 C 1788.6 1.53939 -1.18392 0
M  V30 18139 O 1787.88 1.92767 -0.259086 0
M  V30 18140 C 1788.16 0.677227 -3.53674 0
M  V30 18141 C 1788.01 -0.555462 -4.46357 0
M  V30 18142 C 1789.33 1.50576 -4.1354 0
M  V30 18143 H 1786.45 0.113191 -0.728256 0
M  V30 18144 H 1789.09 -0.406858 -1.85593 0
M  V30 18145 H 1787.24 1.29264 -3.66365 0
M  V30 18146 H 1788.91 -1.19397 -4.45581 0
M  V30 18147 H 1787.16 -1.18968 -4.17168 0
M  V30 18148 H 1787.83 -0.25828 -5.51395 0
M  V30 18149 H 1790.3 0.985819 -4.04253 0
M  V30 18150 H 1789.18 1.72766 -5.21002 0
M  V30 18151 H 1789.44 2.49334 -3.65082 0
M  V30 18152 N 1788.5 1.57583 -0.0234236 0
M  V30 18153 C 1789.75 1.91565 0.656449 0
M  V30 18154 C 1790.08 0.899298 1.72461 0
M  V30 18155 O 1789.33 -0.0926107 1.95481 0
M  V30 18156 C 1789.63 3.32283 1.31616 0
M  V30 18157 C 1789.3 4.49305 0.378925 0
M  V30 18158 C 1787.96 4.81048 0.120945 0
M  V30 18159 C 1790.31 5.20526 -0.264985 0
M  V30 18160 C 1787.64 5.81373 -0.788846 0
M  V30 18161 C 1789.99 6.21821 -1.1628 0
M  V30 18162 C 1788.65 6.52009 -1.42972 0
M  V30 18163 H 1787.92 0.700985 0.240212 0
M  V30 18164 H 1790.57 1.91316 -0.0839711 0
M  V30 18165 H 1788.88 3.28766 2.13119 0
M  V30 18166 H 1790.57 3.55845 1.84866 0
M  V30 18167 H 1787.16 4.24517 0.590173 0
M  V30 18168 H 1791.35 4.96238 -0.0787258 0
M  V30 18169 H 1786.6 6.0311 -1.00341 0
M  V30 18170 H 1790.78 6.7613 -1.66796 0
M  V30 18171 H 1788.4 7.29564 -2.13636 0
M  V30 18172 N 1789.98 -0.249655 1.5561 0
M  V30 18173 C 1791.26 -1.00075 1.68061 0
M  V30 18174 C 1791.64 -2.03468 0.562492 0
M  V30 18175 O 1790.98 -2.24332 -0.434424 0
M  V30 18176 C 1791.19 -1.63657 3.08249 0
M  V30 18177 C 1792.54 -2.13946 3.66759 0
M  V30 18178 O 1793.57 -1.73603 3.11031 0
M  V30 18179 O 1792.43 -2.88012 4.64447 0
M  V30 18180 H 1789.52 -0.465648 0.683448 0
M  V30 18181 H 1792.07 -0.243659 1.67942 0
M  V30 18182 H 1790.84 -0.888572 3.81078 0
M  V30 18183 H 1790.46 -2.45993 3.12367 0
M  V30 18184 N 1791.46 -1.48941 -0.515198 0
M  V30 18185 C 1792.7 -1.59318 -1.28052 0
M  V30 18186 C 1793.06 -0.26749 -1.90128 0
M  V30 18187 O 1794.26 -0.246338 -2.67669 0
M  V30 18188 C 1792.53 -2.71033 -2.32972 0
M  V30 18189 S 1794.09 -3.01271 -3.19032 0
M  V30 18190 H 1790.91 -0.56211 -0.435378 0
M  V30 18191 H 1793.51 -1.86534 -0.585253 0
M  V30 18192 H 1792.22 -3.65895 -1.85873 0
M  V30 18193 H 1791.75 -2.45765 -3.07186 0
M  V30 18194 H 1793.76 -2.41702 -4.33353 0
M  V30 18195 N 1792.94 0.765193 -1.37777 0
M  V30 18196 C 1794.16 1.55948 -1.3673 0
M  V30 18197 C 1794.59 1.8805 0.0435817 0
M  V30 18198 O 1793.94 1.49718 1.02246 0
M  V30 18199 C 1793.99 2.84245 -2.21895 0
M  V30 18200 O 1793.1 3.78903 -1.62807 0
M  V30 18201 H 1792.44 0.472127 -0.466897 0
M  V30 18202 H 1794.97 0.946556 -1.81388 0
M  V30 18203 H 1794.98 3.33284 -2.35342 0
M  V30 18204 H 1793.65 2.60209 -3.24444 0
M  V30 18205 H 1792.23 3.37568 -1.58437 0
M  V30 18206 N 1794.41 1.22455 0.992094 0
M  V30 18207 C 1795.69 0.958091 1.70529 0
M  V30 18208 C 1796.07 -0.526595 2.04426 0
M  V30 18209 O 1795.42 -1.49483 1.72821 0
M  V30 18210 C 1795.63 1.85646 2.95528 0
M  V30 18211 C 1796.98 2.11301 3.68289 0
M  V30 18212 O 1798 1.831 3.05537 0
M  V30 18213 O 1796.86 2.59068 4.81192 0
M  V30 18214 H 1793.95 0.360375 0.744351 0
M  V30 18215 H 1796.5 1.33444 1.04837 0
M  V30 18216 H 1795.27 2.86067 2.66986 0
M  V30 18217 H 1794.89 1.48174 3.68958 0
M  V30 18218 N 1795.89 -1.18905 1.03437 0
M  V30 18219 C 1796.84 -2.24362 0.613557 0
M  V30 18220 C 1797.83 -1.65605 -0.356541 0
M  V30 18221 O 1799.04 -1.78594 -0.22452 0
M  V30 18222 H 1795.41 -0.730098 0.18017 0
M  V30 18223 H 1797.39 -2.57168 1.51351 0
M  V30 18224 C 1796.13 -3.47697 -0.0141125 0
M  V30 18225 H 1795.46 -3.93201 0.723394 0
M  V30 18226 H 1796.9 -4.2313 -0.271424 0
M  V30 18227 C 1795.36 -3.12357 -1.26232 0
M  V30 18228 O 1795.89 -3.25515 -2.35378 0
M  V30 18229 N 1794.09 -2.6674 -1.15318 0
M  V30 18230 H 1793.64 -2.56233 -0.26501 0
M  V30 18231 H 1793.6 -2.43466 -1.98927 0
M  V30 18232 N 1797.37 -0.812977 -1.35013 0
M  V30 18233 C 1798.59 -0.407969 -2.03348 0
M  V30 18234 C 1799.02 0.975148 -1.60849 0
M  V30 18235 O 1798.38 1.63267 -0.788256 0
M  V30 18236 C 1798.43 -0.506754 -3.57022 0
M  V30 18237 O 1797.53 0.477322 -4.09628 0
M  V30 18238 H 1796.87 -0.169416 -0.642023 0
M  V30 18239 H 1799.4 -1.10064 -1.72474 0
M  V30 18240 H 1799.41 -0.378883 -4.06237 0
M  V30 18241 H 1798.09 -1.51557 -3.87302 0
M  V30 18242 H 1796.66 0.309161 -3.71616 0
M  V30 18243 N 1798.85 1.47045 -0.567045 0
M  V30 18244 C 1800.12 1.9559 0.0194544 0
M  V30 18245 C 1800.5 1.5097 1.47551 0
M  V30 18246 O 1799.85 0.753072 2.15734 0
M  V30 18247 C 1800.06 3.48734 -0.136263 0
M  V30 18248 C 1801.41 4.246 0.00401745 0
M  V30 18249 O 1802.43 3.56142 -0.0643042 0
M  V30 18250 O 1801.29 5.46287 0.152706 0
M  V30 18251 H 1798.39 0.82492 0.0586233 0
M  V30 18252 H 1800.93 1.57401 -0.634262 0
M  V30 18253 H 1799.71 3.74048 -1.14909 0
M  V30 18254 H 1799.33 3.93713 0.554612 0
M  V30 18255 N 1800.33 0.304 1.5464 0
M  V30 18256 C 1801.24 -0.580159 2.27313 0
M  V30 18257 C 1802.25 -1.14588 1.30941 0
M  V30 18258 O 1803.43 -1.17002 1.63928 0
M  V30 18259 C 1800.49 -1.73437 3.00201 0
M  V30 18260 C 1799.55 -1.20243 4.12116 0
M  V30 18261 C 1798.79 -2.30164 4.81519 0
M  V30 18262 O 1799.01 -3.50123 4.503 0
M  V30 18263 O 1797.94 -1.96686 5.68857 0
M  V30 18264 H 1801.77 0.00944552 3.03699 0
M  V30 18265 H 1799.35 0.0703565 1.49234 0
M  V30 18266 H 1801.24 -2.40677 3.45908 0
M  V30 18267 H 1799.91 -2.31053 2.26708 0
M  V30 18268 H 1798.82 -0.495679 3.70802 0
M  V30 18269 H 1800.15 -0.67167 4.87596 0
M  V30 18270 N 1801.8 -1.57568 0.0317802 0
M  V30 18271 C 1802.77 -2.09296 -0.934239 0
M  V30 18272 C 1803.77 -1.00855 -1.25239 0
M  V30 18273 O 1804.96 -1.27004 -1.19229 0
M  V30 18274 C 1802.09 -2.56103 -2.24998 0
M  V30 18275 H 1803.28 -2.95933 -0.486183 0
M  V30 18276 H 1800.83 -1.54796 -0.2163 0
M  V30 18277 H 1801.57 -1.72803 -2.74426 0
M  V30 18278 H 1801.35 -3.35329 -2.03216 0
M  V30 18279 H 1802.84 -2.96339 -2.94233 0
M  V30 18280 N 1803.28 0.241399 -1.5574 0
M  V30 18281 C 1804.53 0.96675 -1.77478 0
M  V30 18282 C 1804.85 1.85644 -0.596757 0
M  V30 18283 O 1804.12 1.92035 0.387236 0
M  V30 18284 H 1802.7 0.35995 -0.654557 0
M  V30 18285 H 1805.36 0.258023 -1.93185 0
M  V30 18286 H 1804.46 1.58524 -2.68843 0
M  V30 18287 N 1804.76 1.49212 0.507292 0
M  V30 18288 C 1806 1.59994 1.27205 0
M  V30 18289 C 1806.36 0.277569 1.89983 0
M  V30 18290 O 1807.57 0.260529 2.67534 0
M  V30 18291 C 1805.84 2.72265 2.31531 0
M  V30 18292 S 1807.4 3.02958 3.1743 0
M  V30 18293 H 1804.21 0.564411 0.432391 0
M  V30 18294 H 1806.82 1.86842 0.575353 0
M  V30 18295 H 1805.52 3.66876 1.8393 0
M  V30 18296 H 1805.05 2.4739 3.05878 0
M  V30 18297 H 1807.07 2.43996 4.32065 0
M  V30 18298 N 1806.24 -0.757876 1.38181 0
M  V30 18299 C 1807.65 -1.33496 1.30521 0
M  V30 18300 C 1808 -1.96157 -0.0409405 0
M  V30 18301 O 1807.13 -1.94775 -0.942957 0
M  V30 18302 C 1807.72 -2.42725 2.36369 0
M  V30 18303 C 1806.28 -2.96165 2.323 0
M  V30 18304 C 1805.43 -1.69505 2.19461 0
M  V30 18305 H 1808.38 -0.557075 1.48601 0
M  V30 18306 H 1808.4 -3.22556 2.01836 0
M  V30 18307 H 1807.91 -1.97089 3.34331 0
M  V30 18308 H 1806.01 -3.4614 1.37904 0
M  V30 18309 H 1806.12 -3.50836 3.26269 0
M  V30 18310 H 1804.49 -1.92967 1.66241 0
M  V30 18311 H 1805.27 -1.25954 3.1936 0
M  V30 18312 N 1807.72 -1.22979 -0.985586 0
M  V30 18313 C 1808.94 -1.0853 -1.7615 0
M  V30 18314 C 1809.36 0.36363 -1.85265 0
M  V30 18315 O 1808.72 1.25173 -1.32808 0
M  V30 18316 C 1808.77 -1.69872 -3.19101 0
M  V30 18317 O 1808.49 -3.09098 -3.10467 0
M  V30 18318 C 1809.99 -1.60795 -4.1311 0
M  V30 18319 H 1807.21 -0.380086 -0.55297 0
M  V30 18320 H 1809.75 -1.62724 -1.2386 0
M  V30 18321 H 1807.91 -1.19724 -3.68436 0
M  V30 18322 H 1808.32 -3.38769 -4.00419 0
M  V30 18323 H 1809.8 -2.08428 -5.11138 0
M  V30 18324 H 1810.27 -0.565817 -4.3554 0
M  V30 18325 H 1810.88 -2.10284 -3.69676 0
M  V30 18326 N 1809.19 1.18355 -1.04066 0
M  V30 18327 C 1810.61 1.40349 -0.759898 0
M  V30 18328 C 1810.81 1.90709 0.650574 0
M  V30 18329 O 1809.87 2.09142 1.41477 0
M  V30 18330 C 1811.18 2.40426 -1.80599 0
M  V30 18331 C 1812.73 2.54153 -1.8269 0
M  V30 18332 C 1813.2 3.57494 -2.8629 0
M  V30 18333 N 1814.69 3.65001 -2.85181 0
M  V30 18334 C 1815.43 4.44688 -3.61995 0
M  V30 18335 N 1814.92 5.27984 -4.48559 0
M  V30 18336 N 1816.72 4.39451 -3.50484 0
M  V30 18337 H 1808.87 0.839924 -1.95087 0
M  V30 18338 H 1811.13 0.431492 -0.844108 0
M  V30 18339 H 1810.84 2.10471 -2.81771 0
M  V30 18340 H 1810.71 3.39773 -1.63812 0
M  V30 18341 H 1813.1 2.83424 -0.821889 0
M  V30 18342 H 1813.18 1.54919 -2.03553 0
M  V30 18343 H 1812.82 3.28963 -3.8697 0
M  V30 18344 H 1812.75 4.56405 -2.62682 0
M  V30 18345 H 1815.24 3.05522 -2.22407 0
M  V30 18346 H 1815.56 5.85939 -5.0388 0
M  V30 18347 H 1813.9 5.27404 -4.52626 0
M  V30 18348 H 1817.09 3.73426 -2.8226 0
M  V30 18349 H 1817.27 5.01313 -4.10596 0
M  V30 18350 N 1810.67 0.820125 1.3458 0
M  V30 18351 C 1812.08 0.466064 1.80789 0
M  V30 18352 C 1812.43 -1.01327 1.6801 0
M  V30 18353 O 1811.56 -1.78835 1.21849 0
M  V30 18354 C 1812.15 0.839192 3.28242 0
M  V30 18355 C 1810.71 0.53754 3.72542 0
M  V30 18356 C 1809.86 1.0576 2.5634 0
M  V30 18357 H 1812.81 1.01055 1.22366 0
M  V30 18358 H 1812.83 0.141897 3.80235 0
M  V30 18359 H 1812.34 1.91592 3.37512 0
M  V30 18360 H 1810.45 -0.529895 3.68813 0
M  V30 18361 H 1810.56 1.07964 4.66777 0
M  V30 18362 H 1808.92 0.479275 2.5015 0
M  V30 18363 H 1809.71 2.14072 2.68381 0
M  V30 18364 N 1812.15 -1.46743 0.574835 0
M  V30 18365 C 1813.56 -1.86127 0.146143 0
M  V30 18366 C 1813.91 -1.47938 -1.28875 0
M  V30 18367 O 1813.04 -0.890593 -1.97224 0
M  V30 18368 C 1813.63 -3.37813 0.258447 0
M  V30 18369 C 1812.19 -3.76223 -0.115322 0
M  V30 18370 C 1811.34 -2.70775 0.597997 0
M  V30 18371 H 1814.29 -1.38009 0.783526 0
M  V30 18372 H 1814.31 -3.76953 -0.51831 0
M  V30 18373 H 1813.82 -3.65577 1.30288 0
M  V30 18374 H 1811.92 -3.54077 -1.16019 0
M  V30 18375 H 1812.04 -4.78418 0.255513 0
M  V30 18376 H 1810.4 -2.5467 0.039113 0
M  V30 18377 H 1811.18 -3.0138 1.64393 0
M  V30 18378 N 1813.63 -0.312197 -1.54477 0
M  V30 18379 C 1814.88 0.293192 -1.99962 0
M  V30 18380 C 1815.2 1.53544 -1.20205 0
M  V30 18381 O 1814.47 1.93575 -0.300901 0
M  V30 18382 H 1813.05 0.111325 -0.738658 0
M  V30 18383 H 1815.71 -0.426116 -1.90185 0
M  V30 18384 H 1814.81 0.557482 -3.07081 0
M  V30 18385 N 1815.11 1.57549 -0.040136 0
M  V30 18386 C 1816.04 2.06413 0.973089 0
M  V30 18387 C 1817.02 0.962235 1.31072 0
M  V30 18388 O 1818.2 1.23337 1.42549 0
M  V30 18389 C 1815.33 2.49541 2.29013 0
M  V30 18390 C 1814.37 3.70858 2.10634 0
M  V30 18391 S 1815.21 5.17013 1.39493 0
M  V30 18392 C 1816.36 5.63445 2.72544 0
M  V30 18393 H 1816.6 2.92032 0.557186 0
M  V30 18394 H 1814.13 1.53441 0.171846 0
M  V30 18395 H 1816.09 2.75052 3.04723 0
M  V30 18396 H 1814.75 1.64247 2.67734 0
M  V30 18397 H 1813.94 3.98918 3.08027 0
M  V30 18398 H 1813.54 3.45555 1.43065 0
M  V30 18399 H 1815.84 5.68357 3.68749 0
M  V30 18400 H 1816.78 6.62826 2.49134 0
M  V30 18401 H 1817.19 4.91133 2.78296 0
M  V30 18402 N 1816.58 -0.233136 1.55866 0
M  V30 18403 C 1817.82 -0.966418 1.8011 0
M  V30 18404 C 1818.19 -1.8199 0.61184 0
M  V30 18405 O 1819.39 -2.58603 0.733339 0
M  V30 18406 C 1817.66 -1.7928 3.09182 0
M  V30 18407 S 1819.22 -2.5833 3.54698 0
M  V30 18408 H 1816.04 -0.324835 0.632458 0
M  V30 18409 H 1818.64 -0.233016 1.94106 0
M  V30 18410 H 1817.34 -1.15574 3.9379 0
M  V30 18411 H 1816.87 -2.56871 2.97961 0
M  V30 18412 H 1818.89 -3.81641 3.17119 0
M  V30 18413 N 1818.06 -1.49479 -0.499372 0
M  V30 18414 C 1819.01 -1.62662 -1.59766 0
M  V30 18415 C 1820 -0.482218 -1.53504 0
M  V30 18416 O 1821.19 -0.735252 -1.61006 0
M  V30 18417 C 1818.32 -1.69797 -2.98368 0
M  V30 18418 C 1817.4 -2.8982 -3.09621 0
M  V30 18419 N 1817.8 -4.13876 -2.90758 0
M  V30 18420 C 1816.09 -2.87791 -3.40723 0
M  V30 18421 C 1816.79 -4.94566 -3.06235 0
M  V30 18422 N 1815.77 -4.27963 -3.35184 0
M  V30 18423 H 1819.57 -2.56296 -1.43839 0
M  V30 18424 H 1817.09 -1.46274 -0.705532 0
M  V30 18425 H 1819.08 -1.7734 -3.77301 0
M  V30 18426 H 1817.74 -0.773015 -3.15364 0
M  V30 18427 H 1818.75 -4.43829 -2.669 0
M  V30 18428 H 1815.43 -2.0468 -3.63885 0
M  V30 18429 H 1816.82 -6.03122 -2.9613 0
M  V30 18430 N 1819.54 0.750537 -1.38581 0
M  V30 18431 C 1820.77 1.54489 -1.38376 0
M  V30 18432 C 1821.19 1.88085 0.023634 0
M  V30 18433 O 1820.55 1.50794 1.00652 0
M  V30 18434 C 1820.6 2.81875 -2.24897 0
M  V30 18435 O 1819.7 3.77155 -1.66817 0
M  V30 18436 H 1819.04 0.467148 -0.471878 0
M  V30 18437 H 1821.57 0.927264 -1.82381 0
M  V30 18438 H 1821.58 3.30769 -2.38864 0
M  V30 18439 H 1820.26 2.56753 -3.27186 0
M  V30 18440 H 1818.83 3.35868 -1.62009 0
M  V30 18441 N 1821.02 1.235 0.979051 0
M  V30 18442 C 1822.3 0.976124 1.69503 0
M  V30 18443 C 1822.68 -0.504883 2.04974 0
M  V30 18444 O 1822.02 -1.47642 1.74397 0
M  V30 18445 C 1822.23 1.8877 2.93542 0
M  V30 18446 C 1823.58 2.15196 3.66027 0
M  V30 18447 O 1824.61 1.8633 3.03578 0
M  V30 18448 O 1823.47 2.64157 4.78417 0
M  V30 18449 H 1820.56 0.36825 0.740487 0
M  V30 18450 H 1823.11 1.34549 1.03415 0
M  V30 18451 H 1821.88 2.88882 2.63937 0
M  V30 18452 H 1821.5 1.52079 3.67366 0
M  V30 18453 N 1822.5 -1.17802 1.04693 0
M  V30 18454 C 1823.41 -2.25298 0.654072 0
M  V30 18455 C 1824.42 -1.70984 -0.32255 0
M  V30 18456 O 1825.6 -2.0063 -0.175904 0
M  V30 18457 C 1822.66 -3.46687 0.0296345 0
M  V30 18458 C 1821.73 -4.16108 1.05606 0
M  V30 18459 C 1820.96 -5.31702 0.461329 0
M  V30 18460 O 1821.18 -5.65701 -0.730679 0
M  V30 18461 O 1820.12 -5.89956 1.19312 0
M  V30 18462 H 1823.94 -2.61179 1.54982 0
M  V30 18463 H 1821.53 -1.25005 0.818182 0
M  V30 18464 H 1823.41 -4.20201 -0.317654 0
M  V30 18465 H 1822.08 -3.12615 -0.839839 0
M  V30 18466 H 1820.99 -3.44635 1.45526 0
M  V30 18467 H 1822.32 -4.54195 1.89651 0
M  V30 18468 N 1823.98 -0.827251 -1.34143 0
M  V30 18469 C 1825.22 -0.417385 -1.98152 0
M  V30 18470 C 1825.55 1.0206 -1.65572 0
M  V30 18471 O 1824.81 1.72636 -0.921706 0
M  V30 18472 C 1825.1 -0.571534 -3.52801 0
M  V30 18473 C 1824.77 -1.97588 -4.05302 0
M  V30 18474 C 1823.43 -2.36004 -4.19352 0
M  V30 18475 C 1825.78 -2.89371 -4.33491 0
M  V30 18476 C 1823.11 -3.65529 -4.58918 0
M  V30 18477 C 1825.46 -4.18364 -4.74504 0
M  V30 18478 C 1824.13 -4.56751 -4.86759 0
M  V30 18479 H 1823.4 -0.152732 -0.725089 0
M  V30 18480 H 1826.05 -1.05203 -1.60014 0
M  V30 18481 H 1824.35 0.146483 -3.91526 0
M  V30 18482 H 1826.05 -0.234868 -4.00312 0
M  V30 18483 H 1822.64 -1.66748 -3.94833 0
M  V30 18484 H 1826.82 -2.60933 -4.2217 0
M  V30 18485 H 1822.08 -3.95091 -4.66597 0
M  V30 18486 H 1826.25 -4.89568 -4.95274 0
M  V30 18487 H 1823.88 -5.57166 -5.17175 0
M  V30 18488 N 1825.45 1.46436 -0.582609 0
M  V30 18489 C 1826.39 2.28423 0.188509 0
M  V30 18490 C 1827.4 1.38506 0.855565 0
M  V30 18491 O 1828.59 1.63107 0.725145 0
M  V30 18492 C 1825.69 3.13537 1.28639 0
M  V30 18493 C 1824.86 4.31578 0.711275 0
M  V30 18494 C 1823.92 4.9809 1.69685 0
M  V30 18495 O 1822.95 5.55686 1.23294 0
M  V30 18496 N 1824.15 4.95091 3.03093 0
M  V30 18497 H 1826.91 2.95244 -0.514896 0
M  V30 18498 H 1824.47 1.56347 -0.420374 0
M  V30 18499 H 1826.47 3.54897 1.94499 0
M  V30 18500 H 1825.04 2.48792 1.89266 0
M  V30 18501 H 1824.26 3.94002 -0.124784 0
M  V30 18502 H 1825.54 5.07874 0.306822 0
M  V30 18503 H 1824.94 4.49542 3.43407 0
M  V30 18504 H 1823.5 5.40393 3.64443 0
M  V30 18505 N 1826.93 0.320385 1.54309 0
M  V30 18506 C 1828.17 -0.283775 2.02421 0
M  V30 18507 C 1828.54 -1.49594 1.20357 0
M  V30 18508 O 1829.74 -2.17275 1.58256 0
M  V30 18509 C 1828.01 -0.612699 3.52109 0
M  V30 18510 S 1829.57 -1.19697 4.22159 0
M  V30 18511 H 1826.38 -0.0860212 0.705777 0
M  V30 18512 H 1828.99 0.452768 1.90185 0
M  V30 18513 H 1827.69 0.277697 4.09459 0
M  V30 18514 H 1827.22 -1.37952 3.68419 0
M  V30 18515 H 1829.24 -2.48394 4.29552 0
M  V30 18516 N 1828.41 -1.57525 0.0484906 0
M  V30 18517 C 1829.34 -2.08313 -0.955941 0
M  V30 18518 C 1830.35 -1.01042 -1.2765 0
M  V30 18519 O 1831.54 -1.28615 -1.23776 0
M  V30 18520 C 1828.64 -2.509 -2.27821 0
M  V30 18521 C 1827.82 -3.81476 -2.13997 0
M  V30 18522 C 1826.88 -4.10404 -3.29325 0
M  V30 18523 O 1825.9 -4.80366 -3.05348 0
M  V30 18524 N 1827.1 -3.62104 -4.53719 0
M  V30 18525 H 1829.87 -2.95111 -0.522472 0
M  V30 18526 H 1827.43 -1.61312 -0.137816 0
M  V30 18527 H 1829.42 -2.6733 -3.03837 0
M  V30 18528 H 1827.99 -1.69365 -2.62744 0
M  V30 18529 H 1827.21 -3.74654 -1.22589 0
M  V30 18530 H 1828.5 -4.6699 -2.01985 0
M  V30 18531 H 1827.9 -3.05541 -4.7609 0
M  V30 18532 H 1826.45 -3.83778 -5.26838 0
M  V30 18533 N 1829.89 0.224867 -1.55988 0
M  V30 18534 C 1830.8 1.2997 -1.95307 0
M  V30 18535 C 1831.81 1.51463 -0.856444 0
M  V30 18536 O 1832.99 1.64658 -1.15973 0
M  V30 18537 C 1830.05 2.63009 -2.25892 0
M  V30 18538 C 1829.12 2.49847 -3.49106 0
M  V30 18539 C 1828.35 3.76541 -3.78223 0
M  V30 18540 O 1828.57 4.7941 -3.09066 0
M  V30 18541 O 1827.51 3.73852 -4.71718 0
M  V30 18542 H 1831.33 0.996093 -2.869 0
M  V30 18543 H 1828.92 0.427457 -1.43154 0
M  V30 18544 H 1830.8 3.41586 -2.46774 0
M  V30 18545 H 1829.47 2.93057 -1.37474 0
M  V30 18546 H 1828.38 1.69482 -3.33507 0
M  V30 18547 H 1829.71 2.24739 -4.37896 0
M  V30 18548 N 1831.37 1.49742 0.491438 0
M  V30 18549 C 1832.64 1.50217 1.25277 0
M  V30 18550 C 1833.02 0.235271 2.09785 0
M  V30 18551 O 1832.37 -0.782057 2.147 0
M  V30 18552 C 1832.58 2.78652 2.10129 0
M  V30 18553 C 1833.93 3.28519 2.68999 0
M  V30 18554 O 1834.95 2.79834 2.20389 0
M  V30 18555 O 1833.81 4.13333 3.57516 0
M  V30 18556 H 1830.91 0.601649 0.567405 0
M  V30 18557 H 1833.45 1.62014 0.504924 0
M  V30 18558 H 1832.22 3.62345 1.47723 0
M  V30 18559 H 1831.85 2.69761 2.92087 0
M  V30 18560 N 1832.84 -0.743177 1.38977 0
M  V30 18561 C 1834.09 -1.49959 1.35486 0
M  V30 18562 C 1834.41 -1.94933 -0.0512044 0
M  V30 18563 O 1833.68 -1.684 -1.0009 0
M  V30 18564 H 1832.26 -0.556277 0.498562 0
M  V30 18565 H 1834.93 -0.882776 1.73762 0
M  V30 18566 H 1834.02 -2.38559 2.01237 0
M  V30 18567 N 1834.32 -1.24018 -0.972487 0
M  V30 18568 C 1835.57 -1.07105 -1.70913 0
M  V30 18569 C 1835.88 0.390908 -1.91654 0
M  V30 18570 O 1837.09 0.68013 -2.62843 0
M  V30 18571 C 1835.55 -1.86823 -3.07612 0
M  V30 18572 C 1835.15 -3.37399 -2.94731 0
M  V30 18573 C 1836.9 -1.78425 -3.85182 0
M  V30 18574 C 1834.81 -4.09479 -4.2671 0
M  V30 18575 H 1833.74 -0.397184 -0.640907 0
M  V30 18576 H 1836.39 -1.48056 -1.08405 0
M  V30 18577 H 1834.77 -1.38683 -3.70922 0
M  V30 18578 H 1835.94 -3.93084 -2.40462 0
M  V30 18579 H 1834.26 -3.46697 -2.3063 0
M  V30 18580 H 1836.85 -2.29584 -4.82903 0
M  V30 18581 H 1837.2 -0.748555 -4.09515 0
M  V30 18582 H 1837.73 -2.24219 -3.28589 0
M  V30 18583 H 1834.47 -5.13387 -4.07571 0
M  V30 18584 H 1833.99 -3.5858 -4.80812 0
M  V30 18585 H 1835.67 -4.16212 -4.95355 0
M  V30 18586 N 1835.8 1.17245 -1.05316 0
M  V30 18587 C 1837.04 1.89218 -0.773041 0
M  V30 18588 C 1837.4 1.79273 0.687403 0
M  V30 18589 O 1838.61 2.46075 1.08168 0
M  V30 18590 C 1836.88 3.35133 -1.24179 0
M  V30 18591 S 1838.44 4.25066 -1.08923 0
M  V30 18592 H 1835.25 0.653243 -0.280703 0
M  V30 18593 H 1837.86 1.41591 -1.34805 0
M  V30 18594 H 1836.56 3.39906 -2.29982 0
M  V30 18595 H 1836.09 3.87805 -0.661108 0
M  V30 18596 H 1838.11 4.96198 -0.0141465 0
M  V30 18597 N 1837.28 0.834353 1.33702 0
M  V30 18598 C 1838.53 0.424225 1.97188 0
M  V30 18599 C 1838.84 -1.02086 1.66846 0
M  V30 18600 O 1840.05 -1.53545 2.23911 0
M  V30 18601 C 1838.5 0.707628 3.52875 0
M  V30 18602 C 1838.11 2.16709 3.92098 0
M  V30 18603 C 1839.85 0.364228 4.22935 0
M  V30 18604 C 1837.76 2.39478 5.40744 0
M  V30 18605 H 1836.69 0.154897 0.737918 0
M  V30 18606 H 1839.34 1.02231 1.52385 0
M  V30 18607 H 1837.72 0.0392323 3.95981 0
M  V30 18608 H 1838.9 2.87559 3.60064 0
M  V30 18609 H 1837.21 2.47303 3.35008 0
M  V30 18610 H 1839.81 0.512031 5.32243 0
M  V30 18611 H 1840.15 -0.692375 4.10502 0
M  V30 18612 H 1840.69 0.98767 3.85344 0
M  V30 18613 H 1837.43 3.43687 5.58175 0
M  V30 18614 H 1836.95 1.73184 5.74254 0
M  V30 18615 H 1838.62 2.22406 6.07573 0
M  V30 18616 N 1838.76 -1.46125 0.590367 0
M  V30 18617 C 1840.17 -1.85962 0.165876 0
M  V30 18618 C 1840.52 -1.49296 -1.27299 0
M  V30 18619 O 1839.64 -0.911461 -1.96269 0
M  V30 18620 C 1840.24 -3.3752 0.294262 0
M  V30 18621 C 1838.8 -3.76324 -0.0754118 0
M  V30 18622 C 1837.94 -2.70126 0.626682 0
M  V30 18623 H 1840.9 -1.3717 0.79812 0
M  V30 18624 H 1840.92 -3.77482 -0.4783 0
M  V30 18625 H 1840.43 -3.64175 1.34159 0
M  V30 18626 H 1838.53 -3.55287 -1.12258 0
M  V30 18627 H 1838.64 -4.7812 0.306241 0
M  V30 18628 H 1837.01 -2.54614 0.0661219 0
M  V30 18629 H 1837.79 -2.99619 1.6758 0
M  V30 18630 N 1840.23 -0.328564 -1.54137 0
M  V30 18631 C 1841.18 0.550592 -2.25989 0
M  V30 18632 C 1842.18 1.11442 -1.27581 0
M  V30 18633 O 1843.38 1.06189 -1.45341 0
M  V30 18634 H 1839.76 0.196215 -0.72595 0
M  V30 18635 H 1841.73 -0.0776348 -2.98299 0
M  V30 18636 C 1840.48 1.69733 -3.03457 0
M  V30 18637 H 1839.8 1.27273 -3.79001 0
M  V30 18638 H 1841.24 2.28797 -3.56971 0
M  V30 18639 C 1839.7 2.61791 -2.12054 0
M  V30 18640 O 1840.23 3.63641 -1.7067 0
M  V30 18641 N 1838.44 2.30138 -1.7744 0
M  V30 18642 H 1837.98 1.47355 -2.11292 0
M  V30 18643 H 1837.94 2.91994 -1.16564 0
M  V30 18644 N 1841.71 1.57497 -0.0568439 0
M  V30 18645 C 1842.96 1.92914 0.615668 0
M  V30 18646 C 1843.29 0.935677 1.70515 0
M  V30 18647 O 1842.54 -0.0511255 1.95633 0
M  V30 18648 C 1842.84 3.35 1.24538 0
M  V30 18649 C 1842.51 4.50008 0.283536 0
M  V30 18650 C 1841.17 4.81196 0.0188809 0
M  V30 18651 C 1843.52 5.19847 -0.375336 0
M  V30 18652 C 1840.85 5.79569 -0.911986 0
M  V30 18653 C 1843.2 6.19215 -1.29443 0
M  V30 18654 C 1841.87 6.48829 -1.5677 0
M  V30 18655 H 1841.14 0.705922 0.225289 0
M  V30 18656 H 1843.78 1.91095 -0.124533 0
M  V30 18657 H 1842.09 3.33213 2.06098 0
M  V30 18658 H 1843.78 3.59686 1.77277 0
M  V30 18659 H 1840.37 4.25674 0.499994 0
M  V30 18660 H 1844.56 4.95959 -0.183967 0
M  V30 18661 H 1839.81 6.00846 -1.13112 0
M  V30 18662 H 1843.99 6.7244 -1.811 0
M  V30 18663 H 1841.62 7.24868 -2.29063 0
M  V30 18664 N 1843.19 -0.216591 1.56105 0
M  V30 18665 C 1844.44 -0.937215 1.80521 0
M  V30 18666 C 1844.79 -1.81772 0.630605 0
M  V30 18667 O 1844.08 -1.87891 -0.375149 0
M  V30 18668 C 1844.28 -1.80637 3.08391 0
M  V30 18669 C 1844.11 -1.01149 4.38177 0
M  V30 18670 C 1842.88 -0.704448 5.00365 0
M  V30 18671 C 1845.08 -0.374425 5.12935 0
M  V30 18672 N 1843.06 0.11131 6.13799 0
M  V30 18673 C 1844.43 0.3045 6.19252 0
M  V30 18674 C 1846.48 -0.287961 4.97067 0
M  V30 18675 C 1845.19 1.06163 7.11423 0
M  V30 18676 C 1847.21 0.45571 5.89642 0
M  V30 18677 C 1846.57 1.12316 6.95388 0
M  V30 18678 H 1842.67 -0.323053 0.712152 0
M  V30 18679 H 1845.26 -0.207675 1.93589 0
M  V30 18680 H 1843.43 -2.50768 2.96597 0
M  V30 18681 H 1845.16 -2.46484 3.20979 0
M  V30 18682 H 1841.92 -1.02368 4.62404 0
M  V30 18683 H 1842.34 0.508169 6.7509 0
M  V30 18684 H 1846.98 -0.789639 4.15361 0
M  V30 18685 H 1844.7 1.57481 7.92607 0
M  V30 18686 H 1848.29 0.523682 5.79438 0
M  V30 18687 H 1847.17 1.68941 7.65786 0
M  V30 18688 N 1844.67 -1.5 -0.48349 0
M  V30 18689 C 1845.58 -1.70722 -1.60907 0
M  V30 18690 C 1846.59 -0.590075 -1.63689 0
M  V30 18691 O 1847.77 -0.866915 -1.81787 0
M  V30 18692 C 1844.84 -1.78544 -2.97192 0
M  V30 18693 C 1843.9 -3.02218 -3.04898 0
M  V30 18694 C 1843.13 -3.09658 -4.34681 0
M  V30 18695 O 1843.35 -2.24216 -5.24484 0
M  V30 18696 O 1842.29 -4.02278 -4.47723 0
M  V30 18697 H 1846.11 -2.66111 -1.4635 0
M  V30 18698 H 1843.7 -1.33949 -0.661666 0
M  V30 18699 H 1845.58 -1.85941 -3.78159 0
M  V30 18700 H 1844.25 -0.863364 -3.11974 0
M  V30 18701 H 1843.16 -3.00329 -2.23054 0
M  V30 18702 H 1844.49 -3.93964 -2.95048 0
M  V30 18703 N 1846.15 0.735796 -1.39369 0
M  V30 18704 C 1847.39 1.50799 -1.37982 0
M  V30 18705 C 1847.75 1.91984 0.0248794 0
M  V30 18706 O 1848.95 2.68301 0.163755 0
M  V30 18707 C 1847.22 2.71494 -2.32434 0
M  V30 18708 S 1848.78 3.61153 -2.49227 0
M  V30 18709 H 1845.6 0.515828 -0.489329 0
M  V30 18710 H 1848.2 0.862229 -1.75459 0
M  V30 18711 H 1846.91 2.39376 -3.33358 0
M  V30 18712 H 1846.44 3.41 -1.96169 0
M  V30 18713 H 1848.45 4.6508 -1.72959 0
M  V30 18714 N 1847.63 1.24532 0.965897 0
M  V30 18715 C 1848.9 0.994047 1.68458 0
M  V30 18716 C 1849.28 -0.483115 2.05497 0
M  V30 18717 O 1848.63 -1.45784 1.75953 0
M  V30 18718 C 1848.84 1.91872 2.91524 0
M  V30 18719 C 1850.19 2.19066 3.63724 0
M  V30 18720 O 1851.21 1.8954 3.01584 0
M  V30 18721 O 1850.07 2.69217 4.75589 0
M  V30 18722 H 1847.17 0.376083 0.73654 0
M  V30 18723 H 1849.71 1.35638 1.01982 0
M  V30 18724 H 1848.48 2.91665 2.60858 0
M  V30 18725 H 1848.11 1.55966 3.65732 0
M  V30 18726 N 1849.1 -1.16685 1.05936 0
M  V30 18727 C 1850.35 -1.86758 0.772386 0
M  V30 18728 C 1850.67 -1.81885 -0.703051 0
M  V30 18729 O 1849.94 -1.24992 -1.50844 0
M  V30 18730 H 1848.52 -0.69143 0.282725 0
M  V30 18731 H 1851.18 -1.41518 1.3401 0
M  V30 18732 H 1850.28 -2.92296 1.09405 0
M  V30 18733 N 1850.58 -0.841432 -1.33258 0
M  V30 18734 C 1851.53 -0.248505 -2.26642 0
M  V30 18735 C 1852.52 0.59799 -1.49375 0
M  V30 18736 O 1853.71 0.449539 -1.71196 0
M  V30 18737 C 1850.84 0.573322 -3.38479 0
M  V30 18738 C 1849.92 -0.284825 -4.23142 0
M  V30 18739 N 1850.31 -1.36477 -4.8704 0
M  V30 18740 C 1848.61 -0.072296 -4.45941 0
M  V30 18741 C 1849.31 -1.89162 -5.50084 0
M  V30 18742 N 1848.29 -1.19272 -5.30354 0
M  V30 18743 H 1852.09 -1.07432 -2.73561 0
M  V30 18744 H 1849.6 -0.686153 -1.47193 0
M  V30 18745 H 1851.6 1.01441 -4.0437 0
M  V30 18746 H 1850.26 1.39708 -2.93107 0
M  V30 18747 H 1851.27 -1.74767 -4.87521 0
M  V30 18748 H 1847.95 0.717812 -4.11283 0
M  V30 18749 H 1849.34 -2.79613 -6.10955 0
M  V30 18750 N 1852.06 1.4581 -0.598108 0
M  V30 18751 C 1853.47 1.85871 -0.175736 0
M  V30 18752 C 1853.82 1.49969 1.26505 0
M  V30 18753 O 1852.95 0.921857 1.95782 0
M  V30 18754 C 1853.54 3.37359 -0.312157 0
M  V30 18755 C 1852.1 3.76359 0.0554534 0
M  V30 18756 C 1851.25 2.6979 -0.640999 0
M  V30 18757 H 1854.2 1.36745 -0.805383 0
M  V30 18758 H 1854.22 3.7773 0.458274 0
M  V30 18759 H 1853.73 3.63458 -1.36088 0
M  V30 18760 H 1851.83 3.55878 1.10372 0
M  V30 18761 H 1851.95 4.77951 -0.331592 0
M  V30 18762 H 1850.31 2.54576 -0.0796238 0
M  V30 18763 H 1851.09 2.98726 -1.69167 0
M  V30 18764 N 1853.54 0.336733 1.53961 0
M  V30 18765 C 1854.81 -0.316794 1.93018 0
M  V30 18766 C 1855.19 -1.68802 1.26764 0
M  V30 18767 O 1854.54 -2.2468 0.416094 0
M  V30 18768 C 1854.75 -0.395878 3.46747 0
M  V30 18769 C 1856.1 -0.649946 4.19596 0
M  V30 18770 O 1857.12 -0.47827 3.52975 0
M  V30 18771 O 1855.98 -0.982035 5.37604 0
M  V30 18772 H 1853.08 -0.183442 0.806398 0
M  V30 18773 H 1855.62 0.387412 1.65219 0
M  V30 18774 H 1854.4 0.56665 3.87175 0
M  V30 18775 H 1854.02 -1.14714 3.80692 0
M  V30 18776 N 1855.02 -1.57465 0.0651956 0
M  V30 18777 C 1856.26 -1.95112 -0.609158 0
M  V30 18778 C 1856.62 -0.94429 -1.67174 0
M  V30 18779 O 1857.82 -1.20818 -2.40117 0
M  V30 18780 C 1856.09 -3.37459 -1.17711 0
M  V30 18781 S 1857.65 -3.97076 -1.86752 0
M  V30 18782 H 1854.47 -0.682395 -0.199644 0
M  V30 18783 H 1857.07 -1.95016 0.137478 0
M  V30 18784 H 1855.77 -4.08525 -0.391829 0
M  V30 18785 H 1855.31 -3.41083 -1.96026 0
M  V30 18786 H 1857.32 -3.83443 -3.14938 0
M  V30 18787 N 1856.49 0.20831 -1.56217 0
M  V30 18788 C 1857.42 1.26115 -1.96513 0
M  V30 18789 C 1858.4 1.48185 -0.835183 0
M  V30 18790 O 1859.59 1.60145 -1.09851 0
M  V30 18791 C 1856.72 2.6082 -2.29326 0
M  V30 18792 C 1855.67 2.53385 -3.44935 0
M  V30 18793 C 1855 3.92241 -3.63388 0
M  V30 18794 C 1856.3 2.07026 -4.79518 0
M  V30 18795 H 1857.99 0.92635 -2.84709 0
M  V30 18796 H 1855.54 0.444169 -1.36979 0
M  V30 18797 H 1857.49 3.34644 -2.56109 0
M  V30 18798 H 1856.22 2.96014 -1.37997 0
M  V30 18799 H 1854.88 1.82018 -3.18222 0
M  V30 18800 H 1854.52 4.24766 -2.69413 0
M  V30 18801 H 1854.22 3.88145 -4.41154 0
M  V30 18802 H 1855.75 4.67707 -3.92533 0
M  V30 18803 H 1857.16 2.70601 -5.05419 0
M  V30 18804 H 1855.56 2.13961 -5.60661 0
M  V30 18805 H 1856.63 1.02298 -4.73986 0
M  V30 18806 N 1857.97 1.50255 0.475528 0
M  V30 18807 C 1859.2 1.64532 1.24951 0
M  V30 18808 C 1859.61 0.326223 1.86366 0
M  V30 18809 O 1858.95 -0.701313 1.69786 0
M  V30 18810 C 1859.01 2.67528 2.40143 0
M  V30 18811 C 1858.68 4.11204 1.99399 0
M  V30 18812 C 1859.68 4.97213 1.51906 0
M  V30 18813 C 1857.36 4.57094 2.08256 0
M  V30 18814 C 1859.35 6.27158 1.13805 0
M  V30 18815 C 1857.04 5.87046 1.69766 0
M  V30 18816 C 1858.04 6.71903 1.22618 0
M  V30 18817 O 1857.73 7.9943 0.846604 0
M  V30 18818 H 1857.46 0.556201 0.384209 0
M  V30 18819 H 1860.01 1.972 0.574555 0
M  V30 18820 H 1858.24 2.30094 3.10795 0
M  V30 18821 H 1859.93 2.71072 3.02117 0
M  V30 18822 H 1860.7 4.62977 1.44489 0
M  V30 18823 H 1856.58 3.91194 2.43903 0
M  V30 18824 H 1860.12 6.93345 0.769334 0
M  V30 18825 H 1856.02 6.20804 1.76841 0
M  V30 18826 H 1856.79 8.12662 0.975845 0
M  V30 18827 N 1859.45 -0.728395 1.39758 0
M  V30 18828 C 1860.7 -1.48514 1.37069 0
M  V30 18829 C 1861.02 -1.94976 -0.0305263 0
M  V30 18830 O 1860.29 -1.69453 -0.982987 0
M  V30 18831 H 1858.87 -0.550958 0.504434 0
M  V30 18832 H 1861.53 -0.864297 1.74688 0
M  V30 18833 H 1860.63 -2.36411 2.03755 0
M  V30 18834 N 1860.93 -1.25042 -0.959279 0
M  V30 18835 C 1862.15 -1.12339 -1.74341 0
M  V30 18836 C 1862.58 0.319342 -1.85369 0
M  V30 18837 O 1861.94 1.23129 -1.33075 0
M  V30 18838 C 1861.98 -1.77734 -3.13756 0
M  V30 18839 O 1861.09 -1.05383 -3.98708 0
M  V30 18840 H 1860.43 -0.392479 -0.535589 0
M  V30 18841 H 1862.96 -1.65516 -1.20274 0
M  V30 18842 H 1862.97 -1.83832 -3.64239 0
M  V30 18843 H 1861.64 -2.82702 -3.05045 0
M  V30 18844 H 1860.22 -1.07132 -3.57179 0
M  V30 18845 N 1862.41 1.16121 -1.06553 0
M  V30 18846 C 1863.68 1.82752 -0.697202 0
M  V30 18847 C 1864.06 1.94474 0.821172 0
M  V30 18848 O 1863.41 1.48988 1.73248 0
M  V30 18849 C 1863.62 3.19592 -1.4022 0
M  V30 18850 C 1864.97 3.95333 -1.5491 0
M  V30 18851 O 1865.99 3.29119 -1.36232 0
M  V30 18852 O 1864.85 5.14028 -1.85574 0
M  V30 18853 H 1861.95 0.789214 -0.247125 0
M  V30 18854 H 1864.49 1.23302 -1.16597 0
M  V30 18855 H 1863.26 3.06111 -2.43745 0
M  V30 18856 H 1862.89 3.86722 -0.923686 0
M  V30 18857 N 1863.88 0.848487 1.3281 0
M  V30 18858 C 1864.79 0.291355 2.32784 0
M  V30 18859 C 1865.81 -0.587621 1.63777 0
M  V30 18860 O 1866.99 -0.489458 1.95362 0
M  V30 18861 C 1864.05 -0.51634 3.42834 0
M  V30 18862 C 1863.11 0.388046 4.27543 0
M  V30 18863 C 1862.35 -0.381197 5.32337 0
M  V30 18864 O 1862.57 -1.61186 5.47152 0
M  V30 18865 O 1861.5 0.2498 6.01381 0
M  V30 18866 H 1865.33 1.11947 2.82315 0
M  V30 18867 H 1862.91 0.611259 1.36323 0
M  V30 18868 H 1864.8 -0.974995 4.09966 0
M  V30 18869 H 1863.47 -1.32136 2.95503 0
M  V30 18870 H 1862.38 0.894745 3.63243 0
M  V30 18871 H 1863.71 1.15808 4.78382 0
M  V30 18872 N 1865.36 -1.4549 0.605832 0
M  V30 18873 C 1866.31 -2.27597 -0.13542 0
M  V30 18874 C 1867.3 -1.37219 -0.840222 0
M  V30 18875 O 1868.49 -1.61222 -0.730501 0
M  V30 18876 C 1865.62 -3.24054 -1.1333 0
M  V30 18877 C 1864.7 -4.2192 -0.429427 0
M  V30 18878 N 1865.09 -5.03037 0.527952 0
M  V30 18879 C 1863.39 -4.40829 -0.677207 0
M  V30 18880 C 1864.09 -5.7403 0.941511 0
M  V30 18881 N 1863.07 -5.42849 0.28564 0
M  V30 18882 H 1866.87 -2.87712 0.599924 0
M  V30 18883 H 1864.39 -1.56621 0.429367 0
M  V30 18884 H 1866.38 -3.81608 -1.67872 0
M  V30 18885 H 1865.04 -2.655 -1.86922 0
M  V30 18886 H 1866.05 -5.09938 0.904614 0
M  V30 18887 H 1862.73 -3.93401 -1.39794 0
M  V30 18888 H 1864.12 -6.49219 1.73103 0
M  V30 18889 N 1866.84 -0.344893 -1.5378 0
M  V30 18890 C 1867.79 0.526591 -2.26561 0
M  V30 18891 C 1868.78 1.10083 -1.28756 0
M  V30 18892 O 1869.99 1.04641 -1.46459 0
M  V30 18893 H 1866.36 0.188505 -0.72799 0
M  V30 18894 H 1868.33 -0.109269 -2.982 0
M  V30 18895 C 1867.08 1.66505 -3.0524 0
M  V30 18896 H 1866.41 1.23246 -3.80329 0
M  V30 18897 H 1867.85 2.24998 -3.59377 0
M  V30 18898 C 1866.31 2.59527 -2.14819 0
M  V30 18899 O 1866.84 3.6181 -1.74517 0
M  V30 18900 N 1865.04 2.28243 -1.79871 0
M  V30 18901 H 1864.59 1.45106 -2.12843 0
M  V30 18902 H 1864.55 2.90741 -1.19654 0
M  V30 18903 N 1868.32 1.57428 -0.0735454 0
M  V30 18904 C 1869.28 2.11699 0.878419 0
M  V30 18905 C 1870.28 1.0414 1.22521 0
M  V30 18906 O 1871.47 1.30121 1.1582 0
M  V30 18907 C 1868.6 2.61979 2.18129 0
M  V30 18908 H 1869.8 2.97118 0.40755 0
M  V30 18909 H 1867.35 1.55315 0.175183 0
M  V30 18910 H 1868.08 1.80018 2.69748 0
M  V30 18911 H 1867.87 3.40599 1.94254 0
M  V30 18912 H 1869.36 3.04035 2.86273 0
M  V30 18913 N 1869.8 -0.200022 1.56326 0
M  V30 18914 C 1871.04 -0.927997 1.8212 0
M  V30 18915 C 1871.4 -1.80652 0.650305 0
M  V30 18916 O 1872.6 -2.56989 0.788027 0
M  V30 18917 C 1870.87 -1.72682 3.12915 0
M  V30 18918 S 1872.43 -2.50748 3.60098 0
M  V30 18919 H 1869.25 -0.311347 0.639206 0
M  V30 18920 H 1871.85 -0.191791 1.94557 0
M  V30 18921 H 1870.56 -1.07195 3.96153 0
M  V30 18922 H 1870.09 -2.50493 3.03343 0
M  V30 18923 H 1872.1 -3.74828 3.25143 0
M  V30 18924 N 1871.27 -1.50505 -0.467553 0
M  V30 18925 C 1872.52 -1.6191 -1.22118 0
M  V30 18926 C 1872.85 -0.320112 -1.91544 0
M  V30 18927 O 1872.13 0.678631 -1.82277 0
M  V30 18928 C 1872.41 -2.80184 -2.26206 0
M  V30 18929 C 1872.26 -4.19975 -1.61062 0
M  V30 18930 C 1873.58 -2.94011 -3.27484 0
M  V30 18931 H 1870.7 -0.589289 -0.442615 0
M  V30 18932 H 1873.34 -1.82902 -0.514484 0
M  V30 18933 H 1871.49 -2.62417 -2.86478 0
M  V30 18934 H 1873.17 -4.4934 -1.04359 0
M  V30 18935 H 1871.41 -4.24069 -0.91365 0
M  V30 18936 H 1872.08 -4.98667 -2.36718 0
M  V30 18937 H 1874.56 -3.10288 -2.77238 0
M  V30 18938 H 1873.43 -3.78384 -3.97639 0
M  V30 18939 H 1873.69 -2.04777 -3.91815 0
M  V30 18940 N 1872.75 0.720973 -1.40142 0
M  V30 18941 C 1874.16 1.29988 -1.34015 0
M  V30 18942 C 1874.51 1.96197 -0.0110816 0
M  V30 18943 O 1873.64 1.97207 0.890984 0
M  V30 18944 C 1874.23 2.36373 -2.42721 0
M  V30 18945 C 1872.79 2.89902 -2.40071 0
M  V30 18946 C 1871.94 1.63627 -2.23878 0
M  V30 18947 H 1874.89 0.51748 -1.50026 0
M  V30 18948 H 1874.91 3.17091 -2.10317 0
M  V30 18949 H 1874.42 1.88156 -3.39439 0
M  V30 18950 H 1872.53 3.42362 -1.47033 0
M  V30 18951 H 1872.64 3.42062 -3.35456 0
M  V30 18952 H 1871 1.88491 -1.71298 0
M  V30 18953 H 1871.79 1.17442 -3.22587 0
M  V30 18954 N 1874.23 1.25549 0.952634 0
M  V30 18955 C 1875.18 1.06108 2.04963 0
M  V30 18956 C 1876.15 -0.0303872 1.66072 0
M  V30 18957 O 1877.33 0.127178 1.90376 0
M  V30 18958 C 1874.47 0.68799 3.38173 0
M  V30 18959 C 1873.59 1.85452 3.90168 0
M  V30 18960 C 1872.72 1.4256 5.11713 0
M  V30 18961 C 1871.76 2.56115 5.55942 0
M  V30 18962 N 1870.9 2.13984 6.68697 0
M  V30 18963 H 1875.74 1.99991 2.20925 0
M  V30 18964 H 1873.27 0.995895 1.08261 0
M  V30 18965 H 1875.23 0.452622 4.14737 0
M  V30 18966 H 1873.86 -0.213845 3.22091 0
M  V30 18967 H 1872.91 2.20314 3.10106 0
M  V30 18968 H 1874.23 2.70722 4.1894 0
M  V30 18969 H 1873.38 1.15 5.95701 0
M  V30 18970 H 1872.12 0.54365 4.8466 0
M  V30 18971 H 1871.12 2.84417 4.70518 0
M  V30 18972 H 1872.35 3.44891 5.85002 0
M  V30 18973 H 1870.29 1.28208 6.4335 0
M  V30 18974 H 1870.21 2.92801 6.96996 0
M  V30 18975 H 1871.48 1.89605 7.56089 0
M  V30 18976 N 1875.71 -1.15554 1.07168 0
M  V30 18977 C 1876.94 -1.90182 0.81477 0
M  V30 18978 C 1877.35 -1.77914 -0.631829 0
M  V30 18979 O 1876.71 -1.1298 -1.43324 0
M  V30 18980 C 1876.76 -3.40593 1.21155 0
M  V30 18981 O 1876.48 -3.52504 2.60139 0
M  V30 18982 C 1877.98 -4.32248 0.983675 0
M  V30 18983 H 1875.2 -0.602804 0.294735 0
M  V30 18984 H 1877.75 -1.46419 1.42764 0
M  V30 18985 H 1875.9 -3.82026 0.643041 0
M  V30 18986 H 1876.31 -4.45839 2.76275 0
M  V30 18987 H 1877.79 -5.3621 1.31084 0
M  V30 18988 H 1878.27 -4.39127 -0.0801022 0
M  V30 18989 H 1878.87 -3.96556 1.537 0
M  V30 18990 N 1877.19 -0.855519 -1.32358 0
M  V30 18991 C 1878.43 -0.465622 -1.99026 0
M  V30 18992 C 1878.79 0.960971 -1.66221 0
M  V30 18993 O 1879.99 1.45547 -2.25986 0
M  V30 18994 C 1878.26 -0.698892 -3.505 0
M  V30 18995 S 1879.82 -0.406697 -4.36911 0
M  V30 18996 H 1876.64 -0.1744 -0.689279 0
M  V30 18997 H 1879.24 -1.10842 -1.61041 0
M  V30 18998 H 1877.95 -1.73623 -3.71865 0
M  V30 18999 H 1877.48 -0.0425537 -3.93377 0
M  V30 19000 H 1879.49 0.766931 -4.90237 0
M  V30 19001 N 1878.67 1.45167 -0.61354 0
M  V30 19002 C 1880.08 1.85674 -0.19544 0
M  V30 19003 C 1880.43 1.51303 1.24908 0
M  V30 19004 O 1879.55 0.94257 1.94794 0
M  V30 19005 C 1880.15 3.37009 -0.347921 0
M  V30 19006 C 1878.71 3.76397 0.0155323 0
M  V30 19007 C 1877.85 2.69095 -0.669578 0
M  V30 19008 H 1880.8 1.35883 -0.819842 0
M  V30 19009 H 1880.83 3.78195 0.418185 0
M  V30 19010 H 1880.34 3.61994 -1.39935 0
M  V30 19011 H 1878.44 3.57028 1.06591 0
M  V30 19012 H 1878.55 4.77573 -0.382267 0
M  V30 19013 H 1876.92 2.54477 -0.10662 0
M  V30 19014 H 1877.7 2.96915 -1.72326 0
M  V30 19015 N 1880.14 0.353044 1.53595 0
M  V30 19016 C 1881.37 -0.244309 2.05956 0
M  V30 19017 C 1881.79 -1.42681 1.22571 0
M  V30 19018 O 1881.15 -1.79681 0.241723 0
M  V30 19019 C 1881.2 -0.628083 3.55088 0
M  V30 19020 O 1880.3 -1.72693 3.74501 0
M  V30 19021 H 1879.64 -0.038537 0.662881 0
M  V30 19022 H 1882.17 0.510013 1.98141 0
M  V30 19023 H 1882.18 -0.902597 3.97891 0
M  V30 19024 H 1880.86 0.236643 4.15226 0
M  V30 19025 H 1879.44 -1.44895 3.43599 0
M  V30 19026 N 1881.62 -1.57387 0.0818932 0
M  V30 19027 C 1882.85 -1.9862 -0.597066 0
M  V30 19028 C 1883.27 -0.960277 -1.61741 0
M  V30 19029 O 1882.63 0.0728948 -1.81153 0
M  V30 19030 C 1882.68 -3.3886 -1.23315 0
M  V30 19031 O 1881.78 -3.38962 -2.34901 0
M  V30 19032 H 1881.12 -0.646208 -0.152679 0
M  V30 19033 H 1883.65 -2.03978 0.159398 0
M  V30 19034 H 1883.66 -3.76266 -1.5776 0
M  V30 19035 H 1882.34 -4.13056 -0.485551 0
M  V30 19036 H 1880.91 -3.13337 -2.02174 0
M  V30 19037 N 1883.1 0.191729 -1.56429 0
M  V30 19038 C 1884.33 0.926363 -1.84667 0
M  V30 19039 C 1884.74 1.77215 -0.662674 0
M  V30 19040 O 1884.08 1.79772 0.377839 0
M  V30 19041 C 1884.14 1.86973 -3.07053 0
M  V30 19042 C 1883.81 1.20556 -4.40812 0
M  V30 19043 C 1884.8 0.580852 -5.16645 0
M  V30 19044 C 1882.49 1.20841 -4.87548 0
M  V30 19045 C 1884.48 -0.0321402 -6.37392 0
M  V30 19046 C 1882.17 0.59158 -6.0823 0
M  V30 19047 C 1883.17 -0.0276096 -6.82994 0
M  V30 19048 O 1882.86 -0.634761 -8.0139 0
M  V30 19049 H 1882.59 0.27562 -0.61726 0
M  V30 19050 H 1885.14 0.202927 -2.04395 0
M  V30 19051 H 1883.37 2.63295 -2.83219 0
M  V30 19052 H 1885.06 2.47244 -3.21909 0
M  V30 19053 H 1885.83 0.570769 -4.8163 0
M  V30 19054 H 1881.71 1.67975 -4.29308 0
M  V30 19055 H 1885.25 -0.516048 -6.95689 0
M  V30 19056 H 1881.15 0.599177 -6.42713 0
M  V30 19057 H 1881.91 -0.531997 -8.16769 0
M  V30 19058 N 1884.58 1.50751 0.459565 0
M  V30 19059 C 1885.82 1.62315 1.21078 0
M  V30 19060 C 1886.15 0.328859 1.917 0
M  V30 19061 O 1885.41 -0.685929 1.83285 0
M  V30 19062 C 1885.71 2.7612 2.26919 0
M  V30 19063 C 1885.37 4.16196 1.73469 0
M  V30 19064 C 1884.03 4.54307 1.58613 0
M  V30 19065 C 1886.39 5.03696 1.33941 0
M  V30 19066 C 1883.71 5.77647 1.0267 0
M  V30 19067 C 1886.07 6.27593 0.794349 0
M  V30 19068 C 1884.73 6.64496 0.632515 0
M  V30 19069 H 1884 0.593954 0.443057 0
M  V30 19070 H 1886.65 1.8472 0.505069 0
M  V30 19071 H 1884.95 2.47849 3.03443 0
M  V30 19072 H 1886.65 2.8227 2.84824 0
M  V30 19073 H 1883.24 3.86136 1.86002 0
M  V30 19074 H 1887.42 4.74875 1.44247 0
M  V30 19075 H 1882.68 6.04904 0.888879 0
M  V30 19076 H 1886.85 6.94748 0.479449 0
M  V30 19077 H 1884.48 7.59945 0.196879 0
M  V30 19078 N 1886.06 -0.713531 1.40522 0
M  V30 19079 C 1887.01 -1.81927 1.37429 0
M  V30 19080 C 1887.99 -1.58922 0.251499 0
M  V30 19081 O 1889.18 -1.7006 0.490768 0
M  V30 19082 C 1886.31 -3.20074 1.24127 0
M  V30 19083 C 1885.4 -3.48835 2.41195 0
M  V30 19084 N 1885.79 -3.484 3.66676 0
M  V30 19085 C 1884.09 -3.79302 2.34619 0
M  V30 19086 C 1884.79 -3.75562 4.44217 0
M  V30 19087 N 1883.76 -3.94413 3.74084 0
M  V30 19088 H 1887.56 -1.79927 2.32387 0
M  V30 19089 H 1885.08 -0.912746 1.34323 0
M  V30 19090 H 1887.08 -3.99258 1.19993 0
M  V30 19091 H 1885.74 -3.23298 0.301379 0
M  V30 19092 H 1886.75 -3.29201 3.99809 0
M  V30 19093 H 1883.42 -3.90004 1.49007 0
M  V30 19094 H 1884.81 -3.81513 5.5308 0
M  V30 19095 N 1887.53 -1.26053 -0.945962 0
M  V30 19096 C 1888.77 -1.1253 -1.70635 0
M  V30 19097 C 1889.14 0.326708 -1.892 0
M  V30 19098 O 1890.34 0.583957 -2.6238 0
M  V30 19099 C 1888.61 -1.86811 -3.04691 0
M  V30 19100 S 1890.17 -1.89284 -3.95875 0
M  V30 19101 H 1886.99 -0.402052 -0.586409 0
M  V30 19102 H 1889.59 -1.59703 -1.12762 0
M  V30 19103 H 1888.29 -2.91531 -2.88856 0
M  V30 19104 H 1887.82 -1.40059 -3.67623 0
M  V30 19105 H 1889.84 -0.976107 -4.86504 0
M  V30 19106 N 1889.01 1.14984 -1.07779 0
M  V30 19107 C 1890.29 1.82003 -0.716546 0
M  V30 19108 C 1890.67 1.95334 0.8005 0
M  V30 19109 O 1890.02 1.50817 1.71658 0
M  V30 19110 C 1890.23 3.18087 -1.43602 0
M  V30 19111 C 1891.57 3.93668 -1.59094 0
M  V30 19112 O 1892.6 3.27655 -1.39715 0
M  V30 19113 O 1891.46 5.12031 -1.91015 0
M  V30 19114 H 1888.55 0.786548 -0.255482 0
M  V30 19115 H 1891.1 1.22058 -1.17898 0
M  V30 19116 H 1889.87 3.03509 -2.46978 0
M  V30 19117 H 1889.49 3.8572 -0.964651 0
M  V30 19118 N 1890.49 0.862526 1.31902 0
M  V30 19119 C 1891.44 0.301807 2.30634 0
M  V30 19120 C 1892.43 -0.579086 1.59195 0
M  V30 19121 O 1893.64 -0.466014 1.73863 0
M  V30 19122 H 1890.01 0.078905 0.747849 0
M  V30 19123 H 1891.98 1.1486 2.75408 0
M  V30 19124 C 1890.73 -0.48822 3.44255 0
M  V30 19125 H 1890.06 0.18033 3.99393 0
M  V30 19126 H 1891.5 -0.846013 4.15474 0
M  V30 19127 C 1889.95 -1.67656 2.92221 0
M  V30 19128 O 1890.48 -2.77577 2.90369 0
M  V30 19129 N 1888.69 -1.50622 2.48518 0
M  V30 19130 H 1888.24 -0.612021 2.50224 0
M  V30 19131 H 1888.2 -2.30275 2.14058 0
M  V30 19132 N 1891.97 -1.4484 0.62123 0
M  V30 19133 C 1893.22 -2.01734 0.121544 0
M  V30 19134 C 1893.54 -1.49041 -1.25745 0
M  V30 19135 O 1892.81 -0.690056 -1.83344 0
M  V30 19136 H 1891.39 -0.745822 0.0419419 0
M  V30 19137 H 1894.05 -1.77467 0.805702 0
M  V30 19138 H 1893.15 -3.11993 0.0816882 0
M  V30 19139 N 1893.45 -0.361184 -1.53405 0
M  V30 19140 C 1894.39 0.502532 -2.27107 0
M  V30 19141 C 1895.39 1.08711 -1.29916 0
M  V30 19142 O 1896.59 1.03082 -1.47561 0
M  V30 19143 H 1892.97 0.180773 -0.729949 0
M  V30 19144 H 1894.94 -0.140891 -2.98067 0
M  V30 19145 C 1893.69 1.63258 -3.06989 0
M  V30 19146 H 1893.01 1.19205 -3.81615 0
M  V30 19147 H 1894.45 2.21174 -3.61743 0
M  V30 19148 C 1892.91 2.57234 -2.17559 0
M  V30 19149 O 1893.44 3.59939 -1.78345 0
M  V30 19150 N 1891.65 2.26322 -1.82282 0
M  V30 19151 H 1891.19 1.4284 -2.1437 0
M  V30 19152 H 1891.15 2.89455 -1.22731 0
M  V30 19153 N 1894.92 1.57341 -0.0902386 0
M  V30 19154 C 1896.16 1.96056 0.57804 0
M  V30 19155 C 1896.53 0.970766 1.65651 0
M  V30 19156 O 1897.73 1.24623 2.38165 0
M  V30 19157 C 1896 3.39289 1.12328 0
M  V30 19158 S 1897.56 3.99997 1.80411 0
M  V30 19159 H 1894.38 0.685485 0.188762 0
M  V30 19160 H 1896.98 1.94773 -0.168486 0
M  V30 19161 H 1895.68 4.09097 0.326786 0
M  V30 19162 H 1895.21 3.44158 1.90574 0
M  V30 19163 H 1897.23 3.88405 3.08798 0
M  V30 19164 N 1896.4 -0.183431 1.56529 0
M  V30 19165 C 1897.65 -0.900237 1.80495 0
M  V30 19166 C 1897.96 -1.83932 0.665454 0
M  V30 19167 O 1899.17 -2.59761 0.789728 0
M  V30 19168 C 1897.63 -1.65125 3.19784 0
M  V30 19169 C 1897.23 -0.756411 4.41568 0
M  V30 19170 C 1898.98 -2.357 3.53052 0
M  V30 19171 C 1896.89 -1.50696 5.71878 0
M  V30 19172 H 1895.82 -0.339898 0.673042 0
M  V30 19173 H 1898.47 -0.153327 1.82858 0
M  V30 19174 H 1896.85 -2.44248 3.11703 0
M  V30 19175 H 1898.02 -0.00301509 4.608 0
M  V30 19176 H 1896.34 -0.160916 4.16089 0
M  V30 19177 H 1898.93 -2.92426 4.4765 0
M  V30 19178 H 1899.28 -3.10454 2.77352 0
M  V30 19179 H 1899.81 -1.63533 3.62632 0
M  V30 19180 H 1896.55 -0.801985 6.50575 0
M  V30 19181 H 1896.07 -2.23399 5.56644 0
M  V30 19182 H 1897.75 -2.05768 6.13407 0
M  V30 19183 N 1897.88 -1.50992 -0.451564 0
M  V30 19184 C 1898.83 -1.67662 -1.5451 0
M  V30 19185 C 1899.81 -0.53081 -1.51892 0
M  V30 19186 O 1901.01 -0.786103 -1.58586 0
M  V30 19187 C 1898.14 -1.79204 -2.92815 0
M  V30 19188 C 1897.22 -2.99524 -3.00244 0
M  V30 19189 N 1897.61 -4.22917 -2.77443 0
M  V30 19190 C 1895.91 -2.98485 -3.31395 0
M  V30 19191 C 1896.61 -5.04058 -2.90346 0
M  V30 19192 N 1895.59 -4.3841 -3.21399 0
M  V30 19193 H 1899.39 -2.60742 -1.35612 0
M  V30 19194 H 1896.9 -1.48444 -0.658639 0
M  V30 19195 H 1898.9 -1.89254 -3.71468 0
M  V30 19196 H 1897.56 -0.872954 -3.12745 0
M  V30 19197 H 1898.57 -4.52096 -2.52645 0
M  V30 19198 H 1895.25 -2.16153 -3.57189 0
M  V30 19199 H 1896.64 -6.12238 -2.76792 0
M  V30 19200 N 1899.36 0.706069 -1.40899 0
M  V30 19201 C 1900.77 1.01535 -1.23137 0
M  V30 19202 C 1900.97 2.01181 -0.113293 0
M  V30 19203 O 1900.03 2.46966 0.525732 0
M  V30 19204 C 1901.34 1.54998 -2.57674 0
M  V30 19205 C 1902.89 1.66935 -2.64767 0
M  V30 19206 C 1903.37 2.23802 -3.99596 0
M  V30 19207 N 1904.86 2.31176 -4.01388 0
M  V30 19208 C 1905.59 2.76181 -5.02506 0
M  V30 19209 N 1905.09 3.20868 -6.14016 0
M  V30 19210 N 1906.88 2.7565 -4.89871 0
M  V30 19211 H 1899.03 0.045751 -2.12351 0
M  V30 19212 H 1901.3 0.0828835 -0.94437 0
M  V30 19213 H 1901 0.892393 -3.4019 0
M  V30 19214 H 1900.88 2.53377 -2.79428 0
M  V30 19215 H 1903.26 2.31808 -1.82617 0
M  V30 19216 H 1903.34 0.671301 -2.46834 0
M  V30 19217 H 1902.99 1.59547 -4.8219 0
M  V30 19218 H 1902.92 3.24339 -4.14864 0
M  V30 19219 H 1905.41 1.99627 -3.2087 0
M  V30 19220 H 1905.72 3.53803 -6.87054 0
M  V30 19221 H 1904.07 3.18803 -6.17568 0
M  V30 19222 H 1907.26 2.40081 -4.01844 0
M  V30 19223 H 1907.43 3.10407 -5.68816 0
M  V30 19224 N 1900.84 1.26553 0.939264 0
M  V30 19225 C 1901.8 1.08335 2.01981 0
M  V30 19226 C 1902.8 0.0310501 1.6077 0
M  V30 19227 O 1903.99 0.274627 1.72022 0
M  V30 19228 C 1901.12 0.648208 3.34681 0
M  V30 19229 H 1902.31 2.04272 2.19574 0
M  V30 19230 H 1899.87 1.09177 1.11849 0
M  V30 19231 H 1900.6 -0.313074 3.22785 0
M  V30 19232 H 1900.39 1.40806 3.65946 0
M  V30 19233 H 1901.88 0.54264 4.14059 0
M  V30 19234 N 1902.31 -1.14411 1.08387 0
M  V30 19235 C 1903.56 -1.8594 0.824492 0
M  V30 19236 C 1903.92 -1.81345 -0.642777 0
M  V30 19237 O 1903.21 -1.2331 -1.46647 0
M  V30 19238 C 1903.4 -3.33681 1.2803 0
M  V30 19239 C 1903.23 -3.52661 2.79034 0
M  V30 19240 C 1902 -3.67522 3.46779 0
M  V30 19241 C 1904.2 -3.49598 3.77208 0
M  V30 19242 N 1902.18 -3.74658 4.86317 0
M  V30 19243 C 1903.55 -3.62976 5.02641 0
M  V30 19244 C 1905.61 -3.32935 3.70215 0
M  V30 19245 C 1904.31 -3.61412 6.21912 0
M  V30 19246 C 1906.34 -3.32674 4.8896 0
M  V30 19247 C 1905.7 -3.46591 6.13232 0
M  V30 19248 H 1901.8 -0.697076 0.354413 0
M  V30 19249 H 1904.38 -1.37126 1.38219 0
M  V30 19250 H 1902.55 -3.81086 0.750178 0
M  V30 19251 H 1904.28 -3.92969 0.967357 0
M  V30 19252 H 1901.04 -3.68744 2.97195 0
M  V30 19253 H 1901.46 -3.81944 5.5897 0
M  V30 19254 H 1906.11 -3.21085 2.75071 0
M  V30 19255 H 1903.82 -3.72037 7.17366 0
M  V30 19256 H 1907.41 -3.20993 4.85237 0
M  V30 19257 H 1906.29 -3.46336 7.03577 0
M  V30 19258 N 1903.79 -0.869509 -1.31443 0
M  V30 19259 C 1904.72 -0.340679 -2.31001 0
M  V30 19260 C 1905.7 0.568186 -1.6033 0
M  V30 19261 O 1906.89 0.485305 -1.88038 0
M  V30 19262 C 1904.02 0.45909 -3.44252 0
M  V30 19263 C 1902.97 -0.356639 -4.26512 0
M  V30 19264 C 1902.3 0.568786 -5.31666 0
M  V30 19265 C 1903.6 -1.59045 -4.97496 0
M  V30 19266 H 1905.29 -1.1726 -2.75482 0
M  V30 19267 H 1902.84 -0.5653 -1.3244 0
M  V30 19268 H 1904.79 0.839573 -4.12952 0
M  V30 19269 H 1903.52 1.32451 -2.98537 0
M  V30 19270 H 1902.17 -0.719063 -3.59479 0
M  V30 19271 H 1901.82 1.43148 -4.82201 0
M  V30 19272 H 1901.52 0.0268906 -5.87594 0
M  V30 19273 H 1903.05 0.946122 -6.03225 0
M  V30 19274 H 1904.46 -1.28144 -5.58795 0
M  V30 19275 H 1902.86 -2.07139 -5.63217 0
M  V30 19276 H 1903.93 -2.34354 -4.24507 0
M  V30 19277 N 1905.27 1.44508 -0.628902 0
M  V30 19278 C 1906.51 2.03948 -0.135785 0
M  V30 19279 C 1906.87 1.48382 1.21848 0
M  V30 19280 O 1908.08 1.9931 1.80357 0
M  V30 19281 C 1906.35 3.572 -0.119635 0
M  V30 19282 S 1907.91 4.37709 0.309185 0
M  V30 19283 H 1904.72 0.708464 -0.0599938 0
M  V30 19284 H 1907.33 1.76922 -0.831792 0
M  V30 19285 H 1906.03 3.95148 -1.10842 0
M  V30 19286 H 1905.56 3.88833 0.59769 0
M  V30 19287 H 1907.58 4.71241 1.55391 0
M  V30 19288 N 1906.75 0.369315 1.53212 0
M  V30 19289 C 1908.03 -0.275781 1.93646 0
M  V30 19290 C 1908.41 -1.66075 1.30316 0
M  V30 19291 O 1907.75 -2.23746 0.463658 0
M  V30 19292 C 1907.96 -0.322239 3.47509 0
M  V30 19293 C 1909.31 -0.560798 4.2088 0
M  V30 19294 O 1910.34 -0.403291 3.5391 0
M  V30 19295 O 1909.2 -0.86778 5.39566 0
M  V30 19296 H 1906.29 -0.166296 0.810108 0
M  V30 19297 H 1908.84 0.42237 1.6436 0
M  V30 19298 H 1907.61 0.648648 3.85886 0
M  V30 19299 H 1907.23 -1.06613 3.8304 0
M  V30 19300 N 1908.23 -1.57291 0.0985816 0
M  V30 19301 C 1909.64 -1.575 -0.258064 0
M  V30 19302 C 1909.84 -1.10997 -1.68172 0
M  V30 19303 O 1908.9 -0.78802 -2.39889 0
M  V30 19304 C 1910.21 -3.00669 -0.0433215 0
M  V30 19305 C 1911.76 -3.12804 -0.110802 0
M  V30 19306 C 1912.24 -4.57937 0.0759907 0
M  V30 19307 N 1913.73 -4.63195 0.021273 0
M  V30 19308 C 1914.46 -5.73227 0.141 0
M  V30 19309 N 1913.96 -6.9208 0.315756 0
M  V30 19310 N 1915.75 -5.6204 0.0820222 0
M  V30 19311 H 1907.9 -1.85826 1.02871 0
M  V30 19312 H 1910.16 -0.857869 0.403441 0
M  V30 19313 H 1909.87 -3.38903 0.940103 0
M  V30 19314 H 1909.74 -3.6896 -0.784124 0
M  V30 19315 H 1912.13 -2.7444 -1.08473 0
M  V30 19316 H 1912.21 -2.47098 0.661548 0
M  V30 19317 H 1911.86 -4.96995 1.04681 0
M  V30 19318 H 1911.79 -5.21708 -0.716096 0
M  V30 19319 H 1914.28 -3.77737 -0.111114 0
M  V30 19320 H 1914.59 -7.71772 0.398531 0
M  V30 19321 H 1912.94 -6.94111 0.351469 0
M  V30 19322 H 1916.13 -4.6807 -0.0533968 0
M  V30 19323 H 1916.3 -6.47753 0.178778 0
M  V30 19324 N 1909.71 0.175127 -1.56624 0
M  V30 19325 C 1910.98 0.919424 -1.72644 0
M  V30 19326 C 1911.36 2.00553 -0.658929 0
M  V30 19327 O 1910.71 2.2615 0.326897 0
M  V30 19328 C 1910.92 1.48764 -3.15706 0
M  V30 19329 C 1912.27 1.96204 -3.76549 0
M  V30 19330 O 1913.29 1.58565 -3.1896 0
M  V30 19331 O 1912.15 2.65525 -4.7766 0
M  V30 19332 H 1909.25 0.43251 -0.704886 0
M  V30 19333 H 1911.79 0.163255 -1.68913 0
M  V30 19334 H 1910.56 0.705743 -3.84883 0
M  V30 19335 H 1910.19 2.3081 -3.23748 0
M  V30 19336 N 1911.18 1.5123 0.44355 0
M  V30 19337 C 1912.13 1.7266 1.55857 0
M  V30 19338 C 1913.13 0.59279 1.5869 0
M  V30 19339 O 1914.33 0.774014 1.62509 0
M  V30 19340 H 1910.71 0.545442 0.517684 0
M  V30 19341 H 1912.68 2.66139 1.34954 0
M  V30 19342 C 1911.43 1.86311 2.9357 0
M  V30 19343 H 1910.75 2.72958 2.9212 0
M  V30 19344 H 1912.19 2.0532 3.70971 0
M  V30 19345 C 1910.65 0.621377 3.3112 0
M  V30 19346 O 1911.18 -0.226833 4.01059 0
M  V30 19347 N 1909.38 0.467286 2.86818 0
M  V30 19348 H 1908.93 1.15859 2.30075 0
M  V30 19349 H 1908.89 -0.36232 3.12305 0
M  V30 19350 N 1912.66 -0.698586 1.41271 0
M  V30 19351 C 1913.94 -1.45291 1.30957 0
M  V30 19352 C 1914.32 -2.11002 -0.0642533 0
M  V30 19353 O 1913.67 -2.01458 -1.07829 0
M  V30 19354 C 1913.88 -2.4748 2.46078 0
M  V30 19355 C 1915.22 -3.1282 2.87104 0
M  V30 19356 O 1916.25 -2.57804 2.45796 0
M  V30 19357 O 1915.11 -4.12458 3.58525 0
M  V30 19358 H 1912.2 -0.646905 0.515212 0
M  V30 19359 H 1914.75 -0.72932 1.53229 0
M  V30 19360 H 1913.52 -1.97558 3.37767 0
M  V30 19361 H 1913.14 -3.27353 2.25668 0
M  V30 19362 N 1914.14 -1.27049 -0.93254 0
M  V30 19363 C 1915.38 -1.14333 -1.69432 0
M  V30 19364 C 1915.74 0.306622 -1.89536 0
M  V30 19365 O 1916.94 0.556096 -2.62985 0
M  V30 19366 C 1915.22 -1.90032 -3.02692 0
M  V30 19367 S 1916.77 -1.93472 -3.93845 0
M  V30 19368 H 1913.59 -0.408249 -0.582111 0
M  V30 19369 H 1916.19 -1.6089 -1.11061 0
M  V30 19370 H 1914.9 -2.94579 -2.85748 0
M  V30 19371 H 1914.43 -1.4395 -3.66117 0
M  V30 19372 H 1916.44 -1.02765 -4.85442 0
M  V30 19373 N 1915.62 1.13835 -1.08993 0
M  V30 19374 C 1916.87 1.84645 -0.82163 0
M  V30 19375 C 1917.19 1.83685 0.65458 0
M  V30 19376 O 1916.46 1.28948 1.47477 0
M  V30 19377 H 1915.04 0.683691 -0.300958 0
M  V30 19378 H 1917.7 1.37915 -1.37715 0
M  V30 19379 H 1916.79 2.89292 -1.17117 0
M  V30 19380 N 1917.1 0.876467 1.3098 0
M  V30 19381 C 1918.37 0.411051 1.91232 0
M  V30 19382 C 1918.75 -1.10748 1.79717 0
M  V30 19383 O 1918.1 -1.93898 1.20896 0
M  V30 19384 C 1918.31 0.899663 3.37205 0
M  V30 19385 C 1919.66 0.929615 4.14299 0
M  V30 19386 O 1920.68 0.845752 3.46014 0
M  V30 19387 O 1919.54 1.05211 5.36277 0
M  V30 19388 H 1916.64 0.12418 0.817624 0
M  V30 19389 H 1919.18 0.964808 1.39605 0
M  V30 19390 H 1917.95 1.94336 3.39631 0
M  V30 19391 H 1917.58 0.324585 3.96273 0
M  V30 19392 N 1918.57 -1.44173 0.636557 0
M  V30 19393 C 1919.51 -2.27912 -0.114546 0
M  V30 19394 C 1920.48 -1.38856 -0.846028 0
M  V30 19395 O 1921.67 -1.68298 -0.84901 0
M  V30 19396 C 1918.8 -3.17907 -1.16844 0
M  V30 19397 C 1917.84 -4.23107 -0.536886 0
M  V30 19398 S 1918.67 -5.31202 0.677107 0
M  V30 19399 C 1919.83 -6.24766 -0.376669 0
M  V30 19400 H 1920.06 -2.91268 0.595839 0
M  V30 19401 H 1917.6 -1.48439 0.424887 0
M  V30 19402 H 1919.55 -3.70306 -1.77154 0
M  V30 19403 H 1918.22 -2.53761 -1.85105 0
M  V30 19404 H 1917.41 -4.86113 -1.3308 0
M  V30 19405 H 1917.01 -3.73999 -0.00829068 0
M  V30 19406 H 1919.3 -6.65912 -1.24768 0
M  V30 19407 H 1920.25 -7.07765 0.217942 0
M  V30 19408 H 1920.65 -5.6008 -0.705003 0
M  V30 19409 N 1920.05 -0.377435 -1.53014 0
M  V30 19410 C 1921.28 0.211512 -2.06319 0
M  V30 19411 C 1921.7 1.40713 -1.24825 0
M  V30 19412 O 1921.06 1.79274 -0.270279 0
M  V30 19413 C 1921.11 0.571512 -3.56042 0
M  V30 19414 O 1920.21 1.66713 -3.77201 0
M  V30 19415 H 1919.55 0.0279862 -0.66341 0
M  V30 19416 H 1922.08 -0.541471 -1.97305 0
M  V30 19417 H 1922.09 0.839182 -3.99277 0
M  V30 19418 H 1920.77 -0.302672 -4.14797 0
M  V30 19419 H 1919.34 1.3941 -3.4586 0
M  V30 19420 N 1921.53 1.57237 -0.106922 0
M  V30 19421 C 1922.81 1.8627 0.596889 0
M  V30 19422 C 1923.19 1.00593 1.85591 0
M  V30 19423 O 1922.54 0.0815394 2.28354 0
M  V30 19424 C 1922.75 3.37171 0.900934 0
M  V30 19425 C 1924.09 4.05497 1.25926 0
M  V30 19426 O 1925.12 3.4212 0.99158 0
M  V30 19427 O 1923.98 5.17347 1.76109 0
M  V30 19428 H 1921.07 0.770704 0.299907 0
M  V30 19429 H 1923.62 1.69117 -0.140513 0
M  V30 19430 H 1922.39 3.91299 0.00823337 0
M  V30 19431 H 1922.01 3.59712 1.69391 0
M  V30 19432 N 1923.01 -0.166818 1.56715 0
M  V30 19433 C 1923.92 -1.22632 1.99996 0
M  V30 19434 C 1924.93 -1.4818 0.912068 0
M  V30 19435 O 1926.11 -1.6024 1.22005 0
M  V30 19436 C 1923.18 -2.54444 2.35498 0
M  V30 19437 C 1922.24 -2.36718 3.58138 0
M  V30 19438 C 1921.47 -3.62244 3.91937 0
M  V30 19439 O 1921.69 -4.67609 3.26646 0
M  V30 19440 O 1920.63 -3.56087 4.85269 0
M  V30 19441 H 1924.45 -0.888926 2.90399 0
M  V30 19442 H 1922.04 -0.374032 1.44642 0
M  V30 19443 H 1923.92 -3.32191 2.59281 0
M  V30 19444 H 1922.59 -2.87753 1.48256 0
M  V30 19445 H 1921.5 -1.56987 3.39567 0
M  V30 19446 H 1922.83 -2.08332 4.45936 0
M  V30 19447 N 1924.49 -1.51463 -0.435524 0
M  V30 19448 C 1925.43 -1.72908 -1.52877 0
M  V30 19449 C 1926.4 -0.570809 -1.55984 0
M  V30 19450 O 1927.59 -0.805443 -1.72966 0
M  V30 19451 C 1924.73 -1.8617 -2.90576 0
M  V30 19452 C 1923.84 -3.13726 -2.96985 0
M  V30 19453 C 1922.98 -3.17573 -4.25818 0
M  V30 19454 C 1922.02 -4.39437 -4.26101 0
M  V30 19455 N 1921.15 -4.40823 -5.46461 0
M  V30 19456 H 1925.99 -2.66226 -1.33894 0
M  V30 19457 H 1923.53 -1.3194 -0.650399 0
M  V30 19458 H 1925.49 -1.91841 -3.70476 0
M  V30 19459 H 1924.12 -0.962585 -3.08114 0
M  V30 19460 H 1923.17 -3.17356 -2.09737 0
M  V30 19461 H 1924.48 -4.03634 -2.93055 0
M  V30 19462 H 1923.64 -3.2217 -5.14093 0
M  V30 19463 H 1922.37 -2.25558 -4.32406 0
M  V30 19464 H 1921.38 -4.35014 -3.36219 0
M  V30 19465 H 1922.6 -5.32718 -4.21175 0
M  V30 19466 H 1920.55 -3.51679 -5.53767 0
M  V30 19467 H 1920.47 -5.24541 -5.44419 0
M  V30 19468 H 1921.74 -4.49615 -6.36763 0
M  V30 19469 N 1925.96 0.691085 -1.4164 0
M  V30 19470 C 1927.24 1.44595 -1.31726 0
M  V30 19471 C 1927.62 2.11033 0.0530624 0
M  V30 19472 O 1926.97 2.02027 1.06759 0
M  V30 19473 C 1927.18 2.46172 -2.47387 0
M  V30 19474 C 1928.53 3.11293 -2.88759 0
M  V30 19475 O 1929.55 2.56497 -2.47159 0
M  V30 19476 O 1928.41 4.10551 -3.60707 0
M  V30 19477 H 1925.5 0.644163 -0.518635 0
M  V30 19478 H 1928.05 0.721184 -1.53613 0
M  V30 19479 H 1926.82 1.95764 -3.3881 0
M  V30 19480 H 1926.45 3.26151 -2.27401 0
M  V30 19481 N 1927.44 1.27542 0.925789 0
M  V30 19482 C 1928.68 1.1523 1.68823 0
M  V30 19483 C 1929.05 -0.296566 1.89696 0
M  V30 19484 O 1930.25 -0.542141 2.63276 0
M  V30 19485 C 1928.52 1.91634 3.0168 0
M  V30 19486 S 1930.08 1.95558 3.92814 0
M  V30 19487 H 1926.9 0.41133 0.579938 0
M  V30 19488 H 1929.5 1.61477 1.10207 0
M  V30 19489 H 1928.2 2.9609 2.84181 0
M  V30 19490 H 1927.73 1.4589 3.65349 0
M  V30 19491 H 1929.75 1.05338 4.8489 0
M  V30 19492 N 1928.92 -1.13255 1.09595 0
M  V30 19493 C 1930.33 -1.66118 0.852147 0
M  V30 19494 C 1930.68 -1.86177 -0.61909 0
M  V30 19495 O 1929.81 -1.58186 -1.47669 0
M  V30 19496 C 1930.4 -3.0176 1.54034 0
M  V30 19497 C 1928.96 -3.51608 1.34347 0
M  V30 19498 C 1928.11 -2.26815 1.59531 0
M  V30 19499 H 1931.06 -0.971539 1.25486 0
M  V30 19500 H 1931.08 -3.67812 0.974418 0
M  V30 19501 H 1930.59 -2.87129 2.6111 0
M  V30 19502 H 1928.69 -3.71439 0.293951 0
M  V30 19503 H 1928.81 -4.31618 2.07949 0
M  V30 19504 H 1927.17 -2.33492 1.01753 0
M  V30 19505 H 1927.95 -2.14748 2.6784 0
M  V30 19506 N 1930.4 -0.883401 -1.30514 0
M  V30 19507 C 1931.63 -0.515948 -2.00364 0
M  V30 19508 C 1932.04 0.895148 -1.6623 0
M  V30 19509 O 1931.4 1.58844 -0.898601 0
M  V30 19510 C 1931.45 -0.679282 -3.55061 0
M  V30 19511 O 1931.17 -2.03482 -3.87978 0
M  V30 19512 C 1932.67 -0.314612 -4.42182 0
M  V30 19513 H 1929.89 -0.199595 -0.640627 0
M  V30 19514 H 1932.44 -1.18827 -1.66435 0
M  V30 19515 H 1930.59 -0.0543511 -3.87362 0
M  V30 19516 H 1931 -2.0523 -4.82681 0
M  V30 19517 H 1932.48 -0.4798 -5.49911 0
M  V30 19518 H 1932.96 0.747247 -4.32797 0
M  V30 19519 H 1933.56 -0.9158 -4.15323 0
M  V30 19520 N 1931.88 1.43833 -0.644194 0
M  V30 19521 C 1932.81 2.29017 0.0914574 0
M  V30 19522 C 1933.82 1.4201 0.79605 0
M  V30 19523 O 1935.01 1.66036 0.655313 0
M  V30 19524 C 1932.11 3.18711 1.15225 0
M  V30 19525 C 1931.28 4.34206 0.527588 0
M  V30 19526 C 1930.34 5.04839 1.48406 0
M  V30 19527 O 1929.37 5.60416 0.996143 0
M  V30 19528 N 1930.57 5.075 2.81822 0
M  V30 19529 H 1933.34 2.92794 -0.639656 0
M  V30 19530 H 1930.9 1.54424 -0.486308 0
M  V30 19531 H 1932.89 3.62827 1.79272 0
M  V30 19532 H 1931.46 2.56595 1.78543 0
M  V30 19533 H 1930.68 3.93119 -0.291782 0
M  V30 19534 H 1931.97 5.08718 0.091139 0
M  V30 19535 H 1931.36 4.63703 3.24031 0
M  V30 19536 H 1929.92 5.55364 3.41195 0
M  V30 19537 N 1933.35 0.385544 1.52811 0
M  V30 19538 C 1934.77 -0.0893152 1.86486 0
M  V30 19539 C 1935.12 -1.46473 1.30538 0
M  V30 19540 O 1934.24 -2.06866 0.635244 0
M  V30 19541 C 1934.84 -0.168846 3.38379 0
M  V30 19542 C 1933.4 -0.587992 3.71779 0
M  V30 19543 C 1932.54 0.252389 2.76149 0
M  V30 19544 H 1935.49 0.603569 1.46774 0
M  V30 19545 H 1935.51 -0.988694 3.6743 0
M  V30 19546 H 1935.03 0.832334 3.7907 0
M  V30 19547 H 1933.13 -1.59668 3.36656 0
M  V30 19548 H 1933.24 -0.34875 4.77829 0
M  V30 19549 H 1931.6 -0.281775 2.53137 0
M  V30 19550 H 1932.39 1.25148 3.19676 0
M  V30 19551 N 1934.83 -1.57178 0.115259 0
M  V30 19552 C 1936.08 -1.95066 -0.543645 0
M  V30 19553 C 1936.41 -0.998318 -1.66925 0
M  V30 19554 O 1935.66 -0.0215177 -1.95688 0
M  V30 19555 C 1935.96 -3.39391 -1.12019 0
M  V30 19556 C 1935.63 -4.5075 -0.116323 0
M  V30 19557 C 1934.29 -4.80935 0.159725 0
M  V30 19558 C 1936.64 -5.18096 0.568016 0
M  V30 19559 C 1933.97 -5.75784 1.12646 0
M  V30 19560 C 1936.32 -6.13984 1.52336 0
M  V30 19561 C 1934.99 -6.42564 1.80743 0
M  V30 19562 H 1934.26 -0.713797 -0.198934 0
M  V30 19563 H 1936.9 -1.90501 0.195371 0
M  V30 19564 H 1935.21 -3.40633 -1.93589 0
M  V30 19565 H 1936.9 -3.66018 -1.63805 0
M  V30 19566 H 1933.49 -4.27236 -0.341664 0
M  V30 19567 H 1937.68 -4.94934 0.367913 0
M  V30 19568 H 1932.93 -5.96234 1.35334 0
M  V30 19569 H 1937.11 -6.65255 2.05933 0
M  V30 19570 H 1934.74 -7.15867 2.55808 0
M  V30 19571 N 1936.31 0.158505 -1.56801 0
M  V30 19572 C 1937.73 0.510743 -1.51207 0
M  V30 19573 C 1937.93 1.83983 -0.821733 0
M  V30 19574 O 1936.98 2.4951 -0.387444 0
M  V30 19575 C 1938.3 0.531668 -2.95962 0
M  V30 19576 C 1939.84 0.617983 -3.06839 0
M  V30 19577 C 1940.32 0.66968 -4.53078 0
M  V30 19578 N 1941.81 0.73222 -4.57376 0
M  V30 19579 C 1942.55 0.793011 -5.6789 0
M  V30 19580 N 1942.04 0.81385 -6.88003 0
M  V30 19581 N 1943.83 0.833013 -5.55893 0
M  V30 19582 H 1935.99 -0.712841 -2.00081 0
M  V30 19583 H 1938.25 -0.258572 -0.912055 0
M  V30 19584 H 1937.95 -0.376495 -3.49679 0
M  V30 19585 H 1937.83 1.37366 -3.51298 0
M  V30 19586 H 1940.22 1.51657 -2.53149 0
M  V30 19587 H 1940.3 -0.250933 -2.54566 0
M  V30 19588 H 1939.94 -0.2247 -5.07403 0
M  V30 19589 H 1939.87 1.55492 -5.0312 0
M  V30 19590 H 1942.36 0.72388 -3.70902 0
M  V30 19591 H 1942.67 0.861766 -7.6798 0
M  V30 19592 H 1941.02 0.781915 -6.90587 0
M  V30 19593 H 1944.21 0.813822 -4.60971 0
M  V30 19594 H 1944.38 0.876926 -6.42039 0
M  V30 19595 N 1937.79 1.51692 0.427485 0
M  V30 19596 C 1939.03 1.66512 1.18545 0
M  V30 19597 C 1939.39 0.377884 1.88245 0
M  V30 19598 O 1940.59 0.401977 2.65777 0
M  V30 19599 C 1938.87 2.84155 2.16774 0
M  V30 19600 S 1940.42 3.19359 3.00925 0
M  V30 19601 H 1937.24 0.586537 0.401865 0
M  V30 19602 H 1939.84 1.89629 0.475503 0
M  V30 19603 H 1938.55 3.7611 1.64224 0
M  V30 19604 H 1938.08 2.63256 2.92335 0
M  V30 19605 H 1940.09 2.66556 4.18524 0
M  V30 19606 N 1939.27 -0.683564 1.42004 0
M  V30 19607 C 1940.68 -1.26389 1.37414 0
M  V30 19608 C 1941.03 -1.96099 0.0630958 0
M  V30 19609 O 1940.15 -1.995 -0.838385 0
M  V30 19610 C 1940.75 -2.29854 2.48903 0
M  V30 19611 C 1939.31 -2.83435 2.47673 0
M  V30 19612 C 1938.46 -1.57634 2.28138 0
M  V30 19613 H 1941.41 -0.477522 1.51345 0
M  V30 19614 H 1941.43 -3.11404 2.18651 0
M  V30 19615 H 1940.94 -1.7909 3.44309 0
M  V30 19616 H 1939.04 -3.38344 1.56059 0
M  V30 19617 H 1939.15 -3.33048 3.44407 0
M  V30 19618 H 1937.52 -1.83883 1.76236 0
M  V30 19619 H 1938.3 -1.08848 3.25587 0
M  V30 19620 N 1940.75 -1.28031 -0.919012 0
M  V30 19621 C 1941.97 -1.17828 -1.70679 0
M  V30 19622 C 1942.4 0.260207 -1.86292 0
M  V30 19623 O 1941.75 1.18833 -1.36925 0
M  V30 19624 C 1941.8 -1.87626 -3.07943 0
M  V30 19625 O 1940.91 -1.18014 -3.95154 0
M  V30 19626 H 1940.25 -0.40932 -0.522832 0
M  V30 19627 H 1942.78 -1.69258 -1.14947 0
M  V30 19628 H 1942.79 -1.95327 -3.58206 0
M  V30 19629 H 1941.46 -2.92263 -2.95897 0
M  V30 19630 H 1940.04 -1.18441 -3.5359 0
M  V30 19631 N 1942.22 1.12672 -1.10194 0
M  V30 19632 C 1943.47 1.84605 -0.85397 0
M  V30 19633 C 1943.82 1.82345 0.613845 0
M  V30 19634 O 1943.12 1.25627 1.44667 0
M  V30 19635 C 1943.31 3.31602 -1.33322 0
M  V30 19636 C 1943.14 3.48177 -2.8461 0
M  V30 19637 C 1941.91 3.61958 -3.52582 0
M  V30 19638 C 1944.11 3.43553 -3.82722 0
M  V30 19639 N 1942.09 3.66874 -4.92216 0
M  V30 19640 C 1943.46 3.54933 -5.08352 0
M  V30 19641 C 1945.52 3.27003 -3.75465 0
M  V30 19642 C 1944.22 3.51472 -6.27583 0
M  V30 19643 C 1946.25 3.24853 -4.94191 0
M  V30 19644 C 1945.61 3.36792 -6.18669 0
M  V30 19645 H 1941.71 0.69135 -0.365458 0
M  V30 19646 H 1944.29 1.3491 -1.40383 0
M  V30 19647 H 1942.46 3.79845 -0.810711 0
M  V30 19648 H 1944.19 3.9138 -1.02975 0
M  V30 19649 H 1940.95 3.63969 -3.03024 0
M  V30 19650 H 1941.37 3.73003 -5.64976 0
M  V30 19651 H 1946.01 3.16668 -2.80145 0
M  V30 19652 H 1943.73 3.60577 -7.23194 0
M  V30 19653 H 1947.32 3.13232 -4.90282 0
M  V30 19654 H 1946.2 3.35099 -7.08998 0
M  V30 19655 N 1943.7 0.89031 1.30043 0
M  V30 19656 C 1944.63 0.31832 2.26979 0
M  V30 19657 C 1945.65 -0.530108 1.53928 0
M  V30 19658 O 1946.84 -0.348791 1.75059 0
M  V30 19659 C 1943.94 -0.565563 3.34148 0
M  V30 19660 C 1943.11 0.255006 4.36656 0
M  V30 19661 C 1942.17 -0.560216 5.23209 0
M  V30 19662 O 1941.19 0.0189739 5.69197 0
M  V30 19663 N 1942.4 -1.86825 5.49615 0
M  V30 19664 H 1945.16 1.15143 2.76699 0
M  V30 19665 H 1942.72 0.753836 1.43279 0
M  V30 19666 H 1944.71 -1.11711 3.88976 0
M  V30 19667 H 1943.28 -1.29935 2.84316 0
M  V30 19668 H 1942.5 0.987993 3.81618 0
M  V30 19669 H 1943.79 0.817308 5.02193 0
M  V30 19670 H 1943.19 -2.36167 5.14045 0
M  V30 19671 H 1941.75 -2.36713 6.07297 0
M  V30 19672 N 1945.18 -1.43489 0.651812 0
M  V30 19673 C 1946.43 -2.02659 0.173472 0
M  V30 19674 C 1946.78 -1.50495 -1.19871 0
M  V30 19675 O 1946.07 -0.687826 -1.78828 0
M  V30 19676 C 1946.27 -3.57189 0.122885 0
M  V30 19677 C 1946.1 -4.24347 1.48862 0
M  V30 19678 C 1944.87 -4.60475 2.08065 0
M  V30 19679 C 1947.06 -4.53447 2.42673 0
M  V30 19680 N 1945.05 -5.12699 3.37658 0
M  V30 19681 C 1946.42 -5.06975 3.56898 0
M  V30 19682 C 1948.47 -4.35414 2.41493 0
M  V30 19683 C 1947.18 -5.44368 4.70166 0
M  V30 19684 C 1949.2 -4.73868 3.5384 0
M  V30 19685 C 1948.56 -5.27528 4.66791 0
M  V30 19686 H 1944.66 -0.774524 0.107876 0
M  V30 19687 H 1947.25 -1.74686 0.85981 0
M  V30 19688 H 1945.42 -3.84728 -0.532793 0
M  V30 19689 H 1947.15 -4.0304 -0.366198 0
M  V30 19690 H 1943.9 -4.4547 1.60789 0
M  V30 19691 H 1944.33 -5.43265 4.0397 0
M  V30 19692 H 1948.97 -3.93203 1.55407 0
M  V30 19693 H 1946.69 -5.85523 5.56946 0
M  V30 19694 H 1950.27 -4.61611 3.54127 0
M  V30 19695 H 1949.15 -5.56731 5.52286 0
M  V30 19696 N 1946.66 -0.393643 -1.52605 0
M  V30 19697 C 1947.59 0.474548 -2.24234 0
M  V30 19698 C 1948.6 1.02311 -1.26634 0
M  V30 19699 O 1949.79 0.924695 -1.52681 0
M  V30 19700 C 1946.89 1.67083 -2.9485 0
M  V30 19701 C 1946.06 1.24889 -4.19192 0
M  V30 19702 C 1945.12 2.31034 -4.72768 0
M  V30 19703 O 1944.15 1.92263 -5.35746 0
M  V30 19704 N 1945.35 3.63004 -4.52999 0
M  V30 19705 H 1948.12 -0.139149 -2.99377 0
M  V30 19706 H 1945.68 -0.220221 -1.60395 0
M  V30 19707 H 1947.67 2.37626 -3.27591 0
M  V30 19708 H 1946.24 2.19078 -2.22988 0
M  V30 19709 H 1945.46 0.372176 -3.92439 0
M  V30 19710 H 1946.75 0.94369 -4.99972 0
M  V30 19711 H 1946.15 3.97263 -4.02739 0
M  V30 19712 H 1944.7 4.29568 -4.90219 0
M  V30 19713 N 1948.14 1.57115 -0.123593 0
M  V30 19714 C 1949.38 1.97238 0.536324 0
M  V30 19715 C 1949.74 1.00568 1.63554 0
M  V30 19716 O 1950.94 1.29647 2.35468 0
M  V30 19717 C 1949.21 3.41596 1.05106 0
M  V30 19718 S 1950.77 4.03734 1.71886 0
M  V30 19719 H 1947.59 0.689335 0.17418 0
M  V30 19720 H 1950.19 1.94371 -0.209763 0
M  V30 19721 H 1948.89 4.09698 0.239937 0
M  V30 19722 H 1948.43 3.48123 1.83231 0
M  V30 19723 H 1950.44 3.94867 3.0049 0
M  V30 19724 N 1949.61 -0.150187 1.56883 0
M  V30 19725 C 1950.54 -1.18735 2.01058 0
M  V30 19726 C 1951.52 -1.44983 0.889606 0
M  V30 19727 O 1952.71 -1.55958 1.15719 0
M  V30 19728 C 1949.84 -2.52129 2.38848 0
M  V30 19729 C 1948.79 -2.40408 3.54101 0
M  V30 19730 C 1948.12 -3.78484 3.77695 0
M  V30 19731 C 1949.42 -1.89087 4.86871 0
M  V30 19732 H 1951.11 -0.820044 2.87951 0
M  V30 19733 H 1948.66 -0.393025 1.38533 0
M  V30 19734 H 1950.61 -3.24908 2.68352 0
M  V30 19735 H 1949.34 -2.90688 1.48889 0
M  V30 19736 H 1948 -1.70082 3.24758 0
M  V30 19737 H 1947.64 -4.14474 2.84992 0
M  V30 19738 H 1947.34 -3.71504 4.55256 0
M  V30 19739 H 1948.87 -4.52816 4.09621 0
M  V30 19740 H 1950.28 -2.51656 5.15114 0
M  V30 19741 H 1948.68 -1.93005 5.68216 0
M  V30 19742 H 1949.75 -0.846357 4.77457 0
M  V30 19743 N 1951.09 -1.51916 -0.419434 0
M  V30 19744 C 1952.34 -1.65142 -1.16502 0
M  V30 19745 C 1952.66 -0.378632 -1.91289 0
M  V30 19746 O 1951.93 0.606164 -1.86286 0
M  V30 19747 H 1950.51 -0.608667 -0.433051 0
M  V30 19748 H 1953.17 -1.88919 -0.47914 0
M  V30 19749 H 1952.27 -2.48762 -1.88477 0
M  V30 19750 N 1952.57 0.676023 -1.42365 0
M  V30 19751 C 1953.52 1.78219 -1.42204 0
M  V30 19752 C 1954.5 1.582 -0.293546 0
M  V30 19753 O 1955.7 1.68699 -0.535684 0
M  V30 19754 C 1952.83 3.1667 -1.3257 0
M  V30 19755 C 1951.91 3.42317 -2.50359 0
M  V30 19756 N 1952.3 3.38555 -3.75784 0
M  V30 19757 C 1950.6 3.72948 -2.44593 0
M  V30 19758 C 1951.3 3.63652 -4.54018 0
M  V30 19759 N 1950.28 3.84357 -3.8441 0
M  V30 19760 H 1954.08 1.73702 -2.37075 0
M  V30 19761 H 1951.59 0.876812 -1.36696 0
M  V30 19762 H 1953.59 3.95937 -1.30536 0
M  V30 19763 H 1952.25 3.22386 -0.38699 0
M  V30 19764 H 1953.26 3.18485 -4.08396 0
M  V30 19765 H 1949.94 3.85916 -1.59295 0
M  V30 19766 H 1951.33 3.66715 -5.63001 0
M  V30 19767 N 1954.05 1.28517 0.912209 0
M  V30 19768 C 1955 1.12437 2.03619 0
M  V30 19769 C 1955.99 0.0432331 1.69345 0
M  V30 19770 O 1957.2 0.202116 1.78862 0
M  V30 19771 H 1953.57 0.34694 0.667185 0
M  V30 19772 H 1955.54 2.07625 2.14323 0
M  V30 19773 C 1954.29 0.804603 3.38262 0
M  V30 19774 H 1953.61 1.62849 3.65131 0
M  V30 19775 H 1955.05 0.732055 4.17633 0
M  V30 19776 C 1953.51 -0.491715 3.33292 0
M  V30 19777 O 1954.04 -1.52155 3.71768 0
M  V30 19778 N 1952.25 -0.493007 2.86388 0
M  V30 19779 H 1951.8 0.34549 2.55273 0
M  V30 19780 H 1951.75 -1.36038 2.83445 0
M  V30 19781 N 1955.53 -1.12086 1.1079 0
M  V30 19782 C 1956.78 -1.83036 0.847387 0
M  V30 19783 C 1957.09 -1.85209 -0.629051 0
M  V30 19784 O 1958.29 -2.52191 -1.00559 0
M  V30 19785 C 1956.75 -3.28682 1.46615 0
M  V30 19786 C 1956.36 -3.34858 2.97614 0
M  V30 19787 C 1958.1 -4.04578 1.28519 0
M  V30 19788 C 1956.01 -4.7486 3.52508 0
M  V30 19789 H 1954.94 -0.685806 0.313347 0
M  V30 19790 H 1957.59 -1.2618 1.33233 0
M  V30 19791 H 1955.97 -3.85429 0.908883 0
M  V30 19792 H 1957.15 -2.8803 3.59688 0
M  V30 19793 H 1955.46 -2.72438 3.14907 0
M  V30 19794 H 1958.06 -5.07962 1.6697 0
M  V30 19795 H 1958.4 -4.1568 0.227105 0
M  V30 19796 H 1958.93 -3.542 1.81073 0
M  V30 19797 H 1955.67 -4.68954 4.57999 0
M  V30 19798 H 1955.19 -5.22125 2.95203 0
M  V30 19799 H 1956.87 -5.43807 3.50546 0
M  V30 19800 N 1957 -0.897194 -1.29569 0
M  V30 19801 C 1958.24 -0.528705 -1.97444 0
M  V30 19802 C 1958.61 0.907603 -1.69194 0
M  V30 19803 O 1959.81 1.38284 -2.30502 0
M  V30 19804 C 1958.08 -0.810047 -3.48099 0
M  V30 19805 S 1959.64 -0.545491 -4.35396 0
M  V30 19806 H 1956.46 -0.196241 -0.683382 0
M  V30 19807 H 1959.06 -1.15909 -1.57434 0
M  V30 19808 H 1957.76 -1.85366 -3.66153 0
M  V30 19809 H 1957.29 -0.167682 -3.93042 0
M  V30 19810 H 1959.31 0.610577 -4.92429 0
M  V30 19811 N 1958.48 1.43142 -0.659413 0
M  V30 19812 C 1959.73 2.02038 -0.175593 0
M  V30 19813 C 1960.06 1.5194 1.20946 0
M  V30 19814 O 1959.34 0.715095 1.80877 0
M  V30 19815 C 1959.62 3.59581 -0.193256 0
M  V30 19816 C 1959.47 4.19896 -1.61267 0
M  V30 19817 C 1960.79 4.37616 0.466976 0
M  V30 19818 H 1957.91 0.734103 -0.0652811 0
M  V30 19819 H 1960.55 1.7036 -0.841276 0
M  V30 19820 H 1958.7 3.867 0.373574 0
M  V30 19821 H 1960.37 4.03786 -2.23056 0
M  V30 19822 H 1958.62 3.7631 -2.15807 0
M  V30 19823 H 1959.29 5.28999 -1.57683 0
M  V30 19824 H 1961.76 4.16097 -0.0153667 0
M  V30 19825 H 1960.64 5.47261 0.423915 0
M  V30 19826 H 1960.9 4.14332 1.54211 0
M  V30 19827 N 1959.96 0.40173 1.52394 0
M  V30 19828 C 1960.91 -0.442142 2.28359 0
M  V30 19829 C 1961.9 -1.05228 1.32753 0
M  V30 19830 O 1963.11 -0.991332 1.50242 0
M  V30 19831 H 1959.48 -0.161356 0.734485 0
M  V30 19832 H 1961.45 0.219869 2.97589 0
M  V30 19833 C 1960.2 -1.55062 3.11209 0
M  V30 19834 H 1959.53 -1.09046 3.84642 0
M  V30 19835 H 1960.97 -2.11505 3.6748 0
M  V30 19836 C 1959.43 -2.51376 2.24303 0
M  V30 19837 O 1959.96 -3.55084 1.87825 0
M  V30 19838 N 1958.16 -2.2141 1.88218 0
M  V30 19839 H 1957.71 -1.37106 2.18082 0
M  V30 19840 H 1957.67 -2.861 1.30362 0
M  V30 19841 N 1961.44 -1.57047 0.131923 0
M  V30 19842 C 1962.37 -2.19006 -0.809859 0
M  V30 19843 C 1963.35 -1.13384 -1.26799 0
M  V30 19844 O 1964.53 -1.4167 -1.32827 0
M  V30 19845 C 1961.66 -2.79973 -2.05505 0
M  V30 19846 C 1960.62 -3.9129 -1.73424 0
M  V30 19847 C 1959.94 -4.39123 -3.05081 0
M  V30 19848 C 1961.24 -5.12783 -0.992535 0
M  V30 19849 H 1962.94 -2.97958 -0.293522 0
M  V30 19850 H 1960.48 -1.4332 -0.13974 0
M  V30 19851 H 1962.44 -3.2198 -2.71858 0
M  V30 19852 H 1961.16 -1.9833 -2.59486 0
M  V30 19853 H 1959.82 -3.49879 -1.09456 0
M  V30 19854 H 1959.47 -3.54322 -3.57022 0
M  V30 19855 H 1959.17 -5.14197 -2.84385 0
M  V30 19856 H 1960.69 -4.8379 -3.72531 0
M  V30 19857 H 1962.11 -5.51728 -1.55785 0
M  V30 19858 H 1960.5 -5.93522 -0.886062 0
M  V30 19859 H 1961.57 -4.84896 0.0184538 0
M  V30 19860 N 1962.92 0.141865 -1.5696 0
M  V30 19861 C 1964.14 0.872384 -1.8816 0
M  V30 19862 C 1964.57 1.73713 -0.721494 0
M  V30 19863 O 1963.92 1.78294 0.328757 0
M  V30 19864 C 1963.97 1.7007 -3.17976 0
M  V30 19865 O 1963.08 2.80545 -3.02271 0
M  V30 19866 H 1962.42 0.242672 -0.618066 0
M  V30 19867 H 1964.95 0.131136 -2.04179 0
M  V30 19868 H 1964.96 2.09466 -3.50126 0
M  V30 19869 H 1963.63 1.06573 -4.02014 0
M  V30 19870 H 1962.21 2.44519 -2.81541 0
M  V30 19871 N 1964.39 1.52136 0.411372 0
M  V30 19872 C 1965.64 1.66331 1.16025 0
M  V30 19873 C 1965.97 0.390981 1.90223 0
M  V30 19874 O 1965.25 -0.610512 1.8467 0
M  V30 19875 C 1965.53 2.88386 2.15651 0
M  V30 19876 C 1965.38 4.25664 1.45364 0
M  V30 19877 C 1966.7 3.05963 3.16346 0
M  V30 19878 H 1963.82 0.60531 0.420439 0
M  V30 19879 H 1966.46 1.84685 0.446247 0
M  V30 19880 H 1964.61 2.72869 2.76541 0
M  V30 19881 H 1966.29 4.52904 0.876105 0
M  V30 19882 H 1964.53 4.27168 0.75563 0
M  V30 19883 H 1965.2 5.07109 2.18047 0
M  V30 19884 H 1967.68 3.20363 2.65531 0
M  V30 19885 H 1966.55 3.92882 3.83321 0
M  V30 19886 H 1966.81 2.19177 3.83945 0
M  V30 19887 N 1965.87 -0.668464 1.42721 0
M  V30 19888 C 1967.12 -1.43061 1.43741 0
M  V30 19889 C 1967.45 -1.9412 0.0558656 0
M  V30 19890 O 1966.73 -1.71317 -0.920904 0
M  V30 19891 C 1967.01 -2.62307 2.46712 0
M  V30 19892 C 1966.86 -2.16839 3.94082 0
M  V30 19893 C 1968.18 -3.64525 2.46596 0
M  V30 19894 H 1965.3 -0.518854 0.523412 0
M  V30 19895 H 1967.94 -0.759144 1.74175 0
M  V30 19896 H 1966.09 -3.19593 2.20891 0
M  V30 19897 H 1967.77 -1.64672 4.30907 0
M  V30 19898 H 1966.01 -1.48352 4.07645 0
M  V30 19899 H 1966.68 -3.02521 4.6172 0
M  V30 19900 H 1969.16 -3.16968 2.69574 0
M  V30 19901 H 1968.03 -4.45532 3.20613 0
M  V30 19902 H 1968.29 -4.16084 1.49421 0
M  V30 19903 N 1967.35 -1.28999 -0.905381 0
M  V30 19904 C 1968.59 -1.17901 -1.66969 0
M  V30 19905 C 1968.96 0.26635 -1.90144 0
M  V30 19906 O 1970.16 0.500188 -2.64105 0
M  V30 19907 C 1968.43 -1.9641 -2.98593 0
M  V30 19908 S 1969.99 -2.01783 -3.89653 0
M  V30 19909 H 1966.8 -0.420505 -0.573321 0
M  V30 19910 H 1969.41 -1.6321 -1.07624 0
M  V30 19911 H 1968.11 -3.00573 -2.79435 0
M  V30 19912 H 1967.64 -1.51684 -3.62981 0
M  V30 19913 H 1969.66 -1.13039 -4.83153 0
M  V30 19914 N 1968.83 1.11497 -1.11383 0
M  V30 19915 C 1970.11 1.79631 -0.774086 0
M  V30 19916 C 1970.49 1.97781 0.737951 0
M  V30 19917 O 1969.83 1.56202 1.66773 0
M  V30 19918 C 1970.04 3.13357 -1.53649 0
M  V30 19919 C 1971.39 3.88407 -1.71538 0
M  V30 19920 O 1972.42 3.23045 -1.50069 0
M  V30 19921 O 1971.28 5.05694 -2.07209 0
M  V30 19922 H 1968.37 0.778022 -0.280376 0
M  V30 19923 H 1970.92 1.18245 -1.21722 0
M  V30 19924 H 1969.69 2.95498 -2.56509 0
M  V30 19925 H 1969.31 3.82456 -1.08688 0
M  V30 19926 N 1970.31 0.904053 1.29092 0
M  V30 19927 C 1971.56 0.531152 1.94995 0
M  V30 19928 C 1971.88 -0.926415 1.71588 0
M  V30 19929 O 1971.15 -1.65378 1.0501 0
M  V30 19930 H 1969.73 0.193439 0.721519 0
M  V30 19931 H 1972.39 1.1513 1.57262 0
M  V30 19932 H 1971.48 0.717412 3.03743 0
M  V30 19933 N 1971.79 -1.4279 0.666995 0
M  V30 19934 C 1973.03 -2.00866 0.183286 0
M  V30 19935 C 1973.35 -1.53315 -1.21465 0
M  V30 19936 O 1974.55 -2.03756 -1.79432 0
M  V30 19937 C 1973.01 -3.58834 0.276836 0
M  V30 19938 C 1972.62 -4.15374 1.67834 0
M  V30 19939 C 1974.36 -4.2424 -0.14856 0
M  V30 19940 C 1972.27 -5.65681 1.72507 0
M  V30 19941 H 1971.2 -0.751214 0.0647613 0
M  V30 19942 H 1973.85 -1.63603 0.83104 0
M  V30 19943 H 1972.23 -3.93563 -0.438672 0
M  V30 19944 H 1973.41 -3.9212 2.4203 0
M  V30 19945 H 1971.72 -3.62391 2.0509 0
M  V30 19946 H 1974.32 -5.34533 -0.133681 0
M  V30 19947 H 1974.66 -3.99154 -1.18245 0
M  V30 19948 H 1975.19 -3.94444 0.51567 0
M  V30 19949 H 1971.93 -5.95555 2.73852 0
M  V30 19950 H 1971.45 -5.9095 1.02655 0
M  V30 19951 H 1973.13 -6.29963 1.47499 0
M  V30 19952 N 1973.26 -0.409806 -1.52179 0
M  V30 19953 C 1974.51 0.165758 -2.0182 0
M  V30 19954 C 1974.84 1.45086 -1.29539 0
M  V30 19955 O 1974.09 1.91766 -0.390424 0
M  V30 19956 C 1974.39 0.459582 -3.54433 0
M  V30 19957 C 1974.06 -0.7364 -4.44846 0
M  V30 19958 C 1972.72 -1.06445 -4.69279 0
M  V30 19959 C 1975.07 -1.53553 -4.98067 0
M  V30 19960 C 1972.4 -2.19281 -5.44181 0
M  V30 19961 C 1974.75 -2.65467 -5.74204 0
M  V30 19962 C 1973.42 -2.98757 -5.96909 0
M  V30 19963 H 1972.69 0.0606551 -0.738513 0
M  V30 19964 H 1975.33 -0.551364 -1.83391 0
M  V30 19965 H 1973.64 1.25828 -3.71045 0
M  V30 19966 H 1975.34 0.917888 -3.90353 0
M  V30 19967 H 1971.93 -0.470734 -4.26007 0
M  V30 19968 H 1976.11 -1.29532 -4.79098 0
M  V30 19969 H 1971.37 -2.4542 -5.59981 0
M  V30 19970 H 1975.54 -3.27776 -6.14439 0
M  V30 19971 H 1973.17 -3.86307 -6.5473 0
M  V30 19972 N 1974.74 1.56975 -0.14025 0
M  V30 19973 C 1976.02 1.87494 0.557244 0
M  V30 19974 C 1976.4 1.04507 1.83416 0
M  V30 19975 O 1975.75 0.129958 2.2813 0
M  V30 19976 C 1975.96 3.39006 0.829213 0
M  V30 19977 C 1977.3 4.08077 1.17296 0
M  V30 19978 O 1978.33 3.44146 0.918788 0
M  V30 19979 O 1977.19 5.20966 1.65096 0
M  V30 19980 H 1974.28 0.776892 0.283492 0
M  V30 19981 H 1976.83 1.68781 -0.176354 0
M  V30 19982 H 1975.6 3.91229 -0.0747688 0
M  V30 19983 H 1975.22 3.63224 1.61723 0
M  V30 19984 N 1976.22 -0.133539 1.57033 0
M  V30 19985 C 1977.46 -0.849918 1.85892 0
M  V30 19986 C 1977.82 -1.77731 0.72634 0
M  V30 19987 O 1979.02 -2.53416 0.896316 0
M  V30 19988 C 1977.3 -1.59254 3.19958 0
M  V30 19989 S 1978.85 -2.3525 3.70409 0
M  V30 19990 H 1975.67 -0.283955 0.651836 0
M  V30 19991 H 1978.27 -0.1091 1.95195 0
M  V30 19992 H 1976.98 -0.902961 4.00343 0
M  V30 19993 H 1976.51 -2.37402 3.13694 0
M  V30 19994 H 1978.52 -3.60701 3.40748 0
M  V30 19995 N 1977.7 -1.52352 -0.403298 0
M  V30 19996 C 1979.11 -1.58796 -0.981864 0
M  V30 19997 C 1979.46 -0.432029 -1.91384 0
M  V30 19998 O 1978.58 0.446835 -2.11736 0
M  V30 19999 C 1979.18 -2.87807 -1.78752 0
M  V30 20000 C 1977.74 -2.96711 -2.31602 0
M  V30 20001 C 1976.89 -2.53787 -1.11748 0
M  V30 20002 H 1979.84 -1.57638 -0.18333 0
M  V30 20003 H 1979.86 -2.73488 -2.64546 0
M  V30 20004 H 1979.37 -3.71919 -1.10896 0
M  V30 20005 H 1977.47 -2.17105 -3.02814 0
M  V30 20006 H 1977.58 -4.0107 -2.62069 0
M  V30 20007 H 1975.95 -2.07771 -1.47321 0
M  V30 20008 H 1976.73 -3.40278 -0.45449 0
M  V30 20009 N 1979.18 0.660885 -1.43074 0
M  V30 20010 C 1980.12 1.79529 -1.47892 0
M  V30 20011 C 1981.12 1.65676 -0.353254 0
M  V30 20012 O 1982.32 1.72115 -0.526903 0
M  V30 20013 H 1978.7 0.592191 -0.46348 0
M  V30 20014 H 1980.67 1.72584 -2.43428 0
M  V30 20015 C 1979.42 3.17753 -1.41167 0
M  V30 20016 H 1978.74 3.29047 -2.27087 0
M  V30 20017 H 1980.18 3.97107 -1.486 0
M  V30 20018 C 1978.64 3.36656 -0.128241 0
M  V30 20019 O 1979.17 3.93376 0.813504 0
M  V30 20020 N 1977.38 2.90571 -0.0408985 0
M  V30 20021 H 1976.92 2.44598 -0.808059 0
M  V30 20022 H 1976.88 3.03595 0.817147 0
M  V30 20023 N 1980.65 1.29477 0.898527 0
M  V30 20024 C 1981.9 1.17284 1.64587 0
M  V30 20025 C 1982.22 -0.275718 1.93041 0
M  V30 20026 O 1981.49 -1.18847 1.55731 0
M  V30 20027 H 1980.07 0.431068 0.610073 0
M  V30 20028 H 1982.74 1.62419 1.07732 0
M  V30 20029 H 1981.83 1.72375 2.60179 0
M  V30 20030 N 1982.13 -1.10905 1.11972 0
M  V30 20031 C 1983.36 -1.86555 0.894699 0
M  V30 20032 C 1983.78 -1.80434 -0.555801 0
M  V30 20033 O 1983.13 -1.18957 -1.38403 0
M  V30 20034 C 1983.18 -3.35148 1.35492 0
M  V30 20035 O 1982.9 -3.41154 2.74856 0
M  V30 20036 C 1984.41 -4.27687 1.16612 0
M  V30 20037 H 1981.63 -0.589761 0.320037 0
M  V30 20038 H 1984.17 -1.40232 1.48846 0
M  V30 20039 H 1982.32 -3.78955 0.804493 0
M  V30 20040 H 1982.74 -4.3372 2.94936 0
M  V30 20041 H 1984.21 -5.30168 1.53708 0
M  V30 20042 H 1984.69 -4.39072 0.106219 0
M  V30 20043 H 1985.3 -3.8968 1.70381 0
M  V30 20044 N 1983.61 -0.910886 -1.2861 0
M  V30 20045 C 1984.89 -0.461608 -1.90075 0
M  V30 20046 C 1985.27 1.05944 -1.8259 0
M  V30 20047 O 1984.62 1.90624 -1.25995 0
M  V30 20048 C 1984.83 -0.98875 -3.34701 0
M  V30 20049 C 1986.17 -1.03913 -4.11688 0
M  V30 20050 O 1987.2 -0.937194 -3.4365 0
M  V30 20051 O 1986.06 -1.19392 -5.33299 0
M  V30 20052 H 1983.15 -0.145814 -0.814044 0
M  V30 20053 H 1985.7 -1.00148 -1.36998 0
M  V30 20054 H 1984.47 -2.03273 -3.34359 0
M  V30 20055 H 1984.09 -0.429535 -3.95273 0
M  V30 20056 N 1985.09 1.42434 -0.674558 0
M  V30 20057 C 1986 2.346 0.00398919 0
M  V30 20058 C 1987.01 1.55078 0.789109 0
M  V30 20059 O 1988.19 1.87647 0.731485 0
M  V30 20060 C 1985.26 3.33607 0.94379 0
M  V30 20061 C 1984.32 4.29026 0.153229 0
M  V30 20062 C 1983.55 5.23304 1.04827 0
M  V30 20063 O 1983.77 5.2251 2.28779 0
M  V30 20064 O 1982.71 5.99742 0.509202 0
M  V30 20065 H 1986.53 2.94161 -0.755189 0
M  V30 20066 H 1984.12 1.42933 -0.434794 0
M  V30 20067 H 1986 3.94431 1.4833 0
M  V30 20068 H 1984.67 2.76519 1.68282 0
M  V30 20069 H 1983.58 3.71616 -0.430381 0
M  V30 20070 H 1984.91 4.89155 -0.546686 0
M  V30 20071 N 1986.57 0.417871 1.51959 0
M  V30 20072 C 1987.79 -0.156736 2.06807 0
M  V30 20073 C 1988.22 -1.37354 1.28512 0
M  V30 20074 O 1987.57 -1.78494 0.317715 0
M  V30 20075 C 1987.62 -0.476913 3.57432 0
M  V30 20076 O 1986.73 -1.56654 3.81488 0
M  V30 20077 H 1986.07 -0.0103873 0.663919 0
M  V30 20078 H 1988.6 0.593593 1.958 0
M  V30 20079 H 1988.61 -0.733026 4.01361 0
M  V30 20080 H 1987.28 0.412542 4.13849 0
M  V30 20081 H 1985.86 -1.30191 3.49435 0
M  V30 20082 N 1988.04 -1.56898 0.148573 0
M  V30 20083 C 1989.46 -1.82957 -0.371991 0
M  V30 20084 C 1989.81 -1.06735 -1.64627 0
M  V30 20085 O 1988.93 -0.313128 -2.14123 0
M  V30 20086 C 1989.53 -3.31871 -0.681682 0
M  V30 20087 C 1988.09 -3.58506 -1.14676 0
M  V30 20088 C 1987.23 -2.76774 -0.170675 0
M  V30 20089 H 1990.18 -1.54248 0.373244 0
M  V30 20090 H 1990.2 -3.48112 -1.53618 0
M  V30 20091 H 1989.72 -3.8732 0.245938 0
M  V30 20092 H 1987.82 -3.08445 -2.09027 0
M  V30 20093 H 1987.93 -4.66961 -1.07165 0
M  V30 20094 H 1986.29 -2.45903 -0.663611 0
M  V30 20095 H 1987.08 -3.34995 0.750563 0
M  V30 20096 N 1989.52 0.125209 -1.57102 0
M  V30 20097 C 1990.45 1.15521 -2.02922 0
M  V30 20098 C 1991.43 1.43549 -0.912559 0
M  V30 20099 O 1992.62 1.54097 -1.18185 0
M  V30 20100 C 1989.75 2.48297 -2.42829 0
M  V30 20101 C 1988.7 2.34744 -3.57881 0
M  V30 20102 C 1988.03 3.72427 -3.83669 0
M  V30 20103 C 1989.33 1.81317 -4.89818 0
M  V30 20104 H 1991.02 0.774129 -2.89219 0
M  V30 20105 H 1988.57 0.370935 -1.3914 0
M  V30 20106 H 1990.52 3.20597 -2.73487 0
M  V30 20107 H 1989.25 2.88283 -1.53495 0
M  V30 20108 H 1987.9 1.64893 -3.27423 0
M  V30 20109 H 1987.55 4.09887 -2.9155 0
M  V30 20110 H 1987.25 3.64215 -4.61109 0
M  V30 20111 H 1988.78 4.46242 -4.16773 0
M  V30 20112 H 1990.19 2.43429 -5.19052 0
M  V30 20113 H 1988.59 1.83941 -5.71214 0
M  V30 20114 H 1989.66 0.770291 -4.78743 0
M  V30 20115 N 1991 1.52564 0.395213 0
M  V30 20116 C 1992.24 1.68989 1.14987 0
M  V30 20117 C 1992.6 0.417729 1.87401 0
M  V30 20118 O 1993.81 0.458262 2.64865 0
M  V30 20119 C 1992.08 2.88689 2.10698 0
M  V30 20120 S 1993.64 3.2567 2.94083 0
M  V30 20121 H 1990.45 0.594929 0.389333 0
M  V30 20122 H 1993.06 1.90595 0.435173 0
M  V30 20123 H 1991.76 3.79509 1.5621 0
M  V30 20124 H 1991.29 2.69398 2.86685 0
M  V30 20125 H 1993.31 2.75374 4.12776 0
M  V30 20126 N 1992.48 -0.653289 1.43422 0
M  V30 20127 C 1993.43 -1.78742 1.48842 0
M  V30 20128 C 1994.42 -1.65486 0.362035 0
M  V30 20129 O 1995.63 -1.71834 0.536023 0
M  V30 20130 H 1992 -0.589724 0.466614 0
M  V30 20131 H 1993.97 -1.7129 2.4434 0
M  V30 20132 C 1992.72 -3.17 1.4285 0
M  V30 20133 H 1992.04 -3.27838 2.28828 0
M  V30 20134 H 1993.48 -3.96314 1.50704 0
M  V30 20135 C 1991.94 -3.36583 0.146093 0
M  V30 20136 O 1992.47 -3.93802 -0.792631 0
M  V30 20137 N 1990.68 -2.90545 0.0563076 0
M  V30 20138 H 1990.23 -2.44166 0.82102 0
M  V30 20139 H 1990.18 -3.04024 -0.801035 0
M  V30 20140 N 1993.96 -1.29952 -0.891648 0
M  V30 20141 C 1995.2 -1.18155 -1.63963 0
M  V30 20142 C 1995.53 0.265477 -1.93184 0
M  V30 20143 O 1994.8 1.1802 -1.56359 0
M  V30 20144 H 1993.38 -0.434297 -0.607779 0
M  V30 20145 H 1996.04 -1.62988 -1.06869 0
M  V30 20146 H 1995.13 -1.73753 -2.59261 0
M  V30 20147 N 1995.44 1.1031 -1.12559 0
M  V30 20148 C 1996.38 2.18777 -0.789907 0
M  V30 20149 C 1997.38 1.67915 0.223815 0
M  V30 20150 O 1998.58 1.79814 0.0818894 0
M  V30 20151 H 1994.96 0.713472 -0.237618 0
M  V30 20152 H 1996.93 2.44328 -1.71308 0
M  V30 20153 C 1995.68 3.4671 -0.26223 0
M  V30 20154 H 1995 3.86209 -1.03356 0
M  V30 20155 H 1996.44 4.23949 -0.0656758 0
M  V30 20156 C 1994.9 3.21401 1.01011 0
M  V30 20157 O 1995.43 3.4319 2.08767 0
M  V30 20158 N 1993.64 2.7506 0.937571 0
M  V30 20159 H 1993.18 2.57529 0.0605557 0
M  V30 20160 H 1993.14 2.58503 1.78951 0
M  V30 20161 N 1996.91 0.917694 1.28125 0
M  V30 20162 C 1998.14 0.56827 1.99463 0
M  V30 20163 C 1998.56 -0.844246 1.6809 0
M  V30 20164 O 1997.92 -1.56487 0.915504 0
M  V30 20165 C 1997.97 0.788859 3.51866 0
M  V30 20166 O 1997.07 -0.150301 4.12126 0
M  V30 20167 H 1996.41 0.219899 0.626531 0
M  V30 20168 H 1998.94 1.23421 1.63182 0
M  V30 20169 H 1998.95 0.700502 4.01942 0
M  V30 20170 H 1997.63 1.81855 3.74034 0
M  V30 20171 H 1996.21 -0.012878 3.72898 0
M  V30 20172 N 1998.39 -1.42074 0.682102 0
M  V30 20173 C 1999.63 -2.03304 0.211386 0
M  V30 20174 C 2000 -1.52802 -1.16256 0
M  V30 20175 O 2001.2 -2.05867 -1.72836 0
M  V30 20176 C 1999.47 -3.5651 0.252125 0
M  V30 20177 S 2001.03 -4.38555 -0.146519 0
M  V30 20178 H 1997.84 -0.70575 0.0862467 0
M  V30 20179 H 2000.45 -1.73713 0.896882 0
M  V30 20180 H 1999.15 -3.90762 1.25432 0
M  V30 20181 H 1998.68 -3.90784 -0.452966 0
M  V30 20182 H 2000.7 -4.76684 -1.37794 0
M  V30 20183 N 1999.87 -0.425924 -1.51735 0
M  V30 20184 C 2001.09 0.145767 -2.06887 0
M  V30 20185 C 2001.52 1.36671 -1.29239 0
M  V30 20186 O 2000.88 1.78323 -0.327176 0
M  V30 20187 C 2000.93 0.457951 -3.5768 0
M  V30 20188 O 2000.03 1.54629 -3.82314 0
M  V30 20189 H 1999.37 0.00686619 -0.663964 0
M  V30 20190 H 2001.9 -0.603968 -1.95482 0
M  V30 20191 H 2001.91 0.71173 -4.01744 0
M  V30 20192 H 2000.59 -0.434483 -4.13624 0
M  V30 20193 H 1999.16 1.28336 -3.5012 0
M  V30 20194 N 2001.35 1.56817 -0.156891 0
M  V30 20195 C 2002.62 1.88075 0.537326 0
M  V30 20196 C 2003 1.06447 1.82297 0
M  V30 20197 O 2002.35 0.154147 2.27979 0
M  V30 20198 C 2002.56 3.39866 0.79321 0
M  V30 20199 C 2003.91 4.09298 1.12961 0
M  V30 20200 O 2004.93 3.45102 0.882235 0
M  V30 20201 O 2003.79 5.22688 1.59561 0
M  V30 20202 H 2000.89 0.779855 0.275236 0
M  V30 20203 H 2003.43 1.68585 -0.194246 0
M  V30 20204 H 2002.21 3.91127 -0.11626 0
M  V30 20205 H 2001.83 3.64919 1.57861 0
M  V30 20206 N 2002.83 -0.116876 1.57166 0
M  V30 20207 C 2004.07 -0.824288 1.84964 0
M  V30 20208 C 2004.4 -1.79779 0.742287 0
M  V30 20209 O 2003.66 -1.93881 -0.26617 0
M  V30 20210 C 2003.95 -1.60659 3.19255 0
M  V30 20211 C 2003.62 -0.777185 4.44152 0
M  V30 20212 C 2002.28 -0.548471 4.78064 0
M  V30 20213 C 2004.63 -0.199197 5.20819 0
M  V30 20214 C 2001.96 0.26845 5.86086 0
M  V30 20215 C 2004.31 0.604927 6.29701 0
M  V30 20216 C 2002.98 0.843937 6.62143 0
M  V30 20217 H 2002.25 -0.301628 0.676832 0
M  V30 20218 H 2004.9 -0.0865824 1.91304 0
M  V30 20219 H 2003.2 -2.41526 3.08501 0
M  V30 20220 H 2004.9 -2.15794 3.37985 0
M  V30 20221 H 2001.49 -0.965541 4.17583 0
M  V30 20222 H 2005.67 -0.363107 4.9497 0
M  V30 20223 H 2000.93 0.462826 6.09646 0
M  V30 20224 H 2005.1 1.05977 6.88289 0
M  V30 20225 H 2002.73 1.47877 7.45679 0
M  V30 20226 N 2004.3 -1.52772 -0.387116 0
M  V30 20227 C 2005.25 -1.78325 -1.49341 0
M  V30 20228 C 2006.25 -0.651278 -1.5638 0
M  V30 20229 O 2007.45 -0.833795 -1.59524 0
M  V30 20230 H 2003.83 -0.56428 -0.497084 0
M  V30 20231 H 2005.8 -2.70965 -1.24983 0
M  V30 20232 C 2004.55 -1.97079 -2.86453 0
M  V30 20233 H 2003.87 -2.83612 -2.81788 0
M  V30 20234 H 2005.31 -2.18947 -3.63095 0
M  V30 20235 C 2003.77 -0.743842 -3.28586 0
M  V30 20236 O 2004.3 0.0778266 -4.01625 0
M  V30 20237 N 2002.5 -0.573415 -2.84886 0
M  V30 20238 H 2002.05 -1.24319 -2.25616 0
M  V30 20239 H 2002.01 0.24616 -3.13435 0
M  V30 20240 N 2005.78 0.645673 -1.43767 0
M  V30 20241 C 2007.03 1.4027 -1.45495 0
M  V30 20242 C 2007.35 1.94822 -0.0832023 0
M  V30 20243 O 2006.62 1.74895 0.882519 0
M  V30 20244 H 2005.2 0.520611 -0.535699 0
M  V30 20245 H 2007.86 0.760978 -1.7943 0
M  V30 20246 H 2006.96 2.24129 -2.17192 0
M  V30 20247 N 2007.26 1.30423 0.884744 0
M  V30 20248 C 2008.51 1.19023 1.63334 0
M  V30 20249 C 2008.83 -0.255228 1.93322 0
M  V30 20250 O 2008.1 -1.17189 1.56983 0
M  V30 20251 H 2006.68 0.437514 0.605467 0
M  V30 20252 H 2009.34 1.63552 1.06003 0
M  V30 20253 H 2008.44 1.75125 2.58336 0
M  V30 20254 N 2008.74 -1.09711 1.13142 0
M  V30 20255 C 2009.98 -1.83443 0.901552 0
M  V30 20256 C 2010.34 -1.83582 -0.562273 0
M  V30 20257 O 2011.54 -2.52942 -0.909595 0
M  V30 20258 C 2009.81 -3.25783 1.4697 0
M  V30 20259 S 2011.37 -4.16553 1.37946 0
M  V30 20260 H 2008.19 -0.632354 0.325037 0
M  V30 20261 H 2010.79 -1.31968 1.44238 0
M  V30 20262 H 2009.5 -3.23256 2.52851 0
M  V30 20263 H 2009.03 -3.8233 0.926688 0
M  V30 20264 H 2011.04 -4.94922 0.355933 0
M  V30 20265 N 2010.22 -0.924476 -1.27637 0
M  V30 20266 C 2011.44 -0.579431 -1.98621 0
M  V30 20267 C 2011.86 0.84181 -1.68994 0
M  V30 20268 O 2011.22 1.55905 -0.948681 0
M  V30 20269 C 2011.27 -0.791898 -3.5272 0
M  V30 20270 O 2010.99 -2.15722 -3.81308 0
M  V30 20271 C 2012.49 -0.45513 -4.40957 0
M  V30 20272 H 2009.71 -0.219875 -0.633953 0
M  V30 20273 H 2012.25 -1.24062 -1.6257 0
M  V30 20274 H 2010.41 -0.17756 -3.86993 0
M  V30 20275 H 2010.82 -2.20483 -4.75907 0
M  V30 20276 H 2012.3 -0.654507 -5.48106 0
M  V30 20277 H 2012.77 0.609177 -4.34955 0
M  V30 20278 H 2013.38 -1.04747 -4.12199 0
M  V30 20279 N 2011.69 1.41711 -0.689627 0
M  V30 20280 C 2012.64 2.28 0.00249406 0
M  V30 20281 C 2013.63 1.41884 0.75879 0
M  V30 20282 O 2014.82 1.65207 0.635261 0
M  V30 20283 C 2011.95 3.30111 0.942438 0
M  V30 20284 C 2011.04 4.23706 0.182705 0
M  V30 20285 N 2011.43 4.99103 -0.820339 0
M  V30 20286 C 2009.72 4.44027 0.41904 0
M  V30 20287 C 2010.43 5.67564 -1.27459 0
M  V30 20288 N 2009.4 5.4026 -0.60165 0
M  V30 20289 H 2013.2 2.83725 -0.766648 0
M  V30 20290 H 2010.72 1.53851 -0.519952 0
M  V30 20291 H 2012.71 3.90746 1.45338 0
M  V30 20292 H 2011.37 2.75947 1.71124 0
M  V30 20293 H 2012.39 5.03797 -1.20038 0
M  V30 20294 H 2009.06 4.00882 1.16619 0
M  V30 20295 H 2010.45 6.38022 -2.10659 0
M  V30 20296 N 2013.17 0.433965 1.51507 0
M  V30 20297 C 2014.08 -0.385423 2.31412 0
M  V30 20298 C 2015.1 -1.03078 1.40182 0
M  V30 20299 O 2016.27 -1.02688 1.73254 0
M  V30 20300 C 2013.34 -1.47371 3.13819 0
M  V30 20301 C 2012.4 -0.848838 4.20824 0
M  V30 20302 C 2011.63 -1.88527 4.99293 0
M  V30 20303 O 2011.86 -3.107 4.78353 0
M  V30 20304 O 2010.79 -1.47768 5.83479 0
M  V30 20305 H 2014.62 0.266798 3.02526 0
M  V30 20306 H 2012.2 0.19658 1.48101 0
M  V30 20307 H 2014.08 -2.10495 3.65061 0
M  V30 20308 H 2012.76 -2.11008 2.45474 0
M  V30 20309 H 2011.67 -0.179639 3.73668 0
M  V30 20310 H 2013 -0.256013 4.91534 0
M  V30 20311 N 2014.65 -1.56732 0.165206 0
M  V30 20312 C 2015.89 -1.98591 -0.483841 0
M  V30 20313 C 2016.25 -1.04869 -1.6083 0
M  V30 20314 O 2017.46 -1.35844 -2.31948 0
M  V30 20315 C 2015.73 -3.44262 -0.960121 0
M  V30 20316 S 2017.29 -4.08149 -1.61121 0
M  V30 20317 H 2014.1 -0.693711 -0.155842 0
M  V30 20318 H 2016.71 -1.93747 0.261223 0
M  V30 20319 H 2015.41 -4.1019 -0.131229 0
M  V30 20320 H 2014.94 -3.52859 -1.73937 0
M  V30 20321 H 2016.96 -4.02695 -2.89915 0
M  V30 20322 N 2016.13 0.10854 -1.57226 0
M  V30 20323 C 2017.37 0.815673 -1.85673 0
M  V30 20324 C 2017.71 1.79031 -0.752441 0
M  V30 20325 O 2016.98 1.93004 0.240811 0
M  V30 20326 C 2017.27 1.55633 -3.24731 0
M  V30 20327 C 2017.12 0.600595 -4.45772 0
M  V30 20328 C 2018.44 2.51009 -3.61501 0
M  V30 20329 H 2015.56 0.295076 -0.675351 0
M  V30 20330 H 2018.2 0.079634 -1.89833 0
M  V30 20331 H 2016.35 2.18377 -3.21316 0
M  V30 20332 H 2018.02 -0.0187984 -4.61296 0
M  V30 20333 H 2016.26 -0.0870799 -4.33713 0
M  V30 20334 H 2016.93 1.15569 -5.39766 0
M  V30 20335 H 2019.41 1.98365 -3.65774 0
M  V30 20336 H 2018.29 2.99857 -4.59758 0
M  V30 20337 H 2018.55 3.34154 -2.89472 0
M  V30 20338 N 2017.61 1.52975 0.379009 0
M  V30 20339 C 2018.54 1.74729 1.48332 0
M  V30 20340 C 2019.55 0.627862 1.50206 0
M  V30 20341 O 2020.74 0.903805 1.53927 0
M  V30 20342 C 2017.84 1.79998 2.87148 0
M  V30 20343 C 2017.01 3.09452 3.09125 0
M  V30 20344 C 2016.07 3.06138 4.27979 0
M  V30 20345 O 2015.1 3.79976 4.23801 0
M  V30 20346 N 2016.3 2.26019 5.34692 0
M  V30 20347 H 2019.07 2.70011 1.30054 0
M  V30 20348 H 2016.63 1.51586 0.568617 0
M  V30 20349 H 2018.62 1.75275 3.64775 0
M  V30 20350 H 2017.19 0.920593 2.98737 0
M  V30 20351 H 2016.41 3.27586 2.19274 0
M  V30 20352 H 2017.7 3.9503 3.20669 0
M  V30 20353 H 2017.09 1.65515 5.40945 0
M  V30 20354 H 2015.65 2.27126 6.10948 0
M  V30 20355 N 2019.08 -0.63804 1.44107 0
M  V30 20356 C 2019.99 -1.77914 1.52917 0
M  V30 20357 C 2021.01 -1.68972 0.415266 0
M  V30 20358 O 2022.19 -1.89872 0.671613 0
M  V30 20359 C 2019.25 -3.14268 1.46412 0
M  V30 20360 C 2018.31 -3.34893 2.68598 0
M  V30 20361 C 2017.55 -4.64742 2.62394 0
M  V30 20362 O 2017.77 -5.45095 1.68011 0
M  V30 20363 O 2016.7 -4.87419 3.53138 0
M  V30 20364 H 2020.53 -1.73435 2.49307 0
M  V30 20365 H 2018.11 -0.798412 1.26276 0
M  V30 20366 H 2020 -3.95564 1.45282 0
M  V30 20367 H 2018.67 -3.19304 0.531634 0
M  V30 20368 H 2017.58 -2.53302 2.75297 0
M  V30 20369 H 2018.91 -3.34714 3.6087 0
M  V30 20370 N 2020.56 -1.3089 -0.877815 0
M  V30 20371 C 2021.97 -1.18126 -1.44579 0
M  V30 20372 C 2022.32 0.215306 -1.95015 0
M  V30 20373 O 2021.45 1.11252 -1.85613 0
M  V30 20374 C 2022.04 -2.13835 -2.62793 0
M  V30 20375 C 2020.6 -2.05028 -3.15659 0
M  V30 20376 C 2019.75 -2.03509 -1.88359 0
M  V30 20377 H 2022.7 -1.43056 -0.687082 0
M  V30 20378 H 2022.72 -1.72337 -3.39235 0
M  V30 20379 H 2022.23 -3.1547 -2.26054 0
M  V30 20380 H 2020.34 -1.0656 -3.57037 0
M  V30 20381 H 2020.45 -2.9376 -3.78473 0
M  V30 20382 H 2018.81 -1.48412 -2.06992 0
M  V30 20383 H 2019.6 -3.06887 -1.53869 0
M  V30 20384 N 2022.04 1.0911 -1.13723 0
M  V30 20385 C 2023.29 1.81352 -0.900984 0
M  V30 20386 C 2023.62 1.85876 0.572749 0
M  V30 20387 O 2022.87 1.3252 1.44003 0
M  V30 20388 C 2023.17 3.27193 -1.43805 0
M  V30 20389 C 2022.84 3.42797 -2.92918 0
M  V30 20390 C 2021.5 3.46763 -3.33629 0
M  V30 20391 C 2023.85 3.47067 -3.88837 0
M  V30 20392 C 2021.18 3.52582 -4.68938 0
M  V30 20393 C 2023.53 3.5442 -5.23993 0
M  V30 20394 C 2022.19 3.56657 -5.64227 0
M  V30 20395 H 2021.46 0.663614 -0.329694 0
M  V30 20396 H 2024.11 1.28517 -1.41971 0
M  V30 20397 H 2022.42 3.82687 -0.840093 0
M  V30 20398 H 2024.11 3.81628 -1.23129 0
M  V30 20399 H 2020.7 3.40397 -2.60438 0
M  V30 20400 H 2024.89 3.4324 -3.58469 0
M  V30 20401 H 2020.14 3.52602 -4.99481 0
M  V30 20402 H 2024.32 3.56669 -5.9813 0
M  V30 20403 H 2021.94 3.60918 -6.69061 0
M  V30 20404 N 2023.52 0.931232 1.27145 0
M  V30 20405 C 2024.77 0.572394 1.93825 0
M  V30 20406 C 2025.09 -0.88981 1.73515 0
M  V30 20407 O 2024.36 -1.63113 1.08494 0
M  V30 20408 H 2022.94 0.2087 0.717254 0
M  V30 20409 H 2025.6 1.18439 1.54784 0
M  V30 20410 H 2024.7 0.781679 3.02153 0
M  V30 20411 N 2025 -1.41343 0.697132 0
M  V30 20412 C 2025.96 -2.29162 0.0417336 0
M  V30 20413 C 2026.96 -1.44455 -0.706353 0
M  V30 20414 O 2028.15 -1.65586 -0.54101 0
M  V30 20415 C 2025.28 -3.2736 -0.951235 0
M  V30 20416 H 2026.48 -2.88614 0.814974 0
M  V30 20417 H 2024.03 -1.49356 0.460717 0
M  V30 20418 H 2024.76 -2.7289 -1.75218 0
M  V30 20419 H 2024.55 -3.89866 -0.417931 0
M  V30 20420 H 2026.04 -3.93164 -1.40756 0
M  V30 20421 N 2026.48 -0.441993 -1.51275 0
M  V30 20422 C 2027.42 0.367101 -2.27862 0
M  V30 20423 C 2028.39 1.01278 -1.31651 0
M  V30 20424 O 2029.58 1.0308 -1.60559 0
M  V30 20425 C 2026.72 1.45971 -3.12708 0
M  V30 20426 C 2025.83 0.831707 -4.23918 0
M  V30 20427 C 2024.97 1.89976 -4.96067 0
M  V30 20428 C 2024 1.25043 -5.99192 0
M  V30 20429 N 2023.14 2.26005 -6.6473 0
M  V30 20430 H 2027.98 -0.292361 -2.96562 0
M  V30 20431 H 2025.52 -0.156023 -1.4627 0
M  V30 20432 H 2027.48 2.10453 -3.6023 0
M  V30 20433 H 2026.11 2.08874 -2.46113 0
M  V30 20434 H 2025.16 0.0750644 -3.80326 0
M  V30 20435 H 2026.47 0.317691 -4.97787 0
M  V30 20436 H 2025.62 2.62108 -5.4716 0
M  V30 20437 H 2024.36 2.44751 -4.21839 0
M  V30 20438 H 2023.37 0.514597 -5.47386 0
M  V30 20439 H 2024.59 0.709951 -6.75379 0
M  V30 20440 H 2022.54 2.79852 -5.93312 0
M  V30 20441 H 2022.46 1.79508 -7.34379 0
M  V30 20442 H 2023.72 2.97607 -7.20452 0
M  V30 20443 N 2027.95 1.56642 -0.173515 0
M  V30 20444 C 2029.19 1.98845 0.473303 0
M  V30 20445 C 2029.56 1.05721 1.60272 0
M  V30 20446 O 2030.76 1.37073 2.31224 0
M  V30 20447 C 2029.03 3.44767 0.94185 0
M  V30 20448 S 2030.59 4.08998 1.58954 0
M  V30 20449 H 2027.41 0.694527 0.152161 0
M  V30 20450 H 2030.01 1.93606 -0.271494 0
M  V30 20451 H 2028.71 4.10254 0.109473 0
M  V30 20452 H 2028.24 3.53776 1.72063 0
M  V30 20453 H 2030.26 4.04227 2.87775 0
M  V30 20454 N 2029.43 -0.1002 1.57281 0
M  V30 20455 C 2030.36 -1.12278 2.04734 0
M  V30 20456 C 2031.34 -1.42079 0.935281 0
M  V30 20457 O 2032.53 -1.52197 1.20622 0
M  V30 20458 C 2029.66 -2.44402 2.46748 0
M  V30 20459 C 2028.61 -2.29021 3.61571 0
M  V30 20460 C 2027.94 -3.66276 3.89545 0
M  V30 20461 C 2029.24 -1.73501 4.9264 0
M  V30 20462 H 2030.93 -0.728019 2.90414 0
M  V30 20463 H 2028.48 -0.348753 1.39713 0
M  V30 20464 H 2030.43 -3.16206 2.78553 0
M  V30 20465 H 2029.15 -2.85804 1.58061 0
M  V30 20466 H 2027.81 -1.59664 3.30005 0
M  V30 20467 H 2027.46 -4.05197 2.98034 0
M  V30 20468 H 2027.16 -3.56833 4.66845 0
M  V30 20469 H 2028.69 -4.39555 4.2382 0
M  V30 20470 H 2030.1 -2.35141 5.22859 0
M  V30 20471 H 2028.5 -1.7483 5.74068 0
M  V30 20472 H 2029.57 -0.69403 4.79908 0
M  V30 20473 N 2030.91 -1.53174 -0.370891 0
M  V30 20474 C 2032.15 -1.70797 -1.12284 0
M  V30 20475 C 2032.51 -0.44749 -1.86712 0
M  V30 20476 O 2033.71 -0.500342 -2.64102 0
M  V30 20477 C 2031.99 -2.92004 -2.06078 0
M  V30 20478 S 2033.54 -3.30307 -2.88864 0
M  V30 20479 H 2030.36 -0.601048 -0.379819 0
M  V30 20480 H 2032.96 -1.91263 -0.404795 0
M  V30 20481 H 2031.67 -3.81946 -1.50152 0
M  V30 20482 H 2031.2 -2.73925 -2.82363 0
M  V30 20483 H 2033.21 -2.81906 -4.08342 0
M  V30 20484 N 2032.39 0.630389 -1.44443 0
M  V30 20485 C 2033.8 1.21202 -1.4201 0
M  V30 20486 C 2034.15 1.95729 -0.135833 0
M  V30 20487 O 2033.27 2.02474 0.763765 0
M  V30 20488 C 2033.87 2.20458 -2.57262 0
M  V30 20489 C 2032.43 2.74047 -2.58021 0
M  V30 20490 C 2031.58 1.49058 -2.33831 0
M  V30 20491 H 2034.53 0.421022 -1.53013 0
M  V30 20492 H 2034.55 3.03074 -2.30057 0
M  V30 20493 H 2034.06 1.66188 -3.50718 0
M  V30 20494 H 2032.16 3.32319 -1.68509 0
M  V30 20495 H 2032.27 3.20036 -3.56531 0
M  V30 20496 H 2030.64 1.77216 -1.82939 0
M  V30 20497 H 2031.42 0.96689 -3.29403 0
M  V30 20498 N 2033.87 1.31354 0.870861 0
M  V30 20499 C 2034.8 1.21518 1.99388 0
M  V30 20500 C 2035.78 0.102582 1.6979 0
M  V30 20501 O 2036.96 0.287028 1.92067 0
M  V30 20502 C 2034.09 0.920813 3.34871 0
M  V30 20503 C 2033.05 1.99289 3.78772 0
M  V30 20504 C 2032.37 1.55123 5.11704 0
M  V30 20505 C 2033.67 3.40589 3.95975 0
M  V30 20506 H 2035.37 2.15473 2.07875 0
M  V30 20507 H 2032.91 1.03734 0.998761 0
M  V30 20508 H 2034.86 0.838612 4.12971 0
M  V30 20509 H 2033.59 -0.0543971 3.26555 0
M  V30 20510 H 2032.25 2.06496 3.0291 0
M  V30 20511 H 2031.9 0.563901 4.99829 0
M  V30 20512 H 2031.6 2.26842 5.42048 0
M  V30 20513 H 2033.12 1.48308 5.92315 0
M  V30 20514 H 2034.53 3.36061 4.64474 0
M  V30 20515 H 2032.93 4.10517 4.37716 0
M  V30 20516 H 2034 3.8144 2.99385 0
M  V30 20517 N 2035.34 -1.08505 1.143 0
M  V30 20518 C 2036.59 -1.80514 0.908791 0
M  V30 20519 C 2036.91 -1.86599 -0.566196 0
M  V30 20520 O 2036.18 -1.35837 -1.41156 0
M  V30 20521 H 2034.76 -0.668553 0.333235 0
M  V30 20522 H 2037.42 -1.31188 1.44138 0
M  V30 20523 H 2036.52 -2.83375 1.30786 0
M  V30 20524 N 2036.82 -0.937962 -1.26649 0
M  V30 20525 C 2038.07 -0.583818 -1.93902 0
M  V30 20526 C 2038.4 0.876602 -1.73626 0
M  V30 20527 O 2037.65 1.64203 -1.0647 0
M  V30 20528 C 2037.95 -0.868478 -3.46687 0
M  V30 20529 C 2037.62 -2.31227 -3.87098 0
M  V30 20530 C 2036.28 -2.70695 -3.97841 0
M  V30 20531 C 2038.63 -3.25068 -4.07407 0
M  V30 20532 C 2035.96 -4.03107 -4.26288 0
M  V30 20533 C 2038.31 -4.57073 -4.37341 0
M  V30 20534 C 2036.97 -4.96361 -4.46298 0
M  V30 20535 H 2036.24 -0.213634 -0.709536 0
M  V30 20536 H 2038.89 -1.18386 -1.50522 0
M  V30 20537 H 2037.2 -0.185864 -3.91359 0
M  V30 20538 H 2038.89 -0.573289 -3.96881 0
M  V30 20539 H 2035.48 -1.99611 -3.7928 0
M  V30 20540 H 2039.67 -2.95773 -3.98537 0
M  V30 20541 H 2034.92 -4.33214 -4.31434 0
M  V30 20542 H 2039.1 -5.29781 -4.52001 0
M  V30 20543 H 2036.72 -5.98992 -4.68095 0
M  V30 20544 N 2038.3 1.40971 -0.704618 0
M  V30 20545 C 2039.23 2.33424 -0.0595656 0
M  V30 20546 C 2040.21 1.52306 0.757422 0
M  V30 20547 O 2041.4 1.80812 0.708567 0
M  V30 20548 C 2038.53 3.36202 0.870964 0
M  V30 20549 C 2037.48 4.27699 0.160408 0
M  V30 20550 C 2036.81 5.20924 1.20591 0
M  V30 20551 C 2038.11 5.13047 -0.97878 0
M  V30 20552 H 2039.8 2.87615 -0.83176 0
M  V30 20553 H 2037.35 1.38292 -0.401428 0
M  V30 20554 H 2039.3 3.9981 1.33153 0
M  V30 20555 H 2038.02 2.80381 1.67493 0
M  V30 20556 H 2036.68 3.65527 -0.280222 0
M  V30 20557 H 2036.33 4.61414 2.00264 0
M  V30 20558 H 2036.03 5.8298 0.73543 0
M  V30 20559 H 2037.55 5.8741 1.6668 0
M  V30 20560 H 2038.97 5.70172 -0.598081 0
M  V30 20561 H 2037.36 5.8409 -1.37693 0
M  V30 20562 H 2038.43 4.49675 -1.8144 0
M  V30 20563 N 2039.78 0.45001 1.51039 0
M  V30 20564 C 2040.71 -0.345315 2.30933 0
M  V30 20565 C 2041.69 -1.00959 1.36899 0
M  V30 20566 O 2042.87 -1.0108 1.6582 0
M  V30 20567 C 2040 -1.43968 3.16055 0
M  V30 20568 C 2038.96 -0.898198 4.18469 0
M  V30 20569 C 2038.28 -2.08927 4.92193 0
M  V30 20570 C 2039.58 0.0760911 5.22245 0
M  V30 20571 H 2041.28 0.321441 2.97669 0
M  V30 20572 H 2038.82 0.156032 1.43152 0
M  V30 20573 H 2040.78 -2.00338 3.70732 0
M  V30 20574 H 2039.5 -2.1349 2.47163 0
M  V30 20575 H 2038.16 -0.356617 3.64861 0
M  V30 20576 H 2037.81 -2.77098 4.19792 0
M  V30 20577 H 2037.51 -1.73328 5.61454 0
M  V30 20578 H 2039.03 -2.65827 5.49698 0
M  V30 20579 H 2040.45 -0.397728 5.71919 0
M  V30 20580 H 2038.84 0.345281 5.99106 0
M  V30 20581 H 2039.91 1.00878 4.74291 0
M  V30 20582 N 2041.26 -1.56548 0.18182 0
M  V30 20583 C 2042.22 -2.17247 -0.730497 0
M  V30 20584 C 2043.22 -1.12333 -1.15056 0
M  V30 20585 O 2044.41 -1.3779 -1.06581 0
M  V30 20586 C 2041.54 -2.76383 -1.99563 0
M  V30 20587 H 2042.73 -2.9922 -0.201904 0
M  V30 20588 H 2040.29 -1.56153 -0.0677734 0
M  V30 20589 H 2041.02 -1.98173 -2.56706 0
M  V30 20590 H 2040.81 -3.53172 -1.70329 0
M  V30 20591 H 2042.3 -3.23034 -2.64649 0
M  V30 20592 N 2042.73 0.0918577 -1.57332 0
M  V30 20593 C 2043.68 1.13005 -2.03304 0
M  V30 20594 C 2044.68 1.4128 -0.934688 0
M  V30 20595 O 2045.88 1.40923 -1.11986 0
M  V30 20596 H 2042.26 0.381664 -0.647948 0
M  V30 20597 H 2044.23 0.716022 -2.89682 0
M  V30 20598 C 2042.98 2.44114 -2.47595 0
M  V30 20599 H 2042.3 2.23203 -3.31694 0
M  V30 20600 H 2043.74 3.15252 -2.83535 0
M  V30 20601 C 2042.2 3.08644 -1.35057 0
M  V30 20602 O 2042.73 3.95877 -0.681498 0
M  V30 20603 N 2040.94 2.68946 -1.10074 0
M  V30 20604 H 2040.48 1.98101 -1.64662 0
M  V30 20605 H 2040.44 3.12448 -0.349761 0
M  V30 20606 N 2044.21 1.53368 0.362763 0
M  V30 20607 C 2045.49 1.60294 1.12095 0
M  V30 20608 C 2045.87 0.412218 2.07036 0
M  V30 20609 O 2045.22 -0.597284 2.20556 0
M  V30 20610 C 2045.43 2.95458 1.85757 0
M  V30 20611 C 2046.78 3.50135 2.40189 0
M  V30 20612 O 2047.8 2.97506 1.9588 0
M  V30 20613 O 2046.66 4.42146 3.212 0
M  V30 20614 H 2043.75 0.647572 0.514373 0
M  V30 20615 H 2046.3 1.65711 0.3658 0
M  V30 20616 H 2045.07 3.73561 1.16482 0
M  V30 20617 H 2044.69 2.93545 2.68174 0
M  V30 20618 N 2045.69 -0.62272 1.44776 0
M  V30 20619 C 2046.92 -1.41403 1.51723 0
M  V30 20620 C 2047.34 -1.87534 0.145802 0
M  V30 20621 O 2046.7 -1.59244 -0.866667 0
M  V30 20622 C 2046.75 -2.60482 2.49362 0
M  V30 20623 O 2045.85 -3.60604 2.00096 0
M  V30 20624 H 2045.19 -0.422766 0.51202 0
M  V30 20625 H 2047.72 -0.759294 1.89989 0
M  V30 20626 H 2047.73 -3.0792 2.67674 0
M  V30 20627 H 2046.41 -2.26253 3.48974 0
M  V30 20628 H 2044.98 -3.19918 1.9159 0
M  V30 20629 N 2047.17 -1.31814 -0.863883 0
M  V30 20630 C 2048.12 -1.19976 -1.97166 0
M  V30 20631 C 2049.09 -0.0840886 -1.65887 0
M  V30 20632 O 2050.27 -0.258021 -1.89047 0
M  V30 20633 C 2047.41 -0.919316 -3.3263 0
M  V30 20634 C 2046.52 -2.1189 -3.76466 0
M  V30 20635 C 2045.66 -1.77472 -5.00677 0
M  V30 20636 C 2044.7 -2.93804 -5.36978 0
M  V30 20637 N 2043.83 -2.59541 -6.52367 0
M  V30 20638 H 2048.67 -2.14735 -2.06623 0
M  V30 20639 H 2046.21 -1.06811 -1.01143 0
M  V30 20640 H 2048.17 -0.737251 -4.10634 0
M  V30 20641 H 2046.8 -0.0085443 -3.22799 0
M  V30 20642 H 2045.85 -2.41154 -2.94192 0
M  V30 20643 H 2047.16 -2.98939 -3.99295 0
M  V30 20644 H 2046.32 -1.55764 -5.86364 0
M  V30 20645 H 2045.06 -0.876231 -4.79764 0
M  V30 20646 H 2044.06 -3.16154 -4.49807 0
M  V30 20647 H 2045.29 -3.84371 -5.59853 0
M  V30 20648 H 2043.23 -1.72222 -6.32989 0
M  V30 20649 H 2043.15 -3.4012 -6.7517 0
M  V30 20650 H 2044.42 -2.4124 -7.41231 0
M  V30 20651 N 2048.65 1.07897 -1.14873 0
M  V30 20652 C 2049.87 1.84117 -0.943847 0
M  V30 20653 C 2050.29 1.81844 0.507767 0
M  V30 20654 O 2049.65 1.22585 1.352 0
M  V30 20655 C 2049.7 3.31438 -1.4433 0
M  V30 20656 O 2049.42 3.33746 -2.83805 0
M  V30 20657 C 2050.92 4.24445 -1.2791 0
M  V30 20658 H 2048.14 0.581068 -0.335561 0
M  V30 20659 H 2050.68 1.36237 -1.52512 0
M  V30 20660 H 2048.84 3.76689 -0.904683 0
M  V30 20661 H 2049.25 4.25748 -3.06332 0
M  V30 20662 H 2050.73 5.25906 -1.67711 0
M  V30 20663 H 2051.2 4.38636 -0.222593 0
M  V30 20664 H 2051.81 3.85025 -1.80653 0
M  V30 20665 N 2050.12 0.944665 1.2615 0
M  V30 20666 C 2051.36 0.601621 1.95346 0
M  V30 20667 C 2051.73 -0.844182 1.72446 0
M  V30 20668 O 2052.93 -1.29633 2.35475 0
M  V30 20669 C 2051.2 0.938683 3.44853 0
M  V30 20670 S 2052.76 0.70671 4.33072 0
M  V30 20671 H 2049.58 0.221469 0.675628 0
M  V30 20672 H 2052.18 1.21672 1.53023 0
M  V30 20673 H 2050.88 1.98827 3.59021 0
M  V30 20674 H 2050.41 0.313442 3.92149 0
M  V30 20675 H 2052.43 -0.427395 4.94356 0
M  V30 20676 N 2051.6 -1.40596 0.712085 0
M  V30 20677 C 2052.51 -2.34528 0.0582122 0
M  V30 20678 C 2053.53 -1.57115 -0.747715 0
M  V30 20679 O 2054.7 -1.8952 -0.681477 0
M  V30 20680 C 2051.77 -3.35992 -0.855008 0
M  V30 20681 C 2050.83 -4.29282 -0.0394267 0
M  V30 20682 C 2050.06 -5.25899 -0.909154 0
M  V30 20683 O 2050.29 -5.28392 -2.14845 0
M  V30 20684 O 2049.22 -6.00881 -0.350012 0
M  V30 20685 H 2053.05 -2.92055 0.832915 0
M  V30 20686 H 2050.63 -1.4173 0.472537 0
M  V30 20687 H 2052.51 -3.98225 -1.3782 0
M  V30 20688 H 2051.19 -2.80883 -1.60892 0
M  V30 20689 H 2050.1 -3.70344 0.528757 0
M  V30 20690 H 2051.43 -4.87533 0.676185 0
M  V30 20691 N 2053.08 -0.458013 -1.50798 0
M  V30 20692 C 2054.36 0.162411 -1.94925 0
M  V30 20693 C 2054.74 1.58194 -1.39777 0
M  V30 20694 O 2054.09 2.20663 -0.59332 0
M  V30 20695 C 2054.3 0.119083 -3.48797 0
M  V30 20696 C 2055.64 0.314458 -4.23434 0
M  V30 20697 O 2056.67 0.196266 -3.55659 0
M  V30 20698 O 2055.53 0.551722 -5.43708 0
M  V30 20699 H 2052.62 0.118781 -0.818425 0
M  V30 20700 H 2055.17 -0.517478 -1.61618 0
M  V30 20701 H 2053.94 -0.872528 -3.81448 0
M  V30 20702 H 2053.56 0.840995 -3.88604 0
M  V30 20703 N 2054.56 1.56449 -0.190119 0
M  V30 20704 C 2055.81 1.96613 0.450146 0
M  V30 20705 C 2056.12 1.07965 1.63104 0
M  V30 20706 O 2057.33 1.3789 2.33877 0
M  V30 20707 C 2055.78 3.49664 0.852245 0
M  V30 20708 C 2055.39 4.46967 -0.304086 0
M  V30 20709 C 2057.14 3.98608 1.45987 0
M  V30 20710 C 2055.04 5.91281 0.118694 0
M  V30 20711 H 2053.97 0.734132 0.171947 0
M  V30 20712 H 2056.62 1.8133 -0.281345 0
M  V30 20713 H 2055.01 3.60432 1.64026 0
M  V30 20714 H 2056.18 4.47927 -1.08158 0
M  V30 20715 H 2054.49 4.08188 -0.822886 0
M  V30 20716 H 2057.09 5.039 1.78856 0
M  V30 20717 H 2057.43 3.42627 2.36458 0
M  V30 20718 H 2057.97 3.90933 0.735928 0
M  V30 20719 H 2054.71 6.51176 -0.751699 0
M  V30 20720 H 2054.23 5.93586 0.861154 0
M  V30 20721 H 2055.91 6.44605 0.556195 0
M  V30 20722 N 2056.04 -0.0835127 1.57379 0
M  V30 20723 C 2057.31 -0.817204 1.77711 0
M  V30 20724 C 2057.69 -1.9637 0.774736 0
M  V30 20725 O 2057.04 -2.27671 -0.194489 0
M  V30 20726 C 2057.25 -1.30104 3.23842 0
M  V30 20727 C 2058.6 -1.73916 3.87348 0
M  V30 20728 O 2059.62 -1.39699 3.27662 0
M  V30 20729 O 2058.48 -2.37224 4.92328 0
M  V30 20730 H 2055.58 -0.390677 0.728904 0
M  V30 20731 H 2058.12 -0.0644961 1.69577 0
M  V30 20732 H 2056.9 -0.480145 3.88343 0
M  V30 20733 H 2056.52 -2.11541 3.36654 0
M  V30 20734 N 2057.52 -1.53558 -0.354624 0
M  V30 20735 C 2058.43 -1.83745 -1.4586 0
M  V30 20736 C 2059.44 -0.72668 -1.58099 0
M  V30 20737 O 2060.62 -1.01786 -1.73786 0
M  V30 20738 C 2057.68 -2.03089 -2.80991 0
M  V30 20739 C 2056.74 -3.26971 -2.78187 0
M  V30 20740 C 2055.98 -3.45383 -4.06874 0
M  V30 20741 O 2056.2 -2.6786 -5.03594 0
M  V30 20742 O 2055.13 -4.38776 -4.12019 0
M  V30 20743 H 2058.96 -2.77557 -1.23271 0
M  V30 20744 H 2056.54 -1.39075 -0.545763 0
M  V30 20745 H 2058.43 -2.17321 -3.6104 0
M  V30 20746 H 2057.1 -1.12466 -3.03534 0
M  V30 20747 H 2056.01 -3.18153 -1.96798 0
M  V30 20748 H 2057.34 -4.17552 -2.60598 0
M  V30 20749 N 2058.99 0.615033 -1.45104 0
M  V30 20750 C 2060.23 1.38563 -1.50265 0
M  V30 20751 C 2060.6 1.91504 -0.137917 0
M  V30 20752 O 2061.8 2.68723 -0.0642206 0
M  V30 20753 C 2060.07 2.50819 -2.54607 0
M  V30 20754 S 2061.63 3.38731 -2.78938 0
M  V30 20755 H 2058.45 0.472501 -0.531285 0
M  V30 20756 H 2061.05 0.710424 -1.82135 0
M  V30 20757 H 2059.75 2.10263 -3.52445 0
M  V30 20758 H 2059.28 3.23148 -2.24363 0
M  V30 20759 H 2061.3 4.48749 -2.11752 0
M  V30 20760 N 2060.47 1.3227 0.85688 0
M  V30 20761 C 2061.75 1.13324 1.59427 0
M  V30 20762 C 2062.13 -0.307216 2.08853 0
M  V30 20763 O 2061.48 -1.30347 1.87675 0
M  V30 20764 C 2061.69 2.15889 2.74213 0
M  V30 20765 C 2063.03 2.49103 3.4385 0
M  V30 20766 O 2064.06 2.14417 2.84436 0
M  V30 20767 O 2062.92 3.08555 4.51061 0
M  V30 20768 H 2060.01 0.437152 0.702016 0
M  V30 20769 H 2062.56 1.43793 0.901202 0
M  V30 20770 H 2061.33 3.12724 2.35201 0
M  V30 20771 H 2060.95 1.86401 3.51198 0
M  V30 20772 N 2061.95 -1.07287 1.15444 0
M  V30 20773 C 2063.2 -1.79277 0.924257 0
M  V30 20774 C 2063.51 -1.8771 -0.549932 0
M  V30 20775 O 2064.72 -2.56229 -0.897718 0
M  V30 20776 C 2063.17 -3.22168 1.60424 0
M  V30 20777 C 2062.78 -3.21934 3.11549 0
M  V30 20778 C 2064.53 -3.98763 1.45563 0
M  V30 20779 C 2062.43 -4.59482 3.72331 0
M  V30 20780 H 2061.36 -0.671898 0.342153 0
M  V30 20781 H 2064.01 -1.20415 1.38465 0
M  V30 20782 H 2062.4 -3.81227 1.07154 0
M  V30 20783 H 2063.57 -2.72516 3.7158 0
M  V30 20784 H 2061.88 -2.58836 3.26179 0
M  V30 20785 H 2064.48 -5.00423 1.88364 0
M  V30 20786 H 2064.82 -4.14343 0.403205 0
M  V30 20787 H 2065.36 -3.46201 1.95933 0
M  V30 20788 H 2062.1 -4.49106 4.77476 0
M  V30 20789 H 2061.62 -5.09135 3.17083 0
M  V30 20790 H 2063.3 -5.2845 3.73296 0
M  V30 20791 N 2063.43 -0.951342 -1.25647 0
M  V30 20792 C 2064.36 -0.486897 -2.28367 0
M  V30 20793 C 2065.34 0.465072 -1.63619 0
M  V30 20794 O 2066.52 0.364737 -1.90744 0
M  V30 20795 C 2063.65 0.239229 -3.46475 0
M  V30 20796 C 2062.61 -0.627163 -4.2338 0
M  V30 20797 C 2061.93 0.229514 -5.34207 0
M  V30 20798 C 2063.23 -1.90362 -4.86374 0
M  V30 20799 H 2064.93 -1.34542 -2.67467 0
M  V30 20800 H 2062.47 -0.648383 -1.28577 0
M  V30 20801 H 2064.43 0.575251 -4.17455 0
M  V30 20802 H 2063.15 1.13197 -3.06356 0
M  V30 20803 H 2061.81 -0.946222 -3.54178 0
M  V30 20804 H 2061.46 1.12192 -4.90328 0
M  V30 20805 H 2061.16 -0.346852 -5.86575 0
M  V30 20806 H 2062.68 0.560578 -6.08021 0
M  V30 20807 H 2064.1 -1.63422 -5.49515 0
M  V30 20808 H 2062.49 -2.42538 -5.48904 0
M  V30 20809 H 2063.56 -2.60876 -4.08744 0
M  V30 20810 N 2064.91 1.40216 -0.719531 0
M  V30 20811 C 2066.15 2.00418 -0.260225 0
M  V30 20812 C 2066.47 1.57349 1.15179 0
M  V30 20813 O 2065.74 0.814718 1.78155 0
M  V30 20814 H 2064.32 0.741161 -0.0932204 0
M  V30 20815 H 2066.99 1.71495 -0.926041 0
M  V30 20816 H 2066.08 3.10689 -0.29642 0
M  V30 20817 N 2066.38 0.466004 1.50553 0
M  V30 20818 C 2067.61 -0.0908629 2.07201 0
M  V30 20819 C 2068.03 -1.33196 1.32817 0
M  V30 20820 O 2067.39 -1.77393 0.374341 0
M  V30 20821 C 2067.44 -0.362957 3.58769 0
M  V30 20822 O 2066.54 -1.44438 3.86279 0
M  V30 20823 H 2065.88 0.0107401 0.663913 0
M  V30 20824 H 2068.41 0.655585 1.93812 0
M  V30 20825 H 2068.42 -0.604965 4.0349 0
M  V30 20826 H 2067.1 0.543996 4.12327 0
M  V30 20827 H 2065.68 -1.19008 3.534 0
M  V30 20828 N 2067.86 -1.56346 0.198413 0
M  V30 20829 C 2069.1 -1.99572 -0.441608 0
M  V30 20830 C 2069.47 -1.08257 -1.5857 0
M  V30 20831 O 2070.67 -1.40734 -2.29014 0
M  V30 20832 C 2068.94 -3.46221 -0.886882 0
M  V30 20833 S 2070.5 -4.11475 -1.52427 0
M  V30 20834 H 2067.31 -0.69686 -0.141092 0
M  V30 20835 H 2069.92 -1.93149 0.302261 0
M  V30 20836 H 2068.62 -4.10376 -0.0441917 0
M  V30 20837 H 2068.15 -3.56469 -1.66413 0
M  V30 20838 H 2070.17 -4.08754 -2.81308 0
M  V30 20839 N 2069.34 0.0751653 -1.57421 0
M  V30 20840 C 2070.57 0.791793 -1.91691 0
M  V30 20841 C 2070.99 1.70496 -0.794522 0
M  V30 20842 O 2070.35 1.79528 0.25284 0
M  V30 20843 C 2070.4 1.5643 -3.24903 0
M  V30 20844 O 2069.5 2.67473 -3.13898 0
M  V30 20845 H 2068.84 0.21624 -0.627803 0
M  V30 20846 H 2071.37 0.0444189 -2.04552 0
M  V30 20847 H 2071.38 1.94427 -3.58695 0
M  V30 20848 H 2070.06 0.894266 -4.06172 0
M  V30 20849 H 2068.63 2.32357 -2.91658 0
M  V30 20850 N 2070.82 1.53744 0.346476 0
M  V30 20851 C 2071.75 1.77836 1.44592 0
M  V30 20852 C 2072.76 0.659581 1.4884 0
M  V30 20853 O 2073.95 0.936252 1.51976 0
M  V30 20854 C 2071.05 1.86049 2.83265 0
M  V30 20855 C 2070.23 3.1594 3.02491 0
M  V30 20856 C 2069.28 3.15147 4.21389 0
M  V30 20857 O 2068.31 3.88879 4.15646 0
M  V30 20858 N 2069.51 2.37309 5.29778 0
M  V30 20859 H 2072.28 2.72709 1.24297 0
M  V30 20860 H 2069.84 1.52758 0.536336 0
M  V30 20861 H 2071.83 1.82973 3.60975 0
M  V30 20862 H 2070.4 0.983753 2.96717 0
M  V30 20863 H 2069.62 3.32163 2.12277 0
M  V30 20864 H 2070.91 4.01743 3.12217 0
M  V30 20865 H 2070.31 1.76952 5.37312 0
M  V30 20866 H 2068.86 2.40034 6.05992 0
M  V30 20867 N 2072.3 -0.607329 1.45428 0
M  V30 20868 C 2073.25 -1.71232 1.50545 0
M  V30 20869 C 2074.23 -1.56619 0.368691 0
M  V30 20870 O 2075.42 -1.65951 0.615562 0
M  V30 20871 C 2072.55 -3.09985 1.47527 0
M  V30 20872 C 2071.64 -3.29983 2.66406 0
M  V30 20873 N 2072.03 -3.20241 3.91509 0
M  V30 20874 C 2070.33 -3.60853 2.62108 0
M  V30 20875 C 2071.03 -3.41576 4.70851 0
M  V30 20876 N 2070 -3.65578 4.0231 0
M  V30 20877 H 2073.81 -1.62193 2.45093 0
M  V30 20878 H 2071.32 -0.810594 1.40724 0
M  V30 20879 H 2073.32 -3.89258 1.49278 0
M  V30 20880 H 2071.98 -3.20172 0.540363 0
M  V30 20881 H 2072.99 -2.98637 4.23127 0
M  V30 20882 H 2069.66 -3.77876 1.77526 0
M  V30 20883 H 2071.05 -3.39435 5.79856 0
M  V30 20884 N 2073.77 -1.32722 -0.849853 0
M  V30 20885 C 2075.01 -1.24877 -1.61818 0
M  V30 20886 C 2075.38 0.185464 -1.91102 0
M  V30 20887 O 2076.58 0.387721 -2.65989 0
M  V30 20888 C 2074.85 -2.08897 -2.89994 0
M  V30 20889 S 2076.41 -2.18128 -3.80744 0
M  V30 20890 H 2073.23 -0.444443 -0.55497 0
M  V30 20891 H 2075.83 -1.67627 -1.00605 0
M  V30 20892 H 2074.53 -3.12155 -2.66435 0
M  V30 20893 H 2074.06 -1.66943 -3.56221 0
M  V30 20894 H 2076.08 -1.33429 -4.77924 0
M  V30 20895 N 2075.25 1.06673 -1.16011 0
M  V30 20896 C 2076.48 1.8284 -0.961925 0
M  V30 20897 C 2076.89 1.8266 0.49314 0
M  V30 20898 O 2076.23 1.24152 1.35395 0
M  V30 20899 C 2076.3 3.30797 -1.4076 0
M  V30 20900 C 2075.96 3.54686 -2.88178 0
M  V30 20901 C 2076.96 3.48054 -3.86205 0
M  V30 20902 C 2074.64 3.82131 -3.26008 0
M  V30 20903 C 2076.64 3.68527 -5.20064 0
M  V30 20904 C 2074.32 4.02254 -4.60038 0
M  V30 20905 C 2075.32 3.95449 -5.56875 0
M  V30 20906 O 2075.01 4.15027 -6.88482 0
M  V30 20907 H 2074.74 0.583493 -0.341338 0
M  V30 20908 H 2077.29 1.35513 -1.54355 0
M  V30 20909 H 2075.52 3.78968 -0.769428 0
M  V30 20910 H 2077.21 3.88447 -1.17743 0
M  V30 20911 H 2077.98 3.26846 -3.58325 0
M  V30 20912 H 2073.86 3.86539 -2.51214 0
M  V30 20913 H 2077.4 3.63131 -5.95636 0
M  V30 20914 H 2073.3 4.22951 -4.8763 0
M  V30 20915 H 2074.07 4.32337 -6.95002 0
M  V30 20916 N 2076.73 0.957992 1.25141 0
M  V30 20917 C 2077.68 0.472054 2.2776 0
M  V30 20918 C 2078.67 -0.459404 1.63052 0
M  V30 20919 O 2079.88 -0.335763 1.76841 0
M  V30 20920 H 2076.25 0.134161 0.739936 0
M  V30 20921 H 2078.22 1.34973 2.6613 0
M  V30 20922 C 2076.97 -0.231515 3.46928 0
M  V30 20923 H 2076.3 0.476093 3.96955 0
M  V30 20924 H 2077.74 -0.535494 4.20605 0
M  V30 20925 C 2076.2 -1.45518 3.03852 0
M  V30 20926 O 2076.73 -2.55274 3.10159 0
M  V30 20927 N 2074.93 -1.31773 2.59006 0
M  V30 20928 H 2074.48 -0.424725 2.54074 0
M  V30 20929 H 2074.44 -2.13762 2.30549 0
M  V30 20930 N 2078.21 -1.39832 0.726957 0
M  V30 20931 C 2079.14 -2.28179 0.0306291 0
M  V30 20932 C 2080.12 -1.43956 -0.756008 0
M  V30 20933 O 2081.3 -1.73356 -0.74026 0
M  V30 20934 C 2078.43 -3.24695 -0.963903 0
M  V30 20935 C 2077.48 -4.25665 -0.266719 0
M  V30 20936 S 2078.31 -5.2582 1.01356 0
M  V30 20937 C 2079.47 -6.25896 0.0214211 0
M  V30 20938 H 2079.7 -2.86889 0.779868 0
M  V30 20939 H 2077.23 -1.45436 0.518429 0
M  V30 20940 H 2079.19 -3.80823 -1.53245 0
M  V30 20941 H 2077.85 -2.6502 -1.68592 0
M  V30 20942 H 2077.04 -4.93592 -1.01896 0
M  V30 20943 H 2076.65 -3.73295 0.229576 0
M  V30 20944 H 2078.94 -6.72499 -0.82166 0
M  V30 20945 H 2079.88 -7.04946 0.667612 0
M  V30 20946 H 2080.29 -5.6343 -0.347386 0
M  V30 20947 N 2079.69 -0.473982 -1.50304 0
M  V30 20948 C 2081.1 -0.128306 -1.59083 0
M  V30 20949 C 2081.3 1.3654 -1.48186 0
M  V30 20950 O 2080.36 2.13895 -1.34183 0
M  V30 20951 C 2081.67 -0.681074 -2.92885 0
M  V30 20952 C 2083.22 -0.644759 -3.06287 0
M  V30 20953 C 2083.69 -1.17512 -4.42668 0
M  V30 20954 N 2085.19 -1.13466 -4.49088 0
M  V30 20955 C 2085.92 -1.5155 -5.5301 0
M  V30 20956 N 2085.42 -1.97098 -6.64172 0
M  V30 20957 N 2087.21 -1.43135 -5.4357 0
M  V30 20958 H 2079.36 -1.44543 -1.55631 0
M  V30 20959 H 2081.62 -0.597921 -0.735659 0
M  V30 20960 H 2081.33 -1.72759 -3.06345 0
M  V30 20961 H 2081.2 -0.126258 -3.76989 0
M  V30 20962 H 2083.59 0.392851 -2.92473 0
M  V30 20963 H 2083.67 -1.23641 -2.23934 0
M  V30 20964 H 2083.32 -2.21138 -4.57231 0
M  V30 20965 H 2083.25 -0.559658 -5.23618 0
M  V30 20966 H 2085.74 -0.800623 -3.69322 0
M  V30 20967 H 2086.05 -2.24298 -7.39534 0
M  V30 20968 H 2084.39 -2.01052 -6.65284 0
M  V30 20969 H 2087.59 -1.0739 -4.55615 0
M  V30 20970 H 2087.76 -1.73141 -6.24441 0
M  V30 20971 N 2081.16 1.56239 -0.206702 0
M  V30 20972 C 2082.41 1.97513 0.428144 0
M  V30 20973 C 2082.73 1.09514 1.61343 0
M  V30 20974 O 2082 0.168913 1.9517 0
M  V30 20975 H 2080.58 0.729406 0.161169 0
M  V30 20976 H 2083.25 1.92637 -0.296139 0
M  V30 20977 H 2082.34 3.02592 0.764479 0
M  V30 20978 N 2082.64 -0.0668159 1.57458 0
M  V30 20979 C 2083.87 -0.781616 1.92108 0
M  V30 20980 C 2084.29 -1.70072 0.803553 0
M  V30 20981 O 2083.65 -1.7966 -0.243316 0
M  V30 20982 C 2083.7 -1.54705 3.25728 0
M  V30 20983 O 2082.8 -2.65804 3.15312 0
M  V30 20984 H 2082.14 -0.212907 0.628941 0
M  V30 20985 H 2084.67 -0.0335704 2.04572 0
M  V30 20986 H 2084.68 -1.92522 3.59721 0
M  V30 20987 H 2083.36 -0.872713 4.06641 0
M  V30 20988 H 2081.94 -2.30807 2.92886 0
M  V30 20989 N 2084.12 -1.53926 -0.338317 0
M  V30 20990 C 2085.37 -1.71424 -1.07797 0
M  V30 20991 C 2085.7 -0.480153 -1.8848 0
M  V30 20992 O 2084.95 0.538111 -1.88156 0
M  V30 20993 C 2085.25 -2.93279 -2.0426 0
M  V30 20994 C 2084.92 -4.28665 -1.39847 0
M  V30 20995 C 2083.58 -4.65475 -1.2201 0
M  V30 20996 C 2085.93 -5.12746 -0.934908 0
M  V30 20997 C 2083.26 -5.83979 -0.564424 0
M  V30 20998 C 2085.61 -6.31921 -0.293119 0
M  V30 20999 C 2084.27 -6.67421 -0.102472 0
M  V30 21000 H 2083.54 -0.627283 -0.394458 0
M  V30 21001 H 2086.19 -1.88149 -0.356684 0
M  V30 21002 H 2084.5 -2.71179 -2.82788 0
M  V30 21003 H 2086.19 -3.04011 -2.61492 0
M  V30 21004 H 2082.78 -3.99696 -1.54729 0
M  V30 21005 H 2086.97 -4.84836 -1.06055 0
M  V30 21006 H 2082.22 -6.10055 -0.40538 0
M  V30 21007 H 2086.4 -6.96361 0.0741496 0
M  V30 21008 H 2084.02 -7.59106 0.407635 0
M  V30 21009 N 2085.6 0.599608 -1.45748 0
M  V30 21010 C 2087.02 0.921212 -1.3033 0
M  V30 21011 C 2087.22 1.99787 -0.262213 0
M  V30 21012 O 2086.27 2.50186 0.34109 0
M  V30 21013 C 2087.58 1.35457 -2.68462 0
M  V30 21014 C 2089.13 1.46835 -2.76421 0
M  V30 21015 C 2089.61 1.93544 -4.15096 0
M  V30 21016 N 2091.1 2.00765 -4.1743 0
M  V30 21017 C 2091.83 2.38145 -5.21608 0
M  V30 21018 N 2091.33 2.74437 -6.36126 0
M  V30 21019 N 2093.12 2.38554 -5.08968 0
M  V30 21020 H 2085.27 -0.111892 -2.12105 0
M  V30 21021 H 2087.54 0.0126042 -0.947916 0
M  V30 21022 H 2087.24 0.63759 -3.45872 0
M  V30 21023 H 2087.12 2.31951 -2.97453 0
M  V30 21024 H 2089.5 2.17623 -1.99309 0
M  V30 21025 H 2089.58 0.486356 -2.51134 0
M  V30 21026 H 2089.23 1.2334 -4.92696 0
M  V30 21027 H 2089.16 2.92672 -4.3778 0
M  V30 21028 H 2091.65 1.75275 -3.34794 0
M  V30 21029 H 2091.96 3.01865 -7.11405 0
M  V30 21030 H 2090.31 2.72115 -6.39514 0
M  V30 21031 H 2093.5 2.09612 -4.18546 0
M  V30 21032 H 2093.67 2.67359 -5.90274 0
M  V30 21033 N 2087.08 1.33171 0.842803 0
M  V30 21034 C 2088.32 1.25734 1.61153 0
M  V30 21035 C 2088.68 -0.175326 1.91198 0
M  V30 21036 O 2089.88 -0.37361 2.66191 0
M  V30 21037 C 2088.15 2.10432 2.88882 0
M  V30 21038 S 2089.71 2.20144 3.79582 0
M  V30 21039 H 2086.53 0.44738 0.552605 0
M  V30 21040 H 2089.13 1.68159 0.997142 0
M  V30 21041 H 2087.84 3.13563 2.64776 0
M  V30 21042 H 2087.37 1.68829 3.55331 0
M  V30 21043 H 2089.38 1.35962 4.77209 0
M  V30 21044 N 2088.56 -1.06056 1.16576 0
M  V30 21045 C 2089.78 -1.83131 0.973539 0
M  V30 21046 C 2090.21 -1.82047 -0.473358 0
M  V30 21047 O 2089.56 -1.22303 -1.33834 0
M  V30 21048 C 2089.61 -3.2753 1.50852 0
M  V30 21049 O 2088.72 -4.06129 0.716451 0
M  V30 21050 H 2088.06 -0.566557 0.346279 0
M  V30 21051 H 2090.59 -1.33704 1.54869 0
M  V30 21052 H 2090.6 -3.78346 1.52704 0
M  V30 21053 H 2089.27 -3.27634 2.56181 0
M  V30 21054 H 2087.85 -3.64892 0.768639 0
M  V30 21055 N 2090.03 -0.964615 -1.24631 0
M  V30 21056 C 2091.27 -0.632622 -1.94364 0
M  V30 21057 C 2091.64 0.816641 -1.73767 0
M  V30 21058 O 2092.84 1.25871 -2.37508 0
M  V30 21059 C 2091.11 -0.993428 -3.43316 0
M  V30 21060 S 2092.67 -0.775518 -4.31893 0
M  V30 21061 H 2089.49 -0.232189 -0.672019 0
M  V30 21062 H 2092.09 -1.24091 -1.51068 0
M  V30 21063 H 2090.79 -2.04514 -3.55812 0
M  V30 21064 H 2090.32 -0.37579 -3.91601 0
M  V30 21065 H 2092.34 0.348693 -4.94973 0
M  V30 21066 N 2091.51 1.39445 -0.734362 0
M  V30 21067 C 2092.79 1.94487 -0.208359 0
M  V30 21068 C 2093.17 1.6712 1.28974 0
M  V30 21069 O 2092.52 0.999082 2.05501 0
M  V30 21070 C 2092.73 3.44777 -0.541289 0
M  V30 21071 C 2094.07 4.2176 -0.490275 0
M  V30 21072 O 2095.1 3.52972 -0.478443 0
M  V30 21073 O 2093.96 5.4435 -0.48425 0
M  V30 21074 H 2091.05 0.826136 -0.037802 0
M  V30 21075 H 2093.6 1.48948 -0.813177 0
M  V30 21076 H 2092.37 3.58128 -1.5767 0
M  V30 21077 H 2091.99 3.97492 0.0925302 0
M  V30 21078 N 2092.99 0.481946 1.5005 0
M  V30 21079 C 2094.22 -0.0666474 2.06793 0
M  V30 21080 C 2094.63 -1.3254 1.34457 0
M  V30 21081 O 2093.99 -1.7767 0.417087 0
M  V30 21082 C 2094.04 -0.343693 3.59862 0
M  V30 21083 O 2093.76 0.86514 4.29473 0
M  V30 21084 C 2095.26 -0.93805 4.33261 0
M  V30 21085 H 2092.48 0.0119311 0.670894 0
M  V30 21086 H 2095.03 0.673843 1.93079 0
M  V30 21087 H 2093.18 -1.03413 3.73342 0
M  V30 21088 H 2093.6 0.616339 5.20866 0
M  V30 21089 H 2095.07 -1.0816 5.413 0
M  V30 21090 H 2095.55 -1.93098 3.94474 0
M  V30 21091 H 2096.15 -0.285663 4.2434 0
M  V30 21092 N 2094.47 -1.56127 0.214985 0
M  V30 21093 C 2095.72 -1.97737 -0.417663 0
M  V30 21094 C 2096.04 -1.10368 -1.6076 0
M  V30 21095 O 2095.31 -0.179261 -1.95078 0
M  V30 21096 H 2093.89 -0.730251 -0.157298 0
M  V30 21097 H 2096.55 -1.92477 0.306351 0
M  V30 21098 H 2095.64 -3.02994 -0.748421 0
M  V30 21099 N 2095.95 0.0584645 -1.57492 0
M  V30 21100 C 2097.18 0.766524 -1.91854 0
M  V30 21101 C 2097.58 1.70962 -0.810481 0
M  V30 21102 O 2096.93 1.82328 0.224122 0
M  V30 21103 C 2096.99 1.60277 -3.21794 0
M  V30 21104 C 2096.65 0.827629 -4.49443 0
M  V30 21105 C 2097.65 0.140903 -5.19709 0
M  V30 21106 C 2095.33 0.790858 -4.96035 0
M  V30 21107 C 2097.33 -0.572217 -6.34826 0
M  V30 21108 C 2095.02 0.0739737 -6.11055 0
M  V30 21109 C 2096.01 -0.606351 -6.80303 0
M  V30 21110 O 2095.7 -1.31166 -7.93127 0
M  V30 21111 H 2095.43 0.222315 -0.638398 0
M  V30 21112 H 2097.99 0.0289713 -2.0538 0
M  V30 21113 H 2096.22 2.38344 -3.04514 0
M  V30 21114 H 2097.91 2.19073 -3.41705 0
M  V30 21115 H 2098.67 0.160531 -4.84734 0
M  V30 21116 H 2094.55 1.30987 -4.41999 0
M  V30 21117 H 2098.1 -1.10379 -6.88812 0
M  V30 21118 H 2093.99 0.0523191 -6.45479 0
M  V30 21119 H 2094.76 -1.2223 -8.09322 0
M  V30 21120 N 2097.42 1.54103 0.330149 0
M  V30 21121 C 2098.36 1.77865 1.42966 0
M  V30 21122 C 2099.33 0.62832 1.4997 0
M  V30 21123 O 2100.52 0.865011 1.67481 0
M  V30 21124 C 2097.65 1.88931 2.8111 0
M  V30 21125 C 2096.69 3.11177 2.91669 0
M  V30 21126 S 2097.52 4.69933 2.56755 0
M  V30 21127 C 2098.68 4.83896 3.96982 0
M  V30 21128 H 2098.91 2.70846 1.22596 0
M  V30 21129 H 2096.45 1.45142 0.526603 0
M  V30 21130 H 2098.4 1.95992 3.6069 0
M  V30 21131 H 2097.07 0.969392 2.98767 0
M  V30 21132 H 2096.26 3.15635 3.92925 0
M  V30 21133 H 2095.86 3.02412 2.20053 0
M  V30 21134 H 2098.15 4.66129 4.91661 0
M  V30 21135 H 2099.1 5.85995 3.97511 0
M  V30 21136 H 2099.5 4.12249 3.85631 0
M  V30 21137 N 2098.9 -0.59187 1.46064 0
M  V30 21138 C 2099.83 -1.71199 1.58787 0
M  V30 21139 C 2100.81 -1.64348 0.438615 0
M  V30 21140 O 2102 -1.82506 0.663725 0
M  V30 21141 C 2099.13 -3.0983 1.56917 0
M  V30 21142 C 2098.08 -3.31505 2.70719 0
M  V30 21143 C 2097.41 -4.70569 2.53907 0
M  V30 21144 C 2098.71 -3.20228 4.12615 0
M  V30 21145 H 2100.4 -1.60807 2.5255 0
M  V30 21146 H 2097.95 -0.772206 1.21544 0
M  V30 21147 H 2099.9 -3.88003 1.64413 0
M  V30 21148 H 2098.63 -3.21099 0.596928 0
M  V30 21149 H 2097.28 -2.55727 2.62677 0
M  V30 21150 H 2096.93 -4.78592 1.54787 0
M  V30 21151 H 2096.63 -4.86025 3.30232 0
M  V30 21152 H 2098.16 -5.50923 2.6328 0
M  V30 21153 H 2099.57 -3.88257 4.21817 0
M  V30 21154 H 2097.97 -3.47209 4.89455 0
M  V30 21155 H 2099.04 -2.17437 4.33416 0
M  V30 21156 N 2100.38 -1.33616 -0.835729 0
M  V30 21157 C 2101.29 -1.26175 -1.9778 0
M  V30 21158 C 2102.31 -0.171736 -1.7315 0
M  V30 21159 O 2103.48 -0.395895 -1.97471 0
M  V30 21160 C 2100.55 -1.00421 -3.31838 0
M  V30 21161 C 2099.61 -2.18454 -3.69563 0
M  V30 21162 C 2098.84 -1.93919 -4.97223 0
M  V30 21163 O 2099.06 -0.891065 -5.63397 0
M  V30 21164 O 2098 -2.80536 -5.32525 0
M  V30 21165 H 2101.82 -2.22227 -2.07 0
M  V30 21166 H 2099.41 -1.13694 -0.969228 0
M  V30 21167 H 2101.29 -0.877873 -4.12155 0
M  V30 21168 H 2099.97 -0.0739914 -3.23615 0
M  V30 21169 H 2098.87 -2.36642 -2.89743 0
M  V30 21170 H 2100.21 -3.09821 -3.82455 0
M  V30 21171 N 2101.86 1.05436 -1.17136 0
M  V30 21172 C 2103.08 1.82612 -0.983237 0
M  V30 21173 C 2103.51 1.82295 0.463697 0
M  V30 21174 O 2102.87 1.23011 1.33184 0
M  V30 21175 C 2102.91 3.26726 -1.52587 0
M  V30 21176 O 2102.02 4.05743 -0.737979 0
M  V30 21177 H 2101.36 0.564713 -0.349279 0
M  V30 21178 H 2103.89 1.3288 -1.55576 0
M  V30 21179 H 2103.9 3.77531 -1.54708 0
M  V30 21180 H 2102.57 3.26271 -2.57915 0
M  V30 21181 H 2101.15 3.64479 -0.78798 0
M  V30 21182 N 2103.34 0.971211 1.24118 0
M  V30 21183 C 2104.61 0.551769 1.87656 0
M  V30 21184 C 2104.99 -0.97112 1.87437 0
M  V30 21185 O 2104.34 -1.84396 1.34946 0
M  V30 21186 C 2104.55 1.14731 3.29602 0
M  V30 21187 C 2105.9 1.23437 4.06262 0
M  V30 21188 O 2106.92 1.10009 3.38787 0
M  V30 21189 O 2105.78 1.44701 5.26995 0
M  V30 21190 H 2102.88 0.184487 0.80616 0
M  V30 21191 H 2105.42 1.06571 1.32064 0
M  V30 21192 H 2104.19 2.18994 3.2428 0
M  V30 21193 H 2103.82 0.617636 3.92773 0
M  V30 21194 N 2104.81 -1.39054 0.741747 0
M  V30 21195 C 2106.06 -1.99978 0.292077 0
M  V30 21196 C 2106.38 -1.59162 -1.12662 0
M  V30 21197 O 2105.65 -0.842958 -1.76836 0
M  V30 21198 H 2104.23 -0.739584 0.105 0
M  V30 21199 H 2106.9 -1.7 0.953207 0
M  V30 21200 H 2105.99 -3.10178 0.34581 0
M  V30 21201 N 2106.29 -0.489897 -1.49792 0
M  V30 21202 C 2107.71 -0.145171 -1.58938 0
M  V30 21203 C 2107.91 1.34961 -1.49625 0
M  V30 21204 O 2106.96 2.1246 -1.36444 0
M  V30 21205 C 2108.28 -0.7121 -2.92147 0
M  V30 21206 C 2109.83 -0.677209 -3.05586 0
M  V30 21207 C 2110.3 -1.22201 -4.41397 0
M  V30 21208 N 2111.79 -1.18222 -4.47859 0
M  V30 21209 C 2112.53 -1.57407 -5.51372 0
M  V30 21210 N 2112.02 -2.04131 -6.62044 0
M  V30 21211 N 2113.82 -1.48892 -5.42022 0
M  V30 21212 H 2105.97 -1.46186 -1.54089 0
M  V30 21213 H 2108.23 -0.60569 -0.729276 0
M  V30 21214 H 2107.94 -1.75998 -3.04496 0
M  V30 21215 H 2107.81 -0.166236 -3.76834 0
M  V30 21216 H 2110.2 0.361809 -2.92874 0
M  V30 21217 H 2110.28 -1.26009 -2.2261 0
M  V30 21218 H 2109.92 -2.25975 -4.5486 0
M  V30 21219 H 2109.85 -0.615163 -5.22995 0
M  V30 21220 H 2112.34 -0.839749 -3.68452 0
M  V30 21221 H 2112.66 -2.32129 -7.37113 0
M  V30 21222 H 2111 -2.08097 -6.63114 0
M  V30 21223 H 2114.19 -1.12217 -4.5445 0
M  V30 21224 H 2114.36 -1.79754 -6.22569 0
M  V30 21225 N 2107.77 1.56011 -0.223262 0
M  V30 21226 C 2109 2.0274 0.412787 0
M  V30 21227 C 2109.41 1.10304 1.53227 0
M  V30 21228 O 2108.77 0.112965 1.8215 0
M  V30 21229 C 2108.82 3.48989 0.942818 0
M  V30 21230 O 2108.54 4.37901 -0.132031 0
M  V30 21231 C 2110.04 4.11371 1.65194 0
M  V30 21232 H 2107.26 0.663379 0.100842 0
M  V30 21233 H 2109.81 2.0165 -0.340215 0
M  V30 21234 H 2107.96 3.50689 1.64609 0
M  V30 21235 H 2108.38 5.23822 0.266637 0
M  V30 21236 H 2109.85 5.15467 1.97479 0
M  V30 21237 H 2110.33 3.56468 2.56568 0
M  V30 21238 H 2110.93 4.13525 0.993831 0
M  V30 21239 N 2109.25 -0.0501116 1.5752 0
M  V30 21240 C 2110.49 -0.750186 1.90136 0
M  V30 21241 C 2110.85 -1.73631 0.819531 0
M  V30 21242 O 2112.05 -2.48308 1.02939 0
M  V30 21243 C 2110.32 -1.4207 3.27949 0
M  V30 21244 S 2111.88 -2.15284 3.82359 0
M  V30 21245 H 2108.7 -0.249004 0.665972 0
M  V30 21246 H 2111.3 -0.00547796 1.95499 0
M  V30 21247 H 2110.01 -0.689478 4.04567 0
M  V30 21248 H 2109.54 -2.2044 3.25837 0
M  V30 21249 H 2111.55 -3.42131 3.59389 0
M  V30 21250 N 2110.73 -1.54276 -0.321972 0
M  V30 21251 C 2111.67 -1.83772 -1.3963 0
M  V30 21252 C 2112.64 -0.684941 -1.5132 0
M  V30 21253 O 2113.83 -0.931526 -1.66515 0
M  V30 21254 C 2110.97 -2.07212 -2.75966 0
M  V30 21255 C 2110.08 -3.34892 -2.72895 0
M  V30 21256 C 2109.22 -3.48284 -4.01088 0
M  V30 21257 C 2108.26 -4.69833 -3.9233 0
M  V30 21258 N 2107.39 -4.80144 -5.12256 0
M  V30 21259 H 2112.23 -2.75425 -1.13777 0
M  V30 21260 H 2109.77 -1.36401 -0.550737 0
M  V30 21261 H 2111.73 -2.18794 -3.55225 0
M  V30 21262 H 2110.36 -1.18848 -3.00125 0
M  V30 21263 H 2109.41 -3.32039 -1.85618 0
M  V30 21264 H 2110.72 -4.2426 -2.62307 0
M  V30 21265 H 2109.88 -3.59417 -4.88778 0
M  V30 21266 H 2108.61 -2.57011 -4.14483 0
M  V30 21267 H 2107.62 -4.58755 -3.03024 0
M  V30 21268 H 2108.84 -5.62492 -3.80498 0
M  V30 21269 H 2106.79 -3.91787 -5.26155 0
M  V30 21270 H 2106.71 -5.6348 -5.0401 0
M  V30 21271 H 2107.98 -4.9561 -6.01657 0
M  V30 21272 N 2112.2 0.584116 -1.46376 0
M  V30 21273 C 2113.45 1.34437 -1.51837 0
M  V30 21274 C 2113.78 1.93464 -0.168948 0
M  V30 21275 O 2113.06 1.76395 0.819455 0
M  V30 21276 C 2113.34 2.47477 -2.61586 0
M  V30 21277 C 2113.19 1.93494 -4.06054 0
M  V30 21278 C 2114.51 3.49527 -2.6743 0
M  V30 21279 H 2111.63 0.487455 -0.552772 0
M  V30 21280 H 2114.27 0.656303 -1.78305 0
M  V30 21281 H 2112.42 3.0617 -2.39148 0
M  V30 21282 H 2114.1 1.39268 -4.39775 0
M  V30 21283 H 2112.34 1.24333 -4.15601 0
M  V30 21284 H 2113.01 2.75087 -4.78572 0
M  V30 21285 H 2115.49 3.00712 -2.87596 0
M  V30 21286 H 2114.36 4.26082 -3.46043 0
M  V30 21287 H 2114.62 4.06664 -1.73426 0
M  V30 21288 N 2113.68 1.34058 0.828631 0
M  V30 21289 C 2114.91 1.29156 1.61636 0
M  V30 21290 C 2115.33 -0.135511 1.88313 0
M  V30 21291 O 2114.68 -1.08084 1.47051 0
M  V30 21292 C 2114.73 2.07436 2.96062 0
M  V30 21293 O 2114.46 3.44577 2.70552 0
M  V30 21294 C 2115.96 2.09865 3.90476 0
M  V30 21295 H 2113.18 0.444543 0.502615 0
M  V30 21296 H 2115.72 1.76585 1.0314 0
M  V30 21297 H 2113.88 1.63663 3.51131 0
M  V30 21298 H 2114.29 3.84972 3.56225 0
M  V30 21299 H 2115.76 2.69071 4.8198 0
M  V30 21300 H 2116.24 1.09155 4.2542 0
M  V30 21301 H 2116.85 2.53702 3.41344 0
M  V30 21302 N 2115.16 -1.04814 1.17694 0
M  V30 21303 C 2116.12 -2.10819 0.899339 0
M  V30 21304 C 2117.12 -1.60409 -0.112116 0
M  V30 21305 O 2118.31 -1.73783 0.120484 0
M  V30 21306 C 2115.45 -3.39121 0.34786 0
M  V30 21307 H 2116.64 -2.36878 1.83926 0
M  V30 21308 H 2114.19 -1.21119 0.987923 0
M  V30 21309 H 2114.93 -3.1872 -0.599026 0
M  V30 21310 H 2114.71 -3.77022 1.07688 0
M  V30 21311 H 2116.2 -4.17245 0.172084 0
M  V30 21312 N 2116.64 -0.977779 -1.23601 0
M  V30 21313 C 2117.86 -0.662789 -1.96524 0
M  V30 21314 C 2118.29 0.763086 -1.71926 0
M  V30 21315 O 2117.65 1.51941 -0.989123 0
M  V30 21316 C 2117.7 -0.95584 -3.47701 0
M  V30 21317 O 2116.8 -0.046501 -4.12374 0
M  V30 21318 H 2116.14 -0.249541 -0.615325 0
M  V30 21319 H 2118.67 -1.31066 -1.57108 0
M  V30 21320 H 2118.68 -0.891475 -3.98142 0
M  V30 21321 H 2117.36 -1.99494 -3.64932 0
M  V30 21322 H 2115.93 -0.165051 -3.72535 0
M  V30 21323 N 2118.12 1.38658 -0.749111 0
M  V30 21324 C 2119.03 2.34291 -0.120373 0
M  V30 21325 C 2120.04 1.59043 0.705796 0
M  V30 21326 O 2121.22 1.9126 0.63099 0
M  V30 21327 C 2118.28 3.38141 0.765626 0
M  V30 21328 C 2117.35 4.29236 -0.0744037 0
M  V30 21329 C 2116.58 5.28125 0.769401 0
M  V30 21330 O 2116.8 5.33902 2.0076 0
M  V30 21331 O 2115.74 6.01598 0.190576 0
M  V30 21332 H 2119.56 2.89744 -0.910056 0
M  V30 21333 H 2117.15 1.40428 -0.509948 0
M  V30 21334 H 2119.03 4.0174 1.27214 0
M  V30 21335 H 2117.7 2.8505 1.53388 0
M  V30 21336 H 2116.61 3.68812 -0.626761 0
M  V30 21337 H 2117.94 4.85569 -0.805208 0
M  V30 21338 N 2119.6 0.497834 1.49531 0
M  V30 21339 C 2120.82 -0.0468921 2.07347 0
M  V30 21340 C 2121.25 -1.30349 1.35612 0
M  V30 21341 O 2120.6 -1.76559 0.411884 0
M  V30 21342 C 2120.65 -0.286776 3.59458 0
M  V30 21343 O 2119.76 -1.36212 3.89256 0
M  V30 21344 H 2119.1 0.0248202 0.663536 0
M  V30 21345 H 2121.63 0.696547 1.92378 0
M  V30 21346 H 2121.64 -0.519243 4.04682 0
M  V30 21347 H 2120.31 0.631334 4.1108 0
M  V30 21348 H 2118.89 -1.11485 3.55845 0
M  V30 21349 N 2121.07 -1.5589 0.231532 0
M  V30 21350 C 2122 -2.23713 -0.66894 0
M  V30 21351 C 2122.98 -1.21219 -1.19332 0
M  V30 21352 O 2124.17 -1.49831 -1.23549 0
M  V30 21353 C 2121.3 -2.92476 -1.87284 0
M  V30 21354 C 2120.25 -4.01527 -1.48189 0
M  V30 21355 C 2119.58 -4.57637 -2.76537 0
M  V30 21356 C 2120.88 -5.18057 -0.664415 0
M  V30 21357 H 2122.57 -2.99221 -0.103437 0
M  V30 21358 H 2120.12 -1.43919 -0.0483103 0
M  V30 21359 H 2122.07 -3.38617 -2.50831 0
M  V30 21360 H 2120.8 -2.14431 -2.46347 0
M  V30 21361 H 2119.46 -3.56131 -0.869833 0
M  V30 21362 H 2119.1 -3.7631 -3.33766 0
M  V30 21363 H 2118.8 -5.31242 -2.51108 0
M  V30 21364 H 2120.33 -5.06503 -3.41009 0
M  V30 21365 H 2121.74 -5.60519 -1.20382 0
M  V30 21366 H 2120.14 -5.97956 -0.506811 0
M  V30 21367 H 2121.21 -4.83798 0.326792 0
M  V30 21368 N 2122.55 0.0417572 -1.57545 0
M  V30 21369 C 2123.48 1.04602 -2.0876 0
M  V30 21370 C 2124.46 1.3851 -0.987368 0
M  V30 21371 O 2125.65 1.47615 -1.26188 0
M  V30 21372 C 2122.78 2.35076 -2.55649 0
M  V30 21373 C 2121.73 2.15444 -3.69821 0
M  V30 21374 C 2121.06 3.51566 -4.02871 0
M  V30 21375 C 2122.36 1.55098 -4.9874 0
M  V30 21376 H 2124.05 0.619732 -2.92916 0
M  V30 21377 H 2121.6 0.296659 -1.40911 0
M  V30 21378 H 2123.55 3.0565 -2.90097 0
M  V30 21379 H 2122.27 2.79741 -1.6856 0
M  V30 21380 H 2120.93 1.47306 -3.35703 0
M  V30 21381 H 2120.58 3.93857 -3.12867 0
M  V30 21382 H 2120.28 3.3926 -4.79767 0
M  V30 21383 H 2121.81 4.23523 -4.39842 0
M  V30 21384 H 2123.22 2.15573 -5.31226 0
M  V30 21385 H 2121.62 1.53403 -5.80162 0
M  V30 21386 H 2122.69 0.515437 -4.82153 0
M  V30 21387 N 2124.03 1.54445 0.313786 0
M  V30 21388 C 2124.96 1.87506 1.39153 0
M  V30 21389 C 2125.94 0.732752 1.53508 0
M  V30 21390 O 2127.13 0.98736 1.67227 0
M  V30 21391 C 2124.26 2.11107 2.75773 0
M  V30 21392 C 2123.21 3.26954 2.76197 0
M  V30 21393 C 2122.54 3.35947 4.15985 0
M  V30 21394 C 2123.84 4.64372 2.39073 0
M  V30 21395 H 2125.53 2.7777 1.11732 0
M  V30 21396 H 2123.08 1.33651 0.536054 0
M  V30 21397 H 2125.03 2.32821 3.51244 0
M  V30 21398 H 2123.75 1.17602 3.04692 0
M  V30 21399 H 2122.41 3.05144 2.03182 0
M  V30 21400 H 2122.06 2.39982 4.42061 0
M  V30 21401 H 2121.76 4.13812 4.17173 0
M  V30 21402 H 2123.28 3.59906 4.93254 0
M  V30 21403 H 2124.7 4.85901 3.04258 0
M  V30 21404 H 2123.09 5.44858 2.51496 0
M  V30 21405 H 2124.16 4.65956 1.34211 0
M  V30 21406 N 2125.51 -0.576345 1.46683 0
M  V30 21407 C 2126.44 -1.69505 1.60594 0
M  V30 21408 C 2127.42 -1.63873 0.456022 0
M  V30 21409 O 2128.6 -1.81791 0.683045 0
M  V30 21410 C 2125.73 -3.08148 1.60194 0
M  V30 21411 C 2124.69 -3.28615 2.7422 0
M  V30 21412 C 2124.01 -4.6785 2.58884 0
M  V30 21413 C 2125.31 -3.15834 4.15989 0
M  V30 21414 H 2127.01 -1.58119 2.54241 0
M  V30 21415 H 2124.55 -0.759271 1.22356 0
M  V30 21416 H 2126.51 -3.86237 1.68519 0
M  V30 21417 H 2125.23 -3.20447 0.630952 0
M  V30 21418 H 2123.89 -2.52927 2.65375 0
M  V30 21419 H 2123.54 -4.76923 1.59854 0
M  V30 21420 H 2123.24 -4.82495 3.35368 0
M  V30 21421 H 2124.76 -5.48099 2.69109 0
M  V30 21422 H 2126.18 -3.83761 4.25911 0
M  V30 21423 H 2124.57 -3.41998 4.9311 0
M  V30 21424 H 2125.64 -2.12828 4.35698 0
M  V30 21425 N 2126.99 -1.34495 -0.82151 0
M  V30 21426 C 2128.23 -1.27119 -1.58014 0
M  V30 21427 C 2128.56 0.158163 -1.93555 0
M  V30 21428 O 2127.84 1.10389 -1.60139 0
M  V30 21429 C 2128.12 -2.16338 -2.87871 0
M  V30 21430 C 2127.98 -3.67818 -2.58902 0
M  V30 21431 C 2129.29 -2.04971 -3.89455 0
M  V30 21432 H 2126.41 -0.463115 -0.573318 0
M  V30 21433 H 2129.06 -1.6476 -0.946264 0
M  V30 21434 H 2127.21 -1.84367 -3.41966 0
M  V30 21435 H 2128.88 -4.10161 -2.11106 0
M  V30 21436 H 2127.12 -3.88837 -1.92324 0
M  V30 21437 H 2127.79 -4.25612 -3.51509 0
M  V30 21438 H 2130.27 -2.33044 -3.44717 0
M  V30 21439 H 2129.14 -2.6962 -4.78118 0
M  V30 21440 H 2129.4 -1.02711 -4.30003 0
M  V30 21441 N 2128.46 1.04188 -1.18248 0
M  V30 21442 C 2129.43 2.10339 -0.910507 0
M  V30 21443 C 2130.43 1.60466 0.103607 0
M  V30 21444 O 2131.62 1.73717 -0.129699 0
M  V30 21445 C 2128.75 3.38931 -0.36584 0
M  V30 21446 H 2129.94 2.359 -1.85179 0
M  V30 21447 H 2127.5 1.20593 -0.994332 0
M  V30 21448 H 2128.23 3.19033 0.582115 0
M  V30 21449 H 2128.02 3.76446 -1.09686 0
M  V30 21450 H 2129.51 4.17148 -0.194209 0
M  V30 21451 N 2129.94 0.98432 1.23081 0
M  V30 21452 C 2131.17 0.673202 1.9617 0
M  V30 21453 C 2131.59 -0.753958 1.72328 0
M  V30 21454 O 2130.95 -1.51414 0.997167 0
M  V30 21455 C 2131 0.974266 3.47189 0
M  V30 21456 O 2130.1 0.0683695 4.12343 0
M  V30 21457 H 2129.44 0.252801 0.613993 0
M  V30 21458 H 2131.97 1.31898 1.5641 0
M  V30 21459 H 2131.98 0.912577 3.97663 0
M  V30 21460 H 2130.66 2.01426 3.63868 0
M  V30 21461 H 2129.24 0.184805 3.72442 0
M  V30 21462 N 2131.42 -1.38259 0.756453 0
M  V30 21463 C 2132.35 -2.2902 0.0908208 0
M  V30 21464 C 2133.37 -1.47887 -0.680684 0
M  V30 21465 O 2134.55 -1.70718 -0.521301 0
M  V30 21466 C 2131.65 -3.26859 -0.895342 0
M  V30 21467 C 2130.83 -4.37026 -0.180877 0
M  V30 21468 C 2129.89 -5.15035 -1.0782 0
M  V30 21469 O 2128.91 -5.66559 -0.547658 0
M  V30 21470 N 2130.11 -5.28291 -2.40602 0
M  V30 21471 H 2132.88 -2.86785 0.870302 0
M  V30 21472 H 2130.44 -1.50071 0.607483 0
M  V30 21473 H 2132.43 -3.75926 -1.49873 0
M  V30 21474 H 2131 -2.69972 -1.57588 0
M  V30 21475 H 2130.22 -3.89557 0.603252 0
M  V30 21476 H 2131.51 -5.07834 0.313403 0
M  V30 21477 H 2130.91 -4.87986 -2.86158 0
M  V30 21478 H 2129.47 -5.80721 -2.95984 0
M  V30 21479 N 2132.9 -0.505757 -1.49264 0
M  V30 21480 C 2133.85 0.28378 -2.30862 0
M  V30 21481 C 2134.84 0.958332 -1.39687 0
M  V30 21482 O 2136.05 0.885479 -1.56714 0
M  V30 21483 H 2132.42 0.110376 -0.743856 0
M  V30 21484 H 2134.39 -0.424349 -2.95367 0
M  V30 21485 C 2133.14 1.33255 -3.21152 0
M  V30 21486 H 2132.46 0.822894 -3.9124 0
M  V30 21487 H 2133.9 1.85687 -3.81177 0
M  V30 21488 C 2132.36 2.35327 -2.41087 0
M  V30 21489 O 2132.89 3.41302 -2.1184 0
M  V30 21490 N 2131.1 2.07918 -2.03023 0
M  V30 21491 H 2130.65 1.21758 -2.27009 0
M  V30 21492 H 2130.6 2.7644 -1.49762 0
M  V30 21493 N 2134.38 1.55765 -0.239796 0
M  V30 21494 C 2135.32 2.2108 0.662746 0
M  V30 21495 C 2136.29 1.17233 1.17668 0
M  V30 21496 O 2137.48 1.45655 1.23245 0
M  V30 21497 C 2134.62 2.90865 1.85719 0
M  V30 21498 C 2133.73 4.0935 1.38044 0
M  V30 21499 C 2132.87 4.6687 2.53389 0
M  V30 21500 C 2131.91 5.77619 2.02541 0
M  V30 21501 N 2131.04 6.29351 3.11225 0
M  V30 21502 H 2135.88 2.97835 0.0990722 0
M  V30 21503 H 2133.42 1.47053 0.0371415 0
M  V30 21504 H 2135.38 3.2952 2.55875 0
M  V30 21505 H 2134.01 2.16596 2.39345 0
M  V30 21506 H 2133.06 3.76057 0.573171 0
M  V30 21507 H 2134.37 4.89322 0.96774 0
M  V30 21508 H 2133.53 5.08062 3.31598 0
M  V30 21509 H 2132.26 3.861 2.97957 0
M  V30 21510 H 2131.27 5.35911 1.22799 0
M  V30 21511 H 2132.49 6.60236 1.5895 0
M  V30 21512 H 2130.44 5.51488 3.55241 0
M  V30 21513 H 2130.36 7.04497 2.74263 0
M  V30 21514 H 2131.63 6.75202 3.89516 0
M  V30 21515 N 2135.85 -0.0334016 1.57565 0
M  V30 21516 C 2137.1 -0.724102 1.88254 0
M  V30 21517 C 2137.42 -1.76752 0.837737 0
M  V30 21518 O 2138.62 -2.51051 1.03372 0
M  V30 21519 C 2137.08 -1.33894 3.34067 0
M  V30 21520 C 2136.69 -0.332091 4.46767 0
M  V30 21521 C 2138.43 -2.00977 3.7391 0
M  V30 21522 C 2136.34 -0.955024 5.83638 0
M  V30 21523 H 2135.27 -0.274201 0.702375 0
M  V30 21524 H 2137.92 0.0216608 1.83487 0
M  V30 21525 H 2136.3 -2.13426 3.33565 0
M  V30 21526 H 2137.47 0.436205 4.58731 0
M  V30 21527 H 2135.79 0.236407 4.15728 0
M  V30 21528 H 2138.39 -2.48428 4.73485 0
M  V30 21529 H 2138.73 -2.82605 3.05679 0
M  V30 21530 H 2139.26 -1.28225 3.76568 0
M  V30 21531 H 2136 -0.178244 6.55258 0
M  V30 21532 H 2135.52 -1.69326 5.75403 0
M  V30 21533 H 2137.2 -1.46364 6.30227 0
M  V30 21534 N 2137.33 -1.54609 -0.305591 0
M  V30 21535 C 2138.58 -1.72882 -1.03898 0
M  V30 21536 C 2138.89 -0.519195 -1.88583 0
M  V30 21537 O 2140.1 -0.583633 -2.65153 0
M  V30 21538 C 2138.56 -3.05853 -1.89689 0
M  V30 21539 C 2138.16 -4.34278 -1.10029 0
M  V30 21540 C 2139.91 -3.33485 -2.62656 0
M  V30 21541 C 2137.82 -5.58302 -1.9507 0
M  V30 21542 H 2136.75 -0.64432 -0.391621 0
M  V30 21543 H 2139.4 -1.81093 -0.296223 0
M  V30 21544 H 2137.78 -2.91594 -2.67935 0
M  V30 21545 H 2138.95 -4.59358 -0.364293 0
M  V30 21546 H 2137.27 -4.13546 -0.486653 0
M  V30 21547 H 2139.86 -4.23345 -3.26624 0
M  V30 21548 H 2140.21 -2.52157 -3.31244 0
M  V30 21549 H 2140.74 -3.48694 -1.91462 0
M  V30 21550 H 2137.48 -6.42285 -1.3096 0
M  V30 21551 H 2137 -5.37415 -2.66355 0
M  V30 21552 H 2138.68 -5.95386 -2.53228 0
M  V30 21553 N 2138.81 0.568558 -1.46987 0
M  V30 21554 C 2139.77 1.65862 -1.58185 0
M  V30 21555 C 2140.77 1.54145 -0.457828 0
M  V30 21556 O 2141.96 1.58507 -0.722567 0
M  V30 21557 C 2139.1 3.05356 -1.5156 0
M  V30 21558 H 2140.29 1.57286 -2.55345 0
M  V30 21559 H 2137.84 0.787562 -1.35008 0
M  V30 21560 H 2138.58 3.19475 -0.557329 0
M  V30 21561 H 2138.36 3.1527 -2.33125 0
M  V30 21562 H 2139.85 3.84682 -1.62511 0
M  V30 21563 N 2140.29 1.34929 0.814366 0
M  V30 21564 C 2141.57 1.18339 1.55741 0
M  V30 21565 C 2141.95 -0.240616 2.09724 0
M  V30 21566 O 2141.29 -1.2431 1.91727 0
M  V30 21567 C 2141.5 2.24503 2.67206 0
M  V30 21568 C 2142.85 2.59917 3.35751 0
M  V30 21569 O 2143.88 2.23358 2.7747 0
M  V30 21570 O 2142.73 3.22749 4.41017 0
M  V30 21571 H 2139.83 0.459265 0.687753 0
M  V30 21572 H 2142.37 1.46587 0.854999 0
M  V30 21573 H 2141.15 3.20048 2.25133 0
M  V30 21574 H 2140.77 1.9748 3.4509 0
M  V30 21575 N 2141.77 -1.0356 1.18799 0
M  V30 21576 C 2142.99 -1.81025 1.01216 0
M  V30 21577 C 2143.42 -1.8301 -0.434636 0
M  V30 21578 O 2142.77 -1.25115 -1.3121 0
M  V30 21579 C 2142.82 -3.24257 1.57766 0
M  V30 21580 O 2141.93 -4.04518 0.802435 0
M  V30 21581 H 2141.27 -0.559085 0.358218 0
M  V30 21582 H 2143.8 -1.30389 1.57671 0
M  V30 21583 H 2143.81 -3.75022 1.60694 0
M  V30 21584 H 2142.48 -3.22127 2.63073 0
M  V30 21585 H 2141.06 -3.6318 0.845866 0
M  V30 21586 N 2143.25 -0.990834 -1.22557 0
M  V30 21587 C 2144.49 -0.666519 -1.91534 0
M  V30 21588 C 2144.82 0.799165 -1.76994 0
M  V30 21589 O 2144.1 1.57769 -1.13751 0
M  V30 21590 C 2144.38 -1.07064 -3.43816 0
M  V30 21591 C 2144.24 -2.59473 -3.67415 0
M  V30 21592 C 2145.55 -0.622332 -4.35678 0
M  V30 21593 H 2142.67 -0.243613 -0.695573 0
M  V30 21594 H 2145.32 -1.23399 -1.44474 0
M  V30 21595 H 2143.47 -0.587797 -3.84028 0
M  V30 21596 H 2145.14 -3.15412 -3.3662 0
M  V30 21597 H 2143.38 -3.01635 -3.11767 0
M  V30 21598 H 2144.05 -2.828 -4.74055 0
M  V30 21599 H 2146.53 -1.03704 -4.0297 0
M  V30 21600 H 2145.4 -0.933416 -5.40905 0
M  V30 21601 H 2145.66 0.477057 -4.39519 0
M  V30 21602 N 2144.72 1.37856 -0.763775 0
M  V30 21603 C 2145.95 2.0416 -0.335631 0
M  V30 21604 C 2146.37 1.57607 1.0395 0
M  V30 21605 O 2145.72 0.753707 1.66209 0
M  V30 21606 C 2145.77 3.59696 -0.360678 0
M  V30 21607 O 2145.5 4.04543 -1.68155 0
M  V30 21608 C 2147 4.43228 0.080061 0
M  V30 21609 H 2144.22 0.655845 -0.141805 0
M  V30 21610 H 2146.76 1.76347 -1.03547 0
M  V30 21611 H 2144.92 3.86309 0.290514 0
M  V30 21612 H 2145.33 4.99027 -1.6147 0
M  V30 21613 H 2146.8 5.51999 0.0113779 0
M  V30 21614 H 2147.28 4.24432 1.12936 0
M  V30 21615 H 2147.89 4.21824 -0.542641 0
M  V30 21616 N 2146.2 0.513665 1.48994 0
M  V30 21617 C 2147.43 -0.0248975 2.07385 0
M  V30 21618 C 2147.85 -1.28903 1.36987 0
M  V30 21619 O 2147.21 -1.76113 0.430588 0
M  V30 21620 C 2147.26 -0.248634 3.59742 0
M  V30 21621 O 2146.36 -1.32076 3.90679 0
M  V30 21622 H 2145.7 0.0318565 0.663235 0
M  V30 21623 H 2148.23 0.716913 1.91629 0
M  V30 21624 H 2148.24 -0.476291 4.0521 0
M  V30 21625 H 2146.92 0.674899 4.10388 0
M  V30 21626 H 2145.49 -1.07705 3.57007 0
M  V30 21627 N 2147.68 -1.55636 0.248053 0
M  V30 21628 C 2148.61 -2.18762 -0.683786 0
M  V30 21629 C 2149.62 -1.16427 -1.13791 0
M  V30 21630 O 2150.81 -1.43286 -1.06449 0
M  V30 21631 C 2147.91 -2.77789 -1.9413 0
M  V30 21632 C 2147.09 -4.05554 -1.63843 0
M  V30 21633 C 2146.15 -4.48887 -2.74566 0
M  V30 21634 O 2145.17 -5.15239 -2.41903 0
M  V30 21635 N 2146.37 -4.16768 -4.04085 0
M  V30 21636 H 2149.14 -2.99356 -0.143647 0
M  V30 21637 H 2146.7 -1.61757 0.0680612 0
M  V30 21638 H 2148.69 -3.03735 -2.67445 0
M  V30 21639 H 2147.26 -2.01346 -2.3912 0
M  V30 21640 H 2146.48 -3.87184 -0.740411 0
M  V30 21641 H 2147.77 -4.88851 -1.41074 0
M  V30 21642 H 2147.17 -3.63502 -4.33455 0
M  V30 21643 H 2145.72 -4.47548 -4.73861 0
M  V30 21644 N 2149.16 0.0250451 -1.5758 0
M  V30 21645 C 2150.4 0.716105 -1.89736 0
M  V30 21646 C 2150.74 1.7479 -0.846284 0
M  V30 21647 O 2150.01 1.94009 0.138165 0
M  V30 21648 C 2150.29 1.38201 -3.32524 0
M  V30 21649 C 2150.15 0.363457 -4.48329 0
M  V30 21650 C 2151.47 2.31493 -3.74298 0
M  V30 21651 H 2148.59 0.258862 -0.690043 0
M  V30 21652 H 2151.23 -0.0211043 -1.89988 0
M  V30 21653 H 2149.38 2.01037 -3.3244 0
M  V30 21654 H 2151.05 -0.263295 -4.60548 0
M  V30 21655 H 2149.29 -0.316859 -4.32641 0
M  V30 21656 H 2149.96 0.867948 -5.45134 0
M  V30 21657 H 2152.44 1.78697 -3.75774 0
M  V30 21658 H 2151.32 2.75065 -4.75006 0
M  V30 21659 H 2151.58 3.1834 -3.06777 0
M  V30 21660 N 2150.64 1.54769 0.297388 0
M  V30 21661 C 2151.59 1.82354 1.36861 0
M  V30 21662 C 2152.57 0.680909 1.45782 0
M  V30 21663 O 2153.76 0.941639 1.49874 0
M  V30 21664 C 2150.89 2.0775 2.73304 0
M  V30 21665 C 2149.98 3.28207 2.68591 0
M  V30 21666 N 2150.37 4.4868 2.33494 0
M  V30 21667 C 2148.67 3.30307 2.99689 0
M  V30 21668 C 2149.37 5.30707 2.38169 0
M  V30 21669 N 2148.34 4.68517 2.75669 0
M  V30 21670 H 2152.14 2.73061 1.08696 0
M  V30 21671 H 2149.66 1.54317 0.505976 0
M  V30 21672 H 2151.66 2.2566 3.50547 0
M  V30 21673 H 2150.32 1.18312 3.02378 0
M  V30 21674 H 2151.33 4.75217 2.05887 0
M  V30 21675 H 2148 2.50987 3.33634 0
M  V30 21676 H 2149.39 6.36976 2.13802 0
M  V30 21677 N 2152.11 -0.560755 1.47286 0
M  V30 21678 C 2153.06 -1.68914 1.59908 0
M  V30 21679 C 2154.06 -1.62849 0.466545 0
M  V30 21680 O 2155.26 -1.68077 0.644218 0
M  V30 21681 H 2151.64 -0.558856 0.503174 0
M  V30 21682 H 2153.61 -1.55405 2.54739 0
M  V30 21683 C 2152.36 -3.07274 1.62721 0
M  V30 21684 H 2151.68 -3.12622 2.49214 0
M  V30 21685 H 2153.12 -3.85927 1.75603 0
M  V30 21686 C 2151.58 -3.34973 0.359852 0
M  V30 21687 O 2152.11 -3.98046 -0.540583 0
M  V30 21688 N 2150.31 -2.89599 0.24097 0
M  V30 21689 H 2149.86 -2.3845 0.974638 0
M  V30 21690 H 2149.82 -3.08503 -0.606066 0
M  V30 21691 N 2153.59 -1.35359 -0.807199 0
M  V30 21692 C 2154.84 -1.27934 -1.55935 0
M  V30 21693 C 2155.15 0.144469 -1.95066 0
M  V30 21694 O 2156.36 0.340989 -2.6935 0
M  V30 21695 C 2154.82 -2.24359 -2.81409 0
M  V30 21696 C 2154.42 -3.72081 -2.49519 0
M  V30 21697 C 2156.17 -2.25874 -3.59418 0
M  V30 21698 C 2154.07 -4.60331 -3.71281 0
M  V30 21699 H 2153 -0.475324 -0.585306 0
M  V30 21700 H 2155.66 -1.60619 -0.887342 0
M  V30 21701 H 2154.04 -1.84644 -3.50318 0
M  V30 21702 H 2155.21 -4.20427 -1.88621 0
M  V30 21703 H 2153.53 -3.73167 -1.84757 0
M  V30 21704 H 2156.12 -2.89024 -4.49855 0
M  V30 21705 H 2156.47 -1.26232 -3.967 0
M  V30 21706 H 2157 -2.64115 -2.9747 0
M  V30 21707 H 2153.74 -5.60969 -3.39107 0
M  V30 21708 H 2153.26 -4.16711 -4.31407 0
M  V30 21709 H 2154.94 -4.75723 -4.38516 0
M  V30 21710 N 2155.07 1.02928 -1.19346 0
M  V30 21711 C 2156.3 1.79687 -1.01961 0
M  V30 21712 C 2156.71 1.84137 0.434779 0
M  V30 21713 O 2156.05 1.28397 1.31377 0
M  V30 21714 C 2156.11 3.26152 -1.51213 0
M  V30 21715 C 2155.78 3.45338 -2.99317 0
M  V30 21716 C 2156.77 3.35591 -3.97083 0
M  V30 21717 C 2154.46 3.71566 -3.38 0
M  V30 21718 C 2156.45 3.51795 -5.31525 0
M  V30 21719 C 2154.14 3.87415 -4.72602 0
M  V30 21720 C 2155.14 3.77532 -5.69174 0
M  V30 21721 O 2154.83 3.92914 -7.01337 0
M  V30 21722 H 2154.56 0.572339 -0.359729 0
M  V30 21723 H 2157.11 1.30533 -1.58588 0
M  V30 21724 H 2155.34 3.76328 -0.889605 0
M  V30 21725 H 2157.03 3.84505 -1.30042 0
M  V30 21726 H 2157.8 3.1528 -3.68542 0
M  V30 21727 H 2153.68 3.78351 -2.63385 0
M  V30 21728 H 2157.22 3.43997 -6.06887 0
M  V30 21729 H 2153.12 4.07223 -5.00839 0
M  V30 21730 H 2153.88 4.10007 -7.08404 0
M  V30 21731 N 2156.55 0.997319 1.2203 0
M  V30 21732 C 2157.77 0.69397 1.95445 0
M  V30 21733 C 2158.2 -0.735638 1.73118 0
M  V30 21734 O 2157.56 -1.50348 1.01317 0
M  V30 21735 C 2157.6 1.01104 3.46136 0
M  V30 21736 O 2156.71 0.1121 4.12248 0
M  V30 21737 H 2156.05 0.259299 0.611277 0
M  V30 21738 H 2158.58 1.33549 1.55003 0
M  V30 21739 H 2158.59 0.954704 3.96673 0
M  V30 21740 H 2157.26 2.05274 3.61712 0
M  V30 21741 H 2155.84 0.224297 3.72225 0
M  V30 21742 N 2158.03 -1.37449 0.771075 0
M  V30 21743 C 2158.96 -2.32874 0.170867 0
M  V30 21744 C 2159.94 -1.55746 -0.683892 0
M  V30 21745 O 2161.12 -1.83987 -0.621492 0
M  V30 21746 C 2158.25 -3.39974 -0.709566 0
M  V30 21747 C 2157.21 -4.27978 0.0438353 0
M  V30 21748 C 2156.53 -5.26084 -0.955998 0
M  V30 21749 C 2157.83 -5.07793 1.22245 0
M  V30 21750 H 2159.53 -2.83319 0.968038 0
M  V30 21751 H 2157.07 -1.36219 0.466952 0
M  V30 21752 H 2159.03 -4.05708 -1.13926 0
M  V30 21753 H 2157.75 -2.88053 -1.53925 0
M  V30 21754 H 2156.41 -3.63774 0.454301 0
M  V30 21755 H 2156.06 -4.70444 -1.78021 0
M  V30 21756 H 2155.76 -5.85824 -0.456445 0
M  V30 21757 H 2157.28 -5.94693 -1.38465 0
M  V30 21758 H 2158.69 -5.66669 0.869436 0
M  V30 21759 H 2157.09 -5.76855 1.65404 0
M  V30 21760 H 2158.16 -4.40506 2.02688 0
M  V30 21761 N 2159.5 -0.52156 -1.4872 0
M  V30 21762 C 2160.75 0.0156187 -2.02794 0
M  V30 21763 C 2161.08 1.34729 -1.39863 0
M  V30 21764 O 2160.36 1.86812 -0.541426 0
M  V30 21765 C 2160.64 0.146526 -3.59802 0
M  V30 21766 C 2160.49 -1.20972 -4.33227 0
M  V30 21767 C 2161.81 0.87737 -4.31266 0
M  V30 21768 H 2158.93 0.00420207 -0.736988 0
M  V30 21769 H 2161.57 -0.676958 -1.77531 0
M  V30 21770 H 2159.72 0.736393 -3.81457 0
M  V30 21771 H 2161.4 -1.84005 -4.23013 0
M  V30 21772 H 2159.64 -1.79378 -3.94976 0
M  V30 21773 H 2160.31 -1.07121 -5.41506 0
M  V30 21774 H 2162.79 0.376892 -4.1439 0
M  V30 21775 H 2161.66 0.937846 -5.40829 0
M  V30 21776 H 2161.92 1.92578 -3.97953 0
M  V30 21777 N 2160.98 1.55502 -0.256304 0
M  V30 21778 C 2161.89 2.25422 0.649785 0
M  V30 21779 C 2162.91 1.27356 1.1856 0
M  V30 21780 O 2164.08 1.60253 1.21988 0
M  V30 21781 C 2161.15 2.94725 1.82587 0
M  V30 21782 C 2160.21 4.08224 1.32859 0
M  V30 21783 C 2159.44 4.74213 2.44862 0
M  V30 21784 O 2159.67 4.39321 3.63804 0
M  V30 21785 O 2158.6 5.6254 2.14086 0
M  V30 21786 H 2162.43 3.03584 0.083948 0
M  V30 21787 H 2160.01 1.4938 -0.0244329 0
M  V30 21788 H 2161.89 3.38344 2.512 0
M  V30 21789 H 2160.57 2.19495 2.37915 0
M  V30 21790 H 2159.48 3.69102 0.609468 0
M  V30 21791 H 2160.81 4.853 0.82129 0
M  V30 21792 N 2162.46 -0.0166879 1.57591 0
M  V30 21793 C 2163.41 -1.03177 2.08464 0
M  V30 21794 C 2164.4 -1.36659 1.00103 0
M  V30 21795 O 2165.61 -1.35419 1.18582 0
M  V30 21796 H 2161.98 -0.350315 0.66542 0
M  V30 21797 H 2163.95 -0.576996 2.92768 0
M  V30 21798 C 2162.7 -2.32023 2.58961 0
M  V30 21799 H 2162.03 -2.07123 3.41965 0
M  V30 21800 H 2163.47 -3.01365 2.98253 0
M  V30 21801 C 2161.93 -3.01849 1.49629 0
M  V30 21802 O 2162.46 -3.92175 0.8696 0
M  V30 21803 N 2160.66 -2.63388 1.2278 0
M  V30 21804 H 2160.21 -1.9002 1.73926 0
M  V30 21805 H 2160.17 -3.10424 0.498436 0
M  V30 21806 N 2163.94 -1.54924 -0.289176 0
M  V30 21807 C 2165.19 -1.74421 -1.02087 0
M  V30 21808 C 2165.51 -0.539388 -1.87392 0
M  V30 21809 O 2164.78 0.446105 -1.90753 0
M  V30 21810 H 2163.36 -0.643179 -0.379908 0
M  V30 21811 H 2166.02 -1.923 -0.317306 0
M  V30 21812 H 2165.12 -2.63841 -1.66716 0
M  V30 21813 N 2165.42 0.552936 -1.47582 0
M  V30 21814 C 2166.64 1.34003 -1.58297 0
M  V30 21815 C 2167.07 1.86625 -0.23511 0
M  V30 21816 O 2166.42 1.63197 0.789702 0
M  V30 21817 C 2166.47 2.48288 -2.61506 0
M  V30 21818 O 2165.58 3.50647 -2.17073 0
M  V30 21819 H 2164.92 0.397855 -0.531608 0
M  V30 21820 H 2167.45 0.667783 -1.93395 0
M  V30 21821 H 2167.46 2.94798 -2.8206 0
M  V30 21822 H 2166.13 2.09345 -3.59371 0
M  V30 21823 H 2164.71 3.10413 -2.06636 0
M  V30 21824 N 2166.89 1.35785 0.800009 0
M  V30 21825 C 2168.12 1.32363 1.5863 0
M  V30 21826 C 2168.53 -0.099518 1.88938 0
M  V30 21827 O 2167.88 -1.06381 1.49763 0
M  V30 21828 C 2167.94 2.0694 2.93966 0
M  V30 21829 C 2167.6 3.56091 2.86441 0
M  V30 21830 C 2168.6 4.50553 2.59419 0
M  V30 21831 C 2166.28 3.98831 3.05351 0
M  V30 21832 C 2168.28 5.8573 2.51394 0
M  V30 21833 C 2165.96 5.34102 2.96948 0
M  V30 21834 C 2166.96 6.27364 2.70006 0
M  V30 21835 O 2166.65 7.60153 2.61578 0
M  V30 21836 H 2166.38 0.456006 0.499033 0
M  V30 21837 H 2168.94 1.7932 1.00168 0
M  V30 21838 H 2167.17 1.5463 3.54438 0
M  V30 21839 H 2168.86 1.96511 3.55159 0
M  V30 21840 H 2169.62 4.18848 2.44522 0
M  V30 21841 H 2165.5 3.2662 3.25331 0
M  V30 21842 H 2169.04 6.58494 2.30285 0
M  V30 21843 H 2164.94 5.65418 3.11405 0
M  V30 21844 H 2165.71 7.70154 2.77137 0
M  V30 21845 N 2168.37 -1.02294 1.19891 0
M  V30 21846 C 2169.62 -1.75196 0.999463 0
M  V30 21847 C 2169.93 -1.89874 -0.469823 0
M  V30 21848 O 2171.14 -2.59806 -0.788235 0
M  V30 21849 C 2169.6 -3.15074 1.73944 0
M  V30 21850 C 2169.2 -3.0843 3.24923 0
M  V30 21851 C 2170.95 -3.9223 1.62345 0
M  V30 21852 C 2168.86 -4.43277 3.91484 0
M  V30 21853 H 2167.79 -0.656782 0.370342 0
M  V30 21854 H 2170.44 -1.14434 1.43447 0
M  V30 21855 H 2168.82 -3.76339 1.23227 0
M  V30 21856 H 2169.99 -2.5651 3.82804 0
M  V30 21857 H 2168.31 -2.44769 3.36864 0
M  V30 21858 H 2170.9 -4.91983 2.09419 0
M  V30 21859 H 2171.25 -4.1226 0.578579 0
M  V30 21860 H 2171.78 -3.37579 2.1044 0
M  V30 21861 H 2168.52 -4.28451 4.96095 0
M  V30 21862 H 2168.04 -4.95228 3.38392 0
M  V30 21863 H 2169.72 -5.12142 3.95373 0
M  V30 21864 N 2169.85 -1.00378 -1.21499 0
M  V30 21865 C 2171.1 -0.686796 -1.90817 0
M  V30 21866 C 2171.43 0.780348 -1.77832 0
M  V30 21867 O 2170.7 1.56554 -1.15418 0
M  V30 21868 C 2170.99 -1.10705 -3.42661 0
M  V30 21869 C 2170.84 -2.63355 -3.64642 0
M  V30 21870 C 2172.16 -0.668506 -4.34993 0
M  V30 21871 H 2169.28 -0.250976 -0.69295 0
M  V30 21872 H 2171.92 -1.24924 -1.43157 0
M  V30 21873 H 2170.07 -0.628496 -3.83383 0
M  V30 21874 H 2171.74 -3.18964 -3.33256 0
M  V30 21875 H 2169.99 -3.04925 -3.0855 0
M  V30 21876 H 2170.66 -2.87812 -4.71029 0
M  V30 21877 H 2173.13 -1.07972 -4.01847 0
M  V30 21878 H 2172.01 -0.990733 -5.39885 0
M  V30 21879 H 2172.27 0.430413 -4.4 0
M  V30 21880 N 2171.33 1.37038 -0.778354 0
M  V30 21881 C 2172.29 2.28529 -0.175271 0
M  V30 21882 C 2173.29 1.48328 0.62093 0
M  V30 21883 O 2174.48 1.68459 0.443548 0
M  V30 21884 C 2171.61 3.32349 0.758757 0
M  V30 21885 H 2172.81 2.83372 -0.981858 0
M  V30 21886 H 2170.36 1.46415 -0.547012 0
M  V30 21887 H 2171.09 2.82642 1.5901 0
M  V30 21888 H 2170.88 3.9164 0.189916 0
M  V30 21889 H 2172.37 4.00701 1.17594 0
M  V30 21890 N 2172.81 0.529439 1.48441 0
M  V30 21891 C 2174.05 -0.00486384 2.02799 0
M  V30 21892 C 2174.39 -1.33985 1.40576 0
M  V30 21893 O 2173.66 -1.86523 0.551326 0
M  V30 21894 C 2173.94 -0.127443 3.59874 0
M  V30 21895 C 2173.8 1.23268 4.3258 0
M  V30 21896 C 2175.12 -0.854486 4.31725 0
M  V30 21897 H 2172.24 -0.00029358 0.737 0
M  V30 21898 H 2174.88 0.686364 1.7717 0
M  V30 21899 H 2173.03 -0.716153 3.81842 0
M  V30 21900 H 2174.7 1.86245 4.22031 0
M  V30 21901 H 2172.94 1.8147 3.94019 0
M  V30 21902 H 2173.61 1.09991 5.40931 0
M  V30 21903 H 2176.09 -0.354911 4.14584 0
M  V30 21904 H 2174.97 -0.909151 5.41318 0
M  V30 21905 H 2175.23 -1.90464 3.98968 0
M  V30 21906 N 2174.29 -1.55364 0.264547 0
M  V30 21907 C 2175.56 -1.9133 -0.406489 0
M  V30 21908 C 2175.94 -1.18752 -1.74531 0
M  V30 21909 O 2175.29 -0.310831 -2.26376 0
M  V30 21910 C 2175.5 -3.44523 -0.557199 0
M  V30 21911 C 2176.85 -4.16107 -0.844973 0
M  V30 21912 O 2177.87 -3.50359 -0.642406 0
M  V30 21913 O 2176.73 -5.32438 -1.23175 0
M  V30 21914 H 2173.83 -0.796963 -0.220859 0
M  V30 21915 H 2176.37 -1.66846 0.309918 0
M  V30 21916 H 2175.14 -3.89397 0.385423 0
M  V30 21917 H 2174.77 -3.74926 -1.32348 0
M  V30 21918 N 2175.76 0.00833021 -1.57598 0
M  V30 21919 C 2177.01 0.694911 -1.90203 0
M  V30 21920 C 2177.34 1.74238 -0.864369 0
M  V30 21921 O 2176.59 1.95254 0.131976 0
M  V30 21922 C 2176.89 1.38284 -3.29564 0
M  V30 21923 C 2176.56 0.469372 -4.4845 0
M  V30 21924 C 2175.22 0.21784 -4.80707 0
M  V30 21925 C 2177.57 -0.160058 -5.20954 0
M  V30 21926 C 2174.9 -0.671554 -5.82844 0
M  V30 21927 C 2177.25 -1.03728 -6.24038 0
M  V30 21928 C 2175.92 -1.29807 -6.54757 0
M  V30 21929 H 2175.19 0.254286 -0.696003 0
M  V30 21930 H 2177.83 -0.0454086 -1.91446 0
M  V30 21931 H 2176.14 2.197 -3.24406 0
M  V30 21932 H 2177.84 1.91998 -3.52048 0
M  V30 21933 H 2174.43 0.675583 -4.23242 0
M  V30 21934 H 2178.61 0.0212698 -4.96295 0
M  V30 21935 H 2173.87 -0.881698 -6.05009 0
M  V30 21936 H 2178.04 -1.5314 -6.79353 0
M  V30 21937 H 2175.67 -1.98894 -7.3372 0
M  V30 21938 N 2177.24 1.55075 0.280956 0
M  V30 21939 C 2178.52 1.6601 1.0344 0
M  V30 21940 C 2178.9 0.521384 2.0456 0
M  V30 21941 O 2178.25 -0.479533 2.23412 0
M  V30 21942 C 2178.46 3.04889 1.69834 0
M  V30 21943 C 2179.8 3.62374 2.21292 0
M  V30 21944 O 2180.83 3.07471 1.79834 0
M  V30 21945 O 2179.69 4.5855 2.97311 0
M  V30 21946 H 2176.78 0.673927 0.479324 0
M  V30 21947 H 2179.33 1.67417 0.277446 0
M  V30 21948 H 2178.1 3.7921 0.96517 0
M  V30 21949 H 2177.72 3.07347 2.52237 0
M  V30 21950 N 2178.72 -0.545102 1.47873 0
M  V30 21951 C 2179.94 -1.33162 1.59005 0
M  V30 21952 C 2180.37 -1.86498 0.245004 0
M  V30 21953 O 2179.73 -1.63614 -0.781037 0
M  V30 21954 C 2179.78 -2.46898 2.62819 0
M  V30 21955 O 2178.88 -3.49491 2.1893 0
M  V30 21956 H 2178.22 -0.395031 0.53371 0
M  V30 21957 H 2180.75 -0.657518 1.93747 0
M  V30 21958 H 2180.76 -2.93298 2.8362 0
M  V30 21959 H 2179.44 -2.07436 3.60476 0
M  V30 21960 H 2178.01 -3.09312 2.08279 0
M  V30 21961 N 2180.2 -1.36208 -0.792797 0
M  V30 21962 C 2181.45 -1.2958 -1.5457 0
M  V30 21963 C 2181.76 0.123772 -1.95208 0
M  V30 21964 O 2182.97 0.312401 -2.69697 0
M  V30 21965 C 2181.42 -2.27331 -2.79014 0
M  V30 21966 C 2181.03 -3.74707 -2.45558 0
M  V30 21967 C 2182.77 -2.29674 -3.57002 0
M  V30 21968 C 2180.68 -4.64243 -3.66377 0
M  V30 21969 H 2179.61 -0.481506 -0.580231 0
M  V30 21970 H 2182.26 -1.61551 -0.870256 0
M  V30 21971 H 2180.64 -1.88349 -3.4834 0
M  V30 21972 H 2181.82 -4.22404 -1.84151 0
M  V30 21973 H 2180.13 -3.75106 -1.80788 0
M  V30 21974 H 2182.73 -2.93779 -4.46764 0
M  V30 21975 H 2183.07 -1.30432 -3.95339 0
M  V30 21976 H 2183.61 -2.67255 -2.94652 0
M  V30 21977 H 2180.34 -5.64534 -3.33138 0
M  V30 21978 H 2179.86 -4.21264 -4.26963 0
M  V30 21979 H 2181.54 -4.80348 -4.33446 0
M  V30 21980 N 2181.68 1.01656 -1.20431 0
M  V30 21981 C 2182.9 1.79392 -1.04084 0
M  V30 21982 C 2183.33 1.83678 0.405466 0
M  V30 21983 O 2182.68 1.27186 1.29203 0
M  V30 21984 C 2182.73 3.21706 -1.62904 0
M  V30 21985 O 2181.84 4.0319 -0.866689 0
M  V30 21986 H 2181.18 0.553315 -0.367068 0
M  V30 21987 H 2183.71 1.27864 -1.59725 0
M  V30 21988 H 2183.72 3.72418 -1.6664 0
M  V30 21989 H 2182.39 3.17901 -2.68164 0
M  V30 21990 H 2180.97 3.61788 -0.903537 0
M  V30 21991 N 2183.15 1.01021 1.20965 0
M  V30 21992 C 2184.4 0.6945 1.89792 0
M  V30 21993 C 2184.72 -0.77766 1.78822 0
M  V30 21994 O 2183.99 -1.55883 1.18648 0
M  V30 21995 H 2182.57 0.253892 0.702529 0
M  V30 21996 H 2185.23 1.28043 1.46938 0
M  V30 21997 H 2184.33 0.972254 2.9657 0
M  V30 21998 N 2184.63 -1.36623 0.78561 0
M  V30 21999 C 2186.05 -1.5262 0.466843 0
M  V30 22000 C 2186.25 -1.74044 -1.01543 0
M  V30 22001 O 2185.3 -1.76975 -1.801 0
M  V30 22002 C 2186.62 -2.71435 1.29398 0
M  V30 22003 C 2188.16 -2.85304 1.28728 0
M  V30 22004 C 2188.64 -4.07118 2.09807 0
M  V30 22005 N 2190.13 -4.14257 2.07233 0
M  V30 22006 C 2190.87 -5.0758 2.6674 0
M  V30 22007 N 2190.36 -6.06372 3.3509 0
M  V30 22008 N 2192.15 -5.00167 2.56494 0
M  V30 22009 H 2184.31 -1.20971 1.74585 0
M  V30 22010 H 2186.57 -0.590141 0.741915 0
M  V30 22011 H 2186.27 -2.62113 2.34498 0
M  V30 22012 H 2186.15 -3.65488 0.932654 0
M  V30 22013 H 2188.54 -2.94088 0.244207 0
M  V30 22014 H 2188.62 -1.92169 1.68834 0
M  V30 22015 H 2188.26 -3.99095 3.14143 0
M  V30 22016 H 2188.19 -4.99393 1.67074 0
M  V30 22017 H 2190.68 -3.43522 1.57483 0
M  V30 22018 H 2190.99 -6.74137 3.77836 0
M  V30 22019 H 2189.34 -6.06609 3.39191 0
M  V30 22020 H 2192.53 -4.21936 2.027 0
M  V30 22021 H 2192.7 -5.7271 3.03162 0
M  V30 22022 N 2186.11 -0.537304 -1.48158 0
M  V30 22023 C 2187.36 -0.00384223 -2.017 0
M  V30 22024 C 2187.67 1.34625 -1.419 0
M  V30 22025 O 2188.88 1.96849 -1.86983 0
M  V30 22026 C 2187.33 0.0435291 -3.59874 0
M  V30 22027 C 2186.94 -1.30211 -4.2866 0
M  V30 22028 C 2188.69 0.525433 -4.21236 0
M  V30 22029 C 2186.59 -1.21492 -5.78786 0
M  V30 22030 H 2185.52 0.00233368 -0.753996 0
M  V30 22031 H 2188.17 -0.682181 -1.70348 0
M  V30 22032 H 2186.56 0.7871 -3.88099 0
M  V30 22033 H 2187.73 -2.06182 -4.12099 0
M  V30 22034 H 2186.04 -1.72034 -3.79201 0
M  V30 22035 H 2188.64 0.608744 -5.31223 0
M  V30 22036 H 2188.98 1.5329 -3.8705 0
M  V30 22037 H 2189.52 -0.162674 -3.97467 0
M  V30 22038 H 2186.26 -2.19778 -6.17558 0
M  V30 22039 H 2185.78 -0.496694 -5.9774 0
M  V30 22040 H 2187.46 -0.908641 -6.40588 0
M  V30 22041 N 2187.59 1.55221 -0.272782 0
M  V30 22042 C 2188.84 1.99545 0.344667 0
M  V30 22043 C 2189.16 1.16117 1.56036 0
M  V30 22044 O 2188.42 0.218255 1.94479 0
M  V30 22045 C 2188.72 3.48938 0.773111 0
M  V30 22046 C 2188.38 4.49634 -0.337684 0
M  V30 22047 C 2187.05 4.76889 -0.642695 0
M  V30 22048 C 2189.4 5.09754 -1.0863 0
M  V30 22049 C 2186.73 5.61533 -1.69994 0
M  V30 22050 C 2189.08 5.95546 -2.13325 0
M  V30 22051 C 2187.74 6.21123 -2.44463 0
M  V30 22052 H 2187.01 0.730188 0.126123 0
M  V30 22053 H 2189.66 1.87569 -0.386008 0
M  V30 22054 H 2187.96 3.58378 1.58342 0
M  V30 22055 H 2189.66 3.80639 1.26156 0
M  V30 22056 H 2186.25 4.28506 -0.0898333 0
M  V30 22057 H 2190.43 4.88723 -0.863909 0
M  V30 22058 H 2185.69 5.79596 -1.94623 0
M  V30 22059 H 2189.86 6.41166 -2.71807 0
M  V30 22060 H 2187.49 6.86504 -3.26521 0
M  V30 22061 N 2189.07 2.77022e-05 1.576 0
M  V30 22062 C 2190.31 -0.680196 1.9169 0
M  V30 22063 C 2190.67 -1.71379 0.874463 0
M  V30 22064 O 2189.96 -1.91265 -0.113334 0
M  V30 22065 C 2190.15 -1.36534 3.30292 0
M  V30 22066 C 2189.98 -0.399626 4.47921 0
M  V30 22067 C 2188.75 -0.0100172 5.05299 0
M  V30 22068 C 2190.95 0.33415 5.13213 0
M  V30 22069 N 2188.93 0.953911 6.06444 0
M  V30 22070 C 2190.3 1.15276 6.09189 0
M  V30 22071 C 2192.36 0.397982 4.96307 0
M  V30 22072 C 2191.06 2.02939 6.90078 0
M  V30 22073 C 2193.09 1.26184 5.77782 0
M  V30 22074 C 2192.45 2.0683 6.7335 0
M  V30 22075 H 2188.55 -0.222102 0.749796 0
M  V30 22076 H 2191.13 0.0603815 1.94606 0
M  V30 22077 H 2189.3 -2.07622 3.2825 0
M  V30 22078 H 2191.04 -2.00027 3.51812 0
M  V30 22079 H 2187.79 -0.378393 4.72086 0
M  V30 22080 H 2188.22 1.43125 6.61698 0
M  V30 22081 H 2192.86 -0.211238 4.22272 0
M  V30 22082 H 2190.58 2.64928 7.63439 0
M  V30 22083 H 2194.16 1.31514 5.66741 0
M  V30 22084 H 2193.04 2.72593 7.35298 0
M  V30 22085 N 2190.54 -1.55222 -0.272728 0
M  V30 22086 C 2191.77 -1.80199 -1.02679 0
M  V30 22087 C 2192.19 -0.573583 -1.79141 0
M  V30 22088 O 2191.55 0.476818 -1.74918 0
M  V30 22089 C 2191.6 -3.02627 -1.96084 0
M  V30 22090 O 2190.7 -2.77732 -3.04858 0
M  V30 22091 H 2190.05 -0.595589 -0.293547 0
M  V30 22092 H 2192.58 -2.02366 -0.301554 0
M  V30 22093 H 2192.59 -3.31367 -2.38033 0
M  V30 22094 H 2191.26 -3.91684 -1.39844 0
M  V30 22095 H 2189.84 -2.60089 -2.67223 0
M  V30 22096 N 2192.02 0.537252 -1.4816 0
M  V30 22097 C 2193.3 1.29837 -1.46294 0
M  V30 22098 C 2193.68 2.10409 -0.17065 0
M  V30 22099 O 2193.03 2.12194 0.847709 0
M  V30 22100 C 2193.24 2.18598 -2.72058 0
M  V30 22101 C 2194.59 2.78974 -3.20092 0
M  V30 22102 O 2195.61 2.28889 -2.72925 0
M  V30 22103 O 2194.47 3.70057 -4.02144 0
M  V30 22104 H 2191.56 0.585637 -0.583916 0
M  V30 22105 H 2194.11 0.554506 -1.60385 0
M  V30 22106 H 2192.88 1.58795 -3.57631 0
M  V30 22107 H 2192.5 3.00244 -2.60651 0
M  V30 22108 N 2193.5 1.36626 0.785562 0
M  V30 22109 C 2194.46 1.3111 1.87997 0
M  V30 22110 C 2195.46 0.217987 1.59316 0
M  V30 22111 O 2196.65 0.473006 1.67655 0
M  V30 22112 C 2193.79 1.03339 3.2486 0
M  V30 22113 H 2194.98 2.28444 1.94303 0
M  V30 22114 H 2192.53 1.21455 0.983792 0
M  V30 22115 H 2193.27 0.0648002 3.24235 0
M  V30 22116 H 2193.05 1.82447 3.47067 0
M  V30 22117 H 2194.54 1.02095 4.04928 0
M  V30 22118 N 2194.98 -1.01016 1.20969 0
M  V30 22119 C 2196.21 -1.78301 1.04959 0
M  V30 22120 C 2196.62 -1.84495 -0.400883 0
M  V30 22121 O 2195.98 -1.30259 -1.27823 0
M  V30 22122 C 2196.03 -3.22459 1.63409 0
M  V30 22123 O 2195.75 -3.16632 3.0278 0
M  V30 22124 C 2197.25 -4.16266 1.52439 0
M  V30 22125 H 2194.47 -0.560515 0.368868 0
M  V30 22126 H 2197.02 -1.27113 1.60195 0
M  V30 22127 H 2195.17 -3.70773 1.12276 0
M  V30 22128 H 2195.58 -4.07164 3.30633 0
M  V30 22129 H 2197.06 -5.15233 1.98087 0
M  V30 22130 H 2197.54 -4.36592 0.477952 0
M  V30 22131 H 2198.14 -3.73838 2.02794 0
M  V30 22132 N 2196.46 -1.01661 -1.20428 0
M  V30 22133 C 2197.39 -0.545027 -2.22625 0
M  V30 22134 C 2198.4 0.372581 -1.58479 0
M  V30 22135 O 2199.59 0.170927 -1.7768 0
M  V30 22136 C 2196.69 0.22657 -3.38142 0
M  V30 22137 C 2195.86 -0.692952 -4.31876 0
M  V30 22138 C 2194.92 0.0310691 -5.26191 0
M  V30 22139 O 2193.95 -0.591442 -5.66119 0
M  V30 22140 N 2195.15 1.30591 -5.6562 0
M  V30 22141 H 2197.92 -1.42392 -2.63713 0
M  V30 22142 H 2195.48 -0.89414 -1.34969 0
M  V30 22143 H 2197.47 0.72017 -3.98241 0
M  V30 22144 H 2196.04 1.00676 -2.95944 0
M  V30 22145 H 2195.26 -1.36686 -3.69744 0
M  V30 22146 H 2196.55 -1.31833 -4.91424 0
M  V30 22147 H 2195.94 1.8326 -5.35194 0
M  V30 22148 H 2194.5 1.74424 -6.28028 0
M  V30 22149 N 2197.93 1.36205 -0.792844 0
M  V30 22150 C 2199.18 1.98756 -0.366097 0
M  V30 22151 C 2199.5 1.63233 1.06677 0
M  V30 22152 O 2198.77 0.908009 1.73586 0
M  V30 22153 H 2197.35 0.735177 -0.132377 0
M  V30 22154 H 2200.02 1.66345 -1.01564 0
M  V30 22155 H 2199.11 3.08681 -0.460692 0
M  V30 22156 N 2199.41 0.545154 1.47871 0
M  V30 22157 C 2200.36 -0.20926 2.29849 0
M  V30 22158 C 2201.33 -0.919683 1.38315 0
M  V30 22159 O 2202.51 -0.917743 1.67279 0
M  V30 22160 C 2199.65 -1.24083 3.22021 0
M  V30 22161 C 2198.77 -0.537702 4.28641 0
M  V30 22162 C 2197.9 -1.55351 5.07976 0
M  V30 22163 C 2196.94 -0.834694 6.06382 0
M  V30 22164 N 2196.08 -1.79676 6.7872 0
M  V30 22165 H 2200.92 0.495962 2.93844 0
M  V30 22166 H 2198.46 0.256415 1.44848 0
M  V30 22167 H 2200.41 -1.85137 3.73872 0
M  V30 22168 H 2199.04 -1.91424 2.59917 0
M  V30 22169 H 2198.1 0.187112 3.7994 0
M  V30 22170 H 2199.41 0.0259783 4.98793 0
M  V30 22171 H 2198.56 -2.23793 5.63916 0
M  V30 22172 H 2197.3 -2.1511 4.37697 0
M  V30 22173 H 2196.31 -0.136291 5.49631 0
M  V30 22174 H 2197.53 -0.24301 6.78665 0
M  V30 22175 H 2195.48 -2.38315 6.11181 0
M  V30 22176 H 2195.39 -1.28492 7.45001 0
M  V30 22177 H 2196.66 -2.47269 7.39242 0
M  V30 22178 N 2200.89 -1.55074 0.28101 0
M  V30 22179 C 2202.12 -2.04133 -0.337257 0
M  V30 22180 C 2202.53 -1.15915 -1.49028 0
M  V30 22181 O 2201.89 -0.180491 -1.81605 0
M  V30 22182 C 2201.94 -3.52248 -0.812644 0
M  V30 22183 O 2201.66 -4.37109 0.294464 0
M  V30 22184 C 2203.16 -4.17218 -1.49812 0
M  V30 22185 H 2200.38 -0.666665 -0.0761521 0
M  V30 22186 H 2202.93 -2.00249 0.414822 0
M  V30 22187 H 2201.08 -3.56557 -1.5148 0
M  V30 22188 H 2201.5 -5.24451 -0.0720403 0
M  V30 22189 H 2202.97 -5.22441 -1.78211 0
M  V30 22190 H 2203.45 -3.65745 -2.43161 0
M  V30 22191 H 2204.05 -4.16929 -0.839669 0
M  V30 22192 N 2202.37 -0.00838561 -1.57598 0
M  V30 22193 C 2203.62 0.670021 -1.92048 0
M  V30 22194 C 2203.97 1.70913 -0.88354 0
M  V30 22195 O 2203.26 1.91322 0.10319 0
M  V30 22196 C 2203.46 1.34781 -3.31012 0
M  V30 22197 C 2203.29 0.375866 -4.48126 0
M  V30 22198 C 2202.06 -0.0167802 -5.05297 0
M  V30 22199 C 2204.25 -0.361362 -5.13029 0
M  V30 22200 N 2202.24 -0.986059 -6.05929 0
M  V30 22201 C 2203.61 -1.18505 -6.08569 0
M  V30 22202 C 2205.66 -0.424297 -4.96089 0
M  V30 22203 C 2204.37 -2.06596 -6.88993 0
M  V30 22204 C 2206.39 -1.29246 -5.77104 0
M  V30 22205 C 2205.75 -2.10398 -6.72244 0
M  V30 22206 H 2201.85 0.218123 -0.750964 0
M  V30 22207 H 2204.44 -0.0707011 -1.94572 0
M  V30 22208 H 2202.61 2.05878 -3.29346 0
M  V30 22209 H 2204.34 1.98158 -3.52867 0
M  V30 22210 H 2201.09 0.353352 -4.7228 0
M  V30 22211 H 2201.52 -1.46632 -6.6093 0
M  V30 22212 H 2206.16 0.188841 -4.22378 0
M  V30 22213 H 2203.88 -2.68973 -7.62023 0
M  V30 22214 H 2207.46 -1.34518 -5.66036 0
M  V30 22215 H 2206.34 -2.76489 -7.33842 0
M  V30 22216 N 2203.85 1.55365 0.264492 0
M  V30 22217 C 2205.07 1.80741 1.01722 0
M  V30 22218 C 2205.5 0.583075 1.78835 0
M  V30 22219 O 2204.86 -0.467535 1.75168 0
M  V30 22220 C 2204.9 3.03663 1.94477 0
M  V30 22221 O 2204.01 2.79345 3.03381 0
M  V30 22222 H 2203.35 0.597137 0.290384 0
M  V30 22223 H 2205.88 2.02523 0.290818 0
M  V30 22224 H 2205.89 3.32625 2.36272 0
M  V30 22225 H 2204.56 3.9242 1.37765 0
M  V30 22226 H 2203.14 2.61503 2.6584 0
M  V30 22227 N 2205.33 -0.529387 1.48443 0
M  V30 22228 C 2206.29 -1.61609 1.62527 0
M  V30 22229 C 2207.29 -1.52877 0.498536 0
M  V30 22230 O 2208.48 -1.56536 0.764338 0
M  V30 22231 C 2205.61 -3.01231 1.59603 0
M  V30 22232 H 2206.8 -1.50461 2.59425 0
M  V30 22233 H 2204.36 -0.75149 1.37049 0
M  V30 22234 H 2205.09 -3.17885 0.641837 0
M  V30 22235 H 2204.88 -3.08978 2.41402 0
M  V30 22236 H 2206.37 -3.80238 1.72653 0
M  V30 22237 N 2206.8 -1.37041 -0.778305 0
M  V30 22238 C 2208.05 -1.31887 -1.53662 0
M  V30 22239 C 2208.38 0.0985962 -1.9425 0
M  V30 22240 O 2207.63 1.07038 -1.63834 0
M  V30 22241 C 2207.93 -2.19773 -2.81842 0
M  V30 22242 C 2207.6 -3.6815 -2.60338 0
M  V30 22243 C 2206.26 -4.08589 -2.54182 0
M  V30 22244 C 2208.61 -4.62179 -2.40915 0
M  V30 22245 C 2205.94 -5.41181 -2.26584 0
M  V30 22246 C 2208.29 -5.95001 -2.14842 0
M  V30 22247 C 2206.96 -6.34551 -2.07126 0
M  V30 22248 H 2206.23 -0.482608 -0.562291 0
M  V30 22249 H 2208.87 -1.69191 -0.897039 0
M  V30 22250 H 2207.18 -1.75442 -3.50325 0
M  V30 22251 H 2208.88 -2.13103 -3.39688 0
M  V30 22252 H 2205.47 -3.36076 -2.6599 0
M  V30 22253 H 2209.65 -4.31802 -2.44665 0
M  V30 22254 H 2204.91 -5.70793 -2.19101 0
M  V30 22255 H 2209.08 -6.67418 -1.9881 0
M  V30 22256 H 2206.71 -7.37219 -1.85505 0
M  V30 22257 N 2208.28 1.00373 -1.21503 0
M  V30 22258 C 2209.21 2.09341 -0.933211 0
M  V30 22259 C 2210.23 1.62583 0.084061 0
M  V30 22260 O 2211.42 1.7788 -0.148594 0
M  V30 22261 C 2208.52 3.36764 -0.379928 0
M  V30 22262 C 2207.69 4.12602 -1.45184 0
M  V30 22263 C 2206.75 5.18314 -0.907567 0
M  V30 22264 O 2205.77 5.46504 -1.59129 0
M  V30 22265 N 2206.98 5.79841 0.276547 0
M  V30 22266 H 2209.74 2.34101 -1.87128 0
M  V30 22267 H 2207.3 1.16866 -1.12045 0
M  V30 22268 H 2209.29 4.047 -0.00138601 0
M  V30 22269 H 2207.86 3.09152 0.462994 0
M  V30 22270 H 2207.08 3.39451 -2.00417 0
M  V30 22271 H 2208.37 4.60046 -2.17336 0
M  V30 22272 H 2207.77 5.59292 0.849049 0
M  V30 22273 H 2206.33 6.49064 0.596588 0
M  V30 22274 N 2209.76 1.02298 1.19887 0
M  V30 22275 C 2210.71 0.59212 2.24937 0
M  V30 22276 C 2211.7 -0.372328 1.65258 0
M  V30 22277 O 2212.91 -0.241551 1.78372 0
M  V30 22278 H 2209.28 0.173195 0.731784 0
M  V30 22279 H 2211.25 1.4889 2.58601 0
M  V30 22280 C 2210 -0.0472899 3.47668 0
M  V30 22281 H 2209.33 0.685841 3.93873 0
M  V30 22282 H 2210.77 -0.311787 4.22852 0
M  V30 22283 C 2209.22 -1.29207 3.11139 0
M  V30 22284 O 2209.75 -2.38474 3.23254 0
M  V30 22285 N 2207.96 -1.17858 2.65627 0
M  V30 22286 H 2207.51 -0.289448 2.55969 0
M  V30 22287 H 2207.47 -2.01241 2.41556 0
M  V30 22288 N 2211.24 -1.35782 0.800057 0
M  V30 22289 C 2212.49 -1.9856 0.376632 0
M  V30 22290 C 2212.81 -1.63797 -1.0581 0
M  V30 22291 O 2212.08 -0.917202 -1.73102 0
M  V30 22292 H 2210.66 -0.734465 0.136274 0
M  V30 22293 H 2213.32 -1.65804 1.02445 0
M  V30 22294 H 2212.41 -3.08432 0.477056 0
M  V30 22295 N 2212.72 -0.552988 -1.4758 0
M  V30 22296 C 2213.94 -0.0320919 -2.06875 0
M  V30 22297 C 2214.36 1.25974 -1.40627 0
M  V30 22298 O 2213.72 1.75478 -0.50138 0
M  V30 22299 C 2213.77 0.171607 -3.61092 0
M  V30 22300 O 2213.49 -1.06906 -4.24856 0
M  V30 22301 C 2214.99 0.730267 -4.37244 0
M  V30 22302 H 2212.21 -0.0439268 -0.669561 0
M  V30 22303 H 2214.75 -0.765196 -1.89644 0
M  V30 22304 H 2212.91 0.854827 -3.77851 0
M  V30 22305 H 2213.32 -0.86415 -5.17332 0
M  V30 22306 H 2214.8 0.822107 -5.45844 0
M  V30 22307 H 2215.27 1.74057 -4.03238 0
M  V30 22308 H 2215.88 0.0828795 -4.25219 0
M  V30 22309 N 2214.19 1.54923 -0.28923 0
M  V30 22310 C 2215.47 1.91952 0.375998 0
M  V30 22311 C 2215.85 1.21514 1.7262 0
M  V30 22312 O 2215.2 0.346807 2.25853 0
M  V30 22313 C 2215.41 3.45366 0.502318 0
M  V30 22314 C 2216.76 4.17399 0.778667 0
M  V30 22315 O 2217.78 3.51337 0.586585 0
M  V30 22316 O 2216.64 5.3433 1.14689 0
M  V30 22317 H 2213.73 0.800376 0.208153 0
M  V30 22318 H 2216.28 1.66332 -0.336423 0
M  V30 22319 H 2215.05 3.88735 -0.447324 0
M  V30 22320 H 2214.67 3.76985 1.26366 0
M  V30 22321 N 2215.67 0.0167433 1.57591 0
M  V30 22322 C 2217.09 -0.339529 1.55947 0
M  V30 22323 C 2217.29 -1.73711 1.02112 0
M  V30 22324 O 2216.34 -2.43658 0.662345 0
M  V30 22325 C 2217.66 -0.199446 3.00038 0
M  V30 22326 C 2219.2 -0.273139 3.11806 0
M  V30 22327 C 2219.68 -0.161988 4.57713 0
M  V30 22328 N 2221.17 -0.219363 4.6268 0
M  V30 22329 C 2221.91 -0.156954 5.73185 0
M  V30 22330 N 2221.4 -0.0441718 6.92786 0
M  V30 22331 N 2223.19 -0.210041 5.61707 0
M  V30 22332 H 2215.35 0.930792 1.90919 0
M  V30 22333 H 2217.61 0.358334 0.877668 0
M  V30 22334 H 2217.31 0.76279 3.43328 0
M  V30 22335 H 2217.19 -0.974722 3.64389 0
M  V30 22336 H 2219.58 -1.22583 2.68435 0
M  V30 22337 H 2219.66 0.5323 2.502 0
M  V30 22338 H 2219.3 0.787228 5.01762 0
M  V30 22339 H 2219.23 -0.986131 5.17284 0
M  V30 22340 H 2221.72 -0.30718 3.76649 0
M  V30 22341 H 2222.03 -0.00290485 7.728 0
M  V30 22342 H 2220.38 -0.00956241 6.94999 0
M  V30 22343 H 2223.57 -0.296464 4.6716 0
M  V30 22344 H 2223.74 -0.15794 6.47807 0
M  V30 22345 N 2217.15 -1.55503 -0.256249 0
M  V30 22346 C 2218.57 -1.47717 -0.604299 0
M  V30 22347 C 2218.77 -0.705072 -1.88762 0
M  V30 22348 O 2217.82 -0.230657 -2.51444 0
M  V30 22349 C 2219.14 -2.92058 -0.715705 0
M  V30 22350 C 2220.68 -3.02374 -0.808653 0
M  V30 22351 C 2221.16 -4.48003 -0.951698 0
M  V30 22352 N 2222.65 -4.51902 -1.0168 0
M  V30 22353 C 2223.38 -5.61819 -1.14658 0
M  V30 22354 N 2222.88 -6.81567 -1.24249 0
M  V30 22355 N 2224.67 -5.49596 -1.17901 0
M  V30 22356 H 2216.82 -2.04147 0.586327 0
M  V30 22357 H 2219.09 -0.92644 0.201031 0
M  V30 22358 H 2218.79 -3.51349 0.157089 0
M  V30 22359 H 2218.67 -3.42021 -1.59065 0
M  V30 22360 H 2221.05 -2.43169 -1.6719 0
M  V30 22361 H 2221.14 -2.55637 0.0912512 0
M  V30 22362 H 2220.78 -5.07815 -0.0930398 0
M  V30 22363 H 2220.71 -4.92412 -1.8665 0
M  V30 22364 H 2223.2 -3.65649 -0.954404 0
M  V30 22365 H 2223.51 -7.61088 -1.34033 0
M  V30 22366 H 2221.86 -6.84346 -1.21224 0
M  V30 22367 H 2225.05 -4.5498 -1.10049 0
M  V30 22368 H 2225.22 -6.35299 -1.2767 0
M  V30 22369 N 2218.63 0.521507 -1.48721 0
M  V30 22370 C 2219.87 1.27876 -1.57403 0
M  V30 22371 C 2220.21 1.92573 -0.25085 0
M  V30 22372 O 2219.48 1.79712 0.743902 0
M  V30 22373 C 2219.77 2.36159 -2.71847 0
M  V30 22374 C 2219.62 1.76098 -4.13896 0
M  V30 22375 C 2220.94 3.3787 -2.82014 0
M  V30 22376 H 2218.06 0.463571 -0.572949 0
M  V30 22377 H 2220.7 0.580088 -1.80928 0
M  V30 22378 H 2218.85 2.95752 -2.51919 0
M  V30 22379 H 2220.52 1.20491 -4.45286 0
M  V30 22380 H 2218.76 1.06594 -4.205 0
M  V30 22381 H 2219.43 2.54541 -4.89809 0
M  V30 22382 H 2221.91 2.88244 -3.00091 0
M  V30 22383 H 2220.79 4.11021 -3.63803 0
M  V30 22384 H 2221.05 3.98943 -1.90518 0
M  V30 22385 N 2220.11 1.37452 0.771027 0
M  V30 22386 C 2221.35 1.32896 1.53187 0
M  V30 22387 C 2221.69 -0.086217 1.94009 0
M  V30 22388 O 2220.96 -1.0437 1.64125 0
M  V30 22389 C 2221.24 2.26873 2.79644 0
M  V30 22390 C 2221.1 3.77173 2.45072 0
M  V30 22391 C 2222.42 2.19284 3.81579 0
M  V30 22392 H 2219.53 0.484074 0.555735 0
M  V30 22393 H 2222.18 1.68158 0.884463 0
M  V30 22394 H 2220.33 1.96932 3.34888 0
M  V30 22395 H 2222 4.17714 1.95737 0
M  V30 22396 H 2220.24 3.95707 1.7776 0
M  V30 22397 H 2220.91 4.38365 3.3547 0
M  V30 22398 H 2223.39 2.45677 3.3583 0
M  V30 22399 H 2222.26 2.87179 4.67782 0
M  V30 22400 H 2222.53 1.18599 4.25895 0
M  V30 22401 N 2221.58 -0.997276 1.22033 0
M  V30 22402 C 2222.83 -1.73619 1.04225 0
M  V30 22403 C 2223.16 -1.89839 -0.423231 0
M  V30 22404 O 2222.41 -1.43544 -1.33017 0
M  V30 22405 C 2222.71 -3.1473 1.6935 0
M  V30 22406 C 2222.38 -3.18436 3.19232 0
M  V30 22407 C 2221.04 -3.19155 3.6013 0
M  V30 22408 C 2223.39 -3.15071 4.15187 0
M  V30 22409 C 2220.72 -3.14203 4.95473 0
M  V30 22410 C 2223.07 -3.1166 5.505 0
M  V30 22411 C 2221.74 -3.10692 5.90785 0
M  V30 22412 H 2221.01 -0.635316 0.381385 0
M  V30 22413 H 2223.65 -1.16829 1.51734 0
M  V30 22414 H 2221.96 -3.74801 1.14154 0
M  V30 22415 H 2223.66 -3.70637 1.53066 0
M  V30 22416 H 2220.25 -3.18624 2.86664 0
M  V30 22417 H 2224.43 -3.13669 3.84611 0
M  V30 22418 H 2219.69 -3.11796 5.25921 0
M  V30 22419 H 2223.86 -3.08011 6.24582 0
M  V30 22420 H 2221.49 -3.0661 6.95625 0
M  V30 22421 N 2223.06 -1.02932 -1.19343 0
M  V30 22422 C 2224.34 -0.640674 -1.8481 0
M  V30 22423 C 2224.72 0.880586 -1.91856 0
M  V30 22424 O 2224.07 1.77747 -1.4359 0
M  V30 22425 C 2224.28 -1.30327 -3.23753 0
M  V30 22426 C 2225.63 -1.4268 -3.9991 0
M  V30 22427 O 2226.65 -1.26047 -3.33152 0
M  V30 22428 O 2225.51 -1.69679 -5.19491 0
M  V30 22429 H 2222.6 -0.22274 -0.79644 0
M  V30 22430 H 2225.15 -1.1275 -1.26829 0
M  V30 22431 H 2223.92 -2.34216 -3.13462 0
M  V30 22432 H 2223.54 -0.80433 -3.89379 0
M  V30 22433 N 2224.54 1.35356 -0.807246 0
M  V30 22434 C 2225.77 2.03519 -0.399345 0
M  V30 22435 C 2226.19 1.60434 0.981958 0
M  V30 22436 O 2225.55 0.781328 1.636 0
M  V30 22437 C 2225.6 3.57233 -0.491615 0
M  V30 22438 O 2224.7 4.09422 0.494682 0
M  V30 22439 H 2224.04 0.642736 -0.166693 0
M  V30 22440 H 2226.57 1.72939 -1.09331 0
M  V30 22441 H 2226.58 4.06394 -0.361659 0
M  V30 22442 H 2225.26 3.87941 -1.49914 0
M  V30 22443 H 2223.83 3.71482 0.324911 0
M  V30 22444 N 2226.02 0.560807 1.47284 0
M  V30 22445 C 2227.24 0.0410931 2.07359 0
M  V30 22446 C 2227.67 -1.2448 1.41019 0
M  V30 22447 O 2227.03 -1.74654 0.486398 0
M  V30 22448 C 2227.07 -0.134059 3.60351 0
M  V30 22449 O 2226.18 -1.1958 3.94683 0
M  V30 22450 H 2225.52 0.0529407 0.661886 0
M  V30 22451 H 2228.05 0.777515 1.89251 0
M  V30 22452 H 2228.06 -0.347136 4.06521 0
M  V30 22453 H 2226.73 0.805119 4.08033 0
M  V30 22454 H 2225.31 -0.962924 3.60253 0
M  V30 22455 N 2227.5 -1.54768 0.297442 0
M  V30 22456 C 2228.75 -1.99247 -0.313634 0
M  V30 22457 C 2229.06 -1.18945 -1.55279 0
M  V30 22458 O 2230.26 -1.53674 -2.23823 0
M  V30 22459 C 2228.72 -3.54704 -0.609345 0
M  V30 22460 C 2228.33 -4.4381 0.61127 0
M  V30 22461 C 2230.07 -4.07717 -1.18181 0
M  V30 22462 C 2227.98 -5.90694 0.288908 0
M  V30 22463 H 2226.91 -0.744233 -0.120966 0
M  V30 22464 H 2229.56 -1.78961 0.405591 0
M  V30 22465 H 2227.94 -3.70876 -1.38807 0
M  V30 22466 H 2229.12 -4.39412 1.38758 0
M  V30 22467 H 2227.43 -4.0155 1.10212 0
M  V30 22468 H 2230.03 -5.15023 -1.43718 0
M  V30 22469 H 2230.37 -3.58102 -2.12293 0
M  V30 22470 H 2230.9 -3.95074 -0.464874 0
M  V30 22471 H 2227.64 -6.4445 1.19849 0
M  V30 22472 H 2227.16 -5.98108 -0.4502 0
M  V30 22473 H 2228.84 -6.46905 -0.110819 0
M  V30 22474 N 2228.97 -0.0251005 -1.5758 0
M  V30 22475 C 2230.22 0.653733 -1.90812 0
M  V30 22476 C 2230.54 1.73521 -0.902761 0
M  V30 22477 O 2231.74 2.47041 -1.12618 0
M  V30 22478 C 2230.2 1.21403 -3.38806 0
M  V30 22479 C 2229.81 0.166047 -4.47692 0
M  V30 22480 C 2231.55 1.86961 -3.81111 0
M  V30 22481 C 2229.46 0.737752 -5.8678 0
M  V30 22482 H 2228.39 0.247944 -0.712067 0
M  V30 22483 H 2231.04 -0.0897459 -1.8328 0
M  V30 22484 H 2229.42 2.00899 -3.41256 0
M  V30 22485 H 2230.59 -0.606159 -4.56796 0
M  V30 22486 H 2228.91 -0.390539 -4.14565 0
M  V30 22487 H 2231.51 2.30683 -4.82379 0
M  V30 22488 H 2231.85 2.71066 -3.15958 0
M  V30 22489 H 2232.38 1.14161 -3.81067 0
M  V30 22490 H 2229.12 -0.0650729 -6.55468 0
M  V30 22491 H 2228.64 1.47854 -5.81291 0
M  V30 22492 H 2230.32 1.22873 -6.35225 0
M  V30 22493 N 2230.45 1.55637 0.247999 0
M  V30 22494 C 2231.38 1.9324 1.31075 0
M  V30 22495 C 2232.36 0.797201 1.50262 0
M  V30 22496 O 2233.55 1.0574 1.62889 0
M  V30 22497 C 2230.68 2.22614 2.66571 0
M  V30 22498 C 2229.63 3.38375 2.62081 0
M  V30 22499 C 2228.96 3.53288 4.01362 0
M  V30 22500 C 2230.26 4.74094 2.19163 0
M  V30 22501 H 2231.95 2.82259 0.998506 0
M  V30 22502 H 2229.5 1.35804 0.478886 0
M  V30 22503 H 2231.45 2.47509 3.41053 0
M  V30 22504 H 2230.18 1.30419 2.9943 0
M  V30 22505 H 2228.83 3.13487 1.90057 0
M  V30 22506 H 2228.48 2.58515 4.31484 0
M  V30 22507 H 2228.18 4.31134 3.99246 0
M  V30 22508 H 2229.71 3.80503 4.77546 0
M  V30 22509 H 2231.12 4.98368 2.83376 0
M  V30 22510 H 2229.52 5.55034 2.2816 0
M  V30 22511 H 2230.59 4.7123 1.14327 0
M  V30 22512 N 2231.93 -0.513613 1.48996 0
M  V30 22513 C 2233.16 -1.29285 1.61533 0
M  V30 22514 C 2233.57 -1.86685 0.281834 0
M  V30 22515 O 2232.93 -1.67217 -0.731082 0
M  V30 22516 C 2232.98 -2.4321 2.67453 0
M  V30 22517 O 2232.7 -1.88172 3.9563 0
M  V30 22518 C 2234.2 -3.3478 2.9058 0
M  V30 22519 H 2231.42 -0.392578 0.544172 0
M  V30 22520 H 2233.97 -0.617922 1.94941 0
M  V30 22521 H 2232.12 -3.06556 2.36859 0
M  V30 22522 H 2232.54 -2.62868 4.53873 0
M  V30 22523 H 2234.01 -4.11028 3.68456 0
M  V30 22524 H 2234.49 -3.91011 2.00018 0
M  V30 22525 H 2235.09 -2.77212 3.22542 0
M  V30 22526 N 2233.41 -1.37859 -0.763727 0
M  V30 22527 C 2234.32 -1.36481 -1.90814 0
M  V30 22528 C 2235.34 -0.263278 -1.71997 0
M  V30 22529 O 2236.51 -0.500013 -1.95094 0
M  V30 22530 C 2233.58 -1.1787 -3.26048 0
M  V30 22531 C 2232.64 -2.37736 -3.57463 0
M  V30 22532 C 2231.87 -2.20003 -4.86245 0
M  V30 22533 O 2232.09 -1.18846 -5.57882 0
M  V30 22534 O 2231.03 -3.0837 -5.16906 0
M  V30 22535 H 2234.85 -2.32887 -1.94929 0
M  V30 22536 H 2232.44 -1.18672 -0.907598 0
M  V30 22537 H 2234.32 -1.09511 -4.06922 0
M  V30 22538 H 2233 -0.245429 -3.22768 0
M  V30 22539 H 2231.9 -2.51668 -2.76792 0
M  V30 22540 H 2233.24 -3.29658 -3.65494 0
M  V30 22541 N 2234.89 0.990791 -1.22561 0
M  V30 22542 C 2236.12 1.76609 -1.07782 0
M  V30 22543 C 2236.53 1.85109 0.371481 0
M  V30 22544 O 2235.89 1.32276 1.25735 0
M  V30 22545 C 2235.94 3.19819 -1.68518 0
M  V30 22546 O 2235.66 3.11775 -3.07779 0
M  V30 22547 C 2237.16 4.13788 -1.59042 0
M  V30 22548 H 2234.38 0.554576 -0.377738 0
M  V30 22549 H 2236.92 1.24548 -1.62197 0
M  V30 22550 H 2235.08 3.6894 -1.18161 0
M  V30 22551 H 2235.49 4.01852 -3.37069 0
M  V30 22552 H 2236.97 5.12017 -2.06259 0
M  V30 22553 H 2237.44 4.35776 -0.547349 0
M  V30 22554 H 2238.05 3.70564 -2.08715 0
M  V30 22555 N 2236.37 1.03564 1.18795 0
M  V30 22556 C 2237.61 0.731269 1.87977 0
M  V30 22557 C 2237.93 -0.743639 1.80913 0
M  V30 22558 O 2239.13 -1.16132 2.45409 0
M  V30 22559 C 2237.59 1.25774 3.37207 0
M  V30 22560 C 2237.2 2.76092 3.52814 0
M  V30 22561 C 2238.94 1.02967 4.11823 0
M  V30 22562 C 2236.85 3.22123 4.95975 0
M  V30 22563 H 2235.78 0.269848 0.704058 0
M  V30 22564 H 2238.43 1.25081 1.34264 0
M  V30 22565 H 2236.81 0.66608 3.90358 0
M  V30 22566 H 2237.99 3.40972 3.09959 0
M  V30 22567 H 2236.3 2.97254 2.91597 0
M  V30 22568 H 2238.9 1.34878 5.17409 0
M  V30 22569 H 2239.24 -0.0332814 4.16287 0
M  V30 22570 H 2239.77 1.58569 3.6483 0
M  V30 22571 H 2236.51 4.27777 4.96676 0
M  V30 22572 H 2236.03 2.61975 5.39564 0
M  V30 22573 H 2237.71 3.15854 5.64664 0
M  V30 22574 N 2237.84 -1.34926 0.814413 0
M  V30 22575 C 2238.81 -2.27984 0.235799 0
M  V30 22576 C 2239.81 -1.49922 -0.581385 0
M  V30 22577 O 2241 -1.69575 -0.398728 0
M  V30 22578 C 2238.13 -3.34244 -0.670374 0
M  V30 22579 H 2239.32 -2.80669 1.05664 0
M  V30 22580 H 2236.87 -1.44914 0.585639 0
M  V30 22581 H 2237.61 -2.86758 -1.51461 0
M  V30 22582 H 2237.39 -3.92006 -0.0860133 0
M  V30 22583 H 2238.88 -4.03678 -1.06928 0
M  V30 22584 N 2239.32 -0.56861 -1.46985 0
M  V30 22585 C 2240.57 -0.0466248 -2.01646 0
M  V30 22586 C 2240.88 1.31584 -1.44723 0
M  V30 22587 O 2242.09 1.92838 -1.91117 0
M  V30 22588 C 2240.55 -0.0328152 -3.59885 0
M  V30 22589 C 2240.15 -1.39274 -4.25801 0
M  V30 22590 C 2241.9 0.435964 -4.22255 0
M  V30 22591 C 2239.8 -1.33742 -5.76079 0
M  V30 22592 H 2238.73 -0.0136602 -0.753876 0
M  V30 22593 H 2241.39 -0.718161 -1.68863 0
M  V30 22594 H 2239.77 0.704601 -3.89681 0
M  V30 22595 H 2240.94 -2.14877 -4.07633 0
M  V30 22596 H 2239.26 -1.80038 -3.75467 0
M  V30 22597 H 2241.85 0.495926 -5.32395 0
M  V30 22598 H 2242.2 1.45046 -3.90214 0
M  V30 22599 H 2242.73 -0.246947 -3.97033 0
M  V30 22600 H 2239.47 -2.32827 -6.12757 0
M  V30 22601 H 2238.99 -0.623372 -5.96552 0
M  V30 22602 H 2240.67 -1.04431 -6.38516 0
M  V30 22603 N 2240.8 1.54608 -0.305646 0
M  V30 22604 C 2242.08 1.9234 0.355618 0
M  V30 22605 C 2242.46 1.23338 1.71321 0
M  V30 22606 O 2241.8 0.370742 2.25472 0
M  V30 22607 C 2242.01 3.45879 0.465659 0
M  V30 22608 C 2243.36 4.18201 0.734353 0
M  V30 22609 O 2244.39 3.51939 0.549288 0
M  V30 22610 O 2243.25 5.35517 1.09015 0
M  V30 22611 H 2240.34 0.802539 0.199652 0
M  V30 22612 H 2242.89 1.65966 -0.354046 0
M  V30 22613 H 2241.66 3.88238 -0.488529 0
M  V30 22614 H 2241.28 3.78304 1.22361 0
M  V30 22615 N 2242.28 0.033457 1.57564 0
M  V30 22616 C 2243.52 -0.639383 1.93089 0
M  V30 22617 C 2243.88 -1.69486 0.910619 0
M  V30 22618 O 2243.17 -1.91462 -0.0727388 0
M  V30 22619 C 2243.37 -1.29498 3.33114 0
M  V30 22620 C 2243.19 -0.304526 4.48668 0
M  V30 22621 C 2241.96 0.0971665 5.05207 0
M  V30 22622 C 2244.16 0.442935 5.12389 0
M  V30 22623 N 2242.14 1.08233 6.04284 0
M  V30 22624 C 2243.52 1.28172 6.06607 0
M  V30 22625 C 2245.57 0.503167 4.95351 0
M  V30 22626 C 2244.27 2.17531 6.85619 0
M  V30 22627 C 2246.3 1.38411 5.74975 0
M  V30 22628 C 2245.66 2.21066 6.68812 0
M  V30 22629 H 2241.76 -0.206148 0.754339 0
M  V30 22630 H 2244.34 0.101647 1.94434 0
M  V30 22631 H 2242.52 -2.00612 3.3258 0
M  V30 22632 H 2244.25 -1.92519 3.55975 0
M  V30 22633 H 2241 -0.278171 4.72782 0
M  V30 22634 H 2241.43 1.57128 6.58513 0
M  V30 22635 H 2246.07 -0.12162 4.22625 0
M  V30 22636 H 2243.79 2.81063 7.57647 0
M  V30 22637 H 2247.37 1.43506 5.63824 0
M  V30 22638 H 2246.25 2.88129 7.2935 0
M  V30 22639 N 2243.76 -1.55766 -0.239741 0
M  V30 22640 C 2245 -1.78196 -0.968202 0
M  V30 22641 C 2245.33 -0.599971 -1.847 0
M  V30 22642 O 2244.61 0.401491 -1.90311 0
M  V30 22643 C 2244.89 -3.10567 -1.82264 0
M  V30 22644 C 2244.75 -4.39182 -0.971555 0
M  V30 22645 C 2246.06 -3.39226 -2.80382 0
M  V30 22646 H 2243.18 -0.648287 -0.350561 0
M  V30 22647 H 2245.83 -1.88501 -0.238226 0
M  V30 22648 H 2243.98 -3.01913 -2.44501 0
M  V30 22649 H 2245.65 -4.59835 -0.367327 0
M  V30 22650 H 2243.89 -4.3292 -0.2762 0
M  V30 22651 H 2244.56 -5.28201 -1.60337 0
M  V30 22652 H 2247.04 -3.47889 -2.28281 0
M  V30 22653 H 2245.91 -4.3305 -3.37282 0
M  V30 22654 H 2246.17 -2.60491 -3.57207 0
M  V30 22655 N 2245.23 0.505704 -1.49266 0
M  V30 22656 C 2246.48 1.25764 -1.58202 0
M  V30 22657 C 2246.8 1.93142 -0.268516 0
M  V30 22658 O 2246.07 1.82511 0.711801 0
M  V30 22659 H 2244.65 0.467181 -0.582881 0
M  V30 22660 H 2247.31 0.586492 -1.85866 0
M  V30 22661 H 2246.41 2.02407 -2.37566 0
M  V30 22662 N 2246.71 1.38262 0.756405 0
M  V30 22663 C 2248.13 1.19397 1.05908 0
M  V30 22664 C 2248.33 0.0406921 2.01459 0
M  V30 22665 O 2247.38 -0.614424 2.4491 0
M  V30 22666 C 2248.7 2.51919 1.64187 0
M  V30 22667 C 2250.25 2.58577 1.76371 0
M  V30 22668 C 2250.72 3.91268 2.38062 0
M  V30 22669 N 2252.21 3.92793 2.45496 0
M  V30 22670 C 2252.95 4.92222 2.94117 0
M  V30 22671 N 2252.44 6.02049 3.42795 0
M  V30 22672 N 2254.24 4.79615 2.93131 0
M  V30 22673 H 2246.39 2.12048 0.122276 0
M  V30 22674 H 2248.65 0.940768 0.116875 0
M  V30 22675 H 2248.36 3.36752 1.01445 0
M  V30 22676 H 2248.23 2.70112 2.63285 0
M  V30 22677 H 2250.62 1.74142 2.38241 0
M  V30 22678 H 2250.7 2.44254 0.759851 0
M  V30 22679 H 2250.34 4.76125 1.76827 0
M  V30 22680 H 2250.27 4.02901 3.39084 0
M  V30 22681 H 2252.76 3.13465 2.11065 0
M  V30 22682 H 2253.08 6.73852 3.78342 0
M  V30 22683 H 2251.42 6.05673 3.40859 0
M  V30 22684 H 2254.61 3.92928 2.54412 0
M  V30 22685 H 2254.78 5.57256 3.30712 0
M  V30 22686 N 2248.19 -0.984277 1.23084 0
M  V30 22687 C 2249.14 -2.09721 1.00597 0
M  V30 22688 C 2250.13 -1.69315 -0.0537716 0
M  V30 22689 O 2251.34 -1.79725 0.0994035 0
M  V30 22690 H 2247.71 -0.685951 0.308182 0
M  V30 22691 H 2249.68 -2.25857 1.95016 0
M  V30 22692 C 2248.43 -3.42313 0.609661 0
M  V30 22693 H 2247.76 -3.73853 1.41682 0
M  V30 22694 H 2249.2 -4.21138 0.4918 0
M  V30 22695 C 2247.66 -3.29931 -0.681687 0
M  V30 22696 O 2248.19 -3.62449 -1.73186 0
M  V30 22697 N 2246.39 -2.83096 -0.656128 0
M  V30 22698 H 2245.94 -2.56832 0.198804 0
M  V30 22699 H 2245.9 -2.75193 -1.5204 0
M  V30 22700 N 2249.67 -1.04192 -1.18244 0
M  V30 22701 C 2250.6 -0.654953 -2.24126 0
M  V30 22702 C 2251.58 0.342422 -1.66618 0
M  V30 22703 O 2252.76 0.222243 -1.92924 0
M  V30 22704 C 2249.89 -0.0184367 -3.47295 0
M  V30 22705 C 2248.85 -0.939488 -4.17562 0
M  V30 22706 C 2248.17 -0.16738 -5.34438 0
M  V30 22707 C 2249.47 -2.25916 -4.70913 0
M  V30 22708 H 2251.17 -1.54012 -2.5675 0
M  V30 22709 H 2248.71 -0.741971 -1.23413 0
M  V30 22710 H 2250.67 0.264009 -4.20572 0
M  V30 22711 H 2249.39 0.901609 -3.13909 0
M  V30 22712 H 2248.05 -1.20634 -3.46184 0
M  V30 22713 H 2247.7 0.755112 -4.973 0
M  V30 22714 H 2247.4 -0.781003 -5.82387 0
M  V30 22715 H 2248.92 0.108018 -6.10504 0
M  V30 22716 H 2250.34 -2.03733 -5.35879 0
M  V30 22717 H 2248.73 -2.82586 -5.29401 0
M  V30 22718 H 2249.8 -2.90477 -3.88267 0
M  V30 22719 N 2251.15 1.34492 -0.821557 0
M  V30 22720 C 2252.38 2.02259 -0.421308 0
M  V30 22721 C 2252.78 1.62022 0.977018 0
M  V30 22722 O 2252.13 0.820732 1.64346 0
M  V30 22723 C 2252.19 3.56768 -0.442373 0
M  V30 22724 C 2251.85 4.20324 -1.7938 0
M  V30 22725 C 2252.85 4.40939 -2.75443 0
M  V30 22726 C 2250.54 4.57124 -2.0819 0
M  V30 22727 C 2252.53 4.97477 -3.98491 0
M  V30 22728 C 2250.22 5.13373 -3.31498 0
M  V30 22729 C 2251.21 5.33494 -4.26466 0
M  V30 22730 O 2250.9 5.88553 -5.47596 0
M  V30 22731 H 2250.63 0.654924 -0.167484 0
M  V30 22732 H 2253.19 1.72775 -1.11076 0
M  V30 22733 H 2251.42 3.85505 0.303769 0
M  V30 22734 H 2253.11 4.05852 -0.0623638 0
M  V30 22735 H 2253.87 4.12874 -2.5448 0
M  V30 22736 H 2249.75 4.40768 -1.35074 0
M  V30 22737 H 2253.3 5.13098 -4.72627 0
M  V30 22738 H 2249.19 5.40867 -3.52325 0
M  V30 22739 H 2249.96 6.06988 -5.49097 0
M  V30 22740 N 2252.62 0.576397 1.46681 0
M  V30 22741 C 2253.87 0.0679662 2.03286 0
M  V30 22742 C 2254.23 -1.27527 1.44065 0
M  V30 22743 O 2253.52 -1.8216 0.594005 0
M  V30 22744 C 2253.71 -0.0628232 3.57345 0
M  V30 22745 C 2253.54 1.26618 4.31507 0
M  V30 22746 C 2252.31 1.83864 4.70661 0
M  V30 22747 C 2254.51 2.18791 4.6544 0
M  V30 22748 N 2252.49 3.1057 5.29546 0
M  V30 22749 C 2253.86 3.30082 5.2483 0
M  V30 22750 C 2255.92 2.18549 4.47371 0
M  V30 22751 C 2254.62 4.41254 5.68056 0
M  V30 22752 C 2256.65 3.28747 4.91609 0
M  V30 22753 C 2256.01 4.38758 5.51063 0
M  V30 22754 H 2252.11 0.0674973 0.779082 0
M  V30 22755 H 2254.69 0.767908 1.78917 0
M  V30 22756 H 2252.86 -0.731921 3.81441 0
M  V30 22757 H 2254.59 -0.575063 4.00593 0
M  V30 22758 H 2251.35 1.37432 4.53221 0
M  V30 22759 H 2251.77 3.75205 5.63516 0
M  V30 22760 H 2256.42 1.34772 4.00745 0
M  V30 22761 H 2254.13 5.25779 6.13663 0
M  V30 22762 H 2257.72 3.29671 4.79383 0
M  V30 22763 H 2256.6 5.22621 5.84668 0
M  V30 22764 N 2254.1 -1.54444 0.313841 0
M  V30 22765 C 2255.33 -2.04802 -0.293882 0
M  V30 22766 C 2255.75 -1.1905 -1.46535 0
M  V30 22767 O 2255.1 -0.218971 -1.81182 0
M  V30 22768 C 2255.15 -3.53892 -0.737744 0
M  V30 22769 O 2254.87 -4.36386 0.387115 0
M  V30 22770 C 2256.38 -4.20302 -1.40929 0
M  V30 22771 H 2253.6 -0.66813 -0.061994 0
M  V30 22772 H 2256.14 -1.99324 0.457205 0
M  V30 22773 H 2254.29 -3.5969 -1.43883 0
M  V30 22774 H 2254.71 -5.24485 0.0392196 0
M  V30 22775 H 2256.18 -5.26104 -1.67089 0
M  V30 22776 H 2256.66 -3.7082 -2.35348 0
M  V30 22777 H 2257.27 -4.18616 -0.751043 0
M  V30 22778 N 2255.58 -0.0418125 -1.57545 0
M  V30 22779 C 2256.86 0.673401 -1.83643 0
M  V30 22780 C 2257.24 1.89592 -0.928331 0
M  V30 22781 O 2256.59 2.28496 0.0129553 0
M  V30 22782 C 2256.8 1.03958 -3.33157 0
M  V30 22783 C 2258.14 1.42585 -3.99943 0
M  V30 22784 O 2259.17 1.1322 -3.37727 0
M  V30 22785 O 2258.03 1.97351 -5.09622 0
M  V30 22786 H 2255.12 0.331519 -0.757644 0
M  V30 22787 H 2257.67 -0.0704628 -1.69554 0
M  V30 22788 H 2256.44 0.170029 -3.9093 0
M  V30 22789 H 2256.06 1.8412 -3.524 0
M  V30 22790 N 2257.06 1.55891 0.231477 0
M  V30 22791 C 2258.29 1.8225 0.97306 0
M  V30 22792 C 2258.7 0.617359 1.78844 0
M  V30 22793 O 2258.04 -0.423468 1.78752 0
M  V30 22794 C 2258.1 3.02195 1.94727 0
M  V30 22795 C 2257.77 4.37601 1.31735 0
M  V30 22796 C 2258.76 5.14999 0.712147 0
M  V30 22797 C 2256.45 4.84315 1.33209 0
M  V30 22798 C 2258.44 6.37267 0.130083 0
M  V30 22799 C 2256.13 6.06527 0.746179 0
M  V30 22800 C 2257.13 6.82843 0.146217 0
M  V30 22801 O 2256.81 8.02746 -0.430606 0
M  V30 22802 H 2256.55 0.610046 0.29124 0
M  V30 22803 H 2259.1 2.03812 0.254879 0
M  V30 22804 H 2257.33 2.76426 2.70417 0
M  V30 22805 H 2259.02 3.15512 2.55356 0
M  V30 22806 H 2259.79 4.80021 0.693156 0
M  V30 22807 H 2255.66 4.24894 1.78846 0
M  V30 22808 H 2259.21 6.96777 -0.338832 0
M  V30 22809 H 2255.11 6.4098 0.76255 0
M  V30 22810 H 2255.87 8.17859 -0.323962 0
M  V30 22811 N 2258.54 -0.497781 1.49532 0
M  V30 22812 C 2259.5 -1.58125 1.65919 0
M  V30 22813 C 2260.5 -1.51785 0.530851 0
M  V30 22814 O 2261.69 -1.54879 0.79737 0
M  V30 22815 C 2258.82 -2.97777 1.65956 0
M  V30 22816 H 2260.01 -1.44924 2.62559 0
M  V30 22817 H 2257.57 -0.722251 1.38612 0
M  V30 22818 H 2258.3 -3.16452 0.70912 0
M  V30 22819 H 2258.09 -3.03788 2.47902 0
M  V30 22820 H 2259.58 -3.7649 1.80679 0
M  V30 22821 N 2260.01 -1.38661 -0.749062 0
M  V30 22822 C 2260.94 -1.38976 -1.87637 0
M  V30 22823 C 2261.93 -0.255034 -1.68177 0
M  V30 22824 O 2263.11 -0.458787 -1.88703 0
M  V30 22825 C 2260.24 -1.21857 -3.2522 0
M  V30 22826 C 2259.19 -2.32581 -3.59291 0
M  V30 22827 C 2258.52 -2.00563 -4.9566 0
M  V30 22828 C 2259.82 -3.74857 -3.63703 0
M  V30 22829 H 2261.51 -2.33313 -1.87631 0
M  V30 22830 H 2259.06 -1.12305 -0.90131 0
M  V30 22831 H 2261.01 -1.20702 -4.03744 0
M  V30 22832 H 2259.74 -0.239832 -3.25718 0
M  V30 22833 H 2258.4 -2.3293 -2.83089 0
M  V30 22834 H 2258.04 -1.01162 -4.92722 0
M  V30 22835 H 2257.74 -2.74723 -5.19424 0
M  V30 22836 H 2259.27 -2.01034 -5.76557 0
M  V30 22837 H 2260.68 -3.76514 -4.32331 0
M  V30 22838 H 2259.08 -4.48259 -3.98978 0
M  V30 22839 H 2260.15 -4.06846 -2.63826 0
M  V30 22840 N 2261.49 0.977736 -1.23605 0
M  V30 22841 C 2262.4 2.10468 -1.03636 0
M  V30 22842 C 2263.42 1.73989 0.0199129 0
M  V30 22843 O 2264.6 2.00629 -0.176112 0
M  V30 22844 C 2261.66 3.40876 -0.63282 0
M  V30 22845 C 2260.72 3.91364 -1.76444 0
M  V30 22846 C 2259.95 5.15548 -1.38006 0
M  V30 22847 O 2260.18 5.69782 -0.265457 0
M  V30 22848 O 2259.11 5.6017 -2.2021 0
M  V30 22849 H 2262.94 2.30204 -1.9809 0
M  V30 22850 H 2260.52 1.08849 -1.02334 0
M  V30 22851 H 2262.4 4.19313 -0.418834 0
M  V30 22852 H 2261.08 3.22463 0.282697 0
M  V30 22853 H 2259.99 3.14032 -2.03309 0
M  V30 22854 H 2261.32 4.14236 -2.65837 0
M  V30 22855 N 2262.97 1.04818 1.1769 0
M  V30 22856 C 2264.2 0.776288 1.91785 0
M  V30 22857 C 2264.61 -0.667546 1.76605 0
M  V30 22858 O 2263.97 -1.45571 1.1007 0
M  V30 22859 C 2264.02 1.14269 3.42965 0
M  V30 22860 O 2263.74 2.52984 3.57674 0
M  V30 22861 C 2265.24 0.896388 4.34143 0
M  V30 22862 H 2262.46 0.28253 0.60862 0
M  V30 22863 H 2265.01 1.39785 1.49266 0
M  V30 22864 H 2263.16 0.565942 3.83244 0
M  V30 22865 H 2263.58 2.67236 4.51315 0
M  V30 22866 H 2265.05 1.20254 5.38742 0
M  V30 22867 H 2265.53 -0.168559 4.38876 0
M  V30 22868 H 2266.13 1.45679 3.99572 0
M  V30 22869 N 2264.45 -1.34055 0.828678 0
M  V30 22870 C 2265.7 -1.97366 0.415863 0
M  V30 22871 C 2266.01 -1.66412 -1.02793 0
M  V30 22872 O 2267.22 -2.23258 -1.54493 0
M  V30 22873 C 2265.67 -3.53172 0.692663 0
M  V30 22874 C 2265.28 -3.93013 2.15045 0
M  V30 22875 C 2267.03 -4.23085 0.346296 0
M  V30 22876 C 2264.93 -5.41754 2.37184 0
M  V30 22877 H 2263.86 -0.738568 0.151768 0
M  V30 22878 H 2266.51 -1.52817 1.01584 0
M  V30 22879 H 2264.9 -3.95994 0.022446 0
M  V30 22880 H 2266.07 -3.6128 2.8603 0
M  V30 22881 H 2264.38 -3.36053 2.45881 0
M  V30 22882 H 2266.98 -5.32455 0.489464 0
M  V30 22883 H 2267.32 -4.10205 -0.70977 0
M  V30 22884 H 2267.86 -3.85759 0.971326 0
M  V30 22885 H 2264.6 -5.59627 3.41317 0
M  V30 22886 H 2264.12 -5.74983 1.70749 0
M  V30 22887 H 2265.8 -6.0851 2.19829 0
M  V30 22888 N 2265.93 -0.584167 -1.46374 0
M  V30 22889 C 2266.84 0.150686 -2.34116 0
M  V30 22890 C 2267.85 0.884541 -1.4984 0
M  V30 22891 O 2269.03 0.847397 -1.82705 0
M  V30 22892 C 2266.09 1.15056 -3.27052 0
M  V30 22893 C 2265.16 0.421218 -4.27229 0
M  V30 22894 C 2264.39 1.37346 -5.15725 0
M  V30 22895 O 2264.61 2.61006 -5.07181 0
M  V30 22896 O 2263.55 0.88325 -5.95384 0
M  V30 22897 H 2267.37 -0.56976 -2.98308 0
M  V30 22898 H 2264.96 -0.34456 -1.45372 0
M  V30 22899 H 2266.84 1.72705 -3.84384 0
M  V30 22900 H 2265.51 1.85245 -2.65454 0
M  V30 22901 H 2264.42 -0.197151 -3.7358 0
M  V30 22902 H 2265.75 -0.239727 -4.91616 0
M  V30 22903 N 2267.41 1.54275 -0.322027 0
M  V30 22904 C 2268.65 2.00838 0.281425 0
M  V30 22905 C 2268.98 1.20987 1.51907 0
M  V30 22906 O 2268.26 0.291767 1.92299 0
M  V30 22907 C 2268.54 3.54773 0.6171 0
M  V30 22908 C 2268.4 4.4535 -0.631143 0
M  V30 22909 C 2269.71 4.16036 1.43535 0
M  V30 22910 H 2266.83 0.730072 0.100813 0
M  V30 22911 H 2269.48 1.84875 -0.4383 0
M  V30 22912 H 2267.63 3.68506 1.23027 0
M  V30 22913 H 2269.3 4.4349 -1.26942 0
M  V30 22914 H 2267.54 4.15088 -1.26032 0
M  V30 22915 H 2268.21 5.50878 -0.351832 0
M  V30 22916 H 2270.69 4.05868 0.917063 0
M  V30 22917 H 2269.56 5.23859 1.63898 0
M  V30 22918 H 2269.82 3.69262 2.43101 0
M  V30 22919 N 2268.88 0.0501669 1.5752 0
M  V30 22920 C 2270.11 -0.636962 1.97377 0
M  V30 22921 C 2270.53 -1.63643 0.927495 0
M  V30 22922 O 2269.89 -1.8097 -0.109378 0
M  V30 22923 C 2269.94 -1.30117 3.36306 0
M  V30 22924 O 2269.04 -2.41683 3.3416 0
M  V30 22925 H 2268.38 -0.165667 0.643001 0
M  V30 22926 H 2270.91 0.118269 2.04258 0
M  V30 22927 H 2270.92 -1.65309 3.73011 0
M  V30 22928 H 2269.6 -0.568673 4.11994 0
M  V30 22929 H 2268.18 -2.08446 3.092 0
M  V30 22930 N 2270.36 -1.56011 -0.223207 0
M  V30 22931 C 2271.31 -1.9228 -1.2766 0
M  V30 22932 C 2272.28 -0.779789 -1.46658 0
M  V30 22933 O 2273.46 -1.03554 -1.60254 0
M  V30 22934 C 2270.6 -2.24343 -2.6223 0
M  V30 22935 C 2269.72 -3.51569 -2.51045 0
M  V30 22936 C 2268.85 -3.73087 -3.78126 0
M  V30 22937 C 2267.89 -4.93833 -3.61657 0
M  V30 22938 N 2267.03 -5.11749 -4.80684 0
M  V30 22939 H 2271.87 -2.82103 -0.960308 0
M  V30 22940 H 2269.4 -1.39628 -0.462876 0
M  V30 22941 H 2271.36 -2.40942 -3.40592 0
M  V30 22942 H 2269.99 -1.37695 -2.91959 0
M  V30 22943 H 2269.04 -3.43172 -1.64126 0
M  V30 22944 H 2270.36 -4.40083 -2.34795 0
M  V30 22945 H 2269.51 -3.89774 -4.64931 0
M  V30 22946 H 2268.25 -2.82851 -3.97299 0
M  V30 22947 H 2267.25 -4.77098 -2.73236 0
M  V30 22948 H 2268.48 -5.85552 -3.43956 0
M  V30 22949 H 2266.43 -4.24455 -5.00174 0
M  V30 22950 H 2266.34 -5.94393 -4.67155 0
M  V30 22951 H 2267.61 -5.3287 -5.6892 0
M  V30 22952 N 2271.84 0.489844 -1.49794 0
M  V30 22953 C 2273.09 1.23992 -1.59088 0
M  V30 22954 C 2273.4 1.93469 -0.287941 0
M  V30 22955 O 2274.61 2.70256 -0.259554 0
M  V30 22956 C 2273.06 2.25195 -2.8074 0
M  V30 22957 C 2272.67 1.61607 -4.17836 0
M  V30 22958 C 2274.42 3.00962 -2.9937 0
M  V30 22959 C 2272.32 2.60987 -5.30698 0
M  V30 22960 H 2271.25 0.466478 -0.59238 0
M  V30 22961 H 2273.9 0.512489 -1.76198 0
M  V30 22962 H 2272.29 3.0115 -2.57148 0
M  V30 22963 H 2273.46 0.915695 -4.5161 0
M  V30 22964 H 2271.77 0.981905 -4.04657 0
M  V30 22965 H 2274.37 3.75302 -3.80858 0
M  V30 22966 H 2274.71 3.5924 -2.10362 0
M  V30 22967 H 2275.25 2.32122 -3.23054 0
M  V30 22968 H 2271.99 2.07474 -6.218 0
M  V30 22969 H 2271.51 3.29231 -5.01365 0
M  V30 22970 H 2273.19 3.23193 -5.60496 0
M  V30 22971 N 2273.32 1.39056 0.741698 0
M  V30 22972 C 2274.59 1.26428 1.49249 0
M  V30 22973 C 2274.97 -0.129107 2.10705 0
M  V30 22974 O 2274.32 -1.13973 1.98047 0
M  V30 22975 C 2274.53 2.38352 2.5493 0
M  V30 22976 C 2275.88 2.77349 3.21501 0
M  V30 22977 O 2276.9 2.37752 2.6524 0
M  V30 22978 O 2275.76 3.45672 4.23288 0
M  V30 22979 H 2272.86 0.495075 0.662442 0
M  V30 22980 H 2275.4 1.50913 0.776094 0
M  V30 22981 H 2274.18 3.31532 2.07851 0
M  V30 22982 H 2273.8 2.15495 3.34137 0
M  V30 22983 N 2274.8 -0.971167 1.24121 0
M  V30 22984 C 2276.04 -1.7103 1.07671 0
M  V30 22985 C 2276.36 -1.91146 -0.385764 0
M  V30 22986 O 2275.63 -1.48673 -1.27567 0
M  V30 22987 H 2274.21 -0.633748 0.39544 0
M  V30 22988 H 2276.88 -1.16852 1.55986 0
M  V30 22989 H 2275.97 -2.69619 1.572 0
M  V30 22990 N 2276.27 -1.05441 -1.17133 0
M  V30 22991 C 2277.5 -0.786429 -1.91912 0
M  V30 22992 C 2277.92 0.652203 -1.76431 0
M  V30 22993 O 2277.28 1.45343 -1.08375 0
M  V30 22994 C 2277.33 -1.17503 -3.40918 0
M  V30 22995 O 2276.43 -0.308661 -4.11243 0
M  V30 22996 H 2275.78 -0.288168 -0.59821 0
M  V30 22997 H 2278.31 -1.40792 -1.48454 0
M  V30 22998 H 2278.32 -1.14287 -3.91666 0
M  V30 22999 H 2276.99 -2.22298 -3.51506 0
M  V30 23000 H 2275.57 -0.401635 -3.70731 0
M  V30 23001 N 2277.75 1.33613 -0.835776 0
M  V30 23002 C 2278.7 2.26745 -0.238896 0
M  V30 23003 C 2279.69 1.4912 0.604317 0
M  V30 23004 O 2280.88 1.71004 0.456792 0
M  V30 23005 C 2278.01 3.38233 0.587665 0
M  V30 23006 C 2277.09 4.23259 -0.266886 0
M  V30 23007 N 2277.48 4.87614 -1.34411 0
M  V30 23008 C 2275.78 4.45968 -0.0533915 0
M  V30 23009 C 2276.48 5.50881 -1.86828 0
M  V30 23010 N 2275.46 5.30855 -1.17022 0
M  V30 23011 H 2279.26 2.74014 -1.06271 0
M  V30 23012 H 2276.78 1.47482 -0.679907 0
M  V30 23013 H 2278.77 4.03937 1.03154 0
M  V30 23014 H 2277.43 2.92512 1.40949 0
M  V30 23015 H 2278.44 4.88258 -1.72699 0
M  V30 23016 H 2275.12 4.10975 0.73524 0
M  V30 23017 H 2276.51 6.12135 -2.77021 0
M  V30 23018 N 2279.23 0.591922 1.46062 0
M  V30 23019 C 2280.65 0.254316 1.57561 0
M  V30 23020 C 2280.85 -1.24333 1.58567 0
M  V30 23021 O 2279.9 -2.02556 1.50756 0
M  V30 23022 C 2281.22 0.911662 2.86547 0
M  V30 23023 C 2282.76 0.886112 3.00195 0
M  V30 23024 C 2283.24 1.52317 4.3193 0
M  V30 23025 N 2284.73 1.48794 4.38651 0
M  V30 23026 C 2285.46 1.95016 5.39218 0
M  V30 23027 N 2284.96 2.49253 6.46409 0
M  V30 23028 N 2286.75 1.85877 5.30477 0
M  V30 23029 H 2278.9 1.56454 1.43652 0
M  V30 23030 H 2281.17 0.65449 0.685819 0
M  V30 23031 H 2280.87 1.96556 2.91648 0
M  V30 23032 H 2280.75 0.425434 3.74793 0
M  V30 23033 H 2283.13 -0.159195 2.9467 0
M  V30 23034 H 2283.22 1.41045 2.13401 0
M  V30 23035 H 2282.86 2.56773 4.38213 0
M  V30 23036 H 2282.79 0.973982 5.17514 0
M  V30 23037 H 2285.28 1.09157 3.61792 0
M  V30 23038 H 2285.59 2.82356 7.19371 0
M  V30 23039 H 2283.94 2.53283 6.47204 0
M  V30 23040 H 2287.13 1.43256 4.4564 0
M  V30 23041 H 2287.3 2.22215 6.08707 0
M  V30 23042 N 2280.71 -1.54102 0.330204 0
M  V30 23043 C 2281.94 -2.05102 -0.272143 0
M  V30 23044 C 2282.35 -1.20597 -1.45264 0
M  V30 23045 O 2281.71 -0.238175 -1.80939 0
M  V30 23046 C 2281.76 -3.54655 -0.700168 0
M  V30 23047 O 2281.48 -4.35951 0.433378 0
M  V30 23048 C 2282.98 -4.21773 -1.36463 0
M  V30 23049 H 2280.2 -0.66875 -0.0549041 0
M  V30 23050 H 2282.75 -1.98827 0.47832 0
M  V30 23051 H 2280.9 -3.61195 -1.40059 0
M  V30 23052 H 2281.31 -5.24414 0.0948461 0
M  V30 23053 H 2282.79 -5.27846 -1.615 0
M  V30 23054 H 2283.27 -3.73296 -2.31402 0
M  V30 23055 H 2283.87 -4.19389 -0.706601 0
M  V30 23056 N 2282.19 -0.0585199 -1.57491 0
M  V30 23057 C 2283.43 0.614524 -1.93265 0
M  V30 23058 C 2283.77 1.70059 -0.937746 0
M  V30 23059 O 2283.04 1.94468 0.0351311 0
M  V30 23060 C 2283.32 1.2038 -3.39383 0
M  V30 23061 C 2283.18 0.125296 -4.49625 0
M  V30 23062 C 2284.5 2.11327 -3.86043 0
M  V30 23063 H 2281.61 0.22192 -0.702795 0
M  V30 23064 H 2284.26 -0.121783 -1.89609 0
M  V30 23065 H 2282.41 1.83133 -3.42629 0
M  V30 23066 H 2284.08 -0.507051 -4.58505 0
M  V30 23067 H 2282.32 -0.545747 -4.30353 0
M  V30 23068 H 2282.99 0.577765 -5.48968 0
M  V30 23069 H 2285.47 1.58527 -3.84719 0
M  V30 23070 H 2284.34 2.49499 -4.88919 0
M  V30 23071 H 2284.61 3.0163 -3.23221 0
M  V30 23072 N 2283.66 1.56128 0.21493 0
M  V30 23073 C 2284.59 1.95976 1.26947 0
M  V30 23074 C 2285.58 0.828894 1.48537 0
M  V30 23075 O 2286.76 1.09171 1.60609 0
M  V30 23076 C 2283.89 2.28218 2.6179 0
M  V30 23077 C 2282.84 3.43858 2.54845 0
M  V30 23078 C 2282.17 3.61722 3.93778 0
M  V30 23079 C 2283.47 4.78636 2.09057 0
M  V30 23080 H 2285.16 2.84314 0.93841 0
M  V30 23081 H 2282.71 1.36789 0.449972 0
M  V30 23082 H 2284.66 2.54688 3.35726 0
M  V30 23083 H 2283.39 1.36741 2.96596 0
M  V30 23084 H 2282.05 3.17447 1.83365 0
M  V30 23085 H 2281.69 2.6761 4.25904 0
M  V30 23086 H 2281.39 4.39505 3.90012 0
M  V30 23087 H 2282.92 3.90547 4.69367 0
M  V30 23088 H 2284.33 5.04267 2.72741 0
M  V30 23089 H 2282.73 5.59749 2.16336 0
M  V30 23090 H 2283.8 4.73549 1.04306 0
M  V30 23091 N 2285.14 -0.481893 1.50052 0
M  V30 23092 C 2286.39 -1.23147 1.59743 0
M  V30 23093 C 2286.7 -1.93314 0.298197 0
M  V30 23094 O 2287.91 -2.70115 0.273883 0
M  V30 23095 C 2286.37 -2.23703 2.8193 0
M  V30 23096 C 2285.97 -1.59389 4.18688 0
M  V30 23097 C 2287.72 -2.9937 3.00962 0
M  V30 23098 C 2285.63 -2.58168 5.32074 0
M  V30 23099 H 2284.56 -0.46333 0.594846 0
M  V30 23100 H 2287.21 -0.503138 1.76467 0
M  V30 23101 H 2285.59 -2.99782 2.58741 0
M  V30 23102 H 2286.76 -0.891732 4.52089 0
M  V30 23103 H 2285.08 -0.960432 4.05172 0
M  V30 23104 H 2287.67 -3.73277 3.82843 0
M  V30 23105 H 2288.02 -3.58119 2.12265 0
M  V30 23106 H 2288.55 -2.30406 3.24281 0
M  V30 23107 H 2285.29 -2.04173 6.22891 0
M  V30 23108 H 2284.81 -3.26568 5.03104 0
M  V30 23109 H 2286.49 -3.20216 5.62202 0
M  V30 23110 N 2286.62 -1.39448 -0.734313 0
M  V30 23111 C 2287.85 -1.4017 -1.52864 0
M  V30 23112 C 2288.27 0.00168206 -1.881 0
M  V30 23113 O 2287.63 0.988853 -1.51959 0
M  V30 23114 C 2287.68 -2.28171 -2.79231 0
M  V30 23115 O 2286.78 -1.71207 -3.75182 0
M  V30 23116 H 2286.12 -0.477298 -0.461609 0
M  V30 23117 H 2288.65 -1.83451 -0.905916 0
M  V30 23118 H 2288.66 -2.42708 -3.27959 0
M  V30 23119 H 2287.34 -3.3016 -2.52917 0
M  V30 23120 H 2285.91 -1.65918 -3.33955 0
M  V30 23121 N 2288.1 0.964571 -1.24635 0
M  V30 23122 C 2289.05 2.05966 -1.04148 0
M  V30 23123 C 2290.02 1.66036 0.0462328 0
M  V30 23124 O 2291.2 1.90488 -0.109006 0
M  V30 23125 C 2288.34 3.38814 -0.65569 0
M  V30 23126 C 2287.45 3.9192 -1.81721 0
M  V30 23127 C 2286.59 5.1305 -1.37671 0
M  V30 23128 C 2285.63 5.58361 -2.50798 0
M  V30 23129 N 2284.76 6.70708 -2.07593 0
M  V30 23130 H 2289.6 2.22823 -1.97873 0
M  V30 23131 H 2287.14 1.09206 -0.985519 0
M  V30 23132 H 2289.1 4.1515 -0.413027 0
M  V30 23133 H 2287.73 3.21872 0.24457 0
M  V30 23134 H 2286.78 3.12194 -2.17345 0
M  V30 23135 H 2288.09 4.21504 -2.66712 0
M  V30 23136 H 2287.25 5.96771 -1.09311 0
M  V30 23137 H 2285.99 4.85157 -0.497378 0
M  V30 23138 H 2284.99 4.7321 -2.79914 0
M  V30 23139 H 2286.22 5.88266 -3.39293 0
M  V30 23140 H 2284.16 6.44544 -1.22063 0
M  V30 23141 H 2284.08 6.99758 -2.86137 0
M  V30 23142 H 2285.35 7.57863 -1.82382 0
M  V30 23143 N 2289.58 1.0606 1.16572 0
M  V30 23144 C 2290.52 0.663383 2.22939 0
M  V30 23145 C 2291.52 -0.319564 1.66359 0
M  V30 23146 O 2292.72 -0.184681 1.7905 0
M  V30 23147 H 2289.1 0.196388 0.725903 0
M  V30 23148 H 2291.07 1.57042 2.53733 0
M  V30 23149 C 2289.82 0.0633419 3.47642 0
M  V30 23150 H 2289.14 0.810802 3.91492 0
M  V30 23151 H 2290.58 -0.177102 4.2363 0
M  V30 23152 C 2289.04 -1.19243 3.15092 0
M  V30 23153 O 2289.57 -2.28069 3.30677 0
M  V30 23154 N 2287.78 -1.09348 2.69242 0
M  V30 23155 H 2287.32 -0.207867 2.5676 0
M  V30 23156 H 2287.28 -1.93454 2.47836 0
M  V30 23157 N 2291.06 -1.33168 0.84285 0
M  V30 23158 C 2291.99 -2.31641 0.294069 0
M  V30 23159 C 2292.97 -1.59153 -0.600373 0
M  V30 23160 O 2294.15 -1.87022 -0.523091 0
M  V30 23161 C 2291.28 -3.43257 -0.528355 0
M  V30 23162 C 2290.24 -4.27143 0.270635 0
M  V30 23163 C 2289.56 -5.30412 -0.675788 0
M  V30 23164 C 2290.86 -5.00599 1.4899 0
M  V30 23165 H 2292.56 -2.77789 1.11686 0
M  V30 23166 H 2290.1 -1.33552 0.538502 0
M  V30 23167 H 2292.05 -4.11176 -0.922602 0
M  V30 23168 H 2290.78 -2.95808 -1.38439 0
M  V30 23169 H 2289.44 -3.60855 0.646491 0
M  V30 23170 H 2289.09 -4.79219 -1.52834 0
M  V30 23171 H 2288.79 -5.8742 -0.145271 0
M  V30 23172 H 2290.31 -6.01197 -1.06746 0
M  V30 23173 H 2291.72 -5.61264 1.16859 0
M  V30 23174 H 2290.12 -5.67276 1.95749 0
M  V30 23175 H 2291.19 -4.29143 2.25753 0
M  V30 23176 N 2292.53 -0.599659 -1.45746 0
M  V30 23177 C 2293.76 -0.0978914 -2.06668 0
M  V30 23178 C 2294.18 1.21436 -1.44564 0
M  V30 23179 O 2293.53 1.73794 -0.556953 0
M  V30 23180 C 2293.58 0.0566409 -3.61456 0
M  V30 23181 O 2293.31 -1.20369 -4.2124 0
M  V30 23182 C 2294.81 0.590791 -4.39346 0
M  V30 23183 H 2292.03 -0.0652061 -0.667824 0
M  V30 23184 H 2294.57 -0.825143 -1.87114 0
M  V30 23185 H 2292.73 0.734184 -3.80379 0
M  V30 23186 H 2293.14 -1.0283 -5.14321 0
M  V30 23187 H 2294.61 0.648035 -5.48183 0
M  V30 23188 H 2295.09 1.6114 -4.08571 0
M  V30 23189 H 2295.7 -0.0524427 -4.25268 0
M  V30 23190 N 2294.01 1.53925 -0.338371 0
M  V30 23191 C 2294.96 2.26335 0.536191 0
M  V30 23192 C 2295.95 1.28288 1.10628 0
M  V30 23193 O 2297.16 1.46014 1.05261 0
M  V30 23194 H 2293.53 0.727185 0.191589 0
M  V30 23195 H 2295.51 2.98244 -0.0966271 0
M  V30 23196 C 2294.25 3.04531 1.67798 0
M  V30 23197 H 2293.58 3.79803 1.24857 0
M  V30 23198 H 2295.02 3.5842 2.26519 0
M  V30 23199 C 2293.48 2.13717 2.60436 0
M  V30 23200 O 2294.01 1.72982 3.62547 0
M  V30 23201 N 2292.21 1.78902 2.29003 0
M  V30 23202 H 2291.76 2.12226 1.46007 0
M  V30 23203 H 2291.72 1.18421 2.91245 0
M  V30 23204 N 2295.49 0.0668712 1.57458 0
M  V30 23205 C 2296.9 -0.466526 1.80777 0
M  V30 23206 C 2297.25 -1.69949 0.98039 0
M  V30 23207 O 2296.38 -2.1546 0.201479 0
M  V30 23208 C 2296.97 -0.853153 3.27882 0
M  V30 23209 C 2295.53 -1.33144 3.52065 0
M  V30 23210 C 2294.68 -0.314215 2.75514 0
M  V30 23211 H 2297.63 0.292615 1.55979 0
M  V30 23212 H 2297.65 -1.71494 3.39662 0
M  V30 23213 H 2297.16 0.0444121 3.88075 0
M  V30 23214 H 2295.26 -2.24767 2.97171 0
M  V30 23215 H 2295.38 -1.31276 4.60764 0
M  V30 23216 H 2293.74 -0.79045 2.42124 0
M  V30 23217 H 2294.52 0.575537 3.38441 0
M  V30 23218 N 2296.97 -1.56239 -0.206647 0
M  V30 23219 C 2298.38 -1.49565 -0.556998 0
M  V30 23220 C 2298.58 -0.764768 -1.86423 0
M  V30 23221 O 2297.64 -0.310535 -2.50583 0
M  V30 23222 C 2298.95 -2.94188 -0.622427 0
M  V30 23223 C 2300.5 -3.04793 -0.712046 0
M  V30 23224 C 2300.98 -4.50804 -0.808688 0
M  V30 23225 N 2302.47 -4.54908 -0.87252 0
M  V30 23226 C 2303.2 -5.65183 -0.967266 0
M  V30 23227 N 2302.7 -6.85175 -1.02503 0
M  V30 23228 N 2304.49 -5.53069 -1.00356 0
M  V30 23229 H 2296.64 -2.02178 0.650978 0
M  V30 23230 H 2298.9 -0.919575 0.230403 0
M  V30 23231 H 2298.61 -3.50671 0.268788 0
M  V30 23232 H 2298.48 -3.46908 -1.48104 0
M  V30 23233 H 2300.87 -2.48365 -1.5937 0
M  V30 23234 H 2300.95 -2.55217 0.172534 0
M  V30 23235 H 2300.6 -5.07854 0.0685647 0
M  V30 23236 H 2300.53 -4.98101 -1.7089 0
M  V30 23237 H 2303.02 -3.68501 -0.837592 0
M  V30 23238 H 2303.33 -7.64967 -1.09752 0
M  V30 23239 H 2301.68 -6.87856 -0.993905 0
M  V30 23240 H 2304.87 -4.58251 -0.955189 0
M  V30 23241 H 2305.04 -6.39039 -1.07394 0
M  V30 23242 N 2298.45 0.473929 -1.50305 0
M  V30 23243 C 2299.69 1.2238 -1.60834 0
M  V30 23244 C 2300.01 1.92529 -0.309424 0
M  V30 23245 O 2299.28 1.8398 0.672928 0
M  V30 23246 H 2297.86 0.454712 -0.59266 0
M  V30 23247 H 2300.53 0.546935 -1.87069 0
M  V30 23248 H 2299.62 1.97323 -2.41806 0
M  V30 23249 N 2299.92 1.39835 0.726907 0
M  V30 23250 C 2300.85 1.41944 1.85403 0
M  V30 23251 C 2301.83 0.281757 1.6775 0
M  V30 23252 O 2303.02 0.48875 1.87949 0
M  V30 23253 C 2300.15 1.27015 3.2324 0
M  V30 23254 C 2299.1 2.38268 3.55545 0
M  V30 23255 C 2298.43 2.08423 4.92406 0
M  V30 23256 C 2299.73 3.80595 3.57693 0
M  V30 23257 H 2301.42 2.36269 1.83895 0
M  V30 23258 H 2298.97 1.13725 0.883329 0
M  V30 23259 H 2300.92 1.2711 4.01772 0
M  V30 23260 H 2299.65 0.291621 3.25295 0
M  V30 23261 H 2298.31 2.37404 2.79347 0
M  V30 23262 H 2297.95 1.08988 4.9105 0
M  V30 23263 H 2297.65 2.82952 5.14987 0
M  V30 23264 H 2299.18 2.10181 5.73285 0
M  V30 23265 H 2300.59 3.83344 4.26286 0
M  V30 23266 H 2298.99 4.5455 3.91796 0
M  V30 23267 H 2300.06 4.10992 2.5732 0
M  V30 23268 N 2301.4 -0.957948 1.25144 0
M  V30 23269 C 2302.36 -2.03567 1.05324 0
M  V30 23270 C 2303.36 -1.60798 0.00718027 0
M  V30 23271 O 2304.55 -1.7241 0.24906 0
M  V30 23272 C 2301.69 -3.35606 0.598453 0
M  V30 23273 H 2302.88 -2.22583 2.0099 0
M  V30 23274 H 2300.43 -1.13457 1.07504 0
M  V30 23275 H 2301.17 -3.22285 -0.360957 0
M  V30 23276 H 2300.95 -3.67995 1.35358 0
M  V30 23277 H 2302.44 -4.14819 0.481113 0
M  V30 23278 N 2302.88 -1.06677 -1.16008 0
M  V30 23279 C 2303.81 -0.702346 -2.22687 0
M  V30 23280 C 2304.79 0.307003 -1.67307 0
M  V30 23281 O 2305.98 0.181271 -1.93352 0
M  V30 23282 C 2303.11 -0.092099 -3.47178 0
M  V30 23283 C 2302.06 -1.02785 -4.15475 0
M  V30 23284 C 2301.39 -0.280704 -5.33963 0
M  V30 23285 C 2302.69 -2.35854 -4.66015 0
M  V30 23286 H 2304.38 -1.59423 -2.53426 0
M  V30 23287 H 2301.93 -0.767982 -1.21811 0
M  V30 23288 H 2303.88 0.17474 -4.21038 0
M  V30 23289 H 2302.6 0.834821 -3.1575 0
M  V30 23290 H 2301.26 -1.2795 -3.43547 0
M  V30 23291 H 2300.91 0.649458 -4.9879 0
M  V30 23292 H 2300.61 -0.90436 -5.80599 0
M  V30 23293 H 2302.13 -0.0215033 -6.10596 0
M  V30 23294 H 2303.55 -2.15054 -5.31436 0
M  V30 23295 H 2301.94 -2.93752 -5.23288 0
M  V30 23296 H 2303.01 -2.98648 -3.82018 0
M  V30 23297 N 2304.36 1.32719 -0.8499 0
M  V30 23298 C 2305.63 1.92021 -0.372439 0
M  V30 23299 C 2306.01 1.77449 1.14346 0
M  V30 23300 O 2305.36 1.16965 1.96294 0
M  V30 23301 C 2305.57 3.38949 -0.831541 0
M  V30 23302 C 2306.92 4.16087 -0.845955 0
M  V30 23303 O 2307.94 3.47647 -0.775867 0
M  V30 23304 O 2306.8 5.38288 -0.943848 0
M  V30 23305 H 2303.9 0.81996 -0.107681 0
M  V30 23306 H 2306.44 1.4152 -0.936485 0
M  V30 23307 H 2305.22 3.43477 -1.87454 0
M  V30 23308 H 2304.84 3.96846 -0.244679 0
M  V30 23309 N 2305.84 0.60738 1.45426 0
M  V30 23310 C 2307.25 0.187567 1.85755 0
M  V30 23311 C 2307.6 -1.25548 1.50772 0
M  V30 23312 O 2306.72 -1.95191 0.934304 0
M  V30 23313 C 2307.32 0.333632 3.37153 0
M  V30 23314 C 2305.88 -0.031488 3.76387 0
M  V30 23315 C 2305.02 0.658164 2.69376 0
M  V30 23316 H 2307.98 0.814074 1.3623 0
M  V30 23317 H 2308 -0.434213 3.78014 0
M  V30 23318 H 2307.51 1.38399 3.62584 0
M  V30 23319 H 2305.61 -1.08104 3.56573 0
M  V30 23320 H 2305.72 0.362019 4.7773 0
M  V30 23321 H 2304.09 0.095832 2.5452 0
M  V30 23322 H 2304.87 1.71066 2.97643 0
M  V30 23323 N 2307.31 -1.53743 0.34653 0
M  V30 23324 C 2308.73 -1.59599 -0.00528169 0
M  V30 23325 C 2308.93 -1.36239 -1.48463 0
M  V30 23326 O 2307.99 -1.15812 -2.24374 0
M  V30 23327 C 2309.3 -2.97558 0.433568 0
M  V30 23328 C 2310.85 -3.10609 0.386165 0
M  V30 23329 C 2311.32 -4.5095 0.80053 0
M  V30 23330 N 2312.81 -4.57008 0.754834 0
M  V30 23331 C 2313.55 -5.63753 1.04737 0
M  V30 23332 N 2313.04 -6.78337 1.40821 0
M  V30 23333 N 2314.84 -5.53642 0.971414 0
M  V30 23334 H 2306.99 -1.67182 1.31012 0
M  V30 23335 H 2309.25 -0.783118 0.534256 0
M  V30 23336 H 2308.96 -3.19729 1.46515 0
M  V30 23337 H 2308.83 -3.76723 -0.189687 0
M  V30 23338 H 2311.22 -2.8816 -0.636245 0
M  V30 23339 H 2311.3 -2.33496 1.04466 0
M  V30 23340 H 2310.94 -4.74134 1.82096 0
M  V30 23341 H 2310.87 -5.26464 0.119479 0
M  V30 23342 H 2313.36 -3.74726 0.488728 0
M  V30 23343 H 2313.68 -7.55711 1.6162 0
M  V30 23344 H 2312.02 -6.79776 1.44669 0
M  V30 23345 H 2315.21 -4.63004 0.688829 0
M  V30 23346 H 2315.39 -6.3674 1.20274 0
M  V30 23347 N 2308.79 -0.0752207 -1.5742 0
M  V30 23348 C 2309.73 0.926868 -2.08529 0
M  V30 23349 C 2310.7 1.28896 -0.991193 0
M  V30 23350 O 2311.89 1.39766 -1.26482 0
M  V30 23351 C 2309.01 2.23398 -2.5458 0
M  V30 23352 C 2308.06 2.02321 -3.75458 0
M  V30 23353 S 2308.89 1.27941 -5.19992 0
M  V30 23354 C 2310.05 2.59925 -5.69377 0
M  V30 23355 H 2310.28 0.491996 -2.93201 0
M  V30 23356 H 2307.82 0.137624 -1.53785 0
M  V30 23357 H 2309.77 2.98521 -2.81772 0
M  V30 23358 H 2308.43 2.64009 -1.7017 0
M  V30 23359 H 2307.63 2.99064 -4.0568 0
M  V30 23360 H 2307.23 1.35332 -3.48656 0
M  V30 23361 H 2309.52 3.55998 -5.7643 0
M  V30 23362 H 2310.46 2.34308 -6.68211 0
M  V30 23363 H 2310.87 2.67287 -4.9721 0
M  V30 23364 N 2310.27 1.56347 0.198358 0
M  V30 23365 C 2311.22 1.95171 1.26534 0
M  V30 23366 C 2312.21 0.836711 1.47294 0
M  V30 23367 O 2313.42 1.0217 1.48194 0
M  V30 23368 H 2309.79 0.620569 0.424733 0
M  V30 23369 H 2311.76 2.84158 0.910854 0
M  V30 23370 C 2310.51 2.30468 2.60346 0
M  V30 23371 H 2309.84 3.15791 2.45186 0
M  V30 23372 H 2311.28 2.61499 3.33757 0
M  V30 23373 C 2309.74 1.13812 3.17094 0
M  V30 23374 O 2310.27 0.41142 3.99588 0
M  V30 23375 N 2308.47 0.915784 2.75793 0
M  V30 23376 H 2308.02 1.50846 2.08814 0
M  V30 23377 H 2307.98 0.137034 3.14101 0
M  V30 23378 N 2311.75 -0.465951 1.50554 0
M  V30 23379 C 2312.66 -1.58904 1.72588 0
M  V30 23380 C 2313.67 -1.62989 0.609138 0
M  V30 23381 O 2314.85 -1.80763 0.888072 0
M  V30 23382 C 2311.92 -2.95088 1.82 0
M  V30 23383 C 2310.98 -3.0135 3.05756 0
M  V30 23384 C 2310.21 -4.31038 3.14709 0
M  V30 23385 O 2310.43 -5.21831 2.30322 0
M  V30 23386 O 2309.37 -4.42997 4.07476 0
M  V30 23387 H 2313.19 -1.43235 2.67801 0
M  V30 23388 H 2310.78 -0.645989 1.34712 0
M  V30 23389 H 2312.66 -3.75963 1.90341 0
M  V30 23390 H 2311.33 -3.10945 0.899714 0
M  V30 23391 H 2310.24 -2.19534 3.02912 0
M  V30 23392 H 2311.57 -2.9043 3.9738 0
M  V30 23393 N 2313.23 -1.40218 -0.719481 0
M  V30 23394 C 2314.18 -1.36656 -1.82508 0
M  V30 23395 C 2315.16 -0.24476 -1.59027 0
M  V30 23396 O 2316.35 -0.483554 -1.70267 0
M  V30 23397 C 2313.48 -1.22769 -3.20597 0
M  V30 23398 C 2312.57 -2.39714 -3.49854 0
M  V30 23399 N 2312.96 -3.65196 -3.49951 0
M  V30 23400 C 2311.26 -2.33009 -3.80293 0
M  V30 23401 C 2311.96 -4.42621 -3.77441 0
M  V30 23402 N 2310.93 -3.72409 -3.95996 0
M  V30 23403 H 2314.74 -2.31622 -1.8091 0
M  V30 23404 H 2312.25 -1.33935 -0.918432 0
M  V30 23405 H 2314.25 -1.18299 -3.99764 0
M  V30 23406 H 2312.91 -0.287671 -3.23423 0
M  V30 23407 H 2313.92 -3.9841 -3.30893 0
M  V30 23408 H 2310.59 -1.47353 -3.90632 0
M  V30 23409 H 2311.98 -5.51458 -3.83854 0
M  V30 23410 N 2314.7 0.951297 -1.25651 0
M  V30 23411 C 2315.63 2.06597 -1.08812 0
M  V30 23412 C 2316.62 1.701 0.00379557 0
M  V30 23413 O 2317.8 1.93486 -0.166359 0
M  V30 23414 C 2314.93 3.39973 -0.709602 0
M  V30 23415 C 2313.88 3.90493 -1.75212 0
M  V30 23416 C 2313.21 5.20403 -1.2282 0
M  V30 23417 C 2314.51 4.16499 -3.1516 0
M  V30 23418 H 2316.2 2.20942 -2.02052 0
M  V30 23419 H 2313.75 1.06168 -0.972854 0
M  V30 23420 H 2315.7 4.17407 -0.578722 0
M  V30 23421 H 2314.43 3.25575 0.258499 0
M  V30 23422 H 2313.09 3.15231 -1.8715 0
M  V30 23423 H 2312.73 5.02377 -0.250233 0
M  V30 23424 H 2312.43 5.55173 -1.92501 0
M  V30 23425 H 2313.96 6.0043 -1.10978 0
M  V30 23426 H 2315.37 4.8458 -3.06357 0
M  V30 23427 H 2313.77 4.62531 -3.82342 0
M  V30 23428 H 2314.84 3.22652 -3.61972 0
M  V30 23429 N 2316.18 1.07291 1.1544 0
M  V30 23430 C 2317.11 0.714146 2.22311 0
M  V30 23431 C 2318.09 -0.298126 1.67467 0
M  V30 23432 O 2319.28 -0.171014 1.93446 0
M  V30 23433 C 2316.41 0.110509 3.47124 0
M  V30 23434 C 2315.36 1.04987 4.14924 0
M  V30 23435 C 2314.69 0.309018 5.33806 0
M  V30 23436 C 2315.99 2.38322 4.64758 0
M  V30 23437 H 2317.68 1.60765 2.52577 0
M  V30 23438 H 2315.23 0.774431 1.21402 0
M  V30 23439 H 2317.18 -0.152408 4.21124 0
M  V30 23440 H 2315.91 -0.818065 3.16189 0
M  V30 23441 H 2314.56 1.2977 3.42864 0
M  V30 23442 H 2314.21 -0.622997 4.99127 0
M  V30 23443 H 2313.91 0.935138 5.80111 0
M  V30 23444 H 2315.44 0.0538844 6.10576 0
M  V30 23445 H 2316.85 2.17869 5.30289 0
M  V30 23446 H 2315.25 2.96523 5.21722 0
M  V30 23447 H 2316.32 3.00669 3.80429 0
M  V30 23448 N 2317.66 -1.32267 0.856927 0
M  V30 23449 C 2318.91 -1.97173 0.46142 0
M  V30 23450 C 2319.24 -1.67804 -0.983462 0
M  V30 23451 O 2318.49 -0.959933 -1.7054 0
M  V30 23452 C 2318.79 -3.5144 0.64998 0
M  V30 23453 C 2318.46 -4.008 2.06567 0
M  V30 23454 C 2317.12 -4.1399 2.45286 0
M  V30 23455 C 2319.47 -4.26937 2.98955 0
M  V30 23456 C 2316.8 -4.50662 3.75661 0
M  V30 23457 C 2319.15 -4.65068 4.2883 0
M  V30 23458 C 2317.81 -4.76464 4.67481 0
M  V30 23459 H 2317.08 -0.721507 0.168846 0
M  V30 23460 H 2319.73 -1.57631 1.08742 0
M  V30 23461 H 2318.04 -3.91755 -0.0592329 0
M  V30 23462 H 2319.73 -3.99689 0.32398 0
M  V30 23463 H 2316.32 -3.9102 1.75502 0
M  V30 23464 H 2320.51 -4.16253 2.70272 0
M  V30 23465 H 2315.76 -4.57681 4.05387 0
M  V30 23466 H 2319.94 -4.84246 5.00479 0
M  V30 23467 H 2317.56 -5.04636 5.68548 0
M  V30 23468 N 2319.14 -0.615084 -1.45102 0
M  V30 23469 C 2320.38 -0.12184 -2.03035 0
M  V30 23470 C 2320.74 1.23662 -1.47396 0
M  V30 23471 O 2320.03 1.80521 -0.642092 0
M  V30 23472 C 2320.23 -0.0319426 -3.57386 0
M  V30 23473 C 2320.06 -1.38014 -4.27998 0
M  V30 23474 C 2318.83 -1.96279 -4.65621 0
M  V30 23475 C 2321.02 -2.31055 -4.59476 0
M  V30 23476 N 2319.01 -3.24501 -5.21126 0
M  V30 23477 C 2320.38 -3.43881 -5.15894 0
M  V30 23478 C 2322.43 -2.30334 -4.41419 0
M  V30 23479 C 2321.13 -4.5616 -5.56157 0
M  V30 23480 C 2323.16 -3.41666 -4.8272 0
M  V30 23481 C 2322.52 -4.53214 -5.39237 0
M  V30 23482 H 2318.62 -0.0881296 -0.777018 0
M  V30 23483 H 2321.21 -0.815075 -1.76818 0
M  V30 23484 H 2319.38 0.630531 -3.83248 0
M  V30 23485 H 2321.11 0.468651 -4.01977 0
M  V30 23486 H 2317.86 -1.494 -4.49418 0
M  V30 23487 H 2318.29 -3.90013 -5.5337 0
M  V30 23488 H 2322.93 -1.4535 -3.97031 0
M  V30 23489 H 2320.65 -5.41864 -5.99507 0
M  V30 23490 H 2324.23 -3.42265 -4.70474 0
M  V30 23491 H 2323.11 -5.37939 -5.70606 0
M  V30 23492 N 2320.62 1.53557 -0.354678 0
M  V30 23493 C 2321.84 2.05982 0.242117 0
M  V30 23494 C 2322.27 1.22723 1.42551 0
M  V30 23495 O 2321.63 0.243635 1.79656 0
M  V30 23496 C 2321.67 3.55155 0.624304 0
M  V30 23497 O 2320.78 3.74684 1.72295 0
M  V30 23498 H 2320.12 0.662921 0.0378315 0
M  V30 23499 H 2322.65 1.98087 -0.512121 0
M  V30 23500 H 2322.66 3.97987 0.898363 0
M  V30 23501 H 2321.33 4.15201 -0.241062 0
M  V30 23502 H 2319.91 3.43753 1.44529 0
M  V30 23503 N 2322.1 0.083568 1.57378 0
M  V30 23504 C 2323.37 -0.624475 1.85364 0
M  V30 23505 C 2323.75 -1.87064 0.978272 0
M  V30 23506 O 2323.1 -2.2845 0.047631 0
M  V30 23507 C 2323.31 -0.950888 3.35796 0
M  V30 23508 C 2324.66 -1.31931 4.03583 0
M  V30 23509 O 2325.68 -1.04226 3.4061 0
M  V30 23510 O 2324.54 -1.8377 5.14676 0
M  V30 23511 H 2321.64 -0.311315 0.766167 0
M  V30 23512 H 2324.18 0.115392 1.69307 0
M  V30 23513 H 2322.95 -0.0663212 3.91244 0
M  V30 23514 H 2322.58 -1.74712 3.57157 0
M  V30 23515 N 2323.57 -1.5645 -0.190064 0
M  V30 23516 C 2324.82 -1.82086 -0.90644 0
M  V30 23517 C 2325.17 -0.661367 -1.80676 0
M  V30 23518 O 2324.47 0.343204 -1.88501 0
M  V30 23519 C 2324.66 -3.11413 -1.75376 0
M  V30 23520 C 2324.49 -4.3983 -0.936975 0
M  V30 23521 C 2323.26 -5.01489 -0.619419 0
M  V30 23522 C 2325.46 -5.13497 -0.28731 0
M  V30 23523 N 2323.44 -6.13522 0.215475 0
M  V30 23524 C 2324.81 -6.18646 0.409562 0
M  V30 23525 C 2326.87 -4.97484 -0.203552 0
M  V30 23526 C 2325.57 -7.09518 1.18222 0
M  V30 23527 C 2327.6 -5.88783 0.555725 0
M  V30 23528 C 2326.96 -6.93381 1.24103 0
M  V30 23529 H 2323.06 -0.717533 -0.310919 0
M  V30 23530 H 2325.64 -1.93914 -0.174787 0
M  V30 23531 H 2323.81 -3.00811 -2.45698 0
M  V30 23532 H 2325.54 -3.25117 -2.41001 0
M  V30 23533 H 2322.3 -4.64075 -0.945044 0
M  V30 23534 H 2322.72 -6.7413 0.62268 0
M  V30 23535 H 2327.36 -4.16641 -0.719026 0
M  V30 23536 H 2325.08 -7.8982 1.70911 0
M  V30 23537 H 2328.67 -5.78466 0.621955 0
M  V30 23538 H 2327.55 -7.62809 1.81914 0
M  V30 23539 N 2325.05 0.45796 -1.50799 0
M  V30 23540 C 2326.3 1.20667 -1.62123 0
M  V30 23541 C 2326.62 1.9219 -0.329827 0
M  V30 23542 O 2325.89 1.84683 0.653376 0
M  V30 23543 H 2324.47 0.448401 -0.597449 0
M  V30 23544 H 2327.13 0.527063 -1.87638 0
M  V30 23545 H 2326.23 1.94747 -2.43885 0
M  V30 23546 N 2326.53 1.40598 0.712035 0
M  V30 23547 C 2327.48 1.37622 1.81781 0
M  V30 23548 C 2328.46 0.25319 1.58895 0
M  V30 23549 O 2329.66 0.492577 1.70008 0
M  V30 23550 C 2326.78 1.24468 3.19942 0
M  V30 23551 C 2325.87 2.41566 3.48578 0
M  V30 23552 N 2326.26 3.67047 3.48009 0
M  V30 23553 C 2324.56 2.35023 3.79052 0
M  V30 23554 C 2325.26 4.44616 3.75089 0
M  V30 23555 N 2324.24 3.74504 3.94015 0
M  V30 23556 H 2328.04 2.32578 1.79679 0
M  V30 23557 H 2325.55 1.3442 0.911316 0
M  V30 23558 H 2327.55 1.20418 3.99131 0
M  V30 23559 H 2326.21 0.304819 3.23266 0
M  V30 23560 H 2327.22 4.00159 3.28775 0
M  V30 23561 H 2323.9 1.49422 3.89845 0
M  V30 23562 H 2325.29 5.53486 3.80924 0
M  V30 23563 N 2328.01 -0.94462 1.26153 0
M  V30 23564 C 2328.96 -2.02855 1.04085 0
M  V30 23565 C 2329.94 -1.6088 -0.0256272 0
M  V30 23566 O 2331.13 -1.75967 0.190915 0
M  V30 23567 C 2328.26 -3.36655 0.672177 0
M  V30 23568 C 2327.35 -3.85125 1.77593 0
M  V30 23569 N 2327.74 -4.06282 3.01279 0
M  V30 23570 C 2326.04 -4.14007 1.65874 0
M  V30 23571 C 2326.74 -4.46377 3.72991 0
M  V30 23572 N 2325.71 -4.52884 3.00661 0
M  V30 23573 H 2329.52 -2.1722 1.97972 0
M  V30 23574 H 2327.03 -1.1302 1.1662 0
M  V30 23575 H 2329.03 -4.13948 0.495239 0
M  V30 23576 H 2327.69 -3.23663 -0.25925 0
M  V30 23577 H 2328.7 -3.93069 3.3722 0
M  V30 23578 H 2325.38 -4.09823 0.796979 0
M  V30 23579 H 2326.77 -4.70966 4.79208 0
M  V30 23580 N 2329.49 -1.07901 -1.1487 0
M  V30 23581 C 2330.9 -0.827392 -1.67365 0
M  V30 23582 C 2331.25 0.64666 -1.85237 0
M  V30 23583 O 2330.37 1.50001 -1.55976 0
M  V30 23584 C 2330.97 -1.49537 -3.04013 0
M  V30 23585 C 2329.53 -1.29112 -3.53563 0
M  V30 23586 C 2328.67 -1.56147 -2.29158 0
M  V30 23587 H 2331.62 -1.2403 -0.990061 0
M  V30 23588 H 2331.65 -0.919708 -3.69218 0
M  V30 23589 H 2331.16 -2.56819 -2.90974 0
M  V30 23590 H 2329.26 -0.238778 -3.71834 0
M  V30 23591 H 2329.37 -2.01519 -4.34657 0
M  V30 23592 H 2327.74 -0.982758 -2.34976 0
M  V30 23593 H 2328.52 -2.64623 -2.187 0
M  V30 23594 N 2330.96 1.31811 -0.863929 0
M  V30 23595 C 2332.38 1.49638 -0.55503 0
M  V30 23596 C 2332.58 1.79668 0.912234 0
M  V30 23597 O 2331.64 1.87174 1.69476 0
M  V30 23598 C 2332.95 2.63429 -1.45003 0
M  V30 23599 C 2334.5 2.77313 -1.45143 0
M  V30 23600 C 2334.97 3.94193 -2.33186 0
M  V30 23601 N 2336.46 4.0147 -2.31032 0
M  V30 23602 C 2337.2 4.91165 -2.95879 0
M  V30 23603 N 2336.69 5.85803 -3.69873 0
M  V30 23604 N 2338.49 4.84362 -2.85219 0
M  V30 23605 H 2330.64 1.10586 -1.81341 0
M  V30 23606 H 2332.9 0.545881 -0.77506 0
M  V30 23607 H 2332.61 2.47996 -2.49381 0
M  V30 23608 H 2332.48 3.59429 -1.14416 0
M  V30 23609 H 2334.87 2.92164 -0.415253 0
M  V30 23610 H 2334.95 1.81998 -1.79751 0
M  V30 23611 H 2334.59 3.80101 -3.36877 0
M  V30 23612 H 2334.52 4.88803 -1.95906 0
M  V30 23613 H 2337.01 3.33756 -1.77244 0
M  V30 23614 H 2337.33 6.50961 -4.16497 0
M  V30 23615 H 2335.67 5.85801 -3.73981 0
M  V30 23616 H 2338.86 4.09401 -2.26955 0
M  V30 23617 H 2339.04 5.5406 -3.36037 0
M  V30 23618 N 2332.44 0.62277 1.44773 0
M  V30 23619 C 2333.69 0.121432 2.01334 0
M  V30 23620 C 2334 -1.26123 1.49507 0
M  V30 23621 O 2335.21 -1.85612 1.98142 0
M  V30 23622 C 2333.67 0.166362 3.59515 0
M  V30 23623 C 2333.27 1.54981 4.20339 0
M  V30 23624 C 2335.02 -0.278946 4.23583 0
M  V30 23625 C 2332.92 1.55031 5.70718 0
M  V30 23626 H 2331.85 0.0416304 0.75285 0
M  V30 23627 H 2334.51 0.780338 1.66081 0
M  V30 23628 H 2332.89 -0.559488 3.92028 0
M  V30 23629 H 2334.06 2.29858 3.99377 0
M  V30 23630 H 2332.38 1.93849 3.68526 0
M  V30 23631 H 2334.97 -0.29799 5.33869 0
M  V30 23632 H 2335.32 -1.30464 3.95329 0
M  V30 23633 H 2335.85 0.394132 3.95843 0
M  V30 23634 H 2332.59 2.55409 6.03694 0
M  V30 23635 H 2332.11 0.844349 5.93827 0
M  V30 23636 H 2333.79 1.28058 6.342 0
M  V30 23637 N 2333.92 -1.53367 0.362817 0
M  V30 23638 C 2334.83 -2.29362 -0.492953 0
M  V30 23639 C 2335.85 -1.35221 -1.09505 0
M  V30 23640 O 2337.02 -1.68275 -1.10659 0
M  V30 23641 C 2334.09 -3.06603 -1.6185 0
M  V30 23642 C 2333.15 -4.16407 -1.04422 0
M  V30 23643 C 2332.38 -4.89955 -2.11613 0
M  V30 23644 O 2332.6 -4.63339 -3.32676 0
M  V30 23645 O 2331.54 -5.75951 -1.74825 0
M  V30 23646 H 2335.36 -3.03441 0.125384 0
M  V30 23647 H 2332.95 -1.48857 0.12728 0
M  V30 23648 H 2334.83 -3.54845 -2.27295 0
M  V30 23649 H 2333.51 -2.35363 -2.22229 0
M  V30 23650 H 2332.41 -3.72424 -0.353754 0
M  V30 23651 H 2333.75 -4.89804 -0.485027 0
M  V30 23652 N 2335.4 -0.091913 -1.57332 0
M  V30 23653 C 2336.81 0.264738 -1.57389 0
M  V30 23654 C 2337.01 1.68641 -1.10283 0
M  V30 23655 O 2336.07 2.4022 -0.777843 0
M  V30 23656 C 2337.38 0.0560667 -3.00648 0
M  V30 23657 C 2338.93 0.124061 -3.12754 0
M  V30 23658 C 2339.41 -0.0565777 -4.57965 0
M  V30 23659 N 2340.9 -0.00163753 -4.632 0
M  V30 23660 C 2341.63 -0.116699 -5.73281 0
M  V30 23661 N 2341.13 -0.286416 -6.92208 0
M  V30 23662 N 2342.92 -0.0581961 -5.6207 0
M  V30 23663 H 2335.07 -1.02082 -1.86261 0
M  V30 23664 H 2337.34 -0.399801 -0.859572 0
M  V30 23665 H 2337.04 -0.925728 -3.39298 0
M  V30 23666 H 2336.92 0.799758 -3.68624 0
M  V30 23667 H 2339.3 1.09636 -2.73978 0
M  V30 23668 H 2339.38 -0.651068 -2.47376 0
M  V30 23669 H 2339.03 -1.02573 -4.97435 0
M  V30 23670 H 2338.96 0.738205 -5.214 0
M  V30 23671 H 2341.45 0.127126 -3.77686 0
M  V30 23672 H 2341.76 -0.365811 -7.71934 0
M  V30 23673 H 2340.11 -0.322042 -6.94253 0
M  V30 23674 H 2343.3 0.0732382 -4.68043 0
M  V30 23675 H 2343.47 -0.151317 -6.47823 0
M  V30 23676 N 2336.88 1.56548 0.181765 0
M  V30 23677 C 2337.84 1.94726 1.2089 0
M  V30 23678 C 2338.84 0.829771 1.37737 0
M  V30 23679 O 2340.03 1.09699 1.35321 0
M  V30 23680 C 2337.16 2.23296 2.57589 0
M  V30 23681 H 2338.35 2.8663 0.882225 0
M  V30 23682 H 2335.91 1.50444 0.423811 0
M  V30 23683 H 2336.64 1.34072 2.95288 0
M  V30 23684 H 2336.43 3.04741 2.4673 0
M  V30 23685 H 2337.92 2.5379 3.31633 0
M  V30 23686 N 2338.35 -0.449957 1.5104 0
M  V30 23687 C 2339.58 -1.2278 1.67152 0
M  V30 23688 C 2340 -1.84562 0.363114 0
M  V30 23689 O 2339.36 -1.6825 -0.675403 0
M  V30 23690 C 2339.41 -2.29684 2.77989 0
M  V30 23691 O 2338.51 -3.3486 2.40713 0
M  V30 23692 H 2337.86 -0.360289 0.557753 0
M  V30 23693 H 2340.39 -0.532971 1.97536 0
M  V30 23694 H 2340.4 -2.74667 3.01698 0
M  V30 23695 H 2339.07 -1.84091 3.72939 0
M  V30 23696 H 2337.65 -2.95441 2.27529 0
M  V30 23697 N 2339.83 -1.40974 -0.704569 0
M  V30 23698 C 2340.77 -1.36521 -1.82858 0
M  V30 23699 C 2341.74 -0.233849 -1.6091 0
M  V30 23700 O 2342.93 -0.419304 -1.83777 0
M  V30 23701 C 2340.05 -1.12735 -3.19388 0
M  V30 23702 C 2339.1 -2.2847 -3.60144 0
M  V30 23703 S 2339.93 -3.90914 -3.65987 0
M  V30 23704 C 2341.09 -3.69412 -5.05258 0
M  V30 23705 H 2341.32 -2.31643 -1.86356 0
M  V30 23706 H 2338.86 -1.2739 -0.872416 0
M  V30 23707 H 2340.81 -0.996963 -3.9821 0
M  V30 23708 H 2339.47 -0.192482 -3.1351 0
M  V30 23709 H 2338.67 -2.07497 -4.59305 0
M  V30 23710 H 2338.27 -2.37868 -2.88608 0
M  V30 23711 H 2340.56 -3.28561 -5.92498 0
M  V30 23712 H 2341.5 -4.68143 -5.3127 0
M  V30 23713 H 2341.91 -3.02871 -4.76371 0
M  V30 23714 N 2341.31 0.937917 -1.26653 0
M  V30 23715 C 2342.59 1.66202 -1.03132 0
M  V30 23716 C 2342.97 2.06523 0.437219 0
M  V30 23717 O 2342.32 1.79156 1.41828 0
M  V30 23718 C 2342.53 2.87177 -1.98319 0
M  V30 23719 C 2343.87 3.58754 -2.27113 0
M  V30 23720 O 2344.9 2.97287 -1.96211 0
M  V30 23721 O 2343.76 4.69474 -2.79744 0
M  V30 23722 H 2340.85 0.727979 -0.392396 0
M  V30 23723 H 2343.4 0.989358 -1.37876 0
M  V30 23724 H 2342.17 2.54296 -2.97404 0
M  V30 23725 H 2341.79 3.62167 -1.64075 0
M  V30 23726 N 2342.79 1.08509 1.14296 0
M  V30 23727 C 2344.04 0.813795 1.84991 0
M  V30 23728 C 2344.36 -0.662361 1.83406 0
M  V30 23729 O 2343.63 -1.48022 1.28321 0
M  V30 23730 H 2342.21 0.298057 0.684961 0
M  V30 23731 H 2344.87 1.37129 1.38498 0
M  V30 23732 H 2343.97 1.15889 2.89786 0
M  V30 23733 N 2344.27 -1.31351 0.870907 0
M  V30 23734 C 2345.49 -2.01382 0.495992 0
M  V30 23735 C 2345.92 -1.64937 -0.904295 0
M  V30 23736 O 2345.27 -0.858494 -1.59686 0
M  V30 23737 C 2345.32 -3.54481 0.661496 0
M  V30 23738 O 2344.43 -4.11316 -0.298778 0
M  V30 23739 H 2343.77 -0.634051 0.197169 0
M  V30 23740 H 2346.3 -1.67525 1.17458 0
M  V30 23741 H 2346.31 -4.04206 0.555143 0
M  V30 23742 H 2344.98 -3.80347 1.68253 0
M  V30 23743 H 2343.56 -3.72609 -0.147303 0
M  V30 23744 N 2345.74 -0.630439 -1.44441 0
M  V30 23745 C 2346.68 0.124207 -2.27862 0
M  V30 23746 C 2347.66 0.851907 -1.38497 0
M  V30 23747 O 2348.84 0.856136 -1.67936 0
M  V30 23748 C 2345.97 1.18191 -3.17409 0
M  V30 23749 C 2345.01 0.554817 -4.22876 0
M  V30 23750 S 2345.85 -0.654583 -5.31484 0
M  V30 23751 C 2347 0.40315 -6.246 0
M  V30 23752 H 2347.23 -0.583486 -2.91518 0
M  V30 23753 H 2344.77 -0.418591 -1.48618 0
M  V30 23754 H 2346.73 1.78722 -3.69552 0
M  V30 23755 H 2345.39 1.86179 -2.52974 0
M  V30 23756 H 2344.58 1.3514 -4.85544 0
M  V30 23757 H 2344.18 0.0241448 -3.73992 0
M  V30 23758 H 2346.47 1.2759 -6.65377 0
M  V30 23759 H 2347.42 -0.187937 -7.07851 0
M  V30 23760 H 2347.82 0.728739 -5.59776 0
M  V30 23761 N 2347.22 1.53172 -0.370945 0
M  V30 23762 C 2348.64 1.59587 -0.0201098 0
M  V30 23763 C 2348.84 1.38583 1.46277 0
M  V30 23764 O 2347.89 1.19367 2.22504 0
M  V30 23765 C 2349.21 2.9683 -0.480852 0
M  V30 23766 C 2350.76 3.09955 -0.435532 0
M  V30 23767 C 2351.23 4.49619 -0.872171 0
M  V30 23768 N 2352.72 4.55749 -0.827444 0
M  V30 23769 C 2353.46 5.62016 -1.13692 0
M  V30 23770 N 2352.95 6.76011 -1.51595 0
M  V30 23771 N 2354.75 5.52027 -1.05937 0
M  V30 23772 H 2346.9 1.65076 -1.33655 0
M  V30 23773 H 2349.16 0.77452 -0.546647 0
M  V30 23774 H 2348.87 3.17357 -1.51583 0
M  V30 23775 H 2348.74 3.76977 0.129729 0
M  V30 23776 H 2351.13 2.89135 0.59032 0
M  V30 23777 H 2351.21 2.31805 -1.08168 0
M  V30 23778 H 2350.85 4.71177 -1.89616 0
M  V30 23779 H 2350.78 5.26208 -0.20322 0
M  V30 23780 H 2353.27 3.73901 -0.548282 0
M  V30 23781 H 2353.59 7.53044 -1.73622 0
M  V30 23782 H 2351.93 6.77389 -1.55466 0
M  V30 23783 H 2355.12 4.6185 -0.762402 0
M  V30 23784 H 2355.29 6.34746 -1.30389 0
M  V30 23785 N 2348.7 0.100255 1.57281 0
M  V30 23786 C 2349.93 -0.570474 1.9888 0
M  V30 23787 C 2350.34 -1.61404 0.979505 0
M  V30 23788 O 2349.7 -1.82475 -0.0301967 0
M  V30 23789 C 2349.75 -1.21354 3.40522 0
M  V30 23790 O 2349.47 -0.211709 4.37588 0
M  V30 23791 C 2350.97 -1.96939 3.97153 0
M  V30 23792 H 2348.19 -0.152544 0.65343 0
M  V30 23793 H 2350.74 0.181066 2.03697 0
M  V30 23794 H 2348.89 -1.91597 3.36703 0
M  V30 23795 H 2349.31 -0.676515 5.20119 0
M  V30 23796 H 2350.78 -2.37285 4.98397 0
M  V30 23797 H 2351.26 -2.83727 3.35255 0
M  V30 23798 H 2351.86 -1.31499 4.0446 0
M  V30 23799 N 2350.18 -1.56643 -0.17346 0
M  V30 23800 C 2351.43 -1.82142 -0.891752 0
M  V30 23801 C 2351.76 -0.677768 -1.81989 0
M  V30 23802 O 2351.03 0.320412 -1.91843 0
M  V30 23803 C 2351.32 -3.18018 -1.68928 0
M  V30 23804 C 2351.17 -4.42908 -0.784409 0
M  V30 23805 C 2352.49 -3.50812 -2.65742 0
M  V30 23806 H 2349.61 -0.662572 -0.322749 0
M  V30 23807 H 2352.25 -1.89341 -0.158062 0
M  V30 23808 H 2350.4 -3.12011 -2.31476 0
M  V30 23809 H 2352.07 -4.60979 -0.171965 0
M  V30 23810 H 2350.31 -4.33702 -0.0923355 0
M  V30 23811 H 2350.99 -5.34526 -1.3779 0
M  V30 23812 H 2353.46 -3.57259 -2.1332 0
M  V30 23813 H 2352.34 -4.46965 -3.18612 0
M  V30 23814 H 2352.6 -2.75407 -3.45838 0
M  V30 23815 N 2351.66 0.44194 -1.51277 0
M  V30 23816 C 2352.91 1.18868 -1.62952 0
M  V30 23817 C 2353.22 1.92455 -0.349346 0
M  V30 23818 O 2354.43 2.69294 -0.345403 0
M  V30 23819 C 2352.88 2.1615 -2.87762 0
M  V30 23820 C 2352.49 1.48232 -4.22766 0
M  V30 23821 C 2354.23 2.91285 -3.08793 0
M  V30 23822 C 2352.14 2.43971 -5.38732 0
M  V30 23823 H 2351.07 0.447396 -0.606921 0
M  V30 23824 H 2353.72 0.456174 -1.77739 0
M  V30 23825 H 2352.1 2.92816 -2.66598 0
M  V30 23826 H 2353.28 0.771555 -4.54295 0
M  V30 23827 H 2351.59 0.85267 -4.07576 0
M  V30 23828 H 2354.19 3.62995 -3.92605 0
M  V30 23829 H 2354.53 3.52366 -2.21685 0
M  V30 23830 H 2355.07 2.21727 -3.30276 0
M  V30 23831 H 2351.8 1.87586 -6.28086 0
M  V30 23832 H 2351.32 3.13114 -5.11585 0
M  V30 23833 H 2353 3.05197 -5.70494 0
M  V30 23834 N 2353.14 1.41345 0.697083 0
M  V30 23835 C 2354.38 1.4083 1.45928 0
M  V30 23836 C 2354.71 0.0167439 1.94193 0
M  V30 23837 O 2353.99 -0.955233 1.69427 0
M  V30 23838 C 2354.27 2.41377 2.67224 0
M  V30 23839 C 2354.13 3.89634 2.24735 0
M  V30 23840 C 2355.44 2.39202 3.69419 0
M  V30 23841 H 2352.56 0.512852 0.529294 0
M  V30 23842 H 2355.21 1.7261 0.794082 0
M  V30 23843 H 2353.36 2.14407 3.23978 0
M  V30 23844 H 2355.03 4.27502 1.7332 0
M  V30 23845 H 2353.27 4.04573 1.56535 0
M  V30 23846 H 2353.94 4.55531 3.11762 0
M  V30 23847 H 2356.42 2.63133 3.22335 0
M  V30 23848 H 2355.29 3.11571 4.51901 0
M  V30 23849 H 2355.55 1.41008 4.1901 0
M  V30 23850 N 2354.61 -0.931187 1.27148 0
M  V30 23851 C 2355.55 -2.03544 1.05368 0
M  V30 23852 C 2356.56 -1.62796 0.0108724 0
M  V30 23853 O 2357.75 -1.76711 0.252051 0
M  V30 23854 C 2354.85 -3.33976 0.575625 0
M  V30 23855 C 2354.02 -4.03436 1.68992 0
M  V30 23856 C 2353.08 -5.12141 1.20822 0
M  V30 23857 O 2352.11 -5.36297 1.90721 0
M  V30 23858 N 2353.31 -5.80467 0.0619871 0
M  V30 23859 H 2356.07 -2.22793 2.00458 0
M  V30 23860 H 2353.63 -1.10134 1.18668 0
M  V30 23861 H 2355.63 -4.04003 0.237335 0
M  V30 23862 H 2354.2 -3.11326 -0.281961 0
M  V30 23863 H 2353.42 -3.27188 2.19867 0
M  V30 23864 H 2354.7 -4.46592 2.43788 0
M  V30 23865 H 2354.1 -5.63291 -0.521522 0
M  V30 23866 H 2352.66 -6.51438 -0.21715 0
M  V30 23867 N 2356.09 -1.09114 -1.13719 0
M  V30 23868 C 2357.37 -0.737737 -1.81154 0
M  V30 23869 C 2357.75 0.777649 -1.96255 0
M  V30 23870 O 2357.1 1.69886 -1.5281 0
M  V30 23871 C 2357.31 -1.47305 -3.16389 0
M  V30 23872 C 2358.65 -1.63677 -3.91784 0
M  V30 23873 O 2359.68 -1.4353 -3.26003 0
M  V30 23874 O 2358.54 -1.96978 -5.09767 0
M  V30 23875 H 2355.63 -0.264644 -0.783513 0
M  V30 23876 H 2358.18 -1.19315 -1.20674 0
M  V30 23877 H 2356.95 -2.50503 -3.00606 0
M  V30 23878 H 2356.57 -1.0096 -3.84568 0
M  V30 23879 N 2357.57 1.30887 -0.877861 0
M  V30 23880 C 2358.52 2.28318 -0.337578 0
M  V30 23881 C 2359.49 1.56075 0.568319 0
M  V30 23882 O 2360.67 1.84179 0.498266 0
M  V30 23883 C 2357.81 3.42179 0.448082 0
M  V30 23884 C 2356.92 4.29255 -0.486225 0
M  V30 23885 C 2356.06 5.30269 0.314334 0
M  V30 23886 C 2355.1 6.08994 -0.615898 0
M  V30 23887 N 2354.24 7.01942 0.148897 0
M  V30 23888 H 2359.08 2.73917 -1.1736 0
M  V30 23889 H 2356.61 1.34744 -0.590117 0
M  V30 23890 H 2358.57 4.06942 0.919445 0
M  V30 23891 H 2357.2 2.97668 1.24874 0
M  V30 23892 H 2356.25 3.64863 -1.07606 0
M  V30 23893 H 2357.56 4.84171 -1.19918 0
M  V30 23894 H 2356.72 6.00746 0.847863 0
M  V30 23895 H 2355.46 4.76029 1.06054 0
M  V30 23896 H 2354.46 5.37399 -1.16112 0
M  V30 23897 H 2355.69 6.6532 -1.36108 0
M  V30 23898 H 2353.63 6.50101 0.87777 0
M  V30 23899 H 2353.55 7.54314 -0.504565 0
M  V30 23900 H 2354.82 7.76672 0.6634 0
M  V30 23901 N 2359.05 0.638091 1.44105 0
M  V30 23902 C 2360.3 0.14278 2.01194 0
M  V30 23903 C 2360.61 -1.2453 1.50837 0
M  V30 23904 O 2361.82 -1.835 2.001 0
M  V30 23905 C 2360.27 0.204484 3.59319 0
M  V30 23906 C 2359.88 1.59431 4.18671 0
M  V30 23907 C 2361.62 -0.234004 4.23855 0
M  V30 23908 C 2359.53 1.61075 5.69042 0
M  V30 23909 H 2358.46 0.0496131 0.752366 0
M  V30 23910 H 2361.11 0.79791 1.65244 0
M  V30 23911 H 2359.49 -0.517877 3.92599 0
M  V30 23912 H 2360.67 2.34081 3.96917 0
M  V30 23913 H 2358.98 1.97747 3.66449 0
M  V30 23914 H 2361.58 -0.241349 5.34155 0
M  V30 23915 H 2361.92 -1.26263 3.9669 0
M  V30 23916 H 2362.46 0.436095 3.95402 0
M  V30 23917 H 2359.19 2.61798 6.00951 0
M  V30 23918 H 2358.71 0.907285 5.92898 0
M  V30 23919 H 2360.39 1.34777 6.32807 0
M  V30 23920 N 2360.53 -1.52973 0.379063 0
M  V30 23921 C 2361.77 -2.01446 -0.206386 0
M  V30 23922 C 2362.1 -1.2659 -1.47666 0
M  V30 23923 O 2361.36 -0.351709 -1.92514 0
M  V30 23924 C 2361.65 -3.53435 -0.530898 0
M  V30 23925 C 2361.32 -4.46239 0.646625 0
M  V30 23926 C 2359.98 -4.71328 0.969687 0
M  V30 23927 C 2362.33 -5.0106 1.43487 0
M  V30 23928 C 2359.66 -5.48488 2.08273 0
M  V30 23929 C 2362.01 -5.79436 2.53844 0
M  V30 23930 C 2360.68 -6.02807 2.8667 0
M  V30 23931 H 2359.95 -0.737141 -0.075522 0
M  V30 23932 H 2362.6 -1.84465 0.514303 0
M  V30 23933 H 2360.9 -3.68435 -1.33278 0
M  V30 23934 H 2362.6 -3.88425 -0.996349 0
M  V30 23935 H 2359.19 -4.26869 0.384809 0
M  V30 23936 H 2363.37 -4.81611 1.19853 0
M  V30 23937 H 2358.63 -5.64812 2.34088 0
M  V30 23938 H 2362.8 -6.20919 3.1533 0
M  V30 23939 H 2360.43 -6.6238 3.73037 0
M  V30 23940 N 2362 -0.108595 -1.57225 0
M  V30 23941 C 2363.25 0.54653 -1.9592 0
M  V30 23942 C 2363.6 1.64948 -0.990446 0
M  V30 23943 O 2362.9 1.91591 -0.0186929 0
M  V30 23944 C 2363.09 1.13457 -3.38913 0
M  V30 23945 C 2362.92 0.0901136 -4.4961 0
M  V30 23946 C 2361.69 -0.338096 -5.04168 0
M  V30 23947 C 2363.89 -0.686898 -5.09692 0
M  V30 23948 N 2361.87 -1.36941 -5.98432 0
M  V30 23949 C 2363.24 -1.56968 -5.99801 0
M  V30 23950 C 2365.3 -0.738932 -4.92386 0
M  V30 23951 C 2364 -2.49995 -6.74459 0
M  V30 23952 C 2366.03 -1.65686 -5.67717 0
M  V30 23953 C 2365.39 -2.52724 -6.57503 0
M  V30 23954 H 2361.49 0.169923 -0.763315 0
M  V30 23955 H 2364.07 -0.194298 -1.93728 0
M  V30 23956 H 2362.24 1.84516 -3.41772 0
M  V30 23957 H 2363.97 1.75316 -3.64755 0
M  V30 23958 H 2360.73 0.0522841 -4.73571 0
M  V30 23959 H 2361.15 -1.88368 -6.50267 0
M  V30 23960 H 2365.79 -0.0801583 -4.22724 0
M  V30 23961 H 2363.51 -3.16891 -7.43375 0
M  V30 23962 H 2367.1 -1.70243 -5.56335 0
M  V30 23963 H 2365.98 -3.22599 -7.14772 0
M  V30 23964 N 2363.48 1.56732 0.16515 0
M  V30 23965 C 2364.89 1.71963 0.727016 0
M  V30 23966 C 2365.24 0.72011 1.82507 0
M  V30 23967 O 2364.37 -0.117204 2.16082 0
M  V30 23968 C 2364.96 3.11793 1.32554 0
M  V30 23969 C 2363.52 3.28688 1.83416 0
M  V30 23970 C 2362.67 2.6791 0.71552 0
M  V30 23971 H 2365.62 1.58585 -0.0603175 0
M  V30 23972 H 2365.64 3.10786 2.19528 0
M  V30 23973 H 2365.15 3.84517 0.526127 0
M  V30 23974 H 2363.25 2.6093 2.65981 0
M  V30 23975 H 2363.37 4.36482 1.97536 0
M  V30 23976 H 2361.73 2.27886 1.13754 0
M  V30 23977 H 2362.51 3.43224 -0.0721439 0
M  V30 23978 N 2364.96 -0.433911 1.51509 0
M  V30 23979 C 2366.2 -1.1925 1.66008 0
M  V30 23980 C 2366.56 -1.88403 0.369901 0
M  V30 23981 O 2367.76 -2.65945 0.390707 0
M  V30 23982 C 2366.04 -2.17976 2.83233 0
M  V30 23983 S 2367.6 -3.02276 3.1808 0
M  V30 23984 H 2364.41 -0.404347 0.584828 0
M  V30 23985 H 2367.01 -0.483537 1.89426 0
M  V30 23986 H 2365.72 -1.65817 3.7541 0
M  V30 23987 H 2365.25 -2.93448 2.62015 0
M  V30 23988 H 2367.26 -4.1965 2.6478 0
M  V30 23989 N 2366.44 -1.41713 -0.689577 0
M  V30 23990 C 2367.69 -1.41113 -1.44678 0
M  V30 23991 C 2368.01 -0.0232539 -1.94986 0
M  V30 23992 O 2367.28 0.935883 -1.72099 0
M  V30 23993 H 2365.86 -0.519436 -0.536838 0
M  V30 23994 H 2368.52 -1.77005 -0.815794 0
M  V30 23995 H 2367.62 -2.10197 -2.30702 0
M  V30 23996 N 2367.92 0.924431 -1.2764 0
M  V30 23997 C 2368.85 2.04242 -1.1317 0
M  V30 23998 C 2369.83 1.70069 -0.0322859 0
M  V30 23999 O 2371.01 1.9309 -0.207362 0
M  V30 24000 C 2368.14 3.38392 -0.781556 0
M  V30 24001 C 2367.1 3.86688 -1.83456 0
M  V30 24002 C 2366.42 5.17681 -1.33831 0
M  V30 24003 C 2367.72 4.0972 -3.23924 0
M  V30 24004 H 2369.42 2.16607 -2.06693 0
M  V30 24005 H 2366.96 1.0408 -0.995155 0
M  V30 24006 H 2368.92 4.16086 -0.66713 0
M  V30 24007 H 2367.64 3.2605 0.189381 0
M  V30 24008 H 2366.3 3.1119 -1.93794 0
M  V30 24009 H 2365.95 5.01733 -0.356738 0
M  V30 24010 H 2365.65 5.50965 -2.04234 0
M  V30 24011 H 2367.17 5.97941 -1.23689 0
M  V30 24012 H 2368.58 4.77973 -3.16567 0
M  V30 24013 H 2366.98 4.54317 -3.92067 0
M  V30 24014 H 2368.05 3.14901 -3.68735 0
M  V30 24015 N 2369.39 1.09715 1.13139 0
M  V30 24016 C 2370.62 0.856931 1.8832 0
M  V30 24017 C 2371.04 -0.592041 1.79277 0
M  V30 24018 O 2370.39 -1.40772 1.16145 0
M  V30 24019 C 2370.45 1.28712 3.3781 0
M  V30 24020 O 2370.17 2.67927 3.46622 0
M  V30 24021 C 2371.67 1.07972 4.2995 0
M  V30 24022 H 2368.89 0.30809 0.596089 0
M  V30 24023 H 2371.43 1.45991 1.43203 0
M  V30 24024 H 2369.59 0.727979 3.80499 0
M  V30 24025 H 2370 2.86138 4.39574 0
M  V30 24026 H 2371.47 1.42995 5.33157 0
M  V30 24027 H 2371.95 0.0177349 4.39196 0
M  V30 24028 H 2372.56 1.62495 3.93033 0
M  V30 24029 N 2370.87 -1.30419 0.88479 0
M  V30 24030 C 2372.12 -1.95425 0.499198 0
M  V30 24031 C 2372.43 -1.70622 -0.95642 0
M  V30 24032 O 2373.64 -2.2961 -1.44885 0
M  V30 24033 C 2372.1 -3.49916 0.841832 0
M  V30 24034 C 2371.7 -3.83539 2.31521 0
M  V30 24035 C 2373.45 -4.21236 0.52543 0
M  V30 24036 C 2371.36 -5.31207 2.59948 0
M  V30 24037 H 2370.29 -0.731466 0.182956 0
M  V30 24038 H 2372.94 -1.48371 1.07974 0
M  V30 24039 H 2371.32 -3.95542 0.19038 0
M  V30 24040 H 2372.49 -3.48823 3.01096 0
M  V30 24041 H 2370.81 -3.25322 2.59913 0
M  V30 24042 H 2373.4 -5.299 0.714856 0
M  V30 24043 H 2373.75 -4.12846 -0.535149 0
M  V30 24044 H 2374.28 -3.81292 1.13407 0
M  V30 24045 H 2371.02 -5.44647 3.64746 0
M  V30 24046 H 2370.54 -5.67223 1.94982 0
M  V30 24047 H 2372.22 -5.98639 2.4544 0
M  V30 24048 N 2372.35 -0.645724 -1.43764 0
M  V30 24049 C 2373.63 -0.0863307 -1.95409 0
M  V30 24050 C 2374.01 1.39172 -1.58727 0
M  V30 24051 O 2373.36 2.11346 -0.868619 0
M  V30 24052 C 2373.57 -0.324626 -3.47487 0
M  V30 24053 C 2374.91 -0.225572 -4.24 0
M  V30 24054 O 2375.94 -0.256778 -3.55273 0
M  V30 24055 O 2374.8 -0.142897 -5.46313 0
M  V30 24056 H 2371.89 0.0139337 -0.826883 0
M  V30 24057 H 2374.44 -0.718442 -1.53742 0
M  V30 24058 H 2373.21 -1.34966 -3.67287 0
M  V30 24059 H 2372.83 0.340918 -3.96136 0
M  V30 24060 N 2373.83 1.5277 -0.38717 0
M  V30 24061 C 2375.06 2.05672 0.195549 0
M  V30 24062 C 2375.47 1.2589 1.41239 0
M  V30 24063 O 2374.81 0.298113 1.81265 0
M  V30 24064 C 2374.87 3.53896 0.632265 0
M  V30 24065 C 2374.54 4.54568 -0.470819 0
M  V30 24066 C 2375.53 5.02665 -1.32755 0
M  V30 24067 C 2373.22 4.98241 -0.637239 0
M  V30 24068 C 2375.21 5.93057 -2.33585 0
M  V30 24069 C 2372.9 5.88435 -1.64888 0
M  V30 24070 C 2373.9 6.35735 -2.4966 0
M  V30 24071 O 2373.58 7.24146 -3.49095 0
M  V30 24072 H 2373.32 0.675162 0.0336462 0
M  V30 24073 H 2375.87 1.97892 -0.550255 0
M  V30 24074 H 2374.1 3.59287 1.43001 0
M  V30 24075 H 2375.79 3.8955 1.14041 0
M  V30 24076 H 2376.56 4.69657 -1.21028 0
M  V30 24077 H 2372.43 4.60998 0.0128757 0
M  V30 24078 H 2375.98 6.29899 -2.99788 0
M  V30 24079 H 2371.88 6.20857 -1.76654 0
M  V30 24080 H 2372.64 7.42202 -3.45078 0
M  V30 24081 N 2375.31 0.116931 1.57166 0
M  V30 24082 C 2376.72 -0.408777 1.8217 0
M  V30 24083 C 2377.07 -1.66744 1.03396 0
M  V30 24084 O 2376.19 -2.1471 0.269924 0
M  V30 24085 C 2376.79 -0.748408 3.3043 0
M  V30 24086 C 2375.35 -1.21876 3.56122 0
M  V30 24087 C 2374.49 -0.226403 2.76374 0
M  V30 24088 H 2377.45 0.342091 1.54969 0
M  V30 24089 H 2377.47 -1.60601 3.44946 0
M  V30 24090 H 2376.98 0.167853 3.87737 0
M  V30 24091 H 2375.08 -2.15199 3.04171 0
M  V30 24092 H 2375.19 -1.16551 4.64707 0
M  V30 24093 H 2373.56 -0.71302 2.44516 0
M  V30 24094 H 2374.34 0.682918 3.36439 0
M  V30 24095 N 2376.78 -1.56818 -0.156836 0
M  V30 24096 C 2377.73 -1.98457 -1.21315 0
M  V30 24097 C 2378.73 -0.87547 -1.45024 0
M  V30 24098 O 2379.93 -1.06063 -1.45433 0
M  V30 24099 H 2376.31 -0.631612 -0.408131 0
M  V30 24100 H 2378.28 -2.86474 -0.835194 0
M  V30 24101 C 2377.03 -2.3729 -2.54144 0
M  V30 24102 H 2376.35 -3.2218 -2.36727 0
M  V30 24103 H 2377.79 -2.70257 -3.26707 0
M  V30 24104 C 2376.25 -1.22179 -3.13965 0
M  V30 24105 O 2376.78 -0.517219 -3.98356 0
M  V30 24106 N 2374.99 -0.988584 -2.73268 0
M  V30 24107 H 2374.53 -1.5633 -2.04741 0
M  V30 24108 H 2374.49 -0.220264 -3.13627 0
M  V30 24109 N 2378.26 0.425871 -1.51737 0
M  V30 24110 C 2379.68 0.763235 -1.40167 0
M  V30 24111 C 2379.88 1.95376 -0.492996 0
M  V30 24112 O 2378.93 2.52455 0.0475371 0
M  V30 24113 C 2380.25 1.03286 -2.82405 0
M  V30 24114 C 2381.8 1.13659 -2.91634 0
M  V30 24115 C 2382.27 1.43908 -4.34804 0
M  V30 24116 N 2383.76 1.50808 -4.37962 0
M  V30 24117 C 2384.5 1.75807 -5.45783 0
M  V30 24118 N 2383.99 1.98522 -6.63748 0
M  V30 24119 N 2385.79 1.77684 -5.33277 0
M  V30 24120 H 2377.94 -0.358037 -2.09361 0
M  V30 24121 H 2380.2 -0.097826 -0.942939 0
M  V30 24122 H 2379.91 0.230634 -3.50943 0
M  V30 24123 H 2379.78 1.95749 -3.22432 0
M  V30 24124 H 2382.17 1.92943 -2.23287 0
M  V30 24125 H 2382.25 0.190711 -2.55088 0
M  V30 24126 H 2381.89 0.651482 -5.03704 0
M  V30 24127 H 2381.82 2.39721 -4.68872 0
M  V30 24128 H 2384.31 1.35111 -3.52921 0
M  V30 24129 H 2384.63 2.17 -7.41708 0
M  V30 24130 H 2382.97 1.95821 -6.66843 0
M  V30 24131 H 2386.16 1.59465 -4.401 0
M  V30 24132 H 2386.33 1.96829 -6.17384 0
M  V30 24133 N 2379.74 1.42077 0.682052 0
M  V30 24134 C 2380.67 1.4777 1.80793 0
M  V30 24135 C 2381.65 0.334983 1.66769 0
M  V30 24136 O 2382.84 0.548297 1.86299 0
M  V30 24137 C 2379.97 1.37235 3.19036 0
M  V30 24138 C 2378.92 2.49459 3.47785 0
M  V30 24139 C 2378.25 2.23983 4.85526 0
M  V30 24140 C 2379.55 3.91783 3.45404 0
M  V30 24141 H 2381.24 2.42 1.76285 0
M  V30 24142 H 2378.79 1.16477 0.846701 0
M  V30 24143 H 2380.74 1.39828 3.97525 0
M  V30 24144 H 2379.46 0.394964 3.24203 0
M  V30 24145 H 2378.12 2.46171 2.71653 0
M  V30 24146 H 2377.77 1.24556 4.87334 0
M  V30 24147 H 2377.47 2.99193 5.05725 0
M  V30 24148 H 2378.99 2.28314 5.66308 0
M  V30 24149 H 2380.41 3.96712 4.13875 0
M  V30 24150 H 2378.81 4.66784 3.77137 0
M  V30 24151 H 2379.88 4.1897 2.44115 0
M  V30 24152 N 2381.22 -0.917649 1.28129 0
M  V30 24153 C 2382.15 -2.03639 1.14251 0
M  V30 24154 C 2383.13 -1.7005 0.0413047 0
M  V30 24155 O 2384.32 -1.92977 0.217599 0
M  V30 24156 C 2381.45 -3.37973 0.799491 0
M  V30 24157 C 2380.4 -3.8571 1.85504 0
M  V30 24158 C 2379.73 -5.16964 1.36575 0
M  V30 24159 C 2381.03 -4.07997 3.26092 0
M  V30 24160 H 2382.72 -2.15508 2.07839 0
M  V30 24161 H 2380.27 -1.03551 1.00066 0
M  V30 24162 H 2382.22 -4.15726 0.689187 0
M  V30 24163 H 2380.94 -3.26146 -0.172088 0
M  V30 24164 H 2379.6 -3.10158 1.95442 0
M  V30 24165 H 2379.25 -5.01537 0.383341 0
M  V30 24166 H 2378.95 -5.49874 2.07153 0
M  V30 24167 H 2380.47 -5.97277 1.26859 0
M  V30 24168 H 2381.89 -4.76287 3.19098 0
M  V30 24169 H 2380.28 -4.52231 3.9447 0
M  V30 24170 H 2381.35 -3.12941 3.70399 0
M  V30 24171 N 2382.7 -1.10314 -1.12555 0
M  V30 24172 C 2383.93 -0.865649 -1.8759 0
M  V30 24173 C 2384.34 0.587358 -1.79852 0
M  V30 24174 O 2383.68 1.41662 -1.16951 0
M  V30 24175 C 2383.74 -1.23387 -3.37662 0
M  V30 24176 C 2383.4 -2.69365 -3.69177 0
M  V30 24177 C 2384.4 -3.67604 -3.67646 0
M  V30 24178 C 2382.09 -3.05718 -3.98549 0
M  V30 24179 C 2384.08 -5.00219 -3.95044 0
M  V30 24180 C 2381.77 -4.38522 -4.25608 0
M  V30 24181 C 2382.77 -5.35581 -4.23842 0
M  V30 24182 O 2382.45 -6.65994 -4.5023 0
M  V30 24183 H 2382.19 -0.310567 -0.600436 0
M  V30 24184 H 2384.74 -1.47107 -1.43348 0
M  V30 24185 H 2382.97 -0.571534 -3.82453 0
M  V30 24186 H 2384.66 -0.974063 -3.94039 0
M  V30 24187 H 2385.42 -3.40863 -3.45018 0
M  V30 24188 H 2381.3 -2.30796 -3.99066 0
M  V30 24189 H 2384.85 -5.75969 -3.93581 0
M  V30 24190 H 2380.74 -4.65001 -4.4771 0
M  V30 24191 H 2381.51 -6.71606 -4.67855 0
M  V30 24192 N 2384.18 1.29948 -0.891694 0
M  V30 24193 C 2385.42 1.9588 -0.513535 0
M  V30 24194 C 2385.75 1.70353 0.938626 0
M  V30 24195 O 2385.01 1.00481 1.67935 0
M  V30 24196 C 2385.3 3.49593 -0.74293 0
M  V30 24197 C 2384.97 3.95183 -2.17121 0
M  V30 24198 C 2383.63 4.07342 -2.56176 0
M  V30 24199 C 2385.98 4.18861 -3.10169 0
M  V30 24200 C 2383.31 4.40543 -3.87477 0
M  V30 24201 C 2385.66 4.53534 -4.41009 0
M  V30 24202 C 2384.33 4.63902 -4.79949 0
M  V30 24203 H 2383.6 0.716777 -0.187916 0
M  V30 24204 H 2386.25 1.54692 -1.12883 0
M  V30 24205 H 2384.55 3.91775 -0.0446549 0
M  V30 24206 H 2386.25 3.9869 -0.429837 0
M  V30 24207 H 2382.84 3.8623 -1.85808 0
M  V30 24208 H 2387.02 4.08941 -2.81213 0
M  V30 24209 H 2382.28 4.46772 -4.17379 0
M  V30 24210 H 2386.45 4.70806 -5.13142 0
M  V30 24211 H 2384.08 4.89385 -5.81727 0
M  V30 24212 N 2385.65 0.653339 1.4342 0
M  V30 24213 C 2386.59 -0.0879403 2.2803 0
M  V30 24214 C 2387.56 -0.829765 1.39834 0
M  V30 24215 O 2388.75 -0.829311 1.69277 0
M  V30 24216 C 2385.88 -1.13126 3.19249 0
M  V30 24217 C 2384.92 -0.487471 4.23705 0
M  V30 24218 S 2385.75 0.739054 5.30376 0
M  V30 24219 C 2386.91 -0.30373 6.25163 0
M  V30 24220 H 2387.14 0.629791 2.90553 0
M  V30 24221 H 2384.68 0.442182 1.47933 0
M  V30 24222 H 2386.63 -1.7282 3.72349 0
M  V30 24223 H 2385.3 -1.82131 2.55904 0
M  V30 24224 H 2384.49 -1.27398 4.87633 0
M  V30 24225 H 2384.09 0.0353572 3.73983 0
M  V30 24226 H 2386.38 -1.16988 6.67323 0
M  V30 24227 H 2387.33 0.300526 7.07462 0
M  V30 24228 H 2387.73 -0.639591 5.60865 0
M  V30 24229 N 2387.13 -1.52563 0.395266 0
M  V30 24230 C 2388.41 -1.94086 -0.242873 0
M  V30 24231 C 2388.79 -1.33116 -1.63839 0
M  V30 24232 O 2388.14 -0.501568 -2.22927 0
M  V30 24233 C 2388.35 -3.48006 -0.263209 0
M  V30 24234 C 2389.69 -4.21772 -0.48928 0
M  V30 24235 O 2390.72 -3.54543 -0.343163 0
M  V30 24236 O 2389.58 -5.40961 -0.776074 0
M  V30 24237 H 2386.67 -0.812814 -0.152522 0
M  V30 24238 H 2389.22 -1.63619 0.450206 0
M  V30 24239 H 2387.99 -3.8473 0.714052 0
M  V30 24240 H 2387.61 -3.84794 -1.00096 0
M  V30 24241 N 2388.61 -0.125265 -1.57101 0
M  V30 24242 C 2389.83 0.542066 -2.00191 0
M  V30 24243 C 2390.26 1.59032 -1.00452 0
M  V30 24244 O 2389.62 1.81286 0.0229104 0
M  V30 24245 C 2389.67 1.13923 -3.42131 0
M  V30 24246 O 2388.77 2.25464 -3.45311 0
M  V30 24247 H 2388.11 0.1348 -0.650173 0
M  V30 24248 H 2390.64 -0.215588 -2.03461 0
M  V30 24249 H 2390.65 1.47324 -3.80473 0
M  V30 24250 H 2389.33 0.371458 -4.14238 0
M  V30 24251 H 2387.9 1.93456 -3.18793 0
M  V30 24252 N 2390.09 1.56899 0.148518 0
M  V30 24253 C 2391.32 1.87152 0.875085 0
M  V30 24254 C 2391.73 0.711293 1.7532 0
M  V30 24255 O 2391.07 -0.32812 1.80746 0
M  V30 24256 C 2391.13 3.12092 1.78434 0
M  V30 24257 C 2390.79 4.43969 1.08354 0
M  V30 24258 C 2391.79 5.1805 0.438156 0
M  V30 24259 C 2389.48 4.90695 1.07349 0
M  V30 24260 C 2391.47 6.37061 -0.207902 0
M  V30 24261 C 2389.16 6.0963 0.423623 0
M  V30 24262 C 2390.16 6.82659 -0.215949 0
M  V30 24263 O 2389.84 7.99335 -0.855519 0
M  V30 24264 H 2389.58 0.624626 0.258493 0
M  V30 24265 H 2392.13 2.04877 0.146484 0
M  V30 24266 H 2390.36 2.90372 2.55384 0
M  V30 24267 H 2392.05 3.28604 2.38273 0
M  V30 24268 H 2392.81 4.83021 0.437732 0
M  V30 24269 H 2388.69 4.33777 1.56072 0
M  V30 24270 H 2392.24 6.94001 -0.707702 0
M  V30 24271 H 2388.13 6.44121 0.421708 0
M  V30 24272 H 2388.9 8.14992 -0.757035 0
M  V30 24273 N 2391.57 -0.417818 1.51961 0
M  V30 24274 C 2392.5 -1.51551 1.77636 0
M  V30 24275 C 2393.48 -1.58125 0.626946 0
M  V30 24276 O 2394.66 -1.73539 0.871662 0
M  V30 24277 C 2391.79 -2.89457 1.91917 0
M  V30 24278 C 2390.75 -2.97737 3.07468 0
M  V30 24279 C 2390.07 -4.37813 3.06959 0
M  V30 24280 C 2391.37 -2.70019 4.47087 0
M  V30 24281 H 2393.07 -1.30315 2.69552 0
M  V30 24282 H 2390.61 -0.625469 1.29707 0
M  V30 24283 H 2392.56 -3.66226 2.08461 0
M  V30 24284 H 2391.29 -3.11967 0.966653 0
M  V30 24285 H 2389.95 -2.23411 2.9066 0
M  V30 24286 H 2389.6 -4.5732 2.09446 0
M  V30 24287 H 2389.3 -4.4428 3.84564 0
M  V30 24288 H 2390.82 -5.16529 3.25622 0
M  V30 24289 H 2392.23 -3.36514 4.64145 0
M  V30 24290 H 2390.63 -2.87872 5.26545 0
M  V30 24291 H 2391.7 -1.65506 4.5578 0
M  V30 24292 N 2393.04 -1.42436 -0.674508 0
M  V30 24293 C 2394.32 -1.33405 -1.43047 0
M  V30 24294 C 2394.7 0.0284303 -2.11081 0
M  V30 24295 O 2394.05 1.04394 -2.03259 0
M  V30 24296 C 2394.26 -2.50243 -2.43268 0
M  V30 24297 C 2395.61 -2.92372 -3.07902 0
M  V30 24298 O 2396.63 -2.50136 -2.53595 0
M  V30 24299 O 2395.49 -3.65474 -4.06314 0
M  V30 24300 H 2392.58 -0.526118 -0.638067 0
M  V30 24301 H 2395.13 -1.54444 -0.703207 0
M  V30 24302 H 2393.9 -3.41071 -1.91797 0
M  V30 24303 H 2393.52 -2.31192 -3.23475 0
M  V30 24304 N 2394.52 0.910841 -1.28614 0
M  V30 24305 C 2395.75 1.69151 -1.18623 0
M  V30 24306 C 2396.16 1.87442 0.257291 0
M  V30 24307 O 2395.5 1.40334 1.18541 0
M  V30 24308 C 2395.56 3.10254 -1.81611 0
M  V30 24309 C 2395.23 3.15237 -3.30869 0
M  V30 24310 C 2396.23 2.96216 -4.27261 0
M  V30 24311 C 2393.91 3.37658 -3.71877 0
M  V30 24312 C 2395.9 2.99531 -5.62636 0
M  V30 24313 C 2393.59 3.40605 -5.07377 0
M  V30 24314 C 2394.59 3.21563 -6.02566 0
M  V30 24315 O 2394.28 3.24277 -7.35595 0
M  V30 24316 H 2394.01 0.535446 -0.412643 0
M  V30 24317 H 2396.56 1.14824 -1.70308 0
M  V30 24318 H 2394.79 3.66136 -1.24425 0
M  V30 24319 H 2396.48 3.70359 -1.66098 0
M  V30 24320 H 2397.25 2.78718 -3.96915 0
M  V30 24321 H 2393.13 3.51524 -2.98248 0
M  V30 24322 H 2396.67 2.84586 -6.36912 0
M  V30 24323 H 2392.57 3.57632 -5.37373 0
M  V30 24324 H 2393.34 3.40619 -7.44258 0
M  V30 24325 N 2396 1.10909 1.11969 0
M  V30 24326 C 2396.93 0.70623 2.16997 0
M  V30 24327 C 2397.91 -0.294869 1.59904 0
M  V30 24328 O 2399.1 -0.192603 1.87513 0
M  V30 24329 C 2396.22 0.042826 3.38673 0
M  V30 24330 C 2395.27 1.00819 4.14413 0
M  V30 24331 S 2396.1 2.52797 4.72074 0
M  V30 24332 C 2397.26 1.87741 5.9708 0
M  V30 24333 H 2397.49 1.59592 2.50834 0
M  V30 24334 H 2395.02 0.926577 1.23507 0
M  V30 24335 H 2396.98 -0.333596 4.09142 0
M  V30 24336 H 2395.64 -0.823734 3.03106 0
M  V30 24337 H 2394.84 0.491347 5.01599 0
M  V30 24338 H 2394.44 1.32676 3.49676 0
M  V30 24339 H 2396.73 1.21056 6.66597 0
M  V30 24340 H 2397.67 2.72904 6.53398 0
M  V30 24341 H 2398.08 1.33988 5.48368 0
M  V30 24342 N 2397.48 -1.29474 0.898573 0
M  V30 24343 C 2398.76 -1.90507 0.44345 0
M  V30 24344 C 2399.14 -1.81571 -1.07682 0
M  V30 24345 O 2398.48 -1.2417 -1.91818 0
M  V30 24346 C 2398.69 -3.35629 0.956767 0
M  V30 24347 C 2400.04 -4.12661 0.9998 0
M  V30 24348 O 2401.07 -3.44528 0.904359 0
M  V30 24349 O 2399.92 -5.34414 1.14298 0
M  V30 24350 H 2397.02 -0.815398 0.138039 0
M  V30 24351 H 2399.56 -1.37947 0.988364 0
M  V30 24352 H 2398.34 -3.36283 2.00073 0
M  V30 24353 H 2397.96 -3.95665 0.391798 0
M  V30 24354 N 2398.96 -0.660936 -1.43071 0
M  V30 24355 C 2400.2 -0.17748 -2.01721 0
M  V30 24356 C 2400.53 1.21123 -1.52182 0
M  V30 24357 O 2399.79 1.82417 -0.708691 0
M  V30 24358 C 2400.09 -0.145626 -3.57103 0
M  V30 24359 C 2399.75 -1.47713 -4.26019 0
M  V30 24360 C 2398.41 -1.84173 -4.4456 0
M  V30 24361 C 2400.77 -2.35467 -4.64978 0
M  V30 24362 C 2398.09 -3.08039 -4.99329 0
M  V30 24363 C 2400.45 -3.58631 -5.2112 0
M  V30 24364 C 2399.11 -3.95278 -5.37877 0
M  V30 24365 H 2398.38 -0.0649447 -0.738148 0
M  V30 24366 H 2401.03 -0.853175 -1.71444 0
M  V30 24367 H 2399.33 0.613542 -3.86966 0
M  V30 24368 H 2401.03 0.24543 -4.00248 0
M  V30 24369 H 2397.62 -1.18346 -4.11937 0
M  V30 24370 H 2401.8 -2.08586 -4.50339 0
M  V30 24371 H 2397.06 -3.36471 -5.10487 0
M  V30 24372 H 2401.23 -4.26841 -5.50254 0
M  V30 24373 H 2398.86 -4.91336 -5.80081 0
M  V30 24374 N 2400.43 1.52351 -0.403352 0
M  V30 24375 C 2401.67 2.03659 0.173911 0
M  V30 24376 C 2402.04 1.28269 1.42867 0
M  V30 24377 O 2403.24 1.69773 2.084 0
M  V30 24378 C 2401.51 3.54907 0.421416 0
M  V30 24379 S 2403.07 4.28013 0.966952 0
M  V30 24380 H 2399.89 0.709396 0.0477336 0
M  V30 24381 H 2402.49 1.87458 -0.554939 0
M  V30 24382 H 2401.19 4.07359 -0.498687 0
M  V30 24383 H 2400.72 3.75339 1.1783 0
M  V30 24384 H 2402.74 4.42354 2.24805 0
M  V30 24385 N 2401.91 0.133594 1.57033 0
M  V30 24386 C 2403.19 -0.565187 1.87257 0
M  V30 24387 C 2403.57 -1.83857 1.03729 0
M  V30 24388 O 2402.92 -2.28183 0.120287 0
M  V30 24389 C 2403.13 -0.843576 3.38651 0
M  V30 24390 C 2404.48 -1.19025 4.07576 0
M  V30 24391 O 2405.5 -0.933368 3.43754 0
M  V30 24392 O 2404.36 -1.67303 5.20262 0
M  V30 24393 H 2401.45 -0.286783 0.775683 0
M  V30 24394 H 2404 0.169198 1.68854 0
M  V30 24395 H 2402.77 0.0581836 3.91257 0
M  V30 24396 H 2402.39 -1.63261 3.62535 0
M  V30 24397 N 2403.39 -1.56975 -0.140195 0
M  V30 24398 C 2404.62 -1.87613 -0.865148 0
M  V30 24399 C 2405.03 -0.720581 -1.74941 0
M  V30 24400 O 2404.37 0.31853 -1.80917 0
M  V30 24401 C 2404.43 -3.13034 -1.76776 0
M  V30 24402 C 2404.1 -4.44537 -1.05998 0
M  V30 24403 C 2405.09 -5.18275 -0.410676 0
M  V30 24404 C 2402.78 -4.91257 -1.04746 0
M  V30 24405 C 2404.77 -6.36942 0.241684 0
M  V30 24406 C 2402.46 -6.09846 -0.391287 0
M  V30 24407 C 2403.46 -6.82534 0.252149 0
M  V30 24408 O 2403.15 -7.9887 0.897897 0
M  V30 24409 H 2402.88 -0.625988 -0.255177 0
M  V30 24410 H 2405.43 -2.04952 -0.135617 0
M  V30 24411 H 2403.66 -2.91722 -2.53841 0
M  V30 24412 H 2405.35 -3.29863 -2.36527 0
M  V30 24413 H 2406.12 -4.83246 -0.41211 0
M  V30 24414 H 2402 -4.34599 -1.5377 0
M  V30 24415 H 2405.54 -6.93616 0.744497 0
M  V30 24416 H 2401.44 -6.44336 -0.387543 0
M  V30 24417 H 2402.21 -8.14579 0.800245 0
M  V30 24418 N 2404.87 0.409753 -1.5218 0
M  V30 24419 C 2405.82 1.51972 -1.76089 0
M  V30 24420 C 2406.81 1.5733 -0.627991 0
M  V30 24421 O 2408.02 1.60744 -0.810022 0
M  V30 24422 H 2404.39 0.505406 -0.556838 0
M  V30 24423 H 2406.36 1.28992 -2.69079 0
M  V30 24424 C 2405.11 2.89347 -1.92805 0
M  V30 24425 H 2404.43 2.85967 -2.79397 0
M  V30 24426 H 2405.87 3.66305 -2.13533 0
M  V30 24427 C 2404.33 3.29654 -0.694981 0
M  V30 24428 O 2404.86 4.01465 0.13744 0
M  V30 24429 N 2403.07 2.85706 -0.53106 0
M  V30 24430 H 2402.62 2.27437 -1.20956 0
M  V30 24431 H 2402.57 3.13035 0.292663 0
M  V30 24432 N 2406.35 1.42792 0.666944 0
M  V30 24433 C 2407.59 1.43397 1.42414 0
M  V30 24434 C 2407.92 0.0542716 1.94924 0
M  V30 24435 O 2407.19 -0.908385 1.73566 0
M  V30 24436 H 2405.77 0.527911 0.528506 0
M  V30 24437 H 2408.43 1.78281 0.787531 0
M  V30 24438 H 2407.52 2.13841 2.27329 0
M  V30 24439 N 2407.82 -0.904008 1.29095 0
M  V30 24440 C 2408.77 -1.99441 1.10486 0
M  V30 24441 C 2409.76 -1.6088 0.0255683 0
M  V30 24442 O 2410.95 -1.75271 0.246801 0
M  V30 24443 C 2408.08 -3.34346 0.778941 0
M  V30 24444 C 2407.17 -3.7928 1.89756 0
M  V30 24445 N 2407.56 -3.96491 3.14052 0
M  V30 24446 C 2405.85 -4.0852 1.78962 0
M  V30 24447 C 2406.56 -4.34285 3.87003 0
M  V30 24448 N 2405.53 -4.43089 3.14917 0
M  V30 24449 H 2409.33 -2.10811 2.04782 0
M  V30 24450 H 2406.85 -1.09253 1.20156 0
M  V30 24451 H 2408.84 -4.12163 0.626682 0
M  V30 24452 H 2407.5 -3.24324 -0.156148 0
M  V30 24453 H 2408.52 -3.82141 3.49555 0
M  V30 24454 H 2405.19 -4.0708 0.926957 0
M  V30 24455 H 2406.58 -4.55482 4.93949 0
M  V30 24456 N 2409.3 -1.11501 -1.11379 0
M  V30 24457 C 2410.25 -0.743018 -2.15553 0
M  V30 24458 C 2411.24 0.253248 -1.58894 0
M  V30 24459 O 2412.43 0.0602607 -1.76897 0
M  V30 24460 C 2409.56 -0.188541 -3.42782 0
M  V30 24461 C 2408.64 -1.21251 -4.06398 0
M  V30 24462 N 2409.03 -2.40693 -4.4486 0
M  V30 24463 C 2407.33 -1.05559 -4.33328 0
M  V30 24464 C 2408.03 -3.06003 -4.94709 0
M  V30 24465 N 2407.01 -2.33481 -4.90905 0
M  V30 24466 H 2410.81 -1.65207 -2.43072 0
M  V30 24467 H 2408.33 -0.994351 -1.28399 0
M  V30 24468 H 2410.32 0.096096 -4.16789 0
M  V30 24469 H 2408.98 0.715093 -3.16728 0
M  V30 24470 H 2409.99 -2.78143 -4.36871 0
M  V30 24471 H 2406.67 -0.208445 -4.16979 0
M  V30 24472 H 2408.06 -4.07666 -5.34096 0
M  V30 24473 N 2410.78 1.28995 -0.905426 0
M  V30 24474 C 2412.2 1.47797 -0.602356 0
M  V30 24475 C 2412.4 1.82479 0.854613 0
M  V30 24476 O 2411.45 1.92471 1.63435 0
M  V30 24477 C 2412.77 2.58682 -1.5331 0
M  V30 24478 C 2414.31 2.72555 -1.53892 0
M  V30 24479 C 2414.79 3.86575 -2.45609 0
M  V30 24480 N 2416.28 3.93917 -2.43688 0
M  V30 24481 C 2417.02 4.81503 -3.11356 0
M  V30 24482 N 2416.51 5.7374 -3.88323 0
M  V30 24483 N 2418.3 4.75043 -3.00484 0
M  V30 24484 H 2410.46 1.04761 -1.84767 0
M  V30 24485 H 2412.72 0.520947 -0.792034 0
M  V30 24486 H 2412.42 2.39936 -2.57145 0
M  V30 24487 H 2412.3 3.55607 -1.25793 0
M  V30 24488 H 2414.69 2.90695 -0.507992 0
M  V30 24489 H 2414.77 1.76188 -1.8545 0
M  V30 24490 H 2414.41 3.69191 -3.48799 0
M  V30 24491 H 2414.34 4.82323 -2.11358 0
M  V30 24492 H 2416.83 3.27948 -1.87772 0
M  V30 24493 H 2417.14 6.37381 -4.36996 0
M  V30 24494 H 2415.49 5.73607 -3.92429 0
M  V30 24495 H 2418.68 4.01973 -2.39865 0
M  V30 24496 H 2418.85 5.43089 -3.53494 0
M  V30 24497 N 2412.26 0.668514 1.42719 0
M  V30 24498 C 2413.68 0.337478 1.55991 0
M  V30 24499 C 2413.88 -1.15753 1.64935 0
M  V30 24500 O 2412.93 -1.9428 1.61281 0
M  V30 24501 C 2414.24 1.06227 2.81312 0
M  V30 24502 C 2415.79 1.04399 2.95076 0
M  V30 24503 C 2416.27 1.74999 4.23249 0
M  V30 24504 N 2417.76 1.71836 4.30147 0
M  V30 24505 C 2418.49 2.23324 5.28123 0
M  V30 24506 N 2417.99 2.83167 6.32288 0
M  V30 24507 N 2419.78 2.13735 5.19878 0
M  V30 24508 H 2411.93 1.63848 1.35157 0
M  V30 24509 H 2414.2 0.689923 0.650162 0
M  V30 24510 H 2413.9 2.11739 2.80819 0
M  V30 24511 H 2413.78 0.623505 3.72011 0
M  V30 24512 H 2416.16 -0.00277253 2.951 0
M  V30 24513 H 2416.24 1.52159 2.05624 0
M  V30 24514 H 2415.89 2.7964 4.23986 0
M  V30 24515 H 2415.82 1.24694 5.11624 0
M  V30 24516 H 2418.31 1.28182 3.55497 0
M  V30 24517 H 2418.62 3.20092 7.03393 0
M  V30 24518 H 2416.97 2.87234 6.32868 0
M  V30 24519 H 2420.16 1.66677 4.3742 0
M  V30 24520 H 2420.33 2.54169 5.96072 0
M  V30 24521 N 2413.74 -1.52135 0.411426 0
M  V30 24522 C 2414.67 -2.24772 -0.448347 0
M  V30 24523 C 2415.68 -1.2782 -1.00826 0
M  V30 24524 O 2416.87 -1.5375 -0.906814 0
M  V30 24525 C 2413.97 -2.9678 -1.63631 0
M  V30 24526 C 2413.14 -4.20621 -1.19988 0
M  V30 24527 C 2412.2 -4.75432 -2.25501 0
M  V30 24528 O 2411.23 -5.37953 -1.85997 0
M  V30 24529 N 2412.43 -4.57205 -3.57692 0
M  V30 24530 H 2415.2 -2.99194 0.174078 0
M  V30 24531 H 2412.76 -1.60127 0.238925 0
M  V30 24532 H 2414.75 -3.30342 -2.33787 0
M  V30 24533 H 2413.32 -2.25529 -2.16461 0
M  V30 24534 H 2412.54 -3.92847 -0.326352 0
M  V30 24535 H 2413.83 -5.01039 -0.885277 0
M  V30 24536 H 2413.23 -4.07348 -3.92536 0
M  V30 24537 H 2411.78 -4.95199 -4.23818 0
M  V30 24538 N 2415.22 -0.14192 -1.5696 0
M  V30 24539 C 2416.46 0.511214 -1.96251 0
M  V30 24540 C 2416.79 1.64849 -1.02657 0
M  V30 24541 O 2416.07 1.94381 -0.0680017 0
M  V30 24542 C 2416.35 1.02221 -3.45287 0
M  V30 24543 C 2416.21 -0.113217 -4.49657 0
M  V30 24544 C 2417.52 1.90567 -3.96702 0
M  V30 24545 H 2414.64 0.184355 -0.71357 0
M  V30 24546 H 2417.29 -0.22212 -1.88697 0
M  V30 24547 H 2415.44 1.64713 -3.51855 0
M  V30 24548 H 2417.11 -0.749382 -4.55172 0
M  V30 24549 H 2415.35 -0.773101 -4.26855 0
M  V30 24550 H 2416.02 0.285956 -5.51259 0
M  V30 24551 H 2418.5 1.37911 -3.92581 0
M  V30 24552 H 2417.37 2.23232 -5.01457 0
M  V30 24553 H 2417.63 2.84073 -3.38755 0
M  V30 24554 N 2416.69 1.57047 0.131868 0
M  V30 24555 C 2417.94 1.83358 0.840408 0
M  V30 24556 C 2418.26 0.725567 1.81645 0
M  V30 24557 O 2419.46 0.874704 2.57024 0
M  V30 24558 C 2417.92 3.2504 1.54522 0
M  V30 24559 C 2417.53 4.43816 0.610823 0
M  V30 24560 C 2419.27 3.6061 2.23965 0
M  V30 24561 C 2417.18 5.76523 1.31813 0
M  V30 24562 H 2416.11 0.683853 0.317587 0
M  V30 24563 H 2418.76 1.83264 0.0931239 0
M  V30 24564 H 2417.14 3.19565 2.33867 0
M  V30 24565 H 2418.31 4.60561 -0.148488 0
M  V30 24566 H 2416.63 4.16393 0.0240284 0
M  V30 24567 H 2419.23 4.57023 2.7755 0
M  V30 24568 H 2419.57 2.87409 3.01168 0
M  V30 24569 H 2420.1 3.67812 1.51522 0
M  V30 24570 H 2416.84 6.52861 0.587656 0
M  V30 24571 H 2416.36 5.63688 2.04977 0
M  V30 24572 H 2418.04 6.19841 1.85489 0
M  V30 24573 N 2418.17 -0.401677 1.52395 0
M  V30 24574 C 2419.13 -1.47254 1.75639 0
M  V30 24575 C 2420.13 -1.48101 0.626306 0
M  V30 24576 O 2421.32 -1.49495 0.894253 0
M  V30 24577 C 2418.46 -2.8662 1.84558 0
M  V30 24578 H 2419.65 -1.27933 2.71244 0
M  V30 24579 H 2417.2 -0.632637 1.42924 0
M  V30 24580 H 2417.94 -3.11302 0.908937 0
M  V30 24581 H 2417.72 -2.87407 2.6672 0
M  V30 24582 H 2419.21 -3.64237 2.04257 0
M  V30 24583 N 2419.65 -1.43144 -0.659362 0
M  V30 24584 C 2420.87 -1.48075 -1.45219 0
M  V30 24585 C 2421.3 -0.098028 -1.87844 0
M  V30 24586 O 2420.66 0.906913 -1.56987 0
M  V30 24587 C 2420.71 -2.42652 -2.66744 0
M  V30 24588 O 2419.81 -1.90854 -3.6558 0
M  V30 24589 H 2419.15 -0.501095 -0.43566 0
M  V30 24590 H 2421.68 -1.87995 -0.807399 0
M  V30 24591 H 2421.69 -2.59751 -3.14632 0
M  V30 24592 H 2420.37 -3.43103 -2.35061 0
M  V30 24593 H 2418.94 -1.83387 -3.2469 0
M  V30 24594 N 2421.13 0.897149 -1.29572 0
M  V30 24595 C 2422.4 1.62837 -1.08368 0
M  V30 24596 C 2422.78 2.07809 0.371294 0
M  V30 24597 O 2422.13 1.83578 1.36057 0
M  V30 24598 C 2422.34 2.80722 -2.07354 0
M  V30 24599 C 2423.69 3.51347 -2.38412 0
M  V30 24600 O 2424.71 2.90895 -2.05569 0
M  V30 24601 O 2423.57 4.60336 -2.94538 0
M  V30 24602 H 2420.67 0.715127 -0.415358 0
M  V30 24603 H 2423.21 0.944993 -1.40954 0
M  V30 24604 H 2421.99 2.44706 -3.05343 0
M  V30 24605 H 2421.61 3.56764 -1.75514 0
M  V30 24606 N 2422.61 1.1209 1.10786 0
M  V30 24607 C 2423.54 0.807793 2.19082 0
M  V30 24608 C 2424.52 -0.226829 1.68581 0
M  V30 24609 O 2425.7 -0.0888134 1.93997 0
M  V30 24610 C 2422.83 0.257637 3.46343 0
M  V30 24611 C 2421.79 1.22491 4.10098 0
M  V30 24612 C 2421.11 0.535145 5.32015 0
M  V30 24613 C 2422.41 2.57819 4.54232 0
M  V30 24614 H 2424.11 1.71333 2.45531 0
M  V30 24615 H 2421.65 0.825225 1.18009 0
M  V30 24616 H 2423.6 0.0263419 4.21392 0
M  V30 24617 H 2422.33 -0.683222 3.19374 0
M  V30 24618 H 2420.99 1.44195 3.37051 0
M  V30 24619 H 2420.64 -0.410739 5.0132 0
M  V30 24620 H 2420.34 1.18034 5.75623 0
M  V30 24621 H 2421.86 0.312802 6.09798 0
M  V30 24622 H 2423.27 2.40164 5.20571 0
M  V30 24623 H 2421.67 3.18384 5.08676 0
M  V30 24624 H 2422.74 3.16534 3.67334 0
M  V30 24625 N 2424.08 -1.28513 0.912254 0
M  V30 24626 C 2425.33 -1.94322 0.540538 0
M  V30 24627 C 2425.65 -1.72613 -0.920014 0
M  V30 24628 O 2426.85 -2.32631 -1.39982 0
M  V30 24629 C 2425.31 -3.48052 0.915865 0
M  V30 24630 C 2424.92 -3.78542 2.39604 0
M  V30 24631 C 2426.66 -4.20026 0.614662 0
M  V30 24632 C 2424.57 -5.25574 2.71157 0
M  V30 24633 H 2423.5 -0.727421 0.198431 0
M  V30 24634 H 2426.15 -1.46047 1.11097 0
M  V30 24635 H 2424.53 -3.95049 0.274238 0
M  V30 24636 H 2425.7 -3.42358 3.08428 0
M  V30 24637 H 2424.02 -3.19736 2.66755 0
M  V30 24638 H 2426.62 -5.28264 0.827094 0
M  V30 24639 H 2426.96 -4.13888 -0.447458 0
M  V30 24640 H 2427.49 -3.78801 1.21469 0
M  V30 24641 H 2424.23 -5.36788 3.76217 0
M  V30 24642 H 2423.75 -5.6296 2.0697 0
M  V30 24643 H 2425.43 -5.93298 2.58083 0
M  V30 24644 N 2425.56 -0.676073 -1.42362 0
M  V30 24645 C 2426.81 -0.196073 -2.00745 0
M  V30 24646 C 2427.12 1.20487 -1.54085 0
M  V30 24647 O 2428.33 1.78131 -2.04895 0
M  V30 24648 C 2426.79 -0.299679 -3.5865 0
M  V30 24649 C 2426.39 -1.70475 -4.14297 0
M  V30 24650 C 2428.14 0.121544 -4.24326 0
M  V30 24651 C 2426.05 -1.76106 -5.64571 0
M  V30 24652 H 2424.98 -0.0695433 -0.750786 0
M  V30 24653 H 2427.63 -0.841441 -1.63071 0
M  V30 24654 H 2426.01 0.413604 -3.93834 0
M  V30 24655 H 2427.18 -2.44522 -3.90571 0
M  V30 24656 H 2425.5 -2.07394 -3.61077 0
M  V30 24657 H 2428.09 0.0996423 -5.34607 0
M  V30 24658 H 2428.44 1.15701 -3.99899 0
M  V30 24659 H 2428.97 -0.540775 -3.94107 0
M  V30 24660 H 2425.71 -2.77639 -5.93799 0
M  V30 24661 H 2425.23 -1.06416 -5.90284 0
M  V30 24662 H 2426.91 -1.51507 -6.29011 0
M  V30 24663 N 2427.04 1.51915 -0.419488 0
M  V30 24664 C 2428.46 1.59443 -0.0708711 0
M  V30 24665 C 2428.66 1.43167 1.41794 0
M  V30 24666 O 2427.71 1.26385 2.18593 0
M  V30 24667 C 2429.03 2.9515 -0.575043 0
M  V30 24668 C 2430.57 3.08413 -0.533921 0
M  V30 24669 C 2431.05 4.46617 -1.01477 0
M  V30 24670 N 2432.54 4.52886 -0.972019 0
M  V30 24671 C 2433.27 5.58114 -1.31515 0
M  V30 24672 N 2432.77 6.70846 -1.73025 0
M  V30 24673 N 2434.56 5.48377 -1.23446 0
M  V30 24674 H 2426.71 1.60741 -1.38839 0
M  V30 24675 H 2428.98 0.756736 -0.571011 0
M  V30 24676 H 2428.68 3.12374 -1.61602 0
M  V30 24677 H 2428.56 3.77199 0.00973147 0
M  V30 24678 H 2430.94 2.90867 0.498035 0
M  V30 24679 H 2431.03 2.28246 -1.15488 0
M  V30 24680 H 2430.67 4.64906 -2.04511 0
M  V30 24681 H 2430.6 5.25295 -0.370526 0
M  V30 24682 H 2433.09 3.71968 -0.666958 0
M  V30 24683 H 2433.4 7.47139 -1.97492 0
M  V30 24684 H 2431.75 6.721 -1.76938 0
M  V30 24685 H 2434.94 4.5919 -0.90895 0
M  V30 24686 H 2435.11 6.30277 -1.50517 0
M  V30 24687 N 2428.52 0.150242 1.56882 0
M  V30 24688 C 2429.47 -0.800034 2.13503 0
M  V30 24689 C 2430.45 -1.20724 1.0637 0
M  V30 24690 O 2431.64 -1.17312 1.3254 0
M  V30 24691 C 2428.77 -2.03783 2.76274 0
M  V30 24692 C 2427.86 -1.65357 3.90535 0
M  V30 24693 N 2428.25 -0.977707 4.96261 0
M  V30 24694 C 2426.55 -1.94606 4.01303 0
M  V30 24695 C 2427.25 -0.791693 5.76287 0
M  V30 24696 N 2426.23 -1.32657 5.27165 0
M  V30 24697 H 2430.03 -0.274465 2.92616 0
M  V30 24698 H 2427.54 -0.0511858 1.62319 0
M  V30 24699 H 2429.54 -2.72862 3.15202 0
M  V30 24700 H 2428.2 -2.56854 1.98636 0
M  V30 24701 H 2429.21 -0.638103 5.13954 0
M  V30 24702 H 2425.89 -2.49504 3.34744 0
M  V30 24703 H 2427.28 -0.258776 6.71401 0
M  V30 24704 N 2430 -1.57115 -0.123538 0
M  V30 24705 C 2431.41 -1.7383 -0.681167 0
M  V30 24706 C 2431.76 -0.768246 -1.80534 0
M  V30 24707 O 2430.88 0.0598723 -2.16317 0
M  V30 24708 C 2431.48 -3.15198 -1.2424 0
M  V30 24709 C 2430.04 -3.33435 -1.74637 0
M  V30 24710 C 2429.18 -2.69713 -0.644237 0
M  V30 24711 H 2432.14 -1.5837 0.102342 0
M  V30 24712 H 2432.16 -3.16497 -2.11211 0
M  V30 24713 H 2431.67 -3.85777 -0.423995 0
M  V30 24714 H 2429.77 -2.67891 -2.5897 0
M  V30 24715 H 2429.88 -4.41566 -1.85894 0
M  V30 24716 H 2428.25 -2.30822 -1.07672 0
M  V30 24717 H 2429.03 -3.42912 0.163118 0
M  V30 24718 N 2431.47 0.393589 -1.52606 0
M  V30 24719 C 2432.7 1.15871 -1.71048 0
M  V30 24720 C 2433.11 1.8433 -0.426515 0
M  V30 24721 O 2432.46 1.7333 0.608483 0
M  V30 24722 C 2432.52 2.25327 -2.80122 0
M  V30 24723 C 2432.18 1.76874 -4.21384 0
M  V30 24724 C 2433.18 1.24799 -5.04699 0
M  V30 24725 C 2430.86 1.83236 -4.67686 0
M  V30 24726 C 2432.86 0.797276 -6.32394 0
M  V30 24727 C 2430.54 1.37776 -5.95366 0
M  V30 24728 C 2431.54 0.861089 -6.7755 0
M  V30 24729 O 2431.23 0.413111 -8.02838 0
M  V30 24730 H 2430.96 0.353573 -0.576161 0
M  V30 24731 H 2433.52 0.467088 -2.00019 0
M  V30 24732 H 2431.75 2.979 -2.46562 0
M  V30 24733 H 2433.44 2.87018 -2.87011 0
M  V30 24734 H 2434.2 1.19244 -4.70113 0
M  V30 24735 H 2430.08 2.22394 -4.03809 0
M  V30 24736 H 2433.62 0.393314 -6.9649 0
M  V30 24737 H 2429.52 1.43015 -6.29458 0
M  V30 24738 H 2430.29 0.535007 -8.1675 0
M  V30 24739 N 2432.95 1.43492 0.651762 0
M  V30 24740 C 2433.92 1.48432 1.74644 0
M  V30 24741 C 2434.92 0.368845 1.56513 0
M  V30 24742 O 2436.11 0.630651 1.62384 0
M  V30 24743 C 2433.24 1.33833 3.13531 0
M  V30 24744 H 2434.43 2.45923 1.71644 0
M  V30 24745 H 2431.98 1.30279 0.86355 0
M  V30 24746 H 2432.72 0.373546 3.22141 0
M  V30 24747 H 2432.5 2.14697 3.28097 0
M  V30 24748 H 2433.99 1.40225 3.93353 0
M  V30 24749 N 2434.43 -0.890264 1.30046 0
M  V30 24750 C 2435.36 -2.0117 1.18545 0
M  V30 24751 C 2436.34 -1.69924 0.0773655 0
M  V30 24752 O 2437.53 -1.92472 0.258484 0
M  V30 24753 C 2434.66 -3.36201 0.871 0
M  V30 24754 C 2433.61 -3.81688 1.93644 0
M  V30 24755 C 2432.94 -5.1395 1.47509 0
M  V30 24756 C 2434.24 -4.00988 3.34673 0
M  V30 24757 H 2435.93 -2.1105 2.12363 0
M  V30 24758 H 2433.48 -1.01405 1.0224 0
M  V30 24759 H 2435.43 -4.14171 0.777214 0
M  V30 24760 H 2434.15 -3.26438 -0.102868 0
M  V30 24761 H 2432.81 -3.05943 2.01977 0
M  V30 24762 H 2432.46 -5.00611 0.489639 0
M  V30 24763 H 2432.16 -5.45356 2.1877 0
M  V30 24764 H 2433.68 -5.94451 1.39499 0
M  V30 24765 H 2435.1 -4.69412 3.29128 0
M  V30 24766 H 2433.5 -4.43762 4.03974 0
M  V30 24767 H 2434.57 -3.05014 3.76954 0
M  V30 24768 N 2435.91 -1.12676 -1.1019 0
M  V30 24769 C 2437.14 -0.90656 -1.85981 0
M  V30 24770 C 2437.55 0.544301 -1.80784 0
M  V30 24771 O 2436.91 1.37643 -1.19836 0
M  V30 24772 C 2436.96 -1.37623 -3.34278 0
M  V30 24773 O 2436.68 -2.77023 -3.39396 0
M  V30 24774 C 2438.18 -1.19333 -4.26936 0
M  V30 24775 H 2435.4 -0.323786 -0.587711 0
M  V30 24776 H 2437.95 -1.49736 -1.39282 0
M  V30 24777 H 2436.1 -0.828606 -3.78435 0
M  V30 24778 H 2436.51 -2.97692 -4.31833 0
M  V30 24779 H 2437.99 -1.57081 -5.29178 0
M  V30 24780 H 2438.47 -0.134174 -4.38995 0
M  V30 24781 H 2439.07 -1.72859 -3.88587 0
M  V30 24782 N 2437.39 1.28028 -0.919057 0
M  V30 24783 C 2438.32 2.29532 -0.428622 0
M  V30 24784 C 2439.3 1.62382 0.506561 0
M  V30 24785 O 2440.48 1.89754 0.413162 0
M  V30 24786 C 2437.61 3.45754 0.327328 0
M  V30 24787 C 2436.57 4.24839 -0.519212 0
M  V30 24788 C 2435.89 5.3345 0.365393 0
M  V30 24789 C 2437.19 4.91061 -1.77923 0
M  V30 24790 H 2438.89 2.70805 -1.27692 0
M  V30 24791 H 2436.43 1.30185 -0.615451 0
M  V30 24792 H 2438.39 4.15856 0.681305 0
M  V30 24793 H 2437.11 3.03376 1.20957 0
M  V30 24794 H 2435.77 3.56472 -0.855779 0
M  V30 24795 H 2435.42 4.87314 1.24634 0
M  V30 24796 H 2435.12 5.87268 -0.197459 0
M  V30 24797 H 2436.64 6.06398 0.715134 0
M  V30 24798 H 2438.05 5.53496 -1.49384 0
M  V30 24799 H 2436.45 5.54898 -2.2849 0
M  V30 24800 H 2437.52 4.15251 -2.50389 0
M  V30 24801 N 2438.86 0.683613 1.42002 0
M  V30 24802 C 2440.11 0.20955 2.01413 0
M  V30 24803 C 2440.44 -1.18687 1.5409 0
M  V30 24804 O 2439.69 -1.81267 0.737623 0
M  V30 24805 C 2439.99 0.20242 3.56826 0
M  V30 24806 C 2439.66 1.54472 4.23615 0
M  V30 24807 C 2438.32 1.91222 4.41574 0
M  V30 24808 C 2440.67 2.42834 4.61173 0
M  V30 24809 C 2438 3.15943 4.94365 0
M  V30 24810 C 2440.35 3.66876 5.15349 0
M  V30 24811 C 2439.02 4.03785 5.3152 0
M  V30 24812 H 2438.29 0.0766797 0.737022 0
M  V30 24813 H 2440.93 0.880342 1.70065 0
M  V30 24814 H 2439.24 -0.551901 3.87893 0
M  V30 24815 H 2440.94 -0.181723 4.00588 0
M  V30 24816 H 2437.53 1.24885 4.10002 0
M  V30 24817 H 2441.71 2.15725 4.46964 0
M  V30 24818 H 2436.97 3.44549 5.0507 0
M  V30 24819 H 2441.14 4.35541 5.43394 0
M  V30 24820 H 2438.77 5.00502 5.7219 0
M  V30 24821 N 2440.34 -1.5169 0.427538 0
M  V30 24822 C 2441.25 -2.31247 -0.395229 0
M  V30 24823 C 2442.27 -1.39744 -1.03671 0
M  V30 24824 O 2443.45 -1.72817 -1.03422 0
M  V30 24825 C 2440.51 -3.13192 -1.487 0
M  V30 24826 C 2439.57 -4.20461 -0.866669 0
M  V30 24827 C 2438.8 -4.98489 -1.90642 0
M  V30 24828 O 2439.03 -4.77032 -3.12725 0
M  V30 24829 O 2437.96 -5.82848 -1.5024 0
M  V30 24830 H 2441.79 -3.02636 0.253971 0
M  V30 24831 H 2439.37 -1.48183 0.1903 0
M  V30 24832 H 2441.25 -3.64166 -2.12041 0
M  V30 24833 H 2439.93 -2.44577 -2.12047 0
M  V30 24834 H 2438.84 -3.73589 -0.195478 0
M  V30 24835 H 2440.17 -4.91421 -0.276848 0
M  V30 24836 N 2441.82 -0.15856 -1.568 0
M  V30 24837 C 2443.1 0.535324 -1.88132 0
M  V30 24838 C 2443.48 1.82184 -1.06641 0
M  V30 24839 O 2442.83 2.27963 -0.156573 0
M  V30 24840 C 2443.04 0.789593 -3.39951 0
M  V30 24841 C 2444.38 1.12526 -4.09418 0
M  V30 24842 O 2445.41 0.878562 -3.45195 0
M  V30 24843 O 2444.27 1.59005 -5.22857 0
M  V30 24844 H 2441.36 0.274406 -0.780148 0
M  V30 24845 H 2443.91 -0.196039 -1.68564 0
M  V30 24846 H 2442.68 -0.120422 -3.91115 0
M  V30 24847 H 2442.3 1.57473 -3.65086 0
M  V30 24848 N 2443.3 1.57178 0.115204 0
M  V30 24849 C 2444.52 1.89614 0.840321 0
M  V30 24850 C 2444.95 0.750875 1.72463 0
M  V30 24851 O 2444.31 -0.298447 1.78827 0
M  V30 24852 C 2444.36 3.20817 1.64648 0
M  V30 24853 O 2443.46 3.0699 2.75375 0
M  V30 24854 H 2442.8 0.622096 0.232147 0
M  V30 24855 H 2445.33 2.04372 0.0964618 0
M  V30 24856 H 2445.34 3.53631 2.03493 0
M  V30 24857 H 2444.02 4.03765 0.997345 0
M  V30 24858 H 2442.59 2.8565 2.39705 0
M  V30 24859 N 2444.78 -0.38549 1.52813 0
M  V30 24860 C 2446.02 -1.13185 1.68277 0
M  V30 24861 C 2446.36 -1.89532 0.423212 0
M  V30 24862 O 2445.63 -1.8568 -0.57908 0
M  V30 24863 C 2445.91 -2.10725 2.92005 0
M  V30 24864 C 2445.77 -1.38118 4.28069 0
M  V30 24865 C 2447.09 -3.11107 3.11288 0
M  V30 24866 H 2444.21 -0.410104 0.612359 0
M  V30 24867 H 2446.85 -0.414836 1.85416 0
M  V30 24868 H 2445 -2.7187 2.77523 0
M  V30 24869 H 2446.67 -0.799107 4.54326 0
M  V30 24870 H 2444.91 -0.683017 4.28389 0
M  V30 24871 H 2445.58 -2.09408 5.10737 0
M  V30 24872 H 2448.06 -2.60055 3.24824 0
M  V30 24873 H 2446.94 -3.76598 3.99331 0
M  V30 24874 H 2447.2 -3.80169 2.25663 0
M  V30 24875 N 2446.26 -1.43835 -0.644143 0
M  V30 24876 C 2447.49 -1.49173 -1.42937 0
M  V30 24877 C 2447.89 -0.111082 -1.88874 0
M  V30 24878 O 2447.24 0.890771 -1.60658 0
M  V30 24879 C 2447.3 -2.38329 -2.69146 0
M  V30 24880 C 2446.96 -3.8572 -2.45091 0
M  V30 24881 C 2447.96 -4.76593 -2.07738 0
M  V30 24882 C 2445.64 -4.30296 -2.59134 0
M  V30 24883 C 2447.64 -6.10041 -1.84739 0
M  V30 24884 C 2445.33 -5.63796 -2.35749 0
M  V30 24885 C 2446.32 -6.53486 -1.98609 0
M  V30 24886 O 2446.01 -7.84515 -1.75475 0
M  V30 24887 H 2445.74 -0.508643 -0.445262 0
M  V30 24888 H 2448.3 -1.89341 -0.796177 0
M  V30 24889 H 2446.53 -1.93064 -3.35057 0
M  V30 24890 H 2448.22 -2.34766 -3.31119 0
M  V30 24891 H 2448.98 -4.43429 -1.96457 0
M  V30 24892 H 2444.86 -3.60754 -2.87015 0
M  V30 24893 H 2448.41 -6.80008 -1.55674 0
M  V30 24894 H 2444.3 -5.96524 -2.46636 0
M  V30 24895 H 2445.07 -7.96183 -1.89827 0
M  V30 24896 N 2447.73 0.883355 -1.30517 0
M  V30 24897 C 2448.98 1.63776 -1.2062 0
M  V30 24898 C 2449.33 1.90942 0.236435 0
M  V30 24899 O 2448.63 1.52041 1.16593 0
M  V30 24900 C 2448.82 2.98205 -1.96999 0
M  V30 24901 C 2448.65 2.84163 -3.48542 0
M  V30 24902 C 2447.42 2.84059 -4.17898 0
M  V30 24903 C 2449.62 2.59994 -4.43743 0
M  V30 24904 N 2447.6 2.60926 -5.5569 0
M  V30 24905 C 2448.97 2.45997 -5.69109 0
M  V30 24906 C 2451.03 2.45231 -4.3332 0
M  V30 24907 C 2449.73 2.1874 -6.85234 0
M  V30 24908 C 2451.76 2.1936 -5.49213 0
M  V30 24909 C 2451.12 2.06141 -6.73562 0
M  V30 24910 H 2447.22 0.604207 -0.496445 0
M  V30 24911 H 2449.8 1.0408 -1.64546 0
M  V30 24912 H 2447.97 3.5593 -1.55461 0
M  V30 24913 H 2449.7 3.62848 -1.79231 0
M  V30 24914 H 2446.46 2.9595 -3.69744 0
M  V30 24915 H 2446.88 2.52367 -6.28204 0
M  V30 24916 H 2451.52 2.54185 -3.37861 0
M  V30 24917 H 2449.24 2.08524 -7.80733 0
M  V30 24918 H 2452.83 2.08757 -5.43058 0
M  V30 24919 H 2451.71 1.86403 -7.61724 0
M  V30 24920 N 2449.21 1.13259 1.09591 0
M  V30 24921 C 2450.44 0.91641 1.85498 0
M  V30 24922 C 2450.85 -0.534706 1.8107 0
M  V30 24923 O 2450.21 -1.37005 1.20564 0
M  V30 24924 C 2450.26 1.39394 3.33544 0
M  V30 24925 O 2449.98 2.78819 3.37923 0
M  V30 24926 C 2451.48 1.21595 4.26297 0
M  V30 24927 H 2448.7 0.326898 0.585985 0
M  V30 24928 H 2451.25 1.50473 1.38486 0
M  V30 24929 H 2449.4 0.848664 3.7799 0
M  V30 24930 H 2449.82 2.99978 4.30248 0
M  V30 24931 H 2451.29 1.59885 5.28338 0
M  V30 24932 H 2451.77 0.157453 4.38918 0
M  V30 24933 H 2452.37 1.74917 3.87665 0
M  V30 24934 N 2450.69 -1.27539 0.925834 0
M  V30 24935 C 2451.97 -1.89523 0.483759 0
M  V30 24936 C 2452.35 -1.83814 -1.03806 0
M  V30 24937 O 2451.69 -1.28211 -1.89141 0
M  V30 24938 C 2451.9 -3.33524 1.02774 0
M  V30 24939 C 2453.25 -4.10447 1.08711 0
M  V30 24940 O 2454.28 -3.42533 0.977236 0
M  V30 24941 O 2453.14 -5.31869 1.25608 0
M  V30 24942 H 2450.23 -0.812287 0.155304 0
M  V30 24943 H 2452.78 -1.3582 1.0174 0
M  V30 24944 H 2451.55 -3.31964 2.07161 0
M  V30 24945 H 2451.17 -3.94745 0.475636 0
M  V30 24946 N 2452.17 -0.691135 -1.41637 0
M  V30 24947 C 2453.58 -0.362252 -1.55435 0
M  V30 24948 C 2453.78 1.13114 -1.66756 0
M  V30 24949 O 2452.84 1.91689 -1.64352 0
M  V30 24950 C 2454.15 -1.10689 -2.79586 0
M  V30 24951 C 2455.7 -1.0908 -2.93378 0
M  V30 24952 C 2456.18 -1.8171 -4.20411 0
M  V30 24953 N 2457.67 -1.78658 -4.27359 0
M  V30 24954 C 2458.4 -2.31698 -5.24503 0
M  V30 24955 N 2457.9 -2.9319 -6.27703 0
M  V30 24956 N 2459.69 -2.21979 -5.16412 0
M  V30 24957 H 2451.84 -1.65978 -1.32533 0
M  V30 24958 H 2454.1 -0.700179 -0.639103 0
M  V30 24959 H 2453.81 -2.1618 -2.77415 0
M  V30 24960 H 2453.68 -0.68261 -3.70972 0
M  V30 24961 H 2456.07 -0.0441757 -2.95067 0
M  V30 24962 H 2456.15 -1.55411 -2.03178 0
M  V30 24963 H 2455.8 -2.8635 -4.19483 0
M  V30 24964 H 2455.73 -1.32817 -5.09575 0
M  V30 24965 H 2458.22 -1.33821 -3.53412 0
M  V30 24966 H 2458.53 -3.31241 -6.98211 0
M  V30 24967 H 2456.88 -2.97266 -6.28218 0
M  V30 24968 H 2460.07 -1.73615 -4.34713 0
M  V30 24969 H 2460.24 -2.63619 -5.91953 0
M  V30 24970 N 2453.65 1.51461 -0.435577 0
M  V30 24971 C 2454.61 2.26273 0.365097 0
M  V30 24972 C 2455.61 1.29649 0.951204 0
M  V30 24973 O 2456.8 1.53375 0.825931 0
M  V30 24974 C 2453.93 3.05317 1.51639 0
M  V30 24975 H 2455.12 2.98489 -0.290526 0
M  V30 24976 H 2452.68 1.55157 -0.188703 0
M  V30 24977 H 2453.41 2.37514 2.20812 0
M  V30 24978 H 2453.2 3.76286 1.10232 0
M  V30 24979 H 2454.69 3.61991 2.08212 0
M  V30 24980 N 2455.12 0.166873 1.56714 0
M  V30 24981 C 2456.35 -0.485609 2.0112 0
M  V30 24982 C 2456.77 -1.57104 1.04708 0
M  V30 24983 O 2456.12 -1.82439 0.0472244 0
M  V30 24984 C 2456.18 -1.06802 3.45363 0
M  V30 24985 O 2455.9 -0.0259225 4.38092 0
M  V30 24986 C 2457.4 -1.79917 4.05148 0
M  V30 24987 H 2454.62 -0.124692 0.659312 0
M  V30 24988 H 2457.16 0.267298 2.02746 0
M  V30 24989 H 2455.32 -1.77144 3.44527 0
M  V30 24990 H 2455.73 -0.455306 5.2252 0
M  V30 24991 H 2457.2 -2.15933 5.08013 0
M  V30 24992 H 2457.68 -2.69252 3.46987 0
M  V30 24993 H 2458.29 -1.14226 4.09674 0
M  V30 24994 N 2456.6 -1.57237 -0.106866 0
M  V30 24995 C 2458.02 -1.52805 -0.460753 0
M  V30 24996 C 2458.22 -0.881778 -1.81182 0
M  V30 24997 O 2457.27 -0.469268 -2.48101 0
M  V30 24998 C 2458.59 -2.9755 -0.434074 0
M  V30 24999 C 2460.14 -3.08705 -0.516767 0
M  V30 25000 C 2460.61 -4.55034 -0.520356 0
M  V30 25001 N 2462.1 -4.59536 -0.581449 0
M  V30 25002 C 2462.84 -5.7019 -0.605872 0
M  V30 25003 N 2462.33 -6.90307 -0.58721 0
M  V30 25004 N 2464.13 -5.58331 -0.649797 0
M  V30 25005 H 2456.28 -1.97629 0.778238 0
M  V30 25006 H 2458.54 -0.903061 0.288418 0
M  V30 25007 H 2458.25 -3.48252 0.491258 0
M  V30 25008 H 2458.12 -3.55625 -1.25742 0
M  V30 25009 H 2460.51 -2.57998 -1.43252 0
M  V30 25010 H 2460.59 -2.53604 0.334494 0
M  V30 25011 H 2460.23 -5.0639 0.391402 0
M  V30 25012 H 2460.16 -5.0796 -1.38867 0
M  V30 25013 H 2462.65 -3.73082 -0.601544 0
M  V30 25014 H 2462.97 -7.70398 -0.608804 0
M  V30 25015 H 2461.31 -6.92785 -0.554442 0
M  V30 25016 H 2464.5 -4.63398 -0.661825 0
M  V30 25017 H 2464.67 -6.44575 -0.665363 0
M  V30 25018 N 2458.08 0.377381 -1.53015 0
M  V30 25019 C 2459.5 0.718256 -1.42525 0
M  V30 25020 C 2459.7 1.93709 -0.554904 0
M  V30 25021 O 2458.75 2.52479 -0.0328037 0
M  V30 25022 C 2460.07 0.942488 -2.85548 0
M  V30 25023 C 2461.61 1.04324 -2.95103 0
M  V30 25024 C 2462.09 1.30002 -4.39162 0
M  V30 25025 N 2463.58 1.36798 -4.42539 0
M  V30 25026 C 2464.31 1.58355 -5.511 0
M  V30 25027 N 2463.81 1.77305 -6.69727 0
M  V30 25028 N 2465.6 1.60628 -5.3866 0
M  V30 25029 H 2457.75 -0.424462 -2.08116 0
M  V30 25030 H 2460.02 -0.127775 -0.939349 0
M  V30 25031 H 2459.72 0.118867 -3.51499 0
M  V30 25032 H 2459.6 1.85392 -3.28496 0
M  V30 25033 H 2461.98 1.85741 -2.29312 0
M  V30 25034 H 2462.07 0.10946 -2.55566 0
M  V30 25035 H 2461.71 0.490902 -5.05522 0
M  V30 25036 H 2461.64 2.24683 -4.76262 0
M  V30 25037 H 2464.13 1.23815 -3.57041 0
M  V30 25038 H 2464.44 1.93293 -7.48236 0
M  V30 25039 H 2462.79 1.74506 -6.72735 0
M  V30 25040 H 2465.98 1.45383 -4.44951 0
M  V30 25041 H 2466.15 1.77087 -6.23333 0
M  V30 25042 N 2459.56 1.44175 0.636506 0
M  V30 25043 C 2460.8 1.46892 1.39823 0
M  V30 25044 C 2461.14 0.0990926 1.93947 0
M  V30 25045 O 2460.41 -0.882514 1.73326 0
M  V30 25046 C 2460.7 2.52494 2.56746 0
M  V30 25047 C 2460.55 3.98815 2.08007 0
M  V30 25048 C 2461.87 2.54655 3.58941 0
M  V30 25049 H 2458.99 0.534839 0.507066 0
M  V30 25050 H 2461.63 1.75823 0.720157 0
M  V30 25051 H 2459.78 2.27955 3.14593 0
M  V30 25052 H 2461.45 4.34468 1.55032 0
M  V30 25053 H 2459.69 4.10848 1.39235 0
M  V30 25054 H 2460.36 4.68344 2.92161 0
M  V30 25055 H 2462.84 2.76568 3.10885 0
M  V30 25056 H 2461.72 3.30457 4.3828 0
M  V30 25057 H 2461.98 1.58653 4.12652 0
M  V30 25058 N 2461.04 -0.876421 1.30983 0
M  V30 25059 C 2461.97 -1.98589 1.12417 0
M  V30 25060 C 2462.95 -1.62573 0.0294364 0
M  V30 25061 O 2464.13 -1.87594 0.184631 0
M  V30 25062 C 2461.26 -3.31038 0.716334 0
M  V30 25063 C 2460.3 -3.86039 1.81318 0
M  V30 25064 S 2461.14 -4.12284 3.41734 0
M  V30 25065 C 2462.29 -5.4774 3.02872 0
M  V30 25066 H 2462.53 -2.14033 2.06342 0
M  V30 25067 H 2460.06 -1.02583 1.15395 0
M  V30 25068 H 2462.02 -4.07592 0.487769 0
M  V30 25069 H 2460.68 -3.13439 -0.203694 0
M  V30 25070 H 2459.87 -4.81771 1.48029 0
M  V30 25071 H 2459.47 -3.16255 1.99646 0
M  V30 25072 H 2461.77 -6.29144 2.51364 0
M  V30 25073 H 2462.71 -5.85973 3.97544 0
M  V30 25074 H 2463.12 -5.10707 2.40496 0
M  V30 25075 N 2462.51 -1.13839 -1.08989 0
M  V30 25076 C 2463.93 -0.877529 -1.3331 0
M  V30 25077 C 2464.13 0.484526 -1.95588 0
M  V30 25078 O 2463.19 1.23009 -2.20511 0
M  V30 25079 C 2464.5 -2.00564 -2.24042 0
M  V30 25080 C 2466.05 -2.03825 -2.37538 0
M  V30 25081 C 2466.52 -3.15911 -3.31608 0
M  V30 25082 N 2468.01 -3.15451 -3.39183 0
M  V30 25083 C 2468.75 -3.98818 -4.11985 0
M  V30 25084 N 2468.24 -4.92211 -4.87545 0
M  V30 25085 N 2470.04 -3.86901 -4.07755 0
M  V30 25086 H 2462.19 -2.01575 -0.66942 0
M  V30 25087 H 2464.45 -0.878021 -0.357466 0
M  V30 25088 H 2464.16 -2.98792 -1.85516 0
M  V30 25089 H 2464.03 -1.92364 -3.24462 0
M  V30 25090 H 2466.42 -1.06207 -2.75326 0
M  V30 25091 H 2466.5 -2.16096 -1.36881 0
M  V30 25092 H 2466.14 -4.13771 -2.94543 0
M  V30 25093 H 2466.07 -3.00878 -4.32181 0
M  V30 25094 H 2468.56 -2.47804 -2.8531 0
M  V30 25095 H 2468.88 -5.52302 -5.40539 0
M  V30 25096 H 2467.22 -4.96214 -4.86618 0
M  V30 25097 H 2470.41 -3.13263 -3.47828 0
M  V30 25098 H 2470.59 -4.521 -4.6423 0
M  V30 25099 N 2463.99 1.27046 -0.932584 0
M  V30 25100 C 2464.96 2.24935 -0.440104 0
M  V30 25101 C 2465.96 1.54547 0.444044 0
M  V30 25102 O 2467.15 1.72477 0.244434 0
M  V30 25103 C 2464.28 3.38922 0.36672 0
M  V30 25104 H 2465.47 2.70016 -1.30505 0
M  V30 25105 H 2463.02 1.39052 -0.713732 0
M  V30 25106 H 2463.76 2.9923 1.25028 0
M  V30 25107 H 2463.54 3.91188 -0.267272 0
M  V30 25108 H 2465.03 4.11666 0.701495 0
M  V30 25109 N 2465.47 0.698636 1.41269 0
M  V30 25110 C 2466.42 0.0238959 2.32588 0
M  V30 25111 C 2467.41 -0.765265 1.51129 0
M  V30 25112 O 2468.62 -0.670542 1.67044 0
M  V30 25113 H 2464.99 -0.0110739 0.751918 0
M  V30 25114 H 2466.96 0.811082 2.87166 0
M  V30 25115 C 2465.71 -0.89631 3.35949 0
M  V30 25116 H 2465.04 -0.298478 3.98684 0
M  V30 25117 H 2466.48 -1.33669 4.02379 0
M  V30 25118 C 2464.94 -2.01391 2.7008 0
M  V30 25119 O 2465.47 -3.10302 2.55099 0
M  V30 25120 N 2463.67 -1.79255 2.28727 0
M  V30 25121 H 2463.22 -0.906799 2.41112 0
M  V30 25122 H 2463.18 -2.54216 1.84991 0
M  V30 25123 N 2466.95 -1.51228 0.443603 0
M  V30 25124 C 2467.9 -2.27901 -0.364676 0
M  V30 25125 C 2468.87 -1.31759 -1.01138 0
M  V30 25126 O 2470.05 -1.60669 -1.02909 0
M  V30 25127 C 2467.19 -3.12863 -1.45638 0
M  V30 25128 C 2466.3 -4.24006 -0.827195 0
M  V30 25129 C 2465.44 -4.96269 -1.89448 0
M  V30 25130 C 2464.48 -5.99324 -1.24406 0
M  V30 25131 N 2463.61 -6.6497 -2.25298 0
M  V30 25132 H 2468.45 -2.96531 0.295517 0
M  V30 25133 H 2465.99 -1.46254 0.157579 0
M  V30 25134 H 2467.95 -3.60454 -2.10069 0
M  V30 25135 H 2466.58 -2.46335 -2.08612 0
M  V30 25136 H 2465.63 -3.80334 -0.071017 0
M  V30 25137 H 2466.94 -4.97821 -0.312394 0
M  V30 25138 H 2466.1 -5.47439 -2.61526 0
M  V30 25139 H 2464.84 -4.22099 -2.44302 0
M  V30 25140 H 2463.84 -5.47441 -0.508771 0
M  V30 25141 H 2465.07 -6.75454 -0.702763 0
M  V30 25142 H 2463.01 -5.93609 -2.7922 0
M  V30 25143 H 2462.93 -7.3457 -1.78726 0
M  V30 25144 H 2464.2 -7.20768 -2.9684 0
M  V30 25145 N 2468.43 -0.175182 -1.56623 0
M  V30 25146 C 2469.67 0.462941 -1.98062 0
M  V30 25147 C 2470.03 1.60599 -1.05951 0
M  V30 25148 O 2469.32 1.91339 -0.0999364 0
M  V30 25149 C 2469.51 0.989803 -3.43421 0
M  V30 25150 C 2469.34 -0.100662 -4.49587 0
M  V30 25151 C 2468.11 -0.551627 -5.0228 0
M  V30 25152 C 2470.31 -0.902458 -5.0632 0
M  V30 25153 N 2468.29 -1.62199 -5.92085 0
M  V30 25154 C 2469.66 -1.82266 -5.92604 0
M  V30 25155 C 2471.72 -0.947105 -4.88809 0
M  V30 25156 C 2470.42 -2.78376 -6.63249 0
M  V30 25157 C 2472.45 -1.89616 -5.60178 0
M  V30 25158 C 2471.81 -2.80384 -6.46192 0
M  V30 25159 H 2467.91 0.137395 -0.769835 0
M  V30 25160 H 2470.49 -0.27629 -1.9273 0
M  V30 25161 H 2468.66 1.69854 -3.49291 0
M  V30 25162 H 2470.4 1.59688 -3.71863 0
M  V30 25163 H 2467.15 -0.148621 -4.73367 0
M  V30 25164 H 2467.58 -2.15778 -6.41692 0
M  V30 25165 H 2472.22 -0.259378 -4.22004 0
M  V30 25166 H 2469.94 -3.48135 -7.29265 0
M  V30 25167 H 2473.52 -1.93686 -5.48614 0
M  V30 25168 H 2472.4 -3.52624 -7.00447 0
M  V30 25169 N 2469.91 1.57292 0.0985263 0
M  V30 25170 C 2470.86 1.98252 1.12607 0
M  V30 25171 C 2471.84 0.860449 1.3596 0
M  V30 25172 O 2473.03 1.12426 1.36709 0
M  V30 25173 C 2470.16 2.40761 2.44722 0
M  V30 25174 C 2469.25 3.59645 2.24758 0
M  V30 25175 N 2469.64 4.7469 1.74652 0
M  V30 25176 C 2467.94 3.65676 2.55337 0
M  V30 25177 C 2468.64 5.56647 1.68877 0
M  V30 25178 N 2467.61 4.99719 2.13967 0
M  V30 25179 H 2471.41 2.8465 0.731554 0
M  V30 25180 H 2468.93 1.59491 0.306001 0
M  V30 25181 H 2470.93 2.68332 3.19067 0
M  V30 25182 H 2469.59 1.55738 2.84914 0
M  V30 25183 H 2470.6 4.97507 1.439 0
M  V30 25184 H 2467.27 2.91307 2.99076 0
M  V30 25185 H 2468.66 6.58962 1.31218 0
M  V30 25186 N 2471.38 -0.369261 1.53213 0
M  V30 25187 C 2472.63 -1.11009 1.68883 0
M  V30 25188 C 2472.95 -1.8994 0.441319 0
M  V30 25189 O 2472.22 -1.88178 -0.54459 0
M  V30 25190 H 2470.8 -0.412805 0.622576 0
M  V30 25191 H 2473.46 -0.416768 1.90392 0
M  V30 25192 H 2472.56 -1.80196 2.54825 0
M  V30 25193 N 2472.86 -1.4451 -0.628851 0
M  V30 25194 C 2474.11 -1.47122 -1.38562 0
M  V30 25195 C 2474.43 -0.105933 -1.94712 0
M  V30 25196 O 2473.7 0.862048 -1.75913 0
M  V30 25197 H 2472.28 -0.541738 -0.514324 0
M  V30 25198 H 2474.94 -1.80306 -0.739986 0
M  V30 25199 H 2474.04 -2.19793 -2.21579 0
M  V30 25200 N 2474.34 0.869463 -1.31446 0
M  V30 25201 C 2475.29 1.99812 -1.1907 0
M  V30 25202 C 2476.28 1.69111 -0.0988866 0
M  V30 25203 O 2477.49 1.781 -0.260813 0
M  V30 25204 H 2473.86 0.655418 -0.368688 0
M  V30 25205 H 2475.83 2.07381 -2.14559 0
M  V30 25206 C 2474.58 3.35434 -0.915382 0
M  V30 25207 H 2473.91 3.59579 -1.74766 0
M  V30 25208 H 2475.35 4.15 -0.868968 0
M  V30 25209 C 2473.8 3.34729 0.38187 0
M  V30 25210 O 2474.33 3.7657 1.3985 0
M  V30 25211 N 2472.54 2.87854 0.398582 0
M  V30 25212 H 2472.09 2.53999 -0.429231 0
M  V30 25213 H 2472.05 2.87764 1.26646 0
M  V30 25214 N 2475.82 1.14415 1.08383 0
M  V30 25215 C 2476.75 0.789073 2.15189 0
M  V30 25216 C 2477.76 -0.194141 1.61638 0
M  V30 25217 O 2478.95 0.0276024 1.78479 0
M  V30 25218 C 2476.05 0.150639 3.38565 0
M  V30 25219 C 2475.22 1.16864 4.21499 0
M  V30 25220 C 2474.28 0.553924 5.23276 0
M  V30 25221 O 2473.31 1.21695 5.56039 0
M  V30 25222 N 2474.51 -0.669194 5.7663 0
M  V30 25223 H 2477.28 1.70819 2.46254 0
M  V30 25224 H 2474.84 1.0386 1.24196 0
M  V30 25225 H 2476.83 -0.27311 4.03777 0
M  V30 25226 H 2475.4 -0.671614 3.053 0
M  V30 25227 H 2474.62 1.76932 3.52262 0
M  V30 25228 H 2475.91 1.85632 4.73728 0
M  V30 25229 H 2475.31 -1.22644 5.52245 0
M  V30 25230 H 2473.86 -1.03545 6.43523 0
M  V30 25231 N 2477.3 -1.26549 0.939309 0
M  V30 25232 C 2478.52 -1.9847 0.602043 0
M  V30 25233 C 2478.95 -1.69498 -0.815594 0
M  V30 25234 O 2478.3 -0.941933 -1.54911 0
M  V30 25235 C 2478.35 -3.50476 0.848468 0
M  V30 25236 O 2477.46 -4.12322 -0.0803284 0
M  V30 25237 H 2476.8 -0.622708 0.230501 0
M  V30 25238 H 2479.33 -1.61064 1.26173 0
M  V30 25239 H 2479.34 -4.00695 0.768623 0
M  V30 25240 H 2478.01 -3.70894 1.88178 0
M  V30 25241 H 2476.59 -3.72866 0.0504164 0
M  V30 25242 N 2478.77 -0.706118 -1.40896 0
M  V30 25243 C 2480.02 -0.241924 -2.01352 0
M  V30 25244 C 2480.35 1.15885 -1.55834 0
M  V30 25245 O 2479.63 1.78429 -0.774177 0
M  V30 25246 C 2479.91 -0.311374 -3.58751 0
M  V30 25247 C 2479.76 -1.74985 -4.14367 0
M  V30 25248 C 2481.08 0.322845 -4.38914 0
M  V30 25249 H 2478.2 -0.0893815 -0.73156 0
M  V30 25250 H 2480.84 -0.896832 -1.67502 0
M  V30 25251 H 2478.99 0.246234 -3.87719 0
M  V30 25252 H 2480.67 -2.36211 -3.96235 0
M  V30 25253 H 2478.91 -2.28063 -3.69012 0
M  V30 25254 H 2479.58 -1.7499 -5.23529 0
M  V30 25255 H 2482.06 -0.152162 -4.15822 0
M  V30 25256 H 2480.93 0.243759 -5.48358 0
M  V30 25257 H 2481.19 1.40506 -4.19178 0
M  V30 25258 N 2480.25 1.50991 -0.451617 0
M  V30 25259 C 2481.5 2.025 0.110202 0
M  V30 25260 C 2481.83 1.33426 1.41107 0
M  V30 25261 O 2481.11 0.453692 1.89135 0
M  V30 25262 C 2481.39 3.58727 0.314208 0
M  V30 25263 C 2481.24 4.38399 -1.00631 0
M  V30 25264 C 2482.56 4.26704 1.07759 0
M  V30 25265 H 2479.68 0.73599 0.0385767 0
M  V30 25266 H 2482.32 1.80496 -0.593406 0
M  V30 25267 H 2480.47 3.77607 0.913535 0
M  V30 25268 H 2482.14 4.31136 -1.64072 0
M  V30 25269 H 2480.39 4.02914 -1.60757 0
M  V30 25270 H 2481.06 5.45914 -0.817437 0
M  V30 25271 H 2483.53 4.1218 0.569788 0
M  V30 25272 H 2482.41 5.35865 1.18911 0
M  V30 25273 H 2482.67 3.88536 2.10932 0
M  V30 25274 N 2481.73 0.183486 1.56528 0
M  V30 25275 C 2482.66 -0.781015 2.14419 0
M  V30 25276 C 2483.64 -1.21761 1.07763 0
M  V30 25277 O 2484.82 -1.30721 1.35809 0
M  V30 25278 C 2481.95 -2.0533 2.69365 0
M  V30 25279 C 2481 -1.75975 3.88503 0
M  V30 25280 S 2481.83 -0.918164 5.2757 0
M  V30 25281 C 2482.99 -2.20085 5.8593 0
M  V30 25282 H 2483.22 -0.288848 2.95893 0
M  V30 25283 H 2480.75 -0.0313573 1.54368 0
M  V30 25284 H 2482.71 -2.78401 3.01667 0
M  V30 25285 H 2481.37 -2.51659 1.87953 0
M  V30 25286 H 2480.56 -2.70407 4.25319 0
M  V30 25287 H 2480.17 -1.10993 3.57151 0
M  V30 25288 H 2482.46 -3.15443 5.99585 0
M  V30 25289 H 2483.4 -1.87719 6.82764 0
M  V30 25290 H 2483.81 -2.324 5.14442 0
M  V30 25291 N 2483.21 -1.57342 -0.0901833 0
M  V30 25292 C 2484.44 -1.90271 -0.805022 0
M  V30 25293 C 2484.85 -0.775872 -1.7256 0
M  V30 25294 O 2484.19 0.260811 -1.81839 0
M  V30 25295 C 2484.25 -3.185 -1.66728 0
M  V30 25296 C 2483.91 -4.47685 -0.918013 0
M  V30 25297 C 2484.91 -5.1932 -0.245583 0
M  V30 25298 C 2482.6 -4.94341 -0.890637 0
M  V30 25299 C 2484.59 -6.3585 0.444199 0
M  V30 25300 C 2482.28 -6.10782 -0.197071 0
M  V30 25301 C 2483.28 -6.81387 0.469164 0
M  V30 25302 O 2482.96 -7.95609 1.1516 0
M  V30 25303 H 2482.7 -0.633789 -0.235132 0
M  V30 25304 H 2485.25 -2.0528 -0.0703444 0
M  V30 25305 H 2483.48 -2.9965 -2.44431 0
M  V30 25306 H 2485.17 -3.37221 -2.25913 0
M  V30 25307 H 2485.93 -4.84312 -0.258161 0
M  V30 25308 H 2481.81 -4.39271 -1.39865 0
M  V30 25309 H 2485.36 -6.90896 0.964788 0
M  V30 25310 H 2481.25 -6.45242 -0.182357 0
M  V30 25311 H 2482.02 -8.1162 1.05899 0
M  V30 25312 N 2484.69 0.36113 -1.53407 0
M  V30 25313 C 2485.63 1.46293 -1.80834 0
M  V30 25314 C 2486.63 1.55252 -0.677727 0
M  V30 25315 O 2487.83 1.58086 -0.860751 0
M  V30 25316 H 2484.21 0.487435 -0.572635 0
M  V30 25317 H 2486.18 1.20366 -2.73047 0
M  V30 25318 C 2484.93 2.83067 -2.01912 0
M  V30 25319 H 2484.25 2.76933 -2.88354 0
M  V30 25320 H 2485.69 3.59327 -2.25079 0
M  V30 25321 C 2484.15 3.27276 -0.799506 0
M  V30 25322 O 2484.68 4.01699 0.00964701 0
M  V30 25323 N 2482.89 2.83872 -0.621687 0
M  V30 25324 H 2482.43 2.23474 -1.2813 0
M  V30 25325 H 2482.39 3.13808 0.192925 0
M  V30 25326 N 2486.16 1.44842 0.621179 0
M  V30 25327 C 2487.41 1.47425 1.37655 0
M  V30 25328 C 2487.73 0.114663 1.95264 0
M  V30 25329 O 2488.93 0.0180676 2.71494 0
M  V30 25330 C 2487.39 2.5959 2.49281 0
M  V30 25331 C 2487 4.018 1.98142 0
M  V30 25332 C 2488.74 2.71405 3.26404 0
M  V30 25333 C 2486.65 5.05372 3.0717 0
M  V30 25334 H 2485.58 0.548527 0.517334 0
M  V30 25335 H 2488.23 1.7094 0.667227 0
M  V30 25336 H 2486.61 2.29333 3.22835 0
M  V30 25337 H 2487.78 4.41672 1.31388 0
M  V30 25338 H 2486.1 3.94316 1.33805 0
M  V30 25339 H 2488.7 3.45956 4.07699 0
M  V30 25340 H 2489.04 1.77565 3.76532 0
M  V30 25341 H 2489.57 3.0112 2.59945 0
M  V30 25342 H 2486.31 6.00874 2.61975 0
M  V30 25343 H 2485.83 4.70084 3.72534 0
M  V30 25344 H 2487.51 5.29517 3.7178 0
M  V30 25345 N 2487.64 -0.862479 1.31905 0
M  V30 25346 C 2488.57 -1.97673 1.16009 0
M  V30 25347 C 2489.59 -1.6251 0.0971519 0
M  V30 25348 O 2490.78 -1.75127 0.345367 0
M  V30 25349 C 2487.88 -3.30455 0.751849 0
M  V30 25350 C 2487.05 -3.93911 1.9014 0
M  V30 25351 C 2486.11 -5.05017 1.47799 0
M  V30 25352 O 2485.13 -5.25433 2.18881 0
M  V30 25353 N 2486.34 -5.79322 0.369593 0
M  V30 25354 H 2489.1 -2.11854 2.11986 0
M  V30 25355 H 2486.66 -1.03689 1.24339 0
M  V30 25356 H 2488.65 -4.02177 0.451155 0
M  V30 25357 H 2487.22 -3.12383 -0.116538 0
M  V30 25358 H 2486.44 -3.15074 2.36901 0
M  V30 25359 H 2487.73 -4.33042 2.67118 0
M  V30 25360 H 2487.13 -5.65263 -0.2222 0
M  V30 25361 H 2485.69 -6.51673 0.128469 0
M  V30 25362 N 2489.12 -1.14988 -1.07775 0
M  V30 25363 C 2490.37 -0.933422 -1.80717 0
M  V30 25364 C 2490.72 0.533987 -1.84841 0
M  V30 25365 O 2490.01 1.39068 -1.31798 0
M  V30 25366 C 2490.21 -1.47613 -3.25492 0
M  V30 25367 C 2490.04 -2.99478 -3.35474 0
M  V30 25368 C 2488.81 -3.67986 -3.46287 0
M  V30 25369 C 2491.01 -3.97296 -3.26589 0
M  V30 25370 N 2488.99 -5.07701 -3.45127 0
M  V30 25371 C 2490.36 -5.23303 -3.32496 0
M  V30 25372 C 2492.41 -3.89327 -3.1037 0
M  V30 25373 C 2491.12 -6.4227 -3.23854 0
M  V30 25374 C 2493.14 -5.07847 -3.0306 0
M  V30 25375 C 2492.5 -6.32726 -3.09576 0
M  V30 25376 H 2488.6 -0.39517 -0.674807 0
M  V30 25377 H 2491.19 -1.46116 -1.28679 0
M  V30 25378 H 2489.36 -0.975088 -3.75961 0
M  V30 25379 H 2491.09 -1.19894 -3.86533 0
M  V30 25380 H 2487.85 -3.18561 -3.50451 0
M  V30 25381 H 2488.27 -5.80659 -3.48087 0
M  V30 25382 H 2492.91 -2.93648 -3.04189 0
M  V30 25383 H 2490.63 -7.38187 -3.28795 0
M  V30 25384 H 2494.22 -5.03437 -2.9162 0
M  V30 25385 H 2493.1 -7.22897 -3.03958 0
M  V30 25386 N 2490.6 1.26049 -0.946007 0
M  V30 25387 C 2492.01 1.75456 -0.638127 0
M  V30 25388 C 2492.36 1.76993 0.846641 0
M  V30 25389 O 2491.49 1.38516 1.66259 0
M  V30 25390 C 2492.08 3.18627 -1.15162 0
M  V30 25391 C 2490.64 3.65627 -0.894068 0
M  V30 25392 C 2489.79 2.44954 -1.29972 0
M  V30 25393 H 2492.74 1.12058 -1.12378 0
M  V30 25394 H 2492.76 3.77098 -0.507681 0
M  V30 25395 H 2492.27 3.17476 -2.23227 0
M  V30 25396 H 2490.37 3.72203 0.171992 0
M  V30 25397 H 2490.48 4.54199 -1.52447 0
M  V30 25398 H 2488.85 2.44367 -0.718121 0
M  V30 25399 H 2489.63 2.46501 -2.3894 0
M  V30 25400 N 2492.08 0.71358 1.4052 0
M  V30 25401 C 2493.01 0.0744274 2.33381 0
M  V30 25402 C 2493.99 -0.747709 1.52785 0
M  V30 25403 O 2495.17 -0.69704 1.81259 0
M  V30 25404 C 2492.3 -0.849539 3.36749 0
M  V30 25405 C 2491.26 -0.133172 4.27793 0
M  V30 25406 C 2490.58 -1.17272 5.21681 0
M  V30 25407 C 2491.88 1.01143 5.12413 0
M  V30 25408 H 2493.58 0.850057 2.87079 0
M  V30 25409 H 2491.12 0.410226 1.38033 0
M  V30 25410 H 2493.08 -1.30605 4.0065 0
M  V30 25411 H 2491.8 -1.65704 2.81442 0
M  V30 25412 H 2490.46 0.303491 3.65342 0
M  V30 25413 H 2490.11 -1.97322 4.6268 0
M  V30 25414 H 2489.81 -0.698294 5.83436 0
M  V30 25415 H 2491.33 -1.62937 5.88459 0
M  V30 25416 H 2492.74 0.634374 5.69779 0
M  V30 25417 H 2491.14 1.41409 5.83201 0
M  V30 25418 H 2492.21 1.843 4.48511 0
M  V30 25419 N 2493.55 -1.50749 0.459618 0
M  V30 25420 C 2494.8 -2.01857 -0.0991177 0
M  V30 25421 C 2495.12 -1.34443 -1.41245 0
M  V30 25422 O 2494.39 -0.486055 -1.89774 0
M  V30 25423 H 2492.97 -0.745949 -0.0396199 0
M  V30 25424 H 2495.64 -1.85193 0.60742 0
M  V30 25425 H 2494.73 -3.11024 -0.258943 0
M  V30 25426 N 2495.03 -0.191784 -1.56429 0
M  V30 25427 C 2496.28 0.448053 -1.96661 0
M  V30 25428 C 2496.59 1.62989 -1.08139 0
M  V30 25429 O 2497.8 2.3373 -1.38139 0
M  V30 25430 C 2496.26 0.848524 -3.49754 0
M  V30 25431 C 2495.86 -0.308842 -4.46934 0
M  V30 25432 C 2497.61 1.45563 -3.98763 0
M  V30 25433 C 2495.52 0.112402 -5.91293 0
M  V30 25434 H 2494.45 0.171166 -0.734315 0
M  V30 25435 H 2497.1 -0.283274 -1.813 0
M  V30 25436 H 2495.48 1.63642 -3.60607 0
M  V30 25437 H 2496.65 -1.08635 -4.47811 0
M  V30 25438 H 2494.97 -0.827229 -4.081 0
M  V30 25439 H 2497.56 1.78319 -5.0409 0
M  V30 25440 H 2497.91 2.36093 -3.42879 0
M  V30 25441 H 2498.44 0.731768 -3.91012 0
M  V30 25442 H 2495.18 -0.758629 -6.51095 0
M  V30 25443 H 2494.7 0.854837 -5.93677 0
M  V30 25444 H 2496.38 0.549335 -6.44664 0
M  V30 25445 N 2496.51 1.57387 0.0818378 0
M  V30 25446 C 2497.76 1.87031 0.784041 0
M  V30 25447 C 2498.09 0.78272 1.77728 0
M  V30 25448 O 2497.36 -0.208017 1.93384 0
M  V30 25449 C 2497.65 3.27326 1.50099 0
M  V30 25450 C 2497.5 4.46727 0.524847 0
M  V30 25451 C 2498.82 3.65709 2.44837 0
M  V30 25452 H 2495.94 0.680262 0.28357 0
M  V30 25453 H 2498.58 1.89941 0.0474019 0
M  V30 25454 H 2496.73 3.24976 2.12891 0
M  V30 25455 H 2498.4 4.61198 -0.0970922 0
M  V30 25456 H 2496.65 4.33502 -0.160682 0
M  V30 25457 H 2497.32 5.4165 1.06391 0
M  V30 25458 H 2499.79 3.69088 1.92128 0
M  V30 25459 H 2498.67 4.64781 2.9201 0
M  V30 25460 H 2498.93 2.95101 3.29192 0
M  V30 25461 N 2497.99 -0.35299 1.53596 0
M  V30 25462 C 2498.95 -1.41591 1.80235 0
M  V30 25463 C 2499.95 -1.46034 0.673107 0
M  V30 25464 O 2501.14 -1.46574 0.941361 0
M  V30 25465 C 2498.27 -2.80604 1.93583 0
M  V30 25466 H 2499.47 -1.19239 2.75177 0
M  V30 25467 H 2497.02 -0.586846 1.44865 0
M  V30 25468 H 2497.75 -3.08253 1.00751 0
M  V30 25469 H 2497.54 -2.78776 2.75728 0
M  V30 25470 H 2499.03 -3.57555 2.15742 0
M  V30 25471 N 2499.47 -1.45169 -0.613489 0
M  V30 25472 C 2500.71 -1.49098 -1.37469 0
M  V30 25473 C 2501.05 -0.129935 -1.93765 0
M  V30 25474 O 2500.32 0.854827 -1.74708 0
M  V30 25475 C 2500.6 -2.56547 -2.52697 0
M  V30 25476 C 2500.46 -4.02074 -2.01636 0
M  V30 25477 C 2501.78 -2.60333 -3.54844 0
M  V30 25478 H 2498.9 -0.542839 -0.498493 0
M  V30 25479 H 2501.54 -1.76946 -0.692094 0
M  V30 25480 H 2499.69 -2.32931 -3.10927 0
M  V30 25481 H 2501.36 -4.3688 -1.481 0
M  V30 25482 H 2499.6 -4.13011 -1.32681 0
M  V30 25483 H 2500.27 -4.72933 -2.84673 0
M  V30 25484 H 2502.75 -2.81479 -3.06445 0
M  V30 25485 H 2501.63 -3.37388 -4.32967 0
M  V30 25486 H 2501.89 -1.65198 -4.10076 0
M  V30 25487 N 2500.95 0.855472 -1.32361 0
M  V30 25488 C 2501.9 1.95203 -1.17812 0
M  V30 25489 C 2502.88 1.60674 -0.0852602 0
M  V30 25490 O 2504.07 1.74234 -0.311682 0
M  V30 25491 C 2501.2 3.31225 -0.902495 0
M  V30 25492 C 2500.29 3.71976 -2.03702 0
M  V30 25493 N 2500.68 3.84562 -3.28551 0
M  V30 25494 C 2498.98 4.01597 -1.94 0
M  V30 25495 C 2499.68 4.19622 -4.02855 0
M  V30 25496 N 2498.65 4.31096 -3.31145 0
M  V30 25497 H 2502.45 2.03066 -2.12465 0
M  V30 25498 H 2499.97 1.04718 -1.24129 0
M  V30 25499 H 2501.97 4.09553 -0.779222 0
M  V30 25500 H 2500.63 3.2468 0.0356696 0
M  V30 25501 H 2501.64 3.68905 -3.63497 0
M  V30 25502 H 2498.31 4.03359 -1.0774 0
M  V30 25503 H 2499.7 4.36836 -5.10514 0
M  V30 25504 N 2502.42 1.15558 1.07164 0
M  V30 25505 C 2503.83 0.940721 1.61268 0
M  V30 25506 C 2504.19 -0.517518 1.89252 0
M  V30 25507 O 2503.31 -1.389 1.65939 0
M  V30 25508 C 2503.91 1.70125 2.9299 0
M  V30 25509 C 2502.46 1.53162 3.43829 0
M  V30 25510 C 2501.61 1.71562 2.17857 0
M  V30 25511 H 2504.56 1.30556 0.902267 0
M  V30 25512 H 2504.58 1.17187 3.62005 0
M  V30 25513 H 2504.1 2.76253 2.72591 0
M  V30 25514 H 2502.2 0.494359 3.69306 0
M  V30 25515 H 2502.31 2.30983 4.19743 0
M  V30 25516 H 2500.67 1.14229 2.27648 0
M  V30 25517 H 2501.46 2.7906 1.99951 0
M  V30 25518 N 2503.9 -1.25546 0.952678 0
M  V30 25519 C 2505.13 -1.9782 0.623059 0
M  V30 25520 C 2505.55 -1.70354 -0.79757 0
M  V30 25521 O 2504.91 -0.95831 -1.53903 0
M  V30 25522 C 2504.96 -3.49556 0.885593 0
M  V30 25523 O 2504.06 -4.12384 -0.0365917 0
M  V30 25524 H 2503.4 -0.620228 0.237093 0
M  V30 25525 H 2505.93 -1.59716 1.27874 0
M  V30 25526 H 2505.94 -3.99857 0.811079 0
M  V30 25527 H 2504.62 -3.68877 1.92101 0
M  V30 25528 H 2503.19 -3.72791 0.089961 0
M  V30 25529 N 2505.38 -0.721022 -1.40139 0
M  V30 25530 C 2506.33 -0.0719595 -2.30688 0
M  V30 25531 C 2507.3 0.744558 -1.48477 0
M  V30 25532 O 2508.48 0.707391 -1.77202 0
M  V30 25533 C 2505.62 0.839796 -3.34726 0
M  V30 25534 C 2504.73 0.0121679 -4.31998 0
M  V30 25535 C 2503.87 0.923903 -5.23104 0
M  V30 25536 C 2502.91 0.0906894 -6.12033 0
M  V30 25537 N 2502.05 0.957596 -6.95539 0
M  V30 25538 H 2506.89 -0.849805 -2.85626 0
M  V30 25539 H 2504.42 -0.43075 -1.40652 0
M  V30 25540 H 2506.38 1.38272 -3.9362 0
M  V30 25541 H 2505.01 1.58376 -2.81277 0
M  V30 25542 H 2504.06 -0.648006 -3.7484 0
M  V30 25543 H 2505.37 -0.632682 -4.94771 0
M  V30 25544 H 2504.53 1.53517 -5.86956 0
M  V30 25545 H 2503.27 1.60256 -4.60618 0
M  V30 25546 H 2502.27 -0.533473 -5.47206 0
M  V30 25547 H 2503.5 -0.584547 -6.7658 0
M  V30 25548 H 2501.44 1.6218 -6.35636 0
M  V30 25549 H 2501.36 0.368907 -7.55099 0
M  V30 25550 H 2502.63 1.55487 -7.63835 0
M  V30 25551 N 2506.86 1.50503 -0.467606 0
M  V30 25552 C 2507.79 2.26281 0.364615 0
M  V30 25553 C 2508.8 1.31474 0.960128 0
M  V30 25554 O 2509.99 1.5701 0.849126 0
M  V30 25555 C 2507.09 3.02648 1.52503 0
M  V30 25556 C 2506.26 4.24784 1.04294 0
M  V30 25557 C 2505.32 4.83474 2.077 0
M  V30 25558 O 2504.35 5.44486 1.65903 0
M  V30 25559 N 2505.55 4.70165 3.40477 0
M  V30 25560 H 2508.32 2.98342 -0.285002 0
M  V30 25561 H 2505.88 1.5913 -0.298191 0
M  V30 25562 H 2507.87 3.38791 2.21365 0
M  V30 25563 H 2506.44 2.33408 2.07941 0
M  V30 25564 H 2505.66 3.93787 0.180324 0
M  V30 25565 H 2506.95 5.0398 0.69871 0
M  V30 25566 H 2506.35 4.21636 3.77147 0
M  V30 25567 H 2504.9 5.10587 4.05147 0
M  V30 25568 N 2508.34 0.200077 1.56325 0
M  V30 25569 C 2509.75 -0.311638 1.84081 0
M  V30 25570 C 2510.1 -1.61029 1.1209 0
M  V30 25571 O 2509.22 -2.12977 0.383358 0
M  V30 25572 C 2509.82 -0.572201 3.33933 0
M  V30 25573 C 2508.38 -1.02827 3.62082 0
M  V30 25574 C 2507.52 -0.0795852 2.77186 0
M  V30 25575 H 2510.47 0.423756 1.52938 0
M  V30 25576 H 2510.5 -1.4209 3.52974 0
M  V30 25577 H 2510.01 0.373147 3.86302 0
M  V30 25578 H 2508.11 -1.98773 3.15151 0
M  V30 25579 H 2508.22 -0.917541 4.70232 0
M  V30 25580 H 2506.59 -0.582404 2.47952 0
M  V30 25581 H 2507.37 0.860297 3.32346 0
M  V30 25582 N 2509.81 -1.57429 -0.0734901 0
M  V30 25583 C 2510.76 -2.04609 -1.10625 0
M  V30 25584 C 2511.76 -0.951113 -1.40179 0
M  V30 25585 O 2512.96 -1.13623 -1.39606 0
M  V30 25586 H 2509.34 -0.652358 -0.374076 0
M  V30 25587 H 2511.31 -2.90498 -0.682167 0
M  V30 25588 C 2510.06 -2.50428 -2.41208 0
M  V30 25589 H 2509.38 -3.34276 -2.19317 0
M  V30 25590 H 2510.82 -2.87195 -3.11922 0
M  V30 25591 C 2509.28 -1.3865 -3.07047 0
M  V30 25592 O 2509.81 -0.727652 -3.95055 0
M  V30 25593 N 2508.01 -1.13205 -2.67643 0
M  V30 25594 H 2507.56 -1.66963 -1.96166 0
M  V30 25595 H 2507.52 -0.386202 -3.12019 0
M  V30 25596 N 2511.29 0.344839 -1.53781 0
M  V30 25597 C 2512.52 1.10974 -1.75213 0
M  V30 25598 C 2512.94 1.81622 -0.489392 0
M  V30 25599 O 2512.3 1.72503 0.557895 0
M  V30 25600 C 2512.35 2.09988 -2.93151 0
M  V30 25601 O 2511.45 3.17482 -2.63209 0
M  V30 25602 H 2510.79 0.321011 -0.581247 0
M  V30 25603 H 2513.32 0.395626 -2.00739 0
M  V30 25604 H 2513.33 2.53232 -3.19903 0
M  V30 25605 H 2512.01 1.57963 -3.84734 0
M  V30 25606 H 2510.58 2.79065 -2.4734 0
M  V30 25607 N 2512.77 1.45492 0.605781 0
M  V30 25608 C 2514.02 1.49825 1.36676 0
M  V30 25609 C 2514.35 0.140209 1.93693 0
M  V30 25610 O 2513.62 -0.84555 1.75159 0
M  V30 25611 C 2513.91 2.57883 2.51333 0
M  V30 25612 C 2513.76 4.03137 1.995 0
M  V30 25613 C 2515.08 2.62212 3.53459 0
M  V30 25614 H 2512.2 0.545475 0.495607 0
M  V30 25615 H 2514.84 1.77311 0.682701 0
M  V30 25616 H 2512.99 2.34577 3.09687 0
M  V30 25617 H 2514.66 4.37659 1.45782 0
M  V30 25618 H 2512.9 4.13709 1.30489 0
M  V30 25619 H 2513.58 4.74436 2.82161 0
M  V30 25620 H 2516.05 2.831 3.04948 0
M  V30 25621 H 2514.93 3.3968 4.31172 0
M  V30 25622 H 2515.19 1.6737 4.09194 0
M  V30 25623 N 2514.25 -0.848441 1.32813 0
M  V30 25624 C 2515.2 -1.97893 1.22234 0
M  V30 25625 C 2516.19 -1.68932 0.125778 0
M  V30 25626 O 2517.4 -1.77663 0.289114 0
M  V30 25627 H 2513.77 -0.64947 0.379069 0
M  V30 25628 H 2515.74 -2.03942 2.17831 0
M  V30 25629 C 2514.49 -3.33935 0.968631 0
M  V30 25630 H 2513.81 -3.56753 1.80464 0
M  V30 25631 H 2515.25 -4.13565 0.934881 0
M  V30 25632 C 2513.71 -3.35294 -0.328569 0
M  V30 25633 O 2514.24 -3.78747 -1.33841 0
M  V30 25634 N 2512.45 -2.88451 -0.352737 0
M  V30 25635 H 2512 -2.53284 0.469586 0
M  V30 25636 H 2511.95 -2.89743 -1.22051 0
M  V30 25637 N 2515.73 -1.16125 -1.06549 0
M  V30 25638 C 2517.14 -0.94926 -1.60767 0
M  V30 25639 C 2517.49 0.507474 -1.89523 0
M  V30 25640 O 2516.61 1.38018 -1.66673 0
M  V30 25641 C 2517.21 -1.71676 -2.92083 0
M  V30 25642 C 2515.77 -1.54983 -3.43012 0
M  V30 25643 C 2514.91 -1.72715 -2.16944 0
M  V30 25644 H 2517.87 -1.31033 -0.895331 0
M  V30 25645 H 2517.89 -1.19105 -3.61378 0
M  V30 25646 H 2517.4 -2.77695 -2.71122 0
M  V30 25647 H 2515.5 -0.513938 -3.69039 0
M  V30 25648 H 2515.61 -2.33206 -4.18512 0
M  V30 25649 H 2513.98 -1.15435 -2.27039 0
M  V30 25650 H 2514.76 -2.80116 -1.98468 0
M  V30 25651 N 2517.2 1.25039 -0.959323 0
M  V30 25652 C 2518.44 1.9463 -0.624377 0
M  V30 25653 C 2518.81 1.73419 0.824 0
M  V30 25654 O 2520.01 2.36972 1.26876 0
M  V30 25655 C 2518.28 3.43734 -0.978865 0
M  V30 25656 S 2519.84 4.32217 -0.757203 0
M  V30 25657 H 2516.66 0.672997 -0.229338 0
M  V30 25658 H 2519.26 1.51593 -1.2345 0
M  V30 25659 H 2517.96 3.56676 -2.03004 0
M  V30 25660 H 2517.49 3.91757 -0.359186 0
M  V30 25661 H 2519.51 4.94821 0.369672 0
M  V30 25662 N 2518.68 0.728444 1.39755 0
M  V30 25663 C 2519.65 0.09277 2.29012 0
M  V30 25664 C 2520.65 -0.674 1.45993 0
M  V30 25665 O 2521.84 -0.50399 1.6675 0
M  V30 25666 C 2518.97 -0.878079 3.29397 0
M  V30 25667 H 2520.16 0.879061 2.86727 0
M  V30 25668 H 2517.71 0.493873 1.48292 0
M  V30 25669 H 2518.45 -1.69096 2.76725 0
M  V30 25670 H 2518.23 -0.330983 3.90701 0
M  V30 25671 H 2519.72 -1.31963 3.96201 0
M  V30 25672 N 2520.16 -1.50253 0.475581 0
M  V30 25673 C 2521.41 -2.0235 -0.0778563 0
M  V30 25674 C 2521.74 -1.35725 -1.39317 0
M  V30 25675 O 2520.99 -0.473428 -1.89887 0
M  V30 25676 C 2521.29 -3.56096 -0.305052 0
M  V30 25677 C 2520.96 -4.41224 0.929107 0
M  V30 25678 C 2519.62 -4.64207 1.26747 0
M  V30 25679 C 2521.97 -4.9092 1.75062 0
M  V30 25680 C 2519.3 -5.34133 2.42733 0
M  V30 25681 C 2521.65 -5.6212 2.9018 0
M  V30 25682 C 2520.31 -5.83356 3.24426 0
M  V30 25683 H 2519.58 -0.740452 -0.0284897 0
M  V30 25684 H 2522.23 -1.8082 0.630575 0
M  V30 25685 H 2520.54 -3.76165 -1.09577 0
M  V30 25686 H 2522.23 -3.93975 -0.747308 0
M  V30 25687 H 2518.82 -4.23558 0.655502 0
M  V30 25688 H 2523.01 -4.73014 1.50239 0
M  V30 25689 H 2518.26 -5.48782 2.69534 0
M  V30 25690 H 2522.44 -5.99608 3.5418 0
M  V30 25691 H 2520.06 -6.37315 4.14407 0
M  V30 25692 N 2521.64 -0.208365 -1.56217 0
M  V30 25693 C 2522.86 0.435187 -2.02783 0
M  V30 25694 C 2523.29 1.53483 -1.0874 0
M  V30 25695 O 2522.65 1.81152 -0.0732173 0
M  V30 25696 C 2522.69 0.956274 -3.47689 0
M  V30 25697 O 2521.8 2.06843 -3.56777 0
M  V30 25698 H 2521.14 0.100146 -0.656404 0
M  V30 25699 H 2523.67 -0.323135 -2.02032 0
M  V30 25700 H 2523.68 1.26948 -3.87747 0
M  V30 25701 H 2522.35 0.151357 -4.15624 0
M  V30 25702 H 2520.93 1.76286 -3.286 0
M  V30 25703 N 2523.12 1.57465 0.0651402 0
M  V30 25704 C 2524.53 1.53972 0.420078 0
M  V30 25705 C 2524.73 0.929505 1.7878 0
M  V30 25706 O 2523.79 0.534883 2.4677 0
M  V30 25707 C 2525.1 2.98597 0.355032 0
M  V30 25708 C 2526.65 3.09966 0.434738 0
M  V30 25709 C 2527.12 4.56254 0.399529 0
M  V30 25710 N 2528.62 4.60916 0.459407 0
M  V30 25711 C 2529.35 5.71596 0.454484 0
M  V30 25712 N 2528.85 6.91621 0.403981 0
M  V30 25713 N 2530.64 5.59858 0.501537 0
M  V30 25714 H 2522.79 1.95496 -0.830362 0
M  V30 25715 H 2525.05 0.895096 -0.31226 0
M  V30 25716 H 2524.76 3.46827 -0.583418 0
M  V30 25717 H 2524.63 3.58833 1.16269 0
M  V30 25718 H 2527.02 2.61705 1.36361 0
M  V30 25719 H 2527.1 2.52628 -0.401614 0
M  V30 25720 H 2526.75 5.05174 -0.525525 0
M  V30 25721 H 2526.68 5.11463 1.2535 0
M  V30 25722 H 2529.17 3.74545 0.502416 0
M  V30 25723 H 2529.48 7.71742 0.404333 0
M  V30 25724 H 2527.82 6.94011 0.370568 0
M  V30 25725 H 2531.02 4.6499 0.538731 0
M  V30 25726 H 2531.19 6.46112 0.494231 0
M  V30 25727 N 2524.59 -0.336679 1.53962 0
M  V30 25728 C 2525.83 -1.08451 1.73256 0
M  V30 25729 C 2526.2 -1.85669 0.48897 0
M  V30 25730 O 2527.4 -2.62922 0.559047 0
M  V30 25731 C 2525.67 -1.99522 2.96522 0
M  V30 25732 S 2527.23 -2.81435 3.3666 0
M  V30 25733 H 2524.05 -0.366336 0.60936 0
M  V30 25734 H 2526.65 -0.36209 1.92118 0
M  V30 25735 H 2525.35 -1.41607 3.85196 0
M  V30 25736 H 2524.88 -2.76191 2.80147 0
M  V30 25737 H 2526.9 -4.01962 2.90932 0
M  V30 25738 N 2526.07 -1.45812 -0.598057 0
M  V30 25739 C 2527.3 -1.54101 -1.38808 0
M  V30 25740 C 2527.72 -0.177611 -1.8726 0
M  V30 25741 O 2527.08 0.839513 -1.60692 0
M  V30 25742 C 2527.13 -2.53747 -2.56212 0
M  V30 25743 O 2526.23 -2.06188 -3.57156 0
M  V30 25744 H 2525.57 -0.519122 -0.414015 0
M  V30 25745 H 2528.1 -1.91251 -0.726938 0
M  V30 25746 H 2528.11 -2.72862 -3.03332 0
M  V30 25747 H 2526.79 -3.52763 -2.20297 0
M  V30 25748 H 2525.37 -1.96993 -3.1662 0
M  V30 25749 N 2527.55 0.841385 -1.33261 0
M  V30 25750 C 2528.5 1.93943 -1.19876 0
M  V30 25751 C 2529.48 1.60574 -0.102297 0
M  V30 25752 O 2530.68 1.73894 -0.330144 0
M  V30 25753 C 2527.81 3.30249 -0.937575 0
M  V30 25754 C 2526.89 3.69795 -2.07636 0
M  V30 25755 N 2527.28 3.81056 -3.32611 0
M  V30 25756 C 2525.58 3.99516 -1.98249 0
M  V30 25757 C 2526.28 4.15326 -4.07283 0
M  V30 25758 N 2525.26 4.2756 -3.35699 0
M  V30 25759 H 2529.06 2.00801 -2.14607 0
M  V30 25760 H 2526.57 1.03396 -1.25232 0
M  V30 25761 H 2528.57 4.08704 -0.822617 0
M  V30 25762 H 2527.23 3.247 0.0012309 0
M  V30 25763 H 2528.24 3.65028 -3.67389 0
M  V30 25764 H 2524.92 4.02193 -1.12012 0
M  V30 25765 H 2526.31 4.31397 -5.15118 0
M  V30 25766 N 2529.03 1.16688 1.05932 0
M  V30 25767 C 2529.96 0.899986 2.15459 0
M  V30 25768 C 2530.94 -0.155124 1.69391 0
M  V30 25769 O 2532.13 -0.00645279 1.94199 0
M  V30 25770 C 2529.26 0.404301 3.44939 0
M  V30 25771 C 2528.21 1.39774 4.04533 0
M  V30 25772 C 2527.54 0.760309 5.29267 0
M  V30 25773 C 2528.84 2.76853 4.42888 0
M  V30 25774 H 2530.53 1.81592 2.38043 0
M  V30 25775 H 2528.08 0.874534 1.14402 0
M  V30 25776 H 2530.03 0.205045 4.20901 0
M  V30 25777 H 2528.75 -0.54715 3.21984 0
M  V30 25778 H 2527.41 1.58361 3.30632 0
M  V30 25779 H 2527.06 -0.197743 5.02611 0
M  V30 25780 H 2526.76 1.42342 5.70099 0
M  V30 25781 H 2528.28 0.571157 6.07923 0
M  V30 25782 H 2529.7 2.62028 5.09916 0
M  V30 25783 H 2528.09 3.39672 4.94715 0
M  V30 25784 H 2529.16 3.31829 3.53578 0
M  V30 25785 N 2530.51 -1.24529 0.96594 0
M  V30 25786 C 2531.75 -1.94296 0.63469 0
M  V30 25787 C 2532.11 -1.73854 -0.814791 0
M  V30 25788 O 2533.31 -2.37642 -1.25618 0
M  V30 25789 C 2531.58 -3.4321 0.997081 0
M  V30 25790 S 2533.14 -4.3181 0.780114 0
M  V30 25791 H 2529.96 -0.671771 0.232904 0
M  V30 25792 H 2532.56 -1.50936 1.24252 0
M  V30 25793 H 2531.27 -3.55594 2.04892 0
M  V30 25794 H 2530.8 -3.91561 0.379957 0
M  V30 25795 H 2532.81 -4.9501 -0.343425 0
M  V30 25796 N 2531.99 -0.735845 -1.39367 0
M  V30 25797 C 2532.92 -0.111547 -2.33233 0
M  V30 25798 C 2533.9 0.723307 -1.53955 0
M  V30 25799 O 2535.08 0.668115 -1.82345 0
M  V30 25800 C 2532.21 0.795857 -3.38058 0
M  V30 25801 C 2531.17 0.0650968 -4.2795 0
M  V30 25802 C 2530.49 1.08957 -5.23481 0
M  V30 25803 C 2531.79 -1.09282 -5.10739 0
M  V30 25804 H 2533.49 -0.895621 -2.8569 0
M  V30 25805 H 2531.03 -0.432134 -1.37363 0
M  V30 25806 H 2532.98 1.24214 -4.02677 0
M  V30 25807 H 2531.71 1.61206 -2.84043 0
M  V30 25808 H 2530.37 -0.361575 -3.64813 0
M  V30 25809 H 2530.02 1.89936 -4.65761 0
M  V30 25810 H 2529.72 0.605386 -5.84473 0
M  V30 25811 H 2531.24 1.53554 -5.90977 0
M  V30 25812 H 2532.65 -0.72494 -5.68698 0
M  V30 25813 H 2531.05 -1.5067 -5.80877 0
M  V30 25814 H 2532.12 -1.91412 -4.45522 0
M  V30 25815 N 2533.46 1.49999 -0.483543 0
M  V30 25816 C 2534.39 2.31644 0.293788 0
M  V30 25817 C 2535.37 1.39114 0.97884 0
M  V30 25818 O 2536.56 1.68031 0.973614 0
M  V30 25819 C 2533.69 3.19183 1.36892 0
M  V30 25820 C 2532.64 4.20366 0.804759 0
M  V30 25821 C 2531.97 4.96725 1.97911 0
M  V30 25822 C 2533.27 5.21945 -0.192404 0
M  V30 25823 H 2534.96 2.9688 -0.387668 0
M  V30 25824 H 2532.51 1.42769 -0.187881 0
M  V30 25825 H 2534.46 3.75103 1.9203 0
M  V30 25826 H 2533.19 2.51857 2.07932 0
M  V30 25827 H 2531.85 3.65565 0.275254 0
M  V30 25828 H 2531.49 4.25861 2.67678 0
M  V30 25829 H 2531.19 5.65176 1.60779 0
M  V30 25830 H 2532.72 5.55483 2.53516 0
M  V30 25831 H 2534.13 5.72663 0.270232 0
M  V30 25832 H 2532.53 5.98188 -0.478648 0
M  V30 25833 H 2533.6 4.71926 -1.11418 0
M  V30 25834 N 2534.94 0.216646 1.56104 0
M  V30 25835 C 2536.17 -0.424426 2.03011 0
M  V30 25836 C 2536.59 -1.52905 1.09553 0
M  V30 25837 O 2535.95 -1.81111 0.0828232 0
M  V30 25838 C 2536 -0.937822 3.48191 0
M  V30 25839 O 2535.1 -2.04948 3.57869 0
M  V30 25840 H 2534.44 -0.096664 0.656926 0
M  V30 25841 H 2536.97 0.333845 2.01858 0
M  V30 25842 H 2536.98 -1.2489 3.88415 0
M  V30 25843 H 2535.66 -0.129313 4.15699 0
M  V30 25844 H 2534.23 -1.74541 3.2953 0
M  V30 25845 N 2536.42 -1.57498 -0.0567885 0
M  V30 25846 C 2537.64 -1.92602 -0.769368 0
M  V30 25847 C 2538.07 -0.814366 -1.69557 0
M  V30 25848 O 2537.43 0.231871 -1.79811 0
M  V30 25849 C 2537.48 -3.26706 -1.52628 0
M  V30 25850 O 2536.58 -3.16998 -2.63791 0
M  V30 25851 H 2535.92 -0.630284 -0.208898 0
M  V30 25852 H 2538.45 -2.0459 -0.0205438 0
M  V30 25853 H 2538.46 -3.6094 -1.90228 0
M  V30 25854 H 2537.14 -4.07188 -0.846803 0
M  V30 25855 H 2535.71 -2.9435 -2.28938 0
M  V30 25856 N 2537.9 0.328509 -1.54138 0
M  V30 25857 C 2538.83 1.42507 -1.79512 0
M  V30 25858 C 2539.84 1.4806 -0.676906 0
M  V30 25859 O 2541.03 1.50873 -0.953925 0
M  V30 25860 C 2538.13 2.81075 -1.89342 0
M  V30 25861 C 2537.3 2.98783 -3.19448 0
M  V30 25862 C 2536.36 4.17682 -3.20043 0
M  V30 25863 O 2535.39 4.11079 -3.93704 0
M  V30 25864 N 2536.59 5.26972 -2.43476 0
M  V30 25865 H 2539.36 1.21106 -2.74141 0
M  V30 25866 H 2536.92 0.518472 -1.53374 0
M  V30 25867 H 2538.91 3.58815 -1.87173 0
M  V30 25868 H 2537.48 2.95549 -1.01831 0
M  V30 25869 H 2536.7 2.08386 -3.34618 0
M  V30 25870 H 2537.99 3.07507 -4.0536 0
M  V30 25871 H 2537.39 5.35211 -1.8321 0
M  V30 25872 H 2535.94 6.0315 -2.4709 0
M  V30 25873 N 2539.38 1.46127 0.590316 0
M  V30 25874 C 2540.62 1.50744 1.34613 0
M  V30 25875 C 2540.94 0.15752 1.94363 0
M  V30 25876 O 2540.21 -0.815104 1.78137 0
M  V30 25877 H 2538.79 0.555184 0.49978 0
M  V30 25878 H 2541.46 1.82204 0.691921 0
M  V30 25879 H 2540.55 2.25591 2.15674 0
M  V30 25880 N 2540.85 -0.834306 1.33705 0
M  V30 25881 C 2542.26 -1.40617 1.22815 0
M  V30 25882 C 2542.62 -1.95618 -0.151073 0
M  V30 25883 O 2541.74 -1.8917 -1.05089 0
M  V30 25884 C 2542.34 -2.5562 2.2236 0
M  V30 25885 C 2540.89 -3.08747 2.15295 0
M  V30 25886 C 2540.04 -1.81566 2.09592 0
M  V30 25887 H 2542.99 -0.639677 1.45237 0
M  V30 25888 H 2543.01 -3.33385 1.83397 0
M  V30 25889 H 2542.53 -2.1556 3.22731 0
M  V30 25890 H 2540.63 -3.53341 1.18241 0
M  V30 25891 H 2540.74 -3.68611 3.06044 0
M  V30 25892 H 2539.1 -2.02001 1.55138 0
M  V30 25893 H 2539.89 -1.43696 3.11779 0
M  V30 25894 N 2542.33 -1.17248 -1.05312 0
M  V30 25895 C 2543.28 -0.856234 -2.11312 0
M  V30 25896 C 2544.27 0.168666 -1.60014 0
M  V30 25897 O 2545.46 -0.0335935 -1.76968 0
M  V30 25898 C 2542.59 -0.369977 -3.41301 0
M  V30 25899 C 2541.67 -1.42623 -3.99399 0
M  V30 25900 N 2542.06 -2.63935 -4.31476 0
M  V30 25901 C 2540.36 -1.28381 -4.27123 0
M  V30 25902 C 2541.06 -3.31796 -4.77793 0
M  V30 25903 N 2540.04 -2.59174 -4.77839 0
M  V30 25904 H 2543.84 -1.7786 -2.33972 0
M  V30 25905 H 2541.35 -1.06102 -1.22948 0
M  V30 25906 H 2543.35 -0.12497 -4.16713 0
M  V30 25907 H 2542.01 0.546197 -3.20073 0
M  V30 25908 H 2543.02 -3.0091 -4.21514 0
M  V30 25909 H 2539.7 -0.429184 -4.15288 0
M  V30 25910 H 2541.09 -4.35404 -5.11735 0
M  V30 25911 N 2543.81 1.24015 -0.972531 0
M  V30 25912 C 2545.06 1.92218 -0.637068 0
M  V30 25913 C 2545.39 1.75977 0.828387 0
M  V30 25914 O 2544.64 1.10958 1.61204 0
M  V30 25915 C 2544.94 3.44161 -0.963754 0
M  V30 25916 C 2544.61 3.80574 -2.41814 0
M  V30 25917 C 2543.27 3.90225 -2.81563 0
M  V30 25918 C 2545.62 3.98287 -3.36179 0
M  V30 25919 C 2542.95 4.15009 -4.1471 0
M  V30 25920 C 2545.3 4.2457 -4.6896 0
M  V30 25921 C 2543.96 4.3244 -5.0848 0
M  V30 25922 H 2543.23 0.703375 -0.23312 0
M  V30 25923 H 2545.88 1.472 -1.22492 0
M  V30 25924 H 2544.19 3.90697 -0.293718 0
M  V30 25925 H 2545.88 3.95149 -0.682519 0
M  V30 25926 H 2542.47 3.73631 -2.09994 0
M  V30 25927 H 2546.66 3.90229 -3.06651 0
M  V30 25928 H 2541.91 4.19324 -4.44947 0
M  V30 25929 H 2546.09 4.37219 -5.42044 0
M  V30 25930 H 2543.71 4.51398 -6.11673 0
M  V30 25931 N 2545.29 0.743226 1.38974 0
M  V30 25932 C 2546.52 0.304843 2.04339 0
M  V30 25933 C 2546.93 -1.06816 1.56163 0
M  V30 25934 O 2546.27 -1.68775 0.725314 0
M  V30 25935 C 2546.33 0.237432 3.58715 0
M  V30 25936 C 2546 1.55026 4.29902 0
M  V30 25937 C 2546.99 2.49752 4.55982 0
M  V30 25938 C 2544.68 1.81683 4.68291 0
M  V30 25939 C 2546.67 3.69362 5.19471 0
M  V30 25940 C 2544.36 3.01569 5.31507 0
M  V30 25941 C 2545.36 3.95229 5.5703 0
M  V30 25942 O 2545.04 5.13009 6.18932 0
M  V30 25943 H 2544.78 0.129721 0.663437 0
M  V30 25944 H 2547.33 1.01005 1.7885 0
M  V30 25945 H 2545.56 -0.523935 3.83134 0
M  V30 25946 H 2547.25 -0.17005 4.05544 0
M  V30 25947 H 2548.02 2.3043 4.26763 0
M  V30 25948 H 2543.89 1.09623 4.47777 0
M  V30 25949 H 2547.44 4.42483 5.3931 0
M  V30 25950 H 2543.34 3.20788 5.60147 0
M  V30 25951 H 2544.1 5.13453 6.37424 0
M  V30 25952 N 2546.77 -1.4974 0.491491 0
M  V30 25953 C 2547.99 -2.07325 -0.0556813 0
M  V30 25954 C 2548.42 -1.35059 -1.30923 0
M  V30 25955 O 2547.77 -0.404396 -1.76732 0
M  V30 25956 C 2547.82 -3.59333 -0.302011 0
M  V30 25957 O 2546.93 -3.88675 -1.37861 0
M  V30 25958 H 2546.27 -0.663635 0.0220072 0
M  V30 25959 H 2548.8 -1.92672 0.688386 0
M  V30 25960 H 2548.81 -4.04459 -0.536393 0
M  V30 25961 H 2547.48 -4.11344 0.613902 0
M  V30 25962 H 2546.06 -3.55369 -1.12993 0
M  V30 25963 N 2548.24 -0.224922 -1.55987 0
M  V30 25964 C 2549.48 0.407671 -2.00293 0
M  V30 25965 C 2549.85 1.56709 -1.10933 0
M  V30 25966 O 2551.05 2.26592 -1.44601 0
M  V30 25967 C 2549.32 0.827989 -3.47677 0
M  V30 25968 S 2550.88 1.45421 -4.14003 0
M  V30 25969 H 2547.7 0.129244 -0.699154 0
M  V30 25970 H 2550.3 -0.335001 -1.92608 0
M  V30 25971 H 2549 -0.0254685 -4.10392 0
M  V30 25972 H 2548.53 1.60339 -3.59242 0
M  V30 25973 H 2550.55 2.7433 -4.1347 0
M  V30 25974 N 2549.72 1.57526 0.0484352 0
M  V30 25975 C 2550.97 1.88652 0.744193 0
M  V30 25976 C 2551.3 0.820243 1.76027 0
M  V30 25977 O 2550.58 -0.166951 1.93782 0
M  V30 25978 C 2550.86 3.30436 1.43122 0
M  V30 25979 C 2550.71 4.4774 0.429971 0
M  V30 25980 C 2552.03 3.7082 2.37024 0
M  V30 25981 H 2549.15 0.686124 0.269077 0
M  V30 25982 H 2551.79 1.89999 0.00710192 0
M  V30 25983 H 2549.94 3.29419 2.0595 0
M  V30 25984 H 2551.61 4.60888 -0.194897 0
M  V30 25985 H 2549.86 4.33064 -0.252598 0
M  V30 25986 H 2550.53 5.43785 0.948778 0
M  V30 25987 H 2553 3.7308 1.84256 0
M  V30 25988 H 2551.88 4.7087 2.82086 0
M  V30 25989 H 2552.14 3.02018 3.22859 0
M  V30 25990 N 2551.2 -0.32033 1.5431 0
M  V30 25991 C 2552.44 -1.06607 1.74397 0
M  V30 25992 C 2552.8 -1.8514 0.508635 0
M  V30 25993 O 2554.01 -2.62314 0.586902 0
M  V30 25994 C 2552.28 -1.96366 2.98622 0
M  V30 25995 S 2553.84 -2.77848 3.39626 0
M  V30 25996 H 2550.65 -0.359852 0.613211 0
M  V30 25997 H 2553.26 -0.341693 1.92491 0
M  V30 25998 H 2551.96 -1.37514 3.86676 0
M  V30 25999 H 2551.49 -2.73204 2.8306 0
M  V30 26000 H 2553.51 -3.98853 2.95179 0
M  V30 26001 N 2552.68 -1.46438 -0.582558 0
M  V30 26002 C 2554.09 -1.45918 -1.16468 0
M  V30 26003 C 2554.44 -0.200111 -1.95177 0
M  V30 26004 O 2553.57 0.696783 -2.04875 0
M  V30 26005 C 2554.16 -2.64371 -2.11881 0
M  V30 26006 C 2552.72 -2.66892 -2.65416 0
M  V30 26007 C 2551.87 -2.38605 -1.4129 0
M  V30 26008 H 2554.82 -1.54315 -0.370487 0
M  V30 26009 H 2554.84 -2.39898 -2.95346 0
M  V30 26010 H 2554.35 -3.55993 -1.54567 0
M  V30 26011 H 2552.45 -1.79343 -3.26599 0
M  V30 26012 H 2552.56 -3.6686 -3.08141 0
M  V30 26013 H 2550.93 -1.88666 -1.71105 0
M  V30 26014 H 2551.71 -3.32404 -0.858067 0
M  V30 26015 N 2554.16 0.827204 -1.34146 0
M  V30 26016 C 2555.38 1.62019 -1.29479 0
M  V30 26017 C 2555.81 1.87655 0.129259 0
M  V30 26018 O 2555.16 1.44902 1.08964 0
M  V30 26019 C 2555.21 2.94064 -2.08707 0
M  V30 26020 O 2554.32 3.85931 -1.45366 0
M  V30 26021 H 2553.66 0.492919 -0.444889 0
M  V30 26022 H 2556.19 1.02826 -1.76884 0
M  V30 26023 H 2556.2 3.43666 -2.19904 0
M  V30 26024 H 2554.87 2.74728 -3.12245 0
M  V30 26025 H 2553.45 3.44439 -1.42885 0
M  V30 26026 N 2555.63 1.17805 1.04688 0
M  V30 26027 C 2556.88 0.967648 1.77429 0
M  V30 26028 C 2557.2 -0.50454 1.8836 0
M  V30 26029 O 2556.47 -1.36614 1.40404 0
M  V30 26030 H 2555.05 0.355035 0.657236 0
M  V30 26031 H 2557.72 1.48373 1.26378 0
M  V30 26032 H 2556.81 1.40032 2.78922 0
M  V30 26033 N 2557.11 -1.23497 0.979094 0
M  V30 26034 C 2558.36 -1.92468 0.657834 0
M  V30 26035 C 2558.71 -1.74992 -0.799715 0
M  V30 26036 O 2558.01 -1.0994 -1.5692 0
M  V30 26037 C 2558.2 -3.43645 0.981992 0
M  V30 26038 C 2558.03 -3.75827 2.4695 0
M  V30 26039 C 2556.8 -3.96585 3.13126 0
M  V30 26040 C 2559 -3.81406 3.45013 0
M  V30 26041 N 2556.98 -4.15961 4.51497 0
M  V30 26042 C 2558.35 -4.0576 4.68785 0
M  V30 26043 C 2560.41 -3.64192 3.39512 0
M  V30 26044 C 2559.11 -4.14687 5.87731 0
M  V30 26045 C 2561.13 -3.74372 4.57821 0
M  V30 26046 C 2560.5 -3.99161 5.80388 0
M  V30 26047 H 2556.6 -0.725535 0.291758 0
M  V30 26048 H 2559.18 -1.48747 1.25629 0
M  V30 26049 H 2557.35 -3.86206 0.412247 0
M  V30 26050 H 2559.08 -3.99951 0.618138 0
M  V30 26051 H 2555.84 -3.93444 2.63626 0
M  V30 26052 H 2556.26 -4.29606 5.23228 0
M  V30 26053 H 2560.9 -3.44024 2.45779 0
M  V30 26054 H 2558.62 -4.33663 6.81881 0
M  V30 26055 H 2562.21 -3.62409 4.55139 0
M  V30 26056 H 2561.09 -4.06849 6.70405 0
M  V30 26057 N 2558.59 -0.750586 -1.38578 0
M  V30 26058 C 2559.82 -0.314848 -2.04996 0
M  V30 26059 C 2560.24 1.04746 -1.56237 0
M  V30 26060 O 2559.6 1.66691 -0.713011 0
M  V30 26061 C 2559.65 -0.343478 -3.5896 0
M  V30 26062 O 2558.75 0.663556 -4.07027 0
M  V30 26063 H 2558.09 -0.139973 -0.649079 0
M  V30 26064 H 2560.62 -1.02087 -1.77312 0
M  V30 26065 H 2560.63 -0.193305 -4.07542 0
M  V30 26066 H 2559.31 -1.33745 -3.93809 0
M  V30 26067 H 2557.88 0.478242 -3.69821 0
M  V30 26068 N 2560.07 1.49477 -0.499425 0
M  V30 26069 C 2561 2.31943 0.269203 0
M  V30 26070 C 2561.98 1.40144 0.96403 0
M  V30 26071 O 2563.17 1.69054 0.955737 0
M  V30 26072 C 2560.3 3.20617 1.33499 0
M  V30 26073 C 2559.25 4.21196 0.760128 0
M  V30 26074 C 2558.58 4.98796 1.92631 0
M  V30 26075 C 2559.88 5.21712 -0.247753 0
M  V30 26076 H 2561.57 2.96452 -0.419134 0
M  V30 26077 H 2559.12 1.42562 -0.203013 0
M  V30 26078 H 2561.07 3.77119 1.88041 0
M  V30 26079 H 2559.79 2.54048 2.05249 0
M  V30 26080 H 2558.45 3.65837 0.236466 0
M  V30 26081 H 2558.1 4.28676 2.63146 0
M  V30 26082 H 2557.8 5.6685 1.54775 0
M  V30 26083 H 2559.32 5.58141 2.4761 0
M  V30 26084 H 2560.74 5.72917 0.209479 0
M  V30 26085 H 2559.13 5.97647 -0.542067 0
M  V30 26086 H 2560.2 4.70718 -1.16417 0
M  V30 26087 N 2561.55 0.233191 1.55865 0
M  V30 26088 C 2562.77 -0.402871 2.0345 0
M  V30 26089 C 2563.2 -1.51734 1.11168 0
M  V30 26090 O 2562.56 -1.81013 0.102028 0
M  V30 26091 C 2562.6 -0.900839 3.49167 0
M  V30 26092 O 2561.71 -2.01141 3.60022 0
M  V30 26093 H 2561.05 -0.089691 0.657915 0
M  V30 26094 H 2563.58 0.355236 2.01493 0
M  V30 26095 H 2563.59 -1.20764 3.89718 0
M  V30 26096 H 2562.26 -0.0852158 4.15813 0
M  V30 26097 H 2560.84 -1.71036 3.31363 0
M  V30 26098 N 2563.03 -1.57549 -0.0400806 0
M  V30 26099 C 2564.44 -1.77197 -0.588066 0
M  V30 26100 C 2564.79 -0.862863 -1.76208 0
M  V30 26101 O 2563.91 -0.0548769 -2.1633 0
M  V30 26102 C 2564.51 -3.21341 -1.07358 0
M  V30 26103 C 2563.07 -3.42223 -1.56717 0
M  V30 26104 C 2562.21 -2.72748 -0.500362 0
M  V30 26105 H 2565.16 -1.57605 0.186147 0
M  V30 26106 H 2565.19 -3.27248 -1.94137 0
M  V30 26107 H 2564.7 -3.87482 -0.218906 0
M  V30 26108 H 2562.8 -2.81242 -2.44405 0
M  V30 26109 H 2562.91 -4.50799 -1.62226 0
M  V30 26110 H 2561.28 -2.36205 -0.952853 0
M  V30 26111 H 2562.06 -3.41565 0.344659 0
M  V30 26112 N 2564.5 0.312142 -1.54478 0
M  V30 26113 C 2565.78 1.06764 -1.63893 0
M  V30 26114 C 2566.16 2.05569 -0.480064 0
M  V30 26115 O 2565.51 2.224 0.524448 0
M  V30 26116 C 2565.72 1.75943 -3.01405 0
M  V30 26117 C 2567.07 2.28548 -3.57842 0
M  V30 26118 O 2568.09 1.85992 -3.03785 0
M  V30 26119 O 2566.95 3.06489 -4.52467 0
M  V30 26120 H 2564.04 0.492804 -0.664133 0
M  V30 26121 H 2566.59 0.31112 -1.66824 0
M  V30 26122 H 2565.36 1.04138 -3.77188 0
M  V30 26123 H 2564.98 2.58378 -3.02203 0
M  V30 26124 N 2565.98 1.46745 0.574784 0
M  V30 26125 C 2566.91 1.60774 1.69334 0
M  V30 26126 C 2567.89 0.457765 1.63825 0
M  V30 26127 O 2569.08 0.684979 1.81719 0
M  V30 26128 C 2566.21 1.60522 3.07977 0
M  V30 26129 C 2565.16 2.74569 3.28323 0
M  V30 26130 C 2564.49 2.59382 4.67574 0
M  V30 26131 C 2565.79 4.16324 3.15391 0
M  V30 26132 H 2567.48 2.54409 1.57849 0
M  V30 26133 H 2565.03 1.22437 0.757968 0
M  V30 26134 H 2566.98 1.6893 3.86058 0
M  V30 26135 H 2565.7 0.634361 3.2038 0
M  V30 26136 H 2564.36 2.65644 2.52644 0
M  V30 26137 H 2564.01 1.60362 4.76753 0
M  V30 26138 H 2563.71 3.35882 4.82138 0
M  V30 26139 H 2565.24 2.69692 5.47813 0
M  V30 26140 H 2566.65 4.2632 3.83307 0
M  V30 26141 H 2565.05 4.93474 3.41473 0
M  V30 26142 H 2566.12 4.35924 2.12364 0
M  V30 26143 N 2567.46 -0.820078 1.34583 0
M  V30 26144 C 2568.39 -1.94603 1.29042 0
M  V30 26145 C 2569.37 -1.69275 0.16733 0
M  V30 26146 O 2570.56 -1.90831 0.360146 0
M  V30 26147 C 2567.69 -3.31111 1.04799 0
M  V30 26148 C 2566.64 -3.70887 2.13604 0
M  V30 26149 C 2565.97 -5.05409 1.74545 0
M  V30 26150 C 2567.27 -3.82684 3.55458 0
M  V30 26151 H 2568.96 -1.99497 2.23252 0
M  V30 26152 H 2566.51 -0.95843 1.07472 0
M  V30 26153 H 2568.46 -4.09469 0.995664 0
M  V30 26154 H 2567.18 -3.26524 0.0703139 0
M  V30 26155 H 2565.84 -2.94806 2.1791 0
M  V30 26156 H 2565.49 -4.97312 0.754313 0
M  V30 26157 H 2565.19 -5.32993 2.47371 0
M  V30 26158 H 2566.71 -5.86221 1.70814 0
M  V30 26159 H 2568.13 -4.51305 3.53548 0
M  V30 26160 H 2566.52 -4.21725 4.26929 0
M  V30 26161 H 2567.59 -2.84604 3.92592 0
M  V30 26162 N 2568.94 -1.18359 -1.04062 0
M  V30 26163 C 2569.89 -0.907045 -2.14186 0
M  V30 26164 C 2570.88 0.132695 -1.68879 0
M  V30 26165 O 2572.09 -0.0154565 -1.79993 0
M  V30 26166 H 2568.46 -0.275848 -0.69958 0
M  V30 26167 H 2570.43 -1.84268 -2.34708 0
M  V30 26168 C 2569.18 -0.449314 -3.44785 0
M  V30 26169 H 2568.5 -1.24088 -3.80056 0
M  V30 26170 H 2569.94 -0.294811 -4.22974 0
M  V30 26171 C 2568.4 0.834852 -3.26392 0
M  V30 26172 O 2568.93 1.89905 -3.53976 0
M  V30 26173 N 2567.14 0.787473 -2.79727 0
M  V30 26174 H 2566.69 -0.0787799 -2.5748 0
M  V30 26175 H 2566.64 1.64711 -2.67801 0
M  V30 26176 N 2570.42 1.22976 -0.98563 0
M  V30 26177 C 2571.66 1.93262 -0.665521 0
M  V30 26178 C 2572.02 1.75128 0.787029 0
M  V30 26179 O 2573.22 2.3961 1.21821 0
M  V30 26180 C 2571.49 3.4158 -1.05156 0
M  V30 26181 S 2573.05 4.30514 -0.848712 0
M  V30 26182 H 2569.87 0.667981 -0.243562 0
M  V30 26183 H 2572.47 1.4894 -1.26638 0
M  V30 26184 H 2571.17 3.5229 -2.10524 0
M  V30 26185 H 2570.71 3.90907 -0.442202 0
M  V30 26186 H 2572.72 4.95494 0.26463 0
M  V30 26187 N 2571.89 0.757924 1.38178 0
M  V30 26188 C 2572.82 0.148638 2.33026 0
M  V30 26189 C 2573.8 -0.698723 1.55087 0
M  V30 26190 O 2574.99 -0.63902 1.83385 0
M  V30 26191 C 2572.12 -0.741975 3.39282 0
M  V30 26192 C 2571.07 0.00299469 4.28 0
M  V30 26193 C 2570.4 -1.00615 5.25148 0
M  V30 26194 C 2571.7 1.17394 5.08936 0
M  V30 26195 H 2573.39 0.940959 2.84229 0
M  V30 26196 H 2570.94 0.453932 1.36658 0
M  V30 26197 H 2572.89 -1.17792 4.04602 0
M  V30 26198 H 2571.62 -1.56666 2.86571 0
M  V30 26199 H 2570.28 0.419568 3.64191 0
M  V30 26200 H 2569.92 -1.82502 4.68724 0
M  V30 26201 H 2569.62 -0.512325 5.85362 0
M  V30 26202 H 2571.15 -1.44133 5.93345 0
M  V30 26203 H 2572.56 0.815324 5.67473 0
M  V30 26204 H 2570.96 1.59892 5.78407 0
M  V30 26205 H 2572.03 1.98475 4.4242 0
M  V30 26206 N 2573.37 -1.4921 0.507345 0
M  V30 26207 C 2574.79 -1.58758 0.16371 0
M  V30 26208 C 2574.99 -1.5119 -1.33206 0
M  V30 26209 O 2574.04 -1.38915 -2.10853 0
M  V30 26210 C 2575.36 -2.91296 0.746146 0
M  V30 26211 C 2576.91 -3.04775 0.712826 0
M  V30 26212 C 2577.38 -4.3994 1.27344 0
M  V30 26213 N 2578.87 -4.46449 1.23441 0
M  V30 26214 C 2579.61 -5.49497 1.63831 0
M  V30 26215 N 2579.1 -6.59617 2.11843 0
M  V30 26216 N 2580.9 -5.40247 1.55208 0
M  V30 26217 H 2573.05 -1.52372 1.47974 0
M  V30 26218 H 2575.31 -0.722158 0.61416 0
M  V30 26219 H 2575.02 -3.02421 1.7954 0
M  V30 26220 H 2574.89 -3.76614 0.210203 0
M  V30 26221 H 2577.28 -2.93276 -0.327604 0
M  V30 26222 H 2577.36 -2.21124 1.28599 0
M  V30 26223 H 2577 -4.52192 2.31268 0
M  V30 26224 H 2576.93 -5.22241 0.676157 0
M  V30 26225 H 2579.42 -3.67447 0.882692 0
M  V30 26226 H 2579.74 -7.34354 2.40716 0
M  V30 26227 H 2578.08 -6.60641 2.15822 0
M  V30 26228 H 2581.27 -4.5311 1.17513 0
M  V30 26229 H 2581.44 -6.20429 1.87008 0
M  V30 26230 N 2574.85 -0.241454 -1.55739 0
M  V30 26231 C 2576.13 0.434847 -1.90705 0
M  V30 26232 C 2576.51 1.76275 -1.16148 0
M  V30 26233 O 2575.86 2.26812 -0.277191 0
M  V30 26234 C 2576.07 0.608282 -3.43658 0
M  V30 26235 C 2577.41 0.906652 -4.14807 0
M  V30 26236 O 2578.44 0.694346 -3.49367 0
M  V30 26237 O 2577.3 1.31065 -5.30551 0
M  V30 26238 H 2574.39 0.232666 -0.793597 0
M  V30 26239 H 2576.94 -0.285116 -1.67288 0
M  V30 26240 H 2575.71 -0.327574 -3.89926 0
M  V30 26241 H 2575.33 1.37899 -3.7292 0
M  V30 26242 N 2576.33 1.57568 0.0317248 0
M  V30 26243 C 2577.61 1.80302 0.758334 0
M  V30 26244 C 2577.99 0.838879 1.93716 0
M  V30 26245 O 2577.33 -0.119531 2.28187 0
M  V30 26246 C 2577.54 3.27945 1.19387 0
M  V30 26247 C 2578.89 3.92856 1.61087 0
M  V30 26248 O 2579.92 3.32078 1.28851 0
M  V30 26249 O 2578.77 4.99861 2.20909 0
M  V30 26250 H 2575.87 0.741354 0.366501 0
M  V30 26251 H 2578.41 1.69698 0.00870782 0
M  V30 26252 H 2577.19 3.89712 0.352207 0
M  V30 26253 H 2576.81 3.43427 2.00359 0
M  V30 26254 N 2577.81 -0.303946 1.54641 0
M  V30 26255 C 2578.74 -1.39633 1.81756 0
M  V30 26256 C 2579.75 -1.46965 0.700376 0
M  V30 26257 O 2580.94 -1.49336 0.977807 0
M  V30 26258 C 2578.04 -2.78027 1.93789 0
M  V30 26259 C 2577.21 -2.93663 3.24161 0
M  V30 26260 C 2576.27 -4.12538 3.26648 0
M  V30 26261 O 2575.3 -4.04764 4.00194 0
M  V30 26262 N 2576.5 -5.23032 2.51829 0
M  V30 26263 H 2579.27 -1.16729 2.76033 0
M  V30 26264 H 2576.83 -0.494006 1.54179 0
M  V30 26265 H 2578.82 -3.55792 1.92858 0
M  V30 26266 H 2577.39 -2.93891 1.0652 0
M  V30 26267 H 2576.61 -2.03036 3.37891 0
M  V30 26268 H 2577.9 -3.0102 4.10201 0
M  V30 26269 H 2577.29 -5.32228 1.91702 0
M  V30 26270 H 2575.85 -5.99142 2.56654 0
M  V30 26271 N 2579.28 -1.47047 -0.566994 0
M  V30 26272 C 2580.7 -1.47145 -1.14914 0
M  V30 26273 C 2581.05 -0.220801 -1.94954 0
M  V30 26274 O 2580.17 0.675014 -2.05603 0
M  V30 26275 C 2580.77 -2.66604 -2.09065 0
M  V30 26276 C 2579.33 -2.69692 -2.6257 0
M  V30 26277 C 2578.47 -2.40091 -1.38751 0
M  V30 26278 H 2581.42 -1.54699 -0.354099 0
M  V30 26279 H 2581.44 -2.43017 -2.92785 0
M  V30 26280 H 2580.96 -3.57612 -1.50782 0
M  V30 26281 H 2579.06 -1.82797 -3.24678 0
M  V30 26282 H 2579.17 -3.70107 -3.04232 0
M  V30 26283 H 2577.53 -1.90471 -1.69095 0
M  V30 26284 H 2578.32 -3.33295 -0.822763 0
M  V30 26285 N 2580.76 0.812929 -1.35016 0
M  V30 26286 C 2582.01 1.56969 -1.27933 0
M  V30 26287 C 2582.34 1.93936 0.148 0
M  V30 26288 O 2581.59 1.61056 1.11172 0
M  V30 26289 C 2581.89 2.87343 -2.12529 0
M  V30 26290 C 2581.56 2.69623 -3.61406 0
M  V30 26291 C 2580.22 2.64498 -4.01988 0
M  V30 26292 C 2582.57 2.52599 -4.55898 0
M  V30 26293 C 2579.9 2.40284 -5.35239 0
M  V30 26294 C 2582.25 2.29915 -5.8934 0
M  V30 26295 C 2580.92 2.23208 -6.29074 0
M  V30 26296 H 2580.19 0.574391 -0.468141 0
M  V30 26297 H 2582.83 0.939806 -1.66853 0
M  V30 26298 H 2581.14 3.54676 -1.6647 0
M  V30 26299 H 2582.83 3.45002 -2.04389 0
M  V30 26300 H 2579.42 2.74457 -3.29198 0
M  V30 26301 H 2583.61 2.55575 -4.25435 0
M  V30 26302 H 2578.86 2.33556 -5.65032 0
M  V30 26303 H 2583.04 2.15731 -6.62143 0
M  V30 26304 H 2580.67 2.04207 -7.32259 0
M  V30 26305 N 2582.24 1.18909 1.03433 0
M  V30 26306 C 2583.17 0.945486 2.13501 0
M  V30 26307 C 2584.15 -0.119159 1.69682 0
M  V30 26308 O 2585.34 0.0347411 1.94169 0
M  V30 26309 C 2582.47 0.477377 3.44003 0
M  V30 26310 C 2581.42 1.48323 4.01478 0
M  V30 26311 C 2580.75 0.872404 5.27535 0
M  V30 26312 C 2582.05 2.86185 4.36916 0
M  V30 26313 H 2583.74 1.86601 2.34138 0
M  V30 26314 H 2581.29 0.898604 1.12522 0
M  V30 26315 H 2583.24 0.294278 4.20371 0
M  V30 26316 H 2581.96 -0.478729 3.23072 0
M  V30 26317 H 2580.62 1.65338 3.27198 0
M  V30 26318 H 2580.27 -0.0910868 5.02918 0
M  V30 26319 H 2579.97 1.54403 5.66951 0
M  V30 26320 H 2581.49 0.699978 6.06575 0
M  V30 26321 H 2582.91 2.72785 5.04243 0
M  V30 26322 H 2581.31 3.50089 4.87399 0
M  V30 26323 H 2582.38 3.39254 3.4646 0
M  V30 26324 N 2583.72 -1.22452 0.992137 0
M  V30 26325 C 2584.97 -1.90491 0.663026 0
M  V30 26326 C 2585.28 -1.78114 -0.808376 0
M  V30 26327 O 2586.49 -2.41063 -1.24904 0
M  V30 26328 C 2584.94 -3.41523 1.13536 0
M  V30 26329 C 2584.55 -3.62538 2.63193 0
M  V30 26330 C 2586.29 -4.15267 0.880538 0
M  V30 26331 C 2584.2 -5.07265 3.04033 0
M  V30 26332 H 2583.13 -0.713329 0.24429 0
M  V30 26333 H 2585.78 -1.38686 1.2016 0
M  V30 26334 H 2584.16 -3.92506 0.524919 0
M  V30 26335 H 2585.34 -3.2205 3.29576 0
M  V30 26336 H 2583.65 -3.02124 2.86549 0
M  V30 26337 H 2586.25 -5.21935 1.16138 0
M  V30 26338 H 2586.59 -4.15896 -0.183335 0
M  V30 26339 H 2587.13 -3.70309 1.45313 0
M  V30 26340 H 2583.87 -5.11775 4.09593 0
M  V30 26341 H 2583.39 -5.48658 2.42353 0
M  V30 26342 H 2585.06 -5.75684 2.95292 0
M  V30 26343 N 2585.2 -0.765242 -1.37774 0
M  V30 26344 C 2586.42 -0.337803 -2.04124 0
M  V30 26345 C 2586.84 1.03782 -1.57717 0
M  V30 26346 O 2586.2 1.66129 -0.755476 0
M  V30 26347 C 2586.25 -0.364505 -3.59658 0
M  V30 26348 O 2585.97 -1.68586 -4.04364 0
M  V30 26349 C 2587.47 0.0753442 -4.43236 0
M  V30 26350 H 2584.69 -0.142502 -0.655694 0
M  V30 26351 H 2587.23 -1.03735 -1.76237 0
M  V30 26352 H 2585.39 0.286403 -3.8634 0
M  V30 26353 H 2585.8 -1.62001 -4.98854 0
M  V30 26354 H 2587.28 0.00550365 -5.52 0
M  V30 26355 H 2587.75 1.12484 -4.24552 0
M  V30 26356 H 2588.36 -0.547129 -4.21766 0
M  V30 26357 N 2586.67 1.48939 -0.515251 0
M  V30 26358 C 2587.92 2.02786 0.0242152 0
M  V30 26359 C 2588.25 1.39291 1.35321 0
M  V30 26360 O 2587.53 0.533502 1.8704 0
M  V30 26361 C 2587.81 3.59736 0.161777 0
M  V30 26362 C 2587.66 4.33736 -1.19134 0
M  V30 26363 C 2588.98 4.3089 0.895644 0
M  V30 26364 H 2586.1 0.736964 0.00732618 0
M  V30 26365 H 2588.74 1.77816 -0.669426 0
M  V30 26366 H 2586.89 3.81141 0.752557 0
M  V30 26367 H 2588.57 4.23789 -1.8221 0
M  V30 26368 H 2586.81 3.95733 -1.77702 0
M  V30 26369 H 2587.48 5.41956 -1.04824 0
M  V30 26370 H 2589.96 4.14226 0.394455 0
M  V30 26371 H 2588.83 5.40426 0.960764 0
M  V30 26372 H 2589.09 3.97133 1.94263 0
M  V30 26373 N 2588.15 0.249709 1.55609 0
M  V30 26374 C 2589.57 -0.105075 1.59254 0
M  V30 26375 C 2589.77 -1.56692 1.26688 0
M  V30 26376 O 2588.83 -2.31178 1.01554 0
M  V30 26377 C 2590.14 0.246644 2.99687 0
M  V30 26378 C 2591.69 0.191173 3.12416 0
M  V30 26379 C 2592.16 0.516965 4.55073 0
M  V30 26380 N 2593.65 0.46757 4.60834 0
M  V30 26381 C 2594.39 0.69278 5.692 0
M  V30 26382 N 2593.88 0.981266 6.85816 0
M  V30 26383 N 2595.68 0.623296 5.58634 0
M  V30 26384 H 2587.83 1.20301 1.75047 0
M  V30 26385 H 2590.09 0.484239 0.814995 0
M  V30 26386 H 2589.8 1.26234 3.28265 0
M  V30 26387 H 2589.67 -0.424896 3.74799 0
M  V30 26388 H 2592.06 -0.815198 2.83617 0
M  V30 26389 H 2592.14 0.896605 2.39572 0
M  V30 26390 H 2591.78 1.5209 4.84594 0
M  V30 26391 H 2591.71 -0.209975 5.26181 0
M  V30 26392 H 2594.2 0.25344 3.77049 0
M  V30 26393 H 2594.52 1.14046 7.64339 0
M  V30 26394 H 2592.86 1.01877 6.87493 0
M  V30 26395 H 2596.05 0.397945 4.66405 0
M  V30 26396 H 2596.23 0.802206 6.43015 0
M  V30 26397 N 2589.63 -1.57583 -0.0233682 0
M  V30 26398 C 2590.56 -2.03739 -1.04991 0
M  V30 26399 C 2591.58 -0.951176 -1.32123 0
M  V30 26400 O 2592.77 -1.22839 -1.2951 0
M  V30 26401 C 2589.87 -2.40254 -2.39022 0
M  V30 26402 C 2589.04 -3.71324 -2.31164 0
M  V30 26403 C 2588.1 -3.94965 -3.47691 0
M  V30 26404 O 2587.12 -4.65947 -3.26928 0
M  V30 26405 N 2588.33 -3.41045 -4.69754 0
M  V30 26406 H 2591.09 -2.92422 -0.656456 0
M  V30 26407 H 2588.65 -1.60516 -0.211207 0
M  V30 26408 H 2590.64 -2.53202 -3.15707 0
M  V30 26409 H 2589.21 -1.57211 -2.70191 0
M  V30 26410 H 2588.43 -3.68676 -1.39541 0
M  V30 26411 H 2589.72 -4.57297 -2.23063 0
M  V30 26412 H 2589.12 -2.83521 -4.89523 0
M  V30 26413 H 2587.68 -3.59363 -5.43785 0
M  V30 26414 N 2591.11 0.29574 -1.548 0
M  V30 26415 C 2592.06 1.36667 -1.825 0
M  V30 26416 C 2593.04 1.4571 -0.68246 0
M  V30 26417 O 2594.24 1.49773 -0.943234 0
M  V30 26418 C 2591.36 2.73083 -2.0804 0
M  V30 26419 C 2590.45 2.68242 -3.28492 0
M  V30 26420 N 2590.84 2.33017 -4.48929 0
M  V30 26421 C 2589.14 2.99337 -3.30626 0
M  V30 26422 C 2589.84 2.37604 -5.30961 0
M  V30 26423 N 2588.82 2.7517 -4.6881 0
M  V30 26424 H 2592.62 1.08405 -2.73177 0
M  V30 26425 H 2590.13 0.504333 -1.5437 0
M  V30 26426 H 2592.13 3.50306 -2.26033 0
M  V30 26427 H 2590.79 3.02252 -1.18634 0
M  V30 26428 H 2591.8 2.05381 -4.75436 0
M  V30 26429 H 2588.48 3.33367 -2.51342 0
M  V30 26430 H 2589.87 2.13124 -6.37203 0
M  V30 26431 N 2592.59 1.47346 0.559187 0
M  V30 26432 C 2593.84 1.5313 1.31278 0
M  V30 26433 C 2594.15 0.197378 1.94602 0
M  V30 26434 O 2595.36 0.133201 2.71173 0
M  V30 26435 C 2593.81 2.69929 2.38046 0
M  V30 26436 C 2593.42 4.09843 1.80922 0
M  V30 26437 C 2595.16 2.85004 3.14599 0
M  V30 26438 C 2593.07 5.17945 2.85459 0
M  V30 26439 H 2592 0.569975 0.493604 0
M  V30 26440 H 2594.65 1.73616 0.594125 0
M  V30 26441 H 2593.03 2.4282 3.12817 0
M  V30 26442 H 2594.21 4.46847 1.12537 0
M  V30 26443 H 2592.52 3.99636 1.1696 0
M  V30 26444 H 2595.12 3.62936 3.92659 0
M  V30 26445 H 2595.46 1.93375 3.68662 0
M  V30 26446 H 2596 3.11875 2.46939 0
M  V30 26447 H 2592.73 6.11445 2.36254 0
M  V30 26448 H 2592.25 4.85461 3.52261 0
M  V30 26449 H 2593.93 5.44809 3.48987 0
M  V30 26450 N 2594.07 -0.805758 1.35445 0
M  V30 26451 C 2595.31 -1.55799 1.281 0
M  V30 26452 C 2595.63 -1.95081 -0.142393 0
M  V30 26453 O 2596.83 -2.69386 -0.338122 0
M  V30 26454 C 2595.29 -2.8117 2.24658 0
M  V30 26455 C 2594.9 -2.49123 3.72346 0
M  V30 26456 C 2596.64 -3.59177 2.26257 0
M  V30 26457 C 2594.55 -3.70791 4.60726 0
M  V30 26458 H 2593.48 -0.5848 0.475947 0
M  V30 26459 H 2596.13 -0.885632 1.60713 0
M  V30 26460 H 2594.51 -3.50121 1.85017 0
M  V30 26461 H 2595.69 -1.88173 4.20627 0
M  V30 26462 H 2594 -1.8436 3.73364 0
M  V30 26463 H 2596.6 -4.49547 2.89503 0
M  V30 26464 H 2596.94 -3.96566 1.26654 0
M  V30 26465 H 2597.47 -2.97189 2.64431 0
M  V30 26466 H 2594.21 -3.3851 5.6133 0
M  V30 26467 H 2593.73 -4.30963 4.1717 0
M  V30 26468 H 2595.41 -4.3801 4.7619 0
M  V30 26469 N 2595.54 -1.19456 -1.02801 0
M  V30 26470 C 2596.79 -0.997724 -1.76215 0
M  V30 26471 C 2597.12 0.471407 -1.88701 0
M  V30 26472 O 2596.37 1.36627 -1.40112 0
M  V30 26473 C 2596.67 -1.61286 -3.18938 0
M  V30 26474 C 2596.34 -3.11025 -3.26458 0
M  V30 26475 C 2595 -3.51891 -3.28217 0
M  V30 26476 C 2597.35 -4.07034 -3.25535 0
M  V30 26477 C 2594.68 -4.87316 -3.26711 0
M  V30 26478 C 2597.03 -5.4239 -3.25569 0
M  V30 26479 C 2595.7 -5.82686 -3.25627 0
M  V30 26480 H 2594.97 -0.365093 -0.644816 0
M  V30 26481 H 2597.61 -1.48712 -1.20652 0
M  V30 26482 H 2595.92 -1.04578 -3.77585 0
M  V30 26483 H 2597.62 -1.43584 -3.74413 0
M  V30 26484 H 2594.21 -2.78463 -3.25817 0
M  V30 26485 H 2598.39 -3.76503 -3.23356 0
M  V30 26486 H 2593.65 -5.17816 -3.25079 0
M  V30 26487 H 2597.82 -6.16541 -3.23806 0
M  V30 26488 H 2595.45 -6.87597 -3.24214 0
M  V30 26489 N 2597.02 1.21924 -0.998617 0
M  V30 26490 C 2598.27 1.90446 -0.676358 0
M  V30 26491 C 2598.59 1.78072 0.794688 0
M  V30 26492 O 2597.86 1.17155 1.57008 0
M  V30 26493 H 2596.44 0.70492 -0.247177 0
M  V30 26494 H 2599.1 1.48154 -1.26635 0
M  V30 26495 H 2598.2 2.97484 -0.94391 0
M  V30 26496 N 2598.5 0.772537 1.37367 0
M  V30 26497 C 2599.75 0.333896 1.98917 0
M  V30 26498 C 2600.06 -1.09586 1.62019 0
M  V30 26499 O 2601.27 -1.63593 2.16679 0
M  V30 26500 C 2599.72 0.546033 3.55734 0
M  V30 26501 C 2599.33 1.9861 4.01569 0
M  V30 26502 C 2601.08 0.171054 4.24155 0
M  V30 26503 C 2598.98 2.14579 5.51099 0
M  V30 26504 H 2597.91 0.121098 0.744212 0
M  V30 26505 H 2600.56 0.951778 1.56887 0
M  V30 26506 H 2598.95 -0.141317 3.95748 0
M  V30 26507 H 2600.12 2.70847 3.72798 0
M  V30 26508 H 2598.43 2.31775 3.45933 0
M  V30 26509 H 2601.03 0.268874 5.34024 0
M  V30 26510 H 2601.37 -0.878783 4.06919 0
M  V30 26511 H 2601.91 0.810983 3.89446 0
M  V30 26512 H 2598.65 3.17885 5.73262 0
M  V30 26513 H 2598.17 1.46827 5.81551 0
M  V30 26514 H 2599.85 1.94479 6.17079 0
M  V30 26515 N 2599.98 -1.48664 0.523142 0
M  V30 26516 C 2601.2 -2.07397 -0.011692 0
M  V30 26517 C 2601.63 -1.37805 -1.28029 0
M  V30 26518 O 2600.99 -0.441793 -1.75835 0
M  V30 26519 C 2601.03 -3.59893 -0.225723 0
M  V30 26520 O 2600.14 -3.91512 -1.29585 0
M  V30 26521 H 2599.48 -0.663019 0.036079 0
M  V30 26522 H 2602.01 -1.91168 0.7291 0
M  V30 26523 H 2602.02 -4.05505 -0.45048 0
M  V30 26524 H 2600.69 -4.09949 0.701016 0
M  V30 26525 H 2599.27 -3.57686 -1.05429 0
M  V30 26526 N 2601.46 -0.257958 -1.55475 0
M  V30 26527 C 2602.39 0.630873 -2.24816 0
M  V30 26528 C 2603.37 1.17257 -1.23226 0
M  V30 26529 O 2604.55 1.20988 -1.51906 0
M  V30 26530 C 2601.68 1.82293 -2.95612 0
M  V30 26531 C 2600.64 1.41352 -4.03985 0
M  V30 26532 C 2599.96 2.6873 -4.62264 0
M  V30 26533 C 2601.26 0.576389 -5.1911 0
M  V30 26534 H 2602.96 0.0526351 -2.99354 0
M  V30 26535 H 2600.5 0.0238757 -1.4398 0
M  V30 26536 H 2602.45 2.45047 -3.42826 0
M  V30 26537 H 2601.18 2.42672 -2.18581 0
M  V30 26538 H 2599.84 0.809261 -3.57556 0
M  V30 26539 H 2599.49 3.27331 -3.81921 0
M  V30 26540 H 2599.19 2.42055 -5.35428 0
M  V30 26541 H 2600.71 3.32363 -5.12218 0
M  V30 26542 H 2602.12 1.10851 -5.62481 0
M  V30 26543 H 2600.52 0.405246 -5.9873 0
M  V30 26544 H 2601.59 -0.408861 -4.83173 0
M  V30 26545 N 2602.93 1.57593 0.0150108 0
M  V30 26546 C 2603.88 2.08574 1.02955 0
M  V30 26547 C 2604.88 1.00248 1.36553 0
M  V30 26548 O 2606.08 1.18726 1.35293 0
M  V30 26549 H 2602.46 0.665792 0.349607 0
M  V30 26550 H 2604.43 2.9283 0.57388 0
M  V30 26551 C 2603.18 2.59207 2.31747 0
M  V30 26552 H 2602.5 3.42185 2.06759 0
M  V30 26553 H 2603.94 2.98574 3.01048 0
M  V30 26554 C 2602.4 1.4995 3.0169 0
M  V30 26555 O 2602.93 0.873772 3.92082 0
M  V30 26556 N 2601.14 1.2306 2.63258 0
M  V30 26557 H 2600.68 1.74128 1.89834 0
M  V30 26558 H 2600.64 0.501739 3.10371 0
M  V30 26559 N 2604.41 -0.287527 1.54955 0
M  V30 26560 C 2605.82 -0.859604 1.65734 0
M  V30 26561 C 2606.17 -1.87591 0.5748 0
M  V30 26562 O 2605.3 -2.14498 -0.286261 0
M  V30 26563 C 2605.89 -1.56592 3.00441 0
M  V30 26564 C 2604.45 -2.08622 3.13295 0
M  V30 26565 C 2603.6 -0.92337 2.61475 0
M  V30 26566 H 2606.55 -0.0642059 1.5857 0
M  V30 26567 H 2606.57 -2.43219 2.92617 0
M  V30 26568 H 2606.08 -0.825986 3.79208 0
M  V30 26569 H 2604.19 -2.85621 2.39273 0
M  V30 26570 H 2604.3 -2.3115 4.19651 0
M  V30 26571 H 2602.66 -1.31271 2.18266 0
M  V30 26572 H 2603.45 -0.197181 3.42733 0
M  V30 26573 N 2605.89 -1.47641 -0.551365 0
M  V30 26574 C 2606.8 -1.6321 -1.68522 0
M  V30 26575 C 2607.82 -0.514844 -1.66209 0
M  V30 26576 O 2608.99 -0.783146 -1.8555 0
M  V30 26577 C 2606.06 -1.64811 -3.05022 0
M  V30 26578 C 2605.12 -2.88005 -3.18357 0
M  V30 26579 C 2604.35 -2.89521 -4.48345 0
M  V30 26580 O 2604.57 -2.00074 -5.3416 0
M  V30 26581 O 2603.51 -3.81451 -4.65595 0
M  V30 26582 H 2607.33 -2.59163 -1.58329 0
M  V30 26583 H 2604.92 -1.30794 -0.72204 0
M  V30 26584 H 2606.8 -1.68509 -3.86242 0
M  V30 26585 H 2605.48 -0.720252 -3.15585 0
M  V30 26586 H 2604.38 -2.89849 -2.36513 0
M  V30 26587 H 2605.72 -3.80104 -3.127 0
M  V30 26588 N 2607.37 0.798563 -1.3587 0
M  V30 26589 C 2608.61 1.55834 -1.29783 0
M  V30 26590 C 2608.95 1.93795 0.125287 0
M  V30 26591 O 2608.22 1.61989 1.07656 0
M  V30 26592 C 2608.51 2.84158 -2.21193 0
M  V30 26593 C 2608.36 2.52622 -3.72159 0
M  V30 26594 C 2609.68 3.8592 -2.11551 0
M  V30 26595 H 2606.8 0.565375 -0.472779 0
M  V30 26596 H 2609.44 0.918163 -1.66342 0
M  V30 26597 H 2607.59 3.38788 -1.90145 0
M  V30 26598 H 2609.26 2.04113 -4.13685 0
M  V30 26599 H 2607.5 1.85697 -3.92045 0
M  V30 26600 H 2608.17 3.44234 -4.31517 0
M  V30 26601 H 2610.65 3.40712 -2.38861 0
M  V30 26602 H 2609.53 4.73473 -2.77696 0
M  V30 26603 H 2609.79 4.28198 -1.09994 0
M  V30 26604 N 2608.85 1.19999 1.02166 0
M  V30 26605 C 2609.79 0.944265 2.106 0
M  V30 26606 C 2610.76 -0.123635 1.65639 0
M  V30 26607 O 2611.95 0.0200276 1.90789 0
M  V30 26608 C 2609.09 0.496925 3.41504 0
M  V30 26609 C 2608.2 1.63241 3.99971 0
M  V30 26610 C 2607.34 1.13588 5.18913 0
M  V30 26611 C 2606.38 2.24478 5.69452 0
M  V30 26612 N 2605.51 1.7608 6.79662 0
M  V30 26613 H 2610.35 1.87264 2.31811 0
M  V30 26614 H 2607.89 0.933503 1.13684 0
M  V30 26615 H 2609.85 0.218916 4.16625 0
M  V30 26616 H 2608.48 -0.394452 3.20381 0
M  V30 26617 H 2607.53 2.02545 3.21993 0
M  V30 26618 H 2608.84 2.4676 4.33487 0
M  V30 26619 H 2608 0.813534 6.01221 0
M  V30 26620 H 2606.73 0.270519 4.86949 0
M  V30 26621 H 2605.74 2.57535 4.85753 0
M  V30 26622 H 2606.96 3.11482 6.03453 0
M  V30 26623 H 2604.91 0.91863 6.49536 0
M  V30 26624 H 2604.83 2.53183 7.12344 0
M  V30 26625 H 2606.1 1.4683 7.65546 0
M  V30 26626 N 2610.32 -1.21392 1.00507 0
M  V30 26627 C 2611.55 -1.94999 0.706401 0
M  V30 26628 C 2611.97 -1.73583 -0.7246 0
M  V30 26629 O 2611.33 -1.02272 -1.497 0
M  V30 26630 C 2611.38 -3.45486 1.03306 0
M  V30 26631 O 2610.48 -4.12168 0.138347 0
M  V30 26632 H 2609.83 -0.609614 0.263186 0
M  V30 26633 H 2612.36 -1.54149 1.34533 0
M  V30 26634 H 2612.37 -3.96057 0.979942 0
M  V30 26635 H 2611.04 -3.60397 2.07573 0
M  V30 26636 H 2609.62 -3.72074 0.247994 0
M  V30 26637 N 2611.8 -0.779811 -1.36955 0
M  V30 26638 C 2612.75 -0.159461 -2.32053 0
M  V30 26639 C 2613.74 0.675851 -1.55334 0
M  V30 26640 O 2614.95 0.57201 -1.70669 0
M  V30 26641 H 2611.33 -0.0327839 -0.751285 0
M  V30 26642 H 2613.3 -0.977128 -2.81948 0
M  V30 26643 C 2612.05 0.698917 -3.40603 0
M  V30 26644 H 2611.37 0.0655263 -3.99746 0
M  V30 26645 H 2612.81 1.09981 -4.09488 0
M  V30 26646 C 2611.27 1.85302 -2.81362 0
M  V30 26647 O 2611.8 2.94902 -2.72756 0
M  V30 26648 N 2610 1.65614 -2.38789 0
M  V30 26649 H 2609.55 0.764681 -2.45989 0
M  V30 26650 H 2609.51 2.42998 -1.99498 0
M  V30 26651 N 2613.28 1.48384 -0.531019 0
M  V30 26652 C 2614.56 1.95485 0.0671445 0
M  V30 26653 C 2614.94 1.47327 1.51189 0
M  V30 26654 O 2614.29 0.70024 2.17506 0
M  V30 26655 C 2614.5 3.48962 -0.0511819 0
M  V30 26656 C 2615.84 4.24464 0.107557 0
M  V30 26657 O 2616.87 3.56193 0.0225622 0
M  V30 26658 O 2615.73 5.45752 0.285876 0
M  V30 26659 H 2612.82 0.823245 0.078722 0
M  V30 26660 H 2615.37 1.58901 -0.59569 0
M  V30 26661 H 2614.14 3.76738 -1.05754 0
M  V30 26662 H 2613.76 3.92243 0.650456 0
M  V30 26663 N 2614.76 0.2662 1.55336 0
M  V30 26664 C 2615.72 -0.611962 2.20879 0
M  V30 26665 C 2616.72 -1.08814 1.1839 0
M  V30 26666 O 2617.91 -0.989749 1.43351 0
M  V30 26667 C 2615.04 -1.84327 2.86769 0
M  V30 26668 H 2616.24 -0.0398191 2.99874 0
M  V30 26669 H 2613.79 0.0167584 1.56291 0
M  V30 26670 H 2614.52 -2.45615 2.11763 0
M  V30 26671 H 2614.31 -1.50984 3.61865 0
M  V30 26672 H 2615.8 -2.46795 3.36871 0
M  V30 26673 N 2616.24 -1.57599 -0.0066531 0
M  V30 26674 C 2617.17 -2.03433 -1.03394 0
M  V30 26675 C 2618.15 -0.9229 -1.33871 0
M  V30 26676 O 2619.33 -1.19051 -1.46148 0
M  V30 26677 C 2616.46 -2.42632 -2.36321 0
M  V30 26678 C 2615.5 -3.64441 -2.21551 0
M  V30 26679 S 2616.34 -5.12644 -1.5478 0
M  V30 26680 C 2617.49 -5.55106 -2.89151 0
M  V30 26681 H 2617.73 -2.90249 -0.643636 0
M  V30 26682 H 2615.26 -1.52863 -0.217322 0
M  V30 26683 H 2617.22 -2.65885 -3.12755 0
M  V30 26684 H 2615.88 -1.56227 -2.72492 0
M  V30 26685 H 2615.07 -3.89598 -3.19733 0
M  V30 26686 H 2614.67 -3.41156 -1.53261 0
M  V30 26687 H 2616.97 -5.5716 -3.8546 0
M  V30 26688 H 2617.91 -6.55137 -2.68701 0
M  V30 26689 H 2618.32 -4.82655 -2.92754 0
M  V30 26690 N 2617.72 0.279305 -1.55105 0
M  V30 26691 C 2618.96 1.01324 -1.75674 0
M  V30 26692 C 2619.29 1.86167 -0.552771 0
M  V30 26693 O 2618.57 1.89228 0.449794 0
M  V30 26694 C 2618.85 1.90109 -3.05828 0
M  V30 26695 C 2618.71 1.08301 -4.36567 0
M  V30 26696 C 2620.02 2.88924 -3.3198 0
M  V30 26697 H 2617.14 0.366946 -0.639156 0
M  V30 26698 H 2619.79 0.286121 -1.87833 0
M  V30 26699 H 2617.94 2.52106 -2.95593 0
M  V30 26700 H 2619.61 0.484233 -4.58751 0
M  V30 26701 H 2617.85 0.386286 -4.32077 0
M  V30 26702 H 2618.52 1.73727 -5.23949 0
M  V30 26703 H 2621 2.37061 -3.41967 0
M  V30 26704 H 2619.87 3.48194 -4.24326 0
M  V30 26705 H 2620.13 3.63721 -2.51316 0
M  V30 26706 N 2619.19 1.47931 0.543528 0
M  V30 26707 C 2620.6 1.48955 1.12558 0
M  V30 26708 C 2620.96 0.251788 1.94578 0
M  V30 26709 O 2620.08 -0.642219 2.06651 0
M  V30 26710 C 2620.68 2.69896 2.04797 0
M  V30 26711 C 2619.23 2.73835 2.58246 0
M  V30 26712 C 2618.38 2.42268 1.34914 0
M  V30 26713 H 2621.33 1.55243 0.329443 0
M  V30 26714 H 2621.35 2.47644 2.88882 0
M  V30 26715 H 2620.87 3.59965 1.45074 0
M  V30 26716 H 2618.97 1.8794 3.21729 0
M  V30 26717 H 2619.08 3.74901 2.98306 0
M  V30 26718 H 2617.44 1.93137 1.66043 0
M  V30 26719 H 2618.23 3.34562 0.769634 0
M  V30 26720 N 2620.67 -0.791347 1.36292 0
M  V30 26721 C 2621.92 -1.54432 1.29745 0
M  V30 26722 C 2622.23 -1.95221 -0.121695 0
M  V30 26723 O 2623.44 -2.6973 -0.309531 0
M  V30 26724 C 2621.9 -2.78772 2.27628 0
M  V30 26725 C 2621.5 -2.4516 3.74968 0
M  V30 26726 C 2623.25 -3.56757 2.30054 0
M  V30 26727 C 2621.15 -3.65883 4.64633 0
M  V30 26728 H 2620.08 -0.579719 0.482123 0
M  V30 26729 H 2622.74 -0.868537 1.61644 0
M  V30 26730 H 2621.12 -3.48139 1.8872 0
M  V30 26731 H 2622.29 -1.83701 4.226 0
M  V30 26732 H 2620.61 -1.80389 3.75298 0
M  V30 26733 H 2623.2 -4.46451 2.94254 0
M  V30 26734 H 2623.55 -3.952 1.30853 0
M  V30 26735 H 2624.08 -2.94367 2.67568 0
M  V30 26736 H 2620.82 -3.32537 5.64889 0
M  V30 26737 H 2620.34 -4.26514 4.21718 0
M  V30 26738 H 2622.02 -4.32934 4.80809 0
M  V30 26739 N 2622.15 -1.2054 -1.01528 0
M  V30 26740 C 2623.11 -0.957134 -2.08258 0
M  V30 26741 C 2624.11 0.0678373 -1.60657 0
M  V30 26742 O 2625.3 -0.168363 -1.73384 0
M  V30 26743 C 2622.43 -0.441247 -3.38032 0
M  V30 26744 H 2623.63 -1.90388 -2.31716 0
M  V30 26745 H 2621.18 -1.02095 -1.18348 0
M  V30 26746 H 2621.92 0.510905 -3.2025 0
M  V30 26747 H 2621.7 -1.18044 -3.73909 0
M  V30 26748 H 2623.19 -0.287083 -4.16612 0
M  V30 26749 N 2623.63 1.20858 -1.01149 0
M  V30 26750 C 2624.88 1.89718 -0.69652 0
M  V30 26751 C 2625.2 1.78905 0.775756 0
M  V30 26752 O 2624.47 1.18814 1.55757 0
M  V30 26753 H 2623.05 0.702259 -0.25464 0
M  V30 26754 H 2625.71 1.46802 -1.282 0
M  V30 26755 H 2624.8 2.96466 -0.97541 0
M  V30 26756 N 2625.11 0.787064 1.3654 0
M  V30 26757 C 2626.35 0.354975 1.98552 0
M  V30 26758 C 2626.67 -1.07861 1.63173 0
M  V30 26759 O 2627.87 -1.61285 2.18402 0
M  V30 26760 C 2626.33 0.583733 3.55135 0
M  V30 26761 C 2625.94 2.02858 3.9944 0
M  V30 26762 C 2627.68 0.216031 4.2395 0
M  V30 26763 C 2625.59 2.20412 5.48792 0
M  V30 26764 H 2624.52 0.128985 0.742886 0
M  V30 26765 H 2627.17 0.968364 1.55868 0
M  V30 26766 H 2625.55 -0.099335 3.95875 0
M  V30 26767 H 2626.73 2.74786 3.69905 0
M  V30 26768 H 2625.04 2.35431 3.43455 0
M  V30 26769 H 2627.64 0.325499 5.33708 0
M  V30 26770 H 2627.98 -0.835575 4.07828 0
M  V30 26771 H 2628.51 0.852243 3.88564 0
M  V30 26772 H 2625.25 3.23947 5.69858 0
M  V30 26773 H 2624.77 1.52987 5.79961 0
M  V30 26774 H 2626.45 2.01013 6.14982 0
M  V30 26775 N 2626.58 -1.48101 0.53888 0
M  V30 26776 C 2627.52 -2.27763 -0.256238 0
M  V30 26777 C 2628.53 -1.35905 -0.896306 0
M  V30 26778 O 2629.72 -1.60882 -0.773247 0
M  V30 26779 C 2626.82 -3.0958 -1.3789 0
M  V30 26780 C 2625.99 -4.29276 -0.839084 0
M  V30 26781 C 2625.05 -4.92833 -1.84397 0
M  V30 26782 O 2624.08 -5.51781 -1.39736 0
M  V30 26783 N 2625.28 -4.85875 -3.17657 0
M  V30 26784 H 2628.04 -2.96642 0.42702 0
M  V30 26785 H 2625.6 -1.57526 0.373774 0
M  V30 26786 H 2627.6 -3.48967 -2.04949 0
M  V30 26787 H 2626.17 -2.43063 -1.96568 0
M  V30 26788 H 2625.39 -3.94199 0.00776216 0
M  V30 26789 H 2626.67 -5.06739 -0.457459 0
M  V30 26790 H 2626.07 -4.3915 -3.56601 0
M  V30 26791 H 2624.63 -5.29336 -3.80325 0
M  V30 26792 N 2628.06 -0.274434 -1.55192 0
M  V30 26793 C 2629.01 0.629322 -2.23925 0
M  V30 26794 C 2630 1.15838 -1.23604 0
M  V30 26795 O 2631.21 1.11209 -1.41537 0
M  V30 26796 H 2627.58 0.221494 -0.718641 0
M  V30 26797 H 2629.56 0.0267798 -2.98388 0
M  V30 26798 C 2628.3 1.80246 -2.97332 0
M  V30 26799 H 2627.63 1.40455 -3.74316 0
M  V30 26800 H 2629.07 2.41146 -3.48747 0
M  V30 26801 C 2627.53 2.6905 -2.02765 0
M  V30 26802 O 2628.06 3.6939 -1.57842 0
M  V30 26803 N 2626.26 2.36205 -1.69279 0
M  V30 26804 H 2625.81 1.54658 -2.06007 0
M  V30 26805 H 2625.77 2.95893 -1.06276 0
M  V30 26806 N 2629.54 1.576 -0.00170483 0
M  V30 26807 C 2630.79 1.90265 0.681438 0
M  V30 26808 C 2631.11 0.875955 1.74218 0
M  V30 26809 O 2630.38 -0.0864068 1.95709 0
M  V30 26810 H 2628.96 0.702243 0.254683 0
M  V30 26811 H 2631.62 1.94852 -0.0430338 0
M  V30 26812 H 2630.72 2.90077 1.15161 0
M  V30 26813 N 2631.02 -0.271076 1.55251 0
M  V30 26814 C 2631.95 -1.33929 1.91272 0
M  V30 26815 C 2632.93 -1.51429 0.774806 0
M  V30 26816 O 2634.11 -1.6444 1.0331 0
M  V30 26817 C 2631.24 -2.69847 2.18632 0
M  V30 26818 C 2630.2 -2.67076 3.34447 0
M  V30 26819 C 2629.52 -4.06563 3.47291 0
M  V30 26820 C 2630.82 -2.26176 4.70788 0
M  V30 26821 H 2632.52 -1.0403 2.80746 0
M  V30 26822 H 2630.06 -0.498993 1.35078 0
M  V30 26823 H 2632.02 -3.4469 2.42419 0
M  V30 26824 H 2630.74 -3.01333 1.2596 0
M  V30 26825 H 2629.4 -1.9469 3.10631 0
M  V30 26826 H 2629.05 -4.35274 2.52082 0
M  V30 26827 H 2628.75 -4.05603 4.25159 0
M  V30 26828 H 2630.27 -4.83142 3.73372 0
M  V30 26829 H 2631.69 -2.90743 4.94107 0
M  V30 26830 H 2630.08 -2.36375 5.51586 0
M  V30 26831 H 2631.15 -1.2131 4.6948 0
M  V30 26832 N 2632.5 -1.48217 -0.535675 0
M  V30 26833 C 2633.77 -1.46432 -1.29681 0
M  V30 26834 C 2634.15 -0.172889 -2.10391 0
M  V30 26835 O 2633.5 0.845451 -2.12284 0
M  V30 26836 C 2633.71 -2.72291 -2.18309 0
M  V30 26837 C 2635.06 -3.20388 -2.78633 0
M  V30 26838 O 2636.08 -2.73168 -2.28599 0
M  V30 26839 O 2634.94 -4.02538 -3.69629 0
M  V30 26840 H 2632.04 -0.584539 -0.585016 0
M  V30 26841 H 2634.58 -1.60444 -0.552799 0
M  V30 26842 H 2633.35 -3.578 -1.58415 0
M  V30 26843 H 2632.98 -2.60971 -2.99967 0
M  V30 26844 N 2633.97 0.784108 -1.3671 0
M  V30 26845 C 2635.22 1.54449 -1.31429 0
M  V30 26846 C 2635.55 1.93917 0.104726 0
M  V30 26847 O 2634.83 1.63122 1.05931 0
M  V30 26848 C 2635.11 2.81796 -2.24194 0
M  V30 26849 C 2634.96 2.4866 -3.74817 0
M  V30 26850 C 2636.28 3.83654 -2.15633 0
M  V30 26851 H 2633.4 0.560329 -0.478749 0
M  V30 26852 H 2636.04 0.900468 -1.67307 0
M  V30 26853 H 2634.19 3.36752 -1.93728 0
M  V30 26854 H 2635.87 1.99714 -4.15827 0
M  V30 26855 H 2634.11 1.81528 -3.93992 0
M  V30 26856 H 2634.78 3.39638 -4.35144 0
M  V30 26857 H 2637.26 3.38159 -2.42461 0
M  V30 26858 H 2636.13 4.70501 -2.82702 0
M  V30 26859 H 2636.39 4.27007 -1.1453 0
M  V30 26860 N 2635.45 1.21076 1.00888 0
M  V30 26861 C 2636.36 0.982462 2.13037 0
M  V30 26862 C 2637.38 -0.0641856 1.73882 0
M  V30 26863 O 2638.55 0.124996 2.01012 0
M  V30 26864 C 2635.62 0.545864 3.42376 0
M  V30 26865 C 2634.68 1.66427 3.95728 0
M  V30 26866 C 2633.91 1.24841 5.18893 0
M  V30 26867 O 2634.14 0.120365 5.70273 0
M  V30 26868 O 2633.07 2.05883 5.65593 0
M  V30 26869 H 2636.9 1.92167 2.35171 0
M  V30 26870 H 2634.48 0.995305 1.11418 0
M  V30 26871 H 2636.36 0.311986 4.20244 0
M  V30 26872 H 2635.04 -0.364671 3.21639 0
M  V30 26873 H 2633.95 1.95251 3.19105 0
M  V30 26874 H 2635.28 2.55209 4.20867 0
M  V30 26875 N 2636.93 -1.2032 1.01789 0
M  V30 26876 C 2638.18 -1.89721 0.70797 0
M  V30 26877 C 2638.51 -1.78931 -0.762504 0
M  V30 26878 O 2637.76 -1.16864 -1.56975 0
M  V30 26879 C 2638.06 -3.40347 1.09082 0
M  V30 26880 C 2637.73 -3.71338 2.55772 0
M  V30 26881 C 2636.39 -3.79506 2.95852 0
M  V30 26882 C 2638.74 -3.85536 3.5073 0
M  V30 26883 C 2636.07 -3.99332 4.29827 0
M  V30 26884 C 2638.42 -4.06872 4.84394 0
M  V30 26885 C 2637.08 -4.1327 5.24179 0
M  V30 26886 H 2636.35 -0.694238 0.259064 0
M  V30 26887 H 2639 -1.42553 1.27871 0
M  V30 26888 H 2637.31 -3.89338 0.438521 0
M  V30 26889 H 2639 -3.92344 0.828705 0
M  V30 26890 H 2635.59 -3.6558 2.23717 0
M  V30 26891 H 2639.78 -3.78579 3.20923 0
M  V30 26892 H 2635.03 -4.02521 4.60203 0
M  V30 26893 H 2639.21 -4.16801 5.57898 0
M  V30 26894 H 2636.83 -4.28385 6.28005 0
M  V30 26895 N 2638.41 -0.794293 -1.3612 0
M  V30 26896 C 2639.69 -0.292719 -1.93397 0
M  V30 26897 C 2640.07 1.21586 -1.72569 0
M  V30 26898 O 2639.41 2.00963 -1.08748 0
M  V30 26899 C 2639.62 -0.690674 -3.42097 0
M  V30 26900 C 2640.97 -0.673179 -4.1923 0
M  V30 26901 O 2642 -0.631451 -3.50558 0
M  V30 26902 O 2640.85 -0.720457 -5.4173 0
M  V30 26903 H 2637.95 -0.0736838 -0.823711 0
M  V30 26904 H 2640.49 -0.877165 -1.45272 0
M  V30 26905 H 2639.27 -1.73091 -3.50935 0
M  V30 26906 H 2638.89 -0.0803735 -3.97519 0
M  V30 26907 N 2639.89 1.47813 -0.546727 0
M  V30 26908 C 2641.16 1.95545 0.0464069 0
M  V30 26909 C 2641.54 1.48922 1.49618 0
M  V30 26910 O 2640.89 0.72327 2.16751 0
M  V30 26911 C 2641.1 3.48889 -0.0881912 0
M  V30 26912 C 2642.45 4.24554 0.0625313 0
M  V30 26913 O 2643.47 3.56197 -0.0152181 0
M  V30 26914 O 2642.33 5.46024 0.227975 0
M  V30 26915 H 2639.43 0.824033 0.069986 0
M  V30 26916 H 2641.97 1.58261 -0.61251 0
M  V30 26917 H 2640.74 3.75596 -1.09744 0
M  V30 26918 H 2640.37 3.92911 0.608817 0
M  V30 26919 N 2641.36 0.28266 1.55044 0
M  V30 26920 C 2642.33 -0.588501 2.21516 0
M  V30 26921 C 2643.33 -1.07552 1.19537 0
M  V30 26922 O 2644.52 -0.974489 1.44393 0
M  V30 26923 C 2641.65 -1.81275 2.88708 0
M  V30 26924 H 2642.84 -0.00801126 2.99899 0
M  V30 26925 H 2640.4 0.0333342 1.56264 0
M  V30 26926 H 2641.13 -2.43356 2.14356 0
M  V30 26927 H 2640.92 -1.47137 3.63446 0
M  V30 26928 H 2642.41 -2.43208 3.3947 0
M  V30 26929 N 2642.84 -1.57597 0.0100627 0
M  V30 26930 C 2643.75 -2.12492 -0.994189 0
M  V30 26931 C 2644.77 -1.07256 -1.37011 0
M  V30 26932 O 2645.94 -1.39212 -1.4554 0
M  V30 26933 C 2643.01 -2.62559 -2.26415 0
M  V30 26934 C 2642.07 -3.82436 -1.95042 0
M  V30 26935 C 2641.3 -4.30105 -3.15983 0
M  V30 26936 O 2641.53 -3.77048 -4.28009 0
M  V30 26937 O 2640.46 -5.22156 -2.99393 0
M  V30 26938 H 2644.29 -2.98539 -0.557496 0
M  V30 26939 H 2641.87 -1.47925 -0.209387 0
M  V30 26940 H 2643.75 -2.94915 -3.01004 0
M  V30 26941 H 2642.43 -1.79605 -2.69303 0
M  V30 26942 H 2641.34 -3.55037 -1.17898 0
M  V30 26943 H 2642.67 -4.66494 -1.56984 0
M  V30 26944 N 2644.32 0.262839 -1.55393 0
M  V30 26945 C 2645.25 1.34765 -1.85394 0
M  V30 26946 C 2646.27 1.45056 -0.739095 0
M  V30 26947 O 2647.45 1.46691 -1.01706 0
M  V30 26948 C 2644.55 2.72791 -2.01093 0
M  V30 26949 C 2643.73 2.84966 -3.31833 0
M  V30 26950 C 2642.79 4.03732 -3.37471 0
M  V30 26951 O 2641.81 3.94011 -4.10785 0
M  V30 26952 N 2643.01 5.16171 -2.65608 0
M  V30 26953 H 2645.78 1.0937 -2.79031 0
M  V30 26954 H 2643.34 0.452954 -1.55435 0
M  V30 26955 H 2645.33 3.50554 -2.02223 0
M  V30 26956 H 2643.9 2.90964 -1.14275 0
M  V30 26957 H 2643.12 1.94006 -3.43155 0
M  V30 26958 H 2644.41 2.90038 -4.18038 0
M  V30 26959 H 2643.81 5.26959 -2.05746 0
M  V30 26960 H 2642.37 5.92127 -2.72449 0
M  V30 26961 N 2645.8 1.48499 0.527807 0
M  V30 26962 C 2647.03 1.6006 1.30631 0
M  V30 26963 C 2647.44 0.260819 1.87394 0
M  V30 26964 O 2646.78 -0.760287 1.67228 0
M  V30 26965 C 2646.84 2.58963 2.49356 0
M  V30 26966 C 2646.51 4.03976 2.13664 0
M  V30 26967 C 2647.5 4.91594 1.69209 0
M  V30 26968 C 2645.19 4.49528 2.24121 0
M  V30 26969 C 2647.18 6.22792 1.35678 0
M  V30 26970 C 2644.87 5.80747 1.90202 0
M  V30 26971 C 2645.87 6.67202 1.46051 0
M  V30 26972 O 2645.55 7.95978 1.12579 0
M  V30 26973 H 2645.29 0.542418 0.403434 0
M  V30 26974 H 2647.84 1.9507 0.643199 0
M  V30 26975 H 2646.07 2.19079 3.18656 0
M  V30 26976 H 2647.76 2.60336 3.11416 0
M  V30 26977 H 2648.53 4.57639 1.60599 0
M  V30 26978 H 2644.4 3.82421 2.5744 0
M  V30 26979 H 2647.95 6.90229 1.01145 0
M  V30 26980 H 2643.85 6.14237 1.98453 0
M  V30 26981 H 2644.61 8.0875 1.25958 0
M  V30 26982 N 2647.28 -0.776847 1.37123 0
M  V30 26983 C 2648.53 -1.53047 1.31375 0
M  V30 26984 C 2648.84 -1.95339 -0.100982 0
M  V30 26985 O 2650.05 -2.70043 -0.280905 0
M  V30 26986 C 2648.5 -2.76342 2.30572 0
M  V30 26987 C 2648.11 -2.41169 3.77547 0
M  V30 26988 C 2649.85 -3.54297 2.33824 0
M  V30 26989 C 2647.76 -3.60935 4.68487 0
M  V30 26990 H 2646.69 -0.574572 0.488244 0
M  V30 26991 H 2649.34 -0.851343 1.62556 0
M  V30 26992 H 2647.72 -3.46118 1.92402 0
M  V30 26993 H 2648.9 -1.79209 4.24524 0
M  V30 26994 H 2647.21 -1.76398 3.7719 0
M  V30 26995 H 2649.81 -4.43305 2.98973 0
M  V30 26996 H 2650.15 -3.9379 1.35037 0
M  V30 26997 H 2650.69 -2.91513 2.70675 0
M  V30 26998 H 2647.42 -3.26527 5.68384 0
M  V30 26999 H 2646.94 -4.22017 4.26218 0
M  V30 27000 H 2648.62 -4.2781 4.85373 0
M  V30 27001 N 2648.76 -1.2161 -1.00244 0
M  V30 27002 C 2649.99 -1.05938 -1.77372 0
M  V30 27003 C 2650.39 0.393654 -1.85059 0
M  V30 27004 O 2649.74 1.28484 -1.31291 0
M  V30 27005 C 2649.8 -1.58441 -3.22702 0
M  V30 27006 C 2649.46 -3.06935 -3.38585 0
M  V30 27007 C 2650.46 -4.0446 -3.26663 0
M  V30 27008 C 2648.14 -3.46193 -3.63944 0
M  V30 27009 C 2650.14 -5.3923 -3.39868 0
M  V30 27010 C 2647.83 -4.81115 -3.76791 0
M  V30 27011 C 2648.82 -5.77442 -3.6476 0
M  V30 27012 O 2648.51 -7.09916 -3.77193 0
M  V30 27013 H 2648.24 -0.372388 -0.564183 0
M  V30 27014 H 2650.8 -1.61456 -1.26968 0
M  V30 27015 H 2649.03 -0.973213 -3.74253 0
M  V30 27016 H 2650.72 -1.38575 -3.81513 0
M  V30 27017 H 2651.48 -3.75474 -3.06993 0
M  V30 27018 H 2647.36 -2.71747 -3.7239 0
M  V30 27019 H 2650.91 -6.14399 -3.30393 0
M  V30 27020 H 2646.8 -5.09786 -3.95966 0
M  V30 27021 H 2647.57 -7.17362 -3.94125 0
M  V30 27022 N 2650.23 1.19778 -1.02425 0
M  V30 27023 C 2651.48 1.89894 -0.728814 0
M  V30 27024 C 2651.83 1.7784 0.734217 0
M  V30 27025 O 2651.13 1.15688 1.52731 0
M  V30 27026 C 2651.32 3.39763 -1.10886 0
M  V30 27027 C 2651.15 3.66402 -2.60729 0
M  V30 27028 C 2649.92 3.84691 -3.2763 0
M  V30 27029 C 2652.12 3.68339 -3.58931 0
M  V30 27030 N 2650.1 3.98918 -4.66624 0
M  V30 27031 C 2651.47 3.88081 -4.83521 0
M  V30 27032 C 2653.53 3.51341 -3.52795 0
M  V30 27033 C 2652.23 3.92588 -6.02717 0
M  V30 27034 C 2654.26 3.57122 -4.714 0
M  V30 27035 C 2653.62 3.77345 -5.94802 0
M  V30 27036 H 2649.72 0.714207 -0.318485 0
M  V30 27037 H 2652.3 1.43981 -1.31063 0
M  V30 27038 H 2650.47 3.8441 -0.555301 0
M  V30 27039 H 2652.2 3.97382 -0.766152 0
M  V30 27040 H 2648.96 3.83388 -2.78047 0
M  V30 27041 H 2649.38 4.09891 -5.38812 0
M  V30 27042 H 2654.02 3.34665 -2.58378 0
M  V30 27043 H 2651.74 4.08057 -6.97507 0
M  V30 27044 H 2655.33 3.45267 -4.68276 0
M  V30 27045 H 2654.21 3.81687 -6.85043 0
M  V30 27046 N 2651.71 0.801501 1.35697 0
M  V30 27047 C 2652.96 0.380057 1.99207 0
M  V30 27048 C 2653.29 -1.04875 1.63447 0
M  V30 27049 O 2652.57 -1.72672 0.895253 0
M  V30 27050 C 2652.85 0.55777 3.55754 0
M  V30 27051 C 2652.7 2.03114 4.01329 0
M  V30 27052 C 2654.02 -0.0197195 4.40096 0
M  V30 27053 H 2651.14 0.139565 0.723665 0
M  V30 27054 H 2653.78 1.01009 1.60926 0
M  V30 27055 H 2651.93 0.0214424 3.88494 0
M  V30 27056 H 2653.6 2.62946 3.79021 0
M  V30 27057 H 2651.85 2.52942 3.52424 0
M  V30 27058 H 2652.52 2.10639 5.1023 0
M  V30 27059 H 2654.99 0.438251 4.13786 0
M  V30 27060 H 2653.87 0.134573 5.48735 0
M  V30 27061 H 2654.13 -1.11296 4.27862 0
M  V30 27062 N 2653.19 -1.47521 0.554558 0
M  V30 27063 C 2654.1 -2.33764 -0.197824 0
M  V30 27064 C 2655.12 -1.48027 -0.91455 0
M  V30 27065 O 2656.29 -1.80961 -0.884036 0
M  V30 27066 C 2653.36 -3.24667 -1.21622 0
M  V30 27067 C 2652.42 -4.26293 -0.507208 0
M  V30 27068 C 2651.65 -5.12853 -1.47709 0
M  V30 27069 O 2651.87 -5.01819 -2.71171 0
M  V30 27070 O 2650.81 -5.93484 -1.00303 0
M  V30 27071 H 2654.63 -2.99395 0.509543 0
M  V30 27072 H 2652.22 -1.46037 0.315202 0
M  V30 27073 H 2654.1 -3.80826 -1.80415 0
M  V30 27074 H 2652.78 -2.61668 -1.90556 0
M  V30 27075 H 2651.68 -3.73902 0.121844 0
M  V30 27076 H 2653.02 -4.91999 0.14063 0
M  V30 27077 N 2654.67 -0.290879 -1.54892 0
M  V30 27078 C 2655.62 0.605537 -2.2458 0
M  V30 27079 C 2656.61 1.1452 -1.24826 0
M  V30 27080 O 2657.82 1.09701 -1.42708 0
M  V30 27081 H 2654.19 0.21386 -0.720949 0
M  V30 27082 H 2656.16 -0.00486975 -2.984 0
M  V30 27083 C 2654.91 1.77083 -2.99227 0
M  V30 27084 H 2654.23 1.36477 -3.75784 0
M  V30 27085 H 2655.67 2.37434 -3.51285 0
M  V30 27086 C 2654.13 2.66884 -2.05607 0
M  V30 27087 O 2654.66 3.67695 -1.61751 0
M  V30 27088 N 2652.87 2.34396 -1.71775 0
M  V30 27089 H 2652.42 1.52464 -2.07636 0
M  V30 27090 H 2652.37 2.94749 -1.09409 0
M  V30 27091 N 2656.15 1.57589 -0.0184203 0
M  V30 27092 C 2657.56 1.79257 0.521895 0
M  V30 27093 C 2657.91 0.927666 1.72884 0
M  V30 27094 O 2657.03 0.135129 2.15978 0
M  V30 27095 C 2657.63 3.25104 0.953575 0
M  V30 27096 C 2656.19 3.47804 1.43907 0
M  V30 27097 C 2655.33 2.74418 0.398789 0
M  V30 27098 H 2658.28 1.56805 -0.244512 0
M  V30 27099 H 2658.31 3.34228 1.81857 0
M  V30 27100 H 2657.82 3.88028 0.0749441 0
M  V30 27101 H 2655.92 2.90119 2.33799 0
M  V30 27102 H 2656.03 4.56509 1.45383 0
M  V30 27103 H 2654.4 2.39579 0.86453 0
M  V30 27104 H 2655.18 3.40051 -0.471192 0
M  V30 27105 N 2657.62 -0.254594 1.5553 0
M  V30 27106 C 2658.87 -0.981762 1.76652 0
M  V30 27107 C 2659.19 -1.86144 0.580996 0
M  V30 27108 O 2658.46 -1.91699 -0.403503 0
M  V30 27109 H 2657.04 -0.365487 0.651482 0
M  V30 27110 H 2659.7 -0.274392 1.92959 0
M  V30 27111 H 2658.8 -1.60798 2.67489 0
M  V30 27112 N 2659.1 -1.48777 -0.519925 0
M  V30 27113 C 2660.01 -1.66747 -1.65023 0
M  V30 27114 C 2661.03 -0.549983 -1.65079 0
M  V30 27115 O 2662.2 -0.822328 -1.83847 0
M  V30 27116 C 2659.27 -1.71244 -3.01457 0
M  V30 27117 C 2658.33 -2.94693 -3.12177 0
M  V30 27118 C 2657.56 -2.98965 -4.42103 0
M  V30 27119 O 2657.79 -2.1136 -5.29795 0
M  V30 27120 O 2656.72 -3.91241 -4.57399 0
M  V30 27121 H 2660.55 -2.62464 -1.52796 0
M  V30 27122 H 2658.13 -1.32296 -0.694134 0
M  V30 27123 H 2660.01 -1.76664 -3.82581 0
M  V30 27124 H 2658.69 -0.78703 -3.13987 0
M  V30 27125 H 2657.59 -2.94801 -2.30311 0
M  V30 27126 H 2658.93 -3.86652 -3.04568 0
M  V30 27127 N 2660.58 0.769564 -1.37534 0
M  V30 27128 C 2661.83 1.52348 -1.32185 0
M  V30 27129 C 2662.14 1.9539 0.0906211 0
M  V30 27130 O 2663.35 2.70188 0.26658 0
M  V30 27131 C 2661.8 2.75115 -2.32034 0
M  V30 27132 C 2661.41 2.39163 -3.78821 0
M  V30 27133 C 2663.16 3.53052 -2.357 0
M  V30 27134 C 2661.06 3.58445 -4.70395 0
M  V30 27135 H 2659.99 0.571975 -0.491285 0
M  V30 27136 H 2662.64 0.842711 -1.63005 0
M  V30 27137 H 2661.03 3.45093 -1.94235 0
M  V30 27138 H 2662.2 1.76955 -4.25469 0
M  V30 27139 H 2660.51 1.74396 -3.78121 0
M  V30 27140 H 2663.11 4.41713 -3.0132 0
M  V30 27141 H 2663.45 3.93068 -1.37124 0
M  V30 27142 H 2663.99 2.90073 -2.72218 0
M  V30 27143 H 2660.73 3.23508 -5.70108 0
M  V30 27144 H 2660.25 4.19751 -4.2845 0
M  V30 27145 H 2661.93 4.2523 -4.87635 0
M  V30 27146 N 2662.06 1.22139 0.995977 0
M  V30 27147 C 2663.01 0.956078 2.06986 0
M  V30 27148 C 2663.99 -0.0921293 1.60636 0
M  V30 27149 O 2665.18 0.117989 1.76606 0
M  V30 27150 C 2662.31 0.532395 3.39147 0
M  V30 27151 C 2661.4 1.61516 3.92139 0
M  V30 27152 N 2661.79 2.84221 4.18392 0
M  V30 27153 C 2660.09 1.48613 4.20512 0
M  V30 27154 C 2660.79 3.54214 4.61419 0
M  V30 27155 N 2659.77 2.81677 4.64929 0
M  V30 27156 H 2663.57 1.8882 2.2522 0
M  V30 27157 H 2661.08 1.11847 1.17746 0
M  V30 27158 H 2663.08 0.323647 4.15642 0
M  V30 27159 H 2661.74 -0.392864 3.22315 0
M  V30 27160 H 2662.75 3.20678 4.06677 0
M  V30 27161 H 2659.43 0.626835 4.12768 0
M  V30 27162 H 2660.82 4.59324 4.90379 0
M  V30 27163 N 2663.54 -1.19233 1.03059 0
M  V30 27164 C 2664.95 -1.40988 0.747971 0
M  V30 27165 C 2665.15 -1.9015 -0.666719 0
M  V30 27166 O 2664.21 -2.07935 -1.43245 0
M  V30 27167 C 2665.52 -2.41948 1.78554 0
M  V30 27168 C 2667.07 -2.55692 1.80528 0
M  V30 27169 C 2667.54 -3.59908 2.83249 0
M  V30 27170 N 2669.04 -3.67406 2.82077 0
M  V30 27171 C 2669.77 -4.47741 3.58211 0
M  V30 27172 N 2669.27 -5.31767 4.44067 0
M  V30 27173 N 2671.06 -4.42407 3.46746 0
M  V30 27174 H 2663.21 -0.856434 1.94368 0
M  V30 27175 H 2665.47 -0.438633 0.84042 0
M  V30 27176 H 2665.18 -2.12852 2.79976 0
M  V30 27177 H 2665.05 -3.41149 1.60926 0
M  V30 27178 H 2667.44 -2.8411 0.79783 0
M  V30 27179 H 2667.52 -1.56639 2.02232 0
M  V30 27180 H 2667.17 -3.32232 3.84167 0
M  V30 27181 H 2667.1 -4.58616 2.58803 0
M  V30 27182 H 2669.59 -3.07396 2.19809 0
M  V30 27183 H 2669.9 -5.9019 4.98895 0
M  V30 27184 H 2668.24 -5.31222 4.48138 0
M  V30 27185 H 2671.44 -3.75806 2.79084 0
M  V30 27186 H 2671.61 -5.04776 4.06331 0
M  V30 27187 N 2665.01 -0.808686 -1.3527 0
M  V30 27188 C 2666.26 -0.390616 -1.99003 0
M  V30 27189 C 2666.59 1.04007 -1.64001 0
M  V30 27190 O 2665.87 1.72194 -0.904398 0
M  V30 27191 C 2666.15 -0.576629 -3.55453 0
M  V30 27192 C 2666 -2.0524 -4.00246 0
M  V30 27193 C 2667.32 -0.00362013 -4.401 0
M  V30 27194 H 2664.44 -0.143401 -0.722914 0
M  V30 27195 H 2667.08 -1.01861 -1.60388 0
M  V30 27196 H 2665.23 -0.0420449 -3.88477 0
M  V30 27197 H 2666.91 -2.64952 -3.77621 0
M  V30 27198 H 2665.15 -2.54807 -3.51078 0
M  V30 27199 H 2665.82 -2.13342 -5.09106 0
M  V30 27200 H 2668.3 -0.460189 -4.13547 0
M  V30 27201 H 2667.17 -0.163672 -5.48656 0
M  V30 27202 H 2667.43 1.09025 -4.28446 0
M  V30 27203 N 2666.49 1.47225 -0.562374 0
M  V30 27204 C 2667.44 2.30078 0.182421 0
M  V30 27205 C 2668.41 1.39379 0.903478 0
M  V30 27206 O 2669.59 1.68338 0.898158 0
M  V30 27207 C 2666.73 3.23447 1.20316 0
M  V30 27208 C 2665.85 4.29239 0.487642 0
M  V30 27209 C 2664.98 5.09754 1.49413 0
M  V30 27210 C 2664.02 6.07315 0.76387 0
M  V30 27211 N 2663.16 6.80771 1.71743 0
M  V30 27212 H 2668 2.93245 -0.530221 0
M  V30 27213 H 2665.54 1.44539 -0.273302 0
M  V30 27214 H 2667.49 3.76007 1.80761 0
M  V30 27215 H 2666.12 2.62133 1.88377 0
M  V30 27216 H 2665.18 3.79695 -0.23144 0
M  V30 27217 H 2666.49 4.98729 -0.0841879 0
M  V30 27218 H 2665.64 5.6649 2.17196 0
M  V30 27219 H 2664.38 4.40178 2.09988 0
M  V30 27220 H 2663.39 5.49753 0.0721378 0
M  V30 27221 H 2664.61 6.78902 0.163791 0
M  V30 27222 H 2662.56 6.1392 2.31166 0
M  V30 27223 H 2662.47 7.46449 1.19789 0
M  V30 27224 H 2663.74 7.42077 2.38625 0
M  V30 27225 N 2667.97 0.299089 1.54736 0
M  V30 27226 C 2669.2 -0.313411 2.04512 0
M  V30 27227 C 2669.61 -1.47665 1.17646 0
M  V30 27228 O 2668.97 -1.81382 0.201672 0
M  V30 27229 C 2669.02 -0.77148 3.53172 0
M  V30 27230 O 2668.74 0.345456 4.36736 0
M  V30 27231 C 2670.24 -1.44933 4.18938 0
M  V30 27232 H 2667.46 -0.0683666 0.667508 0
M  V30 27233 H 2670.01 0.438164 1.99751 0
M  V30 27234 H 2668.16 -1.47308 3.583 0
M  V30 27235 H 2668.58 -0.0108297 5.24499 0
M  V30 27236 H 2670.05 -1.72102 5.24485 0
M  V30 27237 H 2670.53 -2.38876 3.68558 0
M  V30 27238 H 2671.13 -0.790955 4.1788 0
M  V30 27239 N 2669.45 -1.57577 0.0267774 0
M  V30 27240 C 2670.73 -1.82992 -0.690894 0
M  V30 27241 C 2671.11 -0.910198 -1.90469 0
M  V30 27242 O 2670.45 0.0347584 -2.28474 0
M  V30 27243 C 2670.66 -3.3215 -1.07133 0
M  V30 27244 C 2672.01 -3.98564 -1.46395 0
M  V30 27245 O 2673.04 -3.36632 -1.16437 0
M  V30 27246 O 2671.89 -5.07716 -2.02205 0
M  V30 27247 H 2668.99 -0.754446 -0.338734 0
M  V30 27248 H 2671.53 -1.69613 0.0542804 0
M  V30 27249 H 2670.31 -3.9075 -0.207325 0
M  V30 27250 H 2669.93 -3.50627 -1.87475 0
M  V30 27251 N 2670.93 0.246342 -1.55663 0
M  V30 27252 C 2672.17 0.972379 -1.7717 0
M  V30 27253 C 2672.5 1.85833 -0.59086 0
M  V30 27254 O 2671.77 1.91911 0.393331 0
M  V30 27255 H 2670.35 0.362026 -0.653411 0
M  V30 27256 H 2673.01 0.264155 -1.93102 0
M  V30 27257 H 2672.1 1.59377 -2.68338 0
M  V30 27258 N 2672.4 1.4905 0.512027 0
M  V30 27259 C 2673.63 1.61671 1.29113 0
M  V30 27260 C 2674.05 0.28382 1.86654 0
M  V30 27261 O 2673.4 -0.729302 1.67294 0
M  V30 27262 C 2673.46 2.67712 2.42925 0
M  V30 27263 O 2673.18 3.9583 1.87751 0
M  V30 27264 C 2674.68 2.90937 3.34471 0
M  V30 27265 H 2671.9 0.544589 0.391999 0
M  V30 27266 H 2674.44 1.95007 0.615847 0
M  V30 27267 H 2672.6 2.37185 3.06304 0
M  V30 27268 H 2673.01 4.54152 2.62385 0
M  V30 27269 H 2674.48 3.68893 4.10636 0
M  V30 27270 H 2674.96 2.00433 3.90798 0
M  V30 27271 H 2675.57 3.22837 2.76869 0
M  V30 27272 N 2673.88 -0.762259 1.3794 0
M  V30 27273 C 2674.83 -1.89719 1.34572 0
M  V30 27274 C 2675.82 -1.67791 0.232958 0
M  V30 27275 O 2677.03 -1.75465 0.401516 0
M  V30 27276 H 2673.41 -0.624047 0.419605 0
M  V30 27277 H 2675.38 -1.89675 2.3036 0
M  V30 27278 C 2674.13 -3.27099 1.17904 0
M  V30 27279 H 2673.45 -3.44554 2.02787 0
M  V30 27280 H 2674.89 -4.06782 1.196 0
M  V30 27281 C 2673.35 -3.36705 -0.114669 0
M  V30 27282 O 2673.88 -3.86492 -1.09484 0
M  V30 27283 N 2672.08 -2.90111 -0.168579 0
M  V30 27284 H 2671.63 -2.49785 0.629714 0
M  V30 27285 H 2671.59 -2.96918 -1.03378 0
M  V30 27286 N 2675.36 -1.22666 -0.989486 0
M  V30 27287 C 2676.78 -0.987353 -1.25393 0
M  V30 27288 C 2676.98 0.317021 -1.98991 0
M  V30 27289 O 2676.03 1.03878 -2.30143 0
M  V30 27290 C 2677.35 -2.1883 -2.06238 0
M  V30 27291 C 2678.89 -2.23223 -2.1941 0
M  V30 27292 C 2679.37 -3.42879 -3.03642 0
M  V30 27293 N 2680.86 -3.43062 -3.11228 0
M  V30 27294 C 2681.59 -4.32299 -3.76702 0
M  V30 27295 N 2681.09 -5.3176 -4.44076 0
M  V30 27296 N 2682.88 -4.20066 -3.73498 0
M  V30 27297 H 2675.03 -2.06523 -0.496176 0
M  V30 27298 H 2677.3 -0.905158 -0.281768 0
M  V30 27299 H 2677 -3.1344 -1.59526 0
M  V30 27300 H 2676.88 -2.19171 -3.06992 0
M  V30 27301 H 2679.26 -1.29158 -2.65334 0
M  V30 27302 H 2679.35 -2.26919 -1.18074 0
M  V30 27303 H 2678.99 -4.37245 -2.58416 0
M  V30 27304 H 2678.92 -3.36423 -4.05126 0
M  V30 27305 H 2681.41 -2.71092 -2.63282 0
M  V30 27306 H 2681.72 -5.96126 -4.91787 0
M  V30 27307 H 2680.07 -5.35669 -4.42813 0
M  V30 27308 H 2683.26 -3.41614 -3.20027 0
M  V30 27309 H 2683.43 -4.89817 -4.24244 0
M  V30 27310 N 2676.84 1.18685 -1.0369 0
M  V30 27311 C 2678.07 1.92517 -0.757952 0
M  V30 27312 C 2678.48 1.7596 0.684368 0
M  V30 27313 O 2677.84 1.08676 1.46615 0
M  V30 27314 C 2677.89 3.4404 -1.10991 0
M  V30 27315 O 2677.61 3.60071 -2.4956 0
M  V30 27316 C 2679.11 4.34978 -0.85492 0
M  V30 27317 H 2676.33 0.611288 -0.27671 0
M  V30 27318 H 2678.88 1.50593 -1.38355 0
M  V30 27319 H 2677.03 3.83766 -0.529346 0
M  V30 27320 H 2677.45 4.53844 -2.62918 0
M  V30 27321 H 2678.92 5.39865 -1.15107 0
M  V30 27322 H 2679.4 4.38696 0.21043 0
M  V30 27323 H 2680 4.00944 -1.4186 0
M  V30 27324 N 2678.32 0.815849 1.34839 0
M  V30 27325 C 2679.56 0.401164 1.98793 0
M  V30 27326 C 2679.9 -1.03136 1.6455 0
M  V30 27327 O 2679.17 -1.71712 0.913517 0
M  V30 27328 C 2679.45 0.595471 3.55142 0
M  V30 27329 C 2679.31 2.07359 3.99152 0
M  V30 27330 C 2680.63 0.0269596 4.40092 0
M  V30 27331 H 2677.75 0.147232 0.722144 0
M  V30 27332 H 2680.39 1.0271 1.59846 0
M  V30 27333 H 2678.54 0.0626462 3.88449 0
M  V30 27334 H 2680.21 2.66951 3.76211 0
M  V30 27335 H 2678.45 2.56665 3.49722 0
M  V30 27336 H 2679.12 2.16039 5.07968 0
M  V30 27337 H 2681.6 0.482114 4.13298 0
M  V30 27338 H 2680.48 0.192766 5.48561 0
M  V30 27339 H 2680.74 -1.06751 4.29018 0
M  V30 27340 N 2679.8 -1.46924 0.570174 0
M  V30 27341 C 2681.04 -2.02436 0.0509885 0
M  V30 27342 C 2681.37 -1.4431 -1.30403 0
M  V30 27343 O 2680.63 -0.593231 -1.86492 0
M  V30 27344 C 2680.92 -3.57315 -0.0779708 0
M  V30 27345 C 2680.59 -4.34422 1.20783 0
M  V30 27346 C 2679.25 -4.55207 1.56012 0
M  V30 27347 C 2681.6 -4.78793 2.05929 0
M  V30 27348 C 2678.93 -5.17614 2.76211 0
M  V30 27349 C 2681.28 -5.42527 3.25341 0
M  V30 27350 C 2679.95 -5.61543 3.60868 0
M  V30 27351 H 2679.22 -0.740765 0.018658 0
M  V30 27352 H 2681.87 -1.76444 0.744293 0
M  V30 27353 H 2680.17 -3.82372 -0.854327 0
M  V30 27354 H 2681.87 -3.9793 -0.495242 0
M  V30 27355 H 2678.46 -4.18532 0.923542 0
M  V30 27356 H 2682.64 -4.62502 1.80017 0
M  V30 27357 H 2677.9 -5.30529 3.03889 0
M  V30 27358 H 2682.07 -5.75869 3.91596 0
M  V30 27359 H 2679.7 -6.0967 4.54099 0
M  V30 27360 N 2681.27 -0.307291 -1.54575 0
M  V30 27361 C 2682.24 0.553185 -2.22424 0
M  V30 27362 C 2683.24 1.05637 -1.21233 0
M  V30 27363 O 2684.43 0.951394 -1.45925 0
M  V30 27364 C 2681.56 1.76659 -2.91555 0
M  V30 27365 H 2682.75 -0.0397011 -2.99874 0
M  V30 27366 H 2680.3 -0.0581903 -1.56192 0
M  V30 27367 H 2681.04 2.39915 -2.18201 0
M  V30 27368 H 2680.82 1.41337 -3.65741 0
M  V30 27369 H 2682.31 2.37777 -3.43296 0
M  V30 27370 N 2682.75 1.57561 -0.0351337 0
M  V30 27371 C 2683.98 1.9676 0.655767 0
M  V30 27372 C 2684.4 0.911837 1.64521 0
M  V30 27373 O 2683.76 -0.126642 1.80857 0
M  V30 27374 C 2683.81 3.35049 1.3332 0
M  V30 27375 O 2682.91 3.31839 2.4486 0
M  V30 27376 H 2682.25 0.641391 0.171795 0
M  V30 27377 H 2684.78 2.04361 -0.0987728 0
M  V30 27378 H 2684.79 3.71416 1.6886 0
M  V30 27379 H 2683.47 4.11432 0.607961 0
M  V30 27380 H 2682.04 3.07197 2.11387 0
M  V30 27381 N 2684.23 -0.238084 1.55791 0
M  V30 27382 C 2685.48 -0.962837 1.77235 0
M  V30 27383 C 2685.79 -1.86148 0.600694 0
M  V30 27384 O 2687 -2.62365 0.698361 0
M  V30 27385 C 2685.45 -1.76213 3.13811 0
M  V30 27386 C 2685.06 -0.910441 4.38651 0
M  V30 27387 C 2686.81 -2.47908 3.44589 0
M  V30 27388 C 2684.71 -1.70613 5.66255 0
M  V30 27389 H 2683.64 -0.363238 0.660737 0
M  V30 27390 H 2686.29 -0.21721 1.8221 0
M  V30 27391 H 2684.68 -2.55004 3.02967 0
M  V30 27392 H 2685.85 -0.164235 4.60507 0
M  V30 27393 H 2684.16 -0.306397 4.15271 0
M  V30 27394 H 2686.76 -3.07909 4.37145 0
M  V30 27395 H 2687.1 -3.19968 2.6632 0
M  V30 27396 H 2687.64 -1.76121 3.56688 0
M  V30 27397 H 2684.38 -1.02911 6.47371 0
M  V30 27398 H 2683.9 -2.42738 5.48487 0
M  V30 27399 H 2685.58 -2.27103 6.05833 0
M  V30 27400 N 2685.71 -1.4932 -0.504115 0
M  V30 27401 C 2686.93 -1.62617 -1.28726 0
M  V30 27402 C 2687.36 -0.296342 -1.85751 0
M  V30 27403 O 2686.72 0.73562 -1.65706 0
M  V30 27404 C 2686.76 -2.69528 -2.39556 0
M  V30 27405 O 2685.87 -2.28484 -3.4332 0
M  V30 27406 H 2685.21 -0.544401 -0.380162 0
M  V30 27407 H 2687.74 -1.95486 -0.603838 0
M  V30 27408 H 2687.75 -2.916 -2.85365 0
M  V30 27409 H 2686.42 -3.66059 -1.97417 0
M  V30 27410 H 2685 -2.1673 -3.03451 0
M  V30 27411 N 2687.19 0.754933 -1.38342 0
M  V30 27412 C 2688.12 1.87661 -1.2984 0
M  V30 27413 C 2689.1 1.61648 -0.175687 0
M  V30 27414 O 2690.28 1.85169 -0.352778 0
M  V30 27415 C 2687.41 3.23244 -1.01147 0
M  V30 27416 C 2686.45 3.68147 -2.15338 0
M  V30 27417 S 2687.29 3.79842 -3.77466 0
M  V30 27418 C 2688.44 5.18247 -3.50957 0
M  V30 27419 H 2688.68 1.94586 -2.24774 0
M  V30 27420 H 2686.21 0.917775 -1.24162 0
M  V30 27421 H 2688.17 4.01545 -0.852757 0
M  V30 27422 H 2686.83 3.14 -0.0793336 0
M  V30 27423 H 2686.02 4.66487 -1.90804 0
M  V30 27424 H 2685.62 2.96996 -2.27309 0
M  V30 27425 H 2687.91 6.03958 -3.06988 0
M  V30 27426 H 2688.86 5.47801 -4.48686 0
M  V30 27427 H 2689.27 4.8698 -2.855 0
M  V30 27428 N 2688.66 1.23189 0.982967 0
M  V30 27429 C 2689.91 1.06401 1.72646 0
M  V30 27430 C 2690.24 -0.398528 1.90067 0
M  V30 27431 O 2689.52 -1.29515 1.45107 0
M  V30 27432 C 2689.8 1.78713 3.12624 0
M  V30 27433 C 2689.65 3.32624 3.02789 0
M  V30 27434 C 2690.97 1.54754 4.11994 0
M  V30 27435 H 2688.09 0.387929 0.626642 0
M  V30 27436 H 2690.73 1.5166 1.14452 0
M  V30 27437 H 2688.88 1.4024 3.62305 0
M  V30 27438 H 2690.56 3.80602 2.60652 0
M  V30 27439 H 2688.8 3.61789 2.39356 0
M  V30 27440 H 2689.47 3.78407 4.01886 0
M  V30 27441 H 2691.95 1.88192 3.7111 0
M  V30 27442 H 2690.82 2.0783 5.08033 0
M  V30 27443 H 2691.08 0.482326 4.39461 0
M  V30 27444 N 2690.14 -1.18133 1.04318 0
M  V30 27445 C 2691.39 -1.87805 0.746575 0
M  V30 27446 C 2691.71 -1.80899 -0.72805 0
M  V30 27447 O 2690.98 -1.22901 -1.52552 0
M  V30 27448 H 2689.56 -0.695261 0.27317 0
M  V30 27449 H 2692.22 -1.43351 1.32047 0
M  V30 27450 H 2691.32 -2.93776 1.05367 0
M  V30 27451 N 2691.62 -0.822988 -1.34405 0
M  V30 27452 C 2693.03 -0.469911 -1.8069 0
M  V30 27453 C 2693.38 1.0097 -1.68225 0
M  V30 27454 O 2692.51 1.78575 -1.22229 0
M  V30 27455 C 2693.1 -0.846176 -3.28063 0
M  V30 27456 C 2691.66 -0.545468 -3.72427 0
M  V30 27457 C 2690.81 -1.06305 -2.56114 0
M  V30 27458 H 2693.76 -1.01315 -1.22151 0
M  V30 27459 H 2693.78 -0.149989 -3.80204 0
M  V30 27460 H 2693.29 -1.9231 -3.37103 0
M  V30 27461 H 2691.39 0.522044 -3.68925 0
M  V30 27462 H 2691.51 -1.08958 -4.66546 0
M  V30 27463 H 2689.87 -0.484598 -2.50047 0
M  V30 27464 H 2690.65 -2.14642 -2.67925 0
M  V30 27465 N 2693.1 1.4662 -0.577957 0
M  V30 27466 C 2694.32 2.07297 -0.06529 0
M  V30 27467 C 2694.75 1.42462 1.22826 0
M  V30 27468 O 2694.11 0.506748 1.74074 0
M  V30 27469 C 2694.15 3.60483 0.0919955 0
M  V30 27470 O 2693.26 3.96051 1.14965 0
M  V30 27471 H 2692.6 0.661223 -0.0606616 0
M  V30 27472 H 2695.13 1.88331 -0.799548 0
M  V30 27473 H 2695.14 4.06898 0.299669 0
M  V30 27474 H 2693.81 4.07065 -0.852683 0
M  V30 27475 H 2692.39 3.61352 0.920815 0
M  V30 27476 N 2694.58 0.315484 1.5441 0
M  V30 27477 C 2695.51 -0.596484 2.20266 0
M  V30 27478 C 2696.49 -1.1219 1.17695 0
M  V30 27479 O 2697.67 -1.18741 1.46399 0
M  V30 27480 C 2694.8 -1.81762 2.85797 0
M  V30 27481 C 2693.84 -1.42416 4.0202 0
M  V30 27482 S 2694.68 -0.467742 5.33453 0
M  V30 27483 C 2695.83 -1.69635 6.02474 0
M  V30 27484 H 2696.07 -0.0370374 2.97277 0
M  V30 27485 H 2693.6 0.0995833 1.54079 0
M  V30 27486 H 2695.56 -2.51833 3.24176 0
M  V30 27487 H 2694.22 -2.34825 2.08605 0
M  V30 27488 H 2693.41 -2.33388 4.46706 0
M  V30 27489 H 2693.01 -0.803247 3.65272 0
M  V30 27490 H 2695.31 -2.63493 6.24162 0
M  V30 27491 H 2696.25 -1.29179 6.96217 0
M  V30 27492 H 2696.66 -1.87965 5.32287 0
M  V30 27493 N 2696.05 -1.5754 0.0434891 0
M  V30 27494 C 2697 -2.12251 -0.951427 0
M  V30 27495 C 2698 -1.05247 -1.32738 0
M  V30 27496 O 2699.2 -1.23665 -1.30793 0
M  V30 27497 H 2695.58 -0.678309 -0.324656 0
M  V30 27498 H 2697.55 -2.94758 -0.464803 0
M  V30 27499 C 2696.3 -2.6763 -2.21967 0
M  V30 27500 H 2695.62 -3.49623 -1.93917 0
M  V30 27501 H 2697.06 -3.09541 -2.89759 0
M  V30 27502 C 2695.52 -1.61044 -2.95917 0
M  V30 27503 O 2696.05 -1.01869 -3.88569 0
M  V30 27504 N 2694.26 -1.32746 -2.58509 0
M  V30 27505 H 2693.8 -1.81054 -1.83241 0
M  V30 27506 H 2693.76 -0.616586 -3.08295 0
M  V30 27507 N 2697.53 0.229818 -1.55915 0
M  V30 27508 C 2698.46 1.28811 -1.94756 0
M  V30 27509 C 2699.44 1.49322 -0.814683 0
M  V30 27510 O 2700.63 1.61644 -1.07634 0
M  V30 27511 C 2697.76 2.63955 -2.2571 0
M  V30 27512 C 2696.71 2.58114 -3.4141 0
M  V30 27513 C 2696.04 3.97212 -3.57948 0
M  V30 27514 C 2697.34 2.13615 -4.76619 0
M  V30 27515 H 2699.03 0.965497 -2.83405 0
M  V30 27516 H 2696.58 0.463004 -1.36353 0
M  V30 27517 H 2698.53 3.38141 -2.51472 0
M  V30 27518 H 2697.26 2.97888 -1.33905 0
M  V30 27519 H 2695.91 1.86386 -3.15683 0
M  V30 27520 H 2695.56 4.28438 -2.63534 0
M  V30 27521 H 2695.26 3.94188 -4.35764 0
M  V30 27522 H 2696.79 4.73072 -3.8605 0
M  V30 27523 H 2698.2 2.7754 -5.01642 0
M  V30 27524 H 2696.6 2.21667 -5.57659 0
M  V30 27525 H 2697.67 1.0882 -4.72532 0
M  V30 27526 N 2699.01 1.49585 0.49619 0
M  V30 27527 C 2699.97 1.66087 1.57949 0
M  V30 27528 C 2700.97 0.532466 1.51728 0
M  V30 27529 O 2702.16 0.799017 1.54795 0
M  V30 27530 C 2699.3 1.66273 2.97601 0
M  V30 27531 H 2700.49 2.62713 1.44645 0
M  V30 27532 H 2698.04 1.38689 0.720775 0
M  V30 27533 H 2698.78 0.712487 3.16377 0
M  V30 27534 H 2698.56 2.48225 3.03524 0
M  V30 27535 H 2700.05 1.8108 3.76297 0
M  V30 27536 N 2700.49 -0.747586 1.3874 0
M  V30 27537 C 2701.42 -1.87489 1.39176 0
M  V30 27538 C 2702.4 -1.6815 0.256823 0
M  V30 27539 O 2703.58 -1.88654 0.460795 0
M  V30 27540 C 2700.71 -3.2509 1.22203 0
M  V30 27541 C 2699.67 -3.59043 2.32964 0
M  V30 27542 C 2698.99 -4.95446 2.01091 0
M  V30 27543 C 2700.29 -3.63304 3.75244 0
M  V30 27544 H 2701.99 -1.87382 2.33513 0
M  V30 27545 H 2699.53 -0.900114 1.12401 0
M  V30 27546 H 2701.49 -4.03615 1.21131 0
M  V30 27547 H 2700.21 -3.25693 0.243298 0
M  V30 27548 H 2698.87 -2.82841 2.33231 0
M  V30 27549 H 2698.52 -4.92614 1.01687 0
M  V30 27550 H 2698.22 -5.19131 2.75276 0
M  V30 27551 H 2699.74 -5.76342 2.01648 0
M  V30 27552 H 2701.16 -4.3193 3.76974 0
M  V30 27553 H 2699.55 -3.98501 4.48684 0
M  V30 27554 H 2700.62 -2.63393 4.07127 0
M  V30 27555 N 2701.97 -1.23709 -0.97642 0
M  V30 27556 C 2703.24 -0.979729 -1.69295 0
M  V30 27557 C 2703.62 0.500519 -2.05081 0
M  V30 27558 O 2702.97 1.4727 -1.7471 0
M  V30 27559 C 2703.18 -1.89394 -2.9314 0
M  V30 27560 C 2704.53 -2.15974 -3.65569 0
M  V30 27561 O 2705.55 -1.86976 -3.0318 0
M  V30 27562 O 2704.41 -2.65175 -4.77854 0
M  V30 27563 H 2701.51 -0.369825 -0.739702 0
M  V30 27564 H 2704.05 -1.34769 -1.03129 0
M  V30 27565 H 2702.82 -2.89443 -2.63322 0
M  V30 27566 H 2702.45 -1.5286 -3.67042 0
M  V30 27567 N 2703.44 1.17579 -1.04943 0
M  V30 27568 C 2704.69 1.88306 -0.768929 0
M  V30 27569 C 2705.05 1.79357 0.696329 0
M  V30 27570 O 2704.34 1.18902 1.50243 0
M  V30 27571 C 2704.53 3.37335 -1.18068 0
M  V30 27572 C 2704.36 3.60789 -2.68442 0
M  V30 27573 C 2703.13 3.77655 -3.35716 0
M  V30 27574 C 2705.33 3.60642 -3.66663 0
M  V30 27575 N 2703.31 3.8893 -4.7498 0
M  V30 27576 C 2704.68 3.77738 -4.91644 0
M  V30 27577 C 2706.74 3.43778 -3.60168 0
M  V30 27578 C 2705.44 3.79715 -6.10908 0
M  V30 27579 C 2707.47 3.47043 -4.78869 0
M  V30 27580 C 2706.83 3.64644 -6.02673 0
M  V30 27581 H 2702.93 0.70729 -0.333563 0
M  V30 27582 H 2705.51 1.41169 -1.34087 0
M  V30 27583 H 2703.68 3.83146 -0.636715 0
M  V30 27584 H 2705.41 3.95667 -0.85027 0
M  V30 27585 H 2702.17 3.77404 -2.86117 0
M  V30 27586 H 2702.59 3.9837 -5.47385 0
M  V30 27587 H 2707.24 3.29109 -2.65418 0
M  V30 27588 H 2704.95 3.9317 -7.06005 0
M  V30 27589 H 2708.54 3.35256 -4.75494 0
M  V30 27590 H 2707.42 3.67071 -6.92985 0
M  V30 27591 N 2704.92 0.830104 1.33967 0
M  V30 27592 C 2706.17 0.417963 1.97322 0
M  V30 27593 C 2706.48 -1.02615 1.66522 0
M  V30 27594 O 2707.69 -1.54255 2.23422 0
M  V30 27595 C 2706.15 0.696421 3.53098 0
M  V30 27596 C 2705.75 2.15463 3.92784 0
M  V30 27597 C 2707.5 0.350798 4.23048 0
M  V30 27598 C 2705.41 2.3776 5.41502 0
M  V30 27599 H 2704.34 0.152554 0.738406 0
M  V30 27600 H 2706.99 1.01746 1.52709 0
M  V30 27601 H 2705.37 0.02666 3.95991 0
M  V30 27602 H 2706.54 2.86415 3.60975 0
M  V30 27603 H 2704.86 2.46238 3.35791 0
M  V30 27604 H 2707.45 0.49513 5.32403 0
M  V30 27605 H 2707.8 -0.705404 4.1028 0
M  V30 27606 H 2708.33 0.97543 3.85656 0
M  V30 27607 H 2705.07 3.41913 5.59264 0
M  V30 27608 H 2704.59 1.7136 5.74801 0
M  V30 27609 H 2706.27 2.20476 6.08276 0
M  V30 27610 N 2706.4 -1.46311 0.585725 0
M  V30 27611 C 2707.63 -2.0726 0.0762826 0
M  V30 27612 C 2708.05 -1.43111 -1.22069 0
M  V30 27613 O 2707.41 -0.515973 -1.73803 0
M  V30 27614 C 2707.46 -3.60526 -0.072877 0
M  V30 27615 O 2706.56 -3.96656 -1.12863 0
M  V30 27616 H 2705.9 -0.660892 0.0641674 0
M  V30 27617 H 2708.43 -1.87904 0.809525 0
M  V30 27618 H 2708.44 -4.07051 -0.278086 0
M  V30 27619 H 2707.12 -4.06607 0.874259 0
M  V30 27620 H 2705.69 -3.61835 -0.901639 0
M  V30 27621 N 2707.88 -0.323668 -1.54241 0
M  V30 27622 C 2709.3 0.0289737 -1.59574 0
M  V30 27623 C 2709.5 1.50469 -1.3402 0
M  V30 27624 O 2708.55 2.26069 -1.12468 0
M  V30 27625 C 2709.86 -0.389348 -2.98169 0
M  V30 27626 C 2711.41 -0.340013 -3.11148 0
M  V30 27627 C 2711.89 -0.733498 -4.52088 0
M  V30 27628 N 2713.38 -0.686907 -4.58078 0
M  V30 27629 C 2714.11 -0.963564 -5.65246 0
M  V30 27630 N 2713.61 -1.30736 -6.80353 0
M  V30 27631 N 2715.4 -0.889118 -5.55024 0
M  V30 27632 H 2707.55 -1.28515 -1.69108 0
M  V30 27633 H 2709.82 -0.522572 -0.790963 0
M  V30 27634 H 2709.52 -1.41752 -3.21868 0
M  V30 27635 H 2709.4 0.245591 -3.764 0
M  V30 27636 H 2711.78 0.678952 -2.87183 0
M  V30 27637 H 2711.86 -1.00989 -2.35021 0
M  V30 27638 H 2711.51 -1.75038 -4.76785 0
M  V30 27639 H 2711.44 -0.0413115 -5.26584 0
M  V30 27640 H 2713.93 -0.433046 -3.75411 0
M  V30 27641 H 2714.24 -1.50383 -7.58027 0
M  V30 27642 H 2712.59 -1.34562 -6.81849 0
M  V30 27643 H 2715.78 -0.62002 -4.63976 0
M  V30 27644 H 2715.95 -1.10808 -6.38456 0
M  V30 27645 N 2709.36 1.57515 -0.0518432 0
M  V30 27646 C 2710.31 2.12753 0.940158 0
M  V30 27647 C 2711.3 1.0595 1.32178 0
M  V30 27648 O 2712.51 1.24357 1.30135 0
M  V30 27649 H 2708.88 0.680021 0.321054 0
M  V30 27650 H 2710.85 2.95 0.449165 0
M  V30 27651 C 2709.6 2.68803 2.20545 0
M  V30 27652 H 2708.92 3.50647 1.9206 0
M  V30 27653 H 2710.36 3.11073 2.88114 0
M  V30 27654 C 2708.82 1.62611 2.95058 0
M  V30 27655 O 2709.35 1.03928 3.88023 0
M  V30 27656 N 2707.56 1.34115 2.57801 0
M  V30 27657 H 2707.11 1.82023 1.82278 0
M  V30 27658 H 2707.06 0.632927 3.07963 0
M  V30 27659 N 2710.84 -0.221546 1.56035 0
M  V30 27660 C 2711.77 -1.27776 1.95436 0
M  V30 27661 C 2712.75 -1.48887 0.82259 0
M  V30 27662 O 2713.93 -1.61071 1.08489 0
M  V30 27663 C 2711.06 -2.62755 2.27106 0
M  V30 27664 C 2710.02 -2.563 3.42774 0
M  V30 27665 C 2709.34 -3.95308 3.60049 0
M  V30 27666 C 2710.64 -2.11084 4.77745 0
M  V30 27667 H 2712.34 -0.950454 2.83913 0
M  V30 27668 H 2709.88 -0.455767 1.36597 0
M  V30 27669 H 2711.83 -3.36803 2.53262 0
M  V30 27670 H 2710.56 -2.97173 1.35483 0
M  V30 27671 H 2709.22 -1.84709 3.16667 0
M  V30 27672 H 2708.87 -4.27034 2.65802 0
M  V30 27673 H 2708.57 -3.91871 4.37848 0
M  V30 27674 H 2710.09 -4.71018 3.88554 0
M  V30 27675 H 2711.5 -2.74876 5.03106 0
M  V30 27676 H 2709.9 -2.18707 5.58827 0
M  V30 27677 H 2710.97 -1.06313 4.73102 0
M  V30 27678 N 2712.31 -1.49846 -0.48825 0
M  V30 27679 C 2713.54 -1.63467 -1.26341 0
M  V30 27680 C 2713.95 -0.310411 -1.86636 0
M  V30 27681 O 2713.29 0.715682 -1.69185 0
M  V30 27682 C 2713.36 -2.65483 -2.42403 0
M  V30 27683 C 2713.02 -4.09499 -2.02879 0
M  V30 27684 C 2714.02 -4.95907 -1.56115 0
M  V30 27685 C 2711.7 -4.55312 -2.12123 0
M  V30 27686 C 2713.7 -6.26171 -1.19118 0
M  V30 27687 C 2711.38 -5.85585 -1.74737 0
M  V30 27688 C 2712.38 -6.70839 -1.2831 0
M  V30 27689 O 2712.07 -7.98683 -0.91435 0
M  V30 27690 H 2711.8 -0.552923 -0.388911 0
M  V30 27691 H 2714.36 -1.96706 -0.591254 0
M  V30 27692 H 2712.59 -2.2745 -3.12735 0
M  V30 27693 H 2714.27 -2.68501 -3.04405 0
M  V30 27694 H 2715.04 -4.61736 -1.48409 0
M  V30 27695 H 2710.92 -3.89112 -2.4721 0
M  V30 27696 H 2714.46 -6.92668 -0.828089 0
M  V30 27697 H 2710.36 -6.19282 -1.82098 0
M  V30 27698 H 2711.13 -8.11805 -1.04471 0
M  V30 27699 N 2713.79 0.740218 -1.39135 0
M  V30 27700 C 2715.02 1.53456 -1.3952 0
M  V30 27701 C 2715.44 1.88098 0.00965577 0
M  V30 27702 O 2714.8 1.51538 0.995285 0
M  V30 27703 C 2714.85 2.80196 -2.26986 0
M  V30 27704 O 2713.95 3.75905 -1.69615 0
M  V30 27705 H 2713.29 0.463628 -0.475336 0
M  V30 27706 H 2715.82 0.913685 -1.83065 0
M  V30 27707 H 2715.83 3.28985 -2.41315 0
M  V30 27708 H 2714.51 2.54315 -3.29085 0
M  V30 27709 H 2713.08 3.34655 -1.645 0
M  V30 27710 N 2715.27 1.24225 0.969846 0
M  V30 27711 C 2716.5 1.10764 1.74754 0
M  V30 27712 C 2716.91 -0.340008 1.85713 0
M  V30 27713 O 2716.27 -1.23472 1.34391 0
M  V30 27714 C 2716.32 1.73922 3.16912 0
M  V30 27715 O 2716.04 3.13027 3.06506 0
M  V30 27716 C 2717.54 1.66043 4.11029 0
M  V30 27717 H 2714.76 0.387097 0.548085 0
M  V30 27718 H 2717.31 1.64288 1.21777 0
M  V30 27719 H 2715.46 1.24406 3.66881 0
M  V30 27720 H 2715.88 3.43841 3.96073 0
M  V30 27721 H 2717.35 2.1492 5.08442 0
M  V30 27722 H 2717.83 0.621235 4.34784 0
M  V30 27723 H 2718.43 2.14975 3.66968 0
M  V30 27724 N 2716.75 -1.1702 1.05565 0
M  V30 27725 C 2717.7 -2.23219 0.653926 0
M  V30 27726 C 2718.69 -1.66222 -0.326613 0
M  V30 27727 O 2719.9 -1.7897 -0.19227 0
M  V30 27728 H 2716.27 -0.726729 0.19331 0
M  V30 27729 H 2718.24 -2.54397 1.55965 0
M  V30 27730 C 2716.99 -3.47666 0.0486045 0
M  V30 27731 H 2716.31 -3.91832 0.794199 0
M  V30 27732 H 2717.75 -4.23551 -0.195059 0
M  V30 27733 C 2716.21 -3.14583 -1.20577 0
M  V30 27734 O 2716.74 -3.29707 -2.29469 0
M  V30 27735 N 2714.95 -2.68776 -1.10488 0
M  V30 27736 H 2714.5 -2.5667 -0.21875 0
M  V30 27737 H 2714.45 -2.47014 -1.94503 0
M  V30 27738 N 2718.23 -0.837197 -1.33524 0
M  V30 27739 C 2719.64 -0.489049 -1.80181 0
M  V30 27740 C 2719.99 0.991796 -1.69286 0
M  V30 27741 O 2719.11 1.77269 -1.24116 0
M  V30 27742 C 2719.71 -0.880924 -3.27147 0
M  V30 27743 C 2718.27 -0.584938 -3.71827 0
M  V30 27744 C 2717.41 -1.09016 -2.54972 0
M  V30 27745 H 2720.36 -1.02605 -1.2107 0
M  V30 27746 H 2720.39 -0.190306 -3.80024 0
M  V30 27747 H 2719.9 -1.95874 -3.35044 0
M  V30 27748 H 2718 0.482885 -3.69458 0
M  V30 27749 H 2718.11 -1.139 -4.65364 0
M  V30 27750 H 2716.48 -0.511091 -2.49519 0
M  V30 27751 H 2717.26 -2.17472 -2.65633 0
M  V30 27752 N 2719.7 1.45999 -0.593476 0
M  V30 27753 C 2721.12 1.57534 -0.255992 0
M  V30 27754 C 2721.32 1.58699 1.24164 0
M  V30 27755 O 2720.38 1.50972 2.02395 0
M  V30 27756 C 2721.69 2.8645 -0.914711 0
M  V30 27757 C 2723.24 3.00101 -0.889306 0
M  V30 27758 C 2723.71 4.31768 -1.52777 0
M  V30 27759 N 2725.2 4.38492 -1.4926 0
M  V30 27760 C 2725.94 5.3901 -1.9559 0
M  V30 27761 N 2725.43 6.46144 -2.49941 0
M  V30 27762 N 2727.23 5.30279 -1.86442 0
M  V30 27763 H 2719.38 1.43486 -1.56606 0
M  V30 27764 H 2721.64 0.685122 -0.655219 0
M  V30 27765 H 2721.35 2.91439 -1.96866 0
M  V30 27766 H 2721.22 3.74748 -0.429422 0
M  V30 27767 H 2723.61 2.94687 0.156059 0
M  V30 27768 H 2723.69 2.13251 -1.41272 0
M  V30 27769 H 2723.33 4.37939 -2.57239 0
M  V30 27770 H 2723.26 5.1741 -0.979489 0
M  V30 27771 H 2725.75 3.61675 -1.09542 0
M  V30 27772 H 2726.07 7.1907 -2.83122 0
M  V30 27773 H 2724.41 6.46934 -2.53972 0
M  V30 27774 H 2727.6 4.45488 -1.4373 0
M  V30 27775 H 2727.78 6.08471 -2.22862 0
M  V30 27776 N 2721.18 0.331843 1.54067 0
M  V30 27777 C 2722.41 -0.26996 2.05131 0
M  V30 27778 C 2722.83 -1.45136 1.20752 0
M  V30 27779 O 2722.18 -1.80914 0.240101 0
M  V30 27780 C 2722.23 -0.696393 3.54729 0
M  V30 27781 O 2721.95 0.438017 4.35905 0
M  V30 27782 C 2723.46 -1.36014 4.21918 0
M  V30 27783 H 2720.68 -0.0541924 0.668808 0
M  V30 27784 H 2723.22 0.480435 1.98776 0
M  V30 27785 H 2721.37 -1.39675 3.61344 0
M  V30 27786 H 2721.79 0.100427 5.24404 0
M  V30 27787 H 2723.26 -1.60938 5.28018 0
M  V30 27788 H 2723.74 -2.31005 3.73542 0
M  V30 27789 H 2724.35 -0.702138 4.19464 0
M  V30 27790 N 2722.66 -1.57485 0.0601958 0
M  V30 27791 C 2723.59 -2.09018 -0.940433 0
M  V30 27792 C 2724.61 -1.01987 -1.26895 0
M  V30 27793 O 2725.79 -1.29531 -1.22817 0
M  V30 27794 C 2722.89 -2.52586 -2.2595 0
M  V30 27795 C 2722.07 -3.83056 -2.11156 0
M  V30 27796 C 2721.13 -4.1284 -3.26266 0
M  V30 27797 O 2720.15 -4.82621 -3.0177 0
M  V30 27798 N 2721.35 -3.65466 -4.51015 0
M  V30 27799 H 2724.12 -2.95491 -0.500526 0
M  V30 27800 H 2721.68 -1.6141 -0.125824 0
M  V30 27801 H 2723.67 -2.69581 -3.01842 0
M  V30 27802 H 2722.24 -1.71313 -2.61478 0
M  V30 27803 H 2721.46 -3.75554 -1.19802 0
M  V30 27804 H 2722.75 -4.68478 -1.98509 0
M  V30 27805 H 2722.15 -3.09071 -4.73806 0
M  V30 27806 H 2720.71 -3.87682 -5.23971 0
M  V30 27807 N 2724.14 0.213268 -1.5615 0
M  V30 27808 C 2725.36 0.95725 -1.83988 0
M  V30 27809 C 2725.79 1.76821 -0.641557 0
M  V30 27810 O 2725.15 1.7661 0.409691 0
M  V30 27811 C 2725.19 1.84388 -3.09893 0
M  V30 27812 O 2724.3 2.94033 -2.89168 0
M  V30 27813 H 2723.64 0.270595 -0.606362 0
M  V30 27814 H 2726.17 0.224076 -2.03369 0
M  V30 27815 H 2726.18 2.25209 -3.40213 0
M  V30 27816 H 2724.85 1.24788 -3.96738 0
M  V30 27817 H 2723.43 2.57098 -2.70101 0
M  V30 27818 N 2725.62 1.50103 0.480296 0
M  V30 27819 C 2726.87 1.59874 1.22977 0
M  V30 27820 C 2727.18 0.300254 1.93282 0
M  V30 27821 O 2728.38 0.276757 2.70086 0
M  V30 27822 C 2726.84 2.82168 2.23403 0
M  V30 27823 C 2726.45 4.18857 1.58943 0
M  V30 27824 C 2728.19 3.0128 2.9905 0
M  V30 27825 C 2726.1 5.32349 2.57602 0
M  V30 27826 H 2725.03 0.595338 0.462697 0
M  V30 27827 H 2727.68 1.76521 0.50126 0
M  V30 27828 H 2726.06 2.5906 2.99506 0
M  V30 27829 H 2727.24 4.52184 0.88692 0
M  V30 27830 H 2725.55 4.05274 0.956119 0
M  V30 27831 H 2728.15 3.8324 3.72869 0
M  V30 27832 H 2728.49 2.12646 3.57893 0
M  V30 27833 H 2729.02 3.24526 2.30061 0
M  V30 27834 H 2725.76 6.23108 2.0351 0
M  V30 27835 H 2725.28 5.03451 3.26032 0
M  V30 27836 H 2726.96 5.62542 3.19617 0
M  V30 27837 N 2727.09 -0.732829 1.39526 0
M  V30 27838 C 2728 -1.87727 1.40698 0
M  V30 27839 C 2729.02 -1.71368 0.301526 0
M  V30 27840 O 2730.2 -1.93932 0.543347 0
M  V30 27841 C 2727.26 -3.23342 1.25104 0
M  V30 27842 C 2726.32 -3.52079 2.4564 0
M  V30 27843 C 2725.56 -4.81224 2.3078 0
M  V30 27844 O 2725.78 -5.55096 1.31243 0
M  V30 27845 O 2724.71 -5.09909 3.19808 0
M  V30 27846 H 2728.54 -1.89693 2.37172 0
M  V30 27847 H 2726.12 -0.880938 1.20664 0
M  V30 27848 H 2728.01 -4.04381 1.18548 0
M  V30 27849 H 2726.68 -3.22141 0.317266 0
M  V30 27850 H 2725.59 -2.71117 2.57772 0
M  V30 27851 H 2726.92 -3.5806 3.37718 0
M  V30 27852 N 2728.57 -1.24737 -0.963244 0
M  V30 27853 C 2729.82 -1.09134 -1.70931 0
M  V30 27854 C 2730.15 0.368239 -1.90677 0
M  V30 27855 O 2729.43 1.2719 -1.47149 0
M  V30 27856 C 2729.71 -1.83664 -3.09741 0
M  V30 27857 C 2729.56 -3.37399 -2.97459 0
M  V30 27858 C 2730.88 -1.61289 -4.0948 0
M  V30 27859 H 2728 -0.397849 -0.620391 0
M  V30 27860 H 2730.64 -1.53461 -1.12025 0
M  V30 27861 H 2728.79 -1.45986 -3.60028 0
M  V30 27862 H 2730.46 -3.84701 -2.54564 0
M  V30 27863 H 2728.71 -3.65551 -2.3357 0
M  V30 27864 H 2729.38 -3.84752 -3.95815 0
M  V30 27865 H 2731.85 -1.94073 -3.68069 0
M  V30 27866 H 2730.73 -2.15886 -5.04662 0
M  V30 27867 H 2730.99 -0.552179 -4.38638 0
M  V30 27868 N 2730.05 1.16459 -1.06184 0
M  V30 27869 C 2730.98 2.22982 -0.6929 0
M  V30 27870 C 2731.96 1.67175 0.314092 0
M  V30 27871 O 2733.15 1.93274 0.189465 0
M  V30 27872 C 2730.28 3.47214 -0.077381 0
M  V30 27873 C 2729.23 4.15907 -1.01023 0
M  V30 27874 C 2728.56 5.34077 -0.258067 0
M  V30 27875 C 2729.86 4.67011 -2.33876 0
M  V30 27876 H 2731.55 2.54099 -1.58347 0
M  V30 27877 H 2729.1 1.22136 -0.762812 0
M  V30 27878 H 2731.05 4.2096 0.192586 0
M  V30 27879 H 2729.77 3.15394 0.848199 0
M  V30 27880 H 2728.43 3.44086 -1.26492 0
M  V30 27881 H 2728.08 4.9851 0.670596 0
M  V30 27882 H 2727.78 5.80977 -0.87974 0
M  V30 27883 H 2729.3 6.106 0.00438055 0
M  V30 27884 H 2730.72 5.32343 -2.12799 0
M  V30 27885 H 2729.12 5.24528 -2.91531 0
M  V30 27886 H 2730.19 3.8328 -2.97025 0
M  V30 27887 N 2731.53 0.844266 1.33079 0
M  V30 27888 C 2732.76 0.456238 2.01807 0
M  V30 27889 C 2733.17 -0.944102 1.635 0
M  V30 27890 O 2732.53 -1.61442 0.851049 0
M  V30 27891 C 2732.58 0.573576 3.56921 0
M  V30 27892 O 2732.3 1.91874 3.93847 0
M  V30 27893 C 2733.8 0.183203 4.42921 0
M  V30 27894 H 2731.02 0.180489 0.64627 0
M  V30 27895 H 2733.57 1.13833 1.69889 0
M  V30 27896 H 2731.72 -0.0606686 3.87352 0
M  V30 27897 H 2732.13 1.90811 4.88561 0
M  V30 27898 H 2733.61 0.316337 5.51093 0
M  V30 27899 H 2734.09 -0.875401 4.30387 0
M  V30 27900 H 2734.69 0.7921 4.17859 0
M  V30 27901 N 2733.01 -1.45682 0.60121 0
M  V30 27902 C 2733.94 -2.33246 -0.108783 0
M  V30 27903 C 2734.92 -1.46453 -0.865197 0
M  V30 27904 O 2736.1 -1.75236 -0.837009 0
M  V30 27905 C 2733.23 -3.29052 -1.11095 0
M  V30 27906 C 2732.19 -4.25432 -0.46817 0
M  V30 27907 C 2731.51 -5.10881 -1.57813 0
M  V30 27908 C 2732.81 -5.18766 0.606561 0
M  V30 27909 H 2734.51 -2.9286 0.622358 0
M  V30 27910 H 2732.05 -1.40825 0.300739 0
M  V30 27911 H 2734.01 -3.89177 -1.61615 0
M  V30 27912 H 2732.73 -2.67584 -1.8726 0
M  V30 27913 H 2731.39 -3.66596 0.0161129 0
M  V30 27914 H 2731.04 -4.45785 -2.32991 0
M  V30 27915 H 2730.74 -5.76165 -1.15358 0
M  V30 27916 H 2732.26 -5.73873 -2.08573 0
M  V30 27917 H 2733.67 -5.72999 0.185689 0
M  V30 27918 H 2732.07 -5.92493 0.952486 0
M  V30 27919 H 2733.14 -4.6158 1.48567 0
M  V30 27920 N 2734.48 -0.340009 -1.53889 0
M  V30 27921 C 2735.43 0.534315 -2.21651 0
M  V30 27922 C 2736.42 1.06885 -1.20268 0
M  V30 27923 O 2737.61 1.00314 -1.45829 0
M  V30 27924 C 2734.74 1.68653 -2.99017 0
M  V30 27925 C 2733.83 1.16611 -4.07753 0
M  V30 27926 N 2734.22 0.366628 -5.0447 0
M  V30 27927 C 2732.51 1.44333 -4.22 0
M  V30 27928 C 2733.22 0.0846253 -5.81638 0
M  V30 27929 N 2732.19 0.675296 -5.39389 0
M  V30 27930 H 2735.99 -0.0836079 -2.93781 0
M  V30 27931 H 2733.51 -0.146693 -1.61736 0
M  V30 27932 H 2735.5 2.32483 -3.4606 0
M  V30 27933 H 2734.16 2.30777 -2.28412 0
M  V30 27934 H 2735.18 0.00801935 -5.17899 0
M  V30 27935 H 2731.85 2.06921 -3.62615 0
M  V30 27936 H 2733.24 -0.56006 -6.69562 0
M  V30 27937 N 2735.96 1.57451 -0.0685468 0
M  V30 27938 C 2737.21 1.92984 0.600127 0
M  V30 27939 C 2737.53 0.949058 1.70346 0
M  V30 27940 O 2736.8 -0.00332204 1.959 0
M  V30 27941 H 2735.38 0.712413 0.22467 0
M  V30 27942 H 2738.04 1.94495 -0.125639 0
M  V30 27943 H 2737.14 2.947 1.02754 0
M  V30 27944 N 2737.44 -0.204984 1.56261 0
M  V30 27945 C 2738.72 -0.952203 1.70858 0
M  V30 27946 C 2739.1 -2.01774 0.620536 0
M  V30 27947 O 2738.45 -2.25485 -0.369995 0
M  V30 27948 C 2738.66 -1.54761 3.1281 0
M  V30 27949 C 2740 -2.03354 3.72736 0
M  V30 27950 O 2741.03 -1.64623 3.15876 0
M  V30 27951 O 2739.89 -2.74592 4.72506 0
M  V30 27952 H 2736.98 -0.445883 0.696504 0
M  V30 27953 H 2739.53 -0.19546 1.68571 0
M  V30 27954 H 2738.3 -0.779064 3.83466 0
M  V30 27955 H 2737.92 -2.36946 3.19284 0
M  V30 27956 N 2738.92 -1.50356 -0.472329 0
M  V30 27957 C 2740.17 -1.60524 -1.22127 0
M  V30 27958 C 2740.48 -0.3105 -1.9312 0
M  V30 27959 O 2741.69 -0.291076 -2.69935 0
M  V30 27960 C 2740.14 -2.83349 -2.21904 0
M  V30 27961 C 2739.75 -4.19694 -1.5672 0
M  V30 27962 C 2741.5 -3.02862 -2.97448 0
M  V30 27963 C 2739.4 -5.33707 -2.54775 0
M  V30 27964 H 2738.33 -0.597784 -0.459533 0
M  V30 27965 H 2740.98 -1.76784 -0.491891 0
M  V30 27966 H 2739.37 -2.60645 -2.98128 0
M  V30 27967 H 2740.54 -4.52648 -0.862928 0
M  V30 27968 H 2738.85 -4.05776 -0.934613 0
M  V30 27969 H 2741.45 -3.85212 -3.70831 0
M  V30 27970 H 2741.79 -2.14541 -3.56761 0
M  V30 27971 H 2742.33 -3.25741 -2.28336 0
M  V30 27972 H 2739.07 -6.24179 -2.00203 0
M  V30 27973 H 2738.59 -5.05173 -3.23358 0
M  V30 27974 H 2740.27 -5.64229 -3.16629 0
M  V30 27975 N 2740.4 0.725419 -1.39912 0
M  V30 27976 C 2741.81 1.03222 -1.21726 0
M  V30 27977 C 2742.01 2.01318 -0.0855578 0
M  V30 27978 O 2741.07 2.46218 0.559717 0
M  V30 27979 C 2742.38 1.58534 -2.55514 0
M  V30 27980 C 2743.93 1.70568 -2.62442 0
M  V30 27981 C 2744.41 2.29287 -3.96474 0
M  V30 27982 N 2745.9 2.36685 -3.98164 0
M  V30 27983 C 2746.63 2.8308 -4.98652 0
M  V30 27984 N 2746.13 3.29299 -6.09536 0
M  V30 27985 N 2747.92 2.82375 -4.86025 0
M  V30 27986 H 2740.07 0.0750107 -2.12268 0
M  V30 27987 H 2742.33 0.0958901 -0.943138 0
M  V30 27988 H 2742.04 0.93919 -3.38928 0
M  V30 27989 H 2741.91 2.57203 -2.7591 0
M  V30 27990 H 2744.3 2.34303 -1.79405 0
M  V30 27991 H 2744.38 0.705254 -2.45886 0
M  V30 27992 H 2744.03 1.66177 -4.79945 0
M  V30 27993 H 2743.96 3.30025 -4.10355 0
M  V30 27994 H 2746.45 2.0403 -3.18088 0
M  V30 27995 H 2746.76 3.63238 -6.82113 0
M  V30 27996 H 2745.11 3.27283 -6.13116 0
M  V30 27997 H 2748.3 2.45596 -3.98497 0
M  V30 27998 H 2748.47 3.18216 -5.64484 0
M  V30 27999 N 2741.88 1.25246 0.956615 0
M  V30 28000 C 2743.11 1.12448 1.73318 0
M  V30 28001 C 2743.51 -0.324699 1.86393 0
M  V30 28002 O 2742.86 -1.23523 1.3597 0
M  V30 28003 C 2742.92 1.70309 3.166 0
M  V30 28004 C 2742.58 3.1929 3.2696 0
M  V30 28005 C 2743.58 4.16305 3.11426 0
M  V30 28006 C 2741.26 3.59462 3.50845 0
M  V30 28007 C 2743.26 5.51472 3.1962 0
M  V30 28008 C 2740.95 4.94768 3.58675 0
M  V30 28009 C 2741.94 5.90582 3.43077 0
M  V30 28010 O 2741.63 7.23426 3.50586 0
M  V30 28011 H 2741.36 0.393071 0.549974 0
M  V30 28012 H 2743.92 1.66058 1.20889 0
M  V30 28013 H 2742.15 1.11144 3.70383 0
M  V30 28014 H 2743.84 1.52639 3.76107 0
M  V30 28015 H 2744.6 3.86609 2.92846 0
M  V30 28016 H 2740.48 2.85381 3.62048 0
M  V30 28017 H 2744.03 6.26238 3.07362 0
M  V30 28018 H 2739.92 5.24131 3.76772 0
M  V30 28019 H 2740.69 7.31495 3.67229 0
M  V30 28020 N 2743.35 -1.15894 1.068 0
M  V30 28021 C 2744.77 -1.38537 0.792447 0
M  V30 28022 C 2744.97 -1.92175 -0.605887 0
M  V30 28023 O 2744.03 -2.12387 -1.36558 0
M  V30 28024 C 2745.34 -2.36145 1.86161 0
M  V30 28025 C 2746.89 -2.49819 1.88572 0
M  V30 28026 C 2747.36 -3.50715 2.94556 0
M  V30 28027 N 2748.85 -3.58246 2.93623 0
M  V30 28028 C 2749.59 -4.36118 3.72275 0
M  V30 28029 N 2749.08 -5.17371 4.6076 0
M  V30 28030 N 2750.88 -4.31152 3.60645 0
M  V30 28031 H 2743.03 -0.794164 1.96994 0
M  V30 28032 H 2745.29 -0.411673 0.853949 0
M  V30 28033 H 2745 -2.03838 2.86606 0
M  V30 28034 H 2744.87 -3.35857 1.71698 0
M  V30 28035 H 2747.26 -2.81428 0.887814 0
M  V30 28036 H 2747.34 -1.50126 2.07113 0
M  V30 28037 H 2746.98 -3.19842 3.94542 0
M  V30 28038 H 2746.91 -4.5015 2.73263 0
M  V30 28039 H 2749.4 -3.00248 2.29477 0
M  V30 28040 H 2749.72 -5.74019 5.17419 0
M  V30 28041 H 2748.06 -5.16696 4.64812 0
M  V30 28042 H 2751.25 -3.66737 2.90898 0
M  V30 28043 H 2751.43 -4.91593 4.22185 0
M  V30 28044 N 2744.83 -0.851312 -1.32629 0
M  V30 28045 C 2745.78 -0.291509 -2.28952 0
M  V30 28046 C 2746.75 0.599649 -1.54898 0
M  V30 28047 O 2747.93 0.535272 -1.83138 0
M  V30 28048 C 2745.07 0.516932 -3.41206 0
M  V30 28049 C 2744.19 -0.399642 -4.30147 0
M  V30 28050 C 2743.32 0.421106 -5.29528 0
M  V30 28051 C 2742.36 -0.493076 -6.10111 0
M  V30 28052 N 2741.5 0.29029 -7.015 0
M  V30 28053 H 2746.34 -1.11818 -2.76226 0
M  V30 28054 H 2743.87 -0.56285 -1.35906 0
M  V30 28055 H 2745.83 1.00125 -4.05007 0
M  V30 28056 H 2744.46 1.30846 -2.95092 0
M  V30 28057 H 2743.51 -1.00233 -3.66957 0
M  V30 28058 H 2744.83 -1.10139 -4.86488 0
M  V30 28059 H 2743.98 0.968727 -5.98916 0
M  V30 28060 H 2742.72 1.15623 -4.73796 0
M  V30 28061 H 2741.72 -1.05261 -5.3963 0
M  V30 28062 H 2742.95 -1.22676 -6.67928 0
M  V30 28063 H 2740.9 1.00857 -6.482 0
M  V30 28064 H 2740.81 -0.352487 -7.55178 0
M  V30 28065 H 2742.08 0.819746 -7.75178 0
M  V30 28066 N 2746.31 1.45361 -0.608928 0
M  V30 28067 C 2747.54 2.06602 -0.111049 0
M  V30 28068 C 2747.95 1.45334 1.20513 0
M  V30 28069 O 2747.31 0.568008 1.73436 0
M  V30 28070 C 2747.36 3.61484 0.0336244 0
M  V30 28071 O 2747.08 4.20465 -1.23048 0
M  V30 28072 C 2748.58 4.39713 0.562805 0
M  V30 28073 H 2745.8 0.667395 -0.0694571 0
M  V30 28074 H 2748.35 1.86585 -0.83704 0
M  V30 28075 H 2746.5 3.80839 0.709949 0
M  V30 28076 H 2746.92 5.13656 -1.06103 0
M  V30 28077 H 2748.39 5.48584 0.613117 0
M  V30 28078 H 2748.87 4.09589 1.58535 0
M  V30 28079 H 2749.47 4.25226 -0.0795201 0
M  V30 28080 N 2747.79 0.348166 1.53706 0
M  V30 28081 C 2748.72 -0.498726 2.28112 0
M  V30 28082 C 2749.7 -1.09873 1.29853 0
M  V30 28083 O 2750.88 -1.11926 1.58702 0
M  V30 28084 C 2748.01 -1.64748 3.05738 0
M  V30 28085 C 2746.97 -1.17558 4.11539 0
M  V30 28086 C 2746.29 -2.41321 4.77146 0
M  V30 28087 C 2747.59 -0.272752 5.21587 0
M  V30 28088 H 2749.29 0.121986 2.99151 0
M  V30 28089 H 2746.83 0.0601095 1.43874 0
M  V30 28090 H 2748.79 -2.24643 3.5653 0
M  V30 28091 H 2747.51 -2.29516 2.32358 0
M  V30 28092 H 2746.17 -0.599419 3.61666 0
M  V30 28093 H 2745.82 -3.04507 4.00356 0
M  V30 28094 H 2745.52 -2.10427 5.4863 0
M  V30 28095 H 2747.04 -3.01934 5.30724 0
M  V30 28096 H 2748.46 -0.778679 5.67987 0
M  V30 28097 H 2746.85 -0.0554795 6.00074 0
M  V30 28098 H 2747.92 0.689869 4.79968 0
M  V30 28099 N 2749.27 -1.57412 0.0768958 0
M  V30 28100 C 2750.51 -1.92858 -0.590645 0
M  V30 28101 C 2750.83 -0.959323 -1.70459 0
M  V30 28102 O 2752.03 -1.2068 -2.43205 0
M  V30 28103 C 2750.49 -3.42614 -1.10198 0
M  V30 28104 C 2750.1 -4.47996 -0.018766 0
M  V30 28105 C 2751.84 -3.87052 -1.74329 0
M  V30 28106 C 2749.75 -5.88889 -0.544433 0
M  V30 28107 H 2748.68 -0.719834 -0.224398 0
M  V30 28108 H 2751.33 -1.82886 0.149956 0
M  V30 28109 H 2749.71 -3.47677 -1.89571 0
M  V30 28110 H 2750.89 -4.54556 0.756016 0
M  V30 28111 H 2749.2 -4.13056 0.526628 0
M  V30 28112 H 2751.8 -4.89702 -2.14699 0
M  V30 28113 H 2752.14 -3.24699 -2.60531 0
M  V30 28114 H 2752.67 -3.84615 -1.0157 0
M  V30 28115 H 2749.41 -6.54899 0.280541 0
M  V30 28116 H 2748.93 -5.85838 -1.28662 0
M  V30 28117 H 2750.61 -6.38922 -1.01922 0
M  V30 28118 N 2750.74 0.196695 -1.56368 0
M  V30 28119 C 2751.71 1.22743 -1.93563 0
M  V30 28120 C 2752.71 1.38522 -0.81659 0
M  V30 28121 O 2753.9 1.36362 -1.08403 0
M  V30 28122 C 2751.03 2.59708 -2.20827 0
M  V30 28123 H 2752.22 0.909536 -2.85775 0
M  V30 28124 H 2749.78 0.438148 -1.50033 0
M  V30 28125 H 2750.51 2.96554 -1.31248 0
M  V30 28126 H 2750.3 2.49626 -3.02372 0
M  V30 28127 H 2751.79 3.34039 -2.50614 0
M  V30 28128 N 2752.22 1.50604 0.464349 0
M  V30 28129 C 2753.17 1.70496 1.58221 0
M  V30 28130 C 2754.16 0.570864 1.59491 0
M  V30 28131 O 2755.37 0.751545 1.6356 0
M  V30 28132 H 2751.75 0.538256 0.525152 0
M  V30 28133 H 2753.72 2.64254 1.38608 0
M  V30 28134 C 2752.47 1.82248 2.9611 0
M  V30 28135 H 2751.79 2.68907 2.95854 0
M  V30 28136 H 2753.23 2.00189 3.73765 0
M  V30 28137 C 2751.69 0.575686 3.31945 0
M  V30 28138 O 2752.22 -0.282082 4.00708 0
M  V30 28139 N 2750.42 0.427715 2.87435 0
M  V30 28140 H 2749.97 1.12678 2.3165 0
M  V30 28141 H 2749.93 -0.405325 3.11776 0
M  V30 28142 N 2753.7 -0.717989 1.40295 0
M  V30 28143 C 2754.98 -1.47082 1.28943 0
M  V30 28144 C 2755.36 -2.10894 -0.0933255 0
M  V30 28145 O 2754.71 -1.99953 -1.10595 0
M  V30 28146 C 2754.92 -2.50848 2.42644 0
M  V30 28147 C 2756.26 -3.16747 2.82766 0
M  V30 28148 O 2757.29 -2.61167 2.4222 0
M  V30 28149 O 2756.15 -4.1736 3.52807 0
M  V30 28150 H 2753.24 -0.653943 0.506248 0
M  V30 28151 H 2755.79 -0.750367 1.52209 0
M  V30 28152 H 2754.56 -2.02194 3.35012 0
M  V30 28153 H 2754.18 -3.30431 2.21135 0
M  V30 28154 N 2755.18 -1.25752 -0.94996 0
M  V30 28155 C 2756.43 -1.10558 -1.69178 0
M  V30 28156 C 2756.75 0.353265 -1.91773 0
M  V30 28157 O 2756.02 1.25025 -1.50816 0
M  V30 28158 H 2754.6 -0.40614 -0.626945 0
M  V30 28159 H 2757.26 -1.57947 -1.14188 0
M  V30 28160 H 2756.36 -1.61754 -2.66912 0
M  V30 28161 N 2756.66 1.15326 -1.07413 0
M  V30 28162 C 2757.88 1.90008 -0.818816 0
M  V30 28163 C 2758.3 1.78048 0.628041 0
M  V30 28164 O 2757.66 1.13285 1.43083 0
M  V30 28165 C 2757.71 3.40334 -1.2188 0
M  V30 28166 O 2757.43 3.5195 -2.60889 0
M  V30 28167 C 2758.93 4.32038 -0.992872 0
M  V30 28168 H 2756.15 0.602175 -0.296017 0
M  V30 28169 H 2758.69 1.46115 -1.43076 0
M  V30 28170 H 2756.85 3.81888 -0.651171 0
M  V30 28171 H 2757.26 4.4525 -2.77223 0
M  V30 28172 H 2758.74 5.3593 -1.32225 0
M  V30 28173 H 2759.21 4.39143 0.0707559 0
M  V30 28174 H 2759.82 3.96228 -1.54544 0
M  V30 28175 N 2758.13 0.858334 1.32176 0
M  V30 28176 C 2759.1 0.310628 2.27085 0
M  V30 28177 C 2760.1 -0.53178 1.51752 0
M  V30 28178 O 2761.29 -0.34276 1.70795 0
M  V30 28179 C 2758.42 -0.56012 3.36267 0
M  V30 28180 H 2759.61 1.14835 2.77043 0
M  V30 28181 H 2757.17 0.632967 1.4291 0
M  V30 28182 H 2757.9 -1.41951 2.91583 0
M  V30 28183 H 2757.69 0.0429162 3.92077 0
M  V30 28184 H 2759.18 -0.935984 4.06976 0
M  V30 28185 N 2759.61 -1.45036 0.616628 0
M  V30 28186 C 2760.54 -2.33349 -0.0840377 0
M  V30 28187 C 2761.52 -1.47362 -0.849615 0
M  V30 28188 O 2762.71 -1.76114 -0.818376 0
M  V30 28189 C 2759.84 -3.30212 -1.07599 0
M  V30 28190 C 2758.79 -4.25904 -0.423021 0
M  V30 28191 C 2758.12 -5.12526 -1.52385 0
M  V30 28192 C 2759.42 -5.18093 0.661549 0
M  V30 28193 H 2761.11 -2.92184 0.653385 0
M  V30 28194 H 2758.66 -1.40498 0.315658 0
M  V30 28195 H 2760.61 -3.90869 -1.57479 0
M  V30 28196 H 2759.34 -2.69555 -1.84412 0
M  V30 28197 H 2757.99 -3.66559 0.0549944 0
M  V30 28198 H 2757.64 -4.48231 -2.28249 0
M  V30 28199 H 2757.34 -5.77356 -1.09241 0
M  V30 28200 H 2758.87 -5.76052 -2.02474 0
M  V30 28201 H 2760.28 -5.7277 0.246453 0
M  V30 28202 H 2758.68 -5.91449 1.01527 0
M  V30 28203 H 2759.75 -4.59978 1.53454 0
M  V30 28204 N 2761.09 -0.356312 -1.53519 0
M  V30 28205 C 2762.34 0.235801 -2.0072 0
M  V30 28206 C 2762.66 1.50038 -1.24554 0
M  V30 28207 O 2761.93 1.92634 -0.356219 0
M  V30 28208 H 2760.51 0.0901235 -0.741543 0
M  V30 28209 H 2763.17 -0.480411 -1.88886 0
M  V30 28210 H 2762.27 0.469303 -3.08551 0
M  V30 28211 N 2762.57 1.57369 -0.0852427 0
M  V30 28212 C 2763.81 1.9428 0.581632 0
M  V30 28213 C 2764.15 0.966476 1.68443 0
M  V30 28214 O 2763.42 -0.00211859 1.945 0
M  V30 28215 C 2763.71 3.41377 1.14603 0
M  V30 28216 C 2763.56 4.49773 0.0489623 0
M  V30 28217 C 2764.88 3.89574 2.04744 0
M  V30 28218 H 2762 0.70646 0.20996 0
M  V30 28219 H 2764.64 1.89375 -0.153948 0
M  V30 28220 H 2762.79 3.45688 1.77291 0
M  V30 28221 H 2764.46 4.57578 -0.584801 0
M  V30 28222 H 2762.7 4.29365 -0.618713 0
M  V30 28223 H 2763.37 5.4987 0.484504 0
M  V30 28224 H 2765.85 3.87354 1.51974 0
M  V30 28225 H 2764.73 4.93083 2.41164 0
M  V30 28226 H 2764.99 3.28294 2.96101 0
M  V30 28227 N 2764.05 -0.188399 1.5647 0
M  V30 28228 C 2765.29 -0.905954 1.80657 0
M  V30 28229 C 2765.62 -1.83512 0.659423 0
M  V30 28230 O 2764.89 -1.93238 -0.321834 0
M  V30 28231 H 2763.47 -0.337526 0.666397 0
M  V30 28232 H 2766.13 -0.192305 1.93949 0
M  V30 28233 H 2765.22 -1.49308 2.74069 0
M  V30 28234 N 2765.53 -1.50848 -0.456355 0
M  V30 28235 C 2766.77 -1.62573 -1.20733 0
M  V30 28236 C 2767.1 -0.332938 -1.91629 0
M  V30 28237 O 2766.36 0.682026 -1.83431 0
M  V30 28238 C 2766.65 -2.76603 -2.26331 0
M  V30 28239 C 2766.32 -4.16565 -1.72583 0
M  V30 28240 C 2764.98 -4.54644 -1.57646 0
M  V30 28241 C 2767.33 -5.0398 -1.32868 0
M  V30 28242 C 2764.66 -5.77864 -1.0144 0
M  V30 28243 C 2767.01 -6.27761 -0.78099 0
M  V30 28244 C 2765.68 -6.6463 -0.618371 0
M  V30 28245 H 2764.95 -0.594896 -0.441792 0
M  V30 28246 H 2767.6 -1.84827 -0.501137 0
M  V30 28247 H 2765.9 -2.48495 -3.02915 0
M  V30 28248 H 2767.6 -2.82876 -2.84222 0
M  V30 28249 H 2764.19 -3.86531 -1.8518 0
M  V30 28250 H 2768.37 -4.75181 -1.43236 0
M  V30 28251 H 2763.63 -6.05092 -0.876002 0
M  V30 28252 H 2767.8 -6.94848 -0.464661 0
M  V30 28253 H 2765.43 -7.59985 -0.180705 0
M  V30 28254 N 2767 0.710538 -1.40674 0
M  V30 28255 C 2768.41 1.28989 -1.34977 0
M  V30 28256 C 2768.77 1.96183 -0.0256617 0
M  V30 28257 O 2767.89 1.97863 0.876304 0
M  V30 28258 C 2768.49 2.34562 -2.44471 0
M  V30 28259 C 2767.04 2.8811 -2.42219 0
M  V30 28260 C 2766.19 1.61959 -2.25088 0
M  V30 28261 H 2769.14 0.506317 -1.50407 0
M  V30 28262 H 2769.16 3.15519 -2.12668 0
M  V30 28263 H 2768.68 1.85628 -3.40828 0
M  V30 28264 H 2766.78 3.4126 -1.49574 0
M  V30 28265 H 2766.89 3.39559 -3.37989 0
M  V30 28266 H 2765.25 1.87213 -1.72694 0
M  V30 28267 H 2766.04 1.15042 -3.23451 0
M  V30 28268 N 2768.48 1.26254 0.943277 0
M  V30 28269 C 2769.73 1.11065 1.68367 0
M  V30 28270 C 2770.04 -0.34607 1.92514 0
M  V30 28271 O 2771.25 -0.618599 2.64359 0
M  V30 28272 C 2769.71 1.93952 3.03168 0
M  V30 28273 C 2769.31 3.44186 2.86776 0
M  V30 28274 C 2771.06 1.87366 3.80912 0
M  V30 28275 C 2768.96 4.19326 4.17036 0
M  V30 28276 H 2767.89 0.412034 0.631462 0
M  V30 28277 H 2770.55 1.50546 1.0492 0
M  V30 28278 H 2768.93 1.47302 3.67584 0
M  V30 28279 H 2770.1 3.98589 2.31222 0
M  V30 28280 H 2768.42 3.51985 2.22476 0
M  V30 28281 H 2771.01 2.40792 4.77413 0
M  V30 28282 H 2771.36 0.843928 4.07656 0
M  V30 28283 H 2771.89 2.31827 3.23266 0
M  V30 28284 H 2768.63 5.2276 3.95478 0
M  V30 28285 H 2768.15 3.69704 4.72312 0
M  V30 28286 H 2769.83 4.2766 4.85506 0
M  V30 28287 N 2769.96 -1.14755 1.08024 0
M  V30 28288 C 2771.21 -1.85335 0.805946 0
M  V30 28289 C 2771.53 -1.83124 -0.67013 0
M  V30 28290 O 2770.8 -1.27693 -1.48565 0
M  V30 28291 H 2769.38 -0.686218 0.29515 0
M  V30 28292 H 2772.04 -1.39078 1.36541 0
M  V30 28293 H 2771.14 -2.90275 1.1466 0
M  V30 28294 N 2771.44 -0.865331 -1.31719 0
M  V30 28295 C 2772.69 -0.470132 -1.96144 0
M  V30 28296 C 2773 0.981644 -1.69184 0
M  V30 28297 O 2774.21 1.48277 -2.27434 0
M  V30 28298 C 2772.66 -0.789794 -3.51127 0
M  V30 28299 C 2772.27 -2.25802 -3.86934 0
M  V30 28300 C 2774.01 -0.462839 -4.21969 0
M  V30 28301 C 2771.92 -2.52034 -5.35007 0
M  V30 28302 H 2770.85 -0.172078 -0.734102 0
M  V30 28303 H 2773.5 -1.05759 -1.49957 0
M  V30 28304 H 2771.88 -0.131641 -3.95781 0
M  V30 28305 H 2773.06 -2.95885 -3.53255 0
M  V30 28306 H 2771.37 -2.55055 -3.29144 0
M  V30 28307 H 2773.97 -0.636113 -5.30903 0
M  V30 28308 H 2774.31 0.596378 -4.12006 0
M  V30 28309 H 2774.85 -1.07734 -3.82934 0
M  V30 28310 H 2771.58 -3.56621 -5.50002 0
M  V30 28311 H 2771.1 -1.8654 -5.70055 0
M  V30 28312 H 2772.78 -2.36526 -6.02216 0
M  V30 28313 N 2772.92 1.44707 -0.624311 0
M  V30 28314 C 2774.14 2.06472 -0.132955 0
M  V30 28315 C 2774.56 1.46604 1.18965 0
M  V30 28316 O 2773.92 0.586371 1.72823 0
M  V30 28317 C 2773.97 3.615 -0.00471772 0
M  V30 28318 O 2773.69 4.19136 -1.27501 0
M  V30 28319 C 2775.19 4.40285 0.516135 0
M  V30 28320 H 2772.41 0.666621 -0.0765318 0
M  V30 28321 H 2774.95 1.85686 -0.856783 0
M  V30 28322 H 2773.11 3.81571 0.669516 0
M  V30 28323 H 2773.52 5.12502 -1.11545 0
M  V30 28324 H 2775 5.49204 0.554897 0
M  V30 28325 H 2775.47 4.11247 1.54182 0
M  V30 28326 H 2776.08 4.25117 -0.124616 0
M  V30 28327 N 2774.39 0.364449 1.53328 0
M  V30 28328 C 2775.64 -0.225933 2.01538 0
M  V30 28329 C 2775.97 -1.48513 1.2513 0
M  V30 28330 O 2775.25 -1.91421 0.344687 0
M  V30 28331 C 2775.53 -0.51903 3.5634 0
M  V30 28332 C 2775.38 0.753717 4.4344 0
M  V30 28333 C 2776.7 -1.32007 4.19836 0
M  V30 28334 H 2773.82 -0.0806419 0.732575 0
M  V30 28335 H 2776.46 0.489117 1.83596 0
M  V30 28336 H 2774.61 -1.12818 3.71758 0
M  V30 28337 H 2776.29 1.39124 4.39821 0
M  V30 28338 H 2774.53 1.37431 4.11455 0
M  V30 28339 H 2775.2 0.503613 5.49698 0
M  V30 28340 H 2777.68 -0.804787 4.08243 0
M  V30 28341 H 2776.55 -1.49389 5.2818 0
M  V30 28342 H 2776.81 -2.32826 3.75825 0
M  V30 28343 N 2775.87 -1.57322 0.0935872 0
M  V30 28344 C 2777.15 -1.85757 -0.612659 0
M  V30 28345 C 2777.53 -0.990163 -1.86438 0
M  V30 28346 O 2776.88 -0.0621764 -2.28415 0
M  V30 28347 C 2777.09 -3.36395 -0.929488 0
M  V30 28348 C 2778.43 -4.04415 -1.29359 0
M  V30 28349 O 2779.46 -3.41267 -1.02055 0
M  V30 28350 O 2778.32 -5.15835 -1.80489 0
M  V30 28351 H 2775.41 -0.768134 -0.30643 0
M  V30 28352 H 2777.96 -1.6923 0.12617 0
M  V30 28353 H 2776.73 -3.91278 -0.0414078 0
M  V30 28354 H 2776.35 -3.58263 -1.72435 0
M  V30 28355 N 2777.35 0.180099 -1.56568 0
M  V30 28356 C 2778.76 0.743392 -1.71262 0
M  V30 28357 C 2779.11 1.83186 -0.702662 0
M  V30 28358 O 2778.24 2.15961 0.137818 0
M  V30 28359 C 2778.83 1.35523 -3.10514 0
M  V30 28360 C 2777.39 1.86544 -3.26922 0
M  V30 28361 C 2776.54 0.741052 -2.67215 0
M  V30 28362 H 2779.49 -0.0451822 -1.58636 0
M  V30 28363 H 2779.51 2.22483 -3.08677 0
M  V30 28364 H 2779.02 0.562795 -3.83998 0
M  V30 28365 H 2777.12 2.68459 -2.58381 0
M  V30 28366 H 2777.24 2.01692 -4.34577 0
M  V30 28367 H 2775.6 1.15923 -2.2679 0
M  V30 28368 H 2776.38 -0.0393894 -3.43277 0
M  V30 28369 N 2778.83 1.51088 0.448349 0
M  V30 28370 C 2779.79 1.71028 1.52585 0
M  V30 28371 C 2780.79 0.580468 1.49957 0
M  V30 28372 O 2781.98 0.84786 1.52174 0
M  V30 28373 C 2779.11 1.75657 2.9216 0
M  V30 28374 H 2780.31 2.67181 1.36213 0
M  V30 28375 H 2777.86 1.40911 0.676288 0
M  V30 28376 H 2778.59 0.81278 3.1395 0
M  V30 28377 H 2778.38 2.57756 2.95473 0
M  V30 28378 H 2779.87 1.9296 3.70346 0
M  V30 28379 N 2780.31 -0.703068 1.41049 0
M  V30 28380 C 2781.72 -1.01273 1.23353 0
M  V30 28381 C 2781.92 -2.01157 0.117575 0
M  V30 28382 O 2780.98 -2.47078 -0.520475 0
M  V30 28383 C 2782.29 -1.54449 2.58004 0
M  V30 28384 C 2783.84 -1.66371 2.65122 0
M  V30 28385 C 2784.31 -2.22951 4.00071 0
M  V30 28386 N 2785.81 -2.30321 4.01879 0
M  V30 28387 C 2786.54 -2.75111 5.03092 0
M  V30 28388 N 2786.04 -3.1956 6.14698 0
M  V30 28389 N 2787.83 -2.74607 4.90456 0
M  V30 28390 H 2779.98 -0.0412313 2.1236 0
M  V30 28391 H 2782.24 -0.0808734 0.944544 0
M  V30 28392 H 2781.95 -0.88515 3.40379 0
M  V30 28393 H 2781.82 -2.52781 2.79967 0
M  V30 28394 H 2784.21 -2.31419 1.8311 0
M  V30 28395 H 2784.29 -0.666046 2.46977 0
M  V30 28396 H 2783.94 -1.58521 4.82528 0
M  V30 28397 H 2783.87 -3.23455 4.15553 0
M  V30 28398 H 2786.36 -1.98943 3.21294 0
M  V30 28399 H 2786.67 -3.5234 6.87805 0
M  V30 28400 H 2785.01 -3.17488 6.18245 0
M  V30 28401 H 2788.21 -2.39225 4.02354 0
M  V30 28402 H 2788.38 -3.09196 5.69475 0
M  V30 28403 N 2781.78 -1.26752 -0.936569 0
M  V30 28404 C 2783.03 -1.12346 -1.67996 0
M  V30 28405 C 2783.35 0.332905 -1.92137 0
M  V30 28406 O 2782.62 1.23418 -1.52134 0
M  V30 28407 H 2781.2 -0.412767 -0.622602 0
M  V30 28408 H 2783.87 -1.59149 -1.12506 0
M  V30 28409 H 2782.96 -1.64576 -2.65182 0
M  V30 28410 N 2783.26 1.1418 -1.08631 0
M  V30 28411 C 2784.21 2.19337 -0.718338 0
M  V30 28412 C 2785.18 1.63431 0.296558 0
M  V30 28413 O 2786.36 1.89949 0.180046 0
M  V30 28414 C 2783.5 3.44831 -0.136264 0
M  V30 28415 C 2782.62 4.14877 -1.20421 0
M  V30 28416 C 2781.75 5.27961 -0.585759 0
M  V30 28417 C 2780.79 5.89843 -1.63559 0
M  V30 28418 N 2779.93 6.94373 -1.03876 0
M  V30 28419 H 2784.77 2.50161 -1.61937 0
M  V30 28420 H 2782.31 1.22842 -0.809211 0
M  V30 28421 H 2784.26 4.16625 0.218948 0
M  V30 28422 H 2782.89 3.14482 0.728065 0
M  V30 28423 H 2781.95 3.41448 -1.67682 0
M  V30 28424 H 2783.26 4.56962 -1.99967 0
M  V30 28425 H 2782.41 6.06436 -0.178924 0
M  V30 28426 H 2781.15 4.87103 0.241334 0
M  V30 28427 H 2780.16 5.10069 -2.05206 0
M  V30 28428 H 2781.38 6.32775 -2.4652 0
M  V30 28429 H 2779.33 6.55587 -0.232803 0
M  V30 28430 H 2779.24 7.34957 -1.77129 0
M  V30 28431 H 2780.51 7.76719 -0.65786 0
M  V30 28432 N 2784.74 0.872304 1.31258 0
M  V30 28433 C 2785.67 0.345595 2.30928 0
M  V30 28434 C 2786.65 -0.564772 1.6045 0
M  V30 28435 O 2787.84 -0.481301 1.88141 0
M  V30 28436 C 2784.97 -0.451762 3.44349 0
M  V30 28437 C 2783.92 0.365716 4.26435 0
M  V30 28438 C 2783.25 -0.557469 5.31786 0
M  V30 28439 C 2784.55 1.60104 4.97156 0
M  V30 28440 H 2786.24 1.17846 2.75232 0
M  V30 28441 H 2783.79 0.568117 1.32319 0
M  V30 28442 H 2785.74 -0.830782 4.13129 0
M  V30 28443 H 2784.46 -1.31816 2.98818 0
M  V30 28444 H 2783.12 0.726712 3.59325 0
M  V30 28445 H 2782.77 -1.42121 4.82505 0
M  V30 28446 H 2782.47 -0.0143845 5.87598 0
M  V30 28447 H 2783.99 -0.933281 6.03425 0
M  V30 28448 H 2785.41 1.29333 5.58521 0
M  V30 28449 H 2783.81 2.08337 5.62775 0
M  V30 28450 H 2784.88 2.35257 4.24007 0
M  V30 28451 N 2786.22 -1.44374 0.631976 0
M  V30 28452 C 2787.45 -2.061 0.143695 0
M  V30 28453 C 2787.86 -1.47308 -1.18731 0
M  V30 28454 O 2787.2 -0.590755 -1.73942 0
M  V30 28455 C 2787.26 -3.59472 -0.044547 0
M  V30 28456 C 2786.93 -4.40734 1.20843 0
M  V30 28457 C 2787.92 -4.7416 2.13232 0
M  V30 28458 C 2785.61 -4.81094 1.44408 0
M  V30 28459 C 2787.6 -5.46832 3.27496 0
M  V30 28460 C 2785.29 -5.53515 2.58969 0
M  V30 28461 C 2786.29 -5.86303 3.50339 0
M  V30 28462 O 2785.97 -6.57249 4.62903 0
M  V30 28463 H 2785.71 -0.671565 0.0773057 0
M  V30 28464 H 2788.26 -1.86218 0.86671 0
M  V30 28465 H 2786.49 -3.77847 -0.822716 0
M  V30 28466 H 2788.18 -4.02962 -0.48749 0
M  V30 28467 H 2788.95 -4.43516 1.96261 0
M  V30 28468 H 2784.82 -4.54993 0.741776 0
M  V30 28469 H 2788.37 -5.72342 3.98836 0
M  V30 28470 H 2784.27 -5.83574 2.75883 0
M  V30 28471 H 2785.03 -6.75718 4.61895 0
M  V30 28472 N 2787.7 -0.372575 -1.53133 0
M  V30 28473 C 2788.94 0.207787 -2.02336 0
M  V30 28474 C 2789.3 1.45851 -1.2548 0
M  V30 28475 O 2788.59 1.88523 -0.342005 0
M  V30 28476 C 2788.78 0.545876 -3.53207 0
M  V30 28477 C 2788.61 -0.670532 -4.44673 0
M  V30 28478 C 2787.38 -1.18473 -4.91215 0
M  V30 28479 C 2789.58 -1.53786 -4.90769 0
M  V30 28480 N 2787.56 -2.36044 -5.66707 0
M  V30 28481 C 2788.93 -2.56014 -5.64674 0
M  V30 28482 C 2790.99 -1.55991 -4.72833 0
M  V30 28483 C 2789.69 -3.60314 -6.22548 0
M  V30 28484 C 2791.72 -2.59188 -5.31578 0
M  V30 28485 C 2791.08 -3.6014 -6.05375 0
M  V30 28486 H 2787.18 0.0385646 -0.781049 0
M  V30 28487 H 2789.76 -0.518697 -1.87664 0
M  V30 28488 H 2787.93 1.24143 -3.68026 0
M  V30 28489 H 2789.67 1.11194 -3.89125 0
M  V30 28490 H 2786.42 -0.748287 -4.67651 0
M  V30 28491 H 2786.85 -2.95486 -6.09112 0
M  V30 28492 H 2791.49 -0.79295 -4.15298 0
M  V30 28493 H 2789.21 -4.37888 -6.79176 0
M  V30 28494 H 2792.79 -2.61758 -5.1959 0
M  V30 28495 H 2791.67 -4.38683 -6.5002 0
M  V30 28496 N 2789.17 1.5727 -0.101929 0
M  V30 28497 C 2790.4 1.99364 0.571724 0
M  V30 28498 C 2790.82 0.980796 1.60505 0
M  V30 28499 O 2790.18 -0.0498199 1.81232 0
M  V30 28500 C 2790.23 3.40402 1.1899 0
M  V30 28501 O 2789.33 3.41926 2.30566 0
M  V30 28502 H 2788.68 0.6481 0.144437 0
M  V30 28503 H 2791.21 2.03759 -0.185361 0
M  V30 28504 H 2791.22 3.78244 1.52955 0
M  V30 28505 H 2789.89 4.13641 0.432911 0
M  V30 28506 H 2788.47 3.15886 1.98167 0
M  V30 28507 N 2790.65 -0.171793 1.56661 0
M  V30 28508 C 2791.93 -0.915748 1.72839 0
M  V30 28509 C 2792.31 -2.00412 0.663196 0
M  V30 28510 O 2791.66 -2.26219 -0.322083 0
M  V30 28511 C 2791.87 -1.48091 3.16022 0
M  V30 28512 C 2793.22 -1.95402 3.76966 0
M  V30 28513 O 2794.24 -1.57886 3.19297 0
M  V30 28514 O 2793.1 -2.64507 4.78224 0
M  V30 28515 H 2790.19 -0.431009 0.705805 0
M  V30 28516 H 2792.74 -0.159659 1.68947 0
M  V30 28517 H 2791.51 -0.69755 3.85032 0
M  V30 28518 H 2791.13 -2.3012 3.24238 0
M  V30 28519 N 2792.13 -1.51324 -0.44033 0
M  V30 28520 C 2793.06 -1.68612 -1.55251 0
M  V30 28521 C 2794.08 -0.566839 -1.52613 0
M  V30 28522 O 2795.26 -0.841059 -1.57443 0
M  V30 28523 C 2792.36 -1.68284 -2.94166 0
M  V30 28524 C 2791.54 -2.96747 -3.21341 0
M  V30 28525 C 2790.6 -2.88647 -4.39965 0
M  V30 28526 O 2789.62 -3.62593 -4.38765 0
M  V30 28527 N 2790.82 -2.04294 -5.43364 0
M  V30 28528 H 2793.59 -2.64553 -1.40826 0
M  V30 28529 H 2791.15 -1.49172 -0.629225 0
M  V30 28530 H 2793.14 -1.60437 -3.7154 0
M  V30 28531 H 2791.71 -0.799494 -3.02203 0
M  V30 28532 H 2790.93 -3.18486 -2.32294 0
M  V30 28533 H 2792.22 -3.81791 -3.36323 0
M  V30 28534 H 2791.62 -1.43587 -5.47174 0
M  V30 28535 H 2790.18 -2.02329 -6.19602 0
M  V30 28536 N 2793.61 0.695578 -1.41419 0
M  V30 28537 C 2794.86 1.45274 -1.40498 0
M  V30 28538 C 2795.18 1.94994 -0.0149881 0
M  V30 28539 O 2794.45 1.71701 0.94317 0
M  V30 28540 H 2793.03 0.539035 -0.517156 0
M  V30 28541 H 2795.69 0.82329 -1.76658 0
M  V30 28542 H 2794.79 2.31591 -2.09218 0
M  V30 28543 N 2795.09 1.27247 0.929833 0
M  V30 28544 C 2796.32 1.16268 1.71142 0
M  V30 28545 C 2796.73 -0.280753 1.86701 0
M  V30 28546 O 2796.09 -1.19134 1.38251 0
M  V30 28547 C 2796.14 1.83916 3.11219 0
M  V30 28548 O 2795.86 3.22619 2.96392 0
M  V30 28549 C 2797.36 1.79035 4.05538 0
M  V30 28550 H 2794.58 0.404338 0.535492 0
M  V30 28551 H 2797.12 1.68079 1.16489 0
M  V30 28552 H 2795.28 1.36015 3.62738 0
M  V30 28553 H 2795.69 3.56268 3.84933 0
M  V30 28554 H 2797.17 2.30987 5.01347 0
M  V30 28555 H 2797.64 0.759244 4.32588 0
M  V30 28556 H 2798.25 2.26541 3.59943 0
M  V30 28557 N 2796.57 -1.13603 1.09235 0
M  V30 28558 C 2797.84 -1.81075 0.739665 0
M  V30 28559 C 2798.22 -1.96337 -0.77556 0
M  V30 28560 O 2797.57 -1.52991 -1.69723 0
M  V30 28561 C 2797.78 -3.16233 1.47641 0
M  V30 28562 C 2799.13 -3.9161 1.64094 0
M  V30 28563 O 2800.15 -3.2585 1.43877 0
M  V30 28564 O 2799.01 -5.09557 1.9752 0
M  V30 28565 H 2796.11 -0.783231 0.265478 0
M  V30 28566 H 2798.65 -1.20547 1.19443 0
M  V30 28567 H 2797.42 -3.00339 2.50823 0
M  V30 28568 H 2797.05 -3.84461 1.01369 0
M  V30 28569 N 2798.04 -0.879253 -1.30793 0
M  V30 28570 C 2799.27 -0.508805 -2.01062 0
M  V30 28571 C 2799.69 0.893774 -1.65509 0
M  V30 28572 O 2799.05 1.59136 -0.868644 0
M  V30 28573 C 2799.1 -0.684053 -3.54052 0
M  V30 28574 O 2798.2 0.272582 -4.11498 0
M  V30 28575 H 2797.54 -0.201202 -0.632782 0
M  V30 28576 H 2800.07 -1.18522 -1.66774 0
M  V30 28577 H 2800.08 -0.580869 -4.03844 0
M  V30 28578 H 2798.76 -1.70671 -3.79268 0
M  V30 28579 H 2797.34 0.123574 -3.72695 0
M  V30 28580 N 2799.52 1.44037 -0.639624 0
M  V30 28581 C 2800.77 2.01563 -0.147224 0
M  V30 28582 C 2801.09 1.5063 1.23837 0
M  V30 28583 O 2800.36 0.713348 1.8245 0
M  V30 28584 H 2798.94 0.745227 -0.0514362 0
M  V30 28585 H 2801.6 1.76426 -0.828236 0
M  V30 28586 H 2800.7 3.11864 -0.121412 0
M  V30 28587 N 2801 0.380691 1.52933 0
M  V30 28588 C 2802.25 -0.204545 2.01766 0
M  V30 28589 C 2802.58 -1.47177 1.26699 0
M  V30 28590 O 2801.85 -1.91045 0.36497 0
M  V30 28591 C 2802.14 -0.481206 3.5687 0
M  V30 28592 C 2801.99 0.800707 4.42616 0
M  V30 28593 C 2803.31 -1.27547 4.21212 0
M  V30 28594 H 2800.43 -0.0728674 0.733389 0
M  V30 28595 H 2803.07 0.508562 1.83067 0
M  V30 28596 H 2801.22 -1.08869 3.72934 0
M  V30 28597 H 2802.89 1.43781 4.3832 0
M  V30 28598 H 2801.13 1.41787 4.09974 0
M  V30 28599 H 2801.81 0.561888 5.49133 0
M  V30 28600 H 2804.28 -0.761442 4.09074 0
M  V30 28601 H 2803.16 -1.43779 5.29735 0
M  V30 28602 H 2803.42 -2.28827 3.78273 0
M  V30 28603 N 2802.48 -1.57214 0.110268 0
M  V30 28604 C 2803.89 -1.81995 -0.416495 0
M  V30 28605 C 2804.24 -1.02688 -1.67181 0
M  V30 28606 O 2803.36 -0.26082 -2.14822 0
M  V30 28607 C 2803.96 -3.3011 -0.762408 0
M  V30 28608 C 2802.52 -3.55603 -1.23385 0
M  V30 28609 C 2801.67 -2.76276 -0.238117 0
M  V30 28610 H 2804.62 -1.55113 0.335518 0
M  V30 28611 H 2804.64 -3.44262 -1.62062 0
M  V30 28612 H 2804.15 -3.87805 0.151415 0
M  V30 28613 H 2802.25 -3.03256 -2.16486 0
M  V30 28614 H 2802.36 -4.64209 -1.1852 0
M  V30 28615 H 2800.73 -2.44212 -0.723378 0
M  V30 28616 H 2801.51 -3.36725 0.66865 0
M  V30 28617 N 2803.96 0.163482 -1.5675 0
M  V30 28618 C 2804.92 1.1861 -1.96123 0
M  V30 28619 C 2805.92 1.36759 -0.845789 0
M  V30 28620 O 2807.11 1.34031 -1.11271 0
M  V30 28621 C 2804.24 2.54965 -2.26287 0
M  V30 28622 H 2805.43 0.848714 -2.8764 0
M  V30 28623 H 2802.99 0.406225 -1.50929 0
M  V30 28624 H 2803.72 2.93704 -1.37509 0
M  V30 28625 H 2803.51 2.43156 -3.07599 0
M  V30 28626 H 2805 3.28648 -2.57643 0
M  V30 28627 N 2805.43 1.51555 0.432299 0
M  V30 28628 C 2806.38 1.73233 1.52509 0
M  V30 28629 C 2807.35 0.574127 1.55862 0
M  V30 28630 O 2808.54 0.809123 1.72794 0
M  V30 28631 C 2805.68 1.86788 2.90179 0
M  V30 28632 C 2804.79 3.14358 2.96316 0
M  V30 28633 C 2803.92 3.18479 4.25141 0
M  V30 28634 C 2802.96 4.40343 4.25164 0
M  V30 28635 N 2802.1 4.41985 5.45522 0
M  V30 28636 H 2806.94 2.66511 1.33327 0
M  V30 28637 H 2804.48 1.32078 0.647589 0
M  V30 28638 H 2806.43 1.9263 3.70067 0
M  V30 28639 H 2805.06 0.969141 3.07908 0
M  V30 28640 H 2804.12 3.17801 2.09061 0
M  V30 28641 H 2805.43 4.04256 2.92196 0
M  V30 28642 H 2804.58 3.23264 5.13406 0
M  V30 28643 H 2803.32 2.26478 4.31925 0
M  V30 28644 H 2802.33 4.35729 3.35292 0
M  V30 28645 H 2803.55 5.33614 4.2004 0
M  V30 28646 H 2801.5 3.52856 5.53018 0
M  V30 28647 H 2801.41 5.25699 5.43302 0
M  V30 28648 H 2802.68 4.50969 6.35804 0
M  V30 28649 N 2806.91 -0.688069 1.41786 0
M  V30 28650 C 2808.16 -1.44382 1.40843 0
M  V30 28651 C 2808.47 -1.95586 0.023451 0
M  V30 28652 O 2809.68 -2.71283 -0.108599 0
M  V30 28653 C 2808.14 -2.61119 2.47679 0
M  V30 28654 C 2807.74 -2.1667 3.9212 0
M  V30 28655 C 2809.49 -3.38709 2.55883 0
M  V30 28656 C 2807.39 -3.3041 4.90493 0
M  V30 28657 H 2806.32 -0.542359 0.523797 0
M  V30 28658 H 2808.98 -0.746241 1.67641 0
M  V30 28659 H 2807.36 -3.33181 2.14024 0
M  V30 28660 H 2808.53 -1.51848 4.35062 0
M  V30 28661 H 2806.85 -1.52053 3.87645 0
M  V30 28662 H 2809.44 -4.23394 3.2656 0
M  V30 28663 H 2809.79 -3.84405 1.59807 0
M  V30 28664 H 2810.32 -2.73709 2.88667 0
M  V30 28665 H 2807.06 -2.89719 5.87999 0
M  V30 28666 H 2806.58 -3.94057 4.52194 0
M  V30 28667 H 2808.26 -3.96076 5.11598 0
M  V30 28668 N 2808.39 -1.27739 -0.923072 0
M  V30 28669 C 2809.35 -1.10898 -2.00585 0
M  V30 28670 C 2810.35 -0.0515209 -1.60717 0
M  V30 28671 O 2811.54 -0.296511 -1.71658 0
M  V30 28672 C 2808.67 -0.690776 -3.33828 0
M  V30 28673 H 2809.87 -2.07052 -2.16955 0
M  V30 28674 H 2807.42 -1.10592 -1.10449 0
M  V30 28675 H 2808.16 0.271944 -3.23158 0
M  V30 28676 H 2807.94 -1.45455 -3.64123 0
M  V30 28677 H 2809.43 -0.595324 -4.13335 0
M  V30 28678 N 2809.87 1.13022 -1.09836 0
M  V30 28679 C 2811.09 1.88769 -0.859123 0
M  V30 28680 C 2811.52 1.78792 0.58437 0
M  V30 28681 O 2810.88 1.13845 1.41099 0
M  V30 28682 C 2810.92 3.36184 -1.30433 0
M  V30 28683 O 2810.03 4.09765 -0.46544 0
M  V30 28684 H 2809.37 0.586772 -0.310797 0
M  V30 28685 H 2811.9 1.42971 -1.46357 0
M  V30 28686 H 2811.91 3.87017 -1.29157 0
M  V30 28687 H 2810.58 3.42763 -2.35556 0
M  V30 28688 H 2809.16 3.68927 -0.542879 0
M  V30 28689 N 2811.35 0.886177 1.30325 0
M  V30 28690 C 2812.31 0.358726 2.26375 0
M  V30 28691 C 2813.31 -0.499471 1.52846 0
M  V30 28692 O 2814.5 -0.306455 1.71483 0
M  V30 28693 C 2811.63 -0.488666 3.37379 0
M  V30 28694 H 2812.82 1.20686 2.74545 0
M  V30 28695 H 2810.38 0.663138 1.41535 0
M  V30 28696 H 2811.11 -1.35734 2.94528 0
M  V30 28697 H 2810.9 0.126072 3.91897 0
M  V30 28698 H 2812.39 -0.849448 4.08869 0
M  V30 28699 N 2812.82 -1.43695 0.647253 0
M  V30 28700 C 2813.77 -2.32523 -0.0599696 0
M  V30 28701 C 2814.77 -1.48272 -0.819251 0
M  V30 28702 O 2815.97 -1.64518 -0.730327 0
M  V30 28703 H 2812.35 -0.75103 -0.038174 0
M  V30 28704 H 2814.32 -2.89903 0.707029 0
M  V30 28705 C 2813.07 -3.32499 -1.01684 0
M  V30 28706 H 2812.39 -3.97349 -0.442014 0
M  V30 28707 H 2813.83 -3.97298 -1.48088 0
M  V30 28708 C 2812.29 -2.62644 -2.10997 0
M  V30 28709 O 2812.82 -2.43746 -3.19297 0
M  V30 28710 N 2811.03 -2.22116 -1.87384 0
M  V30 28711 H 2810.57 -2.37686 -0.993132 0
M  V30 28712 H 2810.53 -1.75706 -2.6072 0
M  V30 28713 N 2814.3 -0.388796 -1.52729 0
M  V30 28714 C 2815.24 0.490712 -2.22862 0
M  V30 28715 C 2816.21 1.06447 -1.22914 0
M  V30 28716 O 2817.4 1.11621 -1.51898 0
M  V30 28717 C 2814.52 1.6792 -2.94144 0
M  V30 28718 C 2813.57 1.23073 -4.08357 0
M  V30 28719 S 2814.4 0.212692 -5.35077 0
M  V30 28720 C 2815.56 1.40697 -6.09881 0
M  V30 28721 H 2815.79 -0.104839 -2.97115 0
M  V30 28722 H 2813.33 -0.172983 -1.53428 0
M  V30 28723 H 2815.28 2.36079 -3.35823 0
M  V30 28724 H 2813.94 2.24604 -2.19571 0
M  V30 28725 H 2813.14 2.1181 -4.57332 0
M  V30 28726 H 2812.74 0.628056 -3.68689 0
M  V30 28727 H 2815.03 2.33413 -6.36022 0
M  V30 28728 H 2815.97 0.958148 -7.01588 0
M  V30 28729 H 2816.38 1.62355 -5.40649 0
M  V30 28730 N 2815.78 1.57153 -0.118604 0
M  V30 28731 C 2817.06 1.86709 0.583029 0
M  V30 28732 C 2817.44 1.0197 1.84839 0
M  V30 28733 O 2816.79 0.0985074 2.28288 0
M  V30 28734 C 2817 3.37831 0.875853 0
M  V30 28735 C 2818.34 4.06422 1.22909 0
M  V30 28736 O 2819.37 3.42848 0.966127 0
M  V30 28737 O 2818.23 5.18641 1.72259 0
M  V30 28738 H 2815.32 0.772912 0.294171 0
M  V30 28739 H 2817.87 1.69008 -0.153077 0
M  V30 28740 H 2816.64 3.91294 -0.0208464 0
M  V30 28741 H 2816.26 3.60961 1.66713 0
M  V30 28742 N 2817.26 -0.155167 1.56834 0
M  V30 28743 C 2818.51 -0.86743 1.82538 0
M  V30 28744 C 2818.83 -1.82072 0.6982 0
M  V30 28745 O 2818.1 -1.93877 -0.280773 0
M  V30 28746 H 2816.68 -0.323315 0.673407 0
M  V30 28747 H 2819.34 -0.151122 1.94313 0
M  V30 28748 H 2818.44 -1.43461 2.77174 0
M  V30 28749 N 2818.74 -1.51782 -0.424256 0
M  V30 28750 C 2819.96 -1.68924 -1.19467 0
M  V30 28751 C 2820.38 -0.392162 -1.84682 0
M  V30 28752 O 2819.74 0.630524 -1.71262 0
M  V30 28753 C 2819.79 -2.8142 -2.26904 0
M  V30 28754 O 2819.51 -4.06103 -1.64354 0
M  V30 28755 C 2821.01 -3.09942 -3.1694 0
M  V30 28756 H 2818.23 -0.566518 -0.359581 0
M  V30 28757 H 2820.77 -1.98265 -0.501105 0
M  V30 28758 H 2818.93 -2.5464 -2.91954 0
M  V30 28759 H 2819.34 -4.68678 -2.3546 0
M  V30 28760 H 2820.82 -3.92207 -3.8843 0
M  V30 28761 H 2821.29 -2.22877 -3.78447 0
M  V30 28762 H 2821.9 -3.3843 -2.57575 0
M  V30 28763 N 2820.21 0.68054 -1.42149 0
M  V30 28764 C 2821.44 1.47401 -1.45903 0
M  V30 28765 C 2821.86 1.87969 -0.0701315 0
M  V30 28766 O 2821.22 1.55623 0.930117 0
M  V30 28767 C 2821.27 2.70317 -2.38666 0
M  V30 28768 O 2820.37 3.68373 -1.85406 0
M  V30 28769 H 2819.72 0.443051 -0.494573 0
M  V30 28770 H 2822.25 0.835218 -1.86776 0
M  V30 28771 H 2822.26 3.18454 -2.55051 0
M  V30 28772 H 2820.93 2.40128 -3.39575 0
M  V30 28773 H 2819.51 3.27377 -1.78546 0
M  V30 28774 N 2821.69 1.28226 0.916285 0
M  V30 28775 C 2822.94 1.15403 1.66763 0
M  V30 28776 C 2823.27 -0.297217 1.91912 0
M  V30 28777 O 2822.55 -1.21641 1.51768 0
M  V30 28778 C 2822.83 1.95033 3.02711 0
M  V30 28779 C 2822.68 3.48206 2.84732 0
M  V30 28780 C 2824 1.76376 4.03212 0
M  V30 28781 H 2821.12 0.4206 0.605198 0
M  V30 28782 H 2823.76 1.57513 1.06252 0
M  V30 28783 H 2821.91 1.59248 3.54362 0
M  V30 28784 H 2823.58 3.93884 2.40111 0
M  V30 28785 H 2821.83 3.73968 2.19842 0
M  V30 28786 H 2822.5 3.99178 3.81263 0
M  V30 28787 H 2824.97 2.076 3.60613 0
M  V30 28788 H 2823.85 2.34468 4.96302 0
M  V30 28789 H 2824.11 0.714597 4.36287 0
M  V30 28790 N 2823.17 -1.12438 1.10433 0
M  V30 28791 C 2824.12 -2.18166 0.753141 0
M  V30 28792 C 2825.09 -1.63882 -0.27052 0
M  V30 28793 O 2826.27 -1.90211 -0.149804 0
M  V30 28794 C 2823.41 -3.4457 0.191106 0
M  V30 28795 C 2822.53 -4.12908 1.27006 0
M  V30 28796 C 2821.66 -5.26962 0.669679 0
M  V30 28797 C 2820.7 -5.87166 1.72922 0
M  V30 28798 N 2819.84 -6.92633 1.1491 0
M  V30 28799 H 2824.68 -2.47553 1.65896 0
M  V30 28800 H 2822.21 -1.21539 0.828652 0
M  V30 28801 H 2824.17 -4.16921 -0.152638 0
M  V30 28802 H 2822.8 -3.15601 -0.677942 0
M  V30 28803 H 2821.85 -3.38737 1.73093 0
M  V30 28804 H 2823.17 -4.53723 2.07212 0
M  V30 28805 H 2822.32 -6.06075 0.27538 0
M  V30 28806 H 2821.06 -4.87425 -0.16381 0
M  V30 28807 H 2820.06 -5.0674 2.13294 0
M  V30 28808 H 2821.29 -6.28774 2.56555 0
M  V30 28809 H 2819.23 -6.55133 0.337071 0
M  V30 28810 H 2819.15 -7.32046 1.88799 0
M  V30 28811 H 2820.42 -7.75574 0.781346 0
M  V30 28812 N 2824.65 -0.893076 -1.29853 0
M  V30 28813 C 2825.88 -0.530823 -1.99975 0
M  V30 28814 C 2826.29 0.88277 -1.66891 0
M  V30 28815 O 2825.65 1.58172 -0.91038 0
M  V30 28816 C 2825.7 -0.705649 -3.54546 0
M  V30 28817 O 2825.42 -2.0636 -3.86455 0
M  V30 28818 C 2826.92 -0.347464 -4.41936 0
M  V30 28819 H 2824.14 -0.20435 -0.639126 0
M  V30 28820 H 2826.69 -1.2006 -1.65547 0
M  V30 28821 H 2824.84 -0.0831366 -3.87311 0
M  V30 28822 H 2825.26 -2.08812 -4.81142 0
M  V30 28823 H 2826.73 -0.520654 -5.49539 0
M  V30 28824 H 2827.21 0.715063 -4.3334 0
M  V30 28825 H 2827.81 -0.94664 -4.14631 0
M  V30 28826 N 2826.13 1.4335 -0.654865 0
M  V30 28827 C 2827.06 2.3349 0.0221399 0
M  V30 28828 C 2828.04 1.49563 0.810246 0
M  V30 28829 O 2829.22 1.78222 0.771395 0
M  V30 28830 C 2826.35 3.32948 0.988059 0
M  V30 28831 C 2825.31 4.26876 0.309951 0
M  V30 28832 C 2824.63 5.16386 1.38743 0
M  V30 28833 C 2825.93 5.16157 -0.798679 0
M  V30 28834 H 2827.63 2.90349 -0.730622 0
M  V30 28835 H 2825.17 1.39611 -0.352798 0
M  V30 28836 H 2827.13 3.94907 1.4706 0
M  V30 28837 H 2825.85 2.7435 1.772 0
M  V30 28838 H 2824.51 3.66284 -0.152162 0
M  V30 28839 H 2824.16 4.54125 2.16285 0
M  V30 28840 H 2823.86 5.8005 0.938949 0
M  V30 28841 H 2825.38 5.81218 1.8713 0
M  V30 28842 H 2826.8 5.71915 -0.398226 0
M  V30 28843 H 2825.19 5.8855 -1.17173 0
M  V30 28844 H 2826.26 4.55748 -1.65596 0
M  V30 28845 N 2827.61 0.39689 1.52521 0
M  V30 28846 C 2828.85 -0.182862 2.01673 0
M  V30 28847 C 2829.18 -1.46179 1.28305 0
M  V30 28848 O 2828.44 -1.9209 0.374152 0
M  V30 28849 C 2828.73 -0.489614 3.5403 0
M  V30 28850 C 2828.4 0.698659 4.45454 0
M  V30 28851 C 2827.06 1.02463 4.70165 0
M  V30 28852 C 2829.41 1.49325 4.99351 0
M  V30 28853 C 2826.74 2.1466 5.4602 0
M  V30 28854 C 2829.09 2.60589 5.76434 0
M  V30 28855 C 2827.76 2.93685 5.99421 0
M  V30 28856 H 2827.03 -0.0669141 0.737973 0
M  V30 28857 H 2829.68 0.535796 1.83852 0
M  V30 28858 H 2827.98 -1.28969 3.69965 0
M  V30 28859 H 2829.68 -0.95095 3.89561 0
M  V30 28860 H 2826.27 0.4346 4.26391 0
M  V30 28861 H 2830.45 1.25465 4.80179 0
M  V30 28862 H 2825.71 2.40664 5.62042 0
M  V30 28863 H 2829.88 3.22555 6.17196 0
M  V30 28864 H 2827.51 3.80742 6.57981 0
M  V30 28865 N 2829.08 -1.57088 0.126936 0
M  V30 28866 C 2830.31 -1.9982 -0.536635 0
M  V30 28867 C 2830.73 -1.00676 -1.59718 0
M  V30 28868 O 2830.08 -0.000779444 -1.825 0
M  V30 28869 C 2830.13 -3.42533 -1.15557 0
M  V30 28870 O 2829.86 -4.37884 -0.137406 0
M  V30 28871 C 2831.36 -4.00438 -1.90169 0
M  V30 28872 H 2828.58 -0.655926 -0.141431 0
M  V30 28873 H 2831.12 -2.0336 0.215613 0
M  V30 28874 H 2829.28 -3.39907 -1.85855 0
M  V30 28875 H 2829.69 -5.21192 -0.588137 0
M  V30 28876 H 2831.16 -5.02353 -2.28792 0
M  V30 28877 H 2831.64 -3.40022 -2.77996 0
M  V30 28878 H 2832.25 -4.06634 -1.24615 0
M  V30 28879 N 2830.56 0.146848 -1.56914 0
M  V30 28880 C 2831.81 0.857738 -1.82995 0
M  V30 28881 C 2832.13 1.81699 -0.707846 0
M  V30 28882 O 2831.4 1.94024 0.270487 0
M  V30 28883 H 2829.98 0.319739 -0.675112 0
M  V30 28884 H 2832.64 0.140815 -1.94391 0
M  V30 28885 H 2831.74 1.41989 -2.77931 0
M  V30 28886 N 2832.04 1.52005 0.4162 0
M  V30 28887 C 2832.99 1.75443 1.52717 0
M  V30 28888 C 2833.98 0.621316 1.57594 0
M  V30 28889 O 2835.19 0.8032 1.61086 0
M  V30 28890 H 2831.56 0.554691 0.507762 0
M  V30 28891 H 2833.53 2.6853 1.30131 0
M  V30 28892 C 2832.28 1.91576 2.90162 0
M  V30 28893 H 2831.61 2.78183 2.87149 0
M  V30 28894 H 2833.05 2.11978 3.67207 0
M  V30 28895 C 2831.5 0.681 3.29945 0
M  V30 28896 O 2832.03 -0.154457 4.01403 0
M  V30 28897 N 2830.24 0.518944 2.85929 0
M  V30 28898 H 2829.79 1.1999 2.27948 0
M  V30 28899 H 2829.75 -0.30593 3.12908 0
M  V30 28900 N 2833.52 -0.672992 1.42508 0
M  V30 28901 C 2834.45 -1.79848 1.48919 0
M  V30 28902 C 2835.43 -1.66552 0.345595 0
M  V30 28903 O 2836.61 -1.85946 0.560148 0
M  V30 28904 C 2833.74 -3.18156 1.39263 0
M  V30 28905 C 2832.7 -3.46189 2.51668 0
M  V30 28906 C 2832.02 -4.8409 2.2707 0
M  V30 28907 C 2833.32 -3.42902 3.93974 0
M  V30 28908 H 2835.02 -1.74741 2.43117 0
M  V30 28909 H 2832.56 -0.839267 1.17014 0
M  V30 28910 H 2834.52 -3.96627 1.42356 0
M  V30 28911 H 2833.24 -3.23945 0.415599 0
M  V30 28912 H 2831.9 -2.7008 2.47896 0
M  V30 28913 H 2831.55 -4.86532 1.27656 0
M  V30 28914 H 2831.25 -5.03809 3.02407 0
M  V30 28915 H 2832.77 -5.64843 2.31915 0
M  V30 28916 H 2834.19 -4.1134 3.9934 0
M  V30 28917 H 2832.58 -3.74157 4.69176 0
M  V30 28918 H 2833.65 -2.41442 4.20516 0
M  V30 28919 N 2835 -1.2871 -0.909472 0
M  V30 28920 C 2835.91 -1.14865 -2.04556 0
M  V30 28921 C 2836.92 -0.0741927 -1.73842 0
M  V30 28922 O 2838.1 -0.284335 -1.99383 0
M  V30 28923 C 2835.16 -0.816207 -3.36955 0
M  V30 28924 C 2834.22 -1.97347 -3.81251 0
M  V30 28925 C 2833.46 -1.6568 -5.07332 0
M  V30 28926 O 2833.68 -0.573152 -5.67513 0
M  V30 28927 O 2832.61 -2.50177 -5.47444 0
M  V30 28928 H 2836.44 -2.10247 -2.19157 0
M  V30 28929 H 2834.02 -1.0807 -1.03157 0
M  V30 28930 H 2835.91 -0.644946 -4.16435 0
M  V30 28931 H 2834.58 0.107926 -3.2352 0
M  V30 28932 H 2833.49 -2.19991 -3.0258 0
M  V30 28933 H 2834.82 -2.87846 -3.99256 0
M  V30 28934 N 2836.47 1.1185 -1.11028 0
M  V30 28935 C 2837.42 2.15866 -0.733874 0
M  V30 28936 C 2838.41 1.58786 0.259982 0
M  V30 28937 O 2839.6 1.7687 0.067759 0
M  V30 28938 C 2836.73 3.42859 -0.174008 0
M  V30 28939 C 2835.81 4.06908 -1.19527 0
M  V30 28940 N 2836.21 4.45877 -2.38805 0
M  V30 28941 C 2834.5 4.33772 -1.03722 0
M  V30 28942 C 2835.2 4.96002 -3.03903 0
M  V30 28943 N 2834.18 4.9189 -2.31397 0
M  V30 28944 H 2837.98 2.4377 -1.64175 0
M  V30 28945 H 2835.5 1.2882 -0.988899 0
M  V30 28946 H 2837.49 4.16745 0.113763 0
M  V30 28947 H 2836.15 3.16422 0.728513 0
M  V30 28948 H 2837.16 4.38047 -2.76289 0
M  V30 28949 H 2833.84 4.17064 -0.190767 0
M  V30 28950 H 2835.23 5.35819 -4.05398 0
M  V30 28951 N 2837.95 0.89995 1.29378 0
M  V30 28952 C 2838.88 0.3945 2.30143 0
M  V30 28953 C 2839.86 -0.530611 1.61612 0
M  V30 28954 O 2841.05 -0.441286 1.8912 0
M  V30 28955 C 2838.18 -0.378619 3.4523 0
M  V30 28956 C 2837.13 0.456087 4.25563 0
M  V30 28957 C 2836.46 -0.444544 5.32849 0
M  V30 28958 C 2837.76 1.70613 4.93648 0
M  V30 28959 H 2839.45 1.23657 2.7267 0
M  V30 28960 H 2837 0.596057 1.31085 0
M  V30 28961 H 2838.95 -0.742964 4.14799 0
M  V30 28962 H 2837.67 -1.25448 3.01547 0
M  V30 28963 H 2836.33 0.802767 3.57703 0
M  V30 28964 H 2835.98 -1.31854 4.85411 0
M  V30 28965 H 2835.68 0.110257 5.87497 0
M  V30 28966 H 2837.21 -0.805076 6.05269 0
M  V30 28967 H 2838.62 1.41151 5.55652 0
M  V30 28968 H 2837.02 2.20227 5.58229 0
M  V30 28969 H 2838.09 2.44197 4.18922 0
M  V30 28970 N 2839.43 -1.43001 0.662458 0
M  V30 28971 C 2840.34 -2.34588 -0.0238786 0
M  V30 28972 C 2841.36 -1.54403 -0.802228 0
M  V30 28973 O 2842.53 -1.8702 -0.747368 0
M  V30 28974 C 2839.6 -3.32795 -0.97204 0
M  V30 28975 C 2838.66 -4.28881 -0.189597 0
M  V30 28976 C 2837.89 -5.22396 -1.0926 0
M  V30 28977 O 2838.11 -5.20551 -2.332 0
M  V30 28978 O 2837.05 -5.99289 -0.560031 0
M  V30 28979 H 2840.87 -2.9479 0.730223 0
M  V30 28980 H 2838.46 -1.43297 0.42266 0
M  V30 28981 H 2840.34 -3.9316 -1.51669 0
M  V30 28982 H 2839.02 -2.75082 -1.70621 0
M  V30 28983 H 2837.92 -3.71968 0.398859 0
M  V30 28984 H 2839.26 -4.896 0.505196 0
M  V30 28985 N 2840.91 -0.404973 -1.52308 0
M  V30 28986 C 2842.15 0.171743 -2.03677 0
M  V30 28987 C 2842.51 1.42731 -1.28421 0
M  V30 28988 O 2843.71 2.08219 -1.69995 0
M  V30 28989 C 2841.98 0.417639 -3.54951 0
M  V30 28990 S 2843.54 0.962397 -4.28116 0
M  V30 28991 H 2840.36 0.0469787 -0.709446 0
M  V30 28992 H 2842.96 -0.556934 -1.87399 0
M  V30 28993 H 2841.67 -0.503022 -4.07306 0
M  V30 28994 H 2841.2 1.17431 -3.75465 0
M  V30 28995 H 2843.21 2.24334 -4.42593 0
M  V30 28996 N 2842.39 1.57018 -0.135265 0
M  V30 28997 C 2843.63 1.96032 0.519529 0
M  V30 28998 C 2843.97 1.01958 1.65282 0
M  V30 28999 O 2843.24 0.0597611 1.94408 0
M  V30 29000 C 2843.52 3.4485 1.03684 0
M  V30 29001 C 2843.38 4.49701 -0.0941544 0
M  V30 29002 C 2844.7 3.9589 1.92247 0
M  V30 29003 H 2841.81 0.712782 0.187378 0
M  V30 29004 H 2844.46 1.8879 -0.214119 0
M  V30 29005 H 2842.61 3.51153 1.66203 0
M  V30 29006 H 2844.28 4.55486 -0.73008 0
M  V30 29007 H 2842.52 4.27179 -0.754999 0
M  V30 29008 H 2843.19 5.51133 0.309322 0
M  V30 29009 H 2845.67 3.91993 1.39574 0
M  V30 29010 H 2844.54 5.00506 2.25355 0
M  V30 29011 H 2844.81 3.37548 2.85507 0
M  V30 29012 N 2843.86 -0.138524 1.5699 0
M  V30 29013 C 2845.09 -0.864404 1.87978 0
M  V30 29014 C 2845.51 -1.7435 0.724403 0
M  V30 29015 O 2844.86 -1.79924 -0.305544 0
M  V30 29016 C 2844.92 -1.71409 3.18279 0
M  V30 29017 O 2844.64 -0.870412 4.29366 0
M  V30 29018 C 2846.14 -2.54682 3.62839 0
M  V30 29019 H 2843.36 -0.249517 0.622882 0
M  V30 29020 H 2845.9 -0.128769 2.04094 0
M  V30 29021 H 2844.06 -2.40269 3.03891 0
M  V30 29022 H 2844.47 -1.45457 5.03927 0
M  V30 29023 H 2845.94 -3.09862 4.56825 0
M  V30 29024 H 2846.42 -3.31122 2.88539 0
M  V30 29025 H 2847.03 -1.91098 3.7995 0
M  V30 29026 N 2845.34 -1.52224 -0.408133 0
M  V30 29027 C 2846.27 -1.78598 -1.50416 0
M  V30 29028 C 2847.25 -0.637002 -1.57722 0
M  V30 29029 O 2848.44 -0.882695 -1.7298 0
M  V30 29030 C 2845.57 -1.93756 -2.88229 0
M  V30 29031 C 2844.52 -3.09358 -2.95773 0
M  V30 29032 C 2843.85 -3.0974 -4.3585 0
M  V30 29033 C 2845.15 -4.48797 -2.67167 0
M  V30 29034 H 2846.84 -2.70376 -1.28596 0
M  V30 29035 H 2844.39 -1.30103 -0.617198 0
M  V30 29036 H 2846.34 -2.10789 -3.64892 0
M  V30 29037 H 2845.07 -0.986497 -3.11345 0
M  V30 29038 H 2843.72 -2.92076 -2.21556 0
M  V30 29039 H 2843.37 -2.12354 -4.55977 0
M  V30 29040 H 2843.07 -3.87385 -4.41822 0
M  V30 29041 H 2844.6 -3.28904 -5.14446 0
M  V30 29042 H 2846.01 -4.66279 -3.33552 0
M  V30 29043 H 2844.41 -5.28367 -2.84514 0
M  V30 29044 H 2845.48 -4.56825 -1.62601 0
M  V30 29045 N 2846.82 0.665425 -1.42863 0
M  V30 29046 C 2848.1 1.42195 -1.34313 0
M  V30 29047 C 2848.48 2.11095 0.0149894 0
M  V30 29048 O 2847.83 2.0392 1.03097 0
M  V30 29049 C 2848.04 2.41669 -2.51787 0
M  V30 29050 C 2849.38 3.06034 -2.94327 0
M  V30 29051 O 2850.41 2.51997 -2.51746 0
M  V30 29052 O 2849.27 4.03978 -3.68054 0
M  V30 29053 H 2846.36 0.634704 -0.53017 0
M  V30 29054 H 2848.91 0.693359 -1.54889 0
M  V30 29055 H 2847.68 1.89621 -3.42286 0
M  V30 29056 H 2847.3 3.21997 -2.33247 0
M  V30 29057 N 2848.3 1.29191 0.902633 0
M  V30 29058 C 2849.55 1.16365 1.64748 0
M  V30 29059 C 2849.86 -0.284648 1.93518 0
M  V30 29060 O 2851.07 -0.534182 2.66193 0
M  V30 29061 C 2849.52 2.03499 2.96844 0
M  V30 29062 C 2849.13 3.53135 2.75681 0
M  V30 29063 C 2850.87 1.99389 3.74759 0
M  V30 29064 C 2848.78 4.32382 4.03485 0
M  V30 29065 H 2847.71 0.431915 0.618034 0
M  V30 29066 H 2850.36 1.53808 1.00077 0
M  V30 29067 H 2848.74 1.58922 3.62712 0
M  V30 29068 H 2849.92 4.05743 2.18424 0
M  V30 29069 H 2848.23 3.58885 2.11165 0
M  V30 29070 H 2850.83 2.55859 4.69511 0
M  V30 29071 H 2851.17 0.973194 4.04765 0
M  V30 29072 H 2851.71 2.41994 3.15727 0
M  V30 29073 H 2848.45 5.35077 3.78646 0
M  V30 29074 H 2847.97 3.84543 4.60311 0
M  V30 29075 H 2849.64 4.42889 4.71654 0
M  V30 29076 N 2849.78 -1.1126 1.1162 0
M  V30 29077 C 2850.69 -2.20934 0.789019 0
M  V30 29078 C 2851.7 -1.72621 -0.21864 0
M  V30 29079 O 2852.88 -2.01327 -0.0543472 0
M  V30 29080 C 2849.94 -3.45875 0.239075 0
M  V30 29081 C 2849 -4.08966 1.30558 0
M  V30 29082 C 2848.24 -5.27943 0.78178 0
M  V30 29083 O 2848.46 -5.69082 -0.387505 0
M  V30 29084 O 2847.39 -5.81668 1.54744 0
M  V30 29085 H 2851.22 -2.51336 1.70481 0
M  V30 29086 H 2848.81 -1.19832 0.892224 0
M  V30 29087 H 2850.69 -4.21353 -0.0631571 0
M  V30 29088 H 2849.36 -3.17119 -0.649398 0
M  V30 29089 H 2848.27 -3.35211 1.66085 0
M  V30 29090 H 2849.6 -4.41905 2.16751 0
M  V30 29091 N 2851.25 -0.906798 -1.28899 0
M  V30 29092 C 2852.16 -0.394747 -2.31255 0
M  V30 29093 C 2853.18 0.514092 -1.66232 0
M  V30 29094 O 2854.36 0.401959 -1.97348 0
M  V30 29095 C 2851.42 0.363131 -3.44793 0
M  V30 29096 C 2850.48 -0.578087 -4.2539 0
M  V30 29097 C 2849.72 0.143717 -5.33506 0
M  V30 29098 O 2849.94 1.36656 -5.53788 0
M  V30 29099 O 2848.87 -0.517406 -5.99672 0
M  V30 29100 H 2852.7 -1.2441 -2.77048 0
M  V30 29101 H 2850.28 -0.67137 -1.33465 0
M  V30 29102 H 2852.17 0.79143 -4.13901 0
M  V30 29103 H 2850.84 1.18843 -3.01095 0
M  V30 29104 H 2849.75 -1.05564 -3.58897 0
M  V30 29105 H 2851.08 -1.37 -4.72749 0
M  V30 29106 N 2852.73 1.42648 -0.670032 0
M  V30 29107 C 2853.66 2.29145 0.0501343 0
M  V30 29108 C 2854.68 1.43423 0.770306 0
M  V30 29109 O 2855.87 1.67191 0.625259 0
M  V30 29110 C 2852.97 3.20737 1.09458 0
M  V30 29111 C 2852.14 4.35087 0.449183 0
M  V30 29112 C 2851.2 5.07433 1.39276 0
M  V30 29113 O 2850.22 5.62121 0.894898 0
M  V30 29114 N 2851.43 5.12501 2.72622 0
M  V30 29115 H 2854.19 2.91593 -0.692363 0
M  V30 29116 H 2851.75 1.53521 -0.514083 0
M  V30 29117 H 2853.74 3.66002 1.72698 0
M  V30 29118 H 2852.31 2.59774 1.73886 0
M  V30 29119 H 2851.53 3.92528 -0.362642 0
M  V30 29120 H 2852.82 5.088 -0.00063421 0
M  V30 29121 H 2852.22 4.69472 3.15614 0
M  V30 29122 H 2850.78 5.61428 3.31122 0
M  V30 29123 N 2854.21 0.413044 1.52091 0
M  V30 29124 C 2855.16 -0.410518 2.2712 0
M  V30 29125 C 2856.13 -1.03772 1.29694 0
M  V30 29126 O 2857.31 -1.06125 1.58563 0
M  V30 29127 C 2854.45 -1.51912 3.09866 0
M  V30 29128 C 2853.57 -0.912454 4.22254 0
M  V30 29129 C 2852.7 -1.99408 4.92351 0
M  V30 29130 C 2851.74 -1.36455 5.96696 0
M  V30 29131 N 2850.88 -2.38649 6.60296 0
M  V30 29132 H 2855.72 0.235713 2.97066 0
M  V30 29133 H 2853.25 0.128081 1.46541 0
M  V30 29134 H 2855.21 -2.17289 3.56148 0
M  V30 29135 H 2853.84 -2.13533 2.42082 0
M  V30 29136 H 2852.89 -0.14763 3.80113 0
M  V30 29137 H 2854.21 -0.412629 4.9709 0
M  V30 29138 H 2853.36 -2.72502 5.42059 0
M  V30 29139 H 2852.1 -2.52757 4.17091 0
M  V30 29140 H 2851.1 -0.618964 5.46305 0
M  V30 29141 H 2852.33 -0.838708 6.73901 0
M  V30 29142 H 2850.28 -2.91124 5.87863 0
M  V30 29143 H 2850.19 -1.9349 7.3082 0
M  V30 29144 H 2851.46 -3.11301 7.14641 0
M  V30 29145 N 2855.69 -1.56945 0.143591 0
M  V30 29146 C 2856.62 -2.19602 -0.793561 0
M  V30 29147 C 2857.6 -1.14323 -1.25953 0
M  V30 29148 O 2858.79 -1.42654 -1.31771 0
M  V30 29149 C 2855.92 -2.81492 -2.03419 0
M  V30 29150 C 2854.87 -3.92568 -1.70512 0
M  V30 29151 C 2854.2 -4.41379 -3.0181 0
M  V30 29152 C 2855.5 -5.13506 -0.9544 0
M  V30 29153 H 2857.19 -2.98168 -0.271371 0
M  V30 29154 H 2854.74 -1.4342 -0.129085 0
M  V30 29155 H 2856.69 -3.23991 -2.69458 0
M  V30 29156 H 2855.41 -2.00253 -2.58005 0
M  V30 29157 H 2854.07 -3.50682 -1.06853 0
M  V30 29158 H 2853.72 -3.56965 -3.54379 0
M  V30 29159 H 2853.42 -5.16296 -2.80556 0
M  V30 29160 H 2854.94 -4.86546 -3.68925 0
M  V30 29161 H 2856.36 -5.52871 -1.51681 0
M  V30 29162 H 2854.75 -5.94165 -0.84193 0
M  V30 29163 H 2855.82 -4.84869 0.0544885 0
M  V30 29164 N 2857.17 0.130197 -1.57061 0
M  V30 29165 C 2858.4 0.853184 -1.8816 0
M  V30 29166 C 2858.81 1.74478 -0.731705 0
M  V30 29167 O 2858.15 1.81116 0.307003 0
M  V30 29168 C 2858.21 1.7478 -3.14153 0
M  V30 29169 C 2857.87 1.03165 -4.45203 0
M  V30 29170 C 2858.87 0.377667 -5.18526 0
M  V30 29171 C 2856.56 1.01616 -4.91914 0
M  V30 29172 C 2858.55 -0.282235 -6.36775 0
M  V30 29173 C 2856.24 0.352448 -6.10083 0
M  V30 29174 C 2857.24 -0.295603 -6.8236 0
M  V30 29175 O 2856.92 -0.948746 -7.98282 0
M  V30 29176 H 2856.66 0.251186 -0.6276 0
M  V30 29177 H 2859.21 0.122564 -2.05034 0
M  V30 29178 H 2857.44 2.51978 -2.93333 0
M  V30 29179 H 2859.13 2.34422 -3.31363 0
M  V30 29180 H 2859.89 0.381332 -4.83499 0
M  V30 29181 H 2855.77 1.50999 -4.35569 0
M  V30 29182 H 2859.32 -0.788647 -6.93128 0
M  V30 29183 H 2855.21 0.346508 -6.44569 0
M  V30 29184 H 2855.98 -0.852097 -8.14053 0
M  V30 29185 N 2858.65 1.52438 0.400055 0
M  V30 29186 C 2859.89 1.68143 1.14453 0
M  V30 29187 C 2860.25 0.410755 1.87964 0
M  V30 29188 O 2859.54 -0.595163 1.82122 0
M  V30 29189 C 2859.73 2.84812 2.15909 0
M  V30 29190 C 2859.56 4.23103 1.52362 0
M  V30 29191 C 2858.33 4.88492 1.29243 0
M  V30 29192 C 2860.53 5.04884 0.979633 0
M  V30 29193 N 2858.51 6.10793 0.616848 0
M  V30 29194 C 2859.88 6.18497 0.431481 0
M  V30 29195 C 2861.94 4.90152 0.874973 0
M  V30 29196 C 2860.64 7.1899 -0.211084 0
M  V30 29197 C 2862.67 5.90887 0.246247 0
M  V30 29198 C 2862.03 7.03798 -0.291186 0
M  V30 29199 H 2858.13 0.668851 0.405169 0
M  V30 29200 H 2860.71 1.89764 0.435622 0
M  V30 29201 H 2858.88 2.6479 2.84149 0
M  V30 29202 H 2860.62 2.89508 2.82785 0
M  V30 29203 H 2857.37 4.47015 1.56443 0
M  V30 29204 H 2857.79 6.76355 0.295417 0
M  V30 29205 H 2862.44 4.03076 1.27629 0
M  V30 29206 H 2860.15 8.05684 -0.624442 0
M  V30 29207 H 2863.74 5.81561 0.166663 0
M  V30 29208 H 2862.62 7.8041 -0.770018 0
M  V30 29209 N 2860.12 -0.657839 1.43214 0
M  V30 29210 C 2861.09 -1.75272 1.4769 0
M  V30 29211 C 2862.09 -1.56667 0.362207 0
M  V30 29212 O 2863.28 -1.62649 0.623762 0
M  V30 29213 C 2860.41 -3.14095 1.32502 0
M  V30 29214 H 2861.6 -1.72685 2.45193 0
M  V30 29215 H 2859.15 -0.869065 1.29911 0
M  V30 29216 H 2859.89 -3.22297 0.359887 0
M  V30 29217 H 2859.67 -3.29004 2.13304 0
M  V30 29218 H 2861.16 -3.93944 1.38556 0
M  V30 29219 N 2861.6 -1.29668 -0.895769 0
M  V30 29220 C 2862.85 -1.18042 -1.64906 0
M  V30 29221 C 2863.18 0.266648 -1.92361 0
M  V30 29222 O 2862.46 1.19211 -1.53684 0
M  V30 29223 C 2862.74 -1.99824 -2.9957 0
M  V30 29224 C 2862.59 -3.52692 -2.79156 0
M  V30 29225 C 2863.91 -1.82768 -4.00355 0
M  V30 29226 H 2861.03 -0.430175 -0.59843 0
M  V30 29227 H 2863.67 -1.59184 -1.03733 0
M  V30 29228 H 2861.82 -1.64865 -3.51784 0
M  V30 29229 H 2863.49 -3.97654 -2.33814 0
M  V30 29230 H 2861.74 -3.77418 -2.13864 0
M  V30 29231 H 2862.41 -4.05193 -3.74864 0
M  V30 29232 H 2864.88 -2.1331 -3.57265 0
M  V30 29233 H 2863.76 -2.42334 -4.92509 0
M  V30 29234 H 2864.02 -0.783916 -4.35094 0
M  V30 29235 N 2863.08 1.10667 -1.12208 0
M  V30 29236 C 2864.31 1.86364 -0.898668 0
M  V30 29237 C 2864.72 1.80552 0.551959 0
M  V30 29238 O 2864.08 1.19252 1.3815 0
M  V30 29239 C 2864.13 3.34859 -1.36205 0
M  V30 29240 O 2863.85 3.40568 -2.75582 0
M  V30 29241 C 2865.35 4.27438 -1.17522 0
M  V30 29242 H 2862.57 0.589078 -0.321291 0
M  V30 29243 H 2865.12 1.39915 -1.49144 0
M  V30 29244 H 2863.27 3.78783 -0.812556 0
M  V30 29245 H 2863.69 4.33091 -2.95858 0
M  V30 29246 H 2865.16 5.29839 -1.54836 0
M  V30 29247 H 2865.64 4.39048 -0.115563 0
M  V30 29248 H 2866.24 3.89316 -1.7121 0
M  V30 29249 N 2864.56 0.913621 1.28416 0
M  V30 29250 C 2865.81 0.545628 1.94595 0
M  V30 29251 C 2866.13 -0.913637 1.72272 0
M  V30 29252 O 2865.4 -1.64593 1.06236 0
M  V30 29253 H 2863.98 0.198796 0.720062 0
M  V30 29254 H 2866.64 1.16295 1.56402 0
M  V30 29255 H 2865.73 0.739965 3.03201 0
M  V30 29256 N 2866.04 -1.4229 0.677588 0
M  V30 29257 C 2867.45 -1.55773 0.347403 0
M  V30 29258 C 2867.65 -1.65669 -1.147 0
M  V30 29259 O 2866.71 -1.62515 -1.93249 0
M  V30 29260 C 2868.02 -2.8063 1.08016 0
M  V30 29261 C 2869.57 -2.94405 1.06276 0
M  V30 29262 C 2870.04 -4.22126 1.7769 0
M  V30 29263 N 2871.53 -4.29044 1.74572 0
M  V30 29264 C 2872.27 -5.2669 2.26683 0
M  V30 29265 N 2871.77 -6.30472 2.87187 0
M  V30 29266 N 2873.56 -5.18507 2.17041 0
M  V30 29267 H 2865.71 -1.34111 1.64706 0
M  V30 29268 H 2867.97 -0.645755 0.694049 0
M  V30 29269 H 2867.68 -2.79465 2.13523 0
M  V30 29270 H 2867.55 -3.71607 0.64718 0
M  V30 29271 H 2869.94 -2.95096 0.0160177 0
M  V30 29272 H 2870.02 -2.04651 1.53465 0
M  V30 29273 H 2869.66 -4.22196 2.82334 0
M  V30 29274 H 2869.59 -5.1082 1.27949 0
M  V30 29275 H 2872.09 -3.54673 1.30443 0
M  V30 29276 H 2872.4 -7.0134 3.24564 0
M  V30 29277 H 2870.74 -6.31026 2.91258 0
M  V30 29278 H 2873.93 -4.3635 1.69459 0
M  V30 29279 H 2874.11 -5.94442 2.57959 0
M  V30 29280 N 2867.51 -0.421104 -1.5187 0
M  V30 29281 C 2868.76 0.150457 -2.01539 0
M  V30 29282 C 2869.08 1.4462 -1.30805 0
M  V30 29283 O 2868.35 1.9095 -0.437601 0
M  V30 29284 H 2866.93 0.058591 -0.744699 0
M  V30 29285 H 2869.59 -0.560092 -1.86679 0
M  V30 29286 H 2868.69 0.338013 -3.10264 0
M  V30 29287 N 2868.99 1.56866 -0.151912 0
M  V30 29288 C 2870.24 1.96573 0.498707 0
M  V30 29289 C 2870.57 1.03705 1.64192 0
M  V30 29290 O 2869.85 0.0803774 1.94334 0
M  V30 29291 C 2870.13 3.4593 1.00021 0
M  V30 29292 C 2869.98 4.49576 -0.141846 0
M  V30 29293 C 2871.3 3.97907 1.88037 0
M  V30 29294 H 2868.42 0.71473 0.179807 0
M  V30 29295 H 2871.06 1.88552 -0.23413 0
M  V30 29296 H 2869.21 3.52896 1.6247 0
M  V30 29297 H 2870.88 4.54686 -0.778349 0
M  V30 29298 H 2869.13 4.26355 -0.800265 0
M  V30 29299 H 2869.8 5.5143 0.25085 0
M  V30 29300 H 2872.27 3.93451 1.35409 0
M  V30 29301 H 2871.15 5.02868 2.20034 0
M  V30 29302 H 2871.41 3.40557 2.8191 0
M  V30 29303 N 2870.47 -0.121866 1.57128 0
M  V30 29304 C 2871.72 -0.828716 1.83889 0
M  V30 29305 C 2872.03 -1.81179 0.737119 0
M  V30 29306 O 2873.24 -2.56462 0.891052 0
M  V30 29307 C 2871.69 -1.52449 3.26017 0
M  V30 29308 C 2871.3 -0.582552 4.44196 0
M  V30 29309 C 2873.05 -2.21665 3.62029 0
M  V30 29310 C 2870.95 -1.28139 5.77351 0
M  V30 29311 H 2869.88 -0.313226 0.685861 0
M  V30 29312 H 2872.53 -0.0814529 1.83319 0
M  V30 29313 H 2870.92 -2.31828 3.21048 0
M  V30 29314 H 2872.09 0.17781 4.60457 0
M  V30 29315 H 2870.41 0.00248548 4.164 0
M  V30 29316 H 2873 -2.74635 4.58781 0
M  V30 29317 H 2873.35 -2.99331 2.89321 0
M  V30 29318 H 2873.88 -1.49177 3.6877 0
M  V30 29319 H 2870.62 -0.546074 6.53221 0
M  V30 29320 H 2870.14 -2.01384 5.64982 0
M  V30 29321 H 2871.82 -1.81538 6.2101 0
M  V30 29322 N 2871.95 -1.52648 -0.391965 0
M  V30 29323 C 2872.86 -1.80133 -1.50297 0
M  V30 29324 C 2873.87 -0.68791 -1.59824 0
M  V30 29325 O 2875.05 -0.97518 -1.76216 0
M  V30 29326 C 2872.12 -1.96176 -2.8586 0
M  V30 29327 C 2871.18 -3.2009 -2.86078 0
M  V30 29328 C 2870.41 -3.35358 -4.15175 0
M  V30 29329 O 2870.63 -2.555 -5.09977 0
M  V30 29330 O 2869.57 -4.28598 -4.22596 0
M  V30 29331 H 2873.39 -2.74469 -1.30002 0
M  V30 29332 H 2870.98 -1.37703 -0.579515 0
M  V30 29333 H 2872.86 -2.08452 -3.66232 0
M  V30 29334 H 2871.53 -1.0503 -3.06187 0
M  V30 29335 H 2870.44 -3.13259 -2.04498 0
M  V30 29336 H 2871.77 -4.11073 -2.70703 0
M  V30 29337 N 2873.43 0.650235 -1.43561 0
M  V30 29338 C 2874.84 0.966246 -1.27027 0
M  V30 29339 C 2875.04 2.00582 -0.192152 0
M  V30 29340 O 2874.1 2.48839 0.428415 0
M  V30 29341 C 2875.41 1.44767 -2.63558 0
M  V30 29342 C 2876.96 1.56416 -2.71114 0
M  V30 29343 C 2877.43 2.07949 -4.0807 0
M  V30 29344 N 2878.93 2.15247 -4.1015 0
M  V30 29345 C 2879.66 2.56249 -5.12956 0
M  V30 29346 N 2879.16 2.96526 -6.26134 0
M  V30 29347 N 2880.95 2.56215 -5.0031 0
M  V30 29348 H 2873.1 -0.0376131 -2.12367 0
M  V30 29349 H 2875.36 0.0457616 -0.946895 0
M  V30 29350 H 2875.07 0.758211 -3.4343 0
M  V30 29351 H 2874.94 2.42216 -2.89156 0
M  V30 29352 H 2877.33 2.24463 -1.91573 0
M  V30 29353 H 2877.41 0.573923 -2.49278 0
M  V30 29354 H 2877.06 1.40503 -4.88079 0
M  V30 29355 H 2876.99 3.07809 -4.27272 0
M  V30 29356 H 2879.48 1.86882 -3.28456 0
M  V30 29357 H 2879.79 3.2657 -7.00408 0
M  V30 29358 H 2878.13 2.94323 -6.29602 0
M  V30 29359 H 2881.33 2.24128 -4.10956 0
M  V30 29360 H 2881.5 2.87847 -5.80558 0
M  V30 29361 N 2874.9 1.30141 0.88888 0
M  V30 29362 C 2876.15 1.18504 1.63711 0
M  V30 29363 C 2876.47 -0.261365 1.9324 0
M  V30 29364 O 2875.74 -1.17687 1.5661 0
M  V30 29365 H 2874.32 0.43559 0.606853 0
M  V30 29366 H 2876.99 1.63215 1.06522 0
M  V30 29367 H 2876.08 1.74304 2.58891 0
M  V30 29368 N 2876.38 -1.1007 1.12794 0
M  V30 29369 C 2877.33 -2.18608 0.794561 0
M  V30 29370 C 2878.32 -1.67962 -0.220241 0
M  V30 29371 O 2879.53 -1.79831 -0.0780622 0
M  V30 29372 H 2875.91 -0.712964 0.239135 0
M  V30 29373 H 2877.88 -2.43963 1.71828 0
M  V30 29374 C 2876.63 -3.46653 0.269609 0
M  V30 29375 H 2875.95 -3.85988 1.04178 0
M  V30 29376 H 2877.39 -4.23934 0.0746987 0
M  V30 29377 C 2875.85 -3.21615 -1.00327 0
M  V30 29378 O 2876.38 -3.43633 -2.08036 0
M  V30 29379 N 2874.58 -2.75259 -0.931715 0
M  V30 29380 H 2874.13 -2.57541 -0.0550745 0
M  V30 29381 H 2874.09 -2.58884 -1.784 0
M  V30 29382 N 2877.86 -0.920419 -1.2793 0
M  V30 29383 C 2879.11 -0.557866 -1.94976 0
M  V30 29384 C 2879.44 0.897335 -1.72225 0
M  V30 29385 O 2878.71 1.6391 -1.04708 0
M  V30 29386 C 2879 -0.875803 -3.49287 0
M  V30 29387 C 2878.85 -2.38422 -3.81412 0
M  V30 29388 C 2880.17 -0.376594 -4.38486 0
M  V30 29389 H 2877.29 -0.204152 -0.70816 0
M  V30 29390 H 2879.93 -1.15087 -1.51178 0
M  V30 29391 H 2878.08 -0.37113 -3.86723 0
M  V30 29392 H 2879.75 -2.96003 -3.53808 0
M  V30 29393 H 2878 -2.83644 -3.2822 0
M  V30 29394 H 2878.67 -2.55722 -4.89194 0
M  V30 29395 H 2881.14 -0.809017 -4.08159 0
M  V30 29396 H 2880.02 -0.628072 -5.45295 0
M  V30 29397 H 2880.28 0.723216 -4.36144 0
M  V30 29398 N 2879.34 1.41929 -0.685124 0
M  V30 29399 C 2880.62 1.95097 -0.140186 0
M  V30 29400 C 2881 1.62505 1.34742 0
M  V30 29401 O 2880.34 0.926571 2.08871 0
M  V30 29402 C 2880.55 3.4646 -0.420329 0
M  V30 29403 C 2881.9 4.23217 -0.342412 0
M  V30 29404 O 2882.93 3.5443 -0.354654 0
M  V30 29405 O 2881.78 5.45711 -0.2935 0
M  V30 29406 H 2878.88 0.826952 -0.00887452 0
M  V30 29407 H 2881.42 1.51702 -0.760566 0
M  V30 29408 H 2880.2 3.63425 -1.45043 0
M  V30 29409 H 2879.82 3.96925 0.231546 0
M  V30 29410 N 2880.82 0.429152 1.51644 0
M  V30 29411 C 2882.06 -0.139767 2.01616 0
M  V30 29412 C 2882.39 -1.43925 1.3157 0
M  V30 29413 O 2881.66 -1.90715 0.447722 0
M  V30 29414 H 2880.24 -0.0546409 0.744999 0
M  V30 29415 H 2882.9 0.569984 1.86379 0
M  V30 29416 H 2881.99 -0.321555 3.10439 0
M  V30 29417 N 2882.29 -1.56783 0.160229 0
M  V30 29418 C 2883.52 -2.00913 -0.49413 0
M  V30 29419 C 2883.94 -1.04041 -1.57546 0
M  V30 29420 O 2883.29 -0.0394902 -1.82457 0
M  V30 29421 C 2883.35 -3.44907 -1.08265 0
M  V30 29422 O 2883.07 -4.38077 -0.0444934 0
M  V30 29423 C 2884.57 -4.04382 -1.81633 0
M  V30 29424 H 2881.79 -0.658778 -0.127486 0
M  V30 29425 H 2884.33 -2.02857 0.258701 0
M  V30 29426 H 2882.49 -3.43773 -1.78603 0
M  V30 29427 H 2882.9 -5.22322 -0.477452 0
M  V30 29428 H 2884.37 -5.07093 -2.18085 0
M  V30 29429 H 2884.85 -3.45842 -2.70721 0
M  V30 29430 H 2885.46 -4.09186 -1.15962 0
M  V30 29431 N 2883.77 0.113531 -1.57191 0
M  V30 29432 C 2885.05 0.850968 -1.76119 0
M  V30 29433 C 2885.43 1.97812 -0.73712 0
M  V30 29434 O 2884.78 2.27258 0.237902 0
M  V30 29435 C 2884.99 1.3626 -3.21301 0
M  V30 29436 C 2886.34 1.81276 -3.83958 0
M  V30 29437 O 2887.36 1.45927 -3.24937 0
M  V30 29438 O 2886.22 2.46576 -4.87711 0
M  V30 29439 H 2883.31 0.404516 -0.721315 0
M  V30 29440 H 2885.86 0.0968458 -1.69423 0
M  V30 29441 H 2884.63 0.554167 -3.87356 0
M  V30 29442 H 2884.25 2.17928 -3.32556 0
M  V30 29443 N 2885.25 1.52854 0.383864 0
M  V30 29444 C 2886.67 1.42219 0.724291 0
M  V30 29445 C 2886.87 0.546688 1.93942 0
M  V30 29446 O 2885.92 0.0221006 2.5249 0
M  V30 29447 C 2887.24 2.85146 0.954584 0
M  V30 29448 C 2888.78 2.94658 1.05574 0
M  V30 29449 C 2889.26 4.38607 1.31863 0
M  V30 29450 N 2890.75 4.41955 1.38673 0
M  V30 29451 C 2891.49 5.50424 1.60689 0
M  V30 29452 N 2890.98 6.6897 1.80142 0
M  V30 29453 N 2892.77 5.37975 1.6291 0
M  V30 29454 H 2884.93 2.08294 -0.415636 0
M  V30 29455 H 2887.19 0.939883 -0.123792 0
M  V30 29456 H 2886.89 3.51446 0.133767 0
M  V30 29457 H 2886.77 3.27707 1.86782 0
M  V30 29458 H 2889.16 2.28523 1.86712 0
M  V30 29459 H 2889.24 2.55517 0.120293 0
M  V30 29460 H 2888.88 5.05309 0.512327 0
M  V30 29461 H 2888.81 4.75305 2.267 0
M  V30 29462 H 2891.3 3.56513 1.25327 0
M  V30 29463 H 2891.61 7.4741 1.96463 0
M  V30 29464 H 2889.96 6.71989 1.77357 0
M  V30 29465 H 2893.15 4.44331 1.47268 0
M  V30 29466 H 2893.32 6.22577 1.79728 0
M  V30 29467 N 2886.73 -0.642612 1.43904 0
M  V30 29468 C 2887.66 -1.7675 1.44342 0
M  V30 29469 C 2888.64 -1.59741 0.303586 0
M  V30 29470 O 2889.82 -1.81781 0.498807 0
M  V30 29471 C 2886.95 -3.14185 1.26514 0
M  V30 29472 C 2886 -3.49871 2.43911 0
M  V30 29473 S 2886.83 -3.48645 4.06456 0
M  V30 29474 C 2887.99 -4.88719 3.9103 0
M  V30 29475 H 2888.22 -1.76109 2.39526 0
M  V30 29476 H 2885.75 -0.816207 1.31063 0
M  V30 29477 H 2887.71 -3.93499 1.16915 0
M  V30 29478 H 2886.37 -3.12376 0.328603 0
M  V30 29479 H 2885.56 -4.49849 2.2727 0
M  V30 29480 H 2885.17 -2.77994 2.50191 0
M  V30 29481 H 2887.46 -5.77653 3.5401 0
M  V30 29482 H 2888.4 -5.10414 4.90799 0
M  V30 29483 H 2888.81 -4.62753 3.23295 0
M  V30 29484 N 2888.21 -1.30611 -0.881966 0
M  V30 29485 C 2889.46 -1.18972 -1.62876 0
M  V30 29486 C 2889.77 0.253825 -1.93946 0
M  V30 29487 O 2890.98 0.491766 -2.67009 0
M  V30 29488 C 2889.43 -2.08195 -2.93569 0
M  V30 29489 C 2889.04 -3.57476 -2.70028 0
M  V30 29490 C 2890.78 -2.05326 -3.71539 0
M  V30 29491 C 2888.69 -4.38746 -3.96555 0
M  V30 29492 H 2887.62 -0.441692 -0.611084 0
M  V30 29493 H 2890.27 -1.55381 -0.976173 0
M  V30 29494 H 2888.65 -1.64672 -3.60137 0
M  V30 29495 H 2889.83 -4.09167 -2.11942 0
M  V30 29496 H 2888.14 -3.62199 -2.05429 0
M  V30 29497 H 2890.74 -2.63296 -4.65381 0
M  V30 29498 H 2891.08 -1.03747 -4.03165 0
M  V30 29499 H 2891.62 -2.46986 -3.11837 0
M  V30 29500 H 2888.35 -5.41033 -3.70086 0
M  V30 29501 H 2887.87 -3.91818 -4.54135 0
M  V30 29502 H 2889.55 -4.50337 -4.64549 0
M  V30 29503 N 2889.69 1.0947 -1.13376 0
M  V30 29504 C 2890.62 2.18124 -0.833306 0
M  V30 29505 C 2891.6 1.68834 0.20714 0
M  V30 29506 O 2892.78 1.94087 0.0661671 0
M  V30 29507 C 2889.91 3.46019 -0.298039 0
M  V30 29508 C 2888.87 4.0864 -1.27268 0
M  V30 29509 C 2888.19 5.31355 -0.597197 0
M  V30 29510 C 2889.49 4.51192 -2.63103 0
M  V30 29511 H 2891.19 2.43515 -1.74186 0
M  V30 29512 H 2888.73 1.17037 -0.838941 0
M  V30 29513 H 2890.68 4.21332 -0.0755184 0
M  V30 29514 H 2889.41 3.20149 0.645903 0
M  V30 29515 H 2888.07 3.35345 -1.48119 0
M  V30 29516 H 2887.72 5.01765 0.352205 0
M  V30 29517 H 2887.42 5.74206 -1.24744 0
M  V30 29518 H 2888.94 6.09392 -0.383947 0
M  V30 29519 H 2890.35 5.17732 -2.46223 0
M  V30 29520 H 2888.75 5.04926 -3.24299 0
M  V30 29521 H 2889.82 3.63615 -3.20799 0
M  V30 29522 N 2891.16 0.92719 1.2744 0
M  V30 29523 C 2892.41 0.568198 1.94678 0
M  V30 29524 C 2892.74 -0.888189 1.72699 0
M  V30 29525 O 2892.02 -1.63352 1.05576 0
M  V30 29526 C 2892.3 0.894314 3.48818 0
M  V30 29527 C 2892.15 2.40442 3.80142 0
M  V30 29528 C 2893.47 0.399843 4.3828 0
M  V30 29529 H 2890.59 0.207905 0.707068 0
M  V30 29530 H 2893.23 1.15888 1.50566 0
M  V30 29531 H 2891.38 0.391634 3.86521 0
M  V30 29532 H 2893.06 2.97875 3.52233 0
M  V30 29533 H 2891.3 2.85381 3.26711 0
M  V30 29534 H 2891.97 2.58313 4.87831 0
M  V30 29535 H 2894.45 0.830652 4.07725 0
M  V30 29536 H 2893.32 0.656981 5.44954 0
M  V30 29537 H 2893.58 -0.700076 4.36522 0
M  V30 29538 N 2892.64 -1.41564 0.692641 0
M  V30 29539 C 2893.59 -2.28 0.00235855 0
M  V30 29540 C 2894.58 -1.42046 -0.755768 0
M  V30 29541 O 2895.77 -1.65342 -0.631743 0
M  V30 29542 C 2892.9 -3.3031 -0.93541 0
M  V30 29543 C 2891.98 -4.23744 -0.173686 0
M  V30 29544 N 2892.37 -4.98928 0.83096 0
M  V30 29545 C 2890.67 -4.44115 -0.409588 0
M  V30 29546 C 2891.37 -5.67292 1.28666 0
M  V30 29547 N 2890.35 -5.40131 0.613148 0
M  V30 29548 H 2894.15 -2.83561 0.772685 0
M  V30 29549 H 2891.66 -1.5374 0.523225 0
M  V30 29550 H 2893.66 -3.91055 -1.44506 0
M  V30 29551 H 2892.32 -2.7631 -1.70537 0
M  V30 29552 H 2893.33 -5.0354 1.2111 0
M  V30 29553 H 2890.01 -4.01129 -1.15766 0
M  V30 29554 H 2891.4 -6.37572 2.12017 0
M  V30 29555 N 2894.12 -0.437188 -1.51415 0
M  V30 29556 C 2895.05 0.410131 -2.25501 0
M  V30 29557 C 2896.06 0.986421 -1.29513 0
M  V30 29558 O 2897.25 0.880587 -1.55267 0
M  V30 29559 C 2894.35 1.5857 -2.99514 0
M  V30 29560 C 2893.53 1.12831 -4.22597 0
M  V30 29561 C 2892.59 2.17399 -4.79191 0
M  V30 29562 O 2891.61 1.7684 -5.41033 0
M  V30 29563 N 2892.81 3.49881 -4.6321 0
M  V30 29564 H 2895.58 -0.224836 -2.98855 0
M  V30 29565 H 2893.14 -0.266069 -1.59699 0
M  V30 29566 H 2895.13 2.28146 -3.34262 0
M  V30 29567 H 2893.7 2.12602 -2.29171 0
M  V30 29568 H 2892.92 0.259626 -3.93344 0
M  V30 29569 H 2894.21 0.800107 -5.0247 0
M  V30 29570 H 2893.61 3.85565 -4.13951 0
M  V30 29571 H 2892.16 4.15352 -5.02321 0
M  V30 29572 N 2895.6 1.56696 -0.168541 0
M  V30 29573 C 2896.53 2.20836 0.758524 0
M  V30 29574 C 2897.51 1.16313 1.24118 0
M  V30 29575 O 2898.69 1.44732 1.29485 0
M  V30 29576 C 2895.82 2.84693 1.98915 0
M  V30 29577 C 2894.78 3.95231 1.64245 0
M  V30 29578 C 2894.1 4.46124 2.94749 0
M  V30 29579 C 2895.4 5.14959 0.872585 0
M  V30 29580 H 2897.1 2.98562 0.2239 0
M  V30 29581 H 2894.64 1.43607 0.106252 0
M  V30 29582 H 2896.6 3.28237 2.64269 0
M  V30 29583 H 2895.32 2.04332 2.54786 0
M  V30 29584 H 2893.98 3.52338 1.0126 0
M  V30 29585 H 2893.63 3.62558 3.48655 0
M  V30 29586 H 2893.33 5.20695 2.72307 0
M  V30 29587 H 2894.85 4.92353 3.61138 0
M  V30 29588 H 2896.27 5.55214 1.42866 0
M  V30 29589 H 2894.66 5.95429 0.747297 0
M  V30 29590 H 2895.73 4.84721 -0.13162 0
M  V30 29591 N 2897.08 -0.105193 1.57249 0
M  V30 29592 C 2898.3 -0.828231 1.90145 0
M  V30 29593 C 2898.73 -1.71981 0.761841 0
M  V30 29594 O 2898.08 -1.79013 -0.287054 0
M  V30 29595 C 2898.13 -1.62602 3.21859 0
M  V30 29596 O 2897.24 -2.73414 3.08737 0
M  V30 29597 H 2896.58 -0.228181 0.623562 0
M  V30 29598 H 2899.11 -0.0834466 2.0443 0
M  V30 29599 H 2899.12 -2.01237 3.54919 0
M  V30 29600 H 2897.79 -0.971616 4.04391 0
M  V30 29601 H 2896.37 -2.37881 2.87171 0
M  V30 29602 N 2898.55 -1.53055 -0.375752 0
M  V30 29603 C 2899.5 -1.75154 -1.45962 0
M  V30 29604 C 2900.49 -0.605849 -1.49058 0
M  V30 29605 O 2901.68 -0.86416 -1.54471 0
M  V30 29606 C 2898.81 -1.93574 -2.83521 0
M  V30 29607 C 2897.9 -3.14115 -2.84943 0
M  V30 29608 N 2898.29 -4.36218 -2.56022 0
M  V30 29609 C 2896.58 -3.1463 -3.16107 0
M  V30 29610 C 2897.29 -5.17901 -2.64864 0
M  V30 29611 N 2896.26 -4.53883 -2.99151 0
M  V30 29612 H 2900.06 -2.67177 -1.22449 0
M  V30 29613 H 2897.58 -1.51542 -0.58384 0
M  V30 29614 H 2899.57 -2.07531 -3.61575 0
M  V30 29615 H 2898.23 -1.02773 -3.08006 0
M  V30 29616 H 2899.25 -4.64125 -2.298 0
M  V30 29617 H 2895.92 -2.33686 -3.45973 0
M  V30 29618 H 2897.31 -6.25272 -2.45936 0
M  V30 29619 N 2900.03 0.634971 -1.44242 0
M  V30 29620 C 2901.44 1.21653 -1.41625 0
M  V30 29621 C 2901.79 1.95771 -0.129618 0
M  V30 29622 O 2900.92 2.0223 0.770189 0
M  V30 29623 C 2901.51 2.21274 -2.56561 0
M  V30 29624 C 2900.07 2.74865 -2.5715 0
M  V30 29625 C 2899.22 1.498 -2.33357 0
M  V30 29626 H 2902.17 0.425878 -1.52879 0
M  V30 29627 H 2902.19 3.03803 -2.29094 0
M  V30 29628 H 2901.7 1.673 -3.50189 0
M  V30 29629 H 2899.81 3.32852 -1.67453 0
M  V30 29630 H 2899.92 3.21166 -3.55513 0
M  V30 29631 H 2898.28 1.77796 -1.82375 0
M  V30 29632 H 2899.07 0.977344 -3.29094 0
M  V30 29633 N 2901.51 1.31076 0.875027 0
M  V30 29634 C 2902.76 1.2166 1.63004 0
M  V30 29635 C 2903.11 -0.224272 1.91088 0
M  V30 29636 O 2902.4 -1.15623 1.52781 0
M  V30 29637 C 2902.6 1.98894 2.96945 0
M  V30 29638 C 2902.43 3.50344 2.81938 0
M  V30 29639 C 2901.2 4.19698 2.81393 0
M  V30 29640 C 2903.4 4.45389 2.57163 0
M  V30 29641 N 2901.38 5.5734 2.57382 0
M  V30 29642 C 2902.75 5.70664 2.42368 0
M  V30 29643 C 2904.8 4.34873 2.42467 0
M  V30 29644 C 2903.51 6.86613 2.14373 0
M  V30 29645 C 2905.53 5.50599 2.15858 0
M  V30 29646 C 2904.89 6.7486 2.01848 0
M  V30 29647 H 2900.99 0.500282 0.601034 0
M  V30 29648 H 2903.58 1.65205 1.0303 0
M  V30 29649 H 2901.75 1.57724 3.54933 0
M  V30 29650 H 2903.48 1.81538 3.61699 0
M  V30 29651 H 2900.24 3.71621 2.93589 0
M  V30 29652 H 2900.66 6.29798 2.48362 0
M  V30 29653 H 2905.3 3.39472 2.52029 0
M  V30 29654 H 2903.02 7.82045 2.03548 0
M  V30 29655 H 2906.61 5.44376 2.05295 0
M  V30 29656 H 2905.49 7.62896 1.81549 0
M  V30 29657 N 2902.99 -1.08867 1.13955 0
M  V30 29658 C 2904.24 -1.80802 0.903055 0
M  V30 29659 C 2904.56 -1.86418 -0.572118 0
M  V30 29660 O 2903.83 -1.35388 -1.41587 0
M  V30 29661 H 2902.41 -0.669608 0.33111 0
M  V30 29662 H 2905.07 -1.31645 1.43721 0
M  V30 29663 H 2904.17 -2.83789 1.29885 0
M  V30 29664 N 2904.47 -0.933936 -1.26946 0
M  V30 29665 C 2905.72 -0.573443 -1.93377 0
M  V30 29666 C 2906.03 0.890583 -1.74149 0
M  V30 29667 O 2907.23 1.36013 -2.34974 0
M  V30 29668 C 2905.69 -0.974808 -3.46447 0
M  V30 29669 C 2905.3 -2.45995 -3.7442 0
M  V30 29670 C 2907.04 -0.685865 -4.18923 0
M  V30 29671 C 2904.95 -2.80039 -5.20896 0
M  V30 29672 H 2903.88 -0.210749 -0.723948 0
M  V30 29673 H 2906.53 -1.13559 -1.44141 0
M  V30 29674 H 2904.91 -0.341251 -3.94527 0
M  V30 29675 H 2906.09 -3.14194 -3.37074 0
M  V30 29676 H 2904.4 -2.72143 -3.15162 0
M  V30 29677 H 2907 -0.916638 -5.26784 0
M  V30 29678 H 2907.34 0.377144 -4.14588 0
M  V30 29679 H 2907.87 -1.27881 -3.76685 0
M  V30 29680 H 2904.61 -3.85274 -5.30325 0
M  V30 29681 H 2904.13 -2.16495 -5.59366 0
M  V30 29682 H 2905.81 -2.68116 -5.88832 0
M  V30 29683 N 2905.94 1.41194 -0.700139 0
M  V30 29684 C 2906.91 2.29153 -0.0466108 0
M  V30 29685 C 2907.91 1.44605 0.703277 0
M  V30 29686 O 2909.1 1.65701 0.537484 0
M  V30 29687 C 2906.23 3.27561 0.944266 0
M  V30 29688 H 2907.42 2.8844 -0.821114 0
M  V30 29689 H 2904.98 1.49257 -0.463895 0
M  V30 29690 H 2905.71 2.73262 1.74637 0
M  V30 29691 H 2905.5 3.89954 0.409632 0
M  V30 29692 H 2906.99 3.93462 1.39918 0
M  V30 29693 N 2907.42 0.445212 1.51181 0
M  V30 29694 C 2908.67 -0.118785 2.02452 0
M  V30 29695 C 2909 -1.41671 1.32827 0
M  V30 29696 O 2908.28 -1.89325 0.44567 0
M  V30 29697 C 2908.56 -0.329412 3.5859 0
M  V30 29698 C 2908.41 0.987715 4.38821 0
M  V30 29699 C 2909.73 -1.09567 4.26243 0
M  V30 29700 H 2906.85 -0.0416963 0.73582 0
M  V30 29701 H 2909.49 0.585749 1.80746 0
M  V30 29702 H 2907.64 -0.929534 3.77216 0
M  V30 29703 H 2909.31 1.62242 4.31828 0
M  V30 29704 H 2907.56 1.59048 4.03592 0
M  V30 29705 H 2908.23 0.794288 5.46255 0
M  V30 29706 H 2910.7 -0.587255 4.11935 0
M  V30 29707 H 2909.58 -1.21182 5.35356 0
M  V30 29708 H 2909.84 -2.12577 3.87638 0
M  V30 29709 N 2908.9 -1.56605 0.176849 0
M  V30 29710 C 2909.85 -2.1483 -0.763681 0
M  V30 29711 C 2910.83 -1.08403 -1.18901 0
M  V30 29712 O 2912.03 -1.34512 -1.15045 0
M  V30 29713 C 2909.16 -2.79693 -1.99064 0
M  V30 29714 C 2908.24 -3.93286 -1.58704 0
M  V30 29715 N 2908.63 -4.97849 -0.893335 0
M  V30 29716 C 2906.93 -4.04549 -1.87767 0
M  V30 29717 C 2907.63 -5.77548 -0.693765 0
M  V30 29718 N 2906.61 -5.29341 -1.2369 0
M  V30 29719 H 2910.41 -2.93039 -0.22476 0
M  V30 29720 H 2907.92 -1.62383 -0.0236278 0
M  V30 29721 H 2909.92 -3.19787 -2.67473 0
M  V30 29722 H 2908.58 -2.02967 -2.53445 0
M  V30 29723 H 2909.59 -5.14963 -0.550777 0
M  V30 29724 H 2906.27 -3.38931 -2.43787 0
M  V30 29725 H 2907.66 -6.71744 -0.144781 0
M  V30 29726 N 2910.38 0.0968524 -1.57302 0
M  V30 29727 C 2911.66 0.832241 -1.77012 0
M  V30 29728 C 2912.04 1.97019 -0.758059 0
M  V30 29729 O 2911.38 2.27498 0.213784 0
M  V30 29730 C 2911.59 1.32845 -3.22728 0
M  V30 29731 C 2912.94 1.77194 -3.85859 0
M  V30 29732 O 2913.97 1.42472 -3.26466 0
M  V30 29733 O 2912.82 2.41389 -4.90299 0
M  V30 29734 H 2909.92 0.396843 -0.725565 0
M  V30 29735 H 2912.46 0.0788707 -1.69517 0
M  V30 29736 H 2911.24 0.513052 -3.87922 0
M  V30 29737 H 2910.86 2.14388 -3.34849 0
M  V30 29738 N 2911.86 1.53252 0.36763 0
M  V30 29739 C 2913.08 1.73546 1.13562 0
M  V30 29740 C 2913.51 0.462376 1.82329 0
M  V30 29741 O 2912.86 -0.583442 1.71656 0
M  V30 29742 C 2912.91 2.90001 2.14317 0
M  V30 29743 O 2912.02 2.58467 3.21355 0
M  V30 29744 H 2911.36 0.576418 0.329604 0
M  V30 29745 H 2913.89 2.00129 0.425382 0
M  V30 29746 H 2913.9 3.16108 2.57953 0
M  V30 29747 H 2912.57 3.82347 1.63657 0
M  V30 29748 H 2911.15 2.4317 2.82706 0
M  V30 29749 N 2913.34 -0.627313 1.44577 0
M  V30 29750 C 2914.58 -1.3868 1.47561 0
M  V30 29751 C 2914.91 -1.94191 0.10967 0
M  V30 29752 O 2914.17 -1.74339 -0.889062 0
M  V30 29753 C 2914.46 -2.56727 2.48649 0
M  V30 29754 C 2914.13 -2.19482 3.93876 0
M  V30 29755 C 2912.79 -2.09037 4.33425 0
M  V30 29756 C 2915.14 -1.90116 4.85289 0
M  V30 29757 C 2912.47 -1.6742 5.62305 0
M  V30 29758 C 2914.82 -1.4999 6.14561 0
M  V30 29759 C 2913.49 -1.3809 6.5306 0
M  V30 29760 H 2912.76 -0.507465 0.539964 0
M  V30 29761 H 2915.41 -0.71099 1.77812 0
M  V30 29762 H 2913.71 -3.29557 2.11895 0
M  V30 29763 H 2915.41 -3.14955 2.48202 0
M  V30 29764 H 2912 -2.2853 3.62591 0
M  V30 29765 H 2916.18 -1.97092 4.55487 0
M  V30 29766 H 2911.44 -1.56813 5.90948 0
M  V30 29767 H 2915.61 -1.26307 6.8485 0
M  V30 29768 H 2913.24 -1.05614 7.52828 0
M  V30 29769 N 2914.81 -1.31539 -0.868063 0
M  V30 29770 C 2915.74 -1.21942 -1.99129 0
M  V30 29771 C 2916.72 -0.106196 -1.69768 0
M  V30 29772 O 2917.91 -0.291115 -1.92006 0
M  V30 29773 C 2915.04 -0.927938 -3.34674 0
M  V30 29774 C 2913.99 -2.00094 -3.78347 0
M  V30 29775 C 2913.32 -1.56212 -5.11373 0
M  V30 29776 C 2914.62 -3.41431 -3.9525 0
M  V30 29777 H 2916.31 -2.15915 -2.07416 0
M  V30 29778 H 2913.86 -1.03946 -0.996551 0
M  V30 29779 H 2915.81 -0.847399 -4.12792 0
M  V30 29780 H 2914.54 0.0474468 -3.26566 0
M  V30 29781 H 2913.2 -2.07141 -3.0247 0
M  V30 29782 H 2912.84 -0.574538 -4.99708 0
M  V30 29783 H 2912.54 -2.27995 -5.41564 0
M  V30 29784 H 2914.07 -1.49569 -5.91998 0
M  V30 29785 H 2915.48 -3.37048 -4.63758 0
M  V30 29786 H 2913.88 -4.11448 -4.36842 0
M  V30 29787 H 2914.95 -3.82077 -2.98572 0
M  V30 29788 N 2916.29 1.08262 -1.1453 0
M  V30 29789 C 2917.52 1.84149 -0.936636 0
M  V30 29790 C 2917.93 1.81963 0.518266 0
M  V30 29791 O 2917.27 1.22274 1.37094 0
M  V30 29792 C 2917.33 3.32706 -1.36188 0
M  V30 29793 C 2917 3.58624 -2.83263 0
M  V30 29794 C 2918 3.53343 -3.81372 0
M  V30 29795 C 2915.68 3.86587 -3.20711 0
M  V30 29796 C 2917.67 3.75659 -5.14936 0
M  V30 29797 C 2915.36 4.08556 -4.54451 0
M  V30 29798 C 2916.36 4.03085 -5.51372 0
M  V30 29799 O 2916.05 4.24476 -6.82697 0
M  V30 29800 H 2915.78 0.588142 -0.333264 0
M  V30 29801 H 2918.33 1.37627 -1.52473 0
M  V30 29802 H 2916.56 3.79992 -0.71713 0
M  V30 29803 H 2918.25 3.90033 -1.12379 0
M  V30 29804 H 2919.02 3.31753 -3.53787 0
M  V30 29805 H 2914.9 3.89964 -2.45864 0
M  V30 29806 H 2918.44 3.71305 -5.90575 0
M  V30 29807 H 2914.34 4.29631 -4.81755 0
M  V30 29808 H 2915.11 4.41873 -6.88978 0
M  V30 29809 N 2917.77 0.940655 1.26449 0
M  V30 29810 C 2919 0.6038 1.9758 0
M  V30 29811 C 2919.41 -0.825365 1.70248 0
M  V30 29812 O 2918.75 -1.56187 0.967028 0
M  V30 29813 C 2918.81 0.765525 3.51255 0
M  V30 29814 C 2918.48 2.16922 4.02236 0
M  V30 29815 C 2919.47 3.14464 4.14015 0
M  V30 29816 C 2917.16 2.48966 4.36258 0
M  V30 29817 C 2919.15 4.42151 4.59109 0
M  V30 29818 C 2916.84 3.76885 4.81041 0
M  V30 29819 C 2917.84 4.73291 4.92428 0
M  V30 29820 O 2917.53 5.98932 5.36223 0
M  V30 29821 H 2917.26 0.226447 0.636944 0
M  V30 29822 H 2919.81 1.26353 1.61938 0
M  V30 29823 H 2918.04 0.0486636 3.86669 0
M  V30 29824 H 2919.73 0.431808 4.03597 0
M  V30 29825 H 2920.5 2.91032 3.87976 0
M  V30 29826 H 2916.38 1.74663 4.26631 0
M  V30 29827 H 2919.92 5.17402 4.67911 0
M  V30 29828 H 2915.82 4.0013 5.06524 0
M  V30 29829 H 2916.58 6.02107 5.54445 0
M  V30 29830 N 2919.25 -1.40821 0.707617 0
M  V30 29831 C 2920.48 -2.05346 0.253109 0
M  V30 29832 C 2920.89 -1.53291 -1.10215 0
M  V30 29833 O 2920.25 -0.686135 -1.69111 0
M  V30 29834 C 2920.3 -3.60857 0.215474 0
M  V30 29835 O 2920.02 -4.10989 1.51721 0
M  V30 29836 C 2921.52 -4.42545 -0.258559 0
M  V30 29837 H 2918.74 -0.661025 0.115268 0
M  V30 29838 H 2921.28 -1.80375 0.963586 0
M  V30 29839 H 2919.44 -3.84825 -0.44591 0
M  V30 29840 H 2919.85 -5.05127 1.41235 0
M  V30 29841 H 2921.33 -5.51505 -0.233752 0
M  V30 29842 H 2921.8 -4.19537 -1.29943 0
M  V30 29843 H 2922.41 -4.23668 0.37226 0
M  V30 29844 N 2920.73 -0.453223 -1.50943 0
M  V30 29845 C 2922 0.168599 -1.94872 0
M  V30 29846 C 2922.38 1.58637 -1.39274 0
M  V30 29847 O 2921.73 2.2085 -0.586311 0
M  V30 29848 C 2921.94 0.130156 -3.48757 0
M  V30 29849 C 2923.29 0.3279 -4.23332 0
M  V30 29850 O 2924.31 0.207557 -3.55595 0
M  V30 29851 O 2923.17 0.568981 -5.4353 0
M  V30 29852 H 2920.27 0.121379 -0.818044 0
M  V30 29853 H 2922.81 -0.512344 -1.61781 0
M  V30 29854 H 2921.58 -0.860413 -3.81723 0
M  V30 29855 H 2921.21 0.853329 -3.88335 0
M  V30 29856 N 2922.2 1.56509 -0.185151 0
M  V30 29857 C 2923.11 2.22225 0.751869 0
M  V30 29858 C 2924.13 1.21819 1.24242 0
M  V30 29859 O 2925.31 1.54525 1.29166 0
M  V30 29860 C 2922.37 2.86096 1.95832 0
M  V30 29861 C 2921.43 4.01743 1.5133 0
M  V30 29862 C 2920.66 4.62558 2.66225 0
M  V30 29863 O 2920.89 4.2228 3.83452 0
M  V30 29864 O 2919.82 5.52196 2.39507 0
M  V30 29865 H 2923.65 3.02886 0.22225 0
M  V30 29866 H 2921.23 1.49336 0.0436878 0
M  V30 29867 H 2923.11 3.26541 2.66362 0
M  V30 29868 H 2921.79 2.08422 2.47673 0
M  V30 29869 H 2920.7 3.6594 0.777091 0
M  V30 29870 H 2922.03 4.81051 1.04166 0
M  V30 29871 N 2923.68 -0.0885089 1.57351 0
M  V30 29872 C 2924.61 -1.13326 1.99223 0
M  V30 29873 C 2925.63 -1.35943 0.895729 0
M  V30 29874 O 2926.82 -1.34479 1.17379 0
M  V30 29875 C 2923.92 -2.48752 2.30165 0
M  V30 29876 C 2923.09 -2.46321 3.61448 0
M  V30 29877 C 2922.15 -3.63725 3.8025 0
M  V30 29878 O 2921.17 -3.45916 4.5203 0
M  V30 29879 N 2922.38 -4.83454 3.21329 0
M  V30 29880 H 2925.14 -0.776811 2.89458 0
M  V30 29881 H 2922.7 -0.2774 1.59506 0
M  V30 29882 H 2924.69 -3.25907 2.39931 0
M  V30 29883 H 2923.26 -2.76461 1.45904 0
M  V30 29884 H 2922.48 -1.54666 3.62591 0
M  V30 29885 H 2923.77 -2.41781 4.47682 0
M  V30 29886 H 2923.17 -5.00828 2.63036 0
M  V30 29887 H 2921.73 -5.58179 3.3657 0
M  V30 29888 N 2925.16 -1.53445 -0.359498 0
M  V30 29889 C 2926.39 -1.73587 -1.12032 0
M  V30 29890 C 2926.8 -0.46747 -1.83334 0
M  V30 29891 O 2926.14 0.569722 -1.74642 0
M  V30 29892 C 2926.2 -2.85071 -2.19031 0
M  V30 29893 C 2925.87 -4.2522 -1.67443 0
M  V30 29894 C 2926.86 -5.07354 -1.13525 0
M  V30 29895 C 2924.55 -4.71651 -1.72772 0
M  V30 29896 C 2926.54 -6.34013 -0.656209 0
M  V30 29897 C 2924.23 -5.98288 -1.2448 0
M  V30 29898 C 2925.23 -6.793 -0.709948 0
M  V30 29899 O 2924.92 -8.03559 -0.234173 0
M  V30 29900 H 2924.65 -0.583894 -0.340651 0
M  V30 29901 H 2927.2 -2.01009 -0.422417 0
M  V30 29902 H 2925.43 -2.53137 -2.92333 0
M  V30 29903 H 2927.12 -2.93333 -2.80554 0
M  V30 29904 H 2927.89 -4.72652 -1.08743 0
M  V30 29905 H 2923.77 -4.08663 -2.13344 0
M  V30 29906 H 2927.31 -6.97194 -0.23807 0
M  V30 29907 H 2923.21 -6.32487 -1.28958 0
M  V30 29908 H 2923.97 -8.17739 -0.35294 0
M  V30 29909 N 2926.64 0.619637 -1.44908 0
M  V30 29910 C 2927.55 1.75952 -1.55171 0
M  V30 29911 C 2928.56 1.6843 -0.43675 0
M  V30 29912 O 2929.74 1.89001 -0.695738 0
M  V30 29913 C 2926.8 3.12378 -1.50403 0
M  V30 29914 C 2925.87 3.31446 -2.72841 0
M  V30 29915 C 2925.1 4.61363 -2.68291 0
M  V30 29916 O 2925.32 5.42911 -1.74939 0
M  V30 29917 O 2924.26 4.82882 -3.59316 0
M  V30 29918 H 2928.08 1.70246 -2.51496 0
M  V30 29919 H 2925.67 0.782266 -1.27283 0
M  V30 29920 H 2927.55 3.93682 -1.50308 0
M  V30 29921 H 2926.22 3.18602 -0.572253 0
M  V30 29922 H 2925.13 2.49776 -2.78501 0
M  V30 29923 H 2926.46 3.30091 -3.65104 0
M  V30 29924 N 2928.12 1.31997 0.861075 0
M  V30 29925 C 2929.36 1.22372 1.61718 0
M  V30 29926 C 2929.7 -0.215553 1.93 0
M  V30 29927 O 2928.97 -1.15095 1.56791 0
M  V30 29928 C 2929.25 2.07697 2.94167 0
M  V30 29929 C 2929.11 3.5997 2.69707 0
M  V30 29930 C 2930.43 1.93319 3.95368 0
M  V30 29931 H 2927.54 0.445891 0.586814 0
M  V30 29932 H 2930.19 1.61878 0.994759 0
M  V30 29933 H 2928.34 1.74134 3.47289 0
M  V30 29934 H 2930.01 4.03713 2.23189 0
M  V30 29935 H 2928.25 3.82956 2.03783 0
M  V30 29936 H 2928.92 4.14989 3.63989 0
M  V30 29937 H 2931.4 2.22708 3.51483 0
M  V30 29938 H 2930.27 2.55307 4.85911 0
M  V30 29939 H 2930.54 0.898998 4.32863 0
M  V30 29940 N 2929.59 -1.07653 1.15103 0
M  V30 29941 C 2930.84 -1.7957 0.91856 0
M  V30 29942 C 2931.16 -1.87535 -0.555889 0
M  V30 29943 O 2932.36 -2.55943 -0.905848 0
M  V30 29944 C 2930.82 -3.22676 1.594 0
M  V30 29945 C 2930.43 -3.22921 3.10525 0
M  V30 29946 C 2932.17 -3.99223 1.44296 0
M  V30 29947 C 2930.08 -4.60662 3.7087 0
M  V30 29948 H 2929.01 -0.672981 0.340018 0
M  V30 29949 H 2931.66 -1.20854 1.38082 0
M  V30 29950 H 2930.04 -3.81565 1.05943 0
M  V30 29951 H 2931.21 -2.73694 3.70713 0
M  V30 29952 H 2929.53 -2.59871 3.25356 0
M  V30 29953 H 2932.13 -5.01018 1.86775 0
M  V30 29954 H 2932.47 -4.14469 0.390048 0
M  V30 29955 H 2933 -3.46821 1.94832 0
M  V30 29956 H 2929.74 -4.5062 4.76048 0
M  V30 29957 H 2929.26 -5.10139 3.15465 0
M  V30 29958 H 2930.94 -5.29633 3.71616 0
M  V30 29959 N 2931.07 -0.947348 -1.25949 0
M  V30 29960 C 2931.98 -0.46812 -2.29882 0
M  V30 29961 C 2933 0.460946 -1.67783 0
M  V30 29962 O 2934.17 0.338971 -1.98527 0
M  V30 29963 C 2931.24 0.253254 -3.45774 0
M  V30 29964 C 2930.3 -0.713129 -4.23336 0
M  V30 29965 C 2929.53 -0.0260868 -5.33694 0
M  V30 29966 O 2929.76 1.18968 -5.57856 0
M  V30 29967 O 2928.69 -0.707925 -5.97722 0
M  V30 29968 H 2932.52 -1.33161 -2.7295 0
M  V30 29969 H 2930.1 -0.713491 -1.31262 0
M  V30 29970 H 2931.98 0.65935 -4.1621 0
M  V30 29971 H 2930.66 1.09204 -3.04723 0
M  V30 29972 H 2929.57 -1.16929 -3.55357 0
M  V30 29973 H 2930.9 -1.51971 -4.68151 0
M  V30 29974 N 2932.55 1.40444 -0.715075 0
M  V30 29975 C 2933.97 1.54797 -0.388582 0
M  V30 29976 C 2934.17 1.68651 1.10268 0
M  V30 29977 O 2933.22 1.67582 1.88872 0
M  V30 29978 C 2934.54 2.77667 -1.15419 0
M  V30 29979 C 2936.08 2.91484 -1.14044 0
M  V30 29980 C 2936.56 4.17266 -1.8882 0
M  V30 29981 N 2938.05 4.24265 -1.85886 0
M  V30 29982 C 2938.78 5.20495 -2.40567 0
M  V30 29983 N 2938.28 6.22636 -3.03802 0
M  V30 29984 N 2940.07 5.1257 -2.30712 0
M  V30 29985 H 2932.22 1.29697 -1.68203 0
M  V30 29986 H 2934.49 0.627127 -0.710926 0
M  V30 29987 H 2934.19 2.73706 -2.20858 0
M  V30 29988 H 2934.07 3.6976 -0.745477 0
M  V30 29989 H 2936.45 2.94949 -0.0942515 0
M  V30 29990 H 2936.54 2.0051 -1.58837 0
M  V30 29991 H 2936.18 4.14562 -2.93429 0
M  V30 29992 H 2936.11 5.07248 -1.41447 0
M  V30 29993 H 2938.6 3.5109 -1.398 0
M  V30 29994 H 2938.91 6.92488 -3.43044 0
M  V30 29995 H 2937.26 6.23082 -3.07886 0
M  V30 29996 H 2940.45 4.31704 -1.80968 0
M  V30 29997 H 2940.62 5.87394 -2.73629 0
M  V30 29998 N 2934.03 0.461222 1.507 0
M  V30 29999 C 2935.27 -0.0973054 2.02566 0
M  V30 30000 C 2935.61 -1.40254 1.34322 0
M  V30 30001 O 2934.88 -1.88842 0.465726 0
M  V30 30002 C 2935.17 -0.29136 3.58919 0
M  V30 30003 C 2935.02 1.0342 4.37749 0
M  V30 30004 C 2936.34 -1.0504 4.27381 0
M  V30 30005 H 2933.46 -0.0338896 0.73622 0
M  V30 30006 H 2936.1 0.604887 1.80114 0
M  V30 30007 H 2934.25 -0.889473 3.78181 0
M  V30 30008 H 2935.92 1.66813 4.30083 0
M  V30 30009 H 2934.16 1.6332 4.01882 0
M  V30 30010 H 2934.83 0.852181 5.45382 0
M  V30 30011 H 2937.31 -0.543531 4.12535 0
M  V30 30012 H 2936.19 -1.15497 5.36611 0
M  V30 30013 H 2936.45 -2.08453 3.89871 0
M  V30 30014 N 2935.51 -1.56408 0.193449 0
M  V30 30015 C 2936.78 -1.89278 -0.493284 0
M  V30 30016 C 2937.16 -1.10673 -1.79763 0
M  V30 30017 O 2936.51 -0.207314 -2.27558 0
M  V30 30018 C 2936.72 -3.41625 -0.713672 0
M  V30 30019 C 2938.07 -4.11823 -1.03378 0
M  V30 30020 O 2939.09 -3.47067 -0.80145 0
M  V30 30021 O 2937.95 -5.2627 -1.47318 0
M  V30 30022 H 2935.05 -0.786067 -0.25696 0
M  V30 30023 H 2937.59 -1.68085 0.233539 0
M  V30 30024 H 2936.36 -3.90749 0.207514 0
M  V30 30025 H 2935.99 -3.68504 -1.49301 0
M  V30 30026 N 2936.98 0.0801629 -1.57396 0
M  V30 30027 C 2937.93 1.09614 -2.03109 0
M  V30 30028 C 2938.9 1.38945 -0.910142 0
M  V30 30029 O 2940.09 1.50154 -1.17721 0
M  V30 30030 C 2937.23 2.40703 -2.47297 0
M  V30 30031 C 2936.34 2.17975 -3.72976 0
M  V30 30032 C 2935.47 3.42569 -4.05981 0
M  V30 30033 C 2934.51 3.15168 -5.24724 0
M  V30 30034 N 2933.65 4.32069 -5.53409 0
M  V30 30035 H 2938.49 0.699339 -2.89678 0
M  V30 30036 H 2936.03 0.33376 -1.43264 0
M  V30 30037 H 2937.99 3.17227 -2.70966 0
M  V30 30038 H 2936.62 2.78202 -1.63718 0
M  V30 30039 H 2935.67 1.32183 -3.56696 0
M  V30 30040 H 2936.98 1.9373 -4.59641 0
M  V30 30041 H 2936.13 4.27493 -4.30505 0
M  V30 30042 H 2934.87 3.69882 -3.17866 0
M  V30 30043 H 2933.88 2.28639 -5.00004 0
M  V30 30044 H 2935.1 2.89186 -6.1445 0
M  V30 30045 H 2933.05 4.59429 -4.68253 0
M  V30 30046 H 2932.97 4.11067 -6.34476 0
M  V30 30047 H 2934.23 5.18014 -5.82479 0
M  V30 30048 N 2938.46 1.53634 0.351355 0
M  V30 30049 C 2939.43 1.80385 1.41399 0
M  V30 30050 C 2940.43 0.67466 1.45962 0
M  V30 30051 O 2941.62 0.94292 1.46474 0
M  V30 30052 C 2938.75 1.93881 2.80398 0
M  V30 30053 H 2939.94 2.75303 1.18946 0
M  V30 30054 H 2937.49 1.44927 0.585304 0
M  V30 30055 H 2938.23 1.01079 3.08145 0
M  V30 30056 H 2938.01 2.76025 2.78483 0
M  V30 30057 H 2939.5 2.16122 3.57325 0
M  V30 30058 N 2939.94 -0.611943 1.45234 0
M  V30 30059 C 2941.17 -1.39781 1.52541 0
M  V30 30060 C 2941.58 -1.8815 0.156566 0
M  V30 30061 O 2940.94 -1.61963 -0.841092 0
M  V30 30062 C 2940.99 -2.60524 2.50619 0
M  V30 30063 O 2940.71 -2.14166 3.82184 0
M  V30 30064 C 2942.21 -3.53434 2.67581 0
M  V30 30065 H 2939.43 -0.428034 0.516748 0
M  V30 30066 H 2941.98 -0.746694 1.9038 0
M  V30 30067 H 2940.13 -3.21686 2.15863 0
M  V30 30068 H 2940.55 -2.92584 4.3531 0
M  V30 30069 H 2942.02 -4.34711 3.40192 0
M  V30 30070 H 2942.5 -4.03493 1.73466 0
M  V30 30071 H 2943.1 -2.98128 3.03315 0
M  V30 30072 N 2941.42 -1.32452 -0.854063 0
M  V30 30073 C 2942.67 -1.22803 -1.60511 0
M  V30 30074 C 2942.99 0.210039 -1.93866 0
M  V30 30075 O 2942.26 1.13493 -1.59675 0
M  V30 30076 H 2940.84 -0.451526 -0.595091 0
M  V30 30077 H 2943.5 -1.65982 -1.02157 0
M  V30 30078 H 2942.6 -1.81107 -2.54178 0
M  V30 30079 N 2942.9 1.07041 -1.15672 0
M  V30 30080 C 2943.86 2.12497 -0.858943 0
M  V30 30081 C 2944.86 1.60165 0.142707 0
M  V30 30082 O 2946.05 1.73981 -0.0872984 0
M  V30 30083 C 2943.18 3.39723 -0.28308 0
M  V30 30084 H 2944.38 2.40345 -1.79372 0
M  V30 30085 H 2941.93 1.22982 -0.964629 0
M  V30 30086 H 2942.66 3.17518 0.65974 0
M  V30 30087 H 2942.45 3.79009 -1.00473 0
M  V30 30088 H 2943.94 4.17498 -0.0924277 0
M  V30 30089 N 2944.38 0.954014 1.25445 0
M  V30 30090 C 2945.32 0.46482 2.27908 0
M  V30 30091 C 2946.32 -0.464578 1.62905 0
M  V30 30092 O 2947.52 -0.341376 1.76733 0
M  V30 30093 H 2943.9 0.131811 0.740358 0
M  V30 30094 H 2945.87 1.34127 2.66557 0
M  V30 30095 C 2944.62 -0.242528 3.46853 0
M  V30 30096 H 2943.94 0.463488 3.97104 0
M  V30 30097 H 2945.38 -0.548845 4.20433 0
M  V30 30098 C 2943.84 -1.46482 3.03389 0
M  V30 30099 O 2944.37 -2.56257 3.09347 0
M  V30 30100 N 2942.58 -1.32595 2.58587 0
M  V30 30101 H 2942.12 -0.432789 2.53938 0
M  V30 30102 H 2942.08 -2.14493 2.2987 0
M  V30 30103 N 2945.85 -1.40063 0.722513 0
M  V30 30104 C 2946.8 -2.3068 0.0744144 0
M  V30 30105 C 2947.77 -1.48557 -0.742978 0
M  V30 30106 O 2948.96 -1.77277 -0.705505 0
M  V30 30107 C 2946.1 -3.34815 -0.836233 0
M  V30 30108 C 2945.21 -4.31999 -0.00757069 0
M  V30 30109 C 2944.34 -5.23202 -0.918336 0
M  V30 30110 C 2943.38 -6.12042 -0.0841763 0
M  V30 30111 N 2942.52 -6.95641 -0.950193 0
M  V30 30112 H 2947.36 -2.85536 0.852844 0
M  V30 30113 H 2944.9 -1.40606 0.432247 0
M  V30 30114 H 2946.85 -3.93767 -1.37853 0
M  V30 30115 H 2945.48 -2.81445 -1.58077 0
M  V30 30116 H 2944.54 -3.74771 0.651994 0
M  V30 30117 H 2945.85 -4.94704 0.637947 0
M  V30 30118 H 2945 -5.87119 -1.52892 0
M  V30 30119 H 2943.74 -4.60789 -1.59766 0
M  V30 30120 H 2942.75 -5.47149 0.539296 0
M  V30 30121 H 2943.97 -6.76517 0.591747 0
M  V30 30122 H 2941.92 -6.35809 -1.61504 0
M  V30 30123 H 2941.83 -7.55138 -0.360872 0
M  V30 30124 H 2943.1 -7.64 -1.54674 0
M  V30 30125 N 2947.33 -0.469207 -1.50453 0
M  V30 30126 C 2948.58 0.0881071 -2.01507 0
M  V30 30127 C 2948.89 1.40953 -1.35615 0
M  V30 30128 O 2950.1 2.05168 -1.77816 0
M  V30 30129 C 2948.56 0.207533 -3.59301 0
M  V30 30130 C 2948.16 -1.10535 -4.3415 0
M  V30 30131 C 2949.91 0.716908 -4.18403 0
M  V30 30132 C 2947.81 -0.94982 -5.83723 0
M  V30 30133 H 2946.74 0.0367024 -0.753106 0
M  V30 30134 H 2949.4 -0.603818 -1.73281 0
M  V30 30135 H 2947.78 0.963197 -3.84107 0
M  V30 30136 H 2948.95 -1.87182 -4.21069 0
M  V30 30137 H 2947.27 -1.54569 -3.86649 0
M  V30 30138 H 2949.86 0.85027 -5.27896 0
M  V30 30139 H 2950.21 1.70775 -3.7966 0
M  V30 30140 H 2950.74 0.0186812 -3.97796 0
M  V30 30141 H 2947.48 -1.91398 -6.26935 0
M  V30 30142 H 2947 -0.223697 -5.99383 0
M  V30 30143 H 2948.68 -0.615683 -6.44064 0
M  V30 30144 N 2948.81 1.56303 -0.201741 0
M  V30 30145 C 2950.06 1.9806 0.435917 0
M  V30 30146 C 2950.39 1.08876 1.60809 0
M  V30 30147 O 2949.66 0.142163 1.9398 0
M  V30 30148 C 2949.95 3.48937 0.889645 0
M  V30 30149 C 2949.8 4.48897 -0.284803 0
M  V30 30150 C 2951.12 4.03688 1.75283 0
M  V30 30151 H 2948.24 0.720088 0.156978 0
M  V30 30152 H 2950.88 1.87712 -0.293998 0
M  V30 30153 H 2949.03 3.57887 1.5116 0
M  V30 30154 H 2950.7 4.5198 -0.92261 0
M  V30 30155 H 2948.94 4.23593 -0.935501 0
M  V30 30156 H 2949.62 5.51949 0.0752895 0
M  V30 30157 H 2952.09 3.9756 1.22823 0
M  V30 30158 H 2950.97 5.09614 2.03924 0
M  V30 30159 H 2951.23 3.49353 2.70933 0
M  V30 30160 N 2950.29 -0.0718147 1.57436 0
M  V30 30161 C 2951.22 -1.08567 2.06726 0
M  V30 30162 C 2952.2 -1.40369 0.960756 0
M  V30 30163 O 2953.38 -1.49997 1.23348 0
M  V30 30164 C 2950.51 -2.39912 2.51117 0
M  V30 30165 C 2949.47 -2.22462 3.65643 0
M  V30 30166 C 2948.79 -3.59191 3.96089 0
M  V30 30167 C 2950.09 -1.64587 4.9569 0
M  V30 30168 H 2951.79 -0.675518 2.9168 0
M  V30 30169 H 2949.33 -0.323496 1.40319 0
M  V30 30170 H 2951.29 -3.1113 2.84211 0
M  V30 30171 H 2950.01 -2.82907 1.63191 0
M  V30 30172 H 2948.67 -1.53685 3.32831 0
M  V30 30173 H 2948.32 -3.99756 3.05294 0
M  V30 30174 H 2948.02 -3.48354 4.73205 0
M  V30 30175 H 2949.54 -4.31839 4.31679 0
M  V30 30176 H 2950.96 -2.25671 5.27015 0
M  V30 30177 H 2949.35 -1.64447 5.77128 0
M  V30 30178 H 2950.42 -0.607355 4.81081 0
M  V30 30179 N 2951.77 -1.53818 -0.343203 0
M  V30 30180 C 2953.18 -1.44089 -0.68633 0
M  V30 30181 C 2953.38 -0.597916 -1.92425 0
M  V30 30182 O 2952.44 -0.0890362 -2.52343 0
M  V30 30183 C 2953.75 -2.87577 -0.878648 0
M  V30 30184 C 2955.3 -2.97353 -0.977243 0
M  V30 30185 C 2955.77 -4.41949 -1.20187 0
M  V30 30186 N 2957.26 -4.45476 -1.26907 0
M  V30 30187 C 2958 -5.54491 -1.46039 0
M  V30 30188 N 2957.5 -6.73511 -1.62342 0
M  V30 30189 N 2959.29 -5.42105 -1.4859 0
M  V30 30190 H 2951.44 -2.07118 0.470715 0
M  V30 30191 H 2953.7 -0.93627 0.148668 0
M  V30 30192 H 2953.41 -3.51677 -0.0405402 0
M  V30 30193 H 2953.28 -3.32544 -1.78028 0
M  V30 30194 H 2955.67 -2.33393 -1.80587 0
M  V30 30195 H 2955.75 -2.55746 -0.0525048 0
M  V30 30196 H 2955.39 -5.0649 -0.378173 0
M  V30 30197 H 2955.32 -4.81148 -2.14018 0
M  V30 30198 H 2957.82 -3.5971 -1.15831 0
M  V30 30199 H 2958.13 -7.52356 -1.76578 0
M  V30 30200 H 2956.47 -6.76455 -1.59478 0
M  V30 30201 H 2959.66 -4.48079 -1.35436 0
M  V30 30202 H 2959.84 -6.27123 -1.63159 0
M  V30 30203 N 2953.24 0.604233 -1.45557 0
M  V30 30204 C 2954.52 1.3637 -1.40223 0
M  V30 30205 C 2954.9 2.10968 -0.0745566 0
M  V30 30206 O 2954.25 2.08109 0.943557 0
M  V30 30207 C 2954.46 2.30773 -2.61811 0
M  V30 30208 C 2955.81 2.93276 -3.07042 0
M  V30 30209 O 2956.83 2.41093 -2.62207 0
M  V30 30210 O 2955.69 3.88004 -3.84857 0
M  V30 30211 H 2952.78 0.611646 -0.556613 0
M  V30 30212 H 2955.33 0.627041 -1.5769 0
M  V30 30213 H 2954.1 1.74933 -3.5002 0
M  V30 30214 H 2953.72 3.11814 -2.46694 0
M  V30 30215 N 2954.72 1.32903 0.847027 0
M  V30 30216 C 2955.67 1.22445 1.97763 0
M  V30 30217 C 2956.66 0.127576 1.68919 0
M  V30 30218 O 2957.87 0.291004 1.77632 0
M  V30 30219 H 2954.24 0.37976 0.649066 0
M  V30 30220 H 2956.22 2.18048 2.0371 0
M  V30 30221 C 2954.96 0.972184 3.33832 0
M  V30 30222 H 2954.29 1.80844 3.56561 0
M  V30 30223 H 2955.73 0.939282 4.13465 0
M  V30 30224 C 2954.19 -0.325 3.35329 0
M  V30 30225 O 2954.72 -1.33438 3.78889 0
M  V30 30226 N 2952.92 -0.349667 2.88489 0
M  V30 30227 H 2952.47 0.472281 2.53234 0
M  V30 30228 H 2952.43 -1.21743 2.89872 0
M  V30 30229 N 2956.2 -1.06426 1.16238 0
M  V30 30230 C 2957.45 -1.79465 0.944462 0
M  V30 30231 C 2957.78 -1.86926 -0.526525 0
M  V30 30232 O 2957.05 -1.35988 -1.39059 0
M  V30 30233 C 2957.34 -3.24025 1.57097 0
M  V30 30234 C 2957.19 -3.24653 3.11321 0
M  V30 30235 C 2958.51 -4.21542 1.26454 0
M  V30 30236 H 2955.63 -0.651511 0.344533 0
M  V30 30237 H 2958.27 -1.24475 1.43548 0
M  V30 30238 H 2956.42 -3.70983 1.15343 0
M  V30 30239 H 2958.09 -2.85867 3.62047 0
M  V30 30240 H 2956.33 -2.63344 3.44721 0
M  V30 30241 H 2957.01 -4.26627 3.50277 0
M  V30 30242 H 2959.48 -3.8302 1.62588 0
M  V30 30243 H 2958.36 -5.2096 1.72894 0
M  V30 30244 H 2958.62 -4.4172 0.183146 0
M  V30 30245 N 2957.68 -0.960653 -1.24937 0
M  V30 30246 C 2959.09 -0.65856 -1.74699 0
M  V30 30247 C 2959.44 0.825927 -1.77969 0
M  V30 30248 O 2958.57 1.64632 -1.40447 0
M  V30 30249 C 2959.16 -1.18873 -3.17261 0
M  V30 30250 C 2957.72 -0.936678 -3.64559 0
M  V30 30251 C 2956.87 -1.32822 -2.43421 0
M  V30 30252 H 2959.82 -1.13678 -1.10739 0
M  V30 30253 H 2959.84 -0.551655 -3.7648 0
M  V30 30254 H 2959.35 -2.26917 -3.1485 0
M  V30 30255 H 2957.45 0.128542 -3.72378 0
M  V30 30256 H 2957.56 -1.57737 -4.52389 0
M  V30 30257 H 2955.93 -0.746591 -2.43512 0
M  V30 30258 H 2956.71 -2.418 -2.43696 0
M  V30 30259 N 2959.16 1.39677 -0.729931 0
M  V30 30260 C 2960.1 2.32477 -0.0756998 0
M  V30 30261 C 2961.1 1.52796 0.731411 0
M  V30 30262 O 2962.3 1.68496 0.633166 0
M  V30 30263 H 2958.68 0.751979 -0.00567814 0
M  V30 30264 H 2960.65 2.85288 -0.874848 0
M  V30 30265 C 2959.4 3.37862 0.821253 0
M  V30 30266 H 2958.72 3.9925 0.209596 0
M  V30 30267 H 2960.16 4.05256 1.24672 0
M  V30 30268 C 2958.62 2.74499 1.95325 0
M  V30 30269 O 2959.15 2.61947 3.04543 0
M  V30 30270 N 2957.36 2.32663 1.74115 0
M  V30 30271 H 2956.9 2.43072 0.852865 0
M  V30 30272 H 2956.86 1.90608 2.50032 0
M  V30 30273 N 2960.63 0.47718 1.50202 0
M  V30 30274 C 2961.56 -0.303605 2.31518 0
M  V30 30275 C 2962.55 -0.984728 1.38698 0
M  V30 30276 O 2963.73 -0.980728 1.67617 0
M  V30 30277 C 2960.86 -1.38244 3.186 0
M  V30 30278 C 2959.81 -0.822572 4.20021 0
M  V30 30279 C 2959.14 -2.00015 4.95881 0
M  V30 30280 C 2960.44 0.170277 5.22022 0
M  V30 30281 H 2962.13 0.37508 2.97041 0
M  V30 30282 H 2959.68 0.181828 1.42847 0
M  V30 30283 H 2961.63 -1.93619 3.74286 0
M  V30 30284 H 2960.36 -2.08998 2.50973 0
M  V30 30285 H 2959.02 -0.290749 3.65445 0
M  V30 30286 H 2958.66 -2.69481 4.24722 0
M  V30 30287 H 2958.36 -1.63173 5.64489 0
M  V30 30288 H 2959.89 -2.55869 5.54404 0
M  V30 30289 H 2961.3 -0.294506 5.72543 0
M  V30 30290 H 2959.7 0.453286 5.98386 0
M  V30 30291 H 2960.77 1.09416 4.72394 0
M  V30 30292 N 2962.11 -1.56194 0.210027 0
M  V30 30293 C 2963.53 -1.58935 -0.145571 0
M  V30 30294 C 2963.73 -1.22659 -1.59865 0
M  V30 30295 O 2962.78 -0.956378 -2.33687 0
M  V30 30296 C 2964.1 -3.00217 0.170296 0
M  V30 30297 C 2965.65 -3.12801 0.111603 0
M  V30 30298 C 2966.12 -4.56241 0.400985 0
M  V30 30299 N 2967.61 -4.61875 0.350139 0
M  V30 30300 C 2968.35 -5.70778 0.547698 0
M  V30 30301 N 2967.84 -6.88091 0.806412 0
M  V30 30302 N 2969.64 -5.60039 0.480926 0
M  V30 30303 H 2961.79 -1.78052 1.15807 0
M  V30 30304 H 2964.05 -0.827055 0.463341 0
M  V30 30305 H 2963.76 -3.31371 1.17839 0
M  V30 30306 H 2963.63 -3.73597 -0.520143 0
M  V30 30307 H 2966.02 -2.8145 -0.887112 0
M  V30 30308 H 2966.1 -2.41776 0.835345 0
M  V30 30309 H 2965.74 -4.88307 1.39709 0
M  V30 30310 H 2965.67 -5.25476 -0.343818 0
M  V30 30311 H 2968.16 -3.77572 0.157401 0
M  V30 30312 H 2968.48 -7.66993 0.945568 0
M  V30 30313 H 2966.82 -6.89863 0.843476 0
M  V30 30314 H 2970.01 -4.67267 0.279119 0
M  V30 30315 H 2970.18 -6.44849 0.638302 0
M  V30 30316 N 2963.59 0.0634645 -1.57472 0
M  V30 30317 C 2964.84 0.75953 -1.87285 0
M  V30 30318 C 2965.16 1.77691 -0.803166 0
M  V30 30319 O 2964.43 1.95185 0.167259 0
M  V30 30320 H 2963.01 0.283503 -0.691111 0
M  V30 30321 H 2965.67 0.0375748 -1.94864 0
M  V30 30322 H 2964.77 1.27057 -2.85067 0
M  V30 30323 N 2965.07 1.53998 0.33504 0
M  V30 30324 C 2966 1.85571 1.41724 0
M  V30 30325 C 2966.98 0.711528 1.54503 0
M  V30 30326 O 2968.16 0.964221 1.68572 0
M  V30 30327 C 2965.29 2.07287 2.78657 0
M  V30 30328 C 2964.25 3.23117 2.80677 0
M  V30 30329 C 2963.57 3.30182 4.20575 0
M  V30 30330 C 2964.87 4.61033 2.4545 0
M  V30 30331 H 2966.57 2.76204 1.1555 0
M  V30 30332 H 2964.11 1.32899 0.554421 0
M  V30 30333 H 2966.07 2.27959 3.54419 0
M  V30 30334 H 2964.79 1.13392 3.06284 0
M  V30 30335 H 2963.45 3.02314 2.07368 0
M  V30 30336 H 2963.1 2.33867 4.45326 0
M  V30 30337 H 2962.8 4.08024 4.22836 0
M  V30 30338 H 2964.32 3.53075 4.98167 0
M  V30 30339 H 2965.74 4.81662 3.10925 0
M  V30 30340 H 2964.13 5.4134 2.58981 0
M  V30 30341 H 2965.2 4.64063 1.4062 0
M  V30 30342 N 2966.55 -0.596505 1.45875 0
M  V30 30343 C 2967.48 -1.72067 1.51411 0
M  V30 30344 C 2968.49 -1.57714 0.403765 0
M  V30 30345 O 2969.68 -1.65391 0.671413 0
M  V30 30346 C 2966.78 -3.10184 1.36526 0
M  V30 30347 C 2965.95 -3.50672 2.61434 0
M  V30 30348 C 2965.01 -4.67794 2.40946 0
M  V30 30349 O 2964.04 -4.74351 3.1461 0
M  V30 30350 N 2965.24 -5.61783 1.4622 0
M  V30 30351 H 2968.01 -1.67778 2.48336 0
M  V30 30352 H 2965.57 -0.782105 1.41756 0
M  V30 30353 H 2967.56 -3.86309 1.20613 0
M  V30 30354 H 2966.13 -3.08918 0.478357 0
M  V30 30355 H 2965.35 -2.64394 2.92385 0
M  V30 30356 H 2966.64 -3.74485 3.44439 0
M  V30 30357 H 2966.03 -5.59209 0.854481 0
M  V30 30358 H 2964.59 -6.37395 1.36275 0
M  V30 30359 N 2968.02 -1.3335 -0.839967 0
M  V30 30360 C 2969.27 -1.2493 -1.59751 0
M  V30 30361 C 2969.6 0.184821 -1.93319 0
M  V30 30362 O 2968.88 1.12586 -1.58602 0
M  V30 30363 C 2969.16 -2.1235 -2.90825 0
M  V30 30364 C 2969.01 -3.64215 -2.63946 0
M  V30 30365 C 2970.33 -1.99584 -3.92243 0
M  V30 30366 H 2967.45 -0.45517 -0.579646 0
M  V30 30367 H 2970.09 -1.6344 -0.96888 0
M  V30 30368 H 2968.24 -1.79637 -3.44475 0
M  V30 30369 H 2969.92 -4.07213 -2.16738 0
M  V30 30370 H 2968.16 -3.86149 -1.97664 0
M  V30 30371 H 2968.83 -4.20727 -3.57341 0
M  V30 30372 H 2971.31 -2.28271 -3.47896 0
M  V30 30373 H 2970.18 -2.63005 -4.81788 0
M  V30 30374 H 2970.44 -0.967749 -4.31378 0
M  V30 30375 N 2969.5 1.05808 -1.16801 0
M  V30 30376 C 2970.73 1.8212 -0.975486 0
M  V30 30377 C 2971.14 1.83022 0.479552 0
M  V30 30378 O 2970.48 1.25155 1.34469 0
M  V30 30379 C 2970.55 3.29742 -1.43215 0
M  V30 30380 C 2970.21 3.52535 -2.90806 0
M  V30 30381 C 2971.21 3.45174 -3.88781 0
M  V30 30382 C 2968.89 3.79698 -3.28839 0
M  V30 30383 C 2970.89 3.64652 -5.22789 0
M  V30 30384 C 2968.57 3.98824 -4.63014 0
M  V30 30385 C 2969.57 3.91299 -5.59798 0
M  V30 30386 O 2969.26 4.09899 -6.91547 0
M  V30 30387 H 2968.99 0.580941 -0.345665 0
M  V30 30388 H 2971.54 1.34362 -1.55358 0
M  V30 30389 H 2969.77 3.78386 -0.79757 0
M  V30 30390 H 2971.46 3.87562 -1.20627 0
M  V30 30391 H 2972.23 3.24174 -3.60744 0
M  V30 30392 H 2968.11 3.84661 -2.5408 0
M  V30 30393 H 2971.65 3.58694 -5.98318 0
M  V30 30394 H 2967.55 4.19315 -4.9076 0
M  V30 30395 H 2968.32 4.2716 -6.98195 0
M  V30 30396 N 2970.98 0.967265 1.24426 0
M  V30 30397 C 2971.93 0.468145 2.23142 0
M  V30 30398 C 2972.91 -0.449606 1.54491 0
M  V30 30399 O 2974.11 -0.280599 1.74762 0
M  V30 30400 C 2971.24 -0.240806 3.42454 0
M  V30 30401 C 2970.32 0.695748 4.18354 0
M  V30 30402 N 2970.71 1.83281 4.71425 0
M  V30 30403 C 2969.01 0.506443 4.43115 0
M  V30 30404 C 2969.71 2.41858 5.29037 0
M  V30 30405 N 2968.69 1.70378 5.1621 0
M  V30 30406 H 2972.49 1.33574 2.61792 0
M  V30 30407 H 2970 0.826302 1.39807 0
M  V30 30408 H 2972 -0.615596 4.1233 0
M  V30 30409 H 2970.66 -1.10485 3.05325 0
M  V30 30410 H 2971.67 2.21436 4.68174 0
M  V30 30411 H 2968.35 -0.313674 4.1632 0
M  V30 30412 H 2969.74 3.3781 5.80805 0
M  V30 30413 N 2972.46 -1.39288 0.737328 0
M  V30 30414 C 2973.88 -1.5416 0.413159 0
M  V30 30415 C 2974.08 -1.70384 -1.07571 0
M  V30 30416 O 2973.13 -1.70565 -1.86182 0
M  V30 30417 C 2974.44 -2.75796 1.19822 0
M  V30 30418 C 2975.99 -2.89633 1.18667 0
M  V30 30419 C 2976.47 -4.1421 1.95434 0
M  V30 30420 N 2977.96 -4.21254 1.92612 0
M  V30 30421 C 2978.69 -5.16602 2.48817 0
M  V30 30422 N 2978.19 -6.17724 3.13669 0
M  V30 30423 N 2979.98 -5.08835 2.38838 0
M  V30 30424 H 2972.13 -1.27005 1.70246 0
M  V30 30425 H 2974.4 -0.615737 0.720813 0
M  V30 30426 H 2974.1 -2.70157 2.25184 0
M  V30 30427 H 2973.98 -3.68527 0.804209 0
M  V30 30428 H 2976.36 -2.94762 0.141163 0
M  V30 30429 H 2976.44 -1.97958 1.62007 0
M  V30 30430 H 2976.09 -4.09842 2.99987 0
M  V30 30431 H 2976.02 -5.04933 1.49499 0
M  V30 30432 H 2978.51 -3.48822 1.45368 0
M  V30 30433 H 2978.82 -6.86943 3.54018 0
M  V30 30434 H 2977.17 -6.18105 3.1776 0
M  V30 30435 H 2980.36 -4.2877 1.87814 0
M  V30 30436 H 2980.53 -5.82966 2.82939 0
M  V30 30437 N 2973.94 -0.485139 -1.49947 0
M  V30 30438 C 2975.35 -0.140124 -1.58984 0
M  V30 30439 C 2975.55 1.35435 -1.49196 0
M  V30 30440 O 2974.61 2.12892 -1.35769 0
M  V30 30441 C 2975.92 -0.702821 -2.92371 0
M  V30 30442 C 2977.47 -0.667503 -3.058 0
M  V30 30443 C 2977.95 -1.20799 -4.41782 0
M  V30 30444 N 2979.44 -1.168 -4.48232 0
M  V30 30445 C 2980.17 -1.55656 -5.51869 0
M  V30 30446 N 2979.67 -2.02028 -6.62689 0
M  V30 30447 N 2981.46 -1.47171 -5.42492 0
M  V30 30448 H 2973.61 -1.45696 -1.54552 0
M  V30 30449 H 2975.87 -0.603372 -0.731195 0
M  V30 30450 H 2975.58 -1.75031 -3.05053 0
M  V30 30451 H 2975.45 -0.154271 -3.76884 0
M  V30 30452 H 2977.84 0.371105 -2.92757 0
M  V30 30453 H 2977.92 -1.25302 -2.23009 0
M  V30 30454 H 2977.57 -2.2453 -4.55575 0
M  V30 30455 H 2977.5 -0.598556 -5.23187 0
M  V30 30456 H 2979.99 -0.828047 -3.68716 0
M  V30 30457 H 2980.3 -2.29788 -7.37846 0
M  V30 30458 H 2978.65 -2.05991 -6.63772 0
M  V30 30459 H 2981.84 -1.10773 -4.54804 0
M  V30 30460 H 2982.01 -1.77777 -6.23137 0
M  V30 30461 N 2975.42 1.56081 -0.218307 0
M  V30 30462 C 2976.36 2.2151 0.70964 0
M  V30 30463 C 2977.36 1.19348 1.20219 0
M  V30 30464 O 2978.56 1.37436 1.16239 0
M  V30 30465 H 2974.94 0.710188 0.247258 0
M  V30 30466 H 2976.91 2.98097 0.134334 0
M  V30 30467 C 2975.66 2.90641 1.90848 0
M  V30 30468 H 2974.98 3.69009 1.53859 0
M  V30 30469 H 2976.42 3.39827 2.53562 0
M  V30 30470 C 2974.88 1.92934 2.76185 0
M  V30 30471 O 2975.41 1.44423 3.7484 0
M  V30 30472 N 2973.62 1.60654 2.42154 0
M  V30 30473 H 2973.16 2.00297 1.61984 0
M  V30 30474 H 2973.12 0.9554 2.99532 0
M  V30 30475 N 2976.89 -0.0551124 1.57504 0
M  V30 30476 C 2977.86 -1.04817 2.03828 0
M  V30 30477 C 2978.86 -1.30608 0.937991 0
M  V30 30478 O 2980.05 -1.26048 1.2024 0
M  V30 30479 C 2977.18 -2.38771 2.43313 0
M  V30 30480 H 2978.37 -0.648548 2.92803 0
M  V30 30481 H 2975.92 -0.301288 1.53369 0
M  V30 30482 H 2976.66 -2.83533 1.57415 0
M  V30 30483 H 2976.44 -2.21389 3.23619 0
M  V30 30484 H 2977.93 -3.10119 2.79671 0
M  V30 30485 N 2978.37 -1.54173 -0.326869 0
M  V30 30486 C 2979.33 -1.82612 -1.38512 0
M  V30 30487 C 2980.33 -0.697796 -1.4487 0
M  V30 30488 O 2981.52 -0.966104 -1.44955 0
M  V30 30489 C 2978.66 -1.98318 -2.77278 0
M  V30 30490 H 2979.85 -2.77161 -1.14551 0
M  V30 30491 H 2977.4 -1.4584 -0.562174 0
M  V30 30492 H 2978.14 -1.05969 -3.06498 0
M  V30 30493 H 2977.92 -2.8042 -2.74056 0
M  V30 30494 H 2979.41 -2.21779 -3.53841 0
M  V30 30495 N 2979.85 0.58876 -1.4619 0
M  V30 30496 C 2980.76 1.72621 -1.58868 0
M  V30 30497 C 2981.78 1.67465 -0.472378 0
M  V30 30498 O 2982.95 1.87483 -0.735671 0
M  V30 30499 C 2980.02 3.09117 -1.56995 0
M  V30 30500 C 2979.08 3.25584 -2.7981 0
M  V30 30501 C 2978.31 4.55568 -2.78017 0
M  V30 30502 O 2978.53 5.39078 -1.86416 0
M  V30 30503 O 2977.47 4.75152 -3.69478 0
M  V30 30504 H 2981.29 1.64873 -2.5505 0
M  V30 30505 H 2978.88 0.755092 -1.28914 0
M  V30 30506 H 2980.76 3.90405 -1.58625 0
M  V30 30507 H 2979.44 3.17316 -0.639704 0
M  V30 30508 H 2978.34 2.43813 -2.83736 0
M  V30 30509 H 2979.68 3.22273 -3.72023 0
M  V30 30510 N 2981.33 1.33794 0.832883 0
M  V30 30511 C 2982.55 1.28791 1.62566 0
M  V30 30512 C 2982.98 -0.137213 1.87599 0
M  V30 30513 O 2982.34 -1.09578 1.44438 0
M  V30 30514 C 2982.38 2.07458 2.94946 0
M  V30 30515 O 2981.49 1.43728 3.86544 0
M  V30 30516 H 2980.83 0.442796 0.494801 0
M  V30 30517 H 2983.36 1.76447 1.03575 0
M  V30 30518 H 2983.37 2.18446 3.44595 0
M  V30 30519 H 2982.04 3.11078 2.76049 0
M  V30 30520 H 2980.62 1.41423 3.45042 0
M  V30 30521 N 2982.81 -1.05187 1.1736 0
M  V30 30522 C 2984.03 -1.82402 0.987122 0
M  V30 30523 C 2984.46 -1.82393 -0.459816 0
M  V30 30524 O 2983.81 -1.23294 -1.32922 0
M  V30 30525 C 2983.86 -3.264 1.53282 0
M  V30 30526 O 2982.97 -4.05585 0.746612 0
M  V30 30527 H 2982.31 -0.563968 0.35048 0
M  V30 30528 H 2984.84 -1.32549 1.55859 0
M  V30 30529 H 2984.85 -3.77201 1.55511 0
M  V30 30530 H 2983.52 -3.25721 2.58608 0
M  V30 30531 H 2982.1 -3.64311 0.795735 0
M  V30 30532 N 2984.28 -0.97385 -1.23911 0
M  V30 30533 C 2985.23 -0.501019 -2.2714 0
M  V30 30534 C 2986.23 0.438602 -1.63623 0
M  V30 30535 O 2987.43 0.313216 -1.77254 0
M  V30 30536 H 2983.81 -0.143573 -0.738167 0
M  V30 30537 H 2985.78 -1.38351 -2.64389 0
M  V30 30538 C 2984.53 0.187316 -3.47195 0
M  V30 30539 H 2983.85 -0.526605 -3.96317 0
M  V30 30540 H 2985.29 0.481888 -4.21253 0
M  V30 30541 C 2983.75 1.41637 -3.05681 0
M  V30 30542 O 2984.28 2.51303 -3.13384 0
M  V30 30543 N 2982.48 1.28464 -2.60663 0
M  V30 30544 H 2982.03 0.392335 -2.54595 0
M  V30 30545 H 2981.99 2.10809 -2.33253 0
M  V30 30546 N 2985.76 1.38895 -0.744705 0
M  V30 30547 C 2987.01 1.99916 -0.296333 0
M  V30 30548 C 2987.33 1.59401 1.12323 0
M  V30 30549 O 2986.6 0.84672 1.76656 0
M  V30 30550 H 2985.18 0.739359 -0.106574 0
M  V30 30551 H 2987.84 1.69797 -0.956823 0
M  V30 30552 H 2986.94 3.10104 -0.352411 0
M  V30 30553 N 2987.24 0.493084 1.49688 0
M  V30 30554 C 2988.48 -0.0527014 2.04332 0
M  V30 30555 C 2988.84 -1.35 1.36524 0
M  V30 30556 O 2990.05 -1.97954 1.81845 0
M  V30 30557 C 2988.32 -0.209981 3.56783 0
M  V30 30558 S 2989.88 -0.711156 4.32999 0
M  V30 30559 H 2986.69 -0.00553604 0.710978 0
M  V30 30560 H 2989.3 0.665246 1.83833 0
M  V30 30561 H 2988 0.739637 4.0368 0
M  V30 30562 H 2987.53 -0.953401 3.81672 0
M  V30 30563 H 2989.55 -1.98148 4.5492 0
M  V30 30564 N 2988.72 -1.55963 0.226582 0
M  V30 30565 C 2989.94 -2.03277 -0.411491 0
M  V30 30566 C 2990.37 -1.10524 -1.52204 0
M  V30 30567 O 2989.73 -0.0943536 -1.81054 0
M  V30 30568 C 2989.77 -3.48782 -0.915632 0
M  V30 30569 O 2988.88 -3.59166 -2.02665 0
M  V30 30570 H 2988.22 -0.657528 -0.0924791 0
M  V30 30571 H 2990.75 -2.01641 0.346691 0
M  V30 30572 H 2990.76 -3.89203 -1.22415 0
M  V30 30573 H 2989.43 -4.15773 -0.102842 0
M  V30 30574 H 2988.01 -3.30635 -1.72439 0
M  V30 30575 N 2990.2 0.0467589 -1.57531 0
M  V30 30576 C 2991.14 1.07136 -2.06457 0
M  V30 30577 C 2992.14 1.38545 -0.974768 0
M  V30 30578 O 2993.34 1.37657 -1.15976 0
M  V30 30579 H 2989.72 0.36295 -0.658613 0
M  V30 30580 H 2991.69 0.632762 -2.91614 0
M  V30 30581 C 2990.44 2.36923 -2.54486 0
M  V30 30582 H 2989.76 2.13611 -3.3795 0
M  V30 30583 H 2991.2 3.07002 -2.92448 0
M  V30 30584 C 2989.66 3.0465 -1.43841 0
M  V30 30585 O 2990.19 3.93763 -0.7946 0
M  V30 30586 N 2988.4 2.65684 -1.17731 0
M  V30 30587 H 2987.94 1.93304 -1.70268 0
M  V30 30588 H 2987.9 3.11319 -0.439105 0
M  V30 30589 N 2991.67 1.54344 0.318688 0
M  V30 30590 C 2992.62 1.848 1.41251 0
M  V30 30591 C 2993.62 0.720283 1.53324 0
M  V30 30592 O 2994.82 0.904019 1.55652 0
M  V30 30593 H 2991.2 0.58586 0.471458 0
M  V30 30594 H 2993.17 2.76262 1.1279 0
M  V30 30595 C 2991.92 2.09642 2.77391 0
M  V30 30596 H 2991.24 2.95881 2.68876 0
M  V30 30597 H 2992.68 2.34902 3.52983 0
M  V30 30598 C 2991.14 0.889455 3.24947 0
M  V30 30599 O 2991.67 0.101133 4.01573 0
M  V30 30600 N 2989.88 0.699734 2.8205 0
M  V30 30601 H 2989.42 1.34244 2.19855 0
M  V30 30602 H 2989.38 -0.106313 3.1422 0
M  V30 30603 N 2993.15 -0.580999 1.465 0
M  V30 30604 C 2994.09 -1.70469 1.51709 0
M  V30 30605 C 2995.06 -1.58309 0.371064 0
M  V30 30606 O 2996.25 -1.79501 0.575458 0
M  V30 30607 C 2993.37 -3.08536 1.39726 0
M  V30 30608 C 2992.42 -3.39211 2.58531 0
M  V30 30609 S 2993.25 -3.31093 4.20878 0
M  V30 30610 C 2994.41 -4.71694 4.11406 0
M  V30 30611 H 2994.64 -1.65792 2.4678 0
M  V30 30612 H 2992.18 -0.759884 1.34407 0
M  V30 30613 H 2994.13 -3.88186 1.33499 0
M  V30 30614 H 2992.79 -3.10702 0.460797 0
M  V30 30615 H 2991.99 -4.39805 2.46145 0
M  V30 30616 H 2991.59 -2.67132 2.61757 0
M  V30 30617 H 2993.88 -5.62118 3.78192 0
M  V30 30618 H 2994.82 -4.89138 5.12005 0
M  V30 30619 H 2995.23 -4.48625 3.42631 0
M  V30 30620 N 2994.63 -1.34234 -0.825776 0
M  V30 30621 C 2995.58 -1.25576 -1.9579 0
M  V30 30622 C 2996.57 -0.154433 -1.68695 0
M  V30 30623 O 2997.78 -0.319227 -1.77147 0
M  V30 30624 H 2994.15 -0.390038 -0.642942 0
M  V30 30625 H 2996.12 -2.21261 -2.00215 0
M  V30 30626 C 2994.87 -1.02517 -3.32243 0
M  V30 30627 H 2994.2 -1.86493 -3.53639 0
M  V30 30628 H 2995.64 -1.00494 -4.11919 0
M  V30 30629 C 2994.1 0.271611 -3.35803 0
M  V30 30630 O 2994.63 1.27394 -3.80964 0
M  V30 30631 N 2992.83 0.303727 -2.89008 0
M  V30 30632 H 2992.38 -0.512508 -2.5245 0
M  V30 30633 H 2992.34 1.17116 -2.91773 0
M  V30 30634 N 2996.11 1.04563 -1.17917 0
M  V30 30635 C 2997.07 2.10627 -0.903824 0
M  V30 30636 C 2998.07 1.60432 0.108702 0
M  V30 30637 O 2999.26 1.73757 -0.124183 0
M  V30 30638 C 2996.39 3.39046 -0.355077 0
M  V30 30639 H 2997.59 2.36486 -1.8443 0
M  V30 30640 H 2995.14 1.20908 -0.990499 0
M  V30 30641 H 2995.87 3.18846 0.592241 0
M  V30 30642 H 2995.66 3.76792 -1.0849 0
M  V30 30643 H 2997.15 4.17208 -0.180964 0
M  V30 30644 N 2997.59 0.980408 1.23393 0
M  V30 30645 C 2998.83 0.657322 1.93542 0
M  V30 30646 C 2999.19 -0.794446 1.74793 0
M  V30 30647 O 3000.39 -1.22836 2.39092 0
M  V30 30648 C 2998.66 1.03707 3.42023 0
M  V30 30649 S 3000.22 0.830455 4.3087 0
M  V30 30650 H 2997.04 0.240728 0.669007 0
M  V30 30651 H 2999.64 1.26005 1.49476 0
M  V30 30652 H 2998.35 2.09028 3.53179 0
M  V30 30653 H 2997.88 0.425628 3.91091 0
M  V30 30654 H 2999.89 -0.285632 4.95377 0
M  V30 30655 N 2999.06 -1.38498 0.75206 0
M  V30 30656 C 3000 -2.29048 0.0835492 0
M  V30 30657 C 3001.01 -1.4767 -0.685376 0
M  V30 30658 O 3002.2 -1.70552 -0.526718 0
M  V30 30659 C 2999.3 -3.26573 -0.905715 0
M  V30 30660 C 2998.47 -4.36966 -0.194751 0
M  V30 30661 C 2997.53 -5.1469 -1.09455 0
M  V30 30662 O 2996.56 -5.66382 -0.565643 0
M  V30 30663 N 2997.76 -5.27524 -2.42278 0
M  V30 30664 H 3000.52 -2.8706 0.861193 0
M  V30 30665 H 2998.08 -1.50263 0.602716 0
M  V30 30666 H 3000.08 -3.75448 -1.51065 0
M  V30 30667 H 2998.65 -2.6947 -1.58445 0
M  V30 30668 H 2997.87 -3.89746 0.59088 0
M  V30 30669 H 2999.15 -5.07931 0.297278 0
M  V30 30670 H 2998.55 -4.87075 -2.87706 0
M  V30 30671 H 2997.11 -5.79778 -2.97826 0
M  V30 30672 N 3000.54 -0.501015 -1.49424 0
M  V30 30673 C 3001.47 0.314119 -2.27037 0
M  V30 30674 C 3002.49 0.930603 -1.3358 0
M  V30 30675 O 3003.68 0.81394 -1.58862 0
M  V30 30676 C 3000.78 1.45724 -3.0597 0
M  V30 30677 C 2999.95 0.94806 -4.27002 0
M  V30 30678 C 2999.01 1.96879 -4.87981 0
M  V30 30679 O 2998.03 1.53733 -5.48046 0
M  V30 30680 N 2999.24 3.2992 -4.77633 0
M  V30 30681 H 3002 -0.351388 -2.97633 0
M  V30 30682 H 2999.56 -0.333564 -1.58427 0
M  V30 30683 H 3001.55 2.13764 -3.43638 0
M  V30 30684 H 3000.12 2.0269 -2.37982 0
M  V30 30685 H 2999.34 0.0925618 -3.94091 0
M  V30 30686 H 3000.63 0.586273 -5.05411 0
M  V30 30687 H 3000.03 3.67661 -4.29932 0
M  V30 30688 H 2998.59 3.93673 -5.19485 0
M  V30 30689 N 3002.02 1.5584 -0.234849 0
M  V30 30690 C 3003.27 1.97821 0.39365 0
M  V30 30691 C 3003.58 1.12592 1.59945 0
M  V30 30692 O 3004.79 1.44532 2.29832 0
M  V30 30693 C 3003.25 3.51961 0.751749 0
M  V30 30694 C 3002.85 4.45913 -0.431976 0
M  V30 30695 C 3004.6 4.02625 1.34511 0
M  V30 30696 C 3002.5 5.91378 -0.0507016 0
M  V30 30697 H 3001.43 0.738756 0.150851 0
M  V30 30698 H 3004.09 1.8045 -0.333164 0
M  V30 30699 H 3002.47 3.64982 1.53636 0
M  V30 30700 H 3003.64 4.44645 -1.20943 0
M  V30 30701 H 3001.96 4.05664 -0.939457 0
M  V30 30702 H 3004.55 5.08815 1.6435 0
M  V30 30703 H 3004.9 3.49259 2.26547 0
M  V30 30704 H 3005.43 3.92881 0.62366 0
M  V30 30705 H 3002.17 6.48756 -0.937893 0
M  V30 30706 H 3001.69 5.95809 0.690793 0
M  V30 30707 H 3003.37 6.45933 0.371347 0
M  V30 30708 N 3003.5 -0.038404 1.57553 0
M  V30 30709 C 3004.74 -0.736036 1.90688 0
M  V30 30710 C 3005.1 -1.73017 0.832411 0
M  V30 30711 O 3006.3 -2.47537 1.04781 0
M  V30 30712 C 3004.58 -1.39629 3.28996 0
M  V30 30713 S 3006.13 -2.12437 3.83948 0
M  V30 30714 H 3002.95 -0.244048 0.667804 0
M  V30 30715 H 3005.55 0.00905079 1.95498 0
M  V30 30716 H 3004.26 -0.659394 4.05068 0
M  V30 30717 H 3003.79 -2.18012 3.27466 0
M  V30 30718 H 3005.8 -3.39451 3.61922 0
M  V30 30719 N 3004.98 -1.54511 -0.310498 0
M  V30 30720 C 3005.91 -1.87802 -1.38754 0
M  V30 30721 C 3006.89 -0.736018 -1.53352 0
M  V30 30722 O 3008.07 -0.990917 -1.67016 0
M  V30 30723 C 3005.2 -2.11694 -2.75323 0
M  V30 30724 C 3004.16 -3.27541 -2.75501 0
M  V30 30725 C 3003.48 -3.36832 -4.15269 0
M  V30 30726 C 3004.78 -4.6488 -2.38084 0
M  V30 30727 H 3006.48 -2.78007 -1.11141 0
M  V30 30728 H 3004.02 -1.33764 -0.533208 0
M  V30 30729 H 3005.98 -2.33568 -3.50748 0
M  V30 30730 H 3004.7 -1.1825 -3.04441 0
M  V30 30731 H 3003.36 -3.05575 -2.02532 0
M  V30 30732 H 3003.01 -2.40922 -4.41549 0
M  V30 30733 H 3002.71 -4.14699 -4.16291 0
M  V30 30734 H 3004.23 -3.60955 -4.92487 0
M  V30 30735 H 3005.65 -4.86548 -3.03223 0
M  V30 30736 H 3004.04 -5.45392 -2.50335 0
M  V30 30737 H 3005.11 -4.66241 -1.33219 0
M  V30 30738 N 3006.46 0.573222 -1.46806 0
M  V30 30739 C 3007.87 1.15536 -1.46657 0
M  V30 30740 C 3008.22 1.95045 -0.212535 0
M  V30 30741 O 3007.34 2.05315 0.683723 0
M  V30 30742 C 3007.94 2.10193 -2.65715 0
M  V30 30743 C 3006.5 2.63711 -2.68577 0
M  V30 30744 C 3005.64 1.39767 -2.395 0
M  V30 30745 H 3008.59 0.360653 -1.54548 0
M  V30 30746 H 3008.62 2.93813 -2.41773 0
M  V30 30747 H 3008.13 1.52297 -3.5697 0
M  V30 30748 H 3006.23 3.2545 -1.81419 0
M  V30 30749 H 3006.34 3.05798 -3.68814 0
M  V30 30750 H 3004.71 1.69901 -1.89752 0
M  V30 30751 H 3005.49 0.836884 -3.32943 0
M  V30 30752 N 3007.93 1.3467 0.818645 0
M  V30 30753 C 3009.18 1.27455 1.57743 0
M  V30 30754 C 3009.51 -0.154043 1.93588 0
M  V30 30755 O 3008.79 -1.10048 1.60373 0
M  V30 30756 C 3009.07 2.1695 2.8741 0
M  V30 30757 C 3008.92 3.68368 2.58119 0
M  V30 30758 C 3010.24 2.05799 3.89018 0
M  V30 30759 H 3007.36 0.464334 0.572331 0
M  V30 30760 H 3010 1.64961 0.942755 0
M  V30 30761 H 3008.15 1.85095 3.41573 0
M  V30 30762 H 3009.83 4.1061 2.10232 0
M  V30 30763 H 3008.07 3.89245 1.91496 0
M  V30 30764 H 3008.74 4.26359 3.50602 0
M  V30 30765 H 3011.22 2.33777 3.4422 0
M  V30 30766 H 3010.09 2.70637 4.77543 0
M  V30 30767 H 3010.35 1.03625 4.29784 0
M  V30 30768 N 3009.41 -1.03936 1.1847 0
M  V30 30769 C 3010.82 -1.58612 0.984836 0
M  V30 30770 C 3011.17 -1.90607 -0.465131 0
M  V30 30771 O 3010.3 -1.69706 -1.34271 0
M  V30 30772 C 3010.89 -2.88187 1.7814 0
M  V30 30773 C 3009.45 -3.39475 1.62585 0
M  V30 30774 C 3008.6 -2.13043 1.77505 0
M  V30 30775 H 3011.55 -0.865921 1.32994 0
M  V30 30776 H 3011.57 -3.58635 1.27125 0
M  V30 30777 H 3011.08 -2.64869 2.83665 0
M  V30 30778 H 3009.18 -3.67802 0.596015 0
M  V30 30779 H 3009.3 -4.13213 2.4247 0
M  V30 30780 H 3007.66 -2.24412 1.20464 0
M  V30 30781 H 3008.44 -1.9218 2.84468 0
M  V30 30782 N 3010.89 -0.986938 -1.22871 0
M  V30 30783 C 3012.14 -0.658155 -1.91083 0
M  V30 30784 C 3012.46 0.811644 -1.77306 0
M  V30 30785 O 3011.73 1.58119 -1.15651 0
M  V30 30786 H 3010.31 -0.240439 -0.707247 0
M  V30 30787 H 3012.97 -1.25216 -1.49355 0
M  V30 30788 H 3012.07 -0.915481 -2.98371 0
M  V30 30789 N 3012.37 1.38098 -0.759394 0
M  V30 30790 C 3013.62 1.9959 -0.31752 0
M  V30 30791 C 3013.94 1.60583 1.10626 0
M  V30 30792 O 3013.21 0.865409 1.75748 0
M  V30 30793 H 3011.79 0.738187 -0.11441 0
M  V30 30794 H 3014.45 1.68772 -0.974779 0
M  V30 30795 H 3013.54 3.09713 -0.385282 0
M  V30 30796 N 3013.85 0.508932 1.49156 0
M  V30 30797 C 3014.78 -0.254429 2.3211 0
M  V30 30798 C 3015.76 -0.955087 1.40755 0
M  V30 30799 O 3016.94 -0.944954 1.69659 0
M  V30 30800 C 3014.07 -1.31455 3.21461 0
M  V30 30801 C 3013.03 -0.733294 4.21671 0
M  V30 30802 C 3012.35 -1.89451 5.00012 0
M  V30 30803 C 3013.65 0.280967 5.21544 0
M  V30 30804 H 3015.35 0.438002 2.96179 0
M  V30 30805 H 3012.89 0.212087 1.4243 0
M  V30 30806 H 3014.84 -1.85636 3.78308 0
M  V30 30807 H 3013.57 -2.03627 2.5535 0
M  V30 30808 H 3012.23 -0.213167 3.6598 0
M  V30 30809 H 3011.88 -2.60411 4.30343 0
M  V30 30810 H 3011.58 -1.51163 5.67824 0
M  V30 30811 H 3013.1 -2.44051 5.59706 0
M  V30 30812 H 3014.51 -0.172995 5.73039 0
M  V30 30813 H 3012.91 0.580111 5.97289 0
M  V30 30814 H 3013.98 1.19412 4.69967 0
M  V30 30815 N 3015.32 -1.55714 0.243111 0
M  V30 30816 C 3016.57 -1.98851 -0.382685 0
M  V30 30817 C 3016.9 -1.13118 -1.58223 0
M  V30 30818 O 3016.15 -0.181101 -1.9486 0
M  V30 30819 C 3016.45 -3.47399 -0.83956 0
M  V30 30820 C 3016.12 -4.50196 0.251816 0
M  V30 30821 C 3014.78 -4.78028 0.551571 0
M  V30 30822 C 3017.13 -5.11734 0.988818 0
M  V30 30823 C 3014.46 -5.64675 1.59247 0
M  V30 30824 C 3016.81 -5.99509 2.01921 0
M  V30 30825 C 3015.48 -6.25675 2.32565 0
M  V30 30826 H 3014.75 -0.727648 -0.140034 0
M  V30 30827 H 3017.39 -1.88272 0.350143 0
M  V30 30828 H 3015.7 -3.55291 -1.65152 0
M  V30 30829 H 3017.4 -3.78162 -1.33397 0
M  V30 30830 H 3013.99 -4.28599 0.00804275 0
M  V30 30831 H 3018.17 -4.90283 0.770486 0
M  V30 30832 H 3013.43 -5.83205 1.83527 0
M  V30 30833 H 3017.6 -6.46236 2.59522 0
M  V30 30834 H 3015.23 -6.9261 3.13361 0
M  V30 30835 N 3016.8 0.030048 -1.57571 0
M  V30 30836 C 3018.03 0.736567 -1.9388 0
M  V30 30837 C 3018.45 1.68151 -0.843028 0
M  V30 30838 O 3017.81 1.80179 0.201318 0
M  V30 30839 C 3017.86 1.47061 -3.2925 0
M  V30 30840 O 3016.96 2.58373 -3.2143 0
M  V30 30841 H 3016.3 0.19817 -0.633739 0
M  V30 30842 H 3018.83 -0.0141845 -2.04595 0
M  V30 30843 H 3018.84 1.84074 -3.64116 0
M  V30 30844 H 3017.52 0.777569 -4.08567 0
M  V30 30845 H 3016.1 2.23909 -2.98193 0
M  V30 30846 N 3018.28 1.54674 0.3023 0
M  V30 30847 C 3019.52 1.75629 1.04565 0
M  V30 30848 C 3019.88 0.530207 1.84534 0
M  V30 30849 O 3021.09 0.617476 2.61612 0
M  V30 30850 C 3019.36 3.00893 1.92868 0
M  V30 30851 S 3020.92 3.42845 2.73866 0
M  V30 30852 H 3017.73 0.617369 0.352671 0
M  V30 30853 H 3020.34 1.92876 0.319206 0
M  V30 30854 H 3019.04 3.88254 1.32991 0
M  V30 30855 H 3018.57 2.86229 2.69882 0
M  V30 30856 H 3020.59 2.99814 3.95381 0
M  V30 30857 N 3019.76 -0.565428 1.47108 0
M  V30 30858 C 3020.72 -1.65525 1.58538 0
M  V30 30859 C 3021.72 -1.54047 0.461108 0
M  V30 30860 O 3022.91 -1.58353 0.725938 0
M  V30 30861 C 3020.04 -3.05033 1.52209 0
M  V30 30862 H 3021.24 -1.56742 2.55679 0
M  V30 30863 H 3018.79 -0.784687 1.35175 0
M  V30 30864 H 3019.52 -3.19356 0.564128 0
M  V30 30865 H 3019.31 -3.14773 2.33796 0
M  V30 30866 H 3020.8 -3.84335 1.63329 0
M  V30 30867 N 3021.24 -1.35102 -0.811492 0
M  V30 30868 C 3022.48 -1.2946 -1.58175 0
M  V30 30869 C 3022.84 0.130655 -1.91555 0
M  V30 30870 O 3024.04 0.311381 -2.6699 0
M  V30 30871 C 3022.31 -2.17117 -2.83892 0
M  V30 30872 S 3023.87 -2.28943 -3.7434 0
M  V30 30873 H 3020.69 -0.460155 -0.542013 0
M  V30 30874 H 3023.29 -1.7044 -0.957623 0
M  V30 30875 H 3022 -3.19658 -2.57385 0
M  V30 30876 H 3021.53 -1.77077 -3.51294 0
M  V30 30877 H 3023.54 -1.47063 -4.73906 0
M  V30 30878 N 3022.71 1.03306 -1.19019 0
M  V30 30879 C 3023.68 2.09656 -0.926113 0
M  V30 30880 C 3024.68 1.60538 0.0916795 0
M  V30 30881 O 3025.87 1.73615 -0.142605 0
M  V30 30882 C 3023 3.3865 -0.391017 0
M  V30 30883 H 3024.19 2.34517 -1.86927 0
M  V30 30884 H 3021.75 1.19851 -1.00327 0
M  V30 30885 H 3022.48 3.19457 0.55839 0
M  V30 30886 H 3022.27 3.7562 -1.1248 0
M  V30 30887 H 3023.76 4.16992 -0.225205 0
M  V30 30888 N 3024.19 0.99344 1.22346 0
M  V30 30889 C 3025.42 0.688055 1.95124 0
M  V30 30890 C 3025.84 -0.747358 1.73378 0
M  V30 30891 O 3025.19 -1.50437 1.03319 0
M  V30 30892 C 3025.24 0.985158 3.47817 0
M  V30 30893 O 3024.96 2.36417 3.68834 0
M  V30 30894 C 3026.47 0.697551 4.37777 0
M  V30 30895 H 3023.69 0.254492 0.620866 0
M  V30 30896 H 3026.23 1.32836 1.55483 0
M  V30 30897 H 3024.38 0.390651 3.85425 0
M  V30 30898 H 3024.8 2.46385 4.63028 0
M  V30 30899 H 3026.27 0.955699 5.43664 0
M  V30 30900 H 3026.75 -0.368447 4.37652 0
M  V30 30901 H 3027.36 1.27313 4.05797 0
M  V30 30902 N 3025.67 -1.37693 0.766707 0
M  V30 30903 C 3026.92 -1.99419 0.3281 0
M  V30 30904 C 3027.24 -1.61168 -1.09772 0
M  V30 30905 O 3026.51 -0.874717 -1.75287 0
M  V30 30906 H 3025.09 -0.737569 0.118323 0
M  V30 30907 H 3027.75 -1.68253 0.983715 0
M  V30 30908 H 3026.85 -3.09504 0.401701 0
M  V30 30909 N 3027.15 -0.516835 -1.48884 0
M  V30 30910 C 3028.4 0.0220246 -2.02488 0
M  V30 30911 C 3028.72 1.35521 -1.39515 0
M  V30 30912 O 3027.98 1.88509 -0.525613 0
M  V30 30913 C 3028.28 0.206735 -3.56802 0
M  V30 30914 C 3027.94 -1.05043 -4.38494 0
M  V30 30915 C 3026.61 -1.395 -4.60536 0
M  V30 30916 C 3028.96 -1.88534 -4.85906 0
M  V30 30917 C 3026.29 -2.5737 -5.27236 0
M  V30 30918 C 3028.64 -3.05571 -5.53903 0
M  V30 30919 C 3027.3 -3.4039 -5.74187 0
M  V30 30920 H 3026.57 0.00805936 -0.740956 0
M  V30 30921 H 3029.22 -0.6802 -1.79013 0
M  V30 30922 H 3027.52 0.99162 -3.79044 0
M  V30 30923 H 3029.22 0.638377 -3.95886 0
M  V30 30924 H 3025.81 -0.772058 -4.21589 0
M  V30 30925 H 3029.99 -1.63226 -4.68691 0
M  V30 30926 H 3025.25 -2.84566 -5.4114 0
M  V30 30927 H 3029.42 -3.70581 -5.89612 0
M  V30 30928 H 3027.05 -4.31825 -6.25645 0
M  V30 30929 N 3028.63 1.55583 -0.251365 0
M  V30 30930 C 3029.57 2.21566 0.646298 0
M  V30 30931 C 3030.54 1.18104 1.16793 0
M  V30 30932 O 3031.73 1.46567 1.22159 0
M  V30 30933 C 3028.87 2.92237 1.83552 0
M  V30 30934 C 3027.98 4.10365 1.34999 0
M  V30 30935 C 3027.12 4.6874 2.49912 0
M  V30 30936 C 3026.16 5.79108 1.98243 0
M  V30 30937 N 3025.29 6.31647 3.0654 0
M  V30 30938 H 3030.13 2.97901 0.0769357 0
M  V30 30939 H 3027.67 1.47077 0.0262121 0
M  V30 30940 H 3029.63 3.31413 2.53419 0
M  V30 30941 H 3028.26 2.18369 2.37729 0
M  V30 30942 H 3027.31 3.76473 0.545208 0
M  V30 30943 H 3028.62 4.90028 0.931349 0
M  V30 30944 H 3027.78 5.10513 3.27814 0
M  V30 30945 H 3026.51 3.88303 2.9508 0
M  V30 30946 H 3025.52 5.36809 1.18813 0
M  V30 30947 H 3026.74 6.61399 1.54039 0
M  V30 30948 H 3024.69 5.54113 3.51133 0
M  V30 30949 H 3024.61 7.06515 2.6902 0
M  V30 30950 H 3025.88 6.78078 3.84487 0
M  V30 30951 N 3030.1 -0.0216912 1.57585 0
M  V30 30952 C 3031.03 -1.01935 2.10075 0
M  V30 30953 C 3032.02 -1.37242 1.00493 0
M  V30 30954 O 3033.2 -1.45997 1.28057 0
M  V30 30955 C 3030.33 -2.31801 2.58622 0
M  V30 30956 C 3029.28 -2.10717 3.72535 0
M  V30 30957 C 3028.61 -3.46408 4.07315 0
M  V30 30958 C 3029.91 -1.48734 5.00675 0
M  V30 30959 H 3031.6 -0.582381 2.93681 0
M  V30 30960 H 3029.15 -0.27869 1.41277 0
M  V30 30961 H 3031.1 -3.01931 2.93966 0
M  V30 30962 H 3029.83 -2.77572 1.72109 0
M  V30 30963 H 3028.49 -1.43019 3.37552 0
M  V30 30964 H 3028.13 -3.89841 3.17857 0
M  V30 30965 H 3027.83 -3.33123 4.84048 0
M  V30 30966 H 3029.36 -4.17887 4.45199 0
M  V30 30967 H 3030.77 -2.08791 5.33928 0
M  V30 30968 H 3029.17 -1.46003 5.82068 0
M  V30 30969 H 3030.24 -0.453995 4.8277 0
M  V30 30970 N 3031.58 -1.54832 -0.294093 0
M  V30 30971 C 3032.53 -1.87024 -1.38293 0
M  V30 30972 C 3033.53 -0.744584 -1.52159 0
M  V30 30973 O 3034.73 -0.928668 -1.54194 0
M  V30 30974 H 3031.11 -0.593286 -0.462078 0
M  V30 30975 H 3033.08 -2.78022 -1.08381 0
M  V30 30976 C 3031.83 -2.14028 -2.74021 0
M  V30 30977 H 3031.15 -3.00121 -2.64135 0
M  V30 30978 H 3032.59 -2.40488 -3.49201 0
M  V30 30979 C 3031.05 -0.941039 -3.2349 0
M  V30 30980 O 3031.58 -0.165007 -4.01361 0
M  V30 30981 N 3029.78 -0.744517 -2.80901 0
M  V30 30982 H 3029.33 -1.37725 -2.17692 0
M  V30 30983 H 3029.29 0.0563099 -3.1435 0
M  V30 30984 N 3033.06 0.557619 -1.47405 0
M  V30 30985 C 3034.47 1.13974 -1.47874 0
M  V30 30986 C 3034.82 1.94809 -0.23321 0
M  V30 30987 O 3033.95 2.06028 0.661908 0
M  V30 30988 C 3034.54 2.07363 -2.67929 0
M  V30 30989 C 3033.1 2.60848 -2.71359 0
M  V30 30990 C 3032.25 1.37219 -2.40969 0
M  V30 30991 H 3035.2 0.344241 -1.54921 0
M  V30 30992 H 3035.22 2.91232 -2.44876 0
M  V30 30993 H 3034.73 1.48502 -3.58565 0
M  V30 30994 H 3032.83 3.23508 -1.84861 0
M  V30 30995 H 3032.95 3.01869 -3.72037 0
M  V30 30996 H 3031.31 1.67878 -1.91543 0
M  V30 30997 H 3032.09 0.801524 -3.33812 0
M  V30 30998 N 3034.54 1.35531 0.804316 0
M  V30 30999 C 3035.82 1.19493 1.54857 0
M  V30 31000 C 3036.2 -0.225023 2.09897 0
M  V30 31001 O 3035.54 -1.22882 1.92645 0
M  V30 31002 C 3035.75 2.26483 2.65531 0
M  V30 31003 C 3037.1 2.62405 3.3381 0
M  V30 31004 O 3038.13 2.25414 2.75803 0
M  V30 31005 O 3036.99 3.26017 4.38606 0
M  V30 31006 H 3034.08 0.464363 0.684321 0
M  V30 31007 H 3036.63 1.47219 0.844082 0
M  V30 31008 H 3035.4 3.21713 2.22748 0
M  V30 31009 H 3035.02 2.00039 3.43613 0
M  V30 31010 N 3036.02 -1.02674 1.19565 0
M  V30 31011 C 3036.97 -2.13112 0.931979 0
M  V30 31012 C 3037.96 -1.69023 -0.112977 0
M  V30 31013 O 3039.17 -1.79963 0.0364614 0
M  V30 31014 H 3035.54 -0.696313 0.283993 0
M  V30 31015 H 3037.51 -2.32541 1.86995 0
M  V30 31016 C 3036.26 -3.44237 0.489521 0
M  V30 31017 H 3035.58 -3.78582 1.28515 0
M  V30 31018 H 3037.02 -4.22601 0.344154 0
M  V30 31019 C 3035.48 -3.27344 -0.796704 0
M  V30 31020 O 3036.01 -3.56168 -1.85761 0
M  V30 31021 N 3034.22 -2.80627 -0.754774 0
M  V30 31022 H 3033.77 -2.5737 0.108824 0
M  V30 31023 H 3033.72 -2.69705 -1.61575 0
M  V30 31024 N 3037.5 -0.999914 -1.21817 0
M  V30 31025 C 3038.91 -0.711849 -1.42846 0
M  V30 31026 C 3039.11 0.714895 -1.88392 0
M  V30 31027 O 3038.17 1.48491 -2.04222 0
M  V30 31028 C 3039.48 -1.72339 -2.46414 0
M  V30 31029 C 3041.03 -1.73963 -2.60204 0
M  V30 31030 C 3041.5 -2.73998 -3.67 0
M  V30 31031 N 3042.99 -2.72635 -3.74465 0
M  V30 31032 C 3043.73 -3.46701 -4.56712 0
M  V30 31033 N 3043.23 -4.3039 -5.42897 0
M  V30 31034 N 3045.02 -3.35374 -4.51088 0
M  V30 31035 H 3037.17 -1.92126 -0.905622 0
M  V30 31036 H 3039.43 -0.828985 -0.459879 0
M  V30 31037 H 3039.14 -2.74469 -2.19909 0
M  V30 31038 H 3039.01 -1.52192 -3.45134 0
M  V30 31039 H 3041.4 -0.725268 -2.86049 0
M  V30 31040 H 3041.48 -1.9818 -1.61735 0
M  V30 31041 H 3041.12 -3.75588 -3.41901 0
M  V30 31042 H 3041.05 -2.47048 -4.65054 0
M  V30 31043 H 3043.55 -2.11915 -3.12891 0
M  V30 31044 H 3043.86 -4.83713 -6.02695 0
M  V30 31045 H 3042.2 -4.34474 -5.42455 0
M  V30 31046 H 3045.39 -2.69429 -3.82786 0
M  V30 31047 H 3045.57 -3.93353 -5.14953 0
M  V30 31048 N 3038.97 1.37284 -0.773999 0
M  V30 31049 C 3040.2 2.04432 -0.349597 0
M  V30 31050 C 3040.62 1.57992 1.02079 0
M  V30 31051 O 3039.98 0.741201 1.65457 0
M  V30 31052 C 3040.03 3.58326 -0.404355 0
M  V30 31053 O 3039.13 4.08094 0.594375 0
M  V30 31054 H 3038.47 0.64661 -0.15097 0
M  V30 31055 H 3041 1.75553 -1.05082 0
M  V30 31056 H 3041.01 4.07155 -0.26245 0
M  V30 31057 H 3039.69 3.91482 -1.4041 0
M  V30 31058 H 3038.27 3.70579 0.415403 0
M  V30 31059 N 3040.45 0.524724 1.48608 0
M  V30 31060 C 3041.69 -0.00934774 2.04398 0
M  V30 31061 C 3042.06 -1.32074 1.39357 0
M  V30 31062 O 3043.26 -1.94052 1.86003 0
M  V30 31063 C 3041.53 -0.134255 3.57148 0
M  V30 31064 S 3043.09 -0.61915 4.3441 0
M  V30 31065 H 3039.9 0.00954612 0.710936 0
M  V30 31066 H 3042.51 0.70409 1.82381 0
M  V30 31067 H 3041.21 0.825097 4.0202 0
M  V30 31068 H 3040.74 -0.872228 3.83609 0
M  V30 31069 H 3042.76 -1.88454 4.5902 0
M  V30 31070 N 3041.93 -1.55447 0.259613 0
M  V30 31071 C 3043.15 -2.04104 -0.368281 0
M  V30 31072 C 3043.58 -1.13728 -1.49825 0
M  V30 31073 O 3042.94 -0.132737 -1.80813 0
M  V30 31074 C 3042.99 -3.50645 -0.841445 0
M  V30 31075 O 3042.09 -3.63384 -1.95001 0
M  V30 31076 H 3041.43 -0.659342 -0.0785112 0
M  V30 31077 H 3043.96 -2.00861 0.389385 0
M  V30 31078 H 3043.97 -3.91712 -1.14131 0
M  V30 31079 H 3042.65 -4.15897 -0.014627 0
M  V30 31080 H 3041.22 -3.34218 -1.65387 0
M  V30 31081 N 3043.41 0.0133338 -1.57594 0
M  V30 31082 C 3044.82 0.557905 -1.78169 0
M  V30 31083 C 3045.17 1.74718 -0.892646 0
M  V30 31084 O 3044.29 2.16206 -0.0915871 0
M  V30 31085 C 3044.89 1.01888 -3.23116 0
M  V30 31086 C 3043.45 1.50886 -3.44834 0
M  V30 31087 C 3042.6 0.453996 -2.73558 0
M  V30 31088 H 3045.55 -0.21287 -1.57266 0
M  V30 31089 H 3045.57 1.88554 -3.30496 0
M  V30 31090 H 3045.08 0.153107 -3.87798 0
M  V30 31091 H 3043.18 2.39597 -2.85349 0
M  V30 31092 H 3043.29 1.54551 -4.53487 0
M  V30 31093 H 3041.66 0.912624 -2.37788 0
M  V30 31094 H 3042.44 -0.402584 -3.40931 0
M  V30 31095 N 3044.89 1.54985 0.285878 0
M  V30 31096 C 3046.12 1.78734 1.03623 0
M  V30 31097 C 3046.52 0.554408 1.80895 0
M  V30 31098 O 3045.87 -0.485749 1.77161 0
M  V30 31099 C 3045.93 2.95197 2.0518 0
M  V30 31100 C 3045.59 4.32724 1.46965 0
M  V30 31101 C 3046.59 5.12193 0.891896 0
M  V30 31102 C 3044.27 4.79357 1.50073 0
M  V30 31103 C 3046.27 6.36422 0.352966 0
M  V30 31104 C 3043.96 6.03545 0.957931 0
M  V30 31105 C 3044.95 6.81914 0.385037 0
M  V30 31106 O 3044.64 8.03761 -0.149482 0
M  V30 31107 H 3044.37 0.599482 0.312405 0
M  V30 31108 H 3046.93 2.02796 0.326032 0
M  V30 31109 H 3045.16 2.66796 2.79923 0
M  V30 31110 H 3046.85 3.06385 2.66239 0
M  V30 31111 H 3047.61 4.77302 0.860678 0
M  V30 31112 H 3043.49 4.18377 1.93603 0
M  V30 31113 H 3047.04 6.97536 -0.0948407 0
M  V30 31114 H 3042.93 6.3792 0.986345 0
M  V30 31115 H 3043.7 8.18491 -0.0376157 0
M  V30 31116 N 3046.36 -0.549794 1.47699 0
M  V30 31117 C 3047.31 -1.67721 1.61159 0
M  V30 31118 C 3048.31 -1.62498 0.478635 0
M  V30 31119 O 3049.51 -1.67593 0.656691 0
M  V30 31120 H 3045.89 -0.555101 0.507313 0
M  V30 31121 H 3047.86 -1.53507 2.55887 0
M  V30 31122 C 3046.61 -3.06056 1.65 0
M  V30 31123 H 3045.93 -3.10761 2.51531 0
M  V30 31124 H 3047.37 -3.84611 1.78466 0
M  V30 31125 C 3045.83 -3.34696 0.384735 0
M  V30 31126 O 3046.36 -3.98437 -0.510987 0
M  V30 31127 N 3044.57 -2.89412 0.262485 0
M  V30 31128 H 3044.11 -2.37719 0.992332 0
M  V30 31129 H 3044.07 -3.08945 -0.583122 0
M  V30 31130 N 3047.84 -1.35955 -0.797117 0
M  V30 31131 C 3049.07 -1.33055 -1.59094 0
M  V30 31132 C 3049.49 0.0874262 -1.87897 0
M  V30 31133 O 3048.85 1.0571 -1.47293 0
M  V30 31134 C 3048.9 -2.15205 -2.89342 0
M  V30 31135 O 3048 -1.53926 -3.82597 0
M  V30 31136 H 3047.34 -0.455759 -0.482887 0
M  V30 31137 H 3049.87 -1.79131 -0.988601 0
M  V30 31138 H 3049.88 -2.27505 -3.38682 0
M  V30 31139 H 3048.56 -3.18288 -2.67705 0
M  V30 31140 H 3047.14 -1.50522 -3.41171 0
M  V30 31141 N 3049.32 1.02038 -1.20108 0
M  V30 31142 C 3050.57 1.75576 -1.00892 0
M  V30 31143 C 3050.9 1.88997 0.459382 0
M  V30 31144 O 3050.15 1.40979 1.35732 0
M  V30 31145 C 3050.45 3.17905 -1.63313 0
M  V30 31146 C 3050.12 3.24471 -3.13097 0
M  V30 31147 C 3048.78 3.25969 -3.53974 0
M  V30 31148 C 3051.13 3.22936 -4.09098 0
M  V30 31149 C 3048.46 3.23601 -4.89386 0
M  V30 31150 C 3050.81 3.22109 -5.44452 0
M  V30 31151 C 3049.47 3.2191 -5.84748 0
M  V30 31152 H 3048.74 0.642478 -0.369192 0
M  V30 31153 H 3051.39 1.19703 -1.49477 0
M  V30 31154 H 3049.7 3.76912 -1.06981 0
M  V30 31155 H 3051.39 3.73491 -1.45965 0
M  V30 31156 H 3047.98 3.24037 -2.80532 0
M  V30 31157 H 3052.17 3.20952 -3.78555 0
M  V30 31158 H 3047.42 3.21776 -5.19875 0
M  V30 31159 H 3051.6 3.19874 -6.1859 0
M  V30 31160 H 3049.22 3.19829 -6.89647 0
M  V30 31161 N 3050.8 1.00636 1.21285 0
M  V30 31162 C 3052.05 0.685212 1.89704 0
M  V30 31163 C 3052.36 -0.787534 1.79045 0
M  V30 31164 O 3053.57 -1.22082 2.42504 0
M  V30 31165 C 3052.02 1.17514 3.40174 0
M  V30 31166 C 3051.63 2.67406 3.59441 0
M  V30 31167 C 3053.37 0.928942 4.14211 0
M  V30 31168 C 3051.28 3.09932 5.03682 0
M  V30 31169 H 3050.21 0.252599 0.710429 0
M  V30 31170 H 3052.86 1.2177 1.37274 0
M  V30 31171 H 3051.24 0.570691 3.91866 0
M  V30 31172 H 3052.42 3.33312 3.18182 0
M  V30 31173 H 3050.73 2.90055 2.98759 0
M  V30 31174 H 3053.33 1.22221 5.20544 0
M  V30 31175 H 3053.67 -0.134785 4.16082 0
M  V30 31176 H 3054.21 1.49625 3.68588 0
M  V30 31177 H 3050.95 4.15538 5.0696 0
M  V30 31178 H 3050.47 2.48739 5.45792 0
M  V30 31179 H 3052.14 3.0199 5.72198 0
M  V30 31180 N 3052.28 -1.36872 0.781268 0
M  V30 31181 C 3053.52 -1.99749 0.350442 0
M  V30 31182 C 3053.86 -1.61872 -1.0729 0
M  V30 31183 O 3053.13 -0.869521 -1.73982 0
M  V30 31184 C 3053.41 -3.56543 0.504897 0
M  V30 31185 C 3053.27 -4.043 1.97134 0
M  V30 31186 C 3054.59 -4.40018 -0.0850499 0
M  V30 31187 H 3051.7 -0.725657 0.128807 0
M  V30 31188 H 3054.35 -1.62408 0.986089 0
M  V30 31189 H 3052.5 -3.88483 -0.0362323 0
M  V30 31190 H 3054.17 -3.82883 2.57291 0
M  V30 31191 H 3052.41 -3.5614 2.47682 0
M  V30 31192 H 3053.08 -5.13301 2.03042 0
M  V30 31193 H 3055.56 -4.14391 0.376776 0
M  V30 31194 H 3054.43 -5.48874 0.0530979 0
M  V30 31195 H 3054.7 -4.26162 -1.17635 0
M  V30 31196 N 3053.75 -0.532597 -1.48328 0
M  V30 31197 C 3055 0.000547572 -2.028 0
M  V30 31198 C 3055.33 1.33686 -1.40861 0
M  V30 31199 O 3054.61 1.86405 -0.555294 0
M  V30 31200 C 3054.89 0.119783 -3.59901 0
M  V30 31201 C 3054.74 -1.24188 -4.32316 0
M  V30 31202 C 3056.06 0.845296 -4.31906 0
M  V30 31203 H 3053.18 -0.00127501 -0.736999 0
M  V30 31204 H 3055.82 -0.690133 -1.77023 0
M  V30 31205 H 3053.97 0.708025 -3.81994 0
M  V30 31206 H 3055.65 -1.87143 -4.21634 0
M  V30 31207 H 3053.89 -1.82308 -3.93632 0
M  V30 31208 H 3054.56 -1.11142 -5.40695 0
M  V30 31209 H 3057.04 0.346086 -4.14658 0
M  V30 31210 H 3055.91 0.897628 -5.41511 0
M  V30 31211 H 3056.17 1.89615 -3.99373 0
M  V30 31212 N 3055.23 1.55307 -0.267853 0
M  V30 31213 C 3056.46 2.04296 0.357451 0
M  V30 31214 C 3056.88 1.14521 1.4922 0
M  V30 31215 O 3056.24 0.142324 1.80741 0
M  V30 31216 C 3056.29 3.51087 0.822837 0
M  V30 31217 O 3055.39 3.64413 1.93071 0
M  V30 31218 H 3054.73 0.659749 0.0750134 0
M  V30 31219 H 3057.26 2.00651 -0.400031 0
M  V30 31220 H 3057.27 3.92311 1.12052 0
M  V30 31221 H 3055.95 4.15899 -0.0074293 0
M  V30 31222 H 3054.53 3.3509 1.63612 0
M  V30 31223 N 3056.71 -0.00497598 1.57599 0
M  V30 31224 C 3057.64 -1.03177 2.03543 0
M  V30 31225 C 3058.62 -1.33772 0.924324 0
M  V30 31226 O 3059.81 -1.46021 1.19206 0
M  V30 31227 C 3056.93 -2.36062 2.42883 0
M  V30 31228 C 3055.98 -2.21163 3.64677 0
M  V30 31229 S 3056.81 -1.54234 5.12808 0
M  V30 31230 C 3057.97 -2.8856 5.55413 0
M  V30 31231 H 3058.2 -0.640547 2.90318 0
M  V30 31232 H 3055.73 -0.215695 1.52886 0
M  V30 31233 H 3057.69 -3.12471 2.66218 0
M  V30 31234 H 3056.35 -2.72326 1.56517 0
M  V30 31235 H 3055.55 -3.19319 3.89938 0
M  V30 31236 H 3055.15 -1.52898 3.41319 0
M  V30 31237 H 3057.44 -3.84867 5.5757 0
M  V30 31238 H 3058.38 -2.68004 6.55423 0
M  V30 31239 H 3058.79 -2.9224 4.82966 0
M  V30 31240 N 3058.19 -1.55135 -0.277654 0
M  V30 31241 C 3059.12 -1.90703 -1.34739 0
M  V30 31242 C 3060.1 -0.76838 -1.51756 0
M  V30 31243 O 3061.28 -1.02612 -1.64877 0
M  V30 31244 C 3058.41 -2.17486 -2.70771 0
M  V30 31245 C 3057.37 -3.33312 -2.68491 0
M  V30 31246 C 3056.69 -3.45564 -4.08031 0
M  V30 31247 C 3057.99 -4.69825 -2.2817 0
M  V30 31248 H 3059.69 -2.80302 -1.05219 0
M  V30 31249 H 3057.23 -1.34865 -0.504715 0
M  V30 31250 H 3059.19 -2.40955 -3.45714 0
M  V30 31251 H 3057.91 -1.24681 -3.01864 0
M  V30 31252 H 3056.57 -3.09803 -1.96005 0
M  V30 31253 H 3056.22 -2.50234 -4.36339 0
M  V30 31254 H 3055.92 -4.23436 -4.07401 0
M  V30 31255 H 3057.44 -3.71321 -4.8472 0
M  V30 31256 H 3058.86 -4.9287 -2.92835 0
M  V30 31257 H 3057.25 -5.50579 -2.38711 0
M  V30 31258 H 3058.32 -4.68962 -1.23299 0
M  V30 31259 N 3059.67 0.541953 -1.47989 0
M  V30 31260 C 3060.89 1.32823 -1.59288 0
M  V30 31261 C 3061.32 1.86445 -0.248973 0
M  V30 31262 O 3060.67 1.6378 0.777553 0
M  V30 31263 C 3060.72 2.46338 -2.63344 0
M  V30 31264 O 3059.83 3.49024 -2.19673 0
M  V30 31265 H 3059.17 0.393894 -0.53455 0
M  V30 31266 H 3061.7 0.653392 -1.93886 0
M  V30 31267 H 3061.71 2.92694 -2.84243 0
M  V30 31268 H 3060.38 2.06669 -3.60917 0
M  V30 31269 H 3058.96 3.08868 -2.08937 0
M  V30 31270 N 3061.15 1.36376 0.789896 0
M  V30 31271 C 3062.11 1.30513 1.88412 0
M  V30 31272 C 3063.11 0.212928 1.59384 0
M  V30 31273 O 3064.3 0.467681 1.67805 0
M  V30 31274 C 3061.43 1.02307 3.25186 0
M  V30 31275 H 3062.62 2.27826 1.95027 0
M  V30 31276 H 3060.18 1.21142 0.987643 0
M  V30 31277 H 3060.91 0.0545056 3.24254 0
M  V30 31278 H 3060.7 1.81345 3.47644 0
M  V30 31279 H 3062.19 1.00809 4.0525 0
M  V30 31280 N 3062.62 -1.014 1.20647 0
M  V30 31281 C 3063.87 -1.74448 1.01245 0
M  V30 31282 C 3064.19 -1.90218 -0.455699 0
M  V30 31283 O 3065.39 -2.60385 -0.768905 0
M  V30 31284 C 3063.85 -3.13773 1.7628 0
M  V30 31285 C 3063.46 -3.06007 3.27206 0
M  V30 31286 C 3065.2 -3.91013 1.65255 0
M  V30 31287 C 3063.11 -4.40355 3.94767 0
M  V30 31288 H 3062.04 -0.654012 0.375213 0
M  V30 31289 H 3064.69 -1.13365 1.44294 0
M  V30 31290 H 3063.07 -3.75413 1.2602 0
M  V30 31291 H 3064.24 -2.53658 3.847 0
M  V30 31292 H 3062.56 -2.42259 3.38673 0
M  V30 31293 H 3065.16 -4.90413 2.1307 0
M  V30 31294 H 3065.5 -4.11818 0.6092 0
M  V30 31295 H 3066.03 -3.36006 2.12943 0
M  V30 31296 H 3062.77 -4.24752 4.99265 0
M  V30 31297 H 3062.29 -4.927 3.42063 0
M  V30 31298 H 3063.97 -5.09189 3.99168 0
M  V30 31299 N 3064.1 -1.01278 -1.2075 0
M  V30 31300 C 3065.52 -0.726959 -1.42083 0
M  V30 31301 C 3065.72 0.694874 -1.8914 0
M  V30 31302 O 3064.77 1.46316 -2.05786 0
M  V30 31303 C 3066.09 -1.74943 -2.44572 0
M  V30 31304 C 3067.63 -1.76713 -2.58344 0
M  V30 31305 C 3068.11 -2.77875 -3.64073 0
M  V30 31306 N 3069.6 -2.76591 -3.71553 0
M  V30 31307 C 3070.34 -3.51525 -4.53009 0
M  V30 31308 N 3069.83 -4.36124 -5.38301 0
M  V30 31309 N 3071.62 -3.4014 -4.47506 0
M  V30 31310 H 3063.78 -1.93075 -0.885194 0
M  V30 31311 H 3066.04 -0.833816 -0.45106 0
M  V30 31312 H 3065.74 -2.76786 -2.16985 0
M  V30 31313 H 3065.62 -1.55844 -3.435 0
M  V30 31314 H 3068.01 -0.755566 -2.85263 0
M  V30 31315 H 3068.09 -1.99884 -1.59624 0
M  V30 31316 H 3067.73 -3.79193 -3.37898 0
M  V30 31317 H 3067.66 -2.51967 -4.62407 0
M  V30 31318 H 3070.15 -2.15221 -3.10626 0
M  V30 31319 H 3070.46 -4.90078 -5.97531 0
M  V30 31320 H 3068.81 -4.40203 -5.37816 0
M  V30 31321 H 3072 -2.73474 -3.79907 0
M  V30 31322 H 3072.17 -3.98793 -5.10752 0
M  V30 31323 N 3065.58 1.36456 -0.788516 0
M  V30 31324 C 3066.83 1.98872 -0.359784 0
M  V30 31325 C 3067.15 1.62894 1.07194 0
M  V30 31326 O 3066.42 0.902493 1.73873 0
M  V30 31327 H 3065 0.735594 -0.130042 0
M  V30 31328 H 3067.66 1.66667 -1.01036 0
M  V30 31329 H 3066.76 3.08826 -0.45089 0
M  V30 31330 N 3067.06 0.540456 1.48043 0
M  V30 31331 C 3068.3 0.0101923 2.02497 0
M  V30 31332 C 3068.63 -1.33284 1.41653 0
M  V30 31333 O 3067.89 -1.87649 0.555537 0
M  V30 31334 C 3068.19 -0.149945 3.57085 0
M  V30 31335 C 3067.85 1.12006 4.36767 0
M  V30 31336 C 3066.51 1.46809 4.58258 0
M  V30 31337 C 3068.87 1.9624 4.82845 0
M  V30 31338 C 3066.19 2.65726 5.23074 0
M  V30 31339 C 3068.55 3.14345 5.48972 0
M  V30 31340 C 3067.21 3.49482 5.68699 0
M  V30 31341 H 3066.48 0.00372963 0.740991 0
M  V30 31342 H 3069.13 0.708593 1.77908 0
M  V30 31343 H 3067.43 -0.931192 3.80573 0
M  V30 31344 H 3069.13 -0.575314 3.96852 0
M  V30 31345 H 3065.72 0.839031 4.20307 0
M  V30 31346 H 3069.9 1.70662 4.66035 0
M  V30 31347 H 3065.16 2.93139 5.36544 0
M  V30 31348 H 3069.33 3.79914 5.83642 0
M  V30 31349 H 3066.96 4.41724 6.18696 0
M  V30 31350 N 3068.54 -1.55163 0.276085 0
M  V30 31351 C 3069.76 -2.04483 -0.346612 0
M  V30 31352 C 3070.19 -1.1531 -1.48611 0
M  V30 31353 O 3069.54 -0.151907 -1.80662 0
M  V30 31354 C 3069.59 -3.51518 -0.804207 0
M  V30 31355 O 3068.7 -3.65432 -1.91136 0
M  V30 31356 H 3068.04 -0.660138 -0.0715135 0
M  V30 31357 H 3070.57 -2.00436 0.410667 0
M  V30 31358 H 3070.58 -3.929 -1.0997 0
M  V30 31359 H 3069.25 -4.1589 0.0294854 0
M  V30 31360 H 3067.83 -3.35953 -1.61833 0
M  V30 31361 N 3070.01 -0.00338196 -1.576 0
M  V30 31362 C 3070.94 0.985801 -2.1167 0
M  V30 31363 C 3071.92 1.35625 -1.02663 0
M  V30 31364 O 3073.11 1.43941 -1.30364 0
M  V30 31365 C 3070.24 2.27658 -2.62277 0
M  V30 31366 C 3069.19 2.04764 -3.7584 0
M  V30 31367 C 3068.52 3.39884 -4.12775 0
M  V30 31368 C 3069.82 1.4075 -5.02978 0
M  V30 31369 H 3071.51 0.535585 -2.94571 0
M  V30 31370 H 3069.06 0.256179 -1.41703 0
M  V30 31371 H 3071.01 2.97216 -2.98732 0
M  V30 31372 H 3069.74 2.74799 -1.76503 0
M  V30 31373 H 3068.4 1.3763 -3.39784 0
M  V30 31374 H 3068.04 3.84734 -3.24019 0
M  V30 31375 H 3067.74 3.2538 -4.89287 0
M  V30 31376 H 3069.27 4.10752 -4.51791 0
M  V30 31377 H 3070.68 2.0027 -5.37182 0
M  V30 31378 H 3069.08 1.36724 -5.84317 0
M  V30 31379 H 3070.15 0.377133 -4.83431 0
M  V30 31380 N 3071.49 1.5528 0.269423 0
M  V30 31381 C 3072.4 1.91507 1.35507 0
M  V30 31382 C 3073.42 0.812739 1.53852 0
M  V30 31383 O 3074.59 1.11213 1.6791 0
M  V30 31384 C 3071.66 2.18272 2.69367 0
M  V30 31385 C 3070.72 3.41811 2.59737 0
M  V30 31386 C 3069.95 3.6729 3.87213 0
M  V30 31387 O 3070.18 2.95217 4.8806 0
M  V30 31388 O 3069.11 4.60824 3.87201 0
M  V30 31389 H 3072.94 2.83931 1.0778 0
M  V30 31390 H 3070.52 1.41872 0.468257 0
M  V30 31391 H 3072.4 2.36895 3.48509 0
M  V30 31392 H 3071.08 1.29029 2.96872 0
M  V30 31393 H 3069.98 3.28519 1.78958 0
M  V30 31394 H 3071.32 4.31284 2.37181 0
M  V30 31395 N 3072.97 -0.534097 1.48274 0
M  V30 31396 C 3073.9 -1.64836 1.65383 0
M  V30 31397 C 3074.88 -1.625 0.502769 0
M  V30 31398 O 3076.07 -1.79761 0.734831 0
M  V30 31399 C 3073.2 -3.03433 1.68954 0
M  V30 31400 C 3072.15 -3.20626 2.83519 0
M  V30 31401 C 3071.48 -4.60243 2.72177 0
M  V30 31402 C 3072.78 -3.0379 4.24864 0
M  V30 31403 H 3074.47 -1.50773 2.58666 0
M  V30 31404 H 3072.02 -0.723916 1.24481 0
M  V30 31405 H 3073.97 -3.81252 1.79512 0
M  V30 31406 H 3072.69 -3.18509 0.722471 0
M  V30 31407 H 3071.35 -2.45222 2.7251 0
M  V30 31408 H 3071 -4.72149 1.73448 0
M  V30 31409 H 3070.7 -4.72692 3.4905 0
M  V30 31410 H 3072.22 -5.40167 2.84696 0
M  V30 31411 H 3073.64 -3.71405 4.36728 0
M  V30 31412 H 3072.03 -3.27735 5.02703 0
M  V30 31413 H 3073.1 -2.00262 4.41614 0
M  V30 31414 N 3074.45 -1.36793 -0.782652 0
M  V30 31415 C 3075.67 -1.34735 -1.57674 0
M  V30 31416 C 3076.1 0.0674923 -1.87979 0
M  V30 31417 O 3075.46 1.04141 -1.48406 0
M  V30 31418 C 3075.5 -2.18262 -2.87044 0
M  V30 31419 O 3074.61 -1.57976 -3.80943 0
M  V30 31420 H 3073.95 -0.460855 -0.478026 0
M  V30 31421 H 3076.48 -1.80169 -0.969547 0
M  V30 31422 H 3076.49 -2.31085 -3.3625 0
M  V30 31423 H 3075.16 -3.21109 -2.64314 0
M  V30 31424 H 3073.74 -1.54132 -3.39555 0
M  V30 31425 N 3075.93 1.00759 -1.21184 0
M  V30 31426 C 3077.2 1.71733 -0.936327 0
M  V30 31427 C 3077.58 2.0374 0.552549 0
M  V30 31428 O 3076.93 1.70906 1.51669 0
M  V30 31429 C 3077.14 2.97865 -1.81872 0
M  V30 31430 C 3078.49 3.70947 -2.06601 0
M  V30 31431 O 3079.51 3.07841 -1.792 0
M  V30 31432 O 3078.37 4.84448 -2.52928 0
M  V30 31433 H 3075.47 0.748874 -0.35088 0
M  V30 31434 H 3078.01 1.06525 -1.321 0
M  V30 31435 H 3076.78 2.70602 -2.82648 0
M  V30 31436 H 3076.41 3.70813 -1.4347 0
M  V30 31437 N 3077.4 1.01917 1.20211 0
M  V30 31438 C 3078.35 0.562366 2.20956 0
M  V30 31439 C 3079.34 -0.383676 1.56259 0
M  V30 31440 O 3080.53 -0.206224 1.75795 0
M  V30 31441 C 3077.66 -0.0953432 3.43168 0
M  V30 31442 C 3076.75 0.87256 4.15027 0
M  V30 31443 N 3077.14 2.03111 4.63227 0
M  V30 31444 C 3075.43 0.693928 4.40569 0
M  V30 31445 C 3076.14 2.64078 5.18302 0
M  V30 31446 N 3075.11 1.92119 5.08519 0
M  V30 31447 H 3078.91 1.44557 2.55891 0
M  V30 31448 H 3076.43 0.884855 1.36177 0
M  V30 31449 H 3078.42 -0.440159 4.1457 0
M  V30 31450 H 3077.08 -0.974359 3.09736 0
M  V30 31451 H 3078.1 2.41094 4.5836 0
M  V30 31452 H 3074.77 -0.136816 4.17276 0
M  V30 31453 H 3076.16 3.6214 5.65955 0
M  V30 31454 N 3078.88 -1.36036 0.795742 0
M  V30 31455 C 3080.11 -2.0385 0.382076 0
M  V30 31456 C 3080.53 -1.59596 -0.995525 0
M  V30 31457 O 3079.89 -0.76743 -1.64257 0
M  V30 31458 C 3079.94 -3.57637 0.461311 0
M  V30 31459 O 3079.04 -4.08988 -0.529376 0
M  V30 31460 H 3078.38 -0.644126 0.161238 0
M  V30 31461 H 3080.91 -1.73859 1.07861 0
M  V30 31462 H 3080.92 -4.06686 0.327192 0
M  V30 31463 H 3079.6 -3.89198 1.4662 0
M  V30 31464 H 3078.18 -3.71193 -0.356394 0
M  V30 31465 N 3080.36 -0.5483 -1.47755 0
M  V30 31466 C 3081.27 0.207732 -2.33678 0
M  V30 31467 C 3082.29 0.920817 -1.47638 0
M  V30 31468 O 3083.46 0.891699 -1.80584 0
M  V30 31469 C 3080.53 1.22997 -3.24149 0
M  V30 31470 C 3079.59 0.525275 -4.26074 0
M  V30 31471 C 3078.82 1.49881 -5.12222 0
M  V30 31472 O 3079.04 2.73296 -5.00665 0
M  V30 31473 O 3077.98 1.02818 -5.93053 0
M  V30 31474 H 3081.8 -0.496847 -2.99608 0
M  V30 31475 H 3079.39 -0.309008 -1.46169 0
M  V30 31476 H 3081.27 1.82027 -3.80058 0
M  V30 31477 H 3079.95 1.91663 -2.60858 0
M  V30 31478 H 3078.85 -0.105993 -3.7395 0
M  V30 31479 H 3080.19 -0.119773 -4.92054 0
M  V30 31480 N 3081.84 1.55014 -0.28431 0
M  V30 31481 C 3083.07 2.04204 0.332912 0
M  V30 31482 C 3083.48 1.16232 1.48781 0
M  V30 31483 O 3082.84 0.184355 1.81566 0
M  V30 31484 C 3082.89 3.5242 0.805145 0
M  V30 31485 O 3082.61 4.37046 -0.303766 0
M  V30 31486 C 3084.11 4.17536 1.48924 0
M  V30 31487 H 3081.33 0.666825 0.074733 0
M  V30 31488 H 3083.88 2.0016 -0.419083 0
M  V30 31489 H 3082.03 3.56878 1.5072 0
M  V30 31490 H 3082.44 5.24465 0.0608781 0
M  V30 31491 H 3083.92 5.22819 1.77099 0
M  V30 31492 H 3084.4 3.66262 2.42382 0
M  V30 31493 H 3085 4.17107 0.830794 0
M  V30 31494 N 3083.32 0.0117398 1.57596 0
M  V30 31495 C 3084.25 -1.01013 2.04626 0
M  V30 31496 C 3085.23 -1.32784 0.938461 0
M  V30 31497 O 3086.41 -1.44748 1.20748 0
M  V30 31498 C 3083.54 -2.33473 2.45373 0
M  V30 31499 C 3082.58 -2.17282 3.67002 0
M  V30 31500 S 3083.42 -1.48786 5.14415 0
M  V30 31501 C 3084.57 -2.82653 5.58443 0
M  V30 31502 H 3084.81 -0.609718 2.90981 0
M  V30 31503 H 3082.34 -0.199467 1.53106 0
M  V30 31504 H 3084.3 -3.0963 2.69517 0
M  V30 31505 H 3082.96 -2.7065 1.59396 0
M  V30 31506 H 3082.15 -3.15165 3.93303 0
M  V30 31507 H 3081.75 -1.49269 3.42921 0
M  V30 31508 H 3084.05 -3.78931 5.6162 0
M  V30 31509 H 3084.99 -2.61037 6.58229 0
M  V30 31510 H 3085.4 -2.87101 4.86038 0
M  V30 31511 N 3084.79 -1.55421 -0.261185 0
M  V30 31512 C 3086.04 -1.76844 -0.992667 0
M  V30 31513 C 3086.37 -0.57446 -1.85509 0
M  V30 31514 O 3085.65 0.427679 -1.8974 0
M  V30 31515 C 3085.93 -3.08026 -1.86527 0
M  V30 31516 C 3085.78 -4.37801 -1.03199 0
M  V30 31517 C 3087.1 -3.35329 -2.8503 0
M  V30 31518 H 3084.22 -0.643394 -0.359461 0
M  V30 31519 H 3086.86 -1.88154 -0.264181 0
M  V30 31520 H 3085.01 -2.98515 -2.48639 0
M  V30 31521 H 3086.69 -4.59285 -0.430662 0
M  V30 31522 H 3084.93 -4.32498 -0.335835 0
M  V30 31523 H 3085.6 -5.25941 -1.67601 0
M  V30 31524 H 3088.08 -3.4471 -2.33053 0
M  V30 31525 H 3086.95 -4.2836 -3.43218 0
M  V30 31526 H 3087.21 -2.55543 -3.60763 0
M  V30 31527 N 3086.27 0.526227 -1.48555 0
M  V30 31528 C 3087.68 1.10812 -1.50258 0
M  V30 31529 C 3088.03 1.94271 -0.274479 0
M  V30 31530 O 3087.16 2.07386 0.618058 0
M  V30 31531 C 3087.75 2.01633 -2.72267 0
M  V30 31532 C 3086.31 2.55033 -2.7683 0
M  V30 31533 C 3085.46 1.32077 -2.43826 0
M  V30 31534 H 3088.41 0.311303 -1.55617 0
M  V30 31535 H 3088.43 2.85972 -2.50998 0
M  V30 31536 H 3087.94 1.40863 -3.61634 0
M  V30 31537 H 3086.05 3.19514 -1.91682 0
M  V30 31538 H 3086.16 2.9391 -3.78357 0
M  V30 31539 H 3084.52 1.63778 -1.95061 0
M  V30 31540 H 3085.31 0.730537 -3.35437 0
M  V30 31541 N 3087.75 1.37206 0.775387 0
M  V30 31542 C 3089 1.32409 1.53609 0
M  V30 31543 C 3089.33 -0.0923762 1.9398 0
M  V30 31544 O 3088.6 -1.04891 1.63793 0
M  V30 31545 C 3088.89 2.25984 2.80363 0
M  V30 31546 C 3088.74 3.76393 2.46269 0
M  V30 31547 C 3090.06 2.18071 3.82273 0
M  V30 31548 H 3087.18 0.482307 0.557269 0
M  V30 31549 H 3089.82 1.67877 0.889797 0
M  V30 31550 H 3087.97 1.95868 3.35512 0
M  V30 31551 H 3089.64 4.1709 1.97062 0
M  V30 31552 H 3087.89 3.9514 1.79016 0
M  V30 31553 H 3088.56 4.37297 3.3686 0
M  V30 31554 H 3091.03 2.4461 3.36609 0
M  V30 31555 H 3089.91 2.85692 4.68691 0
M  V30 31556 H 3090.17 1.17246 4.2627 0
M  V30 31557 N 3089.23 -1.00115 1.21716 0
M  V30 31558 C 3090.19 -2.07127 0.981374 0
M  V30 31559 C 3091.19 -1.60725 -0.0490833 0
M  V30 31560 O 3092.38 -1.73176 0.188586 0
M  V30 31561 C 3089.51 -3.37494 0.480667 0
M  V30 31562 H 3090.71 -2.29478 1.93079 0
M  V30 31563 H 3088.26 -1.17149 1.03469 0
M  V30 31564 H 3088.99 -3.20825 -0.473495 0
M  V30 31565 H 3088.78 -3.72506 1.224 0
M  V30 31566 H 3090.27 -4.16249 0.335684 0
M  V30 31567 N 3090.71 -1.02553 -1.19669 0
M  V30 31568 C 3091.96 -0.718613 -1.88892 0
M  V30 31569 C 3092.28 0.754824 -1.79798 0
M  V30 31570 O 3091.55 1.54359 -1.20623 0
M  V30 31571 H 3090.13 -0.262818 -0.699239 0
M  V30 31572 H 3092.79 -1.29904 -1.45296 0
M  V30 31573 H 3091.88 -1.00994 -2.95308 0
M  V30 31574 N 3092.19 1.35612 -0.802945 0
M  V30 31575 C 3093.12 2.2858 -0.168501 0
M  V30 31576 C 3094.13 1.50112 0.630097 0
M  V30 31577 O 3095.32 1.72389 0.463056 0
M  V30 31578 C 3092.42 3.2971 0.783885 0
M  V30 31579 C 3091.59 4.37388 0.0324396 0
M  V30 31580 C 3090.65 5.18398 0.902767 0
M  V30 31581 O 3089.68 5.68092 0.355044 0
M  V30 31582 N 3090.88 5.36153 2.22532 0
M  V30 31583 H 3093.64 2.83666 -0.96714 0
M  V30 31584 H 3091.21 1.47922 -0.658069 0
M  V30 31585 H 3093.2 3.80796 1.37027 0
M  V30 31586 H 3091.77 2.75165 1.48334 0
M  V30 31587 H 3090.99 3.87285 -0.735125 0
M  V30 31588 H 3092.28 5.06478 -0.485589 0
M  V30 31589 H 3091.67 4.97417 2.6943 0
M  V30 31590 H 3090.23 5.90432 2.76103 0
M  V30 31591 N 3093.66 0.556128 1.47462 0
M  V30 31592 C 3094.91 0.0316067 2.02075 0
M  V30 31593 C 3095.23 -1.32256 1.43295 0
M  V30 31594 O 3094.5 -1.86235 0.607743 0
M  V30 31595 H 3093.08 0.00869473 0.746949 0
M  V30 31596 H 3095.74 0.725891 1.80878 0
M  V30 31597 H 3094.84 -0.057299 3.12047 0
M  V30 31598 N 3095.14 -1.54861 0.292527 0
M  V30 31599 C 3096.56 -1.59483 -0.061118 0
M  V30 31600 C 3096.76 -1.30961 -1.53139 0
M  V30 31601 O 3095.81 -1.07891 -2.28289 0
M  V30 31602 C 3097.13 -2.98893 0.329195 0
M  V30 31603 C 3098.67 -3.1177 0.277255 0
M  V30 31604 C 3099.15 -4.53474 0.642264 0
M  V30 31605 N 3100.64 -4.59369 0.594476 0
M  V30 31606 C 3101.38 -5.67073 0.849485 0
M  V30 31607 N 3100.87 -6.82849 1.17002 0
M  V30 31608 N 3102.66 -5.56702 0.777114 0
M  V30 31609 H 3094.82 -1.71663 1.25082 0
M  V30 31610 H 3097.08 -0.801331 0.50653 0
M  V30 31611 H 3096.78 -3.24659 1.35238 0
M  V30 31612 H 3096.66 -3.75828 -0.321376 0
M  V30 31613 H 3099.05 -2.85757 -0.736675 0
M  V30 31614 H 3099.13 -2.37008 0.96233 0
M  V30 31615 H 3098.77 -4.80215 1.65396 0
M  V30 31616 H 3098.7 -5.2656 -0.0647906 0
M  V30 31617 H 3101.19 -3.76207 0.357322 0
M  V30 31618 H 3101.5 -7.60903 1.3508 0
M  V30 31619 H 3099.85 -6.84422 1.20797 0
M  V30 31620 H 3103.04 -4.65131 0.526415 0
M  V30 31621 H 3103.21 -6.40558 0.979225 0
M  V30 31622 N 3096.62 -0.0200973 -1.57587 0
M  V30 31623 C 3097.57 0.982831 -2.10816 0
M  V30 31624 C 3098.56 1.34286 -1.03265 0
M  V30 31625 O 3099.77 1.32615 -1.2171 0
M  V30 31626 H 3096.14 0.334689 -0.673414 0
M  V30 31627 H 3098.11 0.508509 -2.94035 0
M  V30 31628 C 3096.86 2.25916 -2.64305 0
M  V30 31629 H 3096.19 1.99085 -3.46706 0
M  V30 31630 H 3097.63 2.94322 -3.05205 0
M  V30 31631 C 3096.08 2.98275 -1.56633 0
M  V30 31632 O 3096.61 3.90038 -0.960893 0
M  V30 31633 N 3094.82 2.60451 -1.28894 0
M  V30 31634 H 3094.37 1.85909 -1.78314 0
M  V30 31635 H 3094.33 3.09176 -0.570751 0
M  V30 31636 N 3098.1 1.55557 0.252939 0
M  V30 31637 C 3099.06 1.89013 1.29641 0
M  V30 31638 C 3100.06 0.766121 1.41376 0
M  V30 31639 O 3101.25 1.03416 1.40181 0
M  V30 31640 C 3098.38 2.11321 2.675 0
M  V30 31641 H 3099.58 2.8231 1.01197 0
M  V30 31642 H 3097.13 1.48356 0.491951 0
M  V30 31643 H 3097.86 1.20472 3.01093 0
M  V30 31644 H 3097.65 2.93177 2.60365 0
M  V30 31645 H 3099.14 2.38409 3.42857 0
M  V30 31646 N 3099.58 -0.518341 1.48832 0
M  V30 31647 C 3100.51 -1.63072 1.67122 0
M  V30 31648 C 3101.49 -1.61958 0.519976 0
M  V30 31649 O 3102.67 -1.78971 0.753855 0
M  V30 31650 C 3099.8 -3.01624 1.72163 0
M  V30 31651 C 3098.76 -3.17601 2.86904 0
M  V30 31652 C 3098.08 -4.5733 2.77043 0
M  V30 31653 C 3099.38 -2.99266 4.28062 0
M  V30 31654 H 3101.08 -1.48021 2.6025 0
M  V30 31655 H 3098.62 -0.710672 1.25242 0
M  V30 31656 H 3100.57 -3.79327 1.83545 0
M  V30 31657 H 3099.3 -3.17725 0.756213 0
M  V30 31658 H 3097.96 -2.42318 2.75095 0
M  V30 31659 H 3097.61 -4.70283 1.78446 0
M  V30 31660 H 3097.31 -4.68963 3.54044 0
M  V30 31661 H 3098.83 -5.37117 2.9041 0
M  V30 31662 H 3100.24 -3.66752 4.40643 0
M  V30 31663 H 3098.64 -3.22384 5.06151 0
M  V30 31664 H 3099.71 -1.95567 4.43714 0
M  V30 31665 N 3101.05 -1.37615 -0.7681 0
M  V30 31666 C 3102 -1.30187 -1.87177 0
M  V30 31667 C 3102.99 -0.188971 -1.59786 0
M  V30 31668 O 3104.18 -0.423686 -1.71854 0
M  V30 31669 C 3101.31 -1.11477 -3.24696 0
M  V30 31670 C 3100.39 -2.27327 -3.58027 0
M  V30 31671 N 3100.79 -3.52728 -3.62514 0
M  V30 31672 C 3099.08 -2.19561 -3.88213 0
M  V30 31673 C 3099.78 -4.29144 -3.92696 0
M  V30 31674 N 3098.76 -3.58326 -4.08783 0
M  V30 31675 H 3102.56 -2.2515 -1.88903 0
M  V30 31676 H 3100.08 -1.3064 -0.96473 0
M  V30 31677 H 3102.07 -1.0424 -4.03658 0
M  V30 31678 H 3100.73 -0.174338 -3.24232 0
M  V30 31679 H 3101.74 -3.86589 -3.4463 0
M  V30 31680 H 3098.42 -1.33595 -3.95548 0
M  V30 31681 H 3099.81 -5.3769 -4.02913 0
M  V30 31682 N 3102.53 0.994677 -1.22245 0
M  V30 31683 C 3103.78 1.73653 -1.04749 0
M  V30 31684 C 3104.11 1.89678 0.416646 0
M  V30 31685 O 3103.39 1.43865 1.30894 0
M  V30 31686 C 3103.67 3.14315 -1.75722 0
M  V30 31687 C 3103.52 3.0595 -3.29719 0
M  V30 31688 C 3104.84 4.13452 -1.50816 0
M  V30 31689 H 3101.96 0.630315 -0.381932 0
M  V30 31690 H 3104.6 1.15894 -1.50561 0
M  V30 31691 H 3102.75 3.63627 -1.36776 0
M  V30 31692 H 3104.42 2.64272 -3.78098 0
M  V30 31693 H 3102.67 2.42797 -3.59488 0
M  V30 31694 H 3103.34 4.05479 -3.74554 0
M  V30 31695 H 3105.81 3.72889 -1.84643 0
M  V30 31696 H 3104.69 5.09993 -2.02973 0
M  V30 31697 H 3104.95 4.39901 -0.44037 0
M  V30 31698 N 3104.01 1.03186 1.19123 0
M  V30 31699 C 3105.29 0.644606 1.84673 0
M  V30 31700 C 3105.67 -0.876501 1.92043 0
M  V30 31701 O 3105.01 -1.77441 1.43968 0
M  V30 31702 C 3105.22 1.31015 3.23475 0
M  V30 31703 C 3106.57 1.43531 3.99605 0
M  V30 31704 O 3107.6 1.26756 3.32883 0
M  V30 31705 O 3106.46 1.70785 5.19129 0
M  V30 31706 H 3103.55 0.224434 0.795964 0
M  V30 31707 H 3106.1 1.1302 1.26588 0
M  V30 31708 H 3104.87 2.34883 3.12963 0
M  V30 31709 H 3104.49 0.812615 3.89207 0
M  V30 31710 N 3105.49 -1.35184 0.810125 0
M  V30 31711 C 3106.73 -1.98961 0.392733 0
M  V30 31712 C 3107.07 -1.64111 -1.03832 0
M  V30 31713 O 3106.34 -0.90623 -1.72098 0
M  V30 31714 C 3106.63 -3.55392 0.580411 0
M  V30 31715 C 3106.48 -4.00027 2.05666 0
M  V30 31716 C 3107.8 -4.40099 0.00830353 0
M  V30 31717 H 3104.92 -0.722761 0.14417 0
M  V30 31718 H 3107.56 -1.6028 1.02032 0
M  V30 31719 H 3105.71 -3.88473 0.0461789 0
M  V30 31720 H 3107.38 -3.77339 2.65354 0
M  V30 31721 H 3105.62 -3.50807 2.55181 0
M  V30 31722 H 3106.29 -5.08879 2.13884 0
M  V30 31723 H 3108.77 -4.13498 0.46459 0
M  V30 31724 H 3107.65 -5.48638 0.16951 0
M  V30 31725 H 3107.91 -4.28562 -1.08569 0
M  V30 31726 N 3106.97 -0.56394 -1.47165 0
M  V30 31727 C 3108.24 0.0235828 -1.95586 0
M  V30 31728 C 3108.62 1.47869 -1.50658 0
M  V30 31729 O 3107.97 2.15892 -0.748517 0
M  V30 31730 C 3108.18 -0.128902 -3.48762 0
M  V30 31731 C 3109.53 0.0129797 -4.24598 0
M  V30 31732 O 3110.55 -0.0567868 -3.56155 0
M  V30 31733 O 3109.41 0.164236 -5.46253 0
M  V30 31734 H 3106.51 0.0603644 -0.824794 0
M  V30 31735 H 3109.05 -0.630938 -1.57535 0
M  V30 31736 H 3107.82 -1.1412 -3.74289 0
M  V30 31737 H 3107.45 0.562921 -3.93595 0
M  V30 31738 N 3108.44 1.54704 -0.300735 0
M  V30 31739 C 3109.69 2.00431 0.309076 0
M  V30 31740 C 3110.02 1.18882 1.5356 0
M  V30 31741 O 3109.3 0.265239 1.92683 0
M  V30 31742 C 3109.58 3.53889 0.665933 0
M  V30 31743 C 3109.43 4.46177 -0.569709 0
M  V30 31744 C 3110.75 4.14018 1.49255 0
M  V30 31745 H 3107.87 0.728614 0.110865 0
M  V30 31746 H 3110.51 1.85462 -0.412781 0
M  V30 31747 H 3108.66 3.66775 1.28094 0
M  V30 31748 H 3110.34 4.45197 -1.20818 0
M  V30 31749 H 3108.58 4.16786 -1.203 0
M  V30 31750 H 3109.25 5.5131 -0.275882 0
M  V30 31751 H 3111.73 4.04566 0.972908 0
M  V30 31752 H 3110.6 5.21551 1.71102 0
M  V30 31753 H 3110.86 3.65876 2.48167 0
M  V30 31754 N 3109.92 0.0284543 1.57574 0
M  V30 31755 C 3111.15 -0.664102 1.9648 0
M  V30 31756 C 3111.57 -1.64906 0.904855 0
M  V30 31757 O 3110.93 -1.80802 -0.134307 0
M  V30 31758 C 3110.98 -1.34739 3.34481 0
M  V30 31759 O 3110.08 -2.46265 3.30798 0
M  V30 31760 H 3109.42 -0.174513 0.640657 0
M  V30 31761 H 3111.95 0.0901088 2.04401 0
M  V30 31762 H 3111.96 -1.70433 3.70697 0
M  V30 31763 H 3110.64 -0.625396 4.11171 0
M  V30 31764 H 3109.22 -2.12687 3.06298 0
M  V30 31765 N 3111.4 -1.55689 -0.244686 0
M  V30 31766 C 3112.63 -1.82022 -0.994125 0
M  V30 31767 C 3113.05 -0.605802 -1.78078 0
M  V30 31768 O 3112.41 0.44519 -1.75749 0
M  V30 31769 C 3112.46 -3.06115 -1.90594 0
M  V30 31770 O 3111.56 -2.83186 -2.99799 0
M  V30 31771 H 3110.9 -0.600787 -0.282756 0
M  V30 31772 H 3113.43 -2.02877 -0.265004 0
M  V30 31773 H 3113.44 -3.35607 -2.32017 0
M  V30 31774 H 3112.12 -3.94143 -1.32756 0
M  V30 31775 H 3110.69 -2.64867 -2.62488 0
M  V30 31776 N 3112.88 0.510441 -1.49105 0
M  V30 31777 C 3114.13 1.26265 -1.57802 0
M  V30 31778 C 3114.45 1.93227 -0.262383 0
M  V30 31779 O 3113.72 1.82284 0.717592 0
M  V30 31780 H 3112.3 0.469029 -0.581395 0
M  V30 31781 H 3114.96 0.59239 -1.85679 0
M  V30 31782 H 3114.06 2.03161 -2.36922 0
M  V30 31783 N 3114.36 1.38021 0.760791 0
M  V30 31784 C 3115.6 1.33833 1.5197 0
M  V30 31785 C 3115.93 -0.0738513 1.9436 0
M  V30 31786 O 3115.19 -1.04943 1.65183 0
M  V30 31787 C 3115.49 2.23344 2.7902 0
M  V30 31788 C 3115.15 3.71436 2.55629 0
M  V30 31789 C 3113.81 4.11792 2.48959 0
M  V30 31790 C 3116.17 4.65209 2.3501 0
M  V30 31791 C 3113.49 5.44022 2.19674 0
M  V30 31792 C 3115.85 5.97688 2.07248 0
M  V30 31793 C 3114.51 6.37137 1.99029 0
M  V30 31794 H 3113.78 0.489729 0.556099 0
M  V30 31795 H 3116.43 1.70319 0.87542 0
M  V30 31796 H 3114.73 1.79889 3.48062 0
M  V30 31797 H 3116.43 2.17411 3.36947 0
M  V30 31798 H 3113.02 3.39436 2.61689 0
M  V30 31799 H 3117.2 4.34882 2.39147 0
M  V30 31800 H 3112.46 5.73537 2.11814 0
M  V30 31801 H 3116.63 6.69896 1.90295 0
M  V30 31802 H 3114.26 7.39522 1.76102 0
M  V30 31803 N 3115.83 -0.98818 1.22771 0
M  V30 31804 C 3117.08 -1.72262 1.04923 0
M  V30 31805 C 3117.4 -1.91141 -0.415249 0
M  V30 31806 O 3118.6 -2.61957 -0.713501 0
M  V30 31807 C 3117.06 -3.09963 1.82896 0
M  V30 31808 C 3116.67 -2.98998 3.33623 0
M  V30 31809 C 3118.41 -3.8742 1.73512 0
M  V30 31810 C 3116.32 -4.31882 4.04019 0
M  V30 31811 H 3115.25 -0.645906 0.389001 0
M  V30 31812 H 3117.9 -1.10279 1.46666 0
M  V30 31813 H 3116.28 -3.72656 1.33955 0
M  V30 31814 H 3117.45 -2.45441 3.89994 0
M  V30 31815 H 3115.77 -2.35021 3.43736 0
M  V30 31816 H 3118.37 -4.85784 2.23424 0
M  V30 31817 H 3118.71 -4.10434 0.696416 0
M  V30 31818 H 3119.24 -3.31414 2.20022 0
M  V30 31819 H 3115.98 -4.14067 5.08163 0
M  V30 31820 H 3115.5 -4.85333 3.52437 0
M  V30 31821 H 3117.18 -5.00608 4.09879 0
M  V30 31822 N 3117.31 -1.03816 -1.18575 0
M  V30 31823 C 3118.54 -0.758898 -1.92157 0
M  V30 31824 C 3118.95 0.687467 -1.76268 0
M  V30 31825 O 3118.29 1.48008 -1.08808 0
M  V30 31826 C 3118.36 -1.04223 -3.44061 0
M  V30 31827 C 3118.02 -2.482 -3.83726 0
M  V30 31828 C 3119.02 -3.4637 -3.87716 0
M  V30 31829 C 3116.7 -2.82846 -4.15095 0
M  V30 31830 C 3118.7 -4.77236 -4.22522 0
M  V30 31831 C 3116.38 -4.13919 -4.49571 0
M  V30 31832 C 3117.38 -5.10925 -4.5326 0
M  V30 31833 O 3117.07 -6.39649 -4.86933 0
M  V30 31834 H 3116.8 -0.276346 -0.616935 0
M  V30 31835 H 3119.35 -1.38822 -1.51386 0
M  V30 31836 H 3117.58 -0.355777 -3.8506 0
M  V30 31837 H 3119.27 -0.751162 -3.98889 0
M  V30 31838 H 3120.04 -3.20943 -3.63622 0
M  V30 31839 H 3115.92 -2.08013 -4.11402 0
M  V30 31840 H 3119.46 -5.52949 -4.25316 0
M  V30 31841 H 3115.36 -4.39116 -4.73126 0
M  V30 31842 H 3116.13 -6.44262 -5.04846 0
M  V30 31843 N 3118.79 1.34753 -0.817283 0
M  V30 31844 C 3120.04 1.99174 -0.412442 0
M  V30 31845 C 3120.39 1.63641 1.01189 0
M  V30 31846 O 3119.68 0.894927 1.69416 0
M  V30 31847 C 3119.88 3.53215 -0.545362 0
M  V30 31848 C 3119.71 4.03713 -1.98107 0
M  V30 31849 C 3118.48 4.32569 -2.61174 0
M  V30 31850 C 3120.68 4.21489 -2.94706 0
M  V30 31851 N 3118.66 4.69066 -3.96044 0
M  V30 31852 C 3120.03 4.61102 -4.1447 0
M  V30 31853 C 3122.08 4.03723 -2.91397 0
M  V30 31854 C 3120.79 4.84806 -5.31371 0
M  V30 31855 C 3122.81 4.28591 -4.0751 0
M  V30 31856 C 3122.17 4.68485 -5.26024 0
M  V30 31857 H 3118.27 0.756279 -0.198913 0
M  V30 31858 H 3120.86 1.63265 -1.06079 0
M  V30 31859 H 3119.03 3.88331 0.0730537 0
M  V30 31860 H 3120.76 4.04539 -0.11407 0
M  V30 31861 H 3117.52 4.23274 -2.12453 0
M  V30 31862 H 3117.94 4.91557 -4.65511 0
M  V30 31863 H 3122.58 3.72013 -2.00914 0
M  V30 31864 H 3120.3 5.15386 -6.22417 0
M  V30 31865 H 3123.89 4.16386 -4.06342 0
M  V30 31866 H 3122.77 4.8735 -6.14378 0
M  V30 31867 N 3120.27 0.571737 1.46864 0
M  V30 31868 C 3121.51 0.0556846 2.04324 0
M  V30 31869 C 3121.87 -1.27574 1.43488 0
M  V30 31870 O 3123.07 -1.88036 1.92083 0
M  V30 31871 C 3121.35 -0.0205635 3.57394 0
M  V30 31872 S 3122.9 -0.480633 4.3616 0
M  V30 31873 H 3119.72 0.0321592 0.710272 0
M  V30 31874 H 3122.32 0.761756 1.80049 0
M  V30 31875 H 3121.03 0.952579 3.99192 0
M  V30 31876 H 3120.56 -0.749745 3.8619 0
M  V30 31877 H 3122.57 -1.73755 4.64783 0
M  V30 31878 N 3121.75 -1.54542 0.308935 0
M  V30 31879 C 3123.02 -1.92415 -0.351524 0
M  V30 31880 C 3123.4 -1.23702 -1.71058 0
M  V30 31881 O 3122.75 -0.37554 -2.25393 0
M  V30 31882 C 3122.96 -3.45978 -0.458296 0
M  V30 31883 C 3124.31 -4.18357 -0.72545 0
M  V30 31884 O 3125.33 -3.52055 -0.541797 0
M  V30 31885 O 3124.19 -5.35747 -1.07875 0
M  V30 31886 H 3121.29 -0.802962 -0.197943 0
M  V30 31887 H 3123.83 -1.6589 0.357577 0
M  V30 31888 H 3122.61 -3.88134 0.496791 0
M  V30 31889 H 3122.23 -3.78563 -1.21555 0
M  V30 31890 N 3123.23 -0.0368104 -1.57557 0
M  V30 31891 C 3124.47 0.640151 -1.92115 0
M  V30 31892 C 3124.8 1.71691 -0.913917 0
M  V30 31893 O 3124.06 1.95552 0.0759999 0
M  V30 31894 C 3124.35 1.28788 -3.33389 0
M  V30 31895 C 3124.02 0.34074 -4.49611 0
M  V30 31896 C 3122.68 0.0800729 -4.81133 0
M  V30 31897 C 3125.03 -0.309197 -5.20282 0
M  V30 31898 C 3122.36 -0.838209 -5.80681 0
M  V30 31899 C 3124.71 -1.21558 -6.20811 0
M  V30 31900 C 3123.38 -1.48506 -6.5077 0
M  V30 31901 H 3122.65 0.234248 -0.703 0
M  V30 31902 H 3125.3 -0.100222 -1.91238 0
M  V30 31903 H 3123.6 2.10319 -3.30565 0
M  V30 31904 H 3125.3 1.81837 -3.57402 0
M  V30 31905 H 3121.89 0.554086 -4.25003 0
M  V30 31906 H 3126.07 -0.120882 -4.96153 0
M  V30 31907 H 3121.33 -1.05462 -6.02236 0
M  V30 31908 H 3125.5 -1.72534 -6.74689 0
M  V30 31909 H 3123.13 -2.19827 -7.27723 0
M  V30 31910 N 3124.7 1.55817 0.236426 0
M  V30 31911 C 3125.93 1.82546 0.984458 0
M  V30 31912 C 3126.35 0.615237 1.77754 0
M  V30 31913 O 3125.71 -0.435864 1.75983 0
M  V30 31914 C 3125.76 3.07121 1.88968 0
M  V30 31915 O 3124.86 2.84772 2.98293 0
M  V30 31916 H 3124.2 0.602278 0.279566 0
M  V30 31917 H 3126.73 2.03014 0.254241 0
M  V30 31918 H 3126.74 3.36833 2.30234 0
M  V30 31919 H 3125.42 3.94841 1.30664 0
M  V30 31920 H 3124 2.66255 2.6108 0
M  V30 31921 N 3126.18 -0.502526 1.49373 0
M  V30 31922 C 3127.41 -1.28553 1.62754 0
M  V30 31923 C 3127.83 -1.85719 0.298318 0
M  V30 31924 O 3127.19 -1.65784 -0.733856 0
M  V30 31925 C 3127.24 -2.39269 2.69783 0
M  V30 31926 O 3126.34 -3.43077 2.28849 0
M  V30 31927 H 3125.68 -0.379583 0.544805 0
M  V30 31928 H 3128.21 -0.601757 1.95551 0
M  V30 31929 H 3128.22 -2.85055 2.91904 0
M  V30 31930 H 3126.9 -1.97027 3.66269 0
M  V30 31931 H 3125.47 -3.0322 2.17053 0
M  V30 31932 N 3127.66 -1.38422 -0.75346 0
M  V30 31933 C 3128.88 -1.3805 -1.54781 0
M  V30 31934 C 3129.31 0.027604 -1.8808 0
M  V30 31935 O 3128.67 1.0097 -1.50581 0
M  V30 31936 C 3128.72 -2.24302 -2.82349 0
M  V30 31937 O 3127.82 -1.6602 -3.77506 0
M  V30 31938 H 3127.16 -0.470891 -0.468143 0
M  V30 31939 H 3129.69 -1.82185 -0.931112 0
M  V30 31940 H 3129.7 -2.38165 -3.31273 0
M  V30 31941 H 3128.38 -3.26643 -2.57443 0
M  V30 31942 H 3126.95 -1.613 -3.3621 0
M  V30 31943 N 3129.14 0.981655 -1.23294 0
M  V30 31944 C 3130.38 1.72533 -1.06585 0
M  V30 31945 C 3130.72 1.90109 0.396505 0
M  V30 31946 O 3129.99 1.45245 1.29361 0
M  V30 31947 C 3130.27 3.12434 -1.79045 0
M  V30 31948 C 3130.13 3.02435 -3.32946 0
M  V30 31949 C 3131.45 4.11829 -1.55193 0
M  V30 31950 H 3128.57 0.626229 -0.388596 0
M  V30 31951 H 3131.21 1.14291 -1.51781 0
M  V30 31952 H 3129.36 3.62156 -1.40625 0
M  V30 31953 H 3131.03 2.60247 -3.80879 0
M  V30 31954 H 3129.27 2.38971 -3.62043 0
M  V30 31955 H 3129.94 4.01483 -3.78834 0
M  V30 31956 H 3132.42 3.7091 -1.88587 0
M  V30 31957 H 3131.3 5.07812 -2.08371 0
M  V30 31958 H 3131.56 4.39409 -0.487002 0
M  V30 31959 N 3130.62 1.04444 1.18022 0
M  V30 31960 C 3131.58 0.643174 2.19991 0
M  V30 31961 C 3132.58 -0.301416 1.5795 0
M  V30 31962 O 3133.77 -0.0863035 1.73986 0
M  V30 31963 C 3130.9 -0.0564609 3.40853 0
M  V30 31964 H 3132.09 1.54559 2.57005 0
M  V30 31965 H 3129.65 0.837432 1.31973 0
M  V30 31966 H 3130.38 -0.972499 3.09375 0
M  V30 31967 H 3130.17 0.622507 3.87127 0
M  V30 31968 H 3131.66 -0.323579 4.16344 0
M  V30 31969 N 3132.09 -1.34317 0.824418 0
M  V30 31970 C 3133.32 -2.02994 0.42523 0
M  V30 31971 C 3133.74 -1.61672 -0.961448 0
M  V30 31972 O 3133.1 -0.802098 -1.62592 0
M  V30 31973 C 3133.15 -3.56578 0.537067 0
M  V30 31974 O 3132.25 -4.10019 -0.442504 0
M  V30 31975 H 3131.59 -0.640561 0.174864 0
M  V30 31976 H 3134.12 -1.71532 1.11525 0
M  V30 31977 H 3134.13 -4.059 0.413382 0
M  V30 31978 H 3132.81 -3.86001 1.54842 0
M  V30 31979 H 3131.39 -3.71865 -0.277579 0
M  V30 31980 N 3133.57 -0.579517 -1.46558 0
M  V30 31981 C 3134.85 0.00283698 -1.956 0
M  V30 31982 C 3135.23 1.46263 -1.52218 0
M  V30 31983 O 3134.58 2.15086 -0.771373 0
M  V30 31984 C 3134.79 -0.165886 -3.48606 0
M  V30 31985 C 3136.13 -0.0320553 -4.24588 0
M  V30 31986 O 3137.16 -0.0945586 -3.56074 0
M  V30 31987 O 3136.02 0.10629 -5.46397 0
M  V30 31988 H 3133.11 0.0516129 -0.825388 0
M  V30 31989 H 3135.66 -0.647611 -1.56857 0
M  V30 31990 H 3134.43 -1.18083 -3.73058 0
M  V30 31991 H 3134.05 0.521143 -3.9417 0
M  V30 31992 N 3135.05 1.54376 -0.317127 0
M  V30 31993 C 3136 2.25575 0.567331 0
M  V30 31994 C 3136.99 1.26752 1.12385 0
M  V30 31995 O 3138.2 1.4455 1.07263 0
M  V30 31996 H 3134.57 0.724475 0.201592 0
M  V30 31997 H 3136.54 2.98348 -0.0555169 0
M  V30 31998 C 3135.29 3.0219 1.71978 0
M  V30 31999 H 3134.62 3.78047 1.3008 0
M  V30 32000 H 3136.06 3.55264 2.31437 0
M  V30 32001 C 3134.52 2.10107 2.63356 0
M  V30 32002 O 3135.05 1.67969 3.64896 0
M  V30 32003 N 3133.25 1.75729 2.31447 0
M  V30 32004 H 3132.8 2.10193 1.48918 0
M  V30 32005 H 3132.76 1.14396 2.9285 0
M  V30 32006 N 3136.53 0.0451655 1.57535 0
M  V30 32007 C 3137.49 -0.916424 2.10082 0
M  V30 32008 C 3138.49 -1.24378 1.01915 0
M  V30 32009 O 3139.68 -1.18146 1.28012 0
M  V30 32010 C 3136.81 -2.22814 2.58005 0
M  V30 32011 H 3138.01 -0.461024 2.96335 0
M  V30 32012 H 3135.56 -0.203142 1.54974 0
M  V30 32013 H 3136.29 -2.72948 1.75128 0
M  V30 32014 H 3136.08 -2.0036 3.37044 0
M  V30 32015 H 3137.57 -2.91705 2.98828 0
M  V30 32016 N 3138.01 -1.5594 -0.228159 0
M  V30 32017 C 3139.26 -1.77845 -0.951532 0
M  V30 32018 C 3139.57 -0.612534 -1.85762 0
M  V30 32019 O 3140.77 -0.715052 -2.61915 0
M  V30 32020 C 3139.23 -3.14926 -1.74211 0
M  V30 32021 C 3138.84 -4.39222 -0.882492 0
M  V30 32022 C 3140.58 -3.46161 -2.45709 0
M  V30 32023 C 3138.49 -5.6733 -1.67004 0
M  V30 32024 H 3137.42 -0.663037 -0.359024 0
M  V30 32025 H 3140.07 -1.82345 -0.205604 0
M  V30 32026 H 3138.45 -3.04585 -2.5307 0
M  V30 32027 H 3139.63 -4.60602 -0.134909 0
M  V30 32028 H 3137.94 -4.15458 -0.279949 0
M  V30 32029 H 3140.54 -4.39097 -3.0512 0
M  V30 32030 H 3140.88 -2.68352 -3.18266 0
M  V30 32031 H 3141.41 -3.57802 -1.73846 0
M  V30 32032 H 3138.15 -6.48013 -0.987872 0
M  V30 32033 H 3137.67 -5.50022 -2.39241 0
M  V30 32034 H 3139.35 -6.07266 -2.23241 0
M  V30 32035 N 3139.48 0.494597 -1.49638 0
M  V30 32036 C 3140.9 0.826337 -1.36542 0
M  V30 32037 C 3141.1 1.9742 -0.403421 0
M  V30 32038 O 3140.16 2.51976 0.16257 0
M  V30 32039 C 3141.47 1.16052 -2.77403 0
M  V30 32040 C 3143.02 1.26835 -2.8615 0
M  V30 32041 C 3143.49 1.63579 -4.27792 0
M  V30 32042 N 3144.98 1.70616 -4.30633 0
M  V30 32043 C 3145.72 2.00504 -5.37202 0
M  V30 32044 N 3145.21 2.28573 -6.54008 0
M  V30 32045 N 3147.01 2.01809 -5.24623 0
M  V30 32046 H 3139.16 -0.262227 -2.10775 0
M  V30 32047 H 3141.42 -0.0547401 -0.946418 0
M  V30 32048 H 3141.13 0.390373 -3.49527 0
M  V30 32049 H 3141 2.10243 -3.13173 0
M  V30 32050 H 3143.39 2.02921 -2.1426 0
M  V30 32051 H 3143.47 0.306795 -2.53954 0
M  V30 32052 H 3143.11 0.880419 -5.00211 0
M  V30 32053 H 3143.04 2.60846 -4.57457 0
M  V30 32054 H 3145.53 1.51059 -3.46395 0
M  V30 32055 H 3145.85 2.50585 -7.31045 0
M  V30 32056 H 3144.19 2.26015 -6.57223 0
M  V30 32057 H 3147.38 1.79362 -4.32374 0
M  V30 32058 H 3147.56 2.24768 -6.07769 0
M  V30 32059 N 3140.96 1.3882 0.746109 0
M  V30 32060 C 3142.38 1.20181 1.05018 0
M  V30 32061 C 3142.58 0.0556625 2.01423 0
M  V30 32062 O 3141.63 -0.596207 2.4536 0
M  V30 32063 C 3142.95 2.53132 1.6231 0
M  V30 32064 C 3144.5 2.59881 1.74445 0
M  V30 32065 C 3144.97 3.93026 2.35148 0
M  V30 32066 N 3146.46 3.94606 2.4257 0
M  V30 32067 C 3147.2 4.94394 2.90451 0
M  V30 32068 N 3146.69 6.0458 3.38311 0
M  V30 32069 N 3148.49 4.8178 2.89559 0
M  V30 32070 H 3140.64 2.12133 0.106514 0
M  V30 32071 H 3142.9 0.94161 0.10988 0
M  V30 32072 H 3142.61 3.37496 0.9894 0
M  V30 32073 H 3142.48 2.72061 2.61271 0
M  V30 32074 H 3144.87 1.75907 2.3694 0
M  V30 32075 H 3144.95 2.44812 0.741678 0
M  V30 32076 H 3144.59 4.77426 1.73284 0
M  V30 32077 H 3144.52 4.0541 3.36081 0
M  V30 32078 H 3147.01 3.15025 2.08729 0
M  V30 32079 H 3147.33 6.76645 3.73324 0
M  V30 32080 H 3145.67 6.0819 3.36349 0
M  V30 32081 H 3148.86 3.94807 2.51485 0
M  V30 32082 H 3149.03 5.59698 3.26561 0
M  V30 32083 N 3142.44 -0.975103 1.23812 0
M  V30 32084 C 3143.69 -1.71139 1.06744 0
M  V30 32085 C 3144 -1.91571 -0.394952 0
M  V30 32086 O 3145.21 -2.62699 -0.685677 0
M  V30 32087 C 3143.66 -3.08006 1.86173 0
M  V30 32088 C 3143.27 -2.95442 3.36776 0
M  V30 32089 C 3145.02 -3.85557 1.77611 0
M  V30 32090 C 3142.92 -4.27573 4.08577 0
M  V30 32091 H 3141.85 -0.641743 0.39583 0
M  V30 32092 H 3144.5 -1.08717 1.47827 0
M  V30 32093 H 3142.89 -3.71214 1.379 0
M  V30 32094 H 3144.06 -2.41291 3.92575 0
M  V30 32095 H 3142.38 -2.31362 3.46209 0
M  V30 32096 H 3144.97 -4.83387 2.28564 0
M  V30 32097 H 3145.32 -4.09672 0.739909 0
M  V30 32098 H 3145.85 -3.29062 2.23525 0
M  V30 32099 H 3142.59 -4.08653 5.12526 0
M  V30 32100 H 3142.11 -4.81568 3.57564 0
M  V30 32101 H 3143.79 -4.96232 4.15166 0
M  V30 32102 N 3143.92 -1.05068 -1.17467 0
M  V30 32103 C 3144.87 -0.650551 -2.21442 0
M  V30 32104 C 3145.84 0.346674 -1.62442 0
M  V30 32105 O 3147.02 0.238371 -1.89305 0
M  V30 32106 C 3144.16 -0.0301621 -3.45087 0
M  V30 32107 C 3143.27 -1.07607 -4.18384 0
M  V30 32108 C 3142.41 -0.423131 -5.29512 0
M  V30 32109 C 3141.45 -1.45343 -5.94594 0
M  V30 32110 N 3140.58 -0.824745 -6.97239 0
M  V30 32111 H 3145.42 -1.54167 -2.55022 0
M  V30 32112 H 3142.96 -0.771054 -1.25272 0
M  V30 32113 H 3144.92 0.346959 -4.15755 0
M  V30 32114 H 3143.55 0.824426 -3.12095 0
M  V30 32115 H 3142.6 -1.57103 -3.46443 0
M  V30 32116 H 3143.91 -1.85821 -4.62895 0
M  V30 32117 H 3143.07 0.00764311 -6.067 0
M  V30 32118 H 3141.81 0.391007 -4.8613 0
M  V30 32119 H 3140.81 -1.89424 -5.16138 0
M  V30 32120 H 3142.04 -2.26945 -6.40057 0
M  V30 32121 H 3139.98 -0.0310957 -6.55993 0
M  V30 32122 H 3139.9 -1.54445 -7.40056 0
M  V30 32123 H 3141.17 -0.418703 -7.78375 0
M  V30 32124 N 3145.4 1.33878 -0.831529 0
M  V30 32125 C 3146.81 1.80387 -0.481406 0
M  V30 32126 C 3147.16 1.68864 0.998963 0
M  V30 32127 O 3146.28 1.23363 1.77793 0
M  V30 32128 C 3146.88 3.27518 -0.867048 0
M  V30 32129 C 3145.44 3.72072 -0.56917 0
M  V30 32130 C 3144.58 2.55432 -1.07934 0
M  V30 32131 H 3147.54 1.21503 -1.02091 0
M  V30 32132 H 3147.56 3.80101 -0.174195 0
M  V30 32133 H 3147.07 3.35872 -1.94452 0
M  V30 32134 H 3145.17 3.6925 0.498542 0
M  V30 32135 H 3145.28 4.65843 -1.11926 0
M  V30 32136 H 3143.65 2.49734 -0.500509 0
M  V30 32137 H 3144.43 2.66552 -2.16344 0
M  V30 32138 N 3146.87 0.587281 1.46249 0
M  V30 32139 C 3148.15 0.00753619 1.95599 0
M  V30 32140 C 3148.53 -1.45454 1.52991 0
M  V30 32141 O 3147.88 -2.14674 0.782768 0
M  V30 32142 C 3148.09 0.184371 3.48513 0
M  V30 32143 C 3149.44 0.0545718 4.24565 0
M  V30 32144 O 3150.46 0.113441 3.56019 0
M  V30 32145 O 3149.32 -0.0773115 5.46445 0
M  V30 32146 H 3146.41 -0.047235 0.82565 0
M  V30 32147 H 3148.96 0.655921 1.56511 0
M  V30 32148 H 3147.73 1.2006 3.72426 0
M  V30 32149 H 3147.36 -0.500232 3.94441 0
M  V30 32150 N 3148.35 -1.54206 0.325309 0
M  V30 32151 C 3149.6 -2.00204 -0.276193 0
M  V30 32152 C 3149.92 -1.21505 -1.52517 0
M  V30 32153 O 3149.19 -0.317336 -1.93313 0
M  V30 32154 H 3147.77 -0.739577 -0.105046 0
M  V30 32155 H 3150.43 -1.89816 0.442258 0
M  V30 32156 H 3149.53 -3.07543 -0.531373 0
M  V30 32157 N 3149.83 -0.0535194 -1.57509 0
M  V30 32158 C 3151.06 0.63276 -1.97512 0
M  V30 32159 C 3151.48 1.63446 -0.930976 0
M  V30 32160 O 3150.84 1.80993 0.105526 0
M  V30 32161 C 3150.89 1.29401 -3.36582 0
M  V30 32162 O 3149.99 2.40971 -3.34674 0
M  V30 32163 H 3149.33 0.164298 -0.643352 0
M  V30 32164 H 3151.86 -0.122616 -2.04232 0
M  V30 32165 H 3151.87 1.64514 -3.73362 0
M  V30 32166 H 3150.55 0.559903 -4.12114 0
M  V30 32167 H 3149.12 2.07787 -3.09643 0
M  V30 32168 N 3151.31 1.56059 0.219886 0
M  V30 32169 C 3152.53 1.8358 0.965041 0
M  V30 32170 C 3152.96 0.634055 1.77091 0
M  V30 32171 O 3152.32 -0.417174 1.76435 0
M  V30 32172 C 3152.37 3.09108 1.857 0
M  V30 32173 O 3151.47 2.87919 2.95256 0
M  V30 32174 H 3150.81 0.605209 0.273163 0
M  V30 32175 H 3153.34 2.03272 0.232695 0
M  V30 32176 H 3153.35 3.39256 2.26649 0
M  V30 32177 H 3152.03 3.96205 1.26469 0
M  V30 32178 H 3150.6 2.69009 2.58241 0
M  V30 32179 N 3152.79 -0.486655 1.49898 0
M  V30 32180 C 3153.72 -1.59491 1.70543 0
M  V30 32181 C 3154.7 -1.60818 0.554213 0
M  V30 32182 O 3155.88 -1.77332 0.791648 0
M  V30 32183 C 3153.01 -2.97905 1.78522 0
M  V30 32184 C 3151.97 -3.11444 2.93576 0
M  V30 32185 C 3151.29 -4.51351 2.86682 0
M  V30 32186 C 3152.59 -2.90119 4.34313 0
M  V30 32187 H 3154.29 -1.42467 2.63331 0
M  V30 32188 H 3151.83 -0.683947 1.26721 0
M  V30 32189 H 3153.79 -3.75348 1.9155 0
M  V30 32190 H 3152.51 -3.16049 0.823437 0
M  V30 32191 H 3151.17 -2.36429 2.80173 0
M  V30 32192 H 3150.82 -4.66392 1.88381 0
M  V30 32193 H 3150.52 -4.61348 3.63912 0
M  V30 32194 H 3152.04 -5.30836 3.01737 0
M  V30 32195 H 3153.46 -3.57323 4.48323 0
M  V30 32196 H 3151.85 -3.11576 5.12875 0
M  V30 32197 H 3152.92 -1.86111 4.47762 0
M  V30 32198 N 3154.27 -1.39214 -0.738737 0
M  V30 32199 C 3155.2 -1.32022 -1.86133 0
M  V30 32200 C 3156.18 -0.19454 -1.61432 0
M  V30 32201 O 3157.36 -0.374364 -1.84745 0
M  V30 32202 C 3154.49 -1.04913 -3.22042 0
M  V30 32203 C 3153.53 -2.19619 -3.65608 0
M  V30 32204 S 3154.37 -3.81873 -3.75411 0
M  V30 32205 C 3155.52 -3.56982 -5.14116 0
M  V30 32206 H 3155.76 -2.2703 -1.9195 0
M  V30 32207 H 3153.29 -1.25225 -0.903222 0
M  V30 32208 H 3155.25 -0.899561 -4.00522 0
M  V30 32209 H 3153.91 -0.115973 -3.13886 0
M  V30 32210 H 3153.1 -1.96235 -4.64228 0
M  V30 32211 H 3152.7 -2.3076 -2.94323 0
M  V30 32212 H 3154.99 -3.14015 -6.00334 0
M  V30 32213 H 3155.94 -4.55049 -5.42527 0
M  V30 32214 H 3156.35 -2.91164 -4.83615 0
M  V30 32215 N 3155.74 0.968523 -1.24328 0
M  V30 32216 C 3156.69 2.08423 -1.0326 0
M  V30 32217 C 3157.69 1.69369 0.0322058 0
M  V30 32218 O 3158.89 1.79584 -0.122283 0
M  V30 32219 H 3155.27 0.68197 -0.316892 0
M  V30 32220 H 3157.24 2.23355 -1.97877 0
M  V30 32221 C 3155.99 3.41509 -0.653204 0
M  V30 32222 H 3155.31 3.72019 -1.46431 0
M  V30 32223 H 3156.75 4.20478 -0.54539 0
M  V30 32224 C 3155.21 3.30773 0.639616 0
M  V30 32225 O 3155.74 3.64625 1.68556 0
M  V30 32226 N 3153.94 2.83909 0.620024 0
M  V30 32227 H 3153.49 2.56558 -0.231494 0
M  V30 32228 H 3153.45 2.77107 1.48523 0
M  V30 32229 N 3157.22 1.0569 1.16908 0
M  V30 32230 C 3158.47 0.765055 1.86627 0
M  V30 32231 C 3158.78 -0.710886 1.82224 0
M  V30 32232 O 3159.99 -1.11687 2.47464 0
M  V30 32233 C 3158.45 1.31836 3.34884 0
M  V30 32234 C 3158.05 2.82411 3.47776 0
M  V30 32235 C 3159.8 1.10379 4.09899 0
M  V30 32236 C 3157.7 3.31016 4.90084 0
M  V30 32237 H 3156.63 0.282503 0.699077 0
M  V30 32238 H 3159.29 1.27483 1.31986 0
M  V30 32239 H 3157.67 0.736381 3.89093 0
M  V30 32240 H 3158.84 3.46507 3.03759 0
M  V30 32241 H 3157.16 3.02466 2.86188 0
M  V30 32242 H 3159.75 1.44189 5.14892 0
M  V30 32243 H 3160.1 0.0418103 4.16279 0
M  V30 32244 H 3160.63 1.65123 3.6191 0
M  V30 32245 H 3157.37 4.36666 4.8888 0
M  V30 32246 H 3156.89 2.71664 5.34751 0
M  V30 32247 H 3158.57 3.25987 5.58875 0
M  V30 32248 N 3158.7 -1.33435 0.838617 0
M  V30 32249 C 3159.95 -1.98083 0.434847 0
M  V30 32250 C 3160.28 -1.66277 -1.00328 0
M  V30 32251 O 3159.55 -0.942531 -1.70137 0
M  V30 32252 C 3159.84 -3.54081 0.655664 0
M  V30 32253 C 3159.69 -3.95575 2.14104 0
M  V30 32254 C 3161.01 -4.39983 0.101653 0
M  V30 32255 H 3158.13 -0.719541 0.159468 0
M  V30 32256 H 3160.77 -1.58079 1.05408 0
M  V30 32257 H 3158.92 -3.88287 0.128569 0
M  V30 32258 H 3160.59 -3.71626 2.73298 0
M  V30 32259 H 3158.83 -3.45315 2.62564 0
M  V30 32260 H 3159.51 -5.04228 2.2463 0
M  V30 32261 H 3161.98 -4.1242 0.552195 0
M  V30 32262 H 3160.86 -5.48155 0.285847 0
M  V30 32263 H 3161.12 -4.30768 -0.99454 0
M  V30 32264 N 3160.18 -0.595029 -1.45935 0
M  V30 32265 C 3161.41 -0.0913294 -2.06698 0
M  V30 32266 C 3161.82 1.21894 -1.44178 0
M  V30 32267 O 3161.18 1.7397 -0.551433 0
M  V30 32268 C 3161.23 0.0681165 -3.61436 0
M  V30 32269 O 3160.95 -1.19031 -4.2162 0
M  V30 32270 C 3162.45 0.604737 -4.39156 0
M  V30 32271 H 3159.67 -0.0630855 -0.668028 0
M  V30 32272 H 3162.21 -0.819198 -1.87375 0
M  V30 32273 H 3160.37 0.746257 -3.80144 0
M  V30 32274 H 3160.78 -1.01196 -5.14645 0
M  V30 32275 H 3162.26 0.665436 -5.47974 0
M  V30 32276 H 3162.73 1.62437 -4.08058 0
M  V30 32277 H 3163.34 -0.0389405 -4.25282 0
M  V30 32278 N 3161.66 1.54031 -0.333483 0
M  V30 32279 C 3162.61 2.21422 0.543706 0
M  V30 32280 C 3163.59 1.19814 1.07394 0
M  V30 32281 O 3164.78 1.45403 1.00931 0
M  V30 32282 C 3161.91 2.98299 1.69919 0
M  V30 32283 C 3161 4.07255 1.18338 0
M  V30 32284 N 3161.39 5.0431 0.38801 0
M  V30 32285 C 3159.69 4.21384 1.4612 0
M  V30 32286 C 3160.39 5.81597 0.109281 0
M  V30 32287 N 3159.36 5.39098 0.698155 0
M  V30 32288 H 3163.16 2.93814 -0.0711535 0
M  V30 32289 H 3160.68 1.61797 -0.139836 0
M  V30 32290 H 3162.68 3.45071 2.33948 0
M  V30 32291 H 3161.34 2.27432 2.31743 0
M  V30 32292 H 3162.35 5.17891 0.0299735 0
M  V30 32293 H 3159.02 3.61735 2.08457 0
M  V30 32294 H 3160.41 6.69793 -0.531672 0
M  V30 32295 N 3163.13 0.0618717 1.57479 0
M  V30 32296 C 3164.38 -0.608302 1.92728 0
M  V30 32297 C 3164.7 -1.70747 0.941829 0
M  V30 32298 O 3163.97 -1.95897 -0.0116264 0
M  V30 32299 H 3162.55 -0.227688 0.711454 0
M  V30 32300 H 3165.21 0.117393 1.94546 0
M  V30 32301 H 3164.31 -1.04002 2.94262 0
M  V30 32302 N 3164.61 -1.56173 -0.211607 0
M  V30 32303 C 3165.86 -1.78844 -0.932616 0
M  V30 32304 C 3166.17 -0.632202 -1.85101 0
M  V30 32305 O 3167.38 -0.742792 -2.61141 0
M  V30 32306 C 3165.84 -3.16756 -1.70861 0
M  V30 32307 C 3165.44 -4.40133 -0.835856 0
M  V30 32308 C 3167.19 -3.48747 -2.42024 0
M  V30 32309 C 3165.1 -5.6907 -1.60977 0
M  V30 32310 H 3164.03 -0.666808 -0.351971 0
M  V30 32311 H 3166.68 -1.82552 -0.186252 0
M  V30 32312 H 3165.06 -3.07252 -2.49825 0
M  V30 32313 H 3166.23 -4.6072 -0.0860489 0
M  V30 32314 H 3164.55 -4.15731 -0.235868 0
M  V30 32315 H 3167.14 -4.42308 -3.00445 0
M  V30 32316 H 3167.49 -2.71712 -3.15402 0
M  V30 32317 H 3168.02 -3.59626 -1.70041 0
M  V30 32318 H 3164.76 -6.49025 -0.919085 0
M  V30 32319 H 3164.28 -5.52528 -2.33393 0
M  V30 32320 H 3165.96 -6.096 -2.16787 0
M  V30 32321 N 3166.09 0.478699 -1.50154 0
M  V30 32322 C 3167.34 1.2289 -1.60445 0
M  V30 32323 C 3167.66 1.92627 -0.30331 0
M  V30 32324 O 3166.93 1.83765 0.678766 0
M  V30 32325 H 3165.51 0.456592 -0.591213 0
M  V30 32326 H 3168.17 0.552872 -1.86894 0
M  V30 32327 H 3167.27 1.98089 -2.41178 0
M  V30 32328 N 3167.57 1.39603 0.731343 0
M  V30 32329 C 3168.48 1.40898 1.87577 0
M  V30 32330 C 3169.49 0.303349 1.71335 0
M  V30 32331 O 3170.67 0.545411 1.93874 0
M  V30 32332 C 3167.74 1.25448 3.23209 0
M  V30 32333 C 3166.8 2.46014 3.51817 0
M  V30 32334 C 3166.03 2.31292 4.80978 0
M  V30 32335 O 3166.25 1.31834 5.54956 0
M  V30 32336 O 3165.19 3.2035 5.09568 0
M  V30 32337 H 3169.01 2.37373 1.8944 0
M  V30 32338 H 3166.6 1.20758 0.879654 0
M  V30 32339 H 3168.48 1.18979 4.04255 0
M  V30 32340 H 3167.15 0.320694 3.22108 0
M  V30 32341 H 3166.06 2.5806 2.70843 0
M  V30 32342 H 3167.39 3.38099 3.57701 0
M  V30 32343 N 3169.05 -0.961916 1.2484 0
M  V30 32344 C 3169.99 -2.07873 1.04364 0
M  V30 32345 C 3170.99 -1.69384 -0.0232233 0
M  V30 32346 O 3172.19 -1.79517 0.131805 0
M  V30 32347 H 3168.57 -0.68028 0.320504 0
M  V30 32348 H 3170.54 -2.22302 1.99058 0
M  V30 32349 C 3169.29 -3.41158 0.671306 0
M  V30 32350 H 3168.61 -3.71237 1.48402 0
M  V30 32351 H 3170.05 -4.20183 0.567682 0
M  V30 32352 C 3168.51 -3.31107 -0.622065 0
M  V30 32353 O 3169.04 -3.65514 -1.6662 0
M  V30 32354 N 3167.25 -2.84233 -0.604959 0
M  V30 32355 H 3166.79 -2.56431 0.245097 0
M  V30 32356 H 3166.75 -2.77891 -1.47051 0
M  V30 32357 N 3170.52 -1.06308 -1.16346 0
M  V30 32358 C 3171.77 -0.778344 -1.86511 0
M  V30 32359 C 3172.09 0.697241 -1.82109 0
M  V30 32360 O 3171.36 1.50444 -1.25473 0
M  V30 32361 H 3169.94 -0.284931 -0.690524 0
M  V30 32362 H 3172.61 -1.34461 -1.4109 0
M  V30 32363 H 3171.7 -1.10338 -2.91945 0
M  V30 32364 N 3172 1.32989 -0.845682 0
M  V30 32365 C 3173.25 1.9785 -0.445346 0
M  V30 32366 C 3173.58 1.66806 0.994446 0
M  V30 32367 O 3172.86 0.95154 1.69635 0
M  V30 32368 C 3173.14 3.53728 -0.674433 0
M  V30 32369 C 3172.99 3.94434 -2.16199 0
M  V30 32370 C 3174.31 4.39922 -0.124985 0
M  V30 32371 H 3171.43 0.718685 -0.163282 0
M  V30 32372 H 3174.07 1.57518 -1.06245 0
M  V30 32373 H 3172.22 3.88214 -0.149159 0
M  V30 32374 H 3173.89 3.70171 -2.75265 0
M  V30 32375 H 3172.14 3.43918 -2.64392 0
M  V30 32376 H 3172.81 5.03029 -2.27301 0
M  V30 32377 H 3175.28 4.12121 -0.574058 0
M  V30 32378 H 3174.16 5.47996 -0.314912 0
M  V30 32379 H 3174.42 4.3129 0.971682 0
M  V30 32380 N 3173.48 0.60276 1.45618 0
M  V30 32381 C 3174.9 0.266018 1.57367 0
M  V30 32382 C 3175.1 -1.23151 1.59487 0
M  V30 32383 O 3174.15 -2.0143 1.52257 0
M  V30 32384 C 3175.47 0.932931 2.85862 0
M  V30 32385 C 3177.01 0.908397 2.99528 0
M  V30 32386 C 3177.49 1.55523 4.30786 0
M  V30 32387 N 3178.98 1.52049 4.37533 0
M  V30 32388 C 3179.71 1.99018 5.37754 0
M  V30 32389 N 3179.21 2.5405 6.44539 0
M  V30 32390 N 3181 1.89814 5.29081 0
M  V30 32391 H 3173.15 1.57517 1.42486 0
M  V30 32392 H 3175.42 0.659568 0.680936 0
M  V30 32393 H 3175.12 1.98718 2.90179 0
M  V30 32394 H 3175 0.453275 3.74467 0
M  V30 32395 H 3177.38 -0.137292 2.9478 0
M  V30 32396 H 3177.47 1.42627 2.12347 0
M  V30 32397 H 3177.11 2.60022 4.36292 0
M  V30 32398 H 3177.04 1.01241 5.16776 0
M  V30 32399 H 3179.53 1.11843 3.6097 0
M  V30 32400 H 3179.84 2.87694 7.17253 0
M  V30 32401 H 3178.19 2.58086 6.45303 0
M  V30 32402 H 3181.38 1.46564 4.44563 0
M  V30 32403 H 3181.55 2.26732 6.07039 0
M  V30 32404 N 3174.96 -1.53852 0.341647 0
M  V30 32405 C 3176.21 -2.00486 -0.254944 0
M  V30 32406 C 3176.53 -1.23116 -1.5122 0
M  V30 32407 O 3175.8 -0.337821 -1.92965 0
M  V30 32408 H 3174.38 -0.74065 -0.0971954 0
M  V30 32409 H 3177.04 -1.89336 0.462366 0
M  V30 32410 H 3176.14 -3.0809 -0.498724 0
M  V30 32411 N 3176.44 -0.0702223 -1.57443 0
M  V30 32412 C 3177.69 0.598815 -1.92606 0
M  V30 32413 C 3178 1.70864 -0.952088 0
M  V30 32414 O 3179.2 2.43714 -1.19648 0
M  V30 32415 C 3177.66 1.11649 -3.42144 0
M  V30 32416 C 3177.27 0.0377567 -4.47984 0
M  V30 32417 C 3179.01 1.75969 -3.8631 0
M  V30 32418 C 3176.92 0.569391 -5.88653 0
M  V30 32419 H 3175.85 0.227448 -0.718877 0
M  V30 32420 H 3178.5 -0.142202 -1.82948 0
M  V30 32421 H 3176.88 1.91043 -3.4687 0
M  V30 32422 H 3178.06 -0.736741 -4.54872 0
M  V30 32423 H 3176.37 -0.509113 -4.13276 0
M  V30 32424 H 3178.97 2.16773 -4.88788 0
M  V30 32425 H 3179.31 2.61905 -3.23591 0
M  V30 32426 H 3179.84 1.032 -3.84181 0
M  V30 32427 H 3176.58 -0.252777 -6.55012 0
M  V30 32428 H 3176.1 1.31145 -5.85287 0
M  V30 32429 H 3177.78 1.04629 -6.38484 0
M  V30 32430 N 3177.91 1.56283 0.203321 0
M  V30 32431 C 3178.88 1.93041 1.23562 0
M  V30 32432 C 3179.88 0.810711 1.38867 0
M  V30 32433 O 3181.07 1.07824 1.3682 0
M  V30 32434 C 3178.2 2.19725 2.60641 0
M  V30 32435 H 3179.39 2.85387 0.921642 0
M  V30 32436 H 3176.95 1.49846 0.444504 0
M  V30 32437 H 3177.68 1.2999 2.97108 0
M  V30 32438 H 3177.47 3.01312 2.50906 0
M  V30 32439 H 3178.96 2.49196 3.35099 0
M  V30 32440 N 3179.39 -0.470729 1.50406 0
M  V30 32441 C 3180.64 -1.2246 1.61652 0
M  V30 32442 C 3180.97 -1.91611 0.316068 0
M  V30 32443 O 3180.25 -1.82133 -0.682477 0
M  V30 32444 C 3180.53 -2.26796 2.79706 0
M  V30 32445 C 3180.38 -1.61948 4.19634 0
M  V30 32446 C 3181.7 -3.28104 2.93319 0
M  V30 32447 H 3178.82 -0.443857 0.588353 0
M  V30 32448 H 3181.46 -0.518344 1.82793 0
M  V30 32449 H 3179.61 -2.87031 2.61812 0
M  V30 32450 H 3181.29 -1.05308 4.49119 0
M  V30 32451 H 3179.53 -0.922599 4.23876 0
M  V30 32452 H 3180.2 -2.3777 4.98166 0
M  V30 32453 H 3182.68 -2.77892 3.09702 0
M  V30 32454 H 3181.55 -3.98436 3.77544 0
M  V30 32455 H 3181.81 -3.92246 2.03949 0
M  V30 32456 N 3180.87 -1.39989 -0.72393 0
M  V30 32457 C 3182.15 -1.28318 -1.47627 0
M  V30 32458 C 3182.53 0.102265 -2.10852 0
M  V30 32459 O 3181.88 1.11441 -1.99482 0
M  V30 32460 C 3182.09 -2.41579 -2.51874 0
M  V30 32461 C 3183.43 -2.8142 -3.17943 0
M  V30 32462 O 3184.46 -2.4111 -2.62191 0
M  V30 32463 O 3183.32 -3.51035 -4.18852 0
M  V30 32464 H 3180.41 -0.503471 -0.656084 0
M  V30 32465 H 3182.96 -1.5189 -0.756813 0
M  V30 32466 H 3181.73 -3.34152 -2.03612 0
M  V30 32467 H 3181.35 -2.19733 -3.31366 0
M  V30 32468 N 3182.35 0.955282 -1.25348 0
M  V30 32469 C 3183.6 1.70293 -1.11229 0
M  V30 32470 C 3183.95 1.89312 0.343329 0
M  V30 32471 O 3183.24 1.45251 1.2495 0
M  V30 32472 C 3183.44 3.08801 -1.79935 0
M  V30 32473 C 3183.27 3.03295 -3.32028 0
M  V30 32474 C 3182.04 3.07087 -4.0128 0
M  V30 32475 C 3184.23 2.84512 -4.28436 0
M  V30 32476 N 3182.22 2.91731 -5.40154 0
M  V30 32477 C 3183.59 2.7758 -5.54391 0
M  V30 32478 C 3185.64 2.69187 -4.18859 0
M  V30 32479 C 3184.35 2.5689 -6.71863 0
M  V30 32480 C 3186.37 2.49867 -5.36023 0
M  V30 32481 C 3185.73 2.43655 -6.60917 0
M  V30 32482 H 3181.83 0.631142 -0.461718 0
M  V30 32483 H 3184.42 1.1316 -1.58439 0
M  V30 32484 H 3182.59 3.64102 -1.3522 0
M  V30 32485 H 3184.32 3.72343 -1.58564 0
M  V30 32486 H 3181.07 3.16254 -3.52535 0
M  V30 32487 H 3181.5 2.8726 -6.13034 0
M  V30 32488 H 3186.14 2.72764 -3.23047 0
M  V30 32489 H 3183.86 2.52054 -7.67785 0
M  V30 32490 H 3187.44 2.38935 -5.30473 0
M  V30 32491 H 3186.32 2.289 -7.50049 0
M  V30 32492 N 3183.83 1.06924 1.1578 0
M  V30 32493 C 3185.07 0.790954 1.8674 0
M  V30 32494 C 3185.41 -0.681117 1.81864 0
M  V30 32495 O 3184.68 -1.49952 1.23873 0
M  V30 32496 C 3184.96 1.29428 3.36036 0
M  V30 32497 C 3184.82 2.83058 3.49568 0
M  V30 32498 C 3186.14 0.907314 4.30646 0
M  V30 32499 H 3183.26 0.288799 0.678059 0
M  V30 32500 H 3185.9 1.32627 1.36052 0
M  V30 32501 H 3184.05 0.83891 3.79334 0
M  V30 32502 H 3185.72 3.36852 3.15164 0
M  V30 32503 H 3183.96 3.21473 2.91269 0
M  V30 32504 H 3184.63 3.13343 4.54445 0
M  V30 32505 H 3187.11 1.29963 3.95283 0
M  V30 32506 H 3185.99 1.28688 5.33602 0
M  V30 32507 H 3186.25 -0.187173 4.41704 0
M  V30 32508 N 3185.31 -1.32538 0.852723 0
M  V30 32509 C 3186.27 -2.27215 0.300999 0
M  V30 32510 C 3187.27 -1.51525 -0.538208 0
M  V30 32511 O 3188.46 -1.70648 -0.349997 0
M  V30 32512 C 3185.59 -3.36027 -0.574369 0
M  V30 32513 H 3186.78 -2.77527 1.1366 0
M  V30 32514 H 3184.34 -1.43177 0.626904 0
M  V30 32515 H 3185.07 -2.90978 -1.43185 0
M  V30 32516 H 3184.86 -3.92091 0.0262954 0
M  V30 32517 H 3186.35 -4.06575 -0.953228 0
M  V30 32518 N 3186.78 -0.610474 -1.45296 0
M  V30 32519 C 3188.03 -0.106584 -2.01819 0
M  V30 32520 C 3188.35 1.26847 -1.48104 0
M  V30 32521 O 3187.62 1.83851 -0.676444 0
M  V30 32522 H 3186.2 -0.0364113 -0.746112 0
M  V30 32523 H 3188.86 -0.792523 -1.78059 0
M  V30 32524 H 3187.96 -0.0585549 -3.12045 0
M  V30 32525 N 3188.26 1.53669 -0.349801 0
M  V30 32526 C 3189.21 2.26728 0.519356 0
M  V30 32527 C 3190.2 1.29107 1.09671 0
M  V30 32528 O 3191.41 1.46792 1.04173 0
M  V30 32529 H 3187.78 0.728588 0.18618 0
M  V30 32530 H 3189.76 2.98163 -0.118789 0
M  V30 32531 C 3188.5 3.0577 1.6553 0
M  V30 32532 H 3187.83 3.80721 1.22031 0
M  V30 32533 H 3189.27 3.60094 2.23849 0
M  V30 32534 C 3187.73 2.15646 2.5884 0
M  V30 32535 O 3188.26 1.75671 3.61251 0
M  V30 32536 N 3186.46 1.80599 2.27667 0
M  V30 32537 H 3186.01 2.13305 1.44426 0
M  V30 32538 H 3185.97 1.20582 2.90357 0
M  V30 32539 N 3189.74 0.0785709 1.57404 0
M  V30 32540 C 3190.67 -0.883688 2.16132 0
M  V30 32541 C 3191.65 -1.30573 1.09017 0
M  V30 32542 O 3192.84 -1.37557 1.37083 0
M  V30 32543 C 3189.97 -2.14885 2.7284 0
M  V30 32544 C 3188.92 -1.86599 3.85182 0
M  V30 32545 C 3188.25 -3.19803 4.28521 0
M  V30 32546 C 3189.55 -1.16592 5.0912 0
M  V30 32547 H 3191.24 -0.394431 2.9679 0
M  V30 32548 H 3188.79 -0.188279 1.42764 0
M  V30 32549 H 3190.74 -2.82624 3.12572 0
M  V30 32550 H 3189.46 -2.66065 1.89413 0
M  V30 32551 H 3188.12 -1.21262 3.45964 0
M  V30 32552 H 3187.77 -3.68837 3.42006 0
M  V30 32553 H 3187.47 -3.01665 5.04254 0
M  V30 32554 H 3188.99 -3.88728 4.70874 0
M  V30 32555 H 3190.41 -1.74412 5.46126 0
M  V30 32556 H 3188.8 -1.0869 5.90175 0
M  V30 32557 H 3189.87 -0.146052 4.8468 0
M  V30 32558 N 3191.22 -1.56389 -0.19503 0
M  V30 32559 C 3192.45 -1.84472 -0.930259 0
M  V30 32560 C 3192.86 -0.658932 -1.77355 0
M  V30 32561 O 3192.2 0.381633 -1.79692 0
M  V30 32562 C 3192.26 -3.06657 -1.8762 0
M  V30 32563 C 3191.92 -4.40557 -1.21486 0
M  V30 32564 C 3192.92 -5.16521 -0.591756 0
M  V30 32565 C 3190.61 -4.87292 -1.21869 0
M  V30 32566 C 3192.6 -6.37397 0.0186863 0
M  V30 32567 C 3190.29 -6.08104 -0.604417 0
M  V30 32568 C 3191.29 -6.82999 0.0131932 0
M  V30 32569 O 3190.97 -8.01522 0.617844 0
M  V30 32570 H 3190.71 -0.616677 -0.276922 0
M  V30 32571 H 3193.26 -2.04352 -0.207241 0
M  V30 32572 H 3191.49 -2.82662 -2.63892 0
M  V30 32573 H 3193.18 -3.21386 -2.47923 0
M  V30 32574 H 3193.94 -4.81508 -0.580933 0
M  V30 32575 H 3189.82 -4.28952 -1.68881 0
M  V30 32576 H 3193.37 -6.95796 0.501363 0
M  V30 32577 H 3189.26 -6.42585 -0.612742 0
M  V30 32578 H 3190.03 -8.1688 0.514756 0
M  V30 32579 N 3192.7 0.462746 -1.50653 0
M  V30 32580 C 3193.94 1.21421 -1.62059 0
M  V30 32581 C 3194.27 1.91769 -0.324811 0
M  V30 32582 O 3193.53 1.8314 0.689796 0
M  V30 32583 C 3193.82 2.27502 -2.75641 0
M  V30 32584 C 3193.49 1.74347 -4.15829 0
M  V30 32585 C 3192.15 1.59572 -4.53972 0
M  V30 32586 C 3194.5 1.35004 -5.03412 0
M  V30 32587 C 3191.83 1.03889 -5.77429 0
M  V30 32588 C 3194.18 0.807594 -6.27424 0
M  V30 32589 C 3192.85 0.64654 -6.64361 0
M  V30 32590 H 3192.12 0.44431 -0.593017 0
M  V30 32591 H 3194.77 0.508967 -1.84613 0
M  V30 32592 H 3193.07 3.03966 -2.47208 0
M  V30 32593 H 3194.77 2.85419 -2.81668 0
M  V30 32594 H 3191.36 1.86817 -3.85743 0
M  V30 32595 H 3195.54 1.45249 -4.7457 0
M  V30 32596 H 3190.8 0.901645 -6.04715 0
M  V30 32597 H 3194.97 0.494112 -6.94645 0
M  V30 32598 H 3192.6 0.21292 -7.59902 0
M  V30 32599 N 3194.17 1.40371 0.716495 0
M  V30 32600 C 3195.4 1.41913 1.5056 0
M  V30 32601 C 3195.82 0.0185788 1.88791 0
M  V30 32602 O 3195.17 -0.957262 1.55379 0
M  V30 32603 C 3195.23 2.30899 2.78151 0
M  V30 32604 O 3194.95 3.65502 2.41537 0
M  V30 32605 C 3196.45 2.41023 3.72052 0
M  V30 32606 H 3193.67 0.484068 0.464671 0
M  V30 32607 H 3196.21 1.84411 0.883895 0
M  V30 32608 H 3194.37 1.91765 3.36608 0
M  V30 32609 H 3194.78 4.12752 3.23629 0
M  V30 32610 H 3196.25 3.07497 4.58421 0
M  V30 32611 H 3196.73 1.43499 4.15096 0
M  V30 32612 H 3197.34 2.80705 3.19507 0
M  V30 32613 N 3195.65 -0.948621 1.25853 0
M  V30 32614 C 3196.6 -2.06754 1.06562 0
M  V30 32615 C 3197.59 -1.69399 -0.00525654 0
M  V30 32616 O 3198.8 -1.79367 0.150837 0
M  V30 32617 H 3195.18 -0.676843 0.327701 0
M  V30 32618 H 3197.15 -2.20178 2.01405 0
M  V30 32619 C 3195.9 -3.40427 0.707452 0
M  V30 32620 H 3195.22 -3.69642 1.52331 0
M  V30 32621 H 3196.66 -4.19557 0.612216 0
M  V30 32622 C 3195.12 -3.31748 -0.586912 0
M  V30 32623 O 3195.65 -3.67261 -1.62734 0
M  V30 32624 N 3193.85 -2.84859 -0.574778 0
M  V30 32625 H 3193.4 -2.56157 0.272281 0
M  V30 32626 H 3193.36 -2.79435 -1.44096 0
M  V30 32627 N 3197.13 -1.07536 -1.15212 0
M  V30 32628 C 3198.09 -0.701275 -2.18208 0
M  V30 32629 C 3199.09 0.259432 -1.58693 0
M  V30 32630 O 3200.28 0.0401438 -1.74154 0
M  V30 32631 C 3197.42 -0.0339302 -3.40883 0
M  V30 32632 H 3198.61 -1.61319 -2.52817 0
M  V30 32633 H 3196.16 -0.872127 -1.29706 0
M  V30 32634 H 3196.9 0.890132 -3.11845 0
M  V30 32635 H 3196.68 -0.724928 -3.8534 0
M  V30 32636 H 3198.17 0.213079 -4.17056 0
M  V30 32637 N 3198.61 1.32084 -0.85974 0
M  V30 32638 C 3199.86 1.97074 -0.465616 0
M  V30 32639 C 3200.18 1.68013 0.979888 0
M  V30 32640 O 3199.44 0.96356 1.70335 0
M  V30 32641 C 3199.74 3.51301 -0.657459 0
M  V30 32642 C 3199.4 4.0036 -2.0742 0
M  V30 32643 C 3198.07 4.13467 -2.46167 0
M  V30 32644 C 3200.42 4.263 -2.99863 0
M  V30 32645 C 3197.75 4.49861 -3.76619 0
M  V30 32646 C 3200.1 4.64154 -4.29819 0
M  V30 32647 C 3198.76 4.75468 -4.68494 0
M  V30 32648 H 3198.03 0.721146 -0.170381 0
M  V30 32649 H 3200.68 1.57399 -1.09077 0
M  V30 32650 H 3198.98 3.91767 0.0508949 0
M  V30 32651 H 3200.68 3.99619 -0.332486 0
M  V30 32652 H 3197.27 3.90646 -1.76334 0
M  V30 32653 H 3201.45 4.15677 -2.71157 0
M  V30 32654 H 3196.71 4.56817 -4.0636 0
M  V30 32655 H 3200.88 4.8318 -5.01508 0
M  V30 32656 H 3198.51 5.03425 -5.6962 0
M  V30 32657 N 3200.09 0.618171 1.4497 0
M  V30 32658 C 3201.33 0.117692 2.02458 0
M  V30 32659 C 3201.67 -1.25246 1.48415 0
M  V30 32660 O 3200.94 -1.8285 0.663029 0
M  V30 32661 C 3201.22 0.090253 3.59987 0
M  V30 32662 C 3201.08 1.49182 4.2434 0
M  V30 32663 C 3202.4 -0.592044 4.361 0
M  V30 32664 H 3199.51 0.044242 0.735671 0
M  V30 32665 H 3202.16 0.792168 1.72698 0
M  V30 32666 H 3200.31 -0.484107 3.85472 0
M  V30 32667 H 3201.98 2.11407 4.10006 0
M  V30 32668 H 3200.22 2.04948 3.82333 0
M  V30 32669 H 3200.89 1.42477 5.33296 0
M  V30 32670 H 3203.37 -0.10374 4.15971 0
M  V30 32671 H 3202.24 -0.580385 5.45823 0
M  V30 32672 H 3202.51 -1.66008 4.09749 0
M  V30 32673 N 3201.56 -1.53481 0.357946 0
M  V30 32674 C 3202.79 -2.06033 -0.237733 0
M  V30 32675 C 3203.21 -1.23026 -1.42289 0
M  V30 32676 O 3202.57 -0.247459 -1.79603 0
M  V30 32677 C 3202.62 -3.55287 -0.616744 0
M  V30 32678 O 3201.72 -3.7505 -1.71497 0
M  V30 32679 H 3201.07 -0.663 -0.0364205 0
M  V30 32680 H 3203.6 -1.97978 0.516336 0
M  V30 32681 H 3203.61 -3.98177 -0.88989 0
M  V30 32682 H 3202.28 -4.15149 0.249898 0
M  V30 32683 H 3200.86 -3.44059 -1.43797 0
M  V30 32684 N 3203.04 -0.0869173 -1.5736 0
M  V30 32685 C 3203.95 0.889364 -2.17089 0
M  V30 32686 C 3204.97 1.31617 -1.13811 0
M  V30 32687 O 3206.14 1.38577 -1.46145 0
M  V30 32688 C 3203.21 2.1334 -2.73289 0
M  V30 32689 C 3202.27 1.76157 -3.91494 0
M  V30 32690 C 3201.5 2.94629 -4.45005 0
M  V30 32691 O 3201.73 4.09109 -3.97475 0
M  V30 32692 O 3200.66 2.73569 -5.36138 0
M  V30 32693 H 3204.49 0.411223 -3.00903 0
M  V30 32694 H 3202.07 0.136988 -1.48771 0
M  V30 32695 H 3203.95 2.86261 -3.09245 0
M  V30 32696 H 3202.63 2.60222 -1.92526 0
M  V30 32697 H 3201.54 1.00441 -3.60364 0
M  V30 32698 H 3202.87 1.34044 -4.73596 0
M  V30 32699 N 3204.52 1.5649 0.186734 0
M  V30 32700 C 3205.75 1.85231 0.9218 0
M  V30 32701 C 3206.16 0.670447 1.76495 0
M  V30 32702 O 3205.52 -0.360727 1.78899 0
M  V30 32703 C 3205.57 3.12857 1.81115 0
M  V30 32704 O 3205.29 4.26487 1.00203 0
M  V30 32705 C 3206.79 3.54836 2.65719 0
M  V30 32706 H 3204.01 0.614915 0.268553 0
M  V30 32707 H 3206.56 2.03602 0.191469 0
M  V30 32708 H 3204.71 2.96358 2.495 0
M  V30 32709 H 3205.13 4.99216 1.60885 0
M  V30 32710 H 3206.6 4.47081 3.23763 0
M  V30 32711 H 3207.08 2.78221 3.39838 0
M  V30 32712 H 3207.68 3.73894 2.02691 0
M  V30 32713 N 3206 -0.45475 1.50897 0
M  V30 32714 C 3206.93 -1.55837 1.73888 0
M  V30 32715 C 3207.91 -1.59606 0.5882 0
M  V30 32716 O 3209.09 -1.75613 0.829085 0
M  V30 32717 C 3206.22 -2.94051 1.84801 0
M  V30 32718 C 3205.18 -3.05146 3.00116 0
M  V30 32719 C 3204.5 -4.45169 2.96191 0
M  V30 32720 C 3205.8 -2.80842 4.4037 0
M  V30 32721 H 3207.5 -1.3685 2.66294 0
M  V30 32722 H 3205.04 -0.656913 1.28143 0
M  V30 32723 H 3207 -3.71201 1.99469 0
M  V30 32724 H 3205.72 -3.14231 0.89029 0
M  V30 32725 H 3204.38 -2.30432 2.85125 0
M  V30 32726 H 3204.03 -4.62291 1.98232 0
M  V30 32727 H 3203.73 -4.53525 3.73616 0
M  V30 32728 H 3205.25 -5.24316 3.12929 0
M  V30 32729 H 3206.67 -3.47733 4.55801 0
M  V30 32730 H 3205.06 -3.00627 5.19368 0
M  V30 32731 H 3206.13 -1.76571 4.51609 0
M  V30 32732 N 3207.48 -1.40749 -0.709041 0
M  V30 32733 C 3208.73 -1.38684 -1.46457 0
M  V30 32734 C 3209.04 0.00558652 -1.95599 0
M  V30 32735 O 3210.24 0.14886 -2.71092 0
M  V30 32736 C 3208.7 -2.43775 -2.64767 0
M  V30 32737 C 3208.31 -3.8886 -2.22467 0
M  V30 32738 C 3210.05 -2.50827 -3.42471 0
M  V30 32739 C 3207.96 -4.85534 -3.37655 0
M  V30 32740 H 3206.89 -0.515688 -0.550075 0
M  V30 32741 H 3209.54 -1.66515 -0.771045 0
M  V30 32742 H 3207.92 -2.09054 -3.36322 0
M  V30 32743 H 3209.1 -4.3276 -1.5829 0
M  V30 32744 H 3207.41 -3.85345 -1.57791 0
M  V30 32745 H 3210.01 -3.20239 -4.28195 0
M  V30 32746 H 3210.35 -1.54083 -3.86735 0
M  V30 32747 H 3210.88 -2.84572 -2.77964 0
M  V30 32748 H 3207.62 -5.83634 -2.98416 0
M  V30 32749 H 3207.14 -4.46294 -4.00726 0
M  V30 32750 H 3208.82 -5.05662 -4.03628 0
M  V30 32751 N 3208.96 0.941933 -1.26354 0
M  V30 32752 C 3209.87 2.07413 -1.09622 0
M  V30 32753 C 3210.88 1.73974 -0.0299269 0
M  V30 32754 O 3212.06 2.00042 -0.233501 0
M  V30 32755 C 3209.12 3.38923 -0.730189 0
M  V30 32756 C 3208.18 3.8615 -1.87581 0
M  V30 32757 C 3207.42 5.11384 -1.52715 0
M  V30 32758 O 3207.64 5.68788 -0.428538 0
M  V30 32759 O 3206.57 5.53634 -2.36164 0
M  V30 32760 H 3210.4 2.24437 -2.04602 0
M  V30 32761 H 3207.98 1.05874 -1.05409 0
M  V30 32762 H 3209.87 4.17942 -0.538757 0
M  V30 32763 H 3208.54 3.23141 0.190225 0
M  V30 32764 H 3207.45 3.0808 -2.1222 0
M  V30 32765 H 3208.78 4.06452 -2.77592 0
M  V30 32766 N 3210.43 1.08146 1.1464 0
M  V30 32767 C 3211.68 0.810716 1.8589 0
M  V30 32768 C 3212.01 -0.661789 1.82576 0
M  V30 32769 O 3211.29 -1.4863 1.25457 0
M  V30 32770 C 3211.57 1.32985 3.34644 0
M  V30 32771 C 3211.42 2.8675 3.46546 0
M  V30 32772 C 3212.74 0.952939 4.29659 0
M  V30 32773 H 3209.86 0.295975 0.674958 0
M  V30 32774 H 3212.5 1.34062 1.34638 0
M  V30 32775 H 3210.65 0.879096 3.78423 0
M  V30 32776 H 3212.33 3.40176 3.11573 0
M  V30 32777 H 3210.57 3.24544 2.87843 0
M  V30 32778 H 3211.24 3.18146 4.51096 0
M  V30 32779 H 3213.72 1.34148 3.93883 0
M  V30 32780 H 3212.59 1.3434 5.32207 0
M  V30 32781 H 3212.85 -0.140314 4.41877 0
M  V30 32782 N 3211.91 -1.31626 0.866732 0
M  V30 32783 C 3212.84 -2.31073 0.335802 0
M  V30 32784 C 3213.82 -1.6021 -0.571569 0
M  V30 32785 O 3215.01 -1.87936 -0.489273 0
M  V30 32786 C 3212.14 -3.44155 -0.466355 0
M  V30 32787 C 3211.09 -4.26586 0.347636 0
M  V30 32788 C 3210.42 -5.31545 -0.580007 0
M  V30 32789 C 3211.72 -4.9783 1.57995 0
M  V30 32790 H 3213.41 -2.75729 1.16678 0
M  V30 32791 H 3210.96 -1.32559 0.562503 0
M  V30 32792 H 3212.91 -4.12774 -0.848287 0
M  V30 32793 H 3211.63 -2.98257 -1.33081 0
M  V30 32794 H 3210.29 -3.5963 0.711473 0
M  V30 32795 H 3209.94 -4.81898 -1.44165 0
M  V30 32796 H 3209.64 -5.87587 -0.0392932 0
M  V30 32797 H 3211.17 -6.03024 -0.958852 0
M  V30 32798 H 3212.58 -5.59064 1.26964 0
M  V30 32799 H 3210.98 -5.63653 2.05949 0
M  V30 32800 H 3212.05 -4.25001 2.33457 0
M  V30 32801 N 3213.39 -0.62585 -1.4464 0
M  V30 32802 C 3214.81 -0.29102 -1.56924 0
M  V30 32803 C 3215.01 1.20598 -1.61426 0
M  V30 32804 O 3214.06 1.98982 -1.55443 0
M  V30 32805 C 3215.37 -0.978292 -2.84341 0
M  V30 32806 C 3216.92 -0.955934 -2.98045 0
M  V30 32807 C 3217.4 -1.62357 -4.28257 0
M  V30 32808 N 3218.89 -1.58991 -4.35059 0
M  V30 32809 C 3219.62 -2.07548 -5.3452 0
M  V30 32810 N 3219.12 -2.64272 -6.40416 0
M  V30 32811 N 3220.91 -1.98208 -5.25994 0
M  V30 32812 H 3213.06 -1.59764 -1.39962 0
M  V30 32813 H 3215.33 -0.670318 -0.670357 0
M  V30 32814 H 3215.03 -2.03309 -2.86981 0
M  V30 32815 H 3214.91 -0.512792 -3.73698 0
M  V30 32816 H 3217.29 0.0903773 -2.94962 0
M  V30 32817 H 3217.37 -1.45987 -2.10051 0
M  V30 32818 H 3217.02 -2.6693 -4.321 0
M  V30 32819 H 3216.95 -1.0945 -5.151 0
M  V30 32820 H 3219.44 -1.17571 -3.59145 0
M  V30 32821 H 3219.75 -2.99069 -7.12585 0
M  V30 32822 H 3218.1 -2.6832 -6.41116 0
M  V30 32823 H 3221.29 -1.53618 -4.42175 0
M  V30 32824 H 3221.46 -2.36361 -6.03355 0
M  V30 32825 N 3214.87 1.53289 -0.36608 0
M  V30 32826 C 3216.12 2.00446 0.224579 0
M  V30 32827 C 3216.43 1.25743 1.49827 0
M  V30 32828 O 3217.64 1.6349 2.16756 0
M  V30 32829 C 3216.09 3.57066 0.450756 0
M  V30 32830 C 3215.7 4.40647 -0.808335 0
M  V30 32831 C 3217.44 4.12577 0.999043 0
M  V30 32832 C 3215.35 5.88821 -0.551715 0
M  V30 32833 H 3214.28 0.748883 0.0876982 0
M  V30 32834 H 3216.93 1.76977 -0.484898 0
M  V30 32835 H 3215.31 3.7669 1.2215 0
M  V30 32836 H 3216.49 4.32796 -1.58191 0
M  V30 32837 H 3214.8 3.96242 -1.27988 0
M  V30 32838 H 3217.4 5.20914 1.20636 0
M  V30 32839 H 3217.74 3.67203 1.96133 0
M  V30 32840 H 3218.28 3.96753 0.288448 0
M  V30 32841 H 3215.01 6.38473 -1.48434 0
M  V30 32842 H 3214.53 5.9952 0.183357 0
M  V30 32843 H 3216.21 6.46757 -0.177421 0
M  V30 32844 N 3216.35 0.0952613 1.57312 0
M  V30 32845 C 3217.29 -0.881129 2.15265 0
M  V30 32846 C 3218.29 -1.29206 1.09555 0
M  V30 32847 O 3219.49 -1.26657 1.27899 0
M  V30 32848 H 3215.87 -0.302179 0.688616 0
M  V30 32849 H 3217.84 -0.367642 2.96127 0
M  V30 32850 C 3216.59 -2.13048 2.74783 0
M  V30 32851 H 3215.91 -1.82317 3.5581 0
M  V30 32852 H 3217.35 -2.79425 3.189 0
M  V30 32853 C 3215.81 -2.90462 1.70686 0
M  V30 32854 O 3216.34 -3.85009 1.14589 0
M  V30 32855 N 3214.55 -2.54005 1.41173 0
M  V30 32856 H 3214.09 -1.77189 1.86981 0
M  V30 32857 H 3214.05 -3.06101 0.717613 0
M  V30 32858 N 3217.82 -1.56587 -0.178432 0
M  V30 32859 C 3219.05 -1.85717 -0.911963 0
M  V30 32860 C 3219.47 -0.679797 -1.76137 0
M  V30 32861 O 3218.82 0.351234 -1.79088 0
M  V30 32862 C 3218.87 -3.13813 -1.79453 0
M  V30 32863 O 3218.6 -4.27012 -0.979401 0
M  V30 32864 C 3220.1 -3.5624 -2.63833 0
M  V30 32865 H 3217.32 -0.616331 -0.265288 0
M  V30 32866 H 3219.86 -2.037 -0.180669 0
M  V30 32867 H 3218.02 -2.97677 -2.47925 0
M  V30 32868 H 3218.43 -5.00062 -1.58235 0
M  V30 32869 H 3219.9 -4.48792 -3.21388 0
M  V30 32870 H 3220.38 -2.80019 -3.38358 0
M  V30 32871 H 3220.99 -3.74963 -2.00706 0
M  V30 32872 N 3219.3 0.446741 -1.51136 0
M  V30 32873 C 3220.53 1.21962 -1.67131 0
M  V30 32874 C 3220.94 1.85244 -0.364703 0
M  V30 32875 O 3220.3 1.70307 0.655878 0
M  V30 32876 C 3220.35 2.31056 -2.7802 0
M  V30 32877 O 3220.07 1.70364 -4.03618 0
M  V30 32878 C 3221.57 3.21506 -3.05203 0
M  V30 32879 H 3218.79 0.367952 -0.561117 0
M  V30 32880 H 3221.34 0.530482 -1.975 0
M  V30 32881 H 3219.49 2.95702 -2.50278 0
M  V30 32882 H 3219.91 2.42392 -4.65131 0
M  V30 32883 H 3221.38 3.94209 -3.86397 0
M  V30 32884 H 3221.86 3.81714 -2.17235 0
M  V30 32885 H 3222.46 2.62571 -3.34569 0
M  V30 32886 N 3220.78 1.41123 0.701567 0
M  V30 32887 C 3222.01 1.43294 1.4883 0
M  V30 32888 C 3222.42 0.0349001 1.89168 0
M  V30 32889 O 3221.76 -0.954772 1.56939 0
M  V30 32890 C 3221.82 2.27292 2.78529 0
M  V30 32891 C 3221.49 3.75532 2.60431 0
M  V30 32892 C 3222.48 4.67837 2.2677 0
M  V30 32893 C 3220.17 4.19507 2.76259 0
M  V30 32894 C 3222.16 6.02103 2.09166 0
M  V30 32895 C 3219.85 5.5384 2.58271 0
M  V30 32896 C 3220.85 6.44954 2.24775 0
M  V30 32897 O 3220.54 7.76809 2.06938 0
M  V30 32898 H 3220.27 0.490292 0.465392 0
M  V30 32899 H 3222.82 1.8598 0.871811 0
M  V30 32900 H 3221.05 1.79409 3.42563 0
M  V30 32901 H 3222.74 2.21235 3.40308 0
M  V30 32902 H 3223.51 4.35155 2.14162 0
M  V30 32903 H 3219.39 3.48898 3.01316 0
M  V30 32904 H 3222.93 6.73185 1.82943 0
M  V30 32905 H 3218.83 5.86104 2.70468 0
M  V30 32906 H 3219.59 7.8789 2.21748 0
M  V30 32907 N 3222.26 -0.935219 1.26852 0
M  V30 32908 C 3223.67 -1.20982 1.04094 0
M  V30 32909 C 3223.87 -2.00181 -0.230207 0
M  V30 32910 O 3222.93 -2.34441 -0.937738 0
M  V30 32911 C 3224.24 -1.96529 2.27589 0
M  V30 32912 C 3225.79 -2.09497 2.32551 0
M  V30 32913 C 3226.27 -2.88447 3.55756 0
M  V30 32914 N 3227.76 -2.96019 3.56268 0
M  V30 32915 C 3228.49 -3.57551 4.48268 0
M  V30 32916 N 3227.99 -4.20537 5.50564 0
M  V30 32917 N 3229.78 -3.54882 4.35907 0
M  V30 32918 H 3221.93 -0.405918 2.08485 0
M  V30 32919 H 3224.19 -0.242148 0.916552 0
M  V30 32920 H 3223.9 -1.45747 3.20079 0
M  V30 32921 H 3223.77 -2.97173 2.3231 0
M  V30 32922 H 3226.16 -2.59468 1.40572 0
M  V30 32923 H 3226.24 -1.08097 2.31838 0
M  V30 32924 H 3225.89 -2.39162 4.48067 0
M  V30 32925 H 3225.82 -3.90117 3.53718 0
M  V30 32926 H 3228.31 -2.51247 2.82283 0
M  V30 32927 H 3228.62 -4.65404 6.16943 0
M  V30 32928 H 3226.97 -4.19105 5.54415 0
M  V30 32929 H 3230.16 -3.04872 3.55205 0
M  V30 32930 H 3230.33 -4.02548 5.07799 0
M  V30 32931 N 3223.74 -1.08752 -1.14065 0
M  V30 32932 C 3225.15 -0.815847 -1.37172 0
M  V30 32933 C 3225.35 0.573181 -1.93176 0
M  V30 32934 O 3224.41 1.32933 -2.14674 0
M  V30 32935 C 3225.72 -1.90142 -2.32952 0
M  V30 32936 C 3227.27 -1.92785 -2.46583 0
M  V30 32937 C 3227.74 -3.00466 -3.45665 0
M  V30 32938 N 3229.24 -2.99661 -3.5321 0
M  V30 32939 C 3229.97 -3.79623 -4.29737 0
M  V30 32940 N 3229.47 -4.69475 -5.09476 0
M  V30 32941 N 3231.26 -3.67911 -4.24968 0
M  V30 32942 H 3223.41 -1.98314 -0.760613 0
M  V30 32943 H 3225.67 -0.860814 -0.39712 0
M  V30 32944 H 3225.38 -2.90025 -1.98944 0
M  V30 32945 H 3225.25 -1.77374 -3.32894 0
M  V30 32946 H 3227.64 -0.935453 -2.79881 0
M  V30 32947 H 3227.72 -2.09631 -1.46589 0
M  V30 32948 H 3227.37 -3.99914 -3.13099 0
M  V30 32949 H 3227.3 -2.80864 -4.45447 0
M  V30 32950 H 3229.79 -2.3454 -2.96309 0
M  V30 32951 H 3230.1 -5.27087 -5.65154 0
M  V30 32952 H 3228.44 -4.73515 -5.08732 0
M  V30 32953 H 3231.64 -2.97081 -3.61746 0
M  V30 32954 H 3231.81 -4.30468 -4.84357 0
M  V30 32955 N 3225.21 1.31165 -0.873701 0
M  V30 32956 C 3226.46 1.96861 -0.487213 0
M  V30 32957 C 3226.79 1.68878 0.958841 0
M  V30 32958 O 3226.07 0.987308 1.67578 0
M  V30 32959 C 3226.35 3.52218 -0.749312 0
M  V30 32960 C 3226.2 3.89759 -2.24517 0
M  V30 32961 C 3227.52 4.39558 -0.218271 0
M  V30 32962 H 3224.64 0.71506 -0.17849 0
M  V30 32963 H 3227.28 1.55229 -1.09563 0
M  V30 32964 H 3225.43 3.8781 -0.231472 0
M  V30 32965 H 3227.11 3.64249 -2.83055 0
M  V30 32966 H 3225.35 3.38232 -2.71627 0
M  V30 32967 H 3226.02 4.98095 -2.3792 0
M  V30 32968 H 3228.5 4.10811 -0.661346 0
M  V30 32969 H 3227.37 5.47205 -0.43108 0
M  V30 32970 H 3227.63 4.33254 0.87998 0
M  V30 32971 N 3226.69 0.633512 1.44307 0
M  V30 32972 C 3227.62 -0.0567992 2.33431 0
M  V30 32973 C 3228.6 -0.83236 1.48343 0
M  V30 32974 O 3229.79 -0.797767 1.77057 0
M  V30 32975 C 3226.92 -1.03738 3.31445 0
M  V30 32976 C 3225.87 -0.373287 4.26369 0
M  V30 32977 C 3225.2 -1.46394 5.14269 0
M  V30 32978 C 3226.5 0.721967 5.17286 0
M  V30 32979 H 3228.19 0.687439 2.91401 0
M  V30 32980 H 3225.74 0.332033 1.4012 0
M  V30 32981 H 3227.69 -1.52906 3.9268 0
M  V30 32982 H 3226.42 -1.81253 2.71689 0
M  V30 32983 H 3225.07 0.0977697 3.6647 0
M  V30 32984 H 3224.72 -2.23003 4.50864 0
M  V30 32985 H 3224.42 -1.02495 5.78592 0
M  V30 32986 H 3225.95 -1.95738 5.78376 0
M  V30 32987 H 3227.36 0.313281 5.72443 0
M  V30 32988 H 3225.76 1.08423 5.90224 0
M  V30 32989 H 3226.83 1.58812 4.58156 0
M  V30 32990 N 3228.17 -1.53093 0.374204 0
M  V30 32991 C 3229.1 -2.28925 -0.459936 0
M  V30 32992 C 3230.08 -1.31699 -1.07653 0
M  V30 32993 O 3231.27 -1.60579 -1.09216 0
M  V30 32994 C 3228.4 -3.0849 -1.59535 0
M  V30 32995 C 3227.35 -4.13475 -1.10556 0
M  V30 32996 C 3226.68 -4.81173 -2.33188 0
M  V30 32997 C 3227.98 -5.21975 -0.184183 0
M  V30 32998 H 3229.67 -2.98901 0.172744 0
M  V30 32999 H 3227.22 -1.43752 0.0845209 0
M  V30 33000 H 3229.17 -3.60291 -2.18559 0
M  V30 33001 H 3227.89 -2.3622 -2.25539 0
M  V30 33002 H 3226.55 -3.62632 -0.537947 0
M  V30 33003 H 3226.2 -4.05466 -2.97668 0
M  V30 33004 H 3225.9 -5.52122 -2.01084 0
M  V30 33005 H 3227.42 -5.35773 -2.92883 0
M  V30 33006 H 3228.84 -5.69227 -0.682162 0
M  V30 33007 H 3227.24 -6.00082 0.0463801 0
M  V30 33008 H 3228.31 -4.78727 0.771236 0
M  V30 33009 N 3229.65 -0.103603 -1.57259 0
M  V30 33010 C 3230.6 0.852257 -2.14488 0
M  V30 33011 C 3231.57 1.27405 -1.0657 0
M  V30 33012 O 3232.75 1.3543 -1.344 0
M  V30 33013 C 3229.89 2.1028 -2.73636 0
M  V30 33014 C 3229 1.73076 -3.95814 0
M  V30 33015 C 3228.14 2.92981 -4.43098 0
M  V30 33016 C 3227.18 2.51944 -5.57845 0
M  V30 33017 N 3226.31 3.6471 -5.99942 0
M  V30 33018 H 3231.15 0.357378 -2.95849 0
M  V30 33019 H 3228.69 0.164722 -1.46175 0
M  V30 33020 H 3230.65 2.83528 -3.06051 0
M  V30 33021 H 3229.28 2.57253 -1.94989 0
M  V30 33022 H 3228.33 0.897623 -3.69658 0
M  V30 33023 H 3229.64 1.38908 -4.79068 0
M  V30 33024 H 3228.8 3.74472 -4.77342 0
M  V30 33025 H 3227.54 3.30365 -3.58762 0
M  V30 33026 H 3226.54 1.68881 -5.2322 0
M  V30 33027 H 3227.77 2.15693 -6.43936 0
M  V30 33028 H 3225.71 4.01798 -5.18551 0
M  V30 33029 H 3225.63 3.34415 -6.78014 0
M  V30 33030 H 3226.9 4.46687 -6.3882 0
M  V30 33031 N 3231.13 1.56679 0.170126 0
M  V30 33032 C 3232.37 1.82331 0.887874 0
M  V30 33033 C 3232.71 0.68164 1.81844 0
M  V30 33034 O 3231.98 -0.316328 1.9191 0
M  V30 33035 C 3232.26 3.18377 1.68251 0
M  V30 33036 C 3232.12 4.43073 0.774981 0
M  V30 33037 C 3233.44 3.51377 2.64995 0
M  V30 33038 H 3230.55 0.663258 0.321338 0
M  V30 33039 H 3233.2 1.89375 0.154032 0
M  V30 33040 H 3231.35 3.12503 2.30812 0
M  V30 33041 H 3233.02 4.61015 0.162153 0
M  V30 33042 H 3231.26 4.3372 0.0831047 0
M  V30 33043 H 3231.93 5.34818 1.36652 0
M  V30 33044 H 3234.41 3.57712 2.12559 0
M  V30 33045 H 3233.28 4.47642 3.1766 0
M  V30 33046 H 3233.55 2.76142 3.45251 0
M  V30 33047 N 3232.6 -0.43872 1.5137 0
M  V30 33048 C 3233.83 -1.21074 1.67776 0
M  V30 33049 C 3234.25 -1.85048 0.374522 0
M  V30 33050 O 3233.6 -1.70652 -0.646837 0
M  V30 33051 C 3233.66 -2.29579 2.79242 0
M  V30 33052 O 3233.38 -1.68221 4.04516 0
M  V30 33053 C 3234.88 -3.19883 3.06904 0
M  V30 33054 H 3232.1 -0.364971 0.563061 0
M  V30 33055 H 3234.64 -0.520001 1.97778 0
M  V30 33056 H 3232.8 -2.94371 2.51842 0
M  V30 33057 H 3233.21 -2.39922 4.6641 0
M  V30 33058 H 3234.68 -3.92155 3.88483 0
M  V30 33059 H 3235.16 -3.80557 2.19256 0
M  V30 33060 H 3235.77 -2.60793 3.35957 0
M  V30 33061 N 3234.08 -1.41493 -0.694073 0
M  V30 33062 C 3235.33 -1.4114 -1.45628 0
M  V30 33063 C 3235.66 -0.0208769 -1.94189 0
M  V30 33064 O 3234.94 0.951625 -1.6963 0
M  V30 33065 C 3235.22 -2.41946 -2.6671 0
M  V30 33066 C 3235.07 -3.90111 -2.23905 0
M  V30 33067 C 3236.39 -2.39988 -3.68909 0
M  V30 33068 H 3233.51 -0.513977 -0.528201 0
M  V30 33069 H 3236.15 -1.72779 -0.790406 0
M  V30 33070 H 3234.3 -2.15096 -3.23521 0
M  V30 33071 H 3235.97 -4.2787 -1.7241 0
M  V30 33072 H 3234.22 -4.04905 -1.55673 0
M  V30 33073 H 3234.89 -4.56193 -3.10792 0
M  V30 33074 H 3237.36 -2.63819 -3.21774 0
M  V30 33075 H 3236.24 -3.12532 -4.51237 0
M  V30 33076 H 3236.5 -1.419 -4.18709 0
M  V30 33077 N 3235.56 0.928479 -1.27346 0
M  V30 33078 C 3236.84 1.65431 -1.04365 0
M  V30 33079 C 3237.22 2.06842 0.421859 0
M  V30 33080 O 3236.57 1.80206 1.40493 0
M  V30 33081 C 3236.78 2.85695 -2.00447 0
M  V30 33082 C 3238.12 3.57057 -2.29773 0
M  V30 33083 O 3239.15 2.95821 -1.98415 0
M  V30 33084 O 3238.01 4.67382 -2.83225 0
M  V30 33085 H 3235.1 0.725043 -0.397796 0
M  V30 33086 H 3237.65 0.979084 -1.38607 0
M  V30 33087 H 3236.42 2.52079 -2.99285 0
M  V30 33088 H 3236.04 3.60938 -1.66762 0
M  V30 33089 N 3237.04 1.09355 1.13486 0
M  V30 33090 C 3237.97 0.676258 2.1795 0
M  V30 33091 C 3238.95 -0.316878 1.59482 0
M  V30 33092 O 3240.13 -0.218426 1.8723 0
M  V30 33093 C 3237.26 -0.00385071 3.387 0
M  V30 33094 C 3236.31 0.950979 4.15763 0
M  V30 33095 S 3237.14 2.46267 4.75513 0
M  V30 33096 C 3238.3 1.79495 5.9961 0
M  V30 33097 H 3238.53 1.5612 2.5301 0
M  V30 33098 H 3236.06 0.909469 1.24772 0
M  V30 33099 H 3238.02 -0.389948 4.08644 0
M  V30 33100 H 3236.68 -0.865427 3.01942 0
M  V30 33101 H 3235.87 0.422175 5.02229 0
M  V30 33102 H 3235.48 1.27844 3.51471 0
M  V30 33103 H 3237.77 1.11858 6.68202 0
M  V30 33104 H 3238.71 2.63873 6.57097 0
M  V30 33105 H 3239.12 1.26418 5.50162 0
M  V30 33106 N 3238.52 -1.307 0.880644 0
M  V30 33107 C 3239.93 -1.78476 0.548024 0
M  V30 33108 C 3240.28 -1.72456 -0.935602 0
M  V30 33109 O 3239.4 -1.29877 -1.73092 0
M  V30 33110 C 3240 -3.24074 0.988007 0
M  V30 33111 C 3238.56 -3.69703 0.70687 0
M  V30 33112 C 3237.71 -2.5125 1.1734 0
M  V30 33113 H 3240.66 -1.17631 1.0653 0
M  V30 33114 H 3240.68 -3.79193 0.315147 0
M  V30 33115 H 3240.19 -3.28423 2.06784 0
M  V30 33116 H 3238.29 -3.70846 -0.361154 0
M  V30 33117 H 3238.4 -4.61368 1.29139 0
M  V30 33118 H 3236.77 -2.47704 0.592851 0
M  V30 33119 H 3237.55 -2.58339 2.26088 0
M  V30 33120 N 3240 -0.641156 -1.43969 0
M  V30 33121 C 3241.41 -0.307647 -1.56607 0
M  V30 33122 C 3241.61 1.18879 -1.62696 0
M  V30 33123 O 3240.67 1.97322 -1.57544 0
M  V30 33124 C 3241.98 -1.00839 -2.83288 0
M  V30 33125 C 3243.53 -0.987492 -2.97014 0
M  V30 33126 C 3244 -1.6689 -4.26511 0
M  V30 33127 N 3245.49 -1.63596 -4.33348 0
M  V30 33128 C 3246.23 -2.13205 -5.32289 0
M  V30 33129 N 3245.73 -2.71049 -6.37577 0
M  V30 33130 N 3247.52 -2.03775 -5.23863 0
M  V30 33131 H 3239.67 -1.61239 -1.38259 0
M  V30 33132 H 3241.93 -0.67739 -0.663209 0
M  V30 33133 H 3241.64 -2.06342 -2.84809 0
M  V30 33134 H 3241.51 -0.552399 -3.73133 0
M  V30 33135 H 3243.9 0.0590876 -2.95041 0
M  V30 33136 H 3243.98 -1.48207 -2.08491 0
M  V30 33137 H 3243.62 -2.71498 -4.29245 0
M  V30 33138 H 3243.55 -1.14907 -5.1391 0
M  V30 33139 H 3246.05 -1.21374 -3.57878 0
M  V30 33140 H 3246.36 -3.0661 -7.09373 0
M  V30 33141 H 3244.7 -2.75105 -6.38234 0
M  V30 33142 H 3247.89 -1.58299 -4.40521 0
M  V30 33143 H 3248.07 -2.42747 -6.00814 0
M  V30 33144 N 3241.47 1.52892 -0.382318 0
M  V30 33145 C 3242.42 2.2304 0.472987 0
M  V30 33146 C 3243.41 1.2317 1.03528 0
M  V30 33147 O 3244.6 1.4854 0.96254 0
M  V30 33148 C 3241.73 3.03554 1.60343 0
M  V30 33149 C 3240.81 4.10814 1.05322 0
M  V30 33150 N 3241.21 5.05289 0.227371 0
M  V30 33151 C 3239.5 4.2582 1.3264 0
M  V30 33152 C 3240.2 5.81651 -0.0758054 0
M  V30 33153 N 3239.18 5.41046 0.526292 0
M  V30 33154 H 3242.98 2.93439 -0.164592 0
M  V30 33155 H 3240.5 1.6127 -0.191239 0
M  V30 33156 H 3242.49 3.52339 2.22851 0
M  V30 33157 H 3241.15 2.34689 2.2439 0
M  V30 33158 H 3242.16 5.17725 -0.134805 0
M  V30 33159 H 3238.84 3.68184 1.96843 0
M  V30 33160 H 3240.23 6.67763 -0.744493 0
M  V30 33161 N 3242.95 0.111941 1.57202 0
M  V30 33162 C 3244.2 -0.547539 1.94126 0
M  V30 33163 C 3244.51 -1.6828 0.997055 0
M  V30 33164 O 3245.72 -2.40456 1.26067 0
M  V30 33165 C 3244.18 -1.02539 3.44984 0
M  V30 33166 C 3243.78 0.0810316 4.47927 0
M  V30 33167 C 3245.53 -1.65664 3.9084 0
M  V30 33168 C 3243.43 -0.41312 5.89955 0
M  V30 33169 H 3242.36 -0.208308 0.724654 0
M  V30 33170 H 3245.02 0.190658 1.82507 0
M  V30 33171 H 3243.4 -1.81779 3.51813 0
M  V30 33172 H 3244.57 0.857083 4.52759 0
M  V30 33173 H 3242.89 0.618507 4.11781 0
M  V30 33174 H 3245.48 -2.03737 4.94363 0
M  V30 33175 H 3245.83 -2.53234 3.30422 0
M  V30 33176 H 3246.36 -0.929776 3.86782 0
M  V30 33177 H 3243.1 0.426353 6.54112 0
M  V30 33178 H 3242.62 -1.15581 5.88559 0
M  V30 33179 H 3244.3 -0.876643 6.41034 0
M  V30 33180 N 3244.43 -1.56767 -0.161814 0
M  V30 33181 C 3245.68 -1.82799 -0.878192 0
M  V30 33182 C 3246.01 -0.691274 -1.8148 0
M  V30 33183 O 3245.28 0.306146 -1.92075 0
M  V30 33184 C 3245.57 -3.19265 -1.6656 0
M  V30 33185 C 3245.42 -4.43478 -0.751473 0
M  V30 33186 C 3246.74 -3.52777 -2.63128 0
M  V30 33187 H 3243.86 -0.664952 -0.317816 0
M  V30 33188 H 3246.5 -1.89454 -0.143987 0
M  V30 33189 H 3244.65 -3.13723 -2.29151 0
M  V30 33190 H 3246.32 -4.61094 -0.137702 0
M  V30 33191 H 3244.56 -4.33758 -0.0601023 0
M  V30 33192 H 3245.24 -5.35535 -1.33814 0
M  V30 33193 H 3247.71 -3.58834 -2.10659 0
M  V30 33194 H 3246.59 -4.49321 -3.15281 0
M  V30 33195 H 3246.85 -2.77969 -3.43781 0
M  V30 33196 N 3245.91 0.430686 -1.51601 0
M  V30 33197 C 3247.15 1.18131 -1.64842 0
M  V30 33198 C 3247.49 1.90705 -0.366759 0
M  V30 33199 O 3246.76 1.83879 0.633947 0
M  V30 33200 C 3247.04 2.19301 -2.85621 0
M  V30 33201 C 3246.9 1.50765 -4.23781 0
M  V30 33202 C 3248.22 3.20211 -3.01915 0
M  V30 33203 H 3245.34 0.428102 -0.599915 0
M  V30 33204 H 3247.98 0.469697 -1.84103 0
M  V30 33205 H 3246.13 2.79989 -2.6933 0
M  V30 33206 H 3247.8 0.93363 -4.51753 0
M  V30 33207 H 3246.04 0.809892 -4.26173 0
M  V30 33208 H 3246.71 2.24478 -5.04295 0
M  V30 33209 H 3249.19 2.69583 -3.16961 0
M  V30 33210 H 3248.07 3.88286 -3.87975 0
M  V30 33211 H 3248.33 3.86701 -2.14277 0
M  V30 33212 N 3247.39 1.4186 0.686559 0
M  V30 33213 C 3248.66 1.32187 1.44173 0
M  V30 33214 C 3249.04 -0.0463249 2.11049 0
M  V30 33215 O 3248.39 -1.06113 2.02367 0
M  V30 33216 C 3248.6 2.48172 2.45381 0
M  V30 33217 C 3249.95 2.89751 3.1037 0
M  V30 33218 O 3250.97 2.47977 2.55706 0
M  V30 33219 O 3249.83 3.62016 4.09398 0
M  V30 33220 H 3246.93 0.520689 0.642504 0
M  V30 33221 H 3249.47 1.53843 0.716276 0
M  V30 33222 H 3248.24 3.39433 1.94681 0
M  V30 33223 H 3247.87 2.28441 3.25424 0
M  V30 33224 N 3248.86 -0.921712 1.27837 0
M  V30 33225 C 3250.27 -1.48503 1.13153 0
M  V30 33226 C 3250.63 -1.94172 -0.281339 0
M  V30 33227 O 3249.75 -1.81732 -1.17484 0
M  V30 33228 C 3250.35 -2.69896 2.04797 0
M  V30 33229 C 3248.9 -3.22432 1.94202 0
M  V30 33230 C 3248.05 -1.95155 1.97002 0
M  V30 33231 H 3251 -0.735216 1.40642 0
M  V30 33232 H 3251.02 -3.44886 1.6073 0
M  V30 33233 H 3250.54 -2.36626 3.0762 0
M  V30 33234 H 3248.64 -3.60447 0.943868 0
M  V30 33235 H 3248.75 -3.88221 2.80751 0
M  V30 33236 H 3247.11 -2.11908 1.41305 0
M  V30 33237 H 3247.9 -1.64191 3.0149 0
M  V30 33238 N 3250.34 -1.09956 -1.12905 0
M  V30 33239 C 3251.29 -0.743886 -2.18483 0
M  V30 33240 C 3252.26 0.277465 -1.63766 0
M  V30 33241 O 3253.44 0.157866 -1.90146 0
M  V30 33242 C 3250.58 -0.176498 -3.44648 0
M  V30 33243 C 3249.7 -1.25255 -4.13443 0
M  V30 33244 C 3248.83 -0.647335 -5.27241 0
M  V30 33245 C 3247.87 -1.70431 -5.87894 0
M  V30 33246 N 3247.01 -1.11973 -6.93114 0
M  V30 33247 H 3251.85 -1.64845 -2.48254 0
M  V30 33248 H 3249.38 -0.823493 -1.21889 0
M  V30 33249 H 3251.34 0.170311 -4.16852 0
M  V30 33250 H 3249.97 0.691314 -3.1531 0
M  V30 33251 H 3249.02 -1.71656 -3.39468 0
M  V30 33252 H 3250.34 -2.05287 -4.54597 0
M  V30 33253 H 3249.49 -0.249686 -6.06186 0
M  V30 33254 H 3248.23 0.184471 -4.87351 0
M  V30 33255 H 3247.23 -2.11144 -5.0764 0
M  V30 33256 H 3248.46 -2.53888 -6.29855 0
M  V30 33257 H 3246.41 -0.309297 -6.5527 0
M  V30 33258 H 3246.32 -1.85694 -7.3284 0
M  V30 33259 H 3247.59 -0.748462 -7.75898 0
M  V30 33260 N 3251.82 1.30231 -0.887563 0
M  V30 33261 C 3252.77 2.30015 -0.345805 0
M  V30 33262 C 3253.76 1.60272 0.548572 0
M  V30 33263 O 3254.97 1.74721 0.432719 0
M  V30 33264 H 3251.34 0.746205 -0.0931754 0
M  V30 33265 H 3253.31 2.73164 -1.201 0
M  V30 33266 C 3252.06 3.45125 0.422374 0
M  V30 33267 H 3251.39 3.98976 -0.256586 0
M  V30 33268 H 3252.83 4.17014 0.766498 0
M  V30 33269 C 3251.28 2.9537 1.62044 0
M  V30 33270 O 3251.81 2.95618 2.7198 0
M  V30 33271 N 3250.02 2.5135 1.45848 0
M  V30 33272 H 3249.57 2.51347 0.564113 0
M  V30 33273 H 3249.53 2.18417 2.26144 0
M  V30 33274 N 3253.3 0.648782 1.43627 0
M  V30 33275 C 3254.71 0.315948 1.56441 0
M  V30 33276 C 3254.91 -1.18015 1.63324 0
M  V30 33277 O 3253.97 -1.96484 1.58589 0
M  V30 33278 C 3255.28 1.0234 2.82749 0
M  V30 33279 C 3256.83 1.00323 2.96487 0
M  V30 33280 C 3257.31 1.69149 4.2562 0
M  V30 33281 N 3258.8 1.65892 4.32474 0
M  V30 33282 C 3259.53 2.16025 5.3115 0
M  V30 33283 N 3259.03 2.74427 6.3613 0
M  V30 33284 N 3260.82 2.06551 5.22775 0
M  V30 33285 H 3252.97 1.6197 1.37402 0
M  V30 33286 H 3255.24 0.680898 0.659608 0
M  V30 33287 H 3254.94 2.07849 2.8371 0
M  V30 33288 H 3254.82 0.572179 3.72835 0
M  V30 33289 H 3257.2 -0.0434401 2.95068 0
M  V30 33290 H 3257.28 1.49311 2.07702 0
M  V30 33291 H 3256.93 2.73771 4.27799 0
M  V30 33292 H 3256.86 1.17631 5.13294 0
M  V30 33293 H 3259.35 1.2327 3.57229 0
M  V30 33294 H 3259.66 3.10368 7.07737 0
M  V30 33295 H 3258.01 2.78485 6.36766 0
M  V30 33296 H 3261.2 1.60633 4.39676 0
M  V30 33297 H 3261.37 2.4593 5.99519 0
M  V30 33298 N 3254.78 -1.52688 0.390421 0
M  V30 33299 C 3256.01 -2.05714 -0.191171 0
M  V30 33300 C 3256.41 -1.2619 -1.4097 0
M  V30 33301 O 3255.76 -0.30197 -1.81201 0
M  V30 33302 C 3255.82 -3.5403 -0.624732 0
M  V30 33303 C 3255.48 -4.54467 0.480493 0
M  V30 33304 C 3256.48 -5.02381 1.33825 0
M  V30 33305 C 3254.17 -4.98105 0.647842 0
M  V30 33306 C 3256.16 -5.92559 2.34847 0
M  V30 33307 C 3253.85 -5.88082 1.6614 0
M  V30 33308 C 3254.84 -6.35202 2.51013 0
M  V30 33309 O 3254.53 -7.23402 3.50635 0
M  V30 33310 H 3254.26 -0.675232 -0.0322091 0
M  V30 33311 H 3256.82 -1.97775 0.554466 0
M  V30 33312 H 3255.05 -3.59591 -1.42236 0
M  V30 33313 H 3256.74 -3.89792 -1.13212 0
M  V30 33314 H 3257.5 -4.69398 1.22027 0
M  V30 33315 H 3253.38 -4.61 -0.00306408 0
M  V30 33316 H 3256.93 -6.2926 3.01128 0
M  V30 33317 H 3252.82 -6.2048 1.77975 0
M  V30 33318 H 3253.59 -7.41466 3.46657 0
M  V30 33319 N 3256.25 -0.120276 -1.5714 0
M  V30 33320 C 3257.18 0.826074 -2.18399 0
M  V30 33321 C 3258.17 1.27636 -1.12441 0
M  V30 33322 O 3259.35 1.33874 -1.40682 0
M  V30 33323 C 3256.48 2.07575 -2.78442 0
M  V30 33324 C 3255.43 1.76321 -3.89994 0
M  V30 33325 C 3254.76 3.08329 -4.3685 0
M  V30 33326 C 3256.06 1.03053 -5.12033 0
M  V30 33327 H 3257.75 0.315604 -2.97732 0
M  V30 33328 H 3255.3 0.150361 -1.43213 0
M  V30 33329 H 3257.25 2.74238 -3.19956 0
M  V30 33330 H 3255.98 2.60949 -1.964 0
M  V30 33331 H 3254.64 1.12047 -3.49057 0
M  V30 33332 H 3254.28 3.59639 -3.51665 0
M  V30 33333 H 3253.98 2.8819 -5.12075 0
M  V30 33334 H 3255.51 3.76107 -4.81015 0
M  V30 33335 H 3256.92 1.59871 -5.50558 0
M  V30 33336 H 3255.32 0.930042 -5.92849 0
M  V30 33337 H 3256.39 0.0174968 -4.84897 0
M  V30 33338 N 3257.73 1.56851 0.153498 0
M  V30 33339 C 3258.98 1.82991 0.8672 0
M  V30 33340 C 3259.31 0.700157 1.81461 0
M  V30 33341 O 3258.56 -0.311314 1.93208 0
M  V30 33342 C 3258.86 3.15421 1.6806 0
M  V30 33343 C 3258.53 4.42218 0.880558 0
M  V30 33344 C 3257.19 4.76655 0.659815 0
M  V30 33345 C 3259.54 5.20213 0.320607 0
M  V30 33346 C 3256.87 5.86552 -0.131691 0
M  V30 33347 C 3259.22 6.30941 -0.457905 0
M  V30 33348 C 3257.89 6.63932 -0.689284 0
M  V30 33349 H 3257.16 0.669613 0.317331 0
M  V30 33350 H 3259.8 1.9105 0.131174 0
M  V30 33351 H 3258.11 3.02784 2.48655 0
M  V30 33352 H 3259.8 3.32861 2.23618 0
M  V30 33353 H 3256.39 4.15217 1.06267 0
M  V30 33354 H 3260.58 4.93988 0.478443 0
M  V30 33355 H 3255.83 6.10559 -0.32052 0
M  V30 33356 H 3260.01 6.90573 -0.89896 0
M  V30 33357 H 3257.64 7.48924 -1.30446 0
M  V30 33358 N 3259.21 -0.42264 1.51827 0
M  V30 33359 C 3260.46 -1.16937 1.66425 0
M  V30 33360 C 3260.81 -1.88553 0.382807 0
M  V30 33361 O 3260.1 -1.81218 -0.622134 0
M  V30 33362 C 3260.3 -2.20114 2.81575 0
M  V30 33363 C 3260.13 -1.58626 4.20794 0
M  V30 33364 C 3258.9 -1.36481 4.86519 0
M  V30 33365 C 3261.1 -1.05448 5.03374 0
M  V30 33366 N 3259.08 -0.707453 6.0981 0
M  V30 33367 C 3260.45 -0.52325 6.17788 0
M  V30 33368 C 3262.5 -0.94764 4.88799 0
M  V30 33369 C 3261.21 0.104326 7.19224 0
M  V30 33370 C 3263.23 -0.333938 5.90456 0
M  V30 33371 C 3262.59 0.186675 7.04153 0
M  V30 33372 H 3258.69 -0.415053 0.662763 0
M  V30 33373 H 3261.28 -0.463744 1.89097 0
M  V30 33374 H 3259.45 -2.88049 2.60543 0
M  V30 33375 H 3261.18 -2.87051 2.85278 0
M  V30 33376 H 3257.94 -1.63062 4.44644 0
M  V30 33377 H 3258.36 -0.39579 6.75842 0
M  V30 33378 H 3263 -1.33599 4.01137 0
M  V30 33379 H 3260.72 0.504769 8.06522 0
M  V30 33380 H 3264.31 -0.252978 5.8125 0
M  V30 33381 H 3263.19 0.65408 7.81467 0
M  V30 33382 N 3260.69 -1.42222 -0.679027 0
M  V30 33383 C 3261.65 -1.45072 -1.77445 0
M  V30 33384 C 3262.65 -0.338909 -1.57188 0
M  V30 33385 O 3263.84 -0.599548 -1.63558 0
M  V30 33386 C 3260.97 -1.27825 -3.16028 0
M  V30 33387 H 3262.17 -2.42603 -1.76306 0
M  V30 33388 H 3259.72 -1.28607 -0.888254 0
M  V30 33389 H 3260.45 -0.312002 -3.22796 0
M  V30 33390 H 3260.24 -2.08397 -3.32134 0
M  V30 33391 H 3261.73 -1.32693 -3.95957 0
M  V30 33392 N 3262.17 0.91492 -1.28324 0
M  V30 33393 C 3263.44 1.64315 -1.06114 0
M  V30 33394 C 3263.82 2.07278 0.399897 0
M  V30 33395 O 3263.17 1.81686 1.38574 0
M  V30 33396 C 3263.38 2.83553 -2.03466 0
M  V30 33397 C 3264.73 3.54599 -2.33547 0
M  V30 33398 O 3265.75 2.937 -2.01541 0
M  V30 33399 O 3264.61 4.64352 -2.88166 0
M  V30 33400 H 3261.71 0.720783 -0.405463 0
M  V30 33401 H 3264.25 0.964328 -1.39638 0
M  V30 33402 H 3263.02 2.48891 -3.01942 0
M  V30 33403 H 3262.65 3.59149 -1.7058 0
M  V30 33404 N 3263.64 1.10553 1.1232 0
M  V30 33405 C 3264.87 0.86964 1.87406 0
M  V30 33406 C 3265.28 -0.583528 1.79977 0
M  V30 33407 O 3264.63 -1.41413 1.17253 0
M  V30 33408 C 3264.69 1.24105 3.37399 0
M  V30 33409 C 3264.35 2.7015 3.68603 0
M  V30 33410 C 3265.35 3.68386 3.66863 0
M  V30 33411 C 3263.03 3.06566 3.97898 0
M  V30 33412 C 3265.03 5.01059 3.93979 0
M  V30 33413 C 3262.71 4.39426 4.24674 0
M  V30 33414 C 3263.71 5.36482 4.22701 0
M  V30 33415 O 3263.4 6.66951 4.48812 0
M  V30 33416 H 3263.13 0.311845 0.599774 0
M  V30 33417 H 3265.69 1.47412 1.43034 0
M  V30 33418 H 3263.92 0.579673 3.82331 0
M  V30 33419 H 3265.61 0.982447 3.93831 0
M  V30 33420 H 3266.37 3.41597 3.44291 0
M  V30 33421 H 3262.25 2.31645 3.98574 0
M  V30 33422 H 3265.79 5.76805 3.92354 0
M  V30 33423 H 3261.69 4.65953 4.46719 0
M  V30 33424 H 3262.46 6.726 4.66425 0
M  V30 33425 N 3265.12 -1.29758 0.894457 0
M  V30 33426 C 3266.37 -1.95384 0.51668 0
M  V30 33427 C 3266.69 -1.70897 -0.939111 0
M  V30 33428 O 3265.96 -1.03781 -1.66152 0
M  V30 33429 H 3264.54 -0.722934 0.188085 0
M  V30 33430 H 3267.2 -1.58111 1.13961 0
M  V30 33431 H 3266.3 -3.04266 0.694873 0
M  V30 33432 N 3266.6 -0.65639 -1.4328 0
M  V30 33433 C 3267.53 0.0719976 -2.29087 0
M  V30 33434 C 3268.55 0.783957 -1.42681 0
M  V30 33435 O 3269.73 0.641184 -1.66587 0
M  V30 33436 C 3266.83 1.12513 -3.19678 0
M  V30 33437 C 3266.01 0.49068 -4.34639 0
M  V30 33438 C 3265.07 1.44112 -5.06081 0
M  V30 33439 O 3264.09 0.948496 -5.61242 0
M  V30 33440 N 3265.29 2.775 -5.09876 0
M  V30 33441 H 3268.06 -0.664507 -2.9224 0
M  V30 33442 H 3265.62 -0.49941 -1.54005 0
M  V30 33443 H 3267.61 1.76183 -3.64337 0
M  V30 33444 H 3266.18 1.76357 -2.58103 0
M  V30 33445 H 3265.4 -0.325169 -3.92857 0
M  V30 33446 H 3266.69 0.0479166 -5.08777 0
M  V30 33447 H 3266.09 3.2008 -4.66439 0
M  V30 33448 H 3264.65 3.36464 -5.58243 0
M  V30 33449 N 3268.08 1.52478 -0.398513 0
M  V30 33450 C 3269.5 1.59525 -0.0488916 0
M  V30 33451 C 3269.7 1.41199 1.43753 0
M  V30 33452 O 3268.75 1.23361 2.20314 0
M  V30 33453 C 3270.06 2.95915 -0.534314 0
M  V30 33454 C 3271.61 3.09119 -0.491368 0
M  V30 33455 C 3272.09 4.47973 -0.953127 0
M  V30 33456 N 3273.58 4.54183 -0.909514 0
M  V30 33457 C 3274.31 5.59874 -1.23811 0
M  V30 33458 N 3273.81 6.73167 -1.63764 0
M  V30 33459 N 3275.6 5.50026 -1.15877 0
M  V30 33460 H 3267.75 1.62639 -1.36611 0
M  V30 33461 H 3270.02 0.764534 -0.560528 0
M  V30 33462 H 3269.72 3.14571 -1.57282 0
M  V30 33463 H 3269.6 3.7715 0.0617124 0
M  V30 33464 H 3271.98 2.90153 0.538072 0
M  V30 33465 H 3272.06 2.29816 -1.12331 0
M  V30 33466 H 3271.71 4.6768 -1.98084 0
M  V30 33467 H 3271.64 5.25756 -0.298099 0
M  V30 33468 H 3274.13 3.72852 -0.615634 0
M  V30 33469 H 3274.44 7.4979 -1.87177 0
M  V30 33470 H 3272.79 6.74474 -1.67659 0
M  V30 33471 H 3275.98 4.60399 -0.845583 0
M  V30 33472 H 3276.15 6.32291 -1.41817 0
M  V30 33473 N 3269.56 0.128608 1.57074 0
M  V30 33474 C 3270.97 -0.395227 1.82469 0
M  V30 33475 C 3271.32 -1.65971 1.04633 0
M  V30 33476 O 3270.44 -2.14503 0.285873 0
M  V30 33477 C 3271.04 -0.723831 3.30978 0
M  V30 33478 C 3269.6 -1.19226 3.57018 0
M  V30 33479 C 3268.75 -0.205858 2.76535 0
M  V30 33480 H 3271.7 0.353598 1.54711 0
M  V30 33481 H 3271.72 -1.58033 3.4613 0
M  V30 33482 H 3271.23 0.196663 3.87601 0
M  V30 33483 H 3269.33 -2.12932 3.05762 0
M  V30 33484 H 3269.44 -1.13094 4.6556 0
M  V30 33485 H 3267.81 -0.694829 2.45039 0
M  V30 33486 H 3268.59 0.707902 3.35922 0
M  V30 33487 N 3271.04 -1.5693 -0.145178 0
M  V30 33488 C 3271.98 -1.98403 -1.17919 0
M  V30 33489 C 3272.95 -0.85191 -1.42589 0
M  V30 33490 O 3274.14 -1.11412 -1.54894 0
M  V30 33491 C 3271.28 -2.37133 -2.50723 0
M  V30 33492 C 3270.39 -3.63643 -2.33212 0
M  V30 33493 C 3269.53 -3.91468 -3.59063 0
M  V30 33494 C 3268.56 -5.11243 -3.36596 0
M  V30 33495 N 3267.7 -5.35069 -4.54583 0
M  V30 33496 H 3272.54 -2.86538 -0.818523 0
M  V30 33497 H 3270.08 -1.41761 -0.392715 0
M  V30 33498 H 3272.04 -2.57617 -3.28161 0
M  V30 33499 H 3270.67 -1.52074 -2.84734 0
M  V30 33500 H 3269.72 -3.50925 -1.46819 0
M  V30 33501 H 3271.03 -4.51237 -2.12571 0
M  V30 33502 H 3270.18 -4.1246 -4.44928 0
M  V30 33503 H 3268.92 -3.02299 -3.82709 0
M  V30 33504 H 3267.93 -4.90122 -2.49119 0
M  V30 33505 H 3269.15 -6.01966 -3.14346 0
M  V30 33506 H 3267.1 -4.48855 -4.78399 0
M  V30 33507 H 3267.02 -6.16936 -4.36951 0
M  V30 33508 H 3268.28 -5.60561 -5.41657 0
M  V30 33509 N 3272.51 0.414582 -1.52049 0
M  V30 33510 C 3273.76 1.1591 -1.65069 0
M  V30 33511 C 3274.08 1.91794 -0.384003 0
M  V30 33512 O 3275.28 2.68627 -0.393919 0
M  V30 33513 C 3273.74 2.10924 -2.91614 0
M  V30 33514 C 3273.35 1.40582 -4.25371 0
M  V30 33515 C 3275.09 2.85668 -3.13997 0
M  V30 33516 C 3273 2.34214 -5.43045 0
M  V30 33517 H 3271.93 0.436376 -0.614892 0
M  V30 33518 H 3274.58 0.42404 -1.78533 0
M  V30 33519 H 3272.96 2.8796 -2.71837 0
M  V30 33520 H 3274.13 0.689488 -4.55612 0
M  V30 33521 H 3272.45 0.779016 -4.09048 0
M  V30 33522 H 3275.05 3.55854 -3.99089 0
M  V30 33523 H 3275.39 3.4831 -2.28004 0
M  V30 33524 H 3275.92 2.15734 -3.34221 0
M  V30 33525 H 3272.66 1.76227 -6.31367 0
M  V30 33526 H 3272.18 3.03836 -5.1715 0
M  V30 33527 H 3273.86 2.94857 -5.75906 0
M  V30 33528 N 3273.99 1.4258 0.671475 0
M  V30 33529 C 3274.9 1.48727 1.81432 0
M  V30 33530 C 3275.92 0.375745 1.69895 0
M  V30 33531 O 3277.09 0.627149 1.91387 0
M  V30 33532 C 3274.16 1.39043 3.17597 0
M  V30 33533 C 3273.22 2.60715 3.41066 0
M  V30 33534 C 3272.45 2.51484 4.70735 0
M  V30 33535 O 3272.68 1.55253 5.48865 0
M  V30 33536 O 3271.61 3.41674 4.95522 0
M  V30 33537 H 3275.44 2.45195 1.79202 0
M  V30 33538 H 3273.02 1.2438 0.827645 0
M  V30 33539 H 3274.9 1.36017 3.98845 0
M  V30 33540 H 3273.58 0.457022 3.20457 0
M  V30 33541 H 3272.48 2.69315 2.59654 0
M  V30 33542 H 3273.82 3.52966 3.43039 0
M  V30 33543 N 3275.47 -0.908102 1.28807 0
M  V30 33544 C 3276.89 -1.18747 1.06636 0
M  V30 33545 C 3277.09 -2.00624 -0.187694 0
M  V30 33546 O 3276.14 -2.36378 -0.887799 0
M  V30 33547 C 3277.45 -1.91657 2.31707 0
M  V30 33548 C 3279 -2.04517 2.36942 0
M  V30 33549 C 3279.48 -2.80836 3.61794 0
M  V30 33550 N 3280.97 -2.88395 3.62467 0
M  V30 33551 C 3281.7 -3.47962 4.55752 0
M  V30 33552 N 3281.2 -4.08764 5.5936 0
M  V30 33553 N 3282.99 -3.45556 4.43337 0
M  V30 33554 H 3275.14 -0.361603 2.09299 0
M  V30 33555 H 3277.41 -0.222652 0.921483 0
M  V30 33556 H 3277.11 -1.38925 3.23098 0
M  V30 33557 H 3276.99 -2.92178 2.38561 0
M  V30 33558 H 3279.37 -2.56428 1.46044 0
M  V30 33559 H 3279.45 -1.03155 2.34079 0
M  V30 33560 H 3279.1 -2.29604 4.53039 0
M  V30 33561 H 3279.03 -3.82526 3.61914 0
M  V30 33562 H 3281.52 -2.45203 2.87548 0
M  V30 33563 H 3281.83 -4.52213 6.26676 0
M  V30 33564 H 3280.18 -4.07251 5.6318 0
M  V30 33565 H 3283.37 -2.97269 3.61592 0
M  V30 33566 H 3283.54 -3.91686 5.16223 0
M  V30 33567 N 3276.95 -1.11147 -1.11732 0
M  V30 33568 C 3278.17 -0.881095 -1.87754 0
M  V30 33569 C 3278.6 0.563465 -1.79462 0
M  V30 33570 O 3277.96 1.39761 -1.15484 0
M  V30 33571 C 3278 -1.34347 -3.34639 0
M  V30 33572 O 3277.11 -0.513229 -4.09194 0
M  V30 33573 H 3276.45 -0.317623 -0.583105 0
M  V30 33574 H 3278.98 -1.48016 -1.41253 0
M  V30 33575 H 3278.99 -1.33665 -3.85484 0
M  V30 33576 H 3277.66 -2.3954 -3.3999 0
M  V30 33577 H 3276.24 -0.585897 -3.68268 0
M  V30 33578 N 3278.43 1.29282 -0.901326 0
M  V30 33579 C 3279.67 1.95493 -0.528078 0
M  V30 33580 C 3280 1.71046 0.92594 0
M  V30 33581 O 3279.26 1.01726 1.67183 0
M  V30 33582 C 3279.55 3.49031 -0.76889 0
M  V30 33583 C 3279.22 3.93558 -2.20052 0
M  V30 33584 C 3277.88 4.05426 -2.59196 0
M  V30 33585 C 3280.23 4.16544 -3.13273 0
M  V30 33586 C 3277.56 4.37652 -3.9074 0
M  V30 33587 C 3279.91 4.50244 -4.44368 0
M  V30 33588 C 3278.58 4.60323 -4.83383 0
M  V30 33589 H 3277.85 0.71536 -0.193237 0
M  V30 33590 H 3280.5 1.53849 -1.14029 0
M  V30 33591 H 3278.8 3.91731 -0.0737685 0
M  V30 33592 H 3280.5 3.98359 -0.459454 0
M  V30 33593 H 3277.09 3.84838 -1.88673 0
M  V30 33594 H 3281.27 4.0684 -2.84245 0
M  V30 33595 H 3276.53 4.43658 -4.20687 0
M  V30 33596 H 3280.7 4.6698 -5.16626 0
M  V30 33597 H 3278.33 4.85048 -5.85348 0
M  V30 33598 N 3279.9 0.663979 1.4293 0
M  V30 33599 C 3280.83 -0.00727223 2.33499 0
M  V30 33600 C 3281.81 -0.800706 1.50076 0
M  V30 33601 O 3283 -0.760031 1.7871 0
M  V30 33602 C 3280.13 -0.966839 3.33571 0
M  V30 33603 C 3279.08 -0.282764 4.27065 0
M  V30 33604 C 3278.41 -1.35452 5.17259 0
M  V30 33605 C 3279.71 0.831529 5.15638 0
M  V30 33606 H 3281.4 0.749095 2.89877 0
M  V30 33607 H 3278.95 0.36168 1.39384 0
M  V30 33608 H 3280.9 -1.44542 3.95835 0
M  V30 33609 H 3279.63 -1.7545 2.75472 0
M  V30 33610 H 3278.29 0.175481 3.6618 0
M  V30 33611 H 3277.93 -2.13389 4.55493 0
M  V30 33612 H 3277.63 -0.901996 5.80636 0
M  V30 33613 H 3279.16 -1.83426 5.82398 0
M  V30 33614 H 3280.57 0.434634 5.7165 0
M  V30 33615 H 3278.97 1.20918 5.87791 0
M  V30 33616 H 3280.04 1.68495 4.54684 0
M  V30 33617 N 3281.38 -1.52265 0.406593 0
M  V30 33618 C 3282.66 -1.94261 -0.228443 0
M  V30 33619 C 3283.04 -1.3433 -1.62845 0
M  V30 33620 O 3282.39 -0.518121 -2.22548 0
M  V30 33621 C 3282.6 -3.48192 -0.23734 0
M  V30 33622 C 3283.94 -4.22123 -0.457922 0
M  V30 33623 O 3284.97 -3.54788 -0.316806 0
M  V30 33624 O 3283.83 -5.41523 -0.735851 0
M  V30 33625 H 3280.92 -0.813925 -0.146477 0
M  V30 33626 H 3283.47 -1.6328 0.462353 0
M  V30 33627 H 3282.24 -3.84188 0.742624 0
M  V30 33628 H 3281.86 -3.85527 -0.972341 0
M  V30 33629 N 3282.86 -0.136936 -1.57004 0
M  V30 33630 C 3284.1 0.519548 -1.97687 0
M  V30 33631 C 3284.46 1.62694 -1.01954 0
M  V30 33632 O 3285.67 2.34358 -1.31643 0
M  V30 33633 C 3283.94 1.022 -3.42476 0
M  V30 33634 S 3285.5 1.68449 -4.05179 0
M  V30 33635 H 3282.31 0.168317 -0.69079 0
M  V30 33636 H 3284.92 -0.226268 -1.94186 0
M  V30 33637 H 3283.62 0.205122 -4.09887 0
M  V30 33638 H 3283.15 1.80267 -3.49667 0
M  V30 33639 H 3285.17 2.97124 -3.97406 0
M  V30 33640 N 3284.34 1.57005 0.136853 0
M  V30 33641 C 3285.57 1.8807 0.862403 0
M  V30 33642 C 3285.98 0.726258 1.74273 0
M  V30 33643 O 3285.34 -0.303629 1.79957 0
M  V30 33644 C 3285.39 3.18461 1.7107 0
M  V30 33645 O 3285.11 4.29459 0.865842 0
M  V30 33646 C 3286.61 3.6311 2.54296 0
M  V30 33647 H 3283.83 0.623148 0.248854 0
M  V30 33648 H 3286.38 2.04108 0.126597 0
M  V30 33649 H 3284.53 3.04146 2.39946 0
M  V30 33650 H 3284.94 5.04081 1.44921 0
M  V30 33651 H 3286.42 4.57155 3.09376 0
M  V30 33652 H 3286.9 2.88891 3.30815 0
M  V30 33653 H 3287.5 3.80153 1.90693 0
M  V30 33654 N 3285.82 -0.406513 1.52267 0
M  V30 33655 C 3286.76 -1.51597 1.76412 0
M  V30 33656 C 3287.76 -1.57196 0.631338 0
M  V30 33657 O 3288.96 -1.60571 0.813441 0
M  V30 33658 H 3285.34 -0.50422 0.557913 0
M  V30 33659 H 3287.31 -1.28419 2.69353 0
M  V30 33660 C 3286.06 -2.88936 1.9342 0
M  V30 33661 H 3285.38 -2.85372 2.80005 0
M  V30 33662 H 3286.82 -3.6585 2.14312 0
M  V30 33663 C 3285.28 -3.29505 0.701996 0
M  V30 33664 O 3285.81 -4.01493 -0.128895 0
M  V30 33665 N 3284.02 -2.85593 0.53714 0
M  V30 33666 H 3283.56 -2.27179 1.21439 0
M  V30 33667 H 3283.52 -3.13096 -0.286 0
M  V30 33668 N 3287.29 -1.42934 -0.663904 0
M  V30 33669 C 3288.71 -1.26099 -0.978324 0
M  V30 33670 C 3288.91 -0.173003 -2.00756 0
M  V30 33671 O 3287.97 0.45214 -2.48419 0
M  V30 33672 C 3289.28 -2.62165 -1.47276 0
M  V30 33673 C 3290.83 -2.69609 -1.58996 0
M  V30 33674 C 3291.3 -4.06067 -2.11833 0
M  V30 33675 N 3292.79 -4.08077 -2.19151 0
M  V30 33676 C 3293.53 -5.10488 -2.61132 0
M  V30 33677 N 3293.02 -6.23276 -3.02487 0
M  V30 33678 N 3294.82 -4.97843 -2.60977 0
M  V30 33679 H 3286.97 -2.12393 0.0173469 0
M  V30 33680 H 3289.23 -0.946415 -0.054795 0
M  V30 33681 H 3288.94 -3.42691 -0.790947 0
M  V30 33682 H 3288.81 -2.86831 -2.44964 0
M  V30 33683 H 3291.2 -1.89422 -2.26281 0
M  V30 33684 H 3291.28 -2.48719 -0.597684 0
M  V30 33685 H 3290.92 -4.86716 -1.45154 0
M  V30 33686 H 3290.85 -4.24315 -3.11872 0
M  V30 33687 H 3293.34 -3.26658 -1.90007 0
M  V30 33688 H 3293.66 -6.9726 -3.33239 0
M  V30 33689 H 3292 -6.26765 -3.00317 0
M  V30 33690 H 3295.19 -4.08798 -2.28039 0
M  V30 33691 H 3295.37 -5.77785 -2.93374 0
M  V30 33692 N 3288.77 0.901258 -1.29287 0
M  V30 33693 C 3290 1.68509 -1.20051 0
M  V30 33694 C 3290.42 1.8728 0.239095 0
M  V30 33695 O 3289.77 1.40871 1.16024 0
M  V30 33696 C 3289.82 3.07045 -1.90803 0
M  V30 33697 O 3289.54 2.89132 -3.29142 0
M  V30 33698 C 3291.05 4.0145 -1.88024 0
M  V30 33699 H 3288.27 0.526353 -0.416166 0
M  V30 33700 H 3290.81 1.12716 -1.70632 0
M  V30 33701 H 3288.96 3.59618 -1.44061 0
M  V30 33702 H 3289.38 3.76902 -3.64754 0
M  V30 33703 H 3290.85 4.96078 -2.42097 0
M  V30 33704 H 3291.33 4.30789 -0.855416 0
M  V30 33705 H 3291.94 3.54808 -2.34503 0
M  V30 33706 N 3290.25 1.11738 1.11141 0
M  V30 33707 C 3291.5 0.869445 1.83217 0
M  V30 33708 C 3291.83 -0.603369 1.84589 0
M  V30 33709 O 3291.1 -1.44563 1.30122 0
M  V30 33710 C 3291.39 1.43564 3.30244 0
M  V30 33711 C 3291.24 2.9763 3.37248 0
M  V30 33712 C 3292.56 1.08915 4.2641 0
M  V30 33713 H 3289.68 0.317298 0.6652 0
M  V30 33714 H 3292.32 1.38278 1.30304 0
M  V30 33715 H 3290.47 0.999044 3.75435 0
M  V30 33716 H 3292.14 3.49916 3.00593 0
M  V30 33717 H 3290.39 3.33537 2.77373 0
M  V30 33718 H 3291.06 3.32336 4.40746 0
M  V30 33719 H 3293.53 1.46611 3.89416 0
M  V30 33720 H 3292.41 1.51204 5.27663 0
M  V30 33721 H 3292.67 0.000336719 4.421 0
M  V30 33722 N 3291.73 -1.28802 0.90817 0
M  V30 33723 C 3292.66 -2.29887 0.409146 0
M  V30 33724 C 3293.64 -1.61947 -0.52031 0
M  V30 33725 O 3294.82 -1.89397 -0.429235 0
M  V30 33726 C 3291.95 -3.45464 -0.356629 0
M  V30 33727 C 3290.91 -4.25264 0.483175 0
M  V30 33728 C 3290.23 -5.33121 -0.410606 0
M  V30 33729 C 3291.53 -4.92552 1.73753 0
M  V30 33730 H 3293.23 -2.71878 1.25391 0
M  V30 33731 H 3290.77 -1.30702 0.604391 0
M  V30 33732 H 3292.73 -4.15263 -0.716537 0
M  V30 33733 H 3291.45 -3.02339 -1.23525 0
M  V30 33734 H 3290.11 -3.57184 0.825527 0
M  V30 33735 H 3289.76 -4.8624 -1.28761 0
M  V30 33736 H 3289.46 -5.87414 0.147663 0
M  V30 33737 H 3290.98 -6.0577 -0.766519 0
M  V30 33738 H 3292.4 -5.54742 1.44686 0
M  V30 33739 H 3290.79 -5.56816 2.23777 0
M  V30 33740 H 3291.86 -4.17359 2.4686 0
M  V30 33741 N 3293.21 -0.67155 -1.42576 0
M  V30 33742 C 3294.45 -0.192752 -2.01882 0
M  V30 33743 C 3294.79 1.19651 -1.52962 0
M  V30 33744 O 3294.06 1.80263 -0.730436 0
M  V30 33745 C 3294.34 -0.223798 -3.59404 0
M  V30 33746 C 3294.2 -1.64828 -4.18511 0
M  V30 33747 C 3295.52 0.429781 -4.37996 0
M  V30 33748 H 3292.63 -0.0715154 -0.733522 0
M  V30 33749 H 3295.28 -0.855718 -1.69639 0
M  V30 33750 H 3293.43 0.340708 -3.87003 0
M  V30 33751 H 3295.1 -2.26479 -4.01877 0
M  V30 33752 H 3293.34 -2.18997 -3.74463 0
M  V30 33753 H 3294.01 -1.62172 -5.2764 0
M  V30 33754 H 3296.49 -0.0507164 -4.16069 0
M  V30 33755 H 3295.36 0.377407 -5.47601 0
M  V30 33756 H 3295.63 1.50686 -4.15627 0
M  V30 33757 N 3294.68 1.52047 -0.414663 0
M  V30 33758 C 3295.91 2.06773 0.161101 0
M  V30 33759 C 3296.33 1.28222 1.37625 0
M  V30 33760 O 3295.69 0.313947 1.78561 0
M  V30 33761 C 3295.74 3.57331 0.484457 0
M  V30 33762 O 3294.84 3.81157 1.57459 0
M  V30 33763 H 3294.19 0.663895 0.0117886 0
M  V30 33764 H 3296.72 1.95925 -0.589459 0
M  V30 33765 H 3296.73 4.01205 0.741496 0
M  V30 33766 H 3295.4 4.13935 -0.403805 0
M  V30 33767 H 3293.98 3.49159 1.30928 0
M  V30 33768 N 3296.16 0.145261 1.56929 0
M  V30 33769 C 3297.07 -0.80818 2.2024 0
M  V30 33770 C 3298.09 -1.27302 1.18618 0
M  V30 33771 O 3299.26 -1.33057 1.51188 0
M  V30 33772 C 3296.33 -2.0305 2.81019 0
M  V30 33773 C 3295.39 -1.61505 3.97762 0
M  V30 33774 C 3294.62 -2.7791 4.55633 0
M  V30 33775 O 3294.85 -3.94075 4.12385 0
M  V30 33776 O 3293.78 -2.53482 5.45922 0
M  V30 33777 H 3297.61 -0.299261 3.02222 0
M  V30 33778 H 3295.19 -0.0816789 1.49177 0
M  V30 33779 H 3297.07 -2.74586 3.19656 0
M  V30 33780 H 3295.75 -2.52897 2.02051 0
M  V30 33781 H 3294.66 -0.869969 3.63844 0
M  V30 33782 H 3295.99 -1.16375 4.78244 0
M  V30 33783 N 3297.64 -1.57075 -0.128525 0
M  V30 33784 C 3298.89 -1.83984 -0.836323 0
M  V30 33785 C 3299.21 -0.729003 -1.80861 0
M  V30 33786 O 3298.48 0.247825 -1.94326 0
M  V30 33787 H 3297.06 -0.678797 -0.311838 0
M  V30 33788 H 3299.72 -1.94542 -0.118119 0
M  V30 33789 H 3298.82 -2.79569 -1.38736 0
M  V30 33790 N 3299.12 0.398432 -1.5248 0
M  V30 33791 C 3300.37 1.14152 -1.66289 0
M  V30 33792 C 3300.68 1.91376 -0.404323 0
M  V30 33793 O 3301.89 2.68194 -0.422389 0
M  V30 33794 C 3300.34 2.0782 -2.93835 0
M  V30 33795 C 3299.95 1.36063 -4.26838 0
M  V30 33796 C 3301.7 2.82322 -3.17009 0
M  V30 33797 C 3299.6 2.28441 -5.45499 0
M  V30 33798 H 3298.53 0.42983 -0.619486 0
M  V30 33799 H 3301.18 0.405081 -1.78973 0
M  V30 33800 H 3299.57 2.85061 -2.74875 0
M  V30 33801 H 3300.74 0.641125 -4.56318 0
M  V30 33802 H 3299.05 0.735587 -4.09851 0
M  V30 33803 H 3301.65 3.51602 -4.02841 0
M  V30 33804 H 3301.99 3.45872 -2.31686 0
M  V30 33805 H 3302.53 2.12177 -3.36491 0
M  V30 33806 H 3299.27 1.69521 -6.33201 0
M  V30 33807 H 3298.79 2.98334 -5.20343 0
M  V30 33808 H 3300.47 2.88733 -5.79001 0
M  V30 33809 N 3300.6 1.43284 0.656314 0
M  V30 33810 C 3301.84 1.44951 1.41834 0
M  V30 33811 C 3302.18 0.0723553 1.94065 0
M  V30 33812 O 3301.45 -0.906316 1.72093 0
M  V30 33813 C 3301.73 2.48932 2.60202 0
M  V30 33814 C 3301.59 3.9591 2.13483 0
M  V30 33815 C 3302.91 2.49684 3.62416 0
M  V30 33816 H 3300.03 0.527801 0.514388 0
M  V30 33817 H 3302.67 1.74814 0.744319 0
M  V30 33818 H 3300.82 2.23598 3.17705 0
M  V30 33819 H 3302.49 4.32291 1.61005 0
M  V30 33820 H 3300.73 4.0889 1.44883 0
M  V30 33821 H 3301.4 4.64273 2.98587 0
M  V30 33822 H 3303.88 2.72257 3.14667 0
M  V30 33823 H 3302.76 3.24386 4.42792 0
M  V30 33824 H 3303.02 1.52951 4.14799 0
M  V30 33825 N 3302.08 -0.894389 1.29763 0
M  V30 33826 C 3303.3 -1.6787 1.20943 0
M  V30 33827 C 3303.72 -1.87404 -0.22916 0
M  V30 33828 O 3303.08 -1.41484 -1.15276 0
M  V30 33829 C 3303.13 -3.06028 1.92429 0
M  V30 33830 O 3302.85 -2.87383 3.3067 0
M  V30 33831 C 3304.35 -4.00447 1.90151 0
M  V30 33832 H 3301.57 -0.524138 0.418951 0
M  V30 33833 H 3304.11 -1.1181 1.71228 0
M  V30 33834 H 3302.27 -3.58849 1.45967 0
M  V30 33835 H 3302.68 -3.74962 3.66747 0
M  V30 33836 H 3304.16 -4.94787 2.44724 0
M  V30 33837 H 3304.63 -4.30329 0.87825 0
M  V30 33838 H 3305.24 -3.53559 2.36381 0
M  V30 33839 N 3303.55 -1.12326 -1.10547 0
M  V30 33840 C 3304.96 -0.892431 -1.6399 0
M  V30 33841 C 3305.32 0.573473 -1.87632 0
M  V30 33842 O 3304.44 1.43765 -1.61743 0
M  V30 33843 C 3305.04 -1.61352 -2.97911 0
M  V30 33844 C 3303.59 -1.42887 -3.48225 0
M  V30 33845 C 3302.74 -1.65019 -2.22854 0
M  V30 33846 H 3305.69 -1.2782 -0.940628 0
M  V30 33847 H 3305.71 -1.06389 -3.65324 0
M  V30 33848 H 3305.23 -2.68039 -2.80672 0
M  V30 33849 H 3303.33 -0.384506 -3.70611 0
M  V30 33850 H 3303.44 -2.1842 -4.26415 0
M  V30 33851 H 3301.8 -1.07421 -2.30939 0
M  V30 33852 H 3302.59 -2.73001 -2.08148 0
M  V30 33853 N 3305.03 1.28319 -0.914988 0
M  V30 33854 C 3306.45 1.47345 -0.613323 0
M  V30 33855 C 3306.65 1.83109 0.841028 0
M  V30 33856 O 3305.7 1.9368 1.62 0
M  V30 33857 C 3307.02 2.57536 -1.55228 0
M  V30 33858 C 3308.56 2.71404 -1.55913 0
M  V30 33859 C 3309.04 3.84739 -2.48475 0
M  V30 33860 N 3310.53 3.92095 -2.46609 0
M  V30 33861 C 3311.27 4.79176 -3.14925 0
M  V30 33862 N 3310.76 5.70838 -3.92576 0
M  V30 33863 N 3312.55 4.72797 -3.04006 0
M  V30 33864 H 3304.71 1.03385 -1.85541 0
M  V30 33865 H 3306.97 0.515047 -0.795884 0
M  V30 33866 H 3306.67 2.38019 -2.58921 0
M  V30 33867 H 3306.55 3.54662 -1.28432 0
M  V30 33868 H 3308.94 2.90309 -0.529581 0
M  V30 33869 H 3309.02 1.74805 -1.86754 0
M  V30 33870 H 3308.66 3.66589 -3.51533 0
M  V30 33871 H 3308.59 4.80739 -2.14936 0
M  V30 33872 H 3311.08 3.26544 -1.90204 0
M  V30 33873 H 3311.39 6.34116 -4.41721 0
M  V30 33874 H 3309.74 5.70674 -3.96681 0
M  V30 33875 H 3312.93 4.00179 -2.42846 0
M  V30 33876 H 3313.1 5.40447 -3.5752 0
M  V30 33877 N 3306.51 0.679102 1.42218 0
M  V30 33878 C 3307.76 0.202753 2.0108 0
M  V30 33879 C 3308.08 -1.19636 1.53988 0
M  V30 33880 O 3307.35 -1.80414 0.763391 0
M  V30 33881 H 3305.93 0.0719678 0.743525 0
M  V30 33882 H 3308.59 0.876574 1.74075 0
M  V30 33883 H 3307.69 0.207369 3.1141 0
M  V30 33884 N 3307.99 -1.51825 0.42272 0
M  V30 33885 C 3308.92 -2.30273 -0.386872 0
M  V30 33886 C 3309.9 -1.35058 -1.03409 0
M  V30 33887 O 3311.08 -1.63972 -1.04052 0
M  V30 33888 C 3308.21 -3.13409 -1.4964 0
M  V30 33889 C 3307.17 -4.16783 -0.973458 0
M  V30 33890 C 3306.49 -4.88348 -2.17762 0
M  V30 33891 C 3307.79 -5.22297 -0.0180276 0
M  V30 33892 H 3309.49 -2.982 0.26775 0
M  V30 33893 H 3307.03 -1.4341 0.130212 0
M  V30 33894 H 3308.99 -3.67062 -2.06986 0
M  V30 33895 H 3307.71 -2.43276 -2.1791 0
M  V30 33896 H 3306.37 -3.64159 -0.422306 0
M  V30 33897 H 3306.02 -4.14731 -2.84617 0
M  V30 33898 H 3305.72 -5.5824 -1.83417 0
M  V30 33899 H 3307.24 -5.44819 -2.75689 0
M  V30 33900 H 3308.66 -5.71109 -0.500721 0
M  V30 33901 H 3307.05 -5.99631 0.237268 0
M  V30 33902 H 3308.12 -4.76031 0.923149 0
M  V30 33903 N 3309.47 -0.153581 -1.5685 0
M  V30 33904 C 3310.43 0.769526 -2.15896 0
M  V30 33905 C 3311.43 1.17062 -1.10241 0
M  V30 33906 O 3312.62 1.09047 -1.35847 0
M  V30 33907 C 3309.75 2.04511 -2.72742 0
M  V30 33908 H 3310.94 0.255789 -2.98807 0
M  V30 33909 H 3308.5 0.0959005 -1.56006 0
M  V30 33910 H 3309.23 2.60236 -1.93515 0
M  V30 33911 H 3309.02 1.76666 -3.50045 0
M  V30 33912 H 3310.51 2.70427 -3.18213 0
M  V30 33913 N 3310.94 1.57141 0.120193 0
M  V30 33914 C 3312.19 1.85064 0.829417 0
M  V30 33915 C 3312.52 0.739147 1.79584 0
M  V30 33916 O 3311.8 -0.255113 1.9282 0
M  V30 33917 C 3312.08 3.23568 1.58037 0
M  V30 33918 C 3311.93 4.45315 0.633628 0
M  V30 33919 C 3313.25 3.5963 2.53682 0
M  V30 33920 H 3310.37 0.673145 0.300075 0
M  V30 33921 H 3313.01 1.89769 0.0937059 0
M  V30 33922 H 3311.16 3.19688 2.20753 0
M  V30 33923 H 3312.84 4.61297 0.0154025 0
M  V30 33924 H 3311.08 4.33765 -0.0549222 0
M  V30 33925 H 3311.75 5.38895 1.19568 0
M  V30 33926 H 3314.23 3.64293 2.01071 0
M  V30 33927 H 3313.1 4.57522 3.03257 0
M  V30 33928 H 3313.36 2.86986 3.36291 0
M  V30 33929 N 3312.42 -0.39034 1.5269 0
M  V30 33930 C 3313.7 -1.14965 1.58248 0
M  V30 33931 C 3314.08 -2.07745 0.374844 0
M  V30 33932 O 3313.43 -2.19443 -0.636931 0
M  V30 33933 C 3313.64 -1.91051 2.92063 0
M  V30 33934 C 3314.99 -2.4646 3.4575 0
M  V30 33935 O 3316.01 -2.01209 2.93928 0
M  V30 33936 O 3314.87 -3.29115 4.36286 0
M  V30 33937 H 3311.96 -0.525959 0.638198 0
M  V30 33938 H 3314.51 -0.395601 1.65025 0
M  V30 33939 H 3313.28 -1.23195 3.71401 0
M  V30 33940 H 3312.9 -2.7342 2.88665 0
M  V30 33941 N 3313.9 -1.4363 -0.648706 0
M  V30 33942 C 3315.32 -1.2713 -0.964894 0
M  V30 33943 C 3315.52 -0.194286 -2.00561 0
M  V30 33944 O 3314.57 0.425767 -2.48884 0
M  V30 33945 C 3315.89 -2.63712 -1.44487 0
M  V30 33946 C 3317.43 -2.7128 -1.56128 0
M  V30 33947 C 3317.91 -4.08291 -2.07514 0
M  V30 33948 N 3319.4 -4.10379 -2.1481 0
M  V30 33949 C 3320.13 -5.13229 -2.55703 0
M  V30 33950 N 3319.63 -6.2645 -2.95859 0
M  V30 33951 N 3321.42 -5.00583 -2.55682 0
M  V30 33952 H 3313.57 -2.12363 0.039873 0
M  V30 33953 H 3315.84 -0.946943 -0.0447539 0
M  V30 33954 H 3315.54 -3.4351 -0.754556 0
M  V30 33955 H 3315.42 -2.89413 -2.41908 0
M  V30 33956 H 3317.8 -1.91812 -2.24259 0
M  V30 33957 H 3317.89 -2.49339 -0.57127 0
M  V30 33958 H 3317.53 -4.88229 -1.39983 0
M  V30 33959 H 3317.46 -4.27599 -3.07354 0
M  V30 33960 H 3319.95 -3.28655 -1.86532 0
M  V30 33961 H 3320.26 -7.00755 -3.25825 0
M  V30 33962 H 3318.61 -6.29915 -2.93653 0
M  V30 33963 H 3321.8 -4.11194 -2.2369 0
M  V30 33964 H 3321.97 -5.80864 -2.87229 0
M  V30 33965 N 3315.38 0.887495 -1.30236 0
M  V30 33966 C 3316.6 1.67753 -1.21958 0
M  V30 33967 C 3317.03 1.86871 0.214668 0
M  V30 33968 O 3316.39 1.39784 1.15456 0
M  V30 33969 C 3316.43 3.03273 -1.95085 0
M  V30 33970 O 3315.54 3.92156 -1.27622 0
M  V30 33971 H 3314.88 0.512687 -0.421957 0
M  V30 33972 H 3317.41 1.10782 -1.72013 0
M  V30 33973 H 3317.42 3.53333 -2.0401 0
M  V30 33974 H 3316.09 2.88676 -2.99397 0
M  V30 33975 H 3314.67 3.50595 -1.27035 0
M  V30 33976 N 3316.86 1.12911 1.0995 0
M  V30 33977 C 3318.13 0.798799 1.78546 0
M  V30 33978 C 3318.51 -0.710589 1.98781 0
M  V30 33979 O 3317.86 -1.64602 1.58488 0
M  V30 33980 C 3318.07 1.57959 3.11207 0
M  V30 33981 C 3319.42 1.76881 3.86003 0
M  V30 33982 O 3320.44 1.54512 3.20943 0
M  V30 33983 O 3319.3 2.14167 5.02787 0
M  V30 33984 H 3316.4 0.291085 0.774079 0
M  V30 33985 H 3318.94 1.23342 1.16554 0
M  V30 33986 H 3317.71 2.60562 2.9193 0
M  V30 33987 H 3317.34 1.13955 3.8092 0
M  V30 33988 N 3318.33 -1.27832 0.92178 0
M  V30 33989 C 3319.58 -1.94244 0.558008 0
M  V30 33990 C 3319.9 -1.7285 -0.90265 0
M  V30 33991 O 3319.17 -1.07282 -1.63913 0
M  V30 33992 H 3317.75 -0.718782 0.203377 0
M  V30 33993 H 3320.42 -1.55658 1.17289 0
M  V30 33994 H 3319.51 -3.02724 0.759256 0
M  V30 33995 N 3319.81 -0.686634 -1.41856 0
M  V30 33996 C 3321.04 -0.222274 -2.05401 0
M  V30 33997 C 3321.45 1.1302 -1.51733 0
M  V30 33998 O 3320.79 1.7156 -0.656731 0
M  V30 33999 C 3320.86 -0.092724 -3.5938 0
M  V30 34000 C 3320.52 -1.37581 -4.35799 0
M  V30 34001 C 3321.52 -2.31179 -4.65674 0
M  V30 34002 C 3319.2 -1.6267 -4.7523 0
M  V30 34003 C 3321.2 -3.48134 -5.3393 0
M  V30 34004 C 3318.88 -2.79912 -5.43224 0
M  V30 34005 C 3319.88 -3.72468 -5.72501 0
M  V30 34006 O 3319.57 -4.87658 -6.39097 0
M  V30 34007 H 3319.3 -0.102888 -0.668124 0
M  V30 34008 H 3321.85 -0.937172 -1.82774 0
M  V30 34009 H 3320.08 0.677863 -3.80712 0
M  V30 34010 H 3321.77 0.333293 -4.04529 0
M  V30 34011 H 3322.54 -2.1305 -4.357 0
M  V30 34012 H 3318.42 -0.914941 -4.51829 0
M  V30 34013 H 3321.96 -4.20396 -5.56698 0
M  V30 34014 H 3317.86 -2.97961 -5.72616 0
M  V30 34015 H 3318.63 -4.87356 -6.57591 0
M  V30 34016 N 3321.29 1.51599 -0.430766 0
M  V30 34017 C 3322.54 2.02329 0.138098 0
M  V30 34018 C 3322.87 1.31469 1.42932 0
M  V30 34019 O 3322.14 0.427584 1.89742 0
M  V30 34020 C 3322.43 3.58259 0.363614 0
M  V30 34021 C 3322.28 4.39744 -0.945797 0
M  V30 34022 C 3323.6 4.25178 1.13629 0
M  V30 34023 H 3320.72 0.735388 0.0487158 0
M  V30 34024 H 3323.36 1.81296 -0.568476 0
M  V30 34025 H 3321.51 3.76312 0.965486 0
M  V30 34026 H 3323.18 4.33356 -1.58114 0
M  V30 34027 H 3321.43 4.05091 -1.5519 0
M  V30 34028 H 3322.1 5.46989 -0.742127 0
M  V30 34029 H 3324.57 4.11356 0.626536 0
M  V30 34030 H 3323.45 5.34175 1.26285 0
M  V30 34031 H 3323.71 3.85592 2.16266 0
M  V30 34032 N 3322.77 0.161897 1.56766 0
M  V30 34033 C 3324 -0.491278 2.00674 0
M  V30 34034 C 3324.41 -1.57978 1.04114 0
M  V30 34035 O 3323.75 -1.83671 0.0325212 0
M  V30 34036 C 3323.81 -1.138 3.41013 0
M  V30 34037 C 3323.48 -0.192304 4.56595 0
M  V30 34038 C 3324.47 0.585762 5.1659 0
M  V30 34039 C 3322.16 -0.0908711 5.02218 0
M  V30 34040 C 3324.15 1.45256 6.20628 0
M  V30 34041 C 3321.84 0.779516 6.06108 0
M  V30 34042 C 3322.84 1.54982 6.65184 0
M  V30 34043 O 3322.52 2.40568 7.67061 0
M  V30 34044 H 3322.26 -0.131047 0.663176 0
M  V30 34045 H 3324.81 0.257932 2.03774 0
M  V30 34046 H 3323.04 -1.93515 3.34797 0
M  V30 34047 H 3324.73 -1.69242 3.68934 0
M  V30 34048 H 3325.5 0.517517 4.82231 0
M  V30 34049 H 3321.37 -0.680211 4.55954 0
M  V30 34050 H 3324.92 2.05427 6.66667 0
M  V30 34051 H 3320.82 0.848999 6.39892 0
M  V30 34052 H 3321.58 2.3398 7.84344 0
M  V30 34053 N 3324.25 -1.57203 -0.111858 0
M  V30 34054 C 3325.49 -1.86377 -0.814567 0
M  V30 34055 C 3325.85 -0.750589 -1.77155 0
M  V30 34056 O 3325.14 0.248834 -1.89977 0
M  V30 34057 C 3325.33 -3.19766 -1.59638 0
M  V30 34058 C 3325.16 -4.43954 -0.716612 0
M  V30 34059 C 3323.93 -5.03953 -0.368721 0
M  V30 34060 C 3326.13 -5.14291 -0.0310412 0
M  V30 34061 N 3324.11 -6.11685 0.520969 0
M  V30 34062 C 3325.48 -6.15836 0.717369 0
M  V30 34063 C 3327.54 -4.9788 0.0446328 0
M  V30 34064 C 3326.24 -7.02745 1.53436 0
M  V30 34065 C 3328.27 -5.85282 0.848467 0
M  V30 34066 C 3327.63 -6.86335 1.58505 0
M  V30 34067 H 3323.73 -0.732137 -0.274773 0
M  V30 34068 H 3326.31 -1.94544 -0.0779286 0
M  V30 34069 H 3324.48 -3.12682 -2.30401 0
M  V30 34070 H 3326.22 -3.36723 -2.24498 0
M  V30 34071 H 3322.97 -4.68208 -0.712588 0
M  V30 34072 H 3323.4 -6.70189 0.957873 0
M  V30 34073 H 3328.04 -4.19707 -0.51049 0
M  V30 34074 H 3325.76 -7.8032 2.10061 0
M  V30 34075 H 3329.34 -5.74648 0.909473 0
M  V30 34076 H 3328.22 -7.52795 2.19704 0
M  V30 34077 N 3325.72 0.382237 -1.52894 0
M  V30 34078 C 3326.97 1.12827 -1.68517 0
M  V30 34079 C 3327.3 1.89442 -0.427245 0
M  V30 34080 O 3326.58 1.85802 0.575127 0
M  V30 34081 C 3326.86 2.10103 -2.92453 0
M  V30 34082 C 3326.71 1.37207 -4.28362 0
M  V30 34083 C 3328.03 3.10444 -3.1195 0
M  V30 34084 H 3325.15 0.4088 -0.613231 0
M  V30 34085 H 3327.79 0.410889 -1.85504 0
M  V30 34086 H 3325.94 2.71278 -2.78101 0
M  V30 34087 H 3327.62 0.789436 -4.54495 0
M  V30 34088 H 3325.86 0.673898 -4.28534 0
M  V30 34089 H 3326.53 2.08321 -5.11181 0
M  V30 34090 H 3329.01 2.59363 -3.25377 0
M  V30 34091 H 3327.88 3.75747 -4.00132 0
M  V30 34092 H 3328.14 3.79688 -2.26471 0
M  V30 34093 N 3327.2 1.43972 0.64108 0
M  V30 34094 C 3328.48 1.36707 1.39895 0
M  V30 34095 C 3328.86 0.0208422 2.1109 0
M  V30 34096 O 3328.21 -0.996214 2.0564 0
M  V30 34097 C 3328.42 2.55853 2.37361 0
M  V30 34098 C 3329.77 2.99479 3.00995 0
M  V30 34099 O 3330.79 2.55987 2.47688 0
M  V30 34100 O 3329.65 3.74858 3.97673 0
M  V30 34101 H 3326.74 0.540866 0.625614 0
M  V30 34102 H 3329.29 1.56044 0.66697 0
M  V30 34103 H 3328.06 3.45455 1.83784 0
M  V30 34104 H 3327.68 2.38678 3.17991 0
M  V30 34105 N 3328.68 -0.880575 1.30704 0
M  V30 34106 C 3329.96 -1.61443 1.10433 0
M  V30 34107 C 3330.34 -2.08265 -0.344801 0
M  V30 34108 O 3329.69 -1.85296 -1.33708 0
M  V30 34109 C 3329.9 -2.78059 2.10913 0
M  V30 34110 C 3331.24 -3.48283 2.42867 0
M  V30 34111 O 3332.27 -2.88253 2.09257 0
M  V30 34112 O 3331.13 -4.56548 3.00377 0
M  V30 34113 H 3328.22 -0.70978 0.424431 0
M  V30 34114 H 3330.77 -0.926966 1.42146 0
M  V30 34115 H 3329.54 -2.40798 3.08435 0
M  V30 34116 H 3329.16 -3.545 1.80043 0
M  V30 34117 N 3330.16 -1.13492 -1.09349 0
M  V30 34118 C 3331.38 -0.920722 -1.85843 0
M  V30 34119 C 3331.81 0.525271 -1.80617 0
M  V30 34120 O 3331.17 1.3728 -1.18422 0
M  V30 34121 C 3331.22 -1.41415 -3.31714 0
M  V30 34122 O 3330.32 -0.59991 -4.08013 0
M  V30 34123 H 3329.66 -0.32992 -0.576237 0
M  V30 34124 H 3332.19 -1.50979 -1.38082 0
M  V30 34125 H 3332.2 -1.41812 -3.82562 0
M  V30 34126 H 3330.88 -2.46698 -3.34833 0
M  V30 34127 H 3329.45 -0.663881 -3.66943 0
M  V30 34128 N 3331.64 1.27341 -0.928546 0
M  V30 34129 C 3332.57 2.29207 -0.445668 0
M  V30 34130 C 3333.55 1.62754 0.49448 0
M  V30 34131 O 3334.73 1.90056 0.399049 0
M  V30 34132 C 3331.86 3.45988 0.301624 0
M  V30 34133 C 3330.82 4.24441 -0.550769 0
M  V30 34134 C 3330.14 5.33707 0.325739 0
M  V30 34135 C 3331.44 4.89725 -1.81567 0
M  V30 34136 H 3333.14 2.69848 -1.29701 0
M  V30 34137 H 3330.68 1.29724 -0.625108 0
M  V30 34138 H 3332.64 4.16351 0.650382 0
M  V30 34139 H 3331.36 3.04266 1.18699 0
M  V30 34140 H 3330.02 3.55826 -0.882247 0
M  V30 34141 H 3329.67 4.88227 1.21009 0
M  V30 34142 H 3329.37 5.87105 -0.241097 0
M  V30 34143 H 3330.89 6.06912 0.67005 0
M  V30 34144 H 3332.31 5.5237 -1.53493 0
M  V30 34145 H 3330.7 5.53185 -2.32607 0
M  V30 34146 H 3331.77 4.13378 -2.53469 0
M  V30 34147 N 3333.12 0.694147 1.4149 0
M  V30 34148 C 3334.39 0.152606 1.95004 0
M  V30 34149 C 3334.77 -1.33705 1.63359 0
M  V30 34150 O 3334.12 -2.08276 0.939852 0
M  V30 34151 C 3334.33 0.442381 3.46185 0
M  V30 34152 C 3335.68 0.369353 4.2299 0
M  V30 34153 O 3336.7 0.377215 3.54197 0
M  V30 34154 O 3335.56 0.328241 5.45513 0
M  V30 34155 H 3332.66 0.0141399 0.826879 0
M  V30 34156 H 3335.2 0.77021 1.51215 0
M  V30 34157 H 3333.97 1.47355 3.62495 0
M  V30 34158 H 3333.6 -0.206267 3.97065 0
M  V30 34159 N 3334.59 -1.51368 0.438799 0
M  V30 34160 C 3335.84 -2.01289 -0.128688 0
M  V30 34161 C 3336.16 -1.32748 -1.43657 0
M  V30 34162 O 3337.36 -1.73646 -2.08709 0
M  V30 34163 C 3335.82 -3.5881 -0.279881 0
M  V30 34164 C 3335.43 -4.36289 1.01765 0
M  V30 34165 C 3337.17 -4.16873 -0.80106 0
M  V30 34166 C 3335.08 -5.85518 0.832021 0
M  V30 34167 H 3334.01 -0.752214 -0.0518682 0
M  V30 34168 H 3336.66 -1.74462 0.568784 0
M  V30 34169 H 3335.04 -3.82089 -1.04039 0
M  V30 34170 H 3336.21 -4.24755 1.78661 0
M  V30 34171 H 3334.53 -3.89685 1.46747 0
M  V30 34172 H 3337.13 -5.26076 -0.956456 0
M  V30 34173 H 3337.47 -3.76142 -1.78389 0
M  V30 34174 H 3338 -3.97677 -0.0988234 0
M  V30 34175 H 3334.74 -6.30664 1.78728 0
M  V30 34176 H 3334.26 -5.99712 0.10289 0
M  V30 34177 H 3335.94 -6.45174 0.485795 0
M  V30 34178 N 3336.07 -0.170208 -1.56678 0
M  V30 34179 C 3337.32 0.475113 -1.96024 0
M  V30 34180 C 3337.63 1.64464 -1.05882 0
M  V30 34181 O 3338.84 2.35612 -1.34905 0
M  V30 34182 C 3337.3 0.896643 -3.48552 0
M  V30 34183 C 3336.9 -0.247221 -4.47317 0
M  V30 34184 C 3338.65 1.51045 -3.96719 0
M  V30 34185 C 3336.55 0.193878 -5.91082 0
M  V30 34186 H 3335.48 0.18127 -0.731886 0
M  V30 34187 H 3338.14 -0.258262 -1.81673 0
M  V30 34188 H 3336.52 1.68596 -3.58317 0
M  V30 34189 H 3337.69 -1.02453 -4.49266 0
M  V30 34190 H 3336.01 -0.77091 -4.09202 0
M  V30 34191 H 3338.6 1.85249 -5.01584 0
M  V30 34192 H 3338.95 2.40796 -3.39593 0
M  V30 34193 H 3339.48 0.785584 -3.89966 0
M  V30 34194 H 3336.22 -0.668829 -6.52079 0
M  V30 34195 H 3335.74 0.936571 -5.92443 0
M  V30 34196 H 3337.42 0.638124 -6.43845 0
M  V30 34197 N 3337.55 1.5726 0.10352 0
M  V30 34198 C 3338.51 2.00509 1.11036 0
M  V30 34199 C 3339.51 0.897384 1.3343 0
M  V30 34200 O 3340.7 1.16307 1.29686 0
M  V30 34201 C 3337.83 2.35856 2.4614 0
M  V30 34202 H 3339.03 2.90671 0.738281 0
M  V30 34203 H 3336.58 1.5237 0.348308 0
M  V30 34204 H 3337.32 1.48622 2.8824 0
M  V30 34205 H 3337.1 3.16658 2.31236 0
M  V30 34206 H 3338.59 2.70003 3.18572 0
M  V30 34207 N 3339.03 -0.374123 1.53095 0
M  V30 34208 C 3340.44 -0.715221 1.42677 0
M  V30 34209 C 3340.64 -1.9359 0.559026 0
M  V30 34210 O 3339.7 -2.52471 0.0381772 0
M  V30 34211 C 3341.01 -0.936409 2.85748 0
M  V30 34212 C 3342.56 -1.03695 2.95324 0
M  V30 34213 C 3343.04 -1.29067 4.39438 0
M  V30 34214 N 3344.53 -1.35856 4.42829 0
M  V30 34215 C 3345.26 -1.57181 5.51436 0
M  V30 34216 N 3344.76 -1.75879 6.70103 0
M  V30 34217 N 3346.55 -1.59482 5.39001 0
M  V30 34218 H 3338.7 0.428891 2.08025 0
M  V30 34219 H 3340.96 0.129774 0.939075 0
M  V30 34220 H 3340.67 -0.111386 3.51524 0
M  V30 34221 H 3340.54 -1.84692 3.2889 0
M  V30 34222 H 3342.93 -1.85253 2.29707 0
M  V30 34223 H 3343.01 -0.104021 2.55588 0
M  V30 34224 H 3342.66 -0.480142 5.05625 0
M  V30 34225 H 3342.59 -2.23669 4.76739 0
M  V30 34226 H 3345.08 -1.23055 3.57304 0
M  V30 34227 H 3345.39 -1.917 7.48646 0
M  V30 34228 H 3343.74 -1.73074 6.73105 0
M  V30 34229 H 3346.93 -1.44436 4.45259 0
M  V30 34230 H 3347.1 -1.7576 6.23708 0
M  V30 34231 N 3340.51 -1.4431 -0.633436 0
M  V30 34232 C 3341.75 -1.46252 -1.389 0
M  V30 34233 C 3342.07 -0.0981042 -1.95354 0
M  V30 34234 O 3343.27 0.00495058 -2.715 0
M  V30 34235 C 3341.73 -2.57467 -2.51473 0
M  V30 34236 C 3341.34 -4.00106 -2.01542 0
M  V30 34237 C 3343.08 -2.68628 -3.28693 0
M  V30 34238 C 3340.99 -5.0275 -3.11443 0
M  V30 34239 H 3339.92 -0.544121 -0.521966 0
M  V30 34240 H 3342.57 -1.70368 -0.681695 0
M  V30 34241 H 3340.95 -2.26588 -3.24767 0
M  V30 34242 H 3342.13 -4.40542 -1.35127 0
M  V30 34243 H 3340.44 -3.93168 -1.37143 0
M  V30 34244 H 3343.04 -3.42487 -4.10618 0
M  V30 34245 H 3343.38 -1.74367 -3.78024 0
M  V30 34246 H 3343.91 -2.98906 -2.62489 0
M  V30 34247 H 3340.65 -5.98631 -2.67059 0
M  V30 34248 H 3340.17 -4.66908 -3.76506 0
M  V30 34249 H 3341.85 -5.26346 -3.76256 0
M  V30 34250 N 3341.98 0.873632 -1.3117 0
M  V30 34251 C 3343.4 1.15878 -1.09747 0
M  V30 34252 C 3343.6 2.01051 0.134436 0
M  V30 34253 O 3342.66 2.38648 0.824815 0
M  V30 34254 C 3343.97 1.85446 -2.36707 0
M  V30 34255 C 3345.52 1.98163 -2.42282 0
M  V30 34256 C 3345.99 2.71145 -3.69113 0
M  V30 34257 N 3347.48 2.78684 -3.69986 0
M  V30 34258 C 3348.22 3.35757 -4.64817 0
M  V30 34259 N 3347.71 3.9379 -5.70001 0
M  V30 34260 N 3349.51 3.3368 -4.52343 0
M  V30 34261 H 3341.66 0.305984 -2.10184 0
M  V30 34262 H 3343.92 0.198142 -0.927062 0
M  V30 34263 H 3343.63 1.3031 -3.26668 0
M  V30 34264 H 3343.5 2.85751 -2.46224 0
M  V30 34265 H 3345.89 2.52465 -1.52792 0
M  V30 34266 H 3345.97 0.969122 -2.36731 0
M  V30 34267 H 3345.61 2.17512 -4.58967 0
M  V30 34268 H 3345.54 3.72796 -3.71928 0
M  V30 34269 H 3348.03 2.37493 -2.93948 0
M  V30 34270 H 3348.35 4.35439 -6.38446 0
M  V30 34271 H 3346.69 3.92176 -5.7378 0
M  V30 34272 H 3349.88 2.87578 -3.69346 0
M  V30 34273 H 3350.06 3.77861 -5.26426 0
M  V30 34274 N 3343.46 1.1407 1.08746 0
M  V30 34275 C 3344.71 0.901383 1.80438 0
M  V30 34276 C 3345.02 -0.573758 1.86996 0
M  V30 34277 O 3346.23 -0.93023 2.55067 0
M  V30 34278 C 3344.69 1.56314 3.24182 0
M  V30 34279 C 3344.29 3.0743 3.2587 0
M  V30 34280 C 3346.04 1.4048 4.00582 0
M  V30 34281 C 3343.95 3.66458 4.6418 0
M  V30 34282 H 3342.88 0.333581 0.676195 0
M  V30 34283 H 3345.53 1.36922 1.22166 0
M  V30 34284 H 3343.91 1.02297 3.82559 0
M  V30 34285 H 3345.08 3.68085 2.77219 0
M  V30 34286 H 3343.4 3.22861 2.62963 0
M  V30 34287 H 3345.99 1.81985 5.02778 0
M  V30 34288 H 3346.34 0.350481 4.14822 0
M  V30 34289 H 3346.87 1.91514 3.48665 0
M  V30 34290 H 3343.61 4.71727 4.55142 0
M  V30 34291 H 3343.13 3.10583 5.13126 0
M  V30 34292 H 3344.81 3.66545 5.33154 0
M  V30 34293 N 3344.94 -1.26847 0.935286 0
M  V30 34294 C 3345.89 -2.28573 0.430936 0
M  V30 34295 C 3346.88 -1.62197 -0.48871 0
M  V30 34296 O 3348.09 -1.76207 -0.367574 0
M  V30 34297 H 3344.46 -0.742233 0.120806 0
M  V30 34298 H 3346.43 -2.68519 1.30155 0
M  V30 34299 C 3345.18 -3.46455 -0.293992 0
M  V30 34300 H 3344.51 -3.97749 0.404486 0
M  V30 34301 H 3345.95 -4.19572 -0.611198 0
M  V30 34302 C 3344.41 -3.01181 -1.5097 0
M  V30 34303 O 3344.94 -3.05508 -2.60821 0
M  V30 34304 N 3343.14 -2.5659 -1.36419 0
M  V30 34305 H 3342.69 -2.53268 -0.470439 0
M  V30 34306 H 3342.65 -2.2666 -2.17882 0
M  V30 34307 N 3346.42 -0.701641 -1.4112 0
M  V30 34308 C 3347.67 -0.234717 -2.00732 0
M  V30 34309 C 3347.99 1.17171 -1.55872 0
M  V30 34310 O 3347.26 1.79177 -0.791997 0
M  V30 34311 H 3345.84 -0.0837875 -0.742286 0
M  V30 34312 H 3348.5 -0.904157 -1.72659 0
M  V30 34313 H 3347.6 -0.256885 -3.11041 0
M  V30 34314 N 3347.9 1.51133 -0.446821 0
M  V30 34315 C 3348.81 2.31731 0.365749 0
M  V30 34316 C 3349.82 1.41052 1.01883 0
M  V30 34317 O 3351 1.7412 1.01213 0
M  V30 34318 C 3348.06 3.1506 1.447 0
M  V30 34319 C 3347.12 4.2153 0.813055 0
M  V30 34320 C 3346.36 5.00876 1.84278 0
M  V30 34321 O 3346.58 4.80976 3.06625 0
M  V30 34322 O 3345.51 5.84714 1.42805 0
M  V30 34323 H 3349.34 3.02288 -0.29249 0
M  V30 34324 H 3346.93 1.47929 -0.209155 0
M  V30 34325 H 3348.81 3.66836 2.07386 0
M  V30 34326 H 3347.48 2.47258 2.08915 0
M  V30 34327 H 3346.39 3.73808 0.147887 0
M  V30 34328 H 3347.72 4.91733 0.214245 0
M  V30 34329 N 3349.37 0.178515 1.56586 0
M  V30 34330 C 3350.32 -0.765783 2.19633 0
M  V30 34331 C 3351.32 -1.23217 1.1625 0
M  V30 34332 O 3352.52 -1.19699 1.34433 0
M  V30 34333 H 3348.9 -0.265252 0.703666 0
M  V30 34334 H 3350.87 -0.210154 2.97659 0
M  V30 34335 C 3349.62 -1.98183 2.8569 0
M  V30 34336 H 3348.94 -1.632 3.64974 0
M  V30 34337 H 3350.38 -2.62128 3.33264 0
M  V30 34338 C 3348.84 -2.81006 1.85842 0
M  V30 34339 O 3349.37 -3.78394 1.34837 0
M  V30 34340 N 3347.58 -2.46164 1.54439 0
M  V30 34341 H 3347.12 -1.67029 1.9611 0
M  V30 34342 H 3347.08 -3.01867 0.878861 0
M  V30 34343 N 3350.85 -1.57312 -0.0951784 0
M  V30 34344 C 3352.08 -1.90668 -0.816107 0
M  V30 34345 C 3352.5 -0.772776 -1.71493 0
M  V30 34346 O 3351.86 0.27565 -1.79192 0
M  V30 34347 C 3351.91 -3.22887 -1.60549 0
M  V30 34348 O 3351.01 -3.10471 -2.71443 0
M  V30 34349 H 3350.35 -0.625002 -0.224206 0
M  V30 34350 H 3352.88 -2.04479 -0.0704281 0
M  V30 34351 H 3352.89 -3.56193 -1.98973 0
M  V30 34352 H 3351.57 -4.05002 -0.945847 0
M  V30 34353 H 3350.15 -2.8868 -2.36048 0
M  V30 34354 N 3352.33 0.365999 -1.53291 0
M  V30 34355 C 3353.24 1.47218 -1.82658 0
M  V30 34356 C 3354.26 1.58634 -0.714938 0
M  V30 34357 O 3355.43 1.74536 -1.00495 0
M  V30 34358 C 3352.5 2.82489 -2.01 0
M  V30 34359 C 3351.56 2.80604 -3.249 0
M  V30 34360 C 3350.79 4.09423 -3.42357 0
M  V30 34361 O 3351.01 5.05566 -2.64119 0
M  V30 34362 O 3349.95 4.1526 -4.35709 0
M  V30 34363 H 3353.77 1.25325 -2.76636 0
M  V30 34364 H 3351.36 0.556059 -1.38666 0
M  V30 34365 H 3353.24 3.62641 -2.14638 0
M  V30 34366 H 3351.92 3.0436 -1.10212 0
M  V30 34367 H 3350.82 1.99152 -3.16685 0
M  V30 34368 H 3352.16 2.63687 -4.15608 0
M  V30 34369 N 3353.81 1.44644 0.625774 0
M  V30 34370 C 3355.05 1.47927 1.38728 0
M  V30 34371 C 3355.39 0.113503 1.93868 0
M  V30 34372 O 3354.66 -0.869609 1.73977 0
M  V30 34373 C 3354.95 2.54395 2.54863 0
M  V30 34374 C 3354.8 4.0035 2.05037 0
M  V30 34375 C 3356.12 2.57316 3.57039 0
M  V30 34376 H 3353.24 0.538593 0.503077 0
M  V30 34377 H 3355.88 1.76353 0.707071 0
M  V30 34378 H 3354.03 2.30287 3.1289 0
M  V30 34379 H 3355.7 4.35608 1.51799 0
M  V30 34380 H 3353.94 4.11872 1.36177 0
M  V30 34381 H 3354.61 4.70502 2.88672 0
M  V30 34382 H 3357.09 2.78871 3.08821 0
M  V30 34383 H 3355.97 3.33705 4.35812 0
M  V30 34384 H 3356.23 1.61715 4.11462 0
M  V30 34385 N 3355.29 -0.866663 1.31631 0
M  V30 34386 C 3356.54 -1.61477 1.20864 0
M  V30 34387 C 3356.85 -1.94229 -0.231174 0
M  V30 34388 O 3358.05 -2.67565 -0.460571 0
M  V30 34389 C 3356.51 -2.91119 2.11607 0
M  V30 34390 C 3356.12 -2.65837 3.60603 0
M  V30 34391 C 3357.86 -3.69118 2.09648 0
M  V30 34392 C 3355.77 -3.91408 4.43344 0
M  V30 34393 H 3354.7 -0.605888 0.448794 0
M  V30 34394 H 3357.35 -0.957973 1.56509 0
M  V30 34395 H 3355.73 -3.58191 1.68864 0
M  V30 34396 H 3356.91 -2.07152 4.11612 0
M  V30 34397 H 3355.22 -2.01188 3.64572 0
M  V30 34398 H 3357.82 -4.62276 2.68709 0
M  V30 34399 H 3358.16 -4.01927 1.08445 0
M  V30 34400 H 3358.69 -3.08934 2.50609 0
M  V30 34401 H 3355.43 -3.63746 5.45315 0
M  V30 34402 H 3354.95 -4.49532 3.97091 0
M  V30 34403 H 3356.63 -4.59262 4.55728 0
M  V30 34404 N 3356.77 -1.14645 -1.0814 0
M  V30 34405 C 3358.18 -0.887412 -1.32654 0
M  V30 34406 C 3358.38 0.469977 -1.95943 0
M  V30 34407 O 3357.44 1.21367 -2.21419 0
M  V30 34408 C 3358.75 -2.02223 -2.22545 0
M  V30 34409 C 3360.3 -2.05584 -2.36017 0
M  V30 34410 C 3360.77 -3.18367 -3.29252 0
M  V30 34411 N 3362.26 -3.17963 -3.36829 0
M  V30 34412 C 3363 -4.01869 -4.0901 0
M  V30 34413 N 3362.5 -4.95821 -4.83873 0
M  V30 34414 N 3364.29 -3.8992 -4.04869 0
M  V30 34415 H 3356.44 -2.02067 -0.654422 0
M  V30 34416 H 3358.7 -0.880654 -0.350932 0
M  V30 34417 H 3358.41 -3.00163 -1.8329 0
M  V30 34418 H 3358.28 -1.9477 -3.23024 0
M  V30 34419 H 3360.67 -1.0825 -2.74529 0
M  V30 34420 H 3360.75 -2.17107 -1.35271 0
M  V30 34421 H 3360.39 -4.15949 -2.9146 0
M  V30 34422 H 3360.32 -3.04081 -4.29933 0
M  V30 34423 H 3362.82 -2.49917 -2.8346 0
M  V30 34424 H 3363.13 -5.56303 -5.3642 0
M  V30 34425 H 3361.47 -4.99816 -4.82917 0
M  V30 34426 H 3364.66 -3.15839 -3.4549 0
M  V30 34427 H 3364.84 -4.55537 -4.60858 0
M  V30 34428 N 3358.24 1.26349 -0.942 0
M  V30 34429 C 3359.47 1.97516 -0.605903 0
M  V30 34430 C 3359.88 1.70336 0.823553 0
M  V30 34431 O 3359.22 0.96869 1.56084 0
M  V30 34432 C 3359.29 3.51173 -0.769263 0
M  V30 34433 C 3358.95 4.02005 -2.1735 0
M  V30 34434 C 3359.95 4.1368 -3.14905 0
M  V30 34435 C 3357.63 4.35993 -2.4943 0
M  V30 34436 C 3359.63 4.58638 -4.42639 0
M  V30 34437 C 3357.31 4.8064 -3.77397 0
M  V30 34438 C 3358.31 4.91924 -4.73815 0
M  V30 34439 O 3358 5.35586 -5.99503 0
M  V30 34440 H 3357.73 0.636703 -0.227125 0
M  V30 34441 H 3360.29 1.61804 -1.26525 0
M  V30 34442 H 3358.52 3.86664 -0.0527784 0
M  V30 34443 H 3360.2 4.0355 -0.436103 0
M  V30 34444 H 3360.97 3.87666 -2.91445 0
M  V30 34445 H 3356.85 4.26445 -1.75117 0
M  V30 34446 H 3360.39 4.6736 -5.179 0
M  V30 34447 H 3356.29 5.06098 -4.00669 0
M  V30 34448 H 3357.06 5.53804 -6.02696 0
M  V30 34449 N 3359.72 0.709115 1.40746 0
M  V30 34450 C 3360.97 0.245359 2.00605 0
M  V30 34451 C 3361.29 -1.16343 1.56491 0
M  V30 34452 O 3360.56 -1.78754 0.801488 0
M  V30 34453 H 3359.14 0.0877229 0.741831 0
M  V30 34454 H 3361.8 0.913301 1.72177 0
M  V30 34455 H 3360.9 0.273377 3.109 0
M  V30 34456 N 3361.2 -1.50894 0.454829 0
M  V30 34457 C 3362.42 -2.07128 -0.106222 0
M  V30 34458 C 3362.85 -1.31826 -1.34177 0
M  V30 34459 O 3362.21 -0.361179 -1.77666 0
M  V30 34460 C 3362.26 -3.5849 -0.389546 0
M  V30 34461 O 3361.36 -3.85198 -1.47298 0
M  V30 34462 H 3360.7 -0.663975 0.00581755 0
M  V30 34463 H 3363.23 -1.94293 0.641197 0
M  V30 34464 H 3363.24 -4.0303 -0.634863 0
M  V30 34465 H 3361.92 -4.12719 0.513411 0
M  V30 34466 H 3360.49 -3.52508 -1.21625 0
M  V30 34467 N 3362.68 -0.186817 -1.56489 0
M  V30 34468 C 3364.09 0.169149 -1.58701 0
M  V30 34469 C 3364.29 1.61669 -1.20273 0
M  V30 34470 O 3363.35 2.35081 -0.921581 0
M  V30 34471 C 3364.66 -0.12571 -3.00437 0
M  V30 34472 C 3366.21 -0.065155 -3.12932 0
M  V30 34473 C 3366.69 -0.333211 -4.56786 0
M  V30 34474 N 3368.18 -0.281534 -4.62344 0
M  V30 34475 C 3368.91 -0.462905 -5.71528 0
M  V30 34476 N 3368.41 -0.704176 -6.89212 0
M  V30 34477 N 3370.2 -0.397734 -5.60691 0
M  V30 34478 H 3362.35 -1.13151 -1.79752 0
M  V30 34479 H 3364.61 -0.451012 -0.833842 0
M  V30 34480 H 3364.32 -1.12907 -3.33084 0
M  V30 34481 H 3364.19 0.575546 -3.72783 0
M  V30 34482 H 3366.58 0.928796 -2.80102 0
M  V30 34483 H 3366.66 -0.799361 -2.42989 0
M  V30 34484 H 3366.31 -1.32444 -4.90327 0
M  V30 34485 H 3366.24 0.421787 -5.24908 0
M  V30 34486 H 3368.73 -0.101332 -3.77764 0
M  V30 34487 H 3369.04 -0.831603 -7.68313 0
M  V30 34488 H 3367.39 -0.740973 -6.91039 0
M  V30 34489 H 3370.58 -0.209722 -4.6763 0
M  V30 34490 H 3370.75 -0.542504 -6.45725 0
M  V30 34491 N 3364.16 1.57361 0.0868344 0
M  V30 34492 C 3365.39 1.90442 0.800971 0
M  V30 34493 C 3365.79 0.779543 1.72394 0
M  V30 34494 O 3365.14 -0.25694 1.81894 0
M  V30 34495 C 3365.2 3.18854 1.6605 0
M  V30 34496 C 3364.86 4.47879 0.908483 0
M  V30 34497 C 3365.86 5.19371 0.23453 0
M  V30 34498 C 3363.54 4.94529 0.880113 0
M  V30 34499 C 3365.54 6.35754 -0.457731 0
M  V30 34500 C 3363.23 6.10823 0.184071 0
M  V30 34501 C 3364.22 6.81285 -0.483665 0
M  V30 34502 O 3363.91 7.95362 -1.16853 0
M  V30 34503 H 3363.64 0.634288 0.233783 0
M  V30 34504 H 3366.2 2.05294 0.0659752 0
M  V30 34505 H 3364.43 3.0017 2.43793 0
M  V30 34506 H 3366.12 3.37701 2.25194 0
M  V30 34507 H 3366.88 4.84366 0.247852 0
M  V30 34508 H 3362.76 4.39567 1.3893 0
M  V30 34509 H 3366.31 6.90689 -0.979491 0
M  V30 34510 H 3362.2 6.4528 0.168623 0
M  V30 34511 H 3362.97 8.11393 -1.07626 0
M  V30 34512 N 3365.63 -0.357865 1.53483 0
M  V30 34513 C 3367.04 -0.934261 1.61643 0
M  V30 34514 C 3367.4 -1.90017 0.488688 0
M  V30 34515 O 3366.52 -2.1297 -0.383743 0
M  V30 34516 C 3367.12 -1.70124 2.9299 0
M  V30 34517 C 3365.67 -2.22687 3.03459 0
M  V30 34518 C 3364.82 -1.0416 2.56994 0
M  V30 34519 H 3367.77 -0.136424 1.58113 0
M  V30 34520 H 3367.79 -2.56305 2.81226 0
M  V30 34521 H 3367.31 -0.99799 3.75049 0
M  V30 34522 H 3365.41 -2.96231 2.26004 0
M  V30 34523 H 3365.52 -2.50039 4.08677 0
M  V30 34524 H 3363.88 -1.41084 2.12055 0
M  V30 34525 H 3364.67 -0.353212 3.41478 0
M  V30 34526 N 3367.11 -1.44974 -0.618094 0
M  V30 34527 C 3368.34 -1.51947 -1.40426 0
M  V30 34528 C 3368.75 -0.148589 -1.88214 0
M  V30 34529 O 3368.11 0.84795 -1.61605 0
M  V30 34530 C 3368.16 -2.49512 -2.61584 0
M  V30 34531 O 3367.88 -3.81272 -2.15785 0
M  V30 34532 C 3369.38 -2.6608 -3.54565 0
M  V30 34533 H 3366.6 -0.514928 -0.430221 0
M  V30 34534 H 3369.15 -1.90062 -0.754758 0
M  V30 34535 H 3367.3 -2.14498 -3.22598 0
M  V30 34536 H 3367.72 -4.34066 -2.94427 0
M  V30 34537 H 3369.19 -3.38346 -4.36149 0
M  V30 34538 H 3369.67 -1.71754 -4.04224 0
M  V30 34539 H 3370.27 -3.02048 -2.99411 0
M  V30 34540 N 3368.59 0.85967 -1.32089 0
M  V30 34541 C 3370 1.42936 -1.2011 0
M  V30 34542 C 3370.35 1.95294 0.188376 0
M  V30 34543 O 3369.48 1.8713 1.0868 0
M  V30 34544 C 3370.07 2.59817 -2.17441 0
M  V30 34545 C 3368.63 3.128 -2.09364 0
M  V30 34546 C 3367.78 1.85533 -2.06089 0
M  V30 34547 H 3370.73 0.667277 -1.4399 0
M  V30 34548 H 3370.75 3.36824 -1.77001 0
M  V30 34549 H 3370.26 2.21679 -3.18559 0
M  V30 34550 H 3368.36 3.55533 -1.11477 0
M  V30 34551 H 3368.48 3.74384 -2.98954 0
M  V30 34552 H 3366.84 2.04925 -1.51254 0
M  V30 34553 H 3367.62 1.49619 -3.0898 0
M  V30 34554 N 3370.07 1.15217 1.0753 0
M  V30 34555 C 3371.3 0.948343 1.83548 0
M  V30 34556 C 3371.71 -0.506669 1.8229 0
M  V30 34557 O 3371.05 -1.36312 1.23145 0
M  V30 34558 C 3371.11 1.38304 3.31832 0
M  V30 34559 C 3370.77 2.85541 3.56813 0
M  V30 34560 C 3371.77 3.83614 3.50908 0
M  V30 34561 C 3369.46 3.23166 3.84537 0
M  V30 34562 C 3371.45 5.17318 3.72372 0
M  V30 34563 C 3369.14 4.57043 4.05654 0
M  V30 34564 C 3370.14 5.53928 3.99566 0
M  V30 34565 O 3369.82 6.85386 4.2012 0
M  V30 34566 H 3369.56 0.337003 0.586008 0
M  V30 34567 H 3372.11 1.53346 1.36653 0
M  V30 34568 H 3370.34 0.741311 3.79528 0
M  V30 34569 H 3372.03 1.1486 3.8931 0
M  V30 34570 H 3372.79 3.55892 3.29493 0
M  V30 34571 H 3368.67 2.48342 3.88391 0
M  V30 34572 H 3372.22 5.92927 3.67537 0
M  V30 34573 H 3368.11 4.84481 4.26554 0
M  V30 34574 H 3368.88 6.91777 4.37478 0
M  V30 34575 N 3371.55 -1.25848 0.948687 0
M  V30 34576 C 3372.79 -1.93017 0.599084 0
M  V30 34577 C 3373.12 -1.74726 -0.865783 0
M  V30 34578 O 3372.39 -1.10734 -1.616 0
M  V30 34579 H 3370.97 -0.714306 0.218577 0
M  V30 34580 H 3373.63 -1.53135 1.20564 0
M  V30 34581 H 3372.72 -3.01045 0.823297 0
M  V30 34582 N 3373.02 -0.716569 -1.40368 0
M  V30 34583 C 3374.27 -0.253487 -2.00101 0
M  V30 34584 C 3374.59 1.16024 -1.57473 0
M  V30 34585 O 3375.79 1.72189 -2.09912 0
M  V30 34586 C 3374.25 -0.402276 -3.57645 0
M  V30 34587 C 3373.86 -1.82271 -4.09245 0
M  V30 34588 C 3375.6 -3.57638e-05 -4.245 0
M  V30 34589 C 3373.51 -1.92203 -5.59296 0
M  V30 34590 H 3372.44 -0.0910178 -0.748486 0
M  V30 34591 H 3375.09 -0.8878 -1.60594 0
M  V30 34592 H 3373.47 0.300637 -3.94857 0
M  V30 34593 H 3374.64 -2.55608 -3.83407 0
M  V30 34594 H 3372.96 -2.1765 -3.54989 0
M  V30 34595 H 3375.56 -0.0535142 -5.34673 0
M  V30 34596 H 3375.9 1.042 -4.03048 0
M  V30 34597 H 3376.43 -0.653429 -3.92397 0
M  V30 34598 H 3373.17 -2.94532 -5.85603 0
M  V30 34599 H 3372.69 -1.23279 -5.86994 0
M  V30 34600 H 3374.37 -1.69461 -6.24413 0
M  V30 34601 N 3374.5 1.50651 -0.462825 0
M  V30 34602 C 3375.73 2.06691 0.0929397 0
M  V30 34603 C 3376.15 1.32761 1.34239 0
M  V30 34604 O 3375.5 0.394459 1.78186 0
M  V30 34605 C 3375.55 3.59396 0.389429 0
M  V30 34606 O 3375.27 4.30538 -0.810454 0
M  V30 34607 C 3376.78 4.32034 0.993072 0
M  V30 34608 H 3374 0.670991 -0.00339843 0
M  V30 34609 H 3376.54 1.93921 -0.649235 0
M  V30 34610 H 3374.69 3.71997 1.08153 0
M  V30 34611 H 3375.11 5.21608 -0.550051 0
M  V30 34612 H 3376.58 5.39881 1.15035 0
M  V30 34613 H 3377.06 3.91987 1.98099 0
M  V30 34614 H 3377.67 4.23942 0.339603 0
M  V30 34615 N 3375.98 0.195113 1.56388 0
M  V30 34616 C 3377.23 -0.444309 1.97873 0
M  V30 34617 C 3377.56 -1.61269 1.08193 0
M  V30 34618 O 3376.83 -1.94038 0.133938 0
M  V30 34619 C 3377.12 -0.904429 3.48557 0
M  V30 34620 C 3376.97 0.265772 4.49014 0
M  V30 34621 C 3378.29 -1.76992 4.02941 0
M  V30 34622 H 3375.41 -0.160029 0.719416 0
M  V30 34623 H 3378.05 0.286038 1.87835 0
M  V30 34624 H 3376.2 -1.52676 3.57243 0
M  V30 34625 H 3377.87 0.903442 4.52367 0
M  V30 34626 H 3376.12 0.917536 4.23986 0
M  V30 34627 H 3376.79 -0.0986864 5.51912 0
M  V30 34628 H 3379.26 -1.24507 3.97036 0
M  V30 34629 H 3378.14 -2.06083 5.08745 0
M  V30 34630 H 3378.4 -2.72412 3.48202 0
M  V30 34631 N 3377.46 -1.57404 -0.0784879 0
M  V30 34632 C 3378.71 -1.86921 -0.778905 0
M  V30 34633 C 3379.03 -0.785937 -1.77914 0
M  V30 34634 O 3378.29 0.218777 -1.94473 0
M  V30 34635 C 3378.59 -3.2308 -1.5282 0
M  V30 34636 C 3378.25 -4.45916 -0.668567 0
M  V30 34637 C 3376.92 -4.7926 -0.431645 0
M  V30 34638 C 3379.27 -5.2115 -0.0720411 0
M  V30 34639 C 3376.6 -5.85256 0.411393 0
M  V30 34640 C 3378.95 -6.28037 0.758414 0
M  V30 34641 C 3377.61 -6.59887 1.00527 0
M  V30 34642 H 3376.88 -0.683991 -0.285022 0
M  V30 34643 H 3379.53 -1.91458 -0.0398724 0
M  V30 34644 H 3377.83 -3.14303 -2.33925 0
M  V30 34645 H 3379.53 -3.43151 -2.07482 0
M  V30 34646 H 3376.12 -4.19815 -0.86335 0
M  V30 34647 H 3380.3 -4.95709 -0.24221 0
M  V30 34648 H 3375.56 -6.08335 0.611461 0
M  V30 34649 H 3379.73 -6.85498 1.22742 0
M  V30 34650 H 3377.36 -7.41848 1.6603 0
M  V30 34651 N 3378.94 0.34972 -1.53671 0
M  V30 34652 C 3379.85 1.45272 -1.8421 0
M  V30 34653 C 3380.86 1.57866 -0.731723 0
M  V30 34654 O 3382.04 1.7346 -1.0234 0
M  V30 34655 C 3379.1 2.80341 -2.03985 0
M  V30 34656 C 3378.16 2.77142 -3.27858 0
M  V30 34657 C 3377.4 4.05769 -3.4668 0
M  V30 34658 O 3377.62 5.02737 -2.69466 0
M  V30 34659 O 3376.55 4.10616 -4.40089 0
M  V30 34660 H 3380.38 1.22384 -2.77949 0
M  V30 34661 H 3377.97 0.541321 -1.39248 0
M  V30 34662 H 3379.85 3.60344 -2.18472 0
M  V30 34663 H 3378.52 3.03174 -1.13434 0
M  V30 34664 H 3377.43 1.95782 -3.18779 0
M  V30 34665 H 3378.76 2.59264 -4.18382 0
M  V30 34666 N 3380.41 1.45299 0.610397 0
M  V30 34667 C 3381.36 1.54086 1.74242 0
M  V30 34668 C 3382.36 0.411032 1.64338 0
M  V30 34669 O 3383.56 0.586829 1.70166 0
M  V30 34670 H 3379.94 0.483926 0.575604 0
M  V30 34671 H 3381.91 2.4932 1.63957 0
M  V30 34672 C 3380.66 1.52203 3.12617 0
M  V30 34673 H 3379.98 2.38466 3.20896 0
M  V30 34674 H 3381.42 1.62409 3.91662 0
M  V30 34675 C 3379.88 0.246009 3.36001 0
M  V30 34676 O 3380.41 -0.675304 3.95983 0
M  V30 34677 N 3378.62 0.142588 2.9025 0
M  V30 34678 H 3378.16 0.893186 2.41619 0
M  V30 34679 H 3378.12 -0.710373 3.0627 0
M  V30 34680 N 3381.89 -0.852653 1.32543 0
M  V30 34681 C 3383.12 -1.6446 1.26363 0
M  V30 34682 C 3383.54 -1.87375 -0.165047 0
M  V30 34683 O 3382.9 -1.42796 -1.1171 0
M  V30 34684 C 3382.95 -2.97994 2.03057 0
M  V30 34685 O 3382.05 -3.88635 1.37974 0
M  V30 34686 H 3381.39 -0.50132 0.435402 0
M  V30 34687 H 3383.92 -1.06183 1.7489 0
M  V30 34688 H 3383.93 -3.478 2.13306 0
M  V30 34689 H 3382.61 -2.80637 3.06946 0
M  V30 34690 H 3381.19 -3.47103 1.36286 0
M  V30 34691 N 3383.37 -1.15786 -1.06918 0
M  V30 34692 C 3384.62 -0.929975 -1.78981 0
M  V30 34693 C 3384.93 0.543936 -1.87885 0
M  V30 34694 O 3386.14 0.889533 -2.56514 0
M  V30 34695 C 3384.59 -1.61451 -3.21654 0
M  V30 34696 C 3384.2 -3.12575 -3.20937 0
M  V30 34697 C 3385.95 -1.46835 -3.98296 0
M  V30 34698 C 3383.85 -3.73796 -4.58291 0
M  V30 34699 H 3382.78 -0.344296 -0.670803 0
M  V30 34700 H 3385.43 -1.38848 -1.19973 0
M  V30 34701 H 3383.82 -1.0837 -3.80883 0
M  V30 34702 H 3384.99 -3.72448 -2.71328 0
M  V30 34703 H 3383.31 -3.27004 -2.57794 0
M  V30 34704 H 3385.9 -1.89961 -4.99819 0
M  V30 34705 H 3386.25 -0.416431 -4.14212 0
M  V30 34706 H 3386.78 -1.97037 -3.45574 0
M  V30 34707 H 3383.52 -4.78908 -4.4758 0
M  V30 34708 H 3383.04 -3.18707 -5.0812 0
M  V30 34709 H 3384.72 -3.74981 -5.27256 0
M  V30 34710 N 3384.85 1.25343 -0.955348 0
M  V30 34711 C 3386.1 1.92375 -0.606183 0
M  V30 34712 C 3386.41 1.75636 0.860896 0
M  V30 34713 O 3387.62 2.37248 1.32005 0
M  V30 34714 C 3386.07 3.44743 -1.03347 0
M  V30 34715 C 3385.68 3.70191 -2.52314 0
M  V30 34716 C 3387.42 4.17698 -0.75687 0
M  V30 34717 C 3385.33 5.16067 -2.8884 0
M  V30 34718 H 3384.26 0.720267 -0.223006 0
M  V30 34719 H 3386.91 1.42192 -1.1599 0
M  V30 34720 H 3385.29 3.93891 -0.408165 0
M  V30 34721 H 3386.47 3.31692 -3.1987 0
M  V30 34722 H 3384.78 3.10497 -2.77453 0
M  V30 34723 H 3387.38 5.25153 -1.00592 0
M  V30 34724 H 3387.72 4.15169 0.306721 0
M  V30 34725 H 3388.26 3.7446 -1.34256 0
M  V30 34726 H 3385 5.23709 -3.94219 0
M  V30 34727 H 3384.52 5.5561 -2.25958 0
M  V30 34728 H 3386.19 5.84196 -2.78071 0
M  V30 34729 N 3386.33 0.724003 1.39986 0
M  V30 34730 C 3387.57 0.2764 2.01513 0
M  V30 34731 C 3387.93 -1.12055 1.56401 0
M  V30 34732 O 3387.22 -1.75095 0.777958 0
M  V30 34733 C 3387.42 0.304534 3.561 0
M  V30 34734 C 3387.24 1.70268 4.1622 0
M  V30 34735 C 3386.01 2.31233 4.49288 0
M  V30 34736 C 3388.21 2.65439 4.40507 0
M  V30 34737 N 3386.19 3.63317 4.94848 0
M  V30 34738 C 3387.57 3.82241 4.88152 0
M  V30 34739 C 3389.62 2.63343 4.22558 0
M  V30 34740 C 3388.32 4.97265 5.19731 0
M  V30 34741 C 3390.35 3.77501 4.55243 0
M  V30 34742 C 3389.71 4.93037 5.03085 0
M  V30 34743 H 3385.81 0.147159 0.768029 0
M  V30 34744 H 3388.39 0.947611 1.70084 0
M  V30 34745 H 3386.57 -0.336276 3.86942 0
M  V30 34746 H 3388.3 -0.160576 4.04381 0
M  V30 34747 H 3385.05 1.83255 4.36709 0
M  V30 34748 H 3385.48 4.31098 5.21999 0
M  V30 34749 H 3390.12 1.75219 3.84783 0
M  V30 34750 H 3387.84 5.86027 5.56415 0
M  V30 34751 H 3391.42 3.77164 4.42988 0
M  V30 34752 H 3390.3 5.79908 5.27898 0
M  V30 34753 N 3387.81 -1.50403 0.470808 0
M  V30 34754 C 3389.05 -2.02624 -0.0844053 0
M  V30 34755 C 3389.38 -1.35212 -1.39396 0
M  V30 34756 O 3388.66 -0.477741 -1.88541 0
M  V30 34757 C 3388.94 -3.59098 -0.2685 0
M  V30 34758 C 3388.8 -4.37082 1.06205 0
M  V30 34759 C 3390.11 -4.28041 -1.02317 0
M  V30 34760 H 3387.23 -0.736421 -0.0292011 0
M  V30 34761 H 3389.88 -1.79725 0.616343 0
M  V30 34762 H 3388.03 -3.78739 -0.865374 0
M  V30 34763 H 3389.7 -4.29012 1.69549 0
M  V30 34764 H 3387.94 -4.00834 1.65875 0
M  V30 34765 H 3388.61 -5.44829 0.886891 0
M  V30 34766 H 3391.09 -4.12873 -0.517252 0
M  V30 34767 H 3389.96 -5.37336 -1.12078 0
M  V30 34768 H 3390.22 -3.91191 -2.05967 0
M  V30 34769 N 3389.28 -0.203404 -1.56282 0
M  V30 34770 C 3390.56 0.481222 -1.89588 0
M  V30 34771 C 3390.94 1.79055 -1.11815 0
M  V30 34772 O 3390.29 2.27421 -0.221799 0
M  V30 34773 C 3390.5 0.691904 -3.42073 0
M  V30 34774 C 3391.85 1.00754 -4.12473 0
M  V30 34775 O 3392.87 0.779335 -3.4757 0
M  V30 34776 O 3391.73 1.43964 -5.27197 0
M  V30 34777 H 3388.82 0.251949 -0.787687 0
M  V30 34778 H 3391.37 -0.244237 -1.67933 0
M  V30 34779 H 3390.14 -0.232391 -3.90609 0
M  V30 34780 H 3389.76 1.46952 -3.69447 0
M  V30 34781 N 3390.76 1.57444 0.0701393 0
M  V30 34782 C 3392.18 1.53838 0.424964 0
M  V30 34783 C 3392.38 0.923825 1.79075 0
M  V30 34784 O 3391.43 0.527045 2.46938 0
M  V30 34785 C 3392.75 2.98483 0.36451 0
M  V30 34786 C 3394.29 3.09827 0.444577 0
M  V30 34787 C 3394.77 4.56125 0.414013 0
M  V30 34788 N 3396.26 4.60768 0.474038 0
M  V30 34789 C 3397 5.71449 0.472629 0
M  V30 34790 N 3396.49 6.91489 0.425937 0
M  V30 34791 N 3398.28 5.59696 0.51931 0
M  V30 34792 H 3390.44 1.95759 -0.824151 0
M  V30 34793 H 3392.7 0.896083 -0.309417 0
M  V30 34794 H 3392.4 3.47011 -0.572404 0
M  V30 34795 H 3392.28 3.58462 1.17408 0
M  V30 34796 H 3394.67 2.61271 1.37191 0
M  V30 34797 H 3394.75 2.52754 -0.393592 0
M  V30 34798 H 3394.39 5.05338 -0.509483 0
M  V30 34799 H 3394.32 5.11063 1.26974 0
M  V30 34800 H 3396.81 3.74384 0.514305 0
M  V30 34801 H 3397.12 7.71609 0.428833 0
M  V30 34802 H 3395.47 6.9389 0.3926 0
M  V30 34803 H 3398.66 4.64816 0.553491 0
M  V30 34804 H 3398.83 6.45952 0.514742 0
M  V30 34805 N 3392.24 -0.341566 1.53854 0
M  V30 34806 C 3393.19 -1.43978 1.82683 0
M  V30 34807 C 3394.18 -1.54376 0.697442 0
M  V30 34808 O 3395.39 -1.56977 0.880813 0
M  V30 34809 H 3391.76 -0.480103 0.578796 0
M  V30 34810 H 3393.73 -1.16879 2.74558 0
M  V30 34811 C 3392.48 -2.80472 2.05501 0
M  V30 34812 H 3391.81 -2.73239 2.91857 0
M  V30 34813 H 3393.25 -3.56431 2.29636 0
M  V30 34814 C 3391.7 -3.26231 0.841118 0
M  V30 34815 O 3392.23 -4.01679 0.0415082 0
M  V30 34816 N 3390.44 -2.83057 0.657786 0
M  V30 34817 H 3389.99 -2.21824 1.30966 0
M  V30 34818 H 3389.95 -3.14028 -0.152948 0
M  V30 34819 N 3393.72 -1.45621 -0.602683 0
M  V30 34820 C 3394.65 -1.57513 -1.72371 0
M  V30 34821 C 3395.63 -0.426418 -1.64668 0
M  V30 34822 O 3396.81 -0.650176 -1.82993 0
M  V30 34823 C 3393.94 -1.54615 -3.10984 0
M  V30 34824 C 3392.9 -2.68254 -3.33502 0
M  V30 34825 C 3392.22 -2.50411 -4.72439 0
M  V30 34826 C 3393.52 -4.1023 -3.23278 0
M  V30 34827 H 3395.22 -2.51351 -1.62675 0
M  V30 34828 H 3392.76 -1.20968 -0.781196 0
M  V30 34829 H 3394.72 -1.61532 -3.89211 0
M  V30 34830 H 3393.44 -0.573106 -3.21532 0
M  V30 34831 H 3392.1 -2.60774 -2.57668 0
M  V30 34832 H 3391.75 -1.51234 -4.79726 0
M  V30 34833 H 3391.45 -3.2662 -4.8846 0
M  V30 34834 H 3392.97 -2.59189 -5.52859 0
M  V30 34835 H 3394.39 -4.18927 -3.91373 0
M  V30 34836 H 3392.78 -4.86867 -3.50828 0
M  V30 34837 H 3393.85 -4.31792 -2.20644 0
M  V30 34838 N 3395.2 0.845612 -1.32993 0
M  V30 34839 C 3396.14 1.95492 -1.22685 0
M  V30 34840 C 3397.11 1.65755 -0.106971 0
M  V30 34841 O 3398.3 1.88673 -0.284083 0
M  V30 34842 C 3395.44 3.3133 -0.965127 0
M  V30 34843 C 3394.55 3.73506 -2.17064 0
M  V30 34844 C 3393.69 4.9818 -1.84364 0
M  V30 34845 C 3392.72 5.32873 -3.01185 0
M  V30 34846 N 3391.86 6.48724 -2.68518 0
M  V30 34847 H 3396.7 2.0364 -2.17565 0
M  V30 34848 H 3394.24 0.996594 -1.08196 0
M  V30 34849 H 3396.2 4.09578 -0.793843 0
M  V30 34850 H 3394.83 3.22756 -0.0530852 0
M  V30 34851 H 3393.88 2.90837 -2.4519 0
M  V30 34852 H 3395.19 3.95133 -3.0442 0
M  V30 34853 H 3394.34 5.84159 -1.6384 0
M  V30 34854 H 3393.08 4.78509 -0.942349 0
M  V30 34855 H 3392.09 4.45402 -3.22331 0
M  V30 34856 H 3393.31 5.54496 -3.9206 0
M  V30 34857 H 3391.26 6.30553 -1.8094 0
M  V30 34858 H 3391.18 6.70412 -3.49404 0
M  V30 34859 H 3392.44 7.37832 -2.51445 0
M  V30 34860 N 3396.67 1.16351 1.06302 0
M  V30 34861 C 3397.62 0.870003 2.13775 0
M  V30 34862 C 3398.59 -0.181512 1.65105 0
M  V30 34863 O 3399.78 -0.0467369 1.90743 0
M  V30 34864 C 3396.92 0.377138 3.43033 0
M  V30 34865 C 3396.03 1.49147 4.05437 0
M  V30 34866 C 3395.16 0.95363 5.2257 0
M  V30 34867 C 3394.2 2.04417 5.76958 0
M  V30 34868 N 3393.34 1.52193 6.85406 0
M  V30 34869 H 3398.18 1.79039 2.38221 0
M  V30 34870 H 3395.72 0.893157 1.16881 0
M  V30 34871 H 3397.67 0.0730159 4.17136 0
M  V30 34872 H 3396.3 -0.506303 3.18805 0
M  V30 34873 H 3395.36 1.91156 3.28882 0
M  V30 34874 H 3396.67 2.31442 4.41855 0
M  V30 34875 H 3395.82 0.602685 6.03699 0
M  V30 34876 H 3394.56 0.0999827 4.87598 0
M  V30 34877 H 3393.57 2.40382 4.94466 0
M  V30 34878 H 3394.79 2.90178 6.13982 0
M  V30 34879 H 3392.74 0.690812 6.52353 0
M  V30 34880 H 3392.65 2.28105 7.20766 0
M  V30 34881 H 3393.92 1.19956 7.70215 0
M  V30 34882 N 3398.15 -1.24835 0.961982 0
M  V30 34883 C 3399.4 -1.92051 0.616376 0
M  V30 34884 C 3399.71 -1.7609 -0.85157 0
M  V30 34885 O 3400.92 -2.37945 -1.30745 0
M  V30 34886 C 3399.38 -3.4419 1.05174 0
M  V30 34887 C 3398.98 -3.68848 2.54274 0
M  V30 34888 C 3400.73 -4.17291 0.779011 0
M  V30 34889 C 3398.63 -5.14528 2.91573 0
M  V30 34890 H 3397.56 -0.719074 0.226823 0
M  V30 34891 H 3400.22 -1.41575 1.16742 0
M  V30 34892 H 3398.6 -3.93669 0.429048 0
M  V30 34893 H 3399.77 -3.29991 3.21624 0
M  V30 34894 H 3398.09 -3.09022 2.79096 0
M  V30 34895 H 3400.68 -5.24612 1.03375 0
M  V30 34896 H 3401.03 -4.15325 -0.284699 0
M  V30 34897 H 3401.56 -3.73743 1.3624 0
M  V30 34898 H 3398.3 -5.21611 3.96991 0
M  V30 34899 H 3397.82 -5.54404 2.28901 0
M  V30 34900 H 3399.5 -5.82713 2.81166 0
M  V30 34901 N 3399.63 -0.731417 -1.396 0
M  V30 34902 C 3400.88 -0.277792 -2.00586 0
M  V30 34903 C 3401.2 1.13389 -1.58029 0
M  V30 34904 O 3400.46 1.78659 -0.798722 0
M  V30 34905 C 3400.76 -0.323415 -3.55934 0
M  V30 34906 C 3400.42 -1.68761 -4.18128 0
M  V30 34907 C 3399.09 -2.061 -4.34829 0
M  V30 34908 C 3401.44 -2.58347 -4.52666 0
M  V30 34909 C 3398.77 -3.32541 -4.83356 0
M  V30 34910 C 3401.12 -3.84157 -5.026 0
M  V30 34911 C 3399.78 -4.21593 -5.17509 0
M  V30 34912 H 3399.05 -0.101651 -0.733995 0
M  V30 34913 H 3401.7 -0.937557 -1.66979 0
M  V30 34914 H 3400 0.419926 -3.89543 0
M  V30 34915 H 3401.7 0.045653 -4.00974 0
M  V30 34916 H 3398.29 -1.38729 -4.05527 0
M  V30 34917 H 3402.48 -2.30771 -4.39384 0
M  V30 34918 H 3397.73 -3.61494 -4.93084 0
M  V30 34919 H 3401.91 -4.53734 -5.28298 0
M  V30 34920 H 3399.53 -5.19635 -5.54873 0
M  V30 34921 N 3401.11 1.50152 -0.478778 0
M  V30 34922 C 3402.04 2.26546 0.347789 0
M  V30 34923 C 3403.05 1.32184 0.950331 0
M  V30 34924 O 3404.24 1.57637 0.837434 0
M  V30 34925 C 3401.34 3.03773 1.5025 0
M  V30 34926 C 3400.52 4.25547 1.01134 0
M  V30 34927 C 3399.57 4.85004 2.04102 0
M  V30 34928 O 3398.6 5.45704 1.61852 0
M  V30 34929 N 3399.8 4.72683 3.36974 0
M  V30 34930 H 3402.57 2.98122 -0.307166 0
M  V30 34931 H 3400.13 1.58904 -0.310008 0
M  V30 34932 H 3402.12 3.40427 2.18842 0
M  V30 34933 H 3400.69 2.34947 2.06201 0
M  V30 34934 H 3399.91 3.9391 0.151055 0
M  V30 34935 H 3401.2 5.04485 0.661237 0
M  V30 34936 H 3400.6 4.24427 3.74003 0
M  V30 34937 H 3399.15 5.13584 4.01341 0
M  V30 34938 N 3402.59 0.211689 1.56172 0
M  V30 34939 C 3403.55 -0.688867 2.18603 0
M  V30 34940 C 3404.55 -1.1289 1.1451 0
M  V30 34941 O 3405.74 -1.0393 1.39801 0
M  V30 34942 C 3402.87 -1.94248 2.80144 0
M  V30 34943 H 3404.06 -0.144713 2.99551 0
M  V30 34944 H 3401.62 -0.037934 1.56254 0
M  V30 34945 H 3402.35 -2.52874 2.0304 0
M  V30 34946 H 3402.14 -1.63552 3.56361 0
M  V30 34947 H 3403.63 -2.5843 3.2803 0
M  V30 34948 N 3404.06 -1.57479 -0.0617887 0
M  V30 34949 C 3405.29 -1.92357 -0.775479 0
M  V30 34950 C 3405.71 -0.808979 -1.69815 0
M  V30 34951 O 3405.07 0.237579 -1.79737 0
M  V30 34952 C 3405.12 -3.2622 -1.53664 0
M  V30 34953 O 3404.22 -3.16159 -2.64796 0
M  V30 34954 H 3403.57 -0.629617 -0.210898 0
M  V30 34955 H 3406.1 -2.04582 -0.0270393 0
M  V30 34956 H 3406.11 -3.60334 -1.91373 0
M  V30 34957 H 3404.78 -4.06917 -0.859727 0
M  V30 34958 H 3403.36 -2.93622 -2.29871 0
M  V30 34959 N 3405.54 0.333401 -1.54033 0
M  V30 34960 C 3406.49 1.40989 -1.82731 0
M  V30 34961 C 3407.46 1.51824 -0.673704 0
M  V30 34962 O 3408.64 1.67201 -0.919156 0
M  V30 34963 C 3405.78 2.77495 -2.0516 0
M  V30 34964 C 3404.9 2.7537 -3.32859 0
M  V30 34965 C 3404.03 4.03659 -3.45301 0
M  V30 34966 C 3403.07 3.95803 -4.66912 0
M  V30 34967 N 3402.21 5.15802 -4.76332 0
M  V30 34968 H 3407.05 1.15816 -2.74574 0
M  V30 34969 H 3404.59 0.560835 -1.35989 0
M  V30 34970 H 3406.54 3.56838 -2.16154 0
M  V30 34971 H 3405.17 3.00998 -1.1662 0
M  V30 34972 H 3404.23 1.88075 -3.30654 0
M  V30 34973 H 3405.54 2.65446 -4.22303 0
M  V30 34974 H 3404.69 4.9143 -3.55783 0
M  V30 34975 H 3403.43 4.16378 -2.53931 0
M  V30 34976 H 3402.44 3.06417 -4.56496 0
M  V30 34977 H 3403.66 3.84658 -5.59656 0
M  V30 34978 H 3401.61 5.29045 -3.87875 0
M  V30 34979 H 3401.52 5.08174 -5.59728 0
M  V30 34980 H 3402.79 6.05315 -4.91135 0
M  V30 34981 N 3407.02 1.45939 0.594952 0
M  V30 34982 C 3407.93 1.58135 1.73293 0
M  V30 34983 C 3408.95 0.465275 1.67664 0
M  V30 34984 O 3410.12 0.727717 1.87793 0
M  V30 34985 C 3407.19 1.55683 3.0978 0
M  V30 34986 C 3406.25 2.78427 3.26767 0
M  V30 34987 C 3405.48 2.76083 4.56743 0
M  V30 34988 O 3405.7 1.84129 5.39864 0
M  V30 34989 O 3404.64 3.67461 4.76714 0
M  V30 34990 H 3408.46 2.54349 1.65953 0
M  V30 34991 H 3406.05 1.28592 0.76055 0
M  V30 34992 H 3407.93 1.56968 3.91074 0
M  V30 34993 H 3406.61 0.626247 3.17584 0
M  V30 34994 H 3405.51 2.827 2.45013 0
M  V30 34995 H 3406.85 3.70654 3.23847 0
M  V30 34996 N 3408.5 -0.838547 1.3344 0
M  V30 34997 C 3409.91 -1.41007 1.22368 0
M  V30 34998 C 3410.26 -1.95569 -0.157283 0
M  V30 34999 O 3409.39 -1.88835 -1.05689 0
M  V30 35000 C 3409.98 -2.56325 2.21547 0
M  V30 35001 C 3408.54 -3.09429 2.14314 0
M  V30 35002 C 3407.69 -1.82231 2.09015 0
M  V30 35003 H 3410.64 -0.644285 1.45033 0
M  V30 35004 H 3410.66 -3.33966 1.82338 0
M  V30 35005 H 3410.17 -2.16583 3.22045 0
M  V30 35006 H 3408.27 -3.53714 1.17119 0
M  V30 35007 H 3408.38 -3.6958 3.04872 0
M  V30 35008 H 3406.75 -2.02493 1.54495 0
M  V30 35009 H 3407.53 -1.44685 3.11322 0
M  V30 35010 N 3409.98 -1.16914 -1.05683 0
M  V30 35011 C 3410.89 -0.895838 -2.16822 0
M  V30 35012 C 3411.9 0.134185 -1.73482 0
M  V30 35013 O 3413.08 -0.0439129 -2.01352 0
M  V30 35014 C 3410.14 -0.407488 -3.44297 0
M  V30 35015 C 3409.2 -1.50349 -4.02111 0
M  V30 35016 C 3408.44 -1.03835 -5.23502 0
M  V30 35017 O 3408.66 0.109478 -5.70295 0
M  V30 35018 O 3407.59 -1.8293 -5.73428 0
M  V30 35019 H 3411.42 -1.82537 -2.42722 0
M  V30 35020 H 3409.01 -0.94961 -1.15338 0
M  V30 35021 H 3410.89 -0.14243 -4.21159 0
M  V30 35022 H 3409.56 0.493953 -3.19909 0
M  V30 35023 H 3408.47 -1.82237 -3.26712 0
M  V30 35024 H 3409.8 -2.38046 -4.30807 0
M  V30 35025 N 3411.45 1.24323 -0.968589 0
M  V30 35026 C 3412.4 2.2735 -0.491386 0
M  V30 35027 C 3413.4 1.63436 0.445535 0
M  V30 35028 O 3414.6 1.7712 0.320727 0
M  V30 35029 H 3410.98 0.738769 -0.140443 0
M  V30 35030 H 3412.95 2.64973 -1.37229 0
M  V30 35031 C 3411.7 3.47113 0.202032 0
M  V30 35032 H 3411.02 3.96536 -0.5098 0
M  V30 35033 H 3412.46 4.21045 0.499741 0
M  V30 35034 C 3410.92 3.05077 1.42931 0
M  V30 35035 O 3411.45 3.12316 2.52629 0
M  V30 35036 N 3409.66 2.60116 1.29568 0
M  V30 35037 H 3409.2 2.54426 0.403124 0
M  V30 35038 H 3409.16 2.32357 2.11796 0
M  V30 35039 N 3412.93 0.73881 1.3921 0
M  V30 35040 C 3414.16 0.298787 2.04731 0
M  V30 35041 C 3414.58 -1.06773 1.55708 0
M  V30 35042 O 3413.93 -1.6754 0.723635 0
M  V30 35043 C 3413.98 0.295803 3.60288 0
M  V30 35044 O 3413.7 1.60838 4.07508 0
M  V30 35045 C 3415.21 -0.159916 4.43011 0
M  V30 35046 H 3412.43 0.129964 0.658294 0
M  V30 35047 H 3414.97 1.00353 1.78184 0
M  V30 35048 H 3413.12 -0.360078 3.85723 0
M  V30 35049 H 3413.54 1.52452 5.01855 0
M  V30 35050 H 3415.01 -0.110844 5.51889 0
M  V30 35051 H 3415.49 -1.20566 4.22328 0
M  V30 35052 H 3416.1 0.466541 4.22733 0
M  V30 35053 N 3414.41 -1.49895 0.486734 0
M  V30 35054 C 3415.32 -2.3262 -0.304181 0
M  V30 35055 C 3416.34 -1.43704 -0.981078 0
M  V30 35056 O 3417.51 -1.76743 -0.965608 0
M  V30 35057 C 3414.58 -3.18786 -1.36296 0
M  V30 35058 C 3413.64 -4.23538 -0.701008 0
M  V30 35059 C 3412.87 -5.05586 -1.70934 0
M  V30 35060 O 3413.09 -4.88936 -2.93765 0
M  V30 35061 O 3412.03 -5.88295 -1.27252 0
M  V30 35062 H 3415.85 -3.01407 0.372533 0
M  V30 35063 H 3413.44 -1.47322 0.248302 0
M  V30 35064 H 3415.32 -3.72206 -1.97587 0
M  V30 35065 H 3414 -2.5271 -2.02286 0
M  V30 35066 H 3412.9 -3.74068 -0.0487268 0
M  V30 35067 H 3414.24 -4.92129 -0.0837952 0
M  V30 35068 N 3415.89 -0.219968 -1.56057 0
M  V30 35069 C 3417.3 0.288171 -1.84463 0
M  V30 35070 C 3417.65 1.59589 -1.14131 0
M  V30 35071 O 3416.78 2.12472 -0.410448 0
M  V30 35072 C 3417.37 0.52963 -3.34635 0
M  V30 35073 C 3415.93 0.982081 -3.63362 0
M  V30 35074 C 3415.08 0.0442805 -2.77265 0
M  V30 35075 H 3418.03 -0.443197 -1.52386 0
M  V30 35076 H 3418.05 1.37584 -3.54755 0
M  V30 35077 H 3417.56 -0.422311 -3.85795 0
M  V30 35078 H 3415.66 1.94743 -3.17657 0
M  V30 35079 H 3415.78 0.857585 -4.71362 0
M  V30 35080 H 3414.14 0.550782 -2.48673 0
M  V30 35081 H 3414.92 -0.90255 -3.31223 0
M  V30 35082 N 3417.37 1.57509 0.0534363 0
M  V30 35083 C 3418.78 1.76692 0.603068 0
M  V30 35084 C 3419.13 0.847892 1.76933 0
M  V30 35085 O 3418.25 0.0365342 2.16369 0
M  V30 35086 C 3418.85 3.20419 1.10078 0
M  V30 35087 C 3417.41 3.40882 1.59612 0
M  V30 35088 C 3416.56 2.72314 0.523468 0
M  V30 35089 H 3419.51 1.57757 -0.172778 0
M  V30 35090 H 3419.53 3.2559 1.96904 0
M  V30 35091 H 3419.04 3.87283 0.25175 0
M  V30 35092 H 3417.14 2.79159 2.46781 0
M  V30 35093 H 3417.25 4.49407 1.66042 0
M  V30 35094 H 3415.62 2.35389 0.972844 0
M  V30 35095 H 3416.4 3.41845 -0.315689 0
M  V30 35096 N 3418.85 -0.325228 1.54208 0
M  V30 35097 C 3420.07 -1.08295 1.76295 0
M  V30 35098 C 3420.49 -1.8176 0.510754 0
M  V30 35099 O 3419.85 -1.7498 -0.518469 0
M  V30 35100 C 3419.9 -2.08233 2.95502 0
M  V30 35101 O 3419.62 -1.37752 4.1588 0
M  V30 35102 C 3421.12 -2.96236 3.29786 0
M  V30 35103 H 3418.34 -0.322199 0.588582 0
M  V30 35104 H 3420.88 -0.371861 2.01091 0
M  V30 35105 H 3419.04 -2.74879 2.72984 0
M  V30 35106 H 3419.45 -2.04664 4.82921 0
M  V30 35107 H 3420.93 -3.62258 4.16501 0
M  V30 35108 H 3421.4 -3.63245 2.46881 0
M  V30 35109 H 3422.01 -2.35154 3.54376 0
M  V30 35110 N 3420.32 -1.46252 -0.587204 0
M  V30 35111 C 3421.57 -1.51553 -1.34757 0
M  V30 35112 C 3421.9 -0.164864 -1.93499 0
M  V30 35113 O 3421.18 0.823176 -1.76222 0
M  V30 35114 C 3421.46 -2.61063 -2.48028 0
M  V30 35115 C 3421.31 -4.05645 -1.9435 0
M  V30 35116 C 3422.63 -2.66691 -3.50091 0
M  V30 35117 H 3419.75 -0.551742 -0.488621 0
M  V30 35118 H 3422.39 -1.78166 -0.660066 0
M  V30 35119 H 3420.54 -2.38502 -3.06675 0
M  V30 35120 H 3422.22 -4.3948 -1.40196 0
M  V30 35121 H 3420.46 -4.15337 -1.2521 0
M  V30 35122 H 3421.13 -4.7799 -2.76096 0
M  V30 35123 H 3423.61 -2.86961 -3.01319 0
M  V30 35124 H 3422.48 -3.45143 -4.26811 0
M  V30 35125 H 3422.74 -1.72567 -4.07029 0
M  V30 35126 N 3421.8 0.831459 -1.33883 0
M  V30 35127 C 3423.05 1.58215 -1.25103 0
M  V30 35128 C 3423.36 1.94774 0.179596 0
M  V30 35129 O 3424.57 2.68692 0.389469 0
M  V30 35130 C 3423.03 2.85406 -2.19251 0
M  V30 35131 C 3422.63 2.56183 -3.67524 0
M  V30 35132 C 3424.38 3.63429 -2.19361 0
M  V30 35133 C 3422.28 3.79515 -4.53566 0
M  V30 35134 H 3421.21 0.593776 -0.4647 0
M  V30 35135 H 3423.87 0.916141 -1.58994 0
M  V30 35136 H 3422.25 3.53588 -1.78302 0
M  V30 35137 H 3423.42 1.96166 -4.1696 0
M  V30 35138 H 3421.74 1.91451 -3.69778 0
M  V30 35139 H 3424.33 4.5499 -2.80871 0
M  V30 35140 H 3424.68 3.98911 -1.19063 0
M  V30 35141 H 3425.21 3.02181 -2.58711 0
M  V30 35142 H 3421.95 3.4916 -5.54768 0
M  V30 35143 H 3421.47 4.38846 -4.0887 0
M  V30 35144 H 3423.15 4.47017 -4.67744 0
M  V30 35145 N 3423.28 1.17472 1.05062 0
M  V30 35146 C 3424.7 0.922271 1.30255 0
M  V30 35147 C 3424.9 -0.417861 1.9712 0
M  V30 35148 O 3423.95 -1.15454 2.24559 0
M  V30 35149 C 3425.26 2.08052 2.17105 0
M  V30 35150 C 3426.81 2.1177 2.30483 0
M  V30 35151 C 3427.29 3.26984 3.20695 0
M  V30 35152 N 3428.78 3.26781 3.28281 0
M  V30 35153 C 3429.51 4.12572 3.98211 0
M  V30 35154 N 3429.01 5.08476 4.70558 0
M  V30 35155 N 3430.8 4.00518 3.94388 0
M  V30 35156 H 3422.95 2.03731 0.600617 0
M  V30 35157 H 3425.22 0.889649 0.327459 0
M  V30 35158 H 3424.92 3.04917 1.75268 0
M  V30 35159 H 3424.8 2.03266 3.17746 0
M  V30 35160 H 3427.18 1.1549 2.71562 0
M  V30 35161 H 3427.26 2.20617 1.29467 0
M  V30 35162 H 3426.91 4.2353 2.8033 0
M  V30 35163 H 3426.84 3.15373 4.21719 0
M  V30 35164 H 3429.33 2.57345 2.76735 0
M  V30 35165 H 3429.64 5.7033 5.21482 0
M  V30 35166 H 3427.99 5.12444 4.69496 0
M  V30 35167 H 3431.18 3.24888 3.36995 0
M  V30 35168 H 3431.35 4.67596 4.48618 0
M  V30 35169 N 3424.76 -1.23807 0.975168 0
M  V30 35170 C 3426.03 -1.87479 0.557758 0
M  V30 35171 C 3426.41 -1.87746 -0.965131 0
M  V30 35172 O 3425.76 -1.35534 -1.83964 0
M  V30 35173 C 3425.97 -3.29234 1.15783 0
M  V30 35174 C 3427.32 -4.05865 1.24733 0
M  V30 35175 O 3428.34 -3.38434 1.1109 0
M  V30 35176 O 3427.2 -5.26531 1.46382 0
M  V30 35177 H 3424.3 -0.805567 0.18706 0
M  V30 35178 H 3426.84 -1.31723 1.06992 0
M  V30 35179 H 3425.62 -3.23579 2.20028 0
M  V30 35180 H 3425.24 -3.92574 0.630172 0
M  V30 35181 N 3426.24 -0.746182 -1.38816 0
M  V30 35182 C 3427.18 -0.102826 -2.32373 0
M  V30 35183 C 3428.18 0.713529 -1.5364 0
M  V30 35184 O 3429.38 0.613458 -1.69224 0
M  V30 35185 H 3425.76 -0.0144537 -0.751861 0
M  V30 35186 H 3427.73 -0.908082 -2.84247 0
M  V30 35187 C 3426.48 0.781768 -3.38797 0
M  V30 35188 H 3425.8 0.162987 -3.99468 0
M  V30 35189 H 3427.24 1.19934 -4.06684 0
M  V30 35190 C 3425.7 1.92108 -2.7676 0
M  V30 35191 O 3426.23 3.01465 -2.65484 0
M  V30 35192 N 3424.44 1.71388 -2.34679 0
M  V30 35193 H 3423.98 0.82444 -2.44051 0
M  V30 35194 H 3423.94 2.47791 -1.93513 0
M  V30 35195 N 3427.71 1.49635 -0.494676 0
M  V30 35196 C 3428.96 2.01628 0.0538922 0
M  V30 35197 C 3429.28 1.37988 1.38631 0
M  V30 35198 O 3430.48 1.81272 2.0212 0
M  V30 35199 C 3428.94 3.59602 0.146519 0
M  V30 35200 C 3428.55 4.32211 -1.17888 0
M  V30 35201 C 3430.29 4.19559 0.645788 0
M  V30 35202 C 3428.2 5.82027 -1.04876 0
M  V30 35203 H 3427.13 0.753621 0.0239145 0
M  V30 35204 H 3429.78 1.72231 -0.633142 0
M  V30 35205 H 3428.16 3.85687 0.897863 0
M  V30 35206 H 3429.33 4.17832 -1.94302 0
M  V30 35207 H 3427.65 3.8397 -1.61109 0
M  V30 35208 H 3430.25 5.29263 0.760547 0
M  V30 35209 H 3430.59 3.82504 1.64306 0
M  V30 35210 H 3431.12 3.9777 -0.04884 0
M  V30 35211 H 3427.86 6.23596 -2.02011 0
M  V30 35212 H 3427.38 5.98917 -0.325399 0
M  V30 35213 H 3429.06 6.42926 -0.724912 0
M  V30 35214 N 3429.19 0.228241 1.55939 0
M  V30 35215 C 3430.14 -0.695521 2.21958 0
M  V30 35216 C 3431.13 -1.19456 1.20111 0
M  V30 35217 O 3432.34 -1.15361 1.38173 0
M  V30 35218 H 3428.71 -0.242731 0.711748 0
M  V30 35219 H 3430.69 -0.11535 2.98177 0
M  V30 35220 C 3429.43 -1.88994 2.9185 0
M  V30 35221 H 3428.76 -1.51506 3.69981 0
M  V30 35222 H 3430.2 -2.51393 3.41434 0
M  V30 35223 C 3428.66 -2.74951 1.94688 0
M  V30 35224 O 3429.19 -3.73913 1.46807 0
M  V30 35225 N 3427.39 -2.41126 1.62193 0
M  V30 35226 H 3426.94 -1.60705 2.01325 0
M  V30 35227 H 3426.9 -2.98918 0.974453 0
M  V30 35228 N 3430.67 -1.57536 -0.0450825 0
M  V30 35229 C 3431.92 -1.89664 -0.734785 0
M  V30 35230 C 3432.27 -0.825051 -1.73812 0
M  V30 35231 O 3431.56 0.168034 -1.90862 0
M  V30 35232 C 3431.76 -3.26249 -1.45932 0
M  V30 35233 C 3431.59 -4.46593 -0.527672 0
M  V30 35234 C 3430.36 -5.05063 -0.154646 0
M  V30 35235 C 3432.56 -5.1396 0.187115 0
M  V30 35236 N 3430.54 -6.08925 0.779937 0
M  V30 35237 C 3431.91 -6.12239 0.97792 0
M  V30 35238 C 3433.96 -4.97243 0.255761 0
M  V30 35239 C 3432.67 -6.95604 1.83103 0
M  V30 35240 C 3434.69 -5.81157 1.09594 0
M  V30 35241 C 3434.05 -6.78995 1.87472 0
M  V30 35242 H 3430.15 -0.743132 -0.243473 0
M  V30 35243 H 3432.74 -1.94699 0.00465425 0
M  V30 35244 H 3430.91 -3.22172 -2.16932 0
M  V30 35245 H 3432.64 -3.45942 -2.10015 0
M  V30 35246 H 3429.4 -4.70809 -0.513364 0
M  V30 35247 H 3429.82 -6.65524 1.24126 0
M  V30 35248 H 3434.46 -4.21494 -0.332019 0
M  V30 35249 H 3432.18 -7.70709 2.42968 0
M  V30 35250 H 3435.77 -5.70273 1.15238 0
M  V30 35251 H 3434.65 -7.42799 2.51435 0
M  V30 35252 N 3432.15 0.317045 -1.54378 0
M  V30 35253 C 3433.08 1.39549 -1.87212 0
M  V30 35254 C 3434.06 1.53662 -0.72951 0
M  V30 35255 O 3435.24 1.67435 -0.983828 0
M  V30 35256 C 3432.37 2.76218 -2.10525 0
M  V30 35257 C 3431.33 2.76887 -3.26371 0
M  V30 35258 C 3430.65 4.16693 -3.35068 0
M  V30 35259 C 3431.95 2.40053 -4.63866 0
M  V30 35260 H 3433.65 1.12318 -2.77534 0
M  V30 35261 H 3431.19 0.538874 -1.33537 0
M  V30 35262 H 3433.15 3.51735 -2.32079 0
M  V30 35263 H 3431.87 3.0494 -1.16959 0
M  V30 35264 H 3430.53 2.03826 -3.04714 0
M  V30 35265 H 3430.18 4.42566 -2.39049 0
M  V30 35266 H 3429.88 4.18045 -4.12931 0
M  V30 35267 H 3431.4 4.94013 -3.58864 0
M  V30 35268 H 3432.82 3.05283 -4.85258 0
M  V30 35269 H 3431.21 2.52645 -5.44326 0
M  V30 35270 H 3432.28 1.35194 -4.65672 0
M  V30 35271 N 3433.63 1.46561 0.57944 0
M  V30 35272 C 3435.04 1.31589 0.90314 0
M  V30 35273 C 3435.24 0.289755 1.99406 0
M  V30 35274 O 3434.3 -0.306536 2.50632 0
M  V30 35275 C 3435.61 2.70305 1.3174 0
M  V30 35276 C 3437.16 2.78421 1.43007 0
M  V30 35277 C 3437.63 4.17727 1.87798 0
M  V30 35278 N 3439.13 4.2016 1.94986 0
M  V30 35279 C 3439.86 5.24844 2.30925 0
M  V30 35280 N 3439.36 6.39852 2.65634 0
M  V30 35281 N 3441.15 5.12211 2.31508 0
M  V30 35282 H 3433.3 2.1193 -0.141149 0
M  V30 35283 H 3435.56 0.948 -0.000476968 0
M  V30 35284 H 3435.27 3.46719 0.589803 0
M  V30 35285 H 3435.14 3.00626 2.27825 0
M  V30 35286 H 3437.53 2.02293 2.14852 0
M  V30 35287 H 3437.61 2.51781 0.451657 0
M  V30 35288 H 3437.26 4.94351 1.1653 0
M  V30 35289 H 3437.19 4.41776 2.86603 0
M  V30 35290 H 3439.68 3.37181 1.70639 0
M  V30 35291 H 3439.99 7.15503 2.9202 0
M  V30 35292 H 3438.33 6.43208 2.63264 0
M  V30 35293 H 3441.53 4.21398 2.03817 0
M  V30 35294 H 3441.7 5.93907 2.59188 0
M  V30 35295 N 3435.1 -0.824347 1.34322 0
M  V30 35296 C 3436.38 -1.56614 1.17181 0
M  V30 35297 C 3436.76 -2.0954 -0.256158 0
M  V30 35298 O 3436.11 -1.908 -1.25728 0
M  V30 35299 C 3436.32 -2.68863 2.22516 0
M  V30 35300 C 3437.67 -3.37668 2.5742 0
M  V30 35301 O 3438.69 -2.79119 2.21295 0
M  V30 35302 O 3437.55 -4.43397 3.1947 0
M  V30 35303 H 3434.64 -0.69114 0.454153 0
M  V30 35304 H 3437.19 -0.865843 1.45949 0
M  V30 35305 H 3435.96 -2.27499 3.1837 0
M  V30 35306 H 3435.59 -3.46545 1.94916 0
M  V30 35307 N 3436.58 -1.18028 -1.04437 0
M  V30 35308 C 3437.83 -0.974787 -1.77836 0
M  V30 35309 C 3438.16 0.494722 -1.87793 0
M  V30 35310 O 3437.44 1.36731 -1.38329 0
M  V30 35311 C 3437.72 -1.62574 -3.21312 0
M  V30 35312 C 3437.57 -3.16786 -3.19322 0
M  V30 35313 C 3438.89 -1.33591 -4.19335 0
M  V30 35314 H 3436.01 -0.355541 -0.645569 0
M  V30 35315 H 3438.65 -1.4564 -1.22021 0
M  V30 35316 H 3436.8 -1.21623 -3.68972 0
M  V30 35317 H 3438.47 -3.66847 -2.79681 0
M  V30 35318 H 3436.72 -3.49141 -2.57455 0
M  V30 35319 H 3437.39 -3.57467 -4.2062 0
M  V30 35320 H 3439.86 -1.69066 -3.80205 0
M  V30 35321 H 3438.74 -1.81711 -5.1795 0
M  V30 35322 H 3439 -0.258093 -4.41346 0
M  V30 35323 N 3438.06 1.23288 -0.98172 0
M  V30 35324 C 3439.29 1.95772 -0.669404 0
M  V30 35325 C 3439.7 1.72657 0.763868 0
M  V30 35326 O 3439.06 1.01879 1.51416 0
M  V30 35327 C 3439.11 3.48742 -0.951924 0
M  V30 35328 O 3438.83 3.71073 -2.32887 0
M  V30 35329 C 3440.33 4.38423 -0.655745 0
M  V30 35330 H 3437.55 0.623266 -0.248556 0
M  V30 35331 H 3440.1 1.56743 -1.31346 0
M  V30 35332 H 3438.25 3.85781 -0.353855 0
M  V30 35333 H 3438.67 4.65358 -2.41956 0
M  V30 35334 H 3440.14 5.44551 -0.903778 0
M  V30 35335 H 3440.62 4.3728 0.410192 0
M  V30 35336 H 3441.22 4.06994 -1.23435 0
M  V30 35337 N 3439.54 0.753533 1.38418 0
M  V30 35338 C 3440.79 0.306451 1.99358 0
M  V30 35339 C 3441.1 -1.11808 1.60494 0
M  V30 35340 O 3442.31 -1.66563 2.14404 0
M  V30 35341 C 3440.76 0.496958 3.56452 0
M  V30 35342 C 3440.37 1.93057 4.04268 0
M  V30 35343 C 3442.11 0.112584 4.24351 0
M  V30 35344 C 3440.02 2.06964 5.54003 0
M  V30 35345 H 3438.95 0.110831 0.74581 0
M  V30 35346 H 3441.6 0.930067 1.58183 0
M  V30 35347 H 3439.98 -0.195842 3.95515 0
M  V30 35348 H 3441.16 2.65684 3.76496 0
M  V30 35349 H 3439.47 2.26985 3.49094 0
M  V30 35350 H 3442.07 0.195254 5.34343 0
M  V30 35351 H 3442.41 -0.934777 4.05669 0
M  V30 35352 H 3442.95 0.757236 3.90526 0
M  V30 35353 H 3439.69 3.09955 5.77588 0
M  V30 35354 H 3439.21 1.38799 5.83519 0
M  V30 35355 H 3440.88 1.85956 6.19701 0
M  V30 35356 N 3441.02 -1.49371 0.502605 0
M  V30 35357 C 3442.26 -2.02458 -0.0413454 0
M  V30 35358 C 3442.59 -1.38215 -1.36846 0
M  V30 35359 O 3441.85 -0.507601 -1.89002 0
M  V30 35360 C 3442.15 -3.56588 -0.240773 0
M  V30 35361 C 3441.81 -4.39476 1.00854 0
M  V30 35362 C 3440.47 -4.61846 1.351 0
M  V30 35363 C 3442.83 -4.87683 1.83889 0
M  V30 35364 C 3440.15 -5.29667 2.52328 0
M  V30 35365 C 3442.51 -5.56794 3.00272 0
M  V30 35366 C 3441.17 -5.77409 3.34895 0
M  V30 35367 H 3440.44 -0.740846 -0.0151294 0
M  V30 35368 H 3443.09 -1.79654 0.663087 0
M  V30 35369 H 3441.39 -3.7808 -1.02774 0
M  V30 35370 H 3443.09 -3.95259 -0.676125 0
M  V30 35371 H 3439.68 -4.22306 0.731794 0
M  V30 35372 H 3443.86 -4.70227 1.58746 0
M  V30 35373 H 3439.12 -5.43831 2.79389 0
M  V30 35374 H 3443.29 -5.93122 3.64938 0
M  V30 35375 H 3440.92 -6.29737 4.25835 0
M  V30 35376 N 3442.49 -0.236508 -1.55815 0
M  V30 35377 C 3443.77 0.4409 -1.90566 0
M  V30 35378 C 3444.15 1.76643 -1.15588 0
M  V30 35379 O 3443.5 2.26899 -0.269989 0
M  V30 35380 C 3443.71 0.61919 -3.43463 0
M  V30 35381 C 3445.06 0.919817 -4.14517 0
M  V30 35382 O 3446.08 0.705435 -3.49145 0
M  V30 35383 O 3444.94 1.32749 -5.30132 0
M  V30 35384 H 3442.03 0.235185 -0.792854 0
M  V30 35385 H 3444.58 -0.279803 -1.67377 0
M  V30 35386 H 3443.35 -0.315192 -3.90028 0
M  V30 35387 H 3442.98 1.39082 -3.72481 0
M  V30 35388 N 3443.97 1.57557 0.0367273 0
M  V30 35389 C 3444.92 2.06055 1.03971 0
M  V30 35390 C 3445.89 0.948113 1.36382 0
M  V30 35391 O 3447.07 1.21817 1.46851 0
M  V30 35392 C 3444.21 2.53841 2.33792 0
M  V30 35393 C 3443.33 3.78845 2.07607 0
M  V30 35394 C 3442.46 4.15273 3.31243 0
M  V30 35395 C 3441.5 5.33216 3.00578 0
M  V30 35396 N 3440.64 5.65113 4.16643 0
M  V30 35397 H 3445.48 2.91496 0.619188 0
M  V30 35398 H 3443.02 1.44129 0.294126 0
M  V30 35399 H 3444.97 2.79611 3.09634 0
M  V30 35400 H 3443.6 1.71327 2.73581 0
M  V30 35401 H 3442.66 3.60205 1.22296 0
M  V30 35402 H 3443.97 4.64809 1.80981 0
M  V30 35403 H 3443.12 4.42131 4.15458 0
M  V30 35404 H 3441.86 3.27945 3.60975 0
M  V30 35405 H 3440.87 5.06119 2.14764 0
M  V30 35406 H 3442.09 6.22191 2.72131 0
M  V30 35407 H 3440.04 4.80745 4.46341 0
M  V30 35408 H 3439.95 6.45571 3.93414 0
M  V30 35409 H 3441.22 5.96543 5.01754 0
M  V30 35410 N 3445.45 -0.308854 1.54544 0
M  V30 35411 C 3446.38 -1.40209 1.81312 0
M  V30 35412 C 3447.4 -1.47186 0.695706 0
M  V30 35413 O 3448.59 -1.49646 0.97306 0
M  V30 35414 C 3445.69 -2.78641 1.92906 0
M  V30 35415 C 3444.86 -2.94691 3.23227 0
M  V30 35416 C 3443.92 -4.13573 3.25336 0
M  V30 35417 O 3442.94 -4.06032 3.98907 0
M  V30 35418 N 3444.15 -5.23829 2.50167 0
M  V30 35419 H 3446.91 -1.17605 2.75661 0
M  V30 35420 H 3444.47 -0.498898 1.54021 0
M  V30 35421 H 3446.46 -3.56402 1.91727 0
M  V30 35422 H 3445.03 -2.94228 1.05587 0
M  V30 35423 H 3444.25 -2.04108 3.37244 0
M  V30 35424 H 3445.54 -3.0232 4.09243 0
M  V30 35425 H 3444.94 -5.32834 1.90011 0
M  V30 35426 H 3443.5 -5.99954 2.54751 0
M  V30 35427 N 3446.93 -1.46867 -0.571659 0
M  V30 35428 C 3448.18 -1.52974 -1.33142 0
M  V30 35429 C 3448.51 -0.185378 -1.93313 0
M  V30 35430 O 3447.78 0.804439 -1.77085 0
M  V30 35431 C 3448.07 -2.63679 -2.45246 0
M  V30 35432 C 3447.92 -4.07684 -1.90037 0
M  V30 35433 C 3449.24 -2.7039 -3.47243 0
M  V30 35434 H 3446.36 -0.556893 -0.482741 0
M  V30 35435 H 3449 -1.78856 -0.641132 0
M  V30 35436 H 3447.15 -2.41741 -3.04128 0
M  V30 35437 H 3448.82 -4.40942 -1.35527 0
M  V30 35438 H 3447.06 -4.16642 -1.20797 0
M  V30 35439 H 3447.74 -4.80892 -2.71011 0
M  V30 35440 H 3450.21 -2.9014 -2.98258 0
M  V30 35441 H 3449.09 -3.4965 -4.23126 0
M  V30 35442 H 3449.35 -1.76875 -4.05176 0
M  V30 35443 N 3448.41 0.817212 -1.34757 0
M  V30 35444 C 3449.34 1.93622 -1.22651 0
M  V30 35445 C 3450.35 1.62086 -0.152254 0
M  V30 35446 O 3451.54 1.73854 -0.404609 0
M  V30 35447 C 3448.64 3.27713 -0.863577 0
M  V30 35448 C 3447.81 3.8723 -2.034 0
M  V30 35449 C 3446.87 4.99709 -1.64855 0
M  V30 35450 O 3445.9 5.17701 -2.36589 0
M  V30 35451 N 3447.1 5.77734 -0.56601 0
M  V30 35452 H 3449.87 2.04536 -2.19055 0
M  V30 35453 H 3447.43 0.99409 -1.27787 0
M  V30 35454 H 3449.42 4.00414 -0.5874 0
M  V30 35455 H 3447.99 3.12598 0.0104438 0
M  V30 35456 H 3447.21 3.06851 -2.47459 0
M  V30 35457 H 3448.5 4.23726 -2.81662 0
M  V30 35458 H 3447.9 5.65692 0.0302136 0
M  V30 35459 H 3446.45 6.50862 -0.349582 0
M  V30 35460 N 3449.89 1.1858 1.0381 0
M  V30 35461 C 3451.3 0.986524 1.58507 0
M  V30 35462 C 3451.65 -0.463103 1.90656 0
M  V30 35463 O 3450.77 -1.3409 1.69849 0
M  V30 35464 C 3451.37 1.78446 2.87997 0
M  V30 35465 C 3449.93 1.62946 3.39301 0
M  V30 35466 C 3449.07 1.77731 2.12854 0
M  V30 35467 H 3452.02 1.33086 0.864505 0
M  V30 35468 H 3452.05 1.27507 3.585 0
M  V30 35469 H 3451.56 2.83947 2.64567 0
M  V30 35470 H 3449.66 0.599929 3.67739 0
M  V30 35471 H 3449.77 2.4291 4.12955 0
M  V30 35472 H 3448.14 1.20703 2.24283 0
M  V30 35473 H 3448.92 2.84672 1.91877 0
M  V30 35474 N 3451.36 -1.22766 0.988245 0
M  V30 35475 C 3452.78 -1.43518 0.698186 0
M  V30 35476 C 3452.98 -1.87701 -0.732839 0
M  V30 35477 O 3452.04 -2.02796 -1.50433 0
M  V30 35478 C 3453.35 -2.48047 1.69979 0
M  V30 35479 C 3454.9 -2.61852 1.71472 0
M  V30 35480 C 3455.37 -3.69598 2.70484 0
M  V30 35481 N 3456.86 -3.7705 2.69049 0
M  V30 35482 C 3457.6 -4.6 3.42327 0
M  V30 35483 N 3457.09 -5.46979 4.2519 0
M  V30 35484 N 3458.89 -4.54268 3.31055 0
M  V30 35485 H 3451.04 -0.923914 1.91253 0
M  V30 35486 H 3453.3 -0.467768 0.824559 0
M  V30 35487 H 3453.01 -2.22518 2.72358 0
M  V30 35488 H 3452.88 -3.46571 1.48891 0
M  V30 35489 H 3455.27 -2.86728 0.697939 0
M  V30 35490 H 3455.35 -1.63619 1.96628 0
M  V30 35491 H 3454.99 -3.4547 3.72308 0
M  V30 35492 H 3454.92 -4.6739 2.42599 0
M  V30 35493 H 3457.41 -3.14899 2.08919 0
M  V30 35494 H 3457.73 -6.07283 4.7794 0
M  V30 35495 H 3456.07 -5.46576 4.29278 0
M  V30 35496 H 3459.26 -3.8534 2.65764 0
M  V30 35497 H 3459.44 -5.18683 3.88422 0
M  V30 35498 N 3452.84 -0.760864 -1.38017 0
M  V30 35499 C 3454.07 -0.330074 -2.04757 0
M  V30 35500 C 3454.49 1.03582 -1.57011 0
M  V30 35501 O 3453.85 1.66156 -0.725379 0
M  V30 35502 C 3453.9 -0.370145 -3.58695 0
M  V30 35503 O 3453 0.633289 -4.07509 0
M  V30 35504 H 3452.34 -0.144793 -0.648021 0
M  V30 35505 H 3454.87 -1.03402 -1.76548 0
M  V30 35506 H 3454.88 -0.223586 -4.07387 0
M  V30 35507 H 3453.56 -1.36668 -3.92804 0
M  V30 35508 H 3452.13 0.450745 -3.70166 0
M  V30 35509 N 3454.32 1.49102 -0.510519 0
M  V30 35510 C 3455.73 1.86586 -0.0651159 0
M  V30 35511 C 3456.08 1.42197 1.35183 0
M  V30 35512 O 3455.21 0.80404 2.00908 0
M  V30 35513 C 3455.8 3.38617 -0.111392 0
M  V30 35514 C 3454.36 3.75367 0.278716 0
M  V30 35515 C 3453.51 2.73118 -0.479755 0
M  V30 35516 H 3456.46 1.41284 -0.722809 0
M  V30 35517 H 3456.48 3.74345 0.68164 0
M  V30 35518 H 3455.99 3.70894 -1.14278 0
M  V30 35519 H 3454.09 3.487 1.31298 0
M  V30 35520 H 3454.21 4.79077 -0.0473552 0
M  V30 35521 H 3452.57 2.54599 0.0716011 0
M  V30 35522 H 3453.35 3.08239 -1.5114 0
M  V30 35523 N 3455.8 0.244768 1.55688 0
M  V30 35524 C 3456.76 -0.642344 2.20015 0
M  V30 35525 C 3457.76 -1.10435 1.16879 0
M  V30 35526 O 3458.95 -1.00941 1.41974 0
M  V30 35527 C 3456.08 -1.88262 2.84201 0
M  V30 35528 H 3457.28 -0.081141 2.9979 0
M  V30 35529 H 3454.83 -0.0047817 1.56299 0
M  V30 35530 H 3455.56 -2.4851 2.08358 0
M  V30 35531 H 3455.35 -1.55956 3.5975 0
M  V30 35532 H 3456.84 -2.51414 3.33438 0
M  V30 35533 N 3457.28 -1.57574 -0.0283712 0
M  V30 35534 C 3458.19 -2.10005 -1.04571 0
M  V30 35535 C 3459.2 -1.03883 -1.39586 0
M  V30 35536 O 3460.38 -1.35622 -1.48891 0
M  V30 35537 C 3457.44 -2.56959 -2.3275 0
M  V30 35538 C 3456.5 -3.77566 -2.0431 0
M  V30 35539 C 3455.74 -4.22271 -3.26378 0
M  V30 35540 O 3455.96 -3.66498 -4.37076 0
M  V30 35541 O 3454.89 -5.147 -3.12037 0
M  V30 35542 H 3458.72 -2.97091 -0.630131 0
M  V30 35543 H 3456.3 -1.47371 -0.245397 0
M  V30 35544 H 3458.19 -2.87487 -3.08106 0
M  V30 35545 H 3456.86 -1.72984 -2.73602 0
M  V30 35546 H 3455.77 -3.52056 -1.2652 0
M  V30 35547 H 3457.1 -4.62527 -1.68313 0
M  V30 35548 N 3458.75 0.300654 -1.54706 0
M  V30 35549 C 3460 1.03735 -1.74261 0
M  V30 35550 C 3460.33 1.86911 -0.527063 0
M  V30 35551 O 3459.61 1.8859 0.475828 0
M  V30 35552 C 3459.89 1.94305 -3.03179 0
M  V30 35553 C 3459.74 1.14307 -4.35033 0
M  V30 35554 C 3461.06 2.93472 -3.27967 0
M  V30 35555 H 3458.18 0.375719 -0.634038 0
M  V30 35556 H 3460.82 0.311979 -1.87421 0
M  V30 35557 H 3458.97 2.56155 -2.9209 0
M  V30 35558 H 3460.65 0.547408 -4.58041 0
M  V30 35559 H 3458.89 0.445794 -4.31503 0
M  V30 35560 H 3459.56 1.80931 -5.21505 0
M  V30 35561 H 3462.04 2.41751 -3.38668 0
M  V30 35562 H 3460.91 3.54008 -4.19487 0
M  V30 35563 H 3461.17 3.6715 -2.46279 0
M  V30 35564 N 3460.23 1.47168 0.563863 0
M  V30 35565 C 3461.18 1.59552 1.69251 0
M  V30 35566 C 3462.17 0.463107 1.62947 0
M  V30 35567 O 3463.38 0.640669 1.68212 0
M  V30 35568 H 3459.76 0.501993 0.559917 0
M  V30 35569 H 3461.73 2.5441 1.55942 0
M  V30 35570 C 3460.48 1.62072 3.07617 0
M  V30 35571 H 3459.8 2.48554 3.13147 0
M  V30 35572 H 3461.24 1.74788 3.86297 0
M  V30 35573 C 3459.7 0.35278 3.35048 0
M  V30 35574 O 3460.23 -0.548983 3.97931 0
M  V30 35575 N 3458.43 0.234856 2.89649 0
M  V30 35576 H 3457.98 0.969603 2.38656 0
M  V30 35577 H 3457.94 -0.612576 3.08375 0
M  V30 35578 N 3461.71 -0.810054 1.35188 0
M  V30 35579 C 3462.66 -1.94311 1.27852 0
M  V30 35580 C 3463.65 -1.68503 0.17411 0
M  V30 35581 O 3464.86 -1.76762 0.339879 0
M  V30 35582 H 3461.23 -0.638346 0.397515 0
M  V30 35583 H 3463.2 -1.97619 2.23583 0
M  V30 35584 C 3461.95 -3.31024 1.06387 0
M  V30 35585 H 3461.28 -3.51438 1.90608 0
M  V30 35586 H 3462.72 -4.10718 1.05295 0
M  V30 35587 C 3461.18 -3.36097 -0.232403 0
M  V30 35588 O 3461.71 -3.82425 -1.22939 0
M  V30 35589 N 3459.91 -2.89343 -0.269978 0
M  V30 35590 H 3459.46 -2.51835 0.541936 0
M  V30 35591 H 3459.42 -2.93119 -1.13703 0
M  V30 35592 N 3463.19 -1.19129 -1.0318 0
M  V30 35593 C 3464.14 -0.922937 -2.13506 0
M  V30 35594 C 3465.13 0.120141 -1.68973 0
M  V30 35595 O 3466.34 -0.0288323 -1.79977 0
M  V30 35596 H 3462.71 -0.281039 -0.697511 0
M  V30 35597 H 3464.68 -1.86007 -2.33332 0
M  V30 35598 C 3463.43 -0.474925 -3.44441 0
M  V30 35599 H 3462.75 -1.26909 -3.79123 0
M  V30 35600 H 3464.19 -0.326236 -4.22743 0
M  V30 35601 C 3462.65 0.810573 -3.27004 0
M  V30 35602 O 3463.18 1.87269 -3.55377 0
M  V30 35603 N 3461.39 0.766664 -2.80305 0
M  V30 35604 H 3460.94 -0.0979124 -2.57414 0
M  V30 35605 H 3460.89 1.62717 -2.69018 0
M  V30 35606 N 3464.67 1.2224 -0.994741 0
M  V30 35607 C 3466.08 1.72817 -0.706486 0
M  V30 35608 C 3466.43 1.80179 0.776535 0
M  V30 35609 O 3465.55 1.44934 1.60696 0
M  V30 35610 C 3466.15 3.13862 -1.27577 0
M  V30 35611 C 3464.71 3.61837 -1.03686 0
M  V30 35612 C 3463.85 2.39665 -1.39484 0
M  V30 35613 H 3466.81 1.07562 -1.16688 0
M  V30 35614 H 3466.83 3.74815 -0.655267 0
M  V30 35615 H 3466.34 3.08472 -2.35513 0
M  V30 35616 H 3464.44 3.72591 0.0258024 0
M  V30 35617 H 3464.55 4.47867 -1.70153 0
M  V30 35618 H 3462.92 2.41361 -0.81346 0
M  V30 35619 H 3463.7 2.36935 -2.48429 0
M  V30 35620 N 3466.14 0.768172 1.37611 0
M  V30 35621 C 3467.38 0.335996 2.0162 0
M  V30 35622 C 3467.75 -1.06641 1.59661 0
M  V30 35623 O 3468.95 -1.5985 2.16105 0
M  V30 35624 C 3467.22 0.470864 3.54285 0
M  V30 35625 S 3468.78 0.123424 4.38626 0
M  V30 35626 H 3465.6 0.12948 0.699111 0
M  V30 35627 H 3468.2 1.002 1.6787 0
M  V30 35628 H 3466.9 1.49222 3.8231 0
M  V30 35629 H 3466.43 -0.211817 3.92829 0
M  V30 35630 H 3468.45 -1.08222 4.84255 0
M  V30 35631 N 3467.62 -1.48829 0.518419 0
M  V30 35632 C 3468.55 -2.32267 -0.239644 0
M  V30 35633 C 3469.53 -1.41361 -0.946105 0
M  V30 35634 O 3470.72 -1.70258 -0.934132 0
M  V30 35635 C 3467.85 -3.22291 -1.29405 0
M  V30 35636 C 3466.8 -4.2213 -0.706429 0
M  V30 35637 C 3466.13 -5.01208 -1.86264 0
M  V30 35638 C 3467.43 -5.21354 0.31417 0
M  V30 35639 H 3469.12 -2.95894 0.456852 0
M  V30 35640 H 3466.67 -1.42292 0.221151 0
M  V30 35641 H 3468.62 -3.79483 -1.83223 0
M  V30 35642 H 3467.35 -2.56641 -2.01997 0
M  V30 35643 H 3466 -3.66108 -0.189859 0
M  V30 35644 H 3465.65 -4.31992 -2.57666 0
M  V30 35645 H 3465.35 -5.68775 -1.47544 0
M  V30 35646 H 3466.88 -5.61249 -2.40483 0
M  V30 35647 H 3468.29 -5.73137 -0.136503 0
M  V30 35648 H 3466.69 -5.96908 0.618131 0
M  V30 35649 H 3467.76 -4.69197 1.22402 0
M  V30 35650 N 3469.1 -0.253021 -1.55556 0
M  V30 35651 C 3470.01 0.654542 -2.25284 0
M  V30 35652 C 3471.03 1.18829 -1.27105 0
M  V30 35653 O 3472.2 1.22326 -1.59995 0
M  V30 35654 C 3469.27 1.83208 -2.94339 0
M  V30 35655 C 3468.33 1.33721 -4.07943 0
M  V30 35656 C 3467.56 2.45862 -4.73695 0
M  V30 35657 O 3467.78 3.64731 -4.38552 0
M  V30 35658 O 3466.72 2.15273 -5.62086 0
M  V30 35659 H 3470.54 0.0903558 -3.03566 0
M  V30 35660 H 3468.13 -0.0212797 -1.49385 0
M  V30 35661 H 3470.01 2.51914 -3.37813 0
M  V30 35662 H 3468.69 2.38378 -2.18993 0
M  V30 35663 H 3467.59 0.617258 -3.68973 0
M  V30 35664 H 3468.93 0.831532 -4.85125 0
M  V30 35665 N 3470.58 1.57587 0.0200142 0
M  V30 35666 C 3471.53 2.08246 1.03616 0
M  V30 35667 C 3472.52 0.998143 1.3687 0
M  V30 35668 O 3473.73 1.18296 1.35669 0
M  V30 35669 H 3470.1 0.664679 0.351719 0
M  V30 35670 H 3472.07 2.92646 0.583174 0
M  V30 35671 C 3470.82 2.5847 2.32569 0
M  V30 35672 H 3470.14 3.41527 2.07844 0
M  V30 35673 H 3471.58 2.97616 3.01994 0
M  V30 35674 C 3470.04 1.48991 3.02164 0
M  V30 35675 O 3470.57 0.86132 3.92357 0
M  V30 35676 N 3468.78 1.22224 2.63647 0
M  V30 35677 H 3468.33 1.73525 1.90386 0
M  V30 35678 H 3468.28 0.491883 3.10528 0
M  V30 35679 N 3472.06 -0.292445 1.54863 0
M  V30 35680 C 3473 -1.38094 1.87171 0
M  V30 35681 C 3474 -1.52079 0.746203 0
M  V30 35682 O 3475.2 -1.54095 0.930308 0
M  V30 35683 H 3471.58 -0.461446 0.593777 0
M  V30 35684 H 3473.55 -1.08085 2.78137 0
M  V30 35685 C 3472.3 -2.73793 2.1432 0
M  V30 35686 H 3471.62 -2.63815 3.00402 0
M  V30 35687 H 3473.06 -3.48945 2.4086 0
M  V30 35688 C 3471.52 -3.2339 0.94448 0
M  V30 35689 O 3472.05 -4.01343 0.169278 0
M  V30 35690 N 3470.26 -2.80821 0.747506 0
M  V30 35691 H 3469.8 -2.17545 1.37956 0
M  V30 35692 H 3469.76 -3.14355 -0.0529647 0
M  V30 35693 N 3473.53 -1.47465 -0.55605 0
M  V30 35694 C 3474.78 -1.53845 -1.31058 0
M  V30 35695 C 3475.1 -0.20284 -1.93942 0
M  V30 35696 O 3474.37 0.773306 -1.79991 0
M  V30 35697 H 3472.95 -0.566697 -0.486686 0
M  V30 35698 H 3475.62 -1.8377 -0.649208 0
M  V30 35699 H 3474.71 -2.30563 -2.1035 0
M  V30 35700 N 3475.01 0.802873 -1.35616 0
M  V30 35701 C 3476.26 1.55706 -1.28841 0
M  V30 35702 C 3476.58 1.94526 0.135872 0
M  V30 35703 O 3475.85 1.63892 1.07314 0
M  V30 35704 H 3474.43 0.577419 -0.473916 0
M  V30 35705 H 3477.09 0.957457 -1.69761 0
M  V30 35706 H 3476.19 2.47079 -1.90679 0
M  V30 35707 N 3476.49 1.19674 1.02547 0
M  V30 35708 C 3477.73 1.01264 1.77552 0
M  V30 35709 C 3478.1 -0.448325 1.86692 0
M  V30 35710 O 3479.3 -0.752341 2.58057 0
M  V30 35711 C 3477.57 1.66725 3.16129 0
M  V30 35712 S 3479.13 1.63298 4.07283 0
M  V30 35713 H 3475.94 0.363305 0.611171 0
M  V30 35714 H 3478.55 1.5208 1.22849 0
M  V30 35715 H 3477.25 2.7225 3.07097 0
M  V30 35716 H 3476.78 1.16003 3.75908 0
M  V30 35717 H 3478.8 0.659585 4.91797 0
M  V30 35718 N 3477.97 -1.21711 1.00121 0
M  V30 35719 C 3479.19 -1.95223 0.700206 0
M  V30 35720 C 3479.62 -1.73352 -0.730107 0
M  V30 35721 O 3478.98 -1.01797 -1.50024 0
M  V30 35722 C 3479.03 -3.45812 1.02208 0
M  V30 35723 O 3478.13 -4.1221 0.125261 0
M  V30 35724 H 3477.47 -0.610447 0.261249 0
M  V30 35725 H 3480 -1.54575 1.34043 0
M  V30 35726 H 3480.01 -3.96366 0.967362 0
M  V30 35727 H 3478.69 -3.61054 2.06428 0
M  V30 35728 H 3477.26 -3.72151 0.236179 0
M  V30 35729 N 3479.45 -0.775459 -1.37202 0
M  V30 35730 C 3480.4 -0.137707 -2.27584 0
M  V30 35731 C 3481.38 0.670109 -1.46282 0
M  V30 35732 O 3482.57 0.532473 -1.68801 0
M  V30 35733 C 3479.7 0.737671 -3.35281 0
M  V30 35734 C 3478.79 -0.0781766 -4.24028 0
M  V30 35735 N 3479.18 -1.12568 -4.93115 0
M  V30 35736 C 3477.48 0.145216 -4.45764 0
M  V30 35737 C 3478.18 -1.62117 -5.58653 0
M  V30 35738 N 3477.15 -0.932716 -5.35538 0
M  V30 35739 H 3480.96 -0.939659 -2.78474 0
M  V30 35740 H 3478.47 -0.613571 -1.50363 0
M  V30 35741 H 3480.47 1.21036 -3.98943 0
M  V30 35742 H 3479.13 1.53833 -2.85947 0
M  V30 35743 H 3480.14 -1.50789 -4.95462 0
M  V30 35744 H 3476.82 0.917486 -4.07294 0
M  V30 35745 H 3478.21 -2.49493 -6.23861 0
M  V30 35746 N 3480.93 1.48552 -0.526305 0
M  V30 35747 C 3481.86 2.32391 0.227323 0
M  V30 35748 C 3482.84 1.41861 0.938595 0
M  V30 35749 O 3484.02 1.70751 0.925089 0
M  V30 35750 C 3481.15 3.22973 1.27694 0
M  V30 35751 C 3480.11 4.22499 0.684033 0
M  V30 35752 C 3479.43 5.02189 1.83603 0
M  V30 35753 C 3480.73 5.2118 -0.341814 0
M  V30 35754 H 3482.43 2.95647 -0.472538 0
M  V30 35755 H 3479.97 1.42172 -0.228694 0
M  V30 35756 H 3481.92 3.80449 1.81208 0
M  V30 35757 H 3480.65 2.57709 2.00633 0
M  V30 35758 H 3479.31 3.66204 0.170441 0
M  V30 35759 H 3478.96 4.33353 2.55371 0
M  V30 35760 H 3478.66 5.69549 1.44526 0
M  V30 35761 H 3480.18 5.62516 2.37503 0
M  V30 35762 H 3481.59 5.73202 0.106107 0
M  V30 35763 H 3479.99 5.96572 -0.649777 0
M  V30 35764 H 3481.06 4.68541 -1.24888 0
M  V30 35765 N 3482.4 0.261267 1.55419 0
M  V30 35766 C 3483.64 -0.360813 2.0119 0
M  V30 35767 C 3484.01 -1.54078 1.1456 0
M  V30 35768 O 3485.21 -2.23156 1.4985 0
M  V30 35769 C 3483.48 -0.746618 3.49514 0
M  V30 35770 S 3485.04 -1.35719 4.17284 0
M  V30 35771 H 3481.86 -0.112891 0.70198 0
M  V30 35772 H 3484.46 0.379863 1.91774 0
M  V30 35773 H 3483.16 0.121244 4.10221 0
M  V30 35774 H 3482.69 -1.51911 3.62887 0
M  V30 35775 H 3484.71 -2.64605 4.1976 0
M  V30 35776 N 3483.88 -1.57596 -0.0116567 0
M  V30 35777 C 3485.13 -1.90056 -0.698925 0
M  V30 35778 C 3485.46 -0.860689 -1.7442 0
M  V30 35779 O 3484.71 0.136098 -1.95226 0
M  V30 35780 C 3485.01 -3.29271 -1.38979 0
M  V30 35781 C 3484.68 -4.4835 -0.478837 0
M  V30 35782 C 3483.34 -4.8066 -0.227986 0
M  V30 35783 C 3485.69 -5.20987 0.149061 0
M  V30 35784 C 3483.02 -5.82984 0.65925 0
M  V30 35785 C 3485.37 -6.24255 1.0241 0
M  V30 35786 C 3484.03 -6.55029 1.28425 0
M  V30 35787 H 3483.3 -0.695464 -0.255755 0
M  V30 35788 H 3485.95 -1.91455 0.0413676 0
M  V30 35789 H 3484.26 -3.23941 -2.20384 0
M  V30 35790 H 3485.95 -3.51642 -1.92741 0
M  V30 35791 H 3482.54 -4.23099 -0.684515 0
M  V30 35792 H 3486.73 -4.9629 -0.0317454 0
M  V30 35793 H 3481.98 -6.05194 0.868926 0
M  V30 35794 H 3486.16 -6.79675 1.51706 0
M  V30 35795 H 3483.78 -7.34138 1.97345 0
M  V30 35796 N 3485.36 0.284228 -1.55016 0
M  V30 35797 C 3486.32 1.33423 -1.86362 0
M  V30 35798 C 3487.32 1.42891 -0.737482 0
M  V30 35799 O 3488.51 1.42236 -1.00571 0
M  V30 35800 C 3485.64 2.71703 -2.05889 0
M  V30 35801 H 3486.84 1.06864 -2.80214 0
M  V30 35802 H 3484.39 0.521741 -1.47335 0
M  V30 35803 H 3485.13 3.03459 -1.14381 0
M  V30 35804 H 3484.91 2.66219 -2.87871 0
M  V30 35805 H 3486.4 3.47591 -2.31453 0
M  V30 35806 N 3486.84 1.47758 0.548222 0
M  V30 35807 C 3487.77 1.63802 1.66406 0
M  V30 35808 C 3488.75 0.48724 1.62972 0
M  V30 35809 O 3489.93 0.717644 1.80454 0
M  V30 35810 C 3487.06 1.66051 3.05032 0
M  V30 35811 C 3486.02 2.80447 3.23317 0
M  V30 35812 C 3485.34 2.67773 4.62819 0
M  V30 35813 C 3486.64 4.21945 3.0783 0
M  V30 35814 H 3488.34 2.57215 1.53234 0
M  V30 35815 H 3485.88 1.23784 0.735761 0
M  V30 35816 H 3487.84 1.75866 3.82948 0
M  V30 35817 H 3486.56 0.692046 3.19184 0
M  V30 35818 H 3485.22 2.70157 2.47812 0
M  V30 35819 H 3484.87 1.68935 4.73783 0
M  V30 35820 H 3484.57 3.44524 4.76001 0
M  V30 35821 H 3486.09 2.79529 5.42859 0
M  V30 35822 H 3487.51 4.33164 3.75555 0
M  V30 35823 H 3485.9 4.99553 3.32517 0
M  V30 35824 H 3486.97 4.39683 2.04467 0
M  V30 35825 N 3488.32 -0.79567 1.3604 0
M  V30 35826 C 3489.73 -1.37042 1.26792 0
M  V30 35827 C 3490.08 -1.9597 -0.0949848 0
M  V30 35828 O 3489.2 -1.92102 -0.996278 0
M  V30 35829 C 3489.8 -2.49147 2.29589 0
M  V30 35830 C 3488.36 -3.02454 2.2405 0
M  V30 35831 C 3487.5 -1.75489 2.14706 0
M  V30 35832 H 3490.45 -0.597817 1.4701 0
M  V30 35833 H 3490.48 -3.27996 1.9287 0
M  V30 35834 H 3489.99 -2.06228 3.28773 0
M  V30 35835 H 3488.09 -3.49809 1.28313 0
M  V30 35836 H 3488.2 -3.59694 3.16476 0
M  V30 35837 H 3486.57 -1.97475 1.60859 0
M  V30 35838 H 3487.35 -1.34707 3.15767 0
M  V30 35839 N 3489.79 -1.20217 -1.0191 0
M  V30 35840 C 3491.04 -1.0088 -1.75122 0
M  V30 35841 C 3491.36 0.460441 -1.89486 0
M  V30 35842 O 3490.63 1.333 -1.43555 0
M  V30 35843 H 3489.21 -0.370278 -0.648771 0
M  V30 35844 H 3491.88 -1.51282 -1.22881 0
M  V30 35845 H 3490.97 -1.46504 -2.75578 0
M  V30 35846 N 3491.27 1.21178 -1.00765 0
M  V30 35847 C 3492.2 2.25909 -0.590533 0
M  V30 35848 C 3493.18 1.65569 0.389973 0
M  V30 35849 O 3494.37 1.92209 0.277373 0
M  V30 35850 C 3491.5 3.47206 0.0809778 0
M  V30 35851 C 3490.45 4.2008 -0.819583 0
M  V30 35852 C 3489.78 5.34698 -0.014338 0
M  V30 35853 C 3491.08 4.77187 -2.12344 0
M  V30 35854 H 3492.77 2.61054 -1.46599 0
M  V30 35855 H 3490.32 1.25486 -0.706343 0
M  V30 35856 H 3492.27 4.19644 0.384282 0
M  V30 35857 H 3491 3.11199 0.99109 0
M  V30 35858 H 3489.65 3.49495 -1.10675 0
M  V30 35859 H 3489.3 4.94935 0.897146 0
M  V30 35860 H 3489 5.84383 -0.613986 0
M  V30 35861 H 3490.53 6.09945 0.28272 0
M  V30 35862 H 3491.94 5.4149 -1.88311 0
M  V30 35863 H 3490.34 5.37272 -2.67317 0
M  V30 35864 H 3491.41 3.96422 -2.79245 0
M  V30 35865 N 3492.75 0.782725 1.36789 0
M  V30 35866 C 3493.7 0.149774 2.27508 0
M  V30 35867 C 3494.68 -0.662342 1.46635 0
M  V30 35868 O 3495.88 -0.523514 1.69081 0
M  V30 35869 C 3493.01 -0.71988 3.35667 0
M  V30 35870 C 3492.09 0.100663 4.23981 0
M  V30 35871 N 3492.48 1.15182 4.92511 0
M  V30 35872 C 3490.78 -0.121574 4.45834 0
M  V30 35873 C 3491.48 1.65077 5.57785 0
M  V30 35874 N 3490.46 0.961104 5.35036 0
M  V30 35875 H 3494.26 0.954414 2.77972 0
M  V30 35876 H 3491.77 0.621536 1.50036 0
M  V30 35877 H 3493.77 -1.18919 3.9958 0
M  V30 35878 H 3492.43 -1.52314 2.86759 0
M  V30 35879 H 3493.44 1.53415 4.94656 0
M  V30 35880 H 3490.12 -0.895873 4.07775 0
M  V30 35881 H 3491.51 2.52798 6.2253 0
M  V30 35882 N 3494.23 -1.48271 0.534176 0
M  V30 35883 C 3495.46 -2.06899 0.00578112 0
M  V30 35884 C 3495.87 -1.39014 -1.27752 0
M  V30 35885 O 3495.23 -0.479024 -1.76101 0
M  V30 35886 C 3495.28 -3.60845 -0.217513 0
M  V30 35887 O 3495 -4.26181 1.01495 0
M  V30 35888 C 3496.5 -4.3628 -0.785812 0
M  V30 35889 H 3493.72 -0.670065 0.0354084 0
M  V30 35890 H 3496.27 -1.90602 0.741017 0
M  V30 35891 H 3494.42 -3.76733 -0.902809 0
M  V30 35892 H 3494.83 -5.18389 0.798291 0
M  V30 35893 H 3496.31 -5.44754 -0.891455 0
M  V30 35894 H 3496.79 -4.00992 -1.79171 0
M  V30 35895 H 3497.39 -4.25079 -0.136948 0
M  V30 35896 N 3495.71 -0.269505 -1.55279 0
M  V30 35897 C 3497.12 0.229339 -1.85286 0
M  V30 35898 C 3497.47 1.55877 -1.19151 0
M  V30 35899 O 3496.59 2.11058 -0.477837 0
M  V30 35900 C 3497.19 0.422901 -3.3615 0
M  V30 35901 C 3495.75 0.865983 -3.66303 0
M  V30 35902 C 3494.89 -0.0439516 -2.77265 0
M  V30 35903 H 3497.85 -0.491453 -1.50899 0
M  V30 35904 H 3497.87 1.26228 -3.58952 0
M  V30 35905 H 3497.38 -0.544835 -3.84257 0
M  V30 35906 H 3495.48 1.84539 -3.23691 0
M  V30 35907 H 3495.59 0.707191 -4.73852 0
M  V30 35908 H 3493.96 0.471389 -2.503 0
M  V30 35909 H 3494.74 -1.00747 -3.28184 0
M  V30 35910 N 3497.18 1.576 0.00329885 0
M  V30 35911 C 3498.13 2.08214 0.995774 0
M  V30 35912 C 3499.1 0.976828 1.3434 0
M  V30 35913 O 3500.29 1.24905 1.44234 0
M  V30 35914 C 3497.43 2.58743 2.28355 0
M  V30 35915 C 3496.54 3.83163 1.99524 0
M  V30 35916 C 3495.67 4.22206 3.22359 0
M  V30 35917 C 3494.71 5.39472 2.892 0
M  V30 35918 N 3493.85 5.73824 4.04562 0
M  V30 35919 H 3498.69 2.92744 0.557218 0
M  V30 35920 H 3496.23 1.44721 0.263487 0
M  V30 35921 H 3498.19 2.86116 3.03634 0
M  V30 35922 H 3496.82 1.77092 2.69886 0
M  V30 35923 H 3495.87 3.62718 1.14628 0
M  V30 35924 H 3497.18 4.68543 1.71081 0
M  V30 35925 H 3496.33 4.50844 4.05986 0
M  V30 35926 H 3495.07 3.35528 3.53938 0
M  V30 35927 H 3494.08 5.10561 2.0398 0
M  V30 35928 H 3495.3 6.27823 2.58872 0
M  V30 35929 H 3493.25 4.90104 4.36044 0
M  V30 35930 H 3493.17 6.5377 3.79632 0
M  V30 35931 H 3494.43 6.07051 4.88988 0
M  V30 35932 N 3498.66 -0.276003 1.55164 0
M  V30 35933 C 3499.9 -1.01569 1.77378 0
M  V30 35934 C 3500.27 -1.83608 0.561452 0
M  V30 35935 O 3501.47 -2.60526 0.66179 0
M  V30 35936 C 3499.74 -1.87733 3.04124 0
M  V30 35937 S 3501.3 -2.68007 3.47444 0
M  V30 35938 H 3498.12 -0.342142 0.623266 0
M  V30 35939 H 3500.72 -0.286422 1.9339 0
M  V30 35940 H 3499.42 -1.26382 3.90456 0
M  V30 35941 H 3498.95 -2.64985 2.90769 0
M  V30 35942 H 3500.97 -3.90235 3.06481 0
M  V30 35943 N 3500.14 -1.48046 -0.540378 0
M  V30 35944 C 3501.42 -1.46019 -1.30145 0
M  V30 35945 C 3501.8 -0.166208 -2.10445 0
M  V30 35946 O 3501.15 0.852186 -2.12014 0
M  V30 35947 C 3501.36 -2.71596 -2.19172 0
M  V30 35948 C 3502.7 -3.19502 -2.79649 0
M  V30 35949 O 3503.73 -2.72441 -2.29465 0
M  V30 35950 O 3502.59 -4.01362 -3.70905 0
M  V30 35951 H 3499.68 -0.582679 -0.586868 0
M  V30 35952 H 3502.23 -1.60268 -0.55789 0
M  V30 35953 H 3501 -3.57295 -1.5955 0
M  V30 35954 H 3500.62 -2.60017 -3.00794 0
M  V30 35955 N 3501.62 0.788444 -1.3646 0
M  V30 35956 C 3502.86 1.55955 -1.32127 0
M  V30 35957 C 3503.22 1.91749 0.0981228 0
M  V30 35958 O 3504.42 2.6748 0.26602 0
M  V30 35959 C 3502.69 2.80166 -2.21905 0
M  V30 35960 S 3504.25 3.704 -2.35264 0
M  V30 35961 H 3501.07 0.534125 -0.469289 0
M  V30 35962 H 3503.67 0.928556 -1.72041 0
M  V30 35963 H 3502.38 2.51923 -3.2398 0
M  V30 35964 H 3501.91 3.48238 -1.83014 0
M  V30 35965 H 3503.92 4.71342 -1.55085 0
M  V30 35966 N 3503.1 1.20755 1.01271 0
M  V30 35967 C 3504.06 0.961565 2.08054 0
M  V30 35968 C 3505.06 -0.0644178 1.60671 0
M  V30 35969 O 3506.25 0.172052 1.73348 0
M  V30 35970 C 3503.38 0.448441 3.37938 0
M  V30 35971 H 3504.57 1.90881 2.3131 0
M  V30 35972 H 3502.13 1.02346 1.18131 0
M  V30 35973 H 3502.86 -0.504088 3.20358 0
M  V30 35974 H 3502.65 1.1884 3.73657 0
M  V30 35975 H 3504.14 0.295949 4.1655 0
M  V30 35976 N 3504.58 -1.20642 1.01406 0
M  V30 35977 C 3505.82 -1.89945 0.701942 0
M  V30 35978 C 3506.15 -1.78688 -0.768181 0
M  V30 35979 O 3505.41 -1.16365 -1.57346 0
M  V30 35980 C 3505.7 -3.40691 1.08001 0
M  V30 35981 C 3505.37 -3.72148 2.54592 0
M  V30 35982 C 3504.03 -3.80444 2.94646 0
M  V30 35983 C 3506.38 -3.86648 3.49504 0
M  V30 35984 C 3503.71 -4.00694 4.28557 0
M  V30 35985 C 3506.06 -4.08408 4.831 0
M  V30 35986 C 3504.73 -4.14933 5.22864 0
M  V30 35987 H 3504 -0.695057 0.256859 0
M  V30 35988 H 3506.65 -1.42958 1.27418 0
M  V30 35989 H 3504.95 -3.89475 0.426158 0
M  V30 35990 H 3506.65 -3.92605 0.816245 0
M  V30 35991 H 3503.24 -3.66289 2.22555 0
M  V30 35992 H 3507.42 -3.79596 3.19719 0
M  V30 35993 H 3502.68 -4.0398 4.58923 0
M  V30 35994 H 3506.85 -4.1857 5.56572 0
M  V30 35995 H 3504.48 -4.30377 6.26642 0
M  V30 35996 N 3506.05 -0.789968 -1.36372 0
M  V30 35997 C 3507.3 -0.3619 -1.98833 0
M  V30 35998 C 3507.62 1.07021 -1.63008 0
M  V30 35999 O 3506.89 1.73777 -0.904343 0
M  V30 36000 H 3505.47 -0.130825 -0.735455 0
M  V30 36001 H 3508.13 -1.01213 -1.66559 0
M  V30 36002 H 3507.23 -0.454176 -3.08778 0
M  V30 36003 N 3507.53 1.47986 -0.542031 0
M  V30 36004 C 3508.76 2.06893 -0.0167534 0
M  V30 36005 C 3509.17 1.3969 1.27013 0
M  V30 36006 O 3508.53 0.488357 1.75845 0
M  V30 36007 C 3508.58 3.60955 0.198373 0
M  V30 36008 O 3508.3 4.25637 -1.03753 0
M  V30 36009 C 3509.8 4.3669 0.762664 0
M  V30 36010 H 3507.02 0.669868 -0.0389614 0
M  V30 36011 H 3509.57 1.90206 -0.751115 0
M  V30 36012 H 3507.72 3.77207 0.882817 0
M  V30 36013 H 3508.14 5.17959 -0.825771 0
M  V30 36014 H 3509.61 5.45219 0.862553 0
M  V30 36015 H 3510.09 4.01936 1.77042 0
M  V30 36016 H 3510.69 4.25146 0.114403 0
M  V30 36017 N 3509.01 0.277736 1.55133 0
M  V30 36018 C 3509.94 -0.602192 2.25601 0
M  V30 36019 C 3510.92 -1.15678 1.2471 0
M  V30 36020 O 3512.11 -1.19044 1.53435 0
M  V30 36021 C 3509.24 -1.78514 2.9791 0
M  V30 36022 C 3508.19 -1.36196 4.05752 0
M  V30 36023 C 3507.52 -2.62821 4.65649 0
M  V30 36024 C 3508.82 -0.510236 5.19802 0
M  V30 36025 H 3510.51 -0.0145096 2.99396 0
M  V30 36026 H 3508.06 -0.00553857 1.43999 0
M  V30 36027 H 3510.01 -2.40662 3.45919 0
M  V30 36028 H 3508.73 -2.39869 2.21654 0
M  V30 36029 H 3507.39 -0.763663 3.58558 0
M  V30 36030 H 3507.04 -3.22441 3.86058 0
M  V30 36031 H 3506.74 -2.35217 5.38467 0
M  V30 36032 H 3508.26 -3.25813 5.16409 0
M  V30 36033 H 3509.68 -1.03679 5.63847 0
M  V30 36034 H 3508.07 -0.328967 5.99198 0
M  V30 36035 H 3509.14 0.470358 4.82613 0
M  V30 36036 N 3510.49 -1.57599 0.00505908 0
M  V30 36037 C 3511.42 -2.056 -1.01299 0
M  V30 36038 C 3512.43 -0.974852 -1.30386 0
M  V30 36039 O 3513.62 -1.25155 -1.27273 0
M  V30 36040 C 3510.72 -2.44526 -2.34649 0
M  V30 36041 C 3509.89 -3.75434 -2.24429 0
M  V30 36042 C 3508.95 -4.01172 -3.4051 0
M  V30 36043 O 3507.98 -4.71768 -3.18471 0
M  V30 36044 N 3509.18 -3.49462 -4.63526 0
M  V30 36045 H 3511.95 -2.93559 -0.603604 0
M  V30 36046 H 3509.51 -1.60871 -0.18222 0
M  V30 36047 H 3511.5 -2.58855 -3.11089 0
M  V30 36048 H 3510.07 -1.62059 -2.67312 0
M  V30 36049 H 3509.29 -3.71133 -1.32868 0
M  V30 36050 H 3510.58 -4.61246 -2.14778 0
M  V30 36051 H 3509.98 -2.92304 -4.84329 0
M  V30 36052 H 3508.53 -3.69113 -5.37214 0
M  V30 36053 N 3511.97 0.267771 -1.55309 0
M  V30 36054 C 3513.19 1.02104 -1.80526 0
M  V30 36055 C 3513.62 1.78957 -0.579299 0
M  V30 36056 O 3512.97 1.75069 0.471231 0
M  V30 36057 C 3513.02 1.95117 -3.03252 0
M  V30 36058 O 3512.13 3.0397 -2.78704 0
M  V30 36059 H 3511.47 0.291644 -0.596523 0
M  V30 36060 H 3514 0.295092 -2.02461 0
M  V30 36061 H 3514.01 2.36974 -3.32126 0
M  V30 36062 H 3512.68 1.38593 -3.92129 0
M  V30 36063 H 3511.26 2.66391 -2.60941 0
M  V30 36064 N 3513.44 1.48331 0.532519 0
M  V30 36065 C 3514.72 1.46707 1.29369 0
M  V30 36066 C 3515.1 0.177366 2.10354 0
M  V30 36067 O 3514.45 -0.840931 2.12463 0
M  V30 36068 C 3514.66 2.72755 2.17729 0
M  V30 36069 C 3516.01 3.20981 2.77951 0
M  V30 36070 O 3517.03 2.73654 2.28017 0
M  V30 36071 O 3515.89 4.03323 3.68772 0
M  V30 36072 H 3512.98 0.585783 0.58377 0
M  V30 36073 H 3515.53 1.60561 0.549383 0
M  V30 36074 H 3514.3 3.58136 1.57653 0
M  V30 36075 H 3513.92 2.61609 2.99411 0
M  V30 36076 N 3514.92 -0.781196 1.36876 0
M  V30 36077 C 3516.17 -1.53636 1.31302 0
M  V30 36078 C 3516.49 -1.94718 -0.104907 0
M  V30 36079 O 3515.76 -1.65578 -1.04693 0
M  V30 36080 H 3514.34 -0.569806 0.483042 0
M  V30 36081 H 3517 -0.930329 1.71263 0
M  V30 36082 H 3516.1 -2.44014 1.94586 0
M  V30 36083 N 3516.4 -1.21291 -1.0063 0
M  V30 36084 C 3517.35 -0.971007 -2.0938 0
M  V30 36085 C 3518.32 0.102532 -1.65783 0
M  V30 36086 O 3519.5 -0.0443221 -1.90749 0
M  V30 36087 C 3516.64 -0.540374 -3.40843 0
M  V30 36088 C 3515.75 -1.68321 -3.97859 0
M  V30 36089 C 3514.89 -1.20187 -5.17425 0
M  V30 36090 C 3513.93 -2.31712 -5.66547 0
M  V30 36091 N 3513.07 -1.84721 -6.77364 0
M  V30 36092 H 3517.91 -1.90201 -2.29407 0
M  V30 36093 H 3515.44 -0.947905 -1.12486 0
M  V30 36094 H 3517.4 -0.271954 -4.16313 0
M  V30 36095 H 3516.03 0.353621 -3.20857 0
M  V30 36096 H 3515.08 -2.06629 -3.19388 0
M  V30 36097 H 3516.39 -2.5226 -4.3031 0
M  V30 36098 H 3515.55 -0.890031 -6.00136 0
M  V30 36099 H 3514.29 -0.332508 -4.86565 0
M  V30 36100 H 3513.29 -2.637 -4.82434 0
M  V30 36101 H 3514.52 -3.19142 -5.99438 0
M  V30 36102 H 3512.46 -1.00127 -6.48314 0
M  V30 36103 H 3512.38 -2.62234 -7.09062 0
M  V30 36104 H 3513.65 -1.56567 -7.63614 0
M  V30 36105 N 3517.88 1.20103 -1.02045 0
M  V30 36106 C 3518.83 2.25062 -0.587371 0
M  V30 36107 C 3519.82 1.65179 0.375815 0
M  V30 36108 O 3521.03 1.78321 0.245316 0
M  V30 36109 H 3517.4 0.732148 -0.17165 0
M  V30 36110 H 3519.37 2.58915 -1.48344 0
M  V30 36111 C 3518.12 3.47657 0.0546282 0
M  V30 36112 H 3517.44 3.94017 -0.677526 0
M  V30 36113 H 3518.88 4.22785 0.320712 0
M  V30 36114 C 3517.34 3.10865 1.29863 0
M  V30 36115 O 3517.87 3.2275 2.39156 0
M  V30 36116 N 3516.08 2.65378 1.18419 0
M  V30 36117 H 3515.63 2.55907 0.29485 0
M  V30 36118 H 3515.58 2.41131 2.0175 0
M  V30 36119 N 3519.36 0.797189 1.35951 0
M  V30 36120 C 3520.6 0.378687 2.00861 0
M  V30 36121 C 3520.96 -1.0323 1.61887 0
M  V30 36122 O 3522.16 -1.5523 2.19447 0
M  V30 36123 C 3520.43 0.545907 3.53206 0
M  V30 36124 S 3521.99 0.216435 4.38266 0
M  V30 36125 H 3518.81 0.14428 0.696207 0
M  V30 36126 H 3521.41 1.03738 1.65706 0
M  V30 36127 H 3520.12 1.57298 3.79059 0
M  V30 36128 H 3519.65 -0.128444 3.9319 0
M  V30 36129 H 3521.66 -0.979259 4.86441 0
M  V30 36130 N 3520.83 -1.47696 0.549872 0
M  V30 36131 C 3521.8 -2.284 -0.191386 0
M  V30 36132 C 3522.8 -1.36528 -0.849509 0
M  V30 36133 O 3523.99 -1.5923 -0.706498 0
M  V30 36134 C 3521.12 -3.15997 -1.27902 0
M  V30 36135 H 3522.31 -2.95403 0.517427 0
M  V30 36136 H 3519.87 -1.53265 0.306537 0
M  V30 36137 H 3520.6 -2.53669 -2.02046 0
M  V30 36138 H 3520.39 -3.836 -0.811999 0
M  V30 36139 H 3521.88 -3.76822 -1.79985 0
M  V30 36140 N 3522.31 -0.285959 -1.54984 0
M  V30 36141 C 3523.56 0.328398 -1.99009 0
M  V30 36142 C 3523.87 1.56156 -1.1779 0
M  V30 36143 O 3525.08 2.24956 -1.5201 0
M  V30 36144 C 3523.54 0.635626 -3.54243 0
M  V30 36145 C 3523.14 -0.578349 -4.44251 0
M  V30 36146 C 3524.89 1.21201 -4.0683 0
M  V30 36147 C 3522.8 -0.245107 -5.90892 0
M  V30 36148 H 3521.73 0.126481 -0.743316 0
M  V30 36149 H 3524.38 -0.392312 -1.79257 0
M  V30 36150 H 3522.76 1.41553 -3.69836 0
M  V30 36151 H 3523.93 -1.35496 -4.40429 0
M  V30 36152 H 3522.25 -1.07232 -4.02356 0
M  V30 36153 H 3524.84 1.47532 -5.13944 0
M  V30 36154 H 3525.19 2.14942 -3.56519 0
M  V30 36155 H 3525.72 0.494152 -3.94719 0
M  V30 36156 H 3522.46 -1.15068 -6.45321 0
M  V30 36157 H 3521.98 0.494531 -5.97758 0
M  V30 36158 H 3523.66 0.158777 -6.46805 0
M  V30 36159 N 3523.79 1.57594 -0.0134169 0
M  V30 36160 C 3525.02 1.95837 0.68282 0
M  V30 36161 C 3525.44 0.889078 1.65762 0
M  V30 36162 O 3524.8 -0.151553 1.80665 0
M  V30 36163 C 3524.85 3.3318 1.37925 0
M  V30 36164 O 3523.95 3.28433 2.4941 0
M  V30 36165 H 3523.29 0.638963 0.180618 0
M  V30 36166 H 3525.82 2.04478 -0.0706003 0
M  V30 36167 H 3525.83 3.69054 1.73963 0
M  V30 36168 H 3524.51 4.10556 0.664602 0
M  V30 36169 H 3523.08 3.04255 2.156 0
M  V30 36170 N 3525.27 -0.259531 1.55448 0
M  V30 36171 C 3526.5 -1.0072 1.80729 0
M  V30 36172 C 3526.91 -1.7943 0.587385 0
M  V30 36173 O 3526.27 -1.77022 -0.443788 0
M  V30 36174 C 3526.32 -1.95512 3.04068 0
M  V30 36175 O 3526.04 -1.19989 4.21348 0
M  V30 36176 C 3527.54 -2.81982 3.42054 0
M  V30 36177 H 3524.76 -0.296945 0.601718 0
M  V30 36178 H 3527.31 -0.286237 2.02487 0
M  V30 36179 H 3525.46 -2.63053 2.84397 0
M  V30 36180 H 3525.87 -1.83997 4.91167 0
M  V30 36181 H 3527.35 -3.44266 4.31491 0
M  V30 36182 H 3527.83 -3.52447 2.62065 0
M  V30 36183 H 3528.43 -2.19912 3.64031 0
M  V30 36184 N 3526.75 -1.48611 -0.524645 0
M  V30 36185 C 3527.66 -1.66223 -1.65551 0
M  V30 36186 C 3528.67 -0.544739 -1.65253 0
M  V30 36187 O 3529.85 -0.816487 -1.84107 0
M  V30 36188 C 3526.91 -1.70286 -3.02 0
M  V30 36189 C 3525.97 -2.93701 -3.13111 0
M  V30 36190 C 3525.21 -2.9756 -4.4305 0
M  V30 36191 O 3525.43 -2.09677 -5.30464 0
M  V30 36192 O 3524.36 -3.89787 -4.58639 0
M  V30 36193 H 3528.19 -2.61977 -1.53628 0
M  V30 36194 H 3525.78 -1.32075 -0.698331 0
M  V30 36195 H 3527.66 -1.75448 -3.8314 0
M  V30 36196 H 3526.33 -0.777057 -3.14235 0
M  V30 36197 H 3525.24 -2.94068 -2.31246 0
M  V30 36198 H 3526.57 -3.85683 -3.05794 0
M  V30 36199 N 3528.22 0.773926 -1.37289 0
M  V30 36200 C 3529.17 1.90853 -1.32959 0
M  V30 36201 C 3530.17 1.67982 -0.218725 0
M  V30 36202 O 3531.37 1.75799 -0.386625 0
M  V30 36203 H 3527.75 0.627583 -0.4143 0
M  V30 36204 H 3529.72 1.91622 -2.28744 0
M  V30 36205 C 3528.47 3.28087 -1.15127 0
M  V30 36206 H 3527.79 3.46261 -1.99858 0
M  V30 36207 H 3529.23 4.07782 -1.16147 0
M  V30 36208 C 3527.69 3.36595 0.143211 0
M  V30 36209 O 3528.22 3.8555 1.12756 0
M  V30 36210 N 3526.43 2.89957 0.193168 0
M  V30 36211 H 3525.97 2.5031 -0.608515 0
M  V30 36212 H 3525.93 2.96031 1.05891 0
M  V30 36213 N 3529.7 1.21823 0.99985 0
M  V30 36214 C 3530.95 1.03858 1.73838 0
M  V30 36215 C 3531.28 -0.427237 1.8975 0
M  V30 36216 O 3530.53 -1.3332 1.43263 0
M  V30 36217 C 3530.83 1.68686 3.15087 0
M  V30 36218 C 3530.5 3.18559 3.1911 0
M  V30 36219 C 3529.16 3.59455 3.19914 0
M  V30 36220 C 3531.51 4.14521 3.15946 0
M  V30 36221 C 3528.84 4.94809 3.15248 0
M  V30 36222 C 3531.19 5.49841 3.12822 0
M  V30 36223 C 3529.86 5.90128 3.11939 0
M  V30 36224 H 3529.13 0.380043 0.63612 0
M  V30 36225 H 3531.77 1.51487 1.17149 0
M  V30 36226 H 3530.08 1.13363 3.75042 0
M  V30 36227 H 3531.77 1.52283 3.70959 0
M  V30 36228 H 3528.36 2.85991 3.19229 0
M  V30 36229 H 3532.55 3.83948 3.1448 0
M  V30 36230 H 3527.8 5.25262 3.12905 0
M  V30 36231 H 3531.98 6.2393 3.09329 0
M  V30 36232 H 3529.61 6.94977 3.08077 0
M  V30 36233 N 3531.18 -1.1956 1.0268 0
M  V30 36234 C 3532.11 -2.24941 0.626398 0
M  V30 36235 C 3533.09 -1.66169 -0.363583 0
M  V30 36236 O 3534.28 -1.92626 -0.246759 0
M  V30 36237 C 3531.41 -3.4729 -0.0257301 0
M  V30 36238 C 3530.36 -4.18723 0.886311 0
M  V30 36239 C 3529.69 -5.34608 0.099402 0
M  V30 36240 C 3530.99 -4.73748 2.19909 0
M  V30 36241 H 3532.68 -2.58688 1.50734 0
M  V30 36242 H 3530.23 -1.24347 0.726217 0
M  V30 36243 H 3532.18 -4.20202 -0.317471 0
M  V30 36244 H 3530.9 -3.12737 -0.941456 0
M  V30 36245 H 3529.56 -3.4769 1.16221 0
M  V30 36246 H 3529.21 -4.96299 -0.818293 0
M  V30 36247 H 3528.91 -5.83333 0.706878 0
M  V30 36248 H 3530.43 -6.10318 -0.185647 0
M  V30 36249 H 3531.85 -5.38426 1.96902 0
M  V30 36250 H 3530.25 -5.32952 2.75831 0
M  V30 36251 H 3531.32 -3.91929 2.85516 0
M  V30 36252 N 3532.66 -0.804387 -1.35526 0
M  V30 36253 C 3533.91 -0.38023 -1.98084 0
M  V30 36254 C 3534.22 1.05775 -1.64533 0
M  V30 36255 O 3535.43 1.58491 -2.20438 0
M  V30 36256 C 3533.88 -0.62891 -3.54362 0
M  V30 36257 C 3533.49 -2.07928 -3.96825 0
M  V30 36258 C 3535.23 -0.270002 -4.2364 0
M  V30 36259 C 3533.14 -2.27383 -5.4594 0
M  V30 36260 H 3532.07 -0.138435 -0.741183 0
M  V30 36261 H 3534.72 -0.988135 -1.54623 0
M  V30 36262 H 3533.1 0.0489141 -3.9597 0
M  V30 36263 H 3534.28 -2.79474 -3.66375 0
M  V30 36264 H 3532.59 -2.39785 -3.40429 0
M  V30 36265 H 3535.19 -0.393438 -5.33251 0
M  V30 36266 H 3535.53 0.783572 -4.08859 0
M  V30 36267 H 3536.07 -0.901656 -3.87447 0
M  V30 36268 H 3532.81 -3.31178 -5.65687 0
M  V30 36269 H 3532.33 -1.6036 -5.77966 0
M  V30 36270 H 3534 -2.08828 -6.12372 0
M  V30 36271 N 3534.14 1.47403 -0.557697 0
M  V30 36272 C 3535.38 2.02472 -0.033824 0
M  V30 36273 C 3535.71 1.43199 1.31622 0
M  V30 36274 O 3534.97 0.577399 1.86988 0
M  V30 36275 C 3535.27 3.57236 0.108261 0
M  V30 36276 C 3534.93 4.3543 -1.17095 0
M  V30 36277 C 3533.59 4.56513 -1.52148 0
M  V30 36278 C 3535.95 4.80522 -2.01862 0
M  V30 36279 C 3533.27 5.19938 -2.71812 0
M  V30 36280 C 3535.63 5.45266 -3.2073 0
M  V30 36281 C 3534.29 5.64582 -3.56095 0
M  V30 36282 H 3533.56 0.740897 -0.0123771 0
M  V30 36283 H 3536.21 1.77069 -0.729308 0
M  V30 36284 H 3534.51 3.81634 0.886714 0
M  V30 36285 H 3536.21 3.97496 0.528961 0
M  V30 36286 H 3532.8 4.19299 -0.888026 0
M  V30 36287 H 3536.98 4.64011 -1.76089 0
M  V30 36288 H 3532.24 5.33087 -2.9938 0
M  V30 36289 H 3536.41 5.79169 -3.867 0
M  V30 36290 H 3534.04 6.13498 -4.48914 0
M  V30 36291 N 3535.62 0.294175 1.5483 0
M  V30 36292 C 3536.58 -0.572022 2.21947 0
M  V30 36293 C 3537.58 -1.06661 1.20333 0
M  V30 36294 O 3538.77 -0.963731 1.45113 0
M  V30 36295 C 3535.9 -1.79125 2.90047 0
M  V30 36296 H 3537.09 0.0142761 2.99897 0
M  V30 36297 H 3534.65 0.0449461 1.56235 0
M  V30 36298 H 3535.38 -2.41756 2.16159 0
M  V30 36299 H 3535.17 -1.44432 3.64529 0
M  V30 36300 H 3536.66 -2.40678 3.41268 0
M  V30 36301 N 3537.09 -1.57585 0.0217743 0
M  V30 36302 C 3538.02 -2.12806 -0.961032 0
M  V30 36303 C 3539 -1.04239 -1.34418 0
M  V30 36304 O 3540.19 -1.32035 -1.4241 0
M  V30 36305 C 3537.32 -2.64916 -2.24581 0
M  V30 36306 C 3536.27 -3.78204 -2.00363 0
M  V30 36307 C 3535.6 -4.16713 -3.35043 0
M  V30 36308 C 3536.9 -5.04586 -1.3487 0
M  V30 36309 H 3538.59 -2.95176 -0.501171 0
M  V30 36310 H 3536.14 -1.41992 -0.239624 0
M  V30 36311 H 3538.09 -3.0218 -2.93709 0
M  V30 36312 H 3536.82 -1.79698 -2.7272 0
M  V30 36313 H 3535.48 -3.41367 -1.33656 0
M  V30 36314 H 3535.12 -3.28487 -3.80927 0
M  V30 36315 H 3534.82 -4.93051 -3.19648 0
M  V30 36316 H 3536.35 -4.56554 -4.05451 0
M  V30 36317 H 3537.76 -5.39483 -1.93987 0
M  V30 36318 H 3536.16 -5.85873 -1.29896 0
M  V30 36319 H 3537.23 -4.83838 -0.320689 0
M  V30 36320 N 3538.57 0.251283 -1.55584 0
M  V30 36321 C 3539.8 1.00183 -1.81599 0
M  V30 36322 C 3540.22 1.78333 -0.598247 0
M  V30 36323 O 3539.58 1.75559 0.452636 0
M  V30 36324 C 3539.63 1.9189 -3.05304 0
M  V30 36325 O 3538.73 3.00997 -2.81912 0
M  V30 36326 H 3538.07 0.285301 -0.599583 0
M  V30 36327 H 3540.6 0.273602 -2.02762 0
M  V30 36328 H 3540.61 2.33438 -3.3462 0
M  V30 36329 H 3539.29 1.34426 -3.93577 0
M  V30 36330 H 3537.86 2.63609 -2.63752 0
M  V30 36331 N 3540.05 1.48887 0.516757 0
M  V30 36332 C 3541 1.64855 1.6409 0
M  V30 36333 C 3541.99 0.514713 1.61391 0
M  V30 36334 O 3543.2 0.69386 1.66089 0
M  V30 36335 H 3539.57 0.519553 0.543663 0
M  V30 36336 H 3541.54 2.59243 1.47769 0
M  V30 36337 C 3540.29 1.71776 3.02305 0
M  V30 36338 H 3539.62 2.58391 3.05081 0
M  V30 36339 H 3541.06 1.86989 3.80541 0
M  V30 36340 C 3539.51 0.459195 3.33756 0
M  V30 36341 O 3540.04 -0.422107 3.99476 0
M  V30 36342 N 3538.25 0.326887 2.88756 0
M  V30 36343 H 3537.8 1.04504 2.3545 0
M  V30 36344 H 3537.76 -0.514159 3.10167 0
M  V30 36345 N 3541.53 -0.766635 1.37697 0
M  V30 36346 C 3542.75 -1.56091 1.36566 0
M  V30 36347 C 3543.18 -1.88045 -0.0455497 0
M  V30 36348 O 3542.54 -1.49611 -1.02402 0
M  V30 36349 C 3542.58 -2.84477 2.21597 0
M  V30 36350 O 3541.69 -3.79073 1.62411 0
M  V30 36351 H 3541.03 -0.472615 0.466402 0
M  V30 36352 H 3543.56 -0.948454 1.81288 0
M  V30 36353 H 3543.57 -3.3353 2.34993 0
M  V30 36354 H 3542.24 -2.60548 3.24172 0
M  V30 36355 H 3540.82 -3.37733 1.58084 0
M  V30 36356 N 3543.01 -1.22351 -0.993375 0
M  V30 36357 C 3543.94 -1.01741 -2.10169 0
M  V30 36358 C 3544.92 0.0614977 -1.69989 0
M  V30 36359 O 3546.1 -0.100625 -1.93939 0
M  V30 36360 C 3543.23 -0.593862 -3.42185 0
M  V30 36361 C 3542.19 -1.61865 -3.96212 0
M  V30 36362 C 3541.51 -1.05095 -5.2427 0
M  V30 36363 C 3542.81 -3.0085 -4.26951 0
M  V30 36364 H 3544.51 -1.9444 -2.27669 0
M  V30 36365 H 3542.05 -0.936278 -1.09407 0
M  V30 36366 H 3544 -0.436788 -4.1913 0
M  V30 36367 H 3542.73 0.368798 -3.24511 0
M  V30 36368 H 3541.39 -1.76349 -3.21398 0
M  V30 36369 H 3541.04 -0.0796631 -5.02937 0
M  V30 36370 H 3540.74 -1.73557 -5.61384 0
M  V30 36371 H 3542.26 -0.905455 -6.03849 0
M  V30 36372 H 3543.67 -2.89742 -4.94694 0
M  V30 36373 H 3542.07 -3.66431 -4.75235 0
M  V30 36374 H 3543.14 -3.50818 -3.34746 0
M  V30 36375 N 3544.48 1.19014 -1.03313 0
M  V30 36376 C 3545.9 1.40828 -0.75097 0
M  V30 36377 C 3546.1 1.90292 0.66267 0
M  V30 36378 O 3545.16 2.0824 1.42803 0
M  V30 36379 C 3546.47 2.41568 -1.79068 0
M  V30 36380 C 3548.02 2.55307 -1.81072 0
M  V30 36381 C 3548.49 3.59304 -2.84015 0
M  V30 36382 N 3549.98 3.66805 -2.82858 0
M  V30 36383 C 3550.72 4.46978 -3.59164 0
M  V30 36384 N 3550.21 5.30821 -4.45197 0
M  V30 36385 N 3552.01 4.41668 -3.47686 0
M  V30 36386 H 3544.16 0.852295 -1.9455 0
M  V30 36387 H 3546.42 0.436843 -0.841351 0
M  V30 36388 H 3546.13 2.12256 -2.80429 0
M  V30 36389 H 3546 3.40806 -1.61652 0
M  V30 36390 H 3548.39 2.8394 -0.803875 0
M  V30 36391 H 3548.47 1.56208 -2.02565 0
M  V30 36392 H 3548.11 3.31414 -3.84873 0
M  V30 36393 H 3548.04 4.58064 -2.59779 0
M  V30 36394 H 3550.53 3.06928 -2.20463 0
M  V30 36395 H 3550.85 5.89127 -5.0015 0
M  V30 36396 H 3549.19 5.30267 -4.49268 0
M  V30 36397 H 3552.38 3.75211 -2.79883 0
M  V30 36398 H 3552.56 5.0391 -4.07405 0
M  V30 36399 N 3545.96 0.811563 1.35098 0
M  V30 36400 C 3547.19 0.405841 2.0339 0
M  V30 36401 C 3547.61 -0.976831 1.60747 0
M  V30 36402 O 3546.97 -1.6335 0.786547 0
M  V30 36403 C 3547.02 0.503017 3.57074 0
M  V30 36404 O 3546.12 -0.481609 4.09578 0
M  V30 36405 H 3545.46 0.168744 0.6422 0
M  V30 36406 H 3547.99 1.09883 1.72589 0
M  V30 36407 H 3548 0.374631 4.06276 0
M  V30 36408 H 3546.68 1.51152 3.87461 0
M  V30 36409 H 3545.25 -0.31305 3.71584 0
M  V30 36410 N 3547.44 -1.47105 0.565506 0
M  V30 36411 C 3548.37 -2.32912 -0.165629 0
M  V30 36412 C 3549.35 -1.44299 -0.900653 0
M  V30 36413 O 3550.54 -1.73143 -0.879493 0
M  V30 36414 C 3547.67 -3.26245 -1.19086 0
M  V30 36415 C 3546.62 -4.24164 -0.571774 0
M  V30 36416 C 3545.95 -5.06881 -1.70224 0
M  V30 36417 C 3547.25 -5.20091 0.479876 0
M  V30 36418 H 3548.94 -2.94291 0.550757 0
M  V30 36419 H 3546.49 -1.41516 0.266309 0
M  V30 36420 H 3548.44 -3.8512 -1.71058 0
M  V30 36421 H 3547.16 -2.62938 -1.9373 0
M  V30 36422 H 3545.82 -3.66527 -0.0732886 0
M  V30 36423 H 3545.47 -4.39971 -2.43792 0
M  V30 36424 H 3545.17 -5.73181 -1.29374 0
M  V30 36425 H 3546.69 -5.68616 -2.22505 0
M  V30 36426 H 3548.11 -5.73282 0.045905 0
M  V30 36427 H 3546.5 -5.94639 0.807719 0
M  V30 36428 H 3547.57 -4.65065 1.37267 0
M  V30 36429 N 3548.92 -0.302382 -1.54672 0
M  V30 36430 C 3549.87 0.588207 -2.20282 0
M  V30 36431 C 3550.85 1.09786 -1.17626 0
M  V30 36432 O 3552.04 1.0384 -1.4334 0
M  V30 36433 C 3549.17 1.75895 -2.94815 0
M  V30 36434 C 3548.26 1.26519 -4.04788 0
M  V30 36435 N 3548.65 0.489537 -5.03425 0
M  V30 36436 C 3546.95 1.5458 -4.18355 0
M  V30 36437 C 3547.65 0.226436 -5.81259 0
M  V30 36438 N 3546.63 0.806629 -5.37582 0
M  V30 36439 H 3550.43 -0.0119428 -2.93898 0
M  V30 36440 H 3547.94 -0.107209 -1.62046 0
M  V30 36441 H 3549.94 2.40853 -3.40287 0
M  V30 36442 H 3548.6 2.36278 -2.22716 0
M  V30 36443 H 3549.61 0.13431 -5.17726 0
M  V30 36444 H 3546.29 2.15702 -3.57462 0
M  V30 36445 H 3547.68 -0.396617 -6.70728 0
M  V30 36446 N 3550.4 1.57571 -0.0301311 0
M  V30 36447 C 3551.33 2.13313 0.949732 0
M  V30 36448 C 3552.31 1.04951 1.33863 0
M  V30 36449 O 3553.49 1.32788 1.41707 0
M  V30 36450 C 3550.62 2.66103 2.23173 0
M  V30 36451 C 3549.58 3.79262 1.98355 0
M  V30 36452 C 3548.9 4.18484 3.32829 0
M  V30 36453 C 3550.2 5.05294 1.32193 0
M  V30 36454 H 3551.9 2.95437 0.48551 0
M  V30 36455 H 3549.44 1.42117 0.232091 0
M  V30 36456 H 3551.4 3.03734 2.92103 0
M  V30 36457 H 3550.12 1.81142 2.71763 0
M  V30 36458 H 3548.78 3.42071 1.31843 0
M  V30 36459 H 3548.43 3.30503 3.79179 0
M  V30 36460 H 3548.13 4.94739 3.17028 0
M  V30 36461 H 3549.65 4.58698 4.03024 0
M  V30 36462 H 3551.06 5.40504 1.91123 0
M  V30 36463 H 3549.46 5.86554 1.26787 0
M  V30 36464 H 3550.53 4.84002 0.295025 0
M  V30 36465 N 3551.87 -0.243029 1.55715 0
M  V30 36466 C 3553.15 -0.993585 1.68485 0
M  V30 36467 C 3553.53 -2.03227 0.571148 0
M  V30 36468 O 3552.88 -2.24515 -0.424871 0
M  V30 36469 C 3553.09 -1.62343 3.08943 0
M  V30 36470 C 3554.44 -2.12383 3.67667 0
M  V30 36471 O 3555.46 -1.72277 3.11768 0
M  V30 36472 O 3554.32 -2.86032 4.65669 0
M  V30 36473 H 3551.41 -0.462735 0.685424 0
M  V30 36474 H 3553.96 -0.236509 1.68044 0
M  V30 36475 H 3552.73 -0.872343 3.81452 0
M  V30 36476 H 3552.36 -2.44661 3.13411 0
M  V30 36477 N 3553.35 -1.49159 -0.508854 0
M  V30 36478 C 3554.76 -1.51541 -1.09051 0
M  V30 36479 C 3555.11 -0.297133 -1.93937 0
M  V30 36480 O 3554.24 0.593813 -2.08093 0
M  V30 36481 C 3554.83 -2.74602 -1.98442 0
M  V30 36482 C 3553.39 -2.79788 -2.51785 0
M  V30 36483 C 3552.54 -2.4535 -1.29223 0
M  V30 36484 H 3555.49 -1.5597 -0.29312 0
M  V30 36485 H 3555.51 -2.54319 -2.83023 0
M  V30 36486 H 3555.02 -3.63253 -1.36633 0
M  V30 36487 H 3553.13 -1.95397 -3.17255 0
M  V30 36488 H 3553.24 -3.81761 -2.89474 0
M  V30 36489 H 3551.6 -1.96959 -1.6149 0
M  V30 36490 H 3552.39 -3.36267 -0.69134 0
M  V30 36491 N 3554.83 0.759322 -1.38102 0
M  V30 36492 C 3555.74 1.90377 -1.3709 0
M  V30 36493 C 3556.76 1.71912 -0.268768 0
M  V30 36494 O 3557.93 1.94934 -0.506239 0
M  V30 36495 C 3555 3.2567 -1.1891 0
M  V30 36496 C 3554.06 3.56702 -2.38876 0
M  V30 36497 C 3553.29 4.8554 -2.21555 0
M  V30 36498 O 3553.51 5.57499 -1.20626 0
M  V30 36499 O 3552.45 5.15919 -3.10019 0
M  V30 36500 H 3556.27 1.94184 -2.33508 0
M  V30 36501 H 3553.86 0.903805 -1.18961 0
M  V30 36502 H 3555.74 4.0657 -1.1081 0
M  V30 36503 H 3554.42 3.22688 -0.255732 0
M  V30 36504 H 3553.32 2.75987 -2.52551 0
M  V30 36505 H 3554.66 3.6444 -3.30824 0
M  V30 36506 N 3556.31 1.22876 0.986873 0
M  V30 36507 C 3557.26 1.00154 2.09933 0
M  V30 36508 C 3558.25 -0.0573453 1.69303 0
M  V30 36509 O 3559.46 0.0956097 1.79746 0
M  V30 36510 H 3555.83 0.306733 0.686599 0
M  V30 36511 H 3557.8 1.94539 2.26268 0
M  V30 36512 C 3556.55 0.602434 3.42441 0
M  V30 36513 H 3555.87 1.40892 3.74152 0
M  V30 36514 H 3557.31 0.48291 4.21241 0
M  V30 36515 C 3555.77 -0.688649 3.29787 0
M  V30 36516 O 3556.3 -1.73951 3.62083 0
M  V30 36517 N 3554.51 -0.662102 2.82957 0
M  V30 36518 H 3554.06 0.193382 2.56873 0
M  V30 36519 H 3554.01 -1.5262 2.74872 0
M  V30 36520 N 3557.79 -1.18464 1.03942 0
M  V30 36521 C 3558.74 -2.19969 0.599788 0
M  V30 36522 C 3559.72 -1.56887 -0.357099 0
M  V30 36523 O 3560.91 -1.76119 -0.176357 0
M  V30 36524 C 3558.04 -3.4328 -0.0370831 0
M  V30 36525 C 3557.13 -4.13486 0.942878 0
M  V30 36526 N 3557.52 -4.59713 2.10944 0
M  V30 36527 C 3555.82 -4.39327 0.768606 0
M  V30 36528 C 3556.52 -5.13746 2.72838 0
M  V30 36529 N 3555.49 -5.05185 2.00722 0
M  V30 36530 H 3559.3 -2.53401 1.4888 0
M  V30 36531 H 3556.81 -1.34655 0.907841 0
M  V30 36532 H 3558.81 -4.15257 -0.36973 0
M  V30 36533 H 3557.47 -3.11345 -0.921646 0
M  V30 36534 H 3558.48 -4.54202 2.48839 0
M  V30 36535 H 3555.15 -4.17448 -0.0659712 0
M  V30 36536 H 3556.54 -5.59726 3.71693 0
M  V30 36537 N 3559.26 -0.818716 -1.34665 0
M  V30 36538 C 3560.49 -0.416621 -2.03172 0
M  V30 36539 C 3560.91 0.968293 -1.61263 0
M  V30 36540 O 3560.27 1.6293 -0.795199 0
M  V30 36541 C 3560.32 -0.521947 -3.56803 0
M  V30 36542 O 3559.42 0.459881 -4.09828 0
M  V30 36543 H 3558.77 -0.172148 -0.641297 0
M  V30 36544 H 3561.3 -1.10797 -1.72004 0
M  V30 36545 H 3561.31 -0.396172 -4.06072 0
M  V30 36546 H 3559.98 -1.53205 -3.86654 0
M  V30 36547 H 3558.56 0.29334 -3.71744 0
M  V30 36548 N 3560.74 1.46803 -0.573299 0
M  V30 36549 C 3562.15 1.86142 -0.144195 0
M  V30 36550 C 3562.5 1.47803 1.2903 0
M  V30 36551 O 3561.63 0.888528 1.97317 0
M  V30 36552 C 3562.22 3.3784 -0.254911 0
M  V30 36553 C 3560.78 3.76211 0.119259 0
M  V30 36554 C 3559.93 2.70838 -0.595162 0
M  V30 36555 H 3562.88 1.38091 -0.782082 0
M  V30 36556 H 3562.9 3.76899 0.522255 0
M  V30 36557 H 3562.41 3.65713 -1.29906 0
M  V30 36558 H 3560.52 3.53955 1.1639 0
M  V30 36559 H 3560.63 4.78445 -0.250505 0
M  V30 36560 H 3558.99 2.54674 -0.0364476 0
M  V30 36561 H 3559.78 3.01552 -1.64078 0
M  V30 36562 N 3562.22 0.31058 1.54509 0
M  V30 36563 C 3563.63 -0.180133 1.85829 0
M  V30 36564 C 3563.98 -1.52663 1.23241 0
M  V30 36565 O 3563.11 -2.09717 0.533627 0
M  V30 36566 C 3563.7 -0.333628 3.37153 0
M  V30 36567 C 3562.26 -0.76856 3.6847 0
M  V30 36568 C 3561.41 0.117448 2.77051 0
M  V30 36569 H 3564.36 0.531289 1.49543 0
M  V30 36570 H 3564.38 -1.16666 3.62173 0
M  V30 36571 H 3563.89 0.646522 3.82677 0
M  V30 36572 H 3561.99 -1.75892 3.2847 0
M  V30 36573 H 3562.11 -0.581309 4.7556 0
M  V30 36574 H 3560.47 -0.404861 2.51462 0
M  V30 36575 H 3561.25 1.09413 3.25398 0
M  V30 36576 N 3563.7 -1.57553 0.0384871 0
M  V30 36577 C 3564.95 -1.92183 -0.638106 0
M  V30 36578 C 3565.27 -0.915744 -1.71594 0
M  V30 36579 O 3564.53 0.0739189 -1.9556 0
M  V30 36580 C 3564.83 -3.33526 -1.28434 0
M  V30 36581 C 3564.49 -4.49647 -0.335955 0
M  V30 36582 C 3563.16 -4.81142 -0.0749527 0
M  V30 36583 C 3565.51 -5.20249 0.314734 0
M  V30 36584 C 3562.84 -5.80592 0.844388 0
M  V30 36585 C 3565.19 -6.20681 1.22219 0
M  V30 36586 C 3563.85 -6.50612 1.49199 0
M  V30 36587 H 3563.12 -0.703249 -0.2335 0
M  V30 36588 H 3565.77 -1.91227 0.102257 0
M  V30 36589 H 3564.07 -3.30789 -2.09967 0
M  V30 36590 H 3565.77 -3.57596 -1.81456 0
M  V30 36591 H 3562.36 -4.25062 -0.549563 0
M  V30 36592 H 3566.55 -4.9614 0.126162 0
M  V30 36593 H 3561.8 -6.02123 1.06102 0
M  V30 36594 H 3565.98 -6.74505 1.73252 0
M  V30 36595 H 3563.6 -7.27488 2.20601 0
M  V30 36596 N 3565.18 0.234767 -1.55842 0
M  V30 36597 C 3566.11 1.31399 -1.87795 0
M  V30 36598 C 3567.12 1.43699 -0.765138 0
M  V30 36599 O 3568.31 1.44833 -1.04335 0
M  V30 36600 C 3565.41 2.69119 -2.0598 0
M  V30 36601 C 3564.58 2.78934 -3.36919 0
M  V30 36602 C 3563.64 3.9758 -3.44698 0
M  V30 36603 O 3562.67 3.86537 -4.17825 0
M  V30 36604 N 3563.87 5.11297 -2.74875 0
M  V30 36605 H 3566.64 1.04319 -2.80958 0
M  V30 36606 H 3564.2 0.424844 -1.56226 0
M  V30 36607 H 3566.19 3.46849 -2.08514 0
M  V30 36608 H 3564.76 2.88855 -1.19505 0
M  V30 36609 H 3563.98 1.87785 -3.46599 0
M  V30 36610 H 3565.27 2.82451 -4.23201 0
M  V30 36611 H 3564.67 5.23162 -2.15217 0
M  V30 36612 H 3563.22 5.87117 -2.83085 0
M  V30 36613 N 3566.66 1.49427 0.500936 0
M  V30 36614 C 3567.88 1.62626 1.27908 0
M  V30 36615 C 3568.3 0.297684 1.86438 0
M  V30 36616 O 3567.66 -0.716849 1.67832 0
M  V30 36617 C 3567.71 2.6951 2.40929 0
M  V30 36618 O 3567.43 3.97214 1.84804 0
M  V30 36619 C 3568.93 2.93414 3.323 0
M  V30 36620 H 3566.15 0.547488 0.387941 0
M  V30 36621 H 3568.69 1.95459 0.601338 0
M  V30 36622 H 3566.85 2.39455 3.04533 0
M  V30 36623 H 3567.26 4.5609 2.59003 0
M  V30 36624 H 3568.74 3.71935 4.07883 0
M  V30 36625 H 3569.21 2.03332 3.89298 0
M  V30 36626 H 3569.82 3.24886 2.74462 0
M  V30 36627 N 3568.13 -0.751987 1.38502 0
M  V30 36628 C 3569.38 -1.50652 1.34115 0
M  V30 36629 C 3569.7 -1.9549 -0.0657318 0
M  V30 36630 O 3570.9 -2.70506 -0.232151 0
M  V30 36631 C 3569.36 -2.72138 2.35518 0
M  V30 36632 C 3568.97 -2.3432 3.81835 0
M  V30 36633 C 3570.71 -3.50022 2.40177 0
M  V30 36634 C 3568.62 -3.52426 4.74921 0
M  V30 36635 H 3567.55 -0.565672 0.498529 0
M  V30 36636 H 3570.2 -0.821884 1.64065 0
M  V30 36637 H 3568.58 -3.42591 1.98613 0
M  V30 36638 H 3569.75 -1.71522 4.27688 0
M  V30 36639 H 3568.07 -1.69566 3.80311 0
M  V30 36640 H 3570.67 -4.3784 3.0692 0
M  V30 36641 H 3571.01 -3.9129 1.42118 0
M  V30 36642 H 3571.54 -2.86583 2.75889 0
M  V30 36643 H 3568.28 -3.16222 5.74181 0
M  V30 36644 H 3567.8 -4.14261 4.3376 0
M  V30 36645 H 3569.48 -4.18986 4.93011 0
M  V30 36646 N 3569.61 -1.23398 -0.980343 0
M  V30 36647 C 3570.56 -1.01266 -2.09399 0
M  V30 36648 C 3571.55 0.048366 -1.69331 0
M  V30 36649 O 3572.76 -0.105141 -1.79693 0
M  V30 36650 H 3569.13 -0.31037 -0.684963 0
M  V30 36651 H 3571.11 -1.95736 -2.25233 0
M  V30 36652 C 3569.85 -0.620586 -3.42117 0
M  V30 36653 H 3569.18 -1.42874 -3.73399 0
M  V30 36654 H 3570.62 -0.505243 -4.20979 0
M  V30 36655 C 3569.08 0.67115 -3.30147 0
M  V30 36656 O 3569.61 1.72028 -3.63 0
M  V30 36657 N 3567.81 0.647087 -2.83304 0
M  V30 36658 H 3567.36 -0.207002 -2.56767 0
M  V30 36659 H 3567.32 1.5116 -2.75677 0
M  V30 36660 N 3571.09 1.17911 -1.04569 0
M  V30 36661 C 3572.34 1.88295 -0.75317 0
M  V30 36662 C 3572.67 1.80455 0.71762 0
M  V30 36663 O 3571.94 1.20827 1.52417 0
M  V30 36664 C 3572.23 3.38576 -1.22632 0
M  V30 36665 C 3572.08 3.552 -2.75958 0
M  V30 36666 C 3573.4 4.32386 -0.820366 0
M  V30 36667 H 3570.52 0.68374 -0.275079 0
M  V30 36668 H 3573.16 1.38697 -1.29859 0
M  V30 36669 H 3571.31 3.80948 -0.762313 0
M  V30 36670 H 3572.98 3.21886 -3.30434 0
M  V30 36671 H 3571.22 2.97687 -3.15539 0
M  V30 36672 H 3571.9 4.60665 -3.04124 0
M  V30 36673 H 3574.37 3.97822 -1.21972 0
M  V30 36674 H 3573.25 5.36086 -1.17911 0
M  V30 36675 H 3573.51 4.41237 0.276128 0
M  V30 36676 N 3572.57 0.825847 1.34229 0
M  V30 36677 C 3573.48 0.251844 2.33244 0
M  V30 36678 C 3574.49 -0.615306 1.62757 0
M  V30 36679 O 3575.67 -0.522513 1.94504 0
M  V30 36680 C 3572.73 -0.574396 3.41909 0
M  V30 36681 C 3571.8 0.315497 4.28139 0
M  V30 36682 C 3571.03 -0.471403 5.31614 0
M  V30 36683 O 3571.25 -1.7044 5.4434 0
M  V30 36684 O 3570.19 0.147796 6.01719 0
M  V30 36685 H 3574.01 1.07144 2.84172 0
M  V30 36686 H 3571.6 0.588056 1.3734 0
M  V30 36687 H 3573.48 -1.04437 4.08254 0
M  V30 36688 H 3572.15 -1.37127 2.9322 0
M  V30 36689 H 3571.06 0.833027 3.64707 0
M  V30 36690 H 3572.39 1.0768 4.80277 0
M  V30 36691 N 3574.05 -1.46497 0.581077 0
M  V30 36692 C 3575.46 -1.57745 0.242627 0
M  V30 36693 C 3575.66 -1.57641 -1.25505 0
M  V30 36694 O 3574.72 -1.4925 -2.03668 0
M  V30 36695 C 3576.03 -2.87215 0.890392 0
M  V30 36696 C 3577.58 -3.00844 0.863831 0
M  V30 36697 C 3578.05 -4.33047 1.49111 0
M  V30 36698 N 3579.54 -4.39742 1.45537 0
M  V30 36699 C 3580.28 -5.40649 1.91013 0
M  V30 36700 N 3579.78 -6.48239 2.44454 0
M  V30 36701 N 3581.57 -5.31841 1.81939 0
M  V30 36702 H 3573.72 -1.44808 1.55384 0
M  V30 36703 H 3575.98 -0.690652 0.649387 0
M  V30 36704 H 3575.69 -2.93097 1.94388 0
M  V30 36705 H 3575.56 -3.75098 0.397635 0
M  V30 36706 H 3577.95 -2.94544 -0.181037 0
M  V30 36707 H 3578.03 -2.14441 1.39459 0
M  V30 36708 H 3577.67 -4.40104 2.53517 0
M  V30 36709 H 3577.6 -5.18222 0.935587 0
M  V30 36710 H 3580.1 -3.62591 1.06472 0
M  V30 36711 H 3580.41 -7.21445 2.77015 0
M  V30 36712 H 3578.75 -6.49064 2.48478 0
M  V30 36713 H 3581.94 -4.4669 1.39948 0
M  V30 36714 H 3582.12 -6.10338 2.17696 0
M  V30 36715 N 3575.52 -0.31877 -1.54343 0
M  V30 36716 C 3576.75 0.287342 -2.04895 0
M  V30 36717 C 3577.17 1.46155 -1.19517 0
M  V30 36718 O 3576.52 1.81111 -0.224754 0
M  V30 36719 C 3576.57 0.726442 -3.54126 0
M  V30 36720 O 3576.3 -0.401044 -4.36261 0
M  V30 36721 C 3577.8 1.39586 -4.2075 0
M  V30 36722 H 3575.02 0.0598607 -0.668325 0
M  V30 36723 H 3577.56 -0.463566 -1.99177 0
M  V30 36724 H 3575.72 1.42733 -3.60147 0
M  V30 36725 H 3576.13 -0.0559636 -5.2447 0
M  V30 36726 H 3577.6 1.65409 -5.26634 0
M  V30 36727 H 3578.08 2.34163 -3.7157 0
M  V30 36728 H 3578.69 0.737675 -4.18854 0
M  V30 36729 N 3577 1.5753 -0.0468419 0
M  V30 36730 C 3578.25 1.92804 0.628835 0
M  V30 36731 C 3578.58 0.925113 1.70749 0
M  V30 36732 O 3577.86 -0.0495479 1.94437 0
M  V30 36733 C 3578.14 3.38481 1.22893 0
M  V30 36734 C 3577.99 4.4952 0.158628 0
M  V30 36735 C 3579.31 3.84465 2.14183 0
M  V30 36736 H 3576.43 0.70113 0.227125 0
M  V30 36737 H 3579.07 1.89694 -0.107722 0
M  V30 36738 H 3577.22 3.41262 1.85668 0
M  V30 36739 H 3578.89 4.58868 -0.473044 0
M  V30 36740 H 3577.14 4.30746 -0.513826 0
M  V30 36741 H 3577.81 5.48525 0.618449 0
M  V30 36742 H 3580.28 3.83533 1.61375 0
M  V30 36743 H 3579.16 4.87056 2.53117 0
M  V30 36744 H 3579.42 3.20975 3.04018 0
M  V30 36745 N 3578.48 -0.226499 1.55964 0
M  V30 36746 C 3579.41 -1.30769 1.87015 0
M  V30 36747 C 3580.39 -1.45439 0.72707 0
M  V30 36748 O 3581.58 -1.6133 0.974927 0
M  V30 36749 C 3578.7 -2.67865 2.07282 0
M  V30 36750 C 3577.75 -2.70237 3.29961 0
M  V30 36751 S 3578.58 -2.24799 4.8603 0
M  V30 36752 C 3579.74 -3.63781 5.09328 0
M  V30 36753 H 3579.97 -1.04235 2.78428 0
M  V30 36754 H 3577.5 -0.428499 1.48335 0
M  V30 36755 H 3579.46 -3.46796 2.19642 0
M  V30 36756 H 3578.12 -2.91626 1.16675 0
M  V30 36757 H 3577.32 -3.70969 3.41171 0
M  V30 36758 H 3576.92 -1.99366 3.16432 0
M  V30 36759 H 3579.21 -4.59434 4.97922 0
M  V30 36760 H 3580.15 -3.5749 6.11234 0
M  V30 36761 H 3580.56 -3.57239 4.37082 0
M  V30 36762 N 3579.96 -1.4969 -0.493005 0
M  V30 36763 C 3581.18 -1.63569 -1.27514 0
M  V30 36764 C 3581.61 -0.310138 -1.85526 0
M  V30 36765 O 3580.97 0.723285 -1.66248 0
M  V30 36766 C 3581.01 -2.71301 -2.37547 0
M  V30 36767 O 3580.12 -2.31029 -3.41613 0
M  V30 36768 H 3579.46 -0.547211 -0.376106 0
M  V30 36769 H 3581.99 -1.9593 -0.589294 0
M  V30 36770 H 3582 -2.93713 -2.8319 0
M  V30 36771 H 3580.67 -3.67516 -1.94691 0
M  V30 36772 H 3579.25 -2.18979 -3.01832 0
M  V30 36773 N 3581.44 0.744631 -1.38899 0
M  V30 36774 C 3582.37 1.87193 -1.39575 0
M  V30 36775 C 3583.35 1.68095 -0.260402 0
M  V30 36776 O 3584.53 1.88555 -0.464809 0
M  V30 36777 C 3581.66 3.2483 -1.22895 0
M  V30 36778 C 3580.62 3.58546 -2.33727 0
M  V30 36779 C 3579.94 4.95017 -2.02145 0
M  V30 36780 C 3581.24 3.62504 -3.76016 0
M  V30 36781 H 3582.94 1.86885 -2.33911 0
M  V30 36782 H 3580.48 0.89772 -1.12592 0
M  V30 36783 H 3582.44 4.03356 -1.2199 0
M  V30 36784 H 3581.16 3.2564 -0.25023 0
M  V30 36785 H 3579.82 2.82344 -2.33833 0
M  V30 36786 H 3579.47 4.92397 -1.02735 0
M  V30 36787 H 3579.17 5.18544 -2.7638 0
M  V30 36788 H 3580.69 5.75912 -2.02874 0
M  V30 36789 H 3582.1 4.31127 -3.77892 0
M  V30 36790 H 3580.5 3.97545 -4.49531 0
M  V30 36791 H 3581.57 2.62526 -4.07686 0
M  V30 36792 N 3582.91 1.23916 0.973785 0
M  V30 36793 C 3584.19 0.98333 1.69086 0
M  V30 36794 C 3584.57 -0.496153 2.05187 0
M  V30 36795 O 3583.92 -1.46898 1.75023 0
M  V30 36796 C 3584.13 1.90017 2.92736 0
M  V30 36797 C 3585.48 2.16752 3.65108 0
M  V30 36798 O 3586.5 1.87621 3.02782 0
M  V30 36799 O 3585.36 2.66192 4.77289 0
M  V30 36800 H 3582.45 0.371399 0.738913 0
M  V30 36801 H 3585 1.34988 1.02842 0
M  V30 36802 H 3583.77 2.90003 2.62705 0
M  V30 36803 H 3583.4 1.53641 3.66715 0
M  V30 36804 N 3584.39 -1.17355 1.05193 0
M  V30 36805 C 3585.62 -1.91258 0.781272 0
M  V30 36806 C 3586.03 -1.77059 -0.666849 0
M  V30 36807 O 3585.37 -1.10528 -1.46728 0
M  V30 36808 C 3585.44 -3.42821 1.08231 0
M  V30 36809 C 3585.1 -3.80803 2.52662 0
M  V30 36810 C 3586.1 -3.83648 3.50871 0
M  V30 36811 C 3583.78 -4.11765 2.87671 0
M  V30 36812 C 3585.78 -4.16923 4.82135 0
M  V30 36813 C 3583.46 -4.4471 4.19138 0
M  V30 36814 C 3584.46 -4.47267 5.1618 0
M  V30 36815 O 3584.15 -4.79435 6.45288 0
M  V30 36816 H 3583.88 -0.613668 0.283527 0
M  V30 36817 H 3586.43 -1.49755 1.40579 0
M  V30 36818 H 3584.66 -3.84618 0.400691 0
M  V30 36819 H 3586.35 -3.97985 0.797663 0
M  V30 36820 H 3587.12 -3.59852 3.25164 0
M  V30 36821 H 3583 -4.08946 2.128 0
M  V30 36822 H 3586.54 -4.18834 5.57874 0
M  V30 36823 H 3582.44 -4.67969 4.44607 0
M  V30 36824 H 3583.21 -4.97292 6.5011 0
M  V30 36825 N 3585.87 -0.832954 -1.3379 0
M  V30 36826 C 3587.15 -0.347989 -1.9248 0
M  V30 36827 C 3587.53 1.16594 -1.7598 0
M  V30 36828 O 3586.88 1.97766 -1.14459 0
M  V30 36829 C 3587.09 -0.78837 -3.39979 0
M  V30 36830 C 3588.43 -0.792973 -4.1713 0
M  V30 36831 O 3589.46 -0.731594 -3.48606 0
M  V30 36832 O 3588.32 -0.875317 -5.39445 0
M  V30 36833 H 3585.41 -0.0972453 -0.821263 0
M  V30 36834 H 3587.96 -0.918412 -1.427 0
M  V30 36835 H 3586.73 -1.83071 -3.45833 0
M  V30 36836 H 3586.35 -0.194193 -3.97125 0
M  V30 36837 N 3587.35 1.46186 -0.588837 0
M  V30 36838 C 3588.57 2.07243 -0.0806936 0
M  V30 36839 C 3589 1.43371 1.21764 0
M  V30 36840 O 3588.36 0.519671 1.73693 0
M  V30 36841 C 3588.4 3.60541 0.0652036 0
M  V30 36842 O 3587.51 3.96895 1.12019 0
M  V30 36843 H 3586.85 0.660754 -0.0655739 0
M  V30 36844 H 3589.38 1.87731 -0.813522 0
M  V30 36845 H 3589.39 4.07109 0.269422 0
M  V30 36846 H 3588.06 4.0642 -0.882911 0
M  V30 36847 H 3586.64 3.62027 0.893936 0
M  V30 36848 N 3588.83 0.32695 1.54171 0
M  V30 36849 C 3590.07 -0.275012 2.00927 0
M  V30 36850 C 3590.41 -1.5152 1.21472 0
M  V30 36851 O 3589.68 -1.92205 0.297905 0
M  V30 36852 C 3589.96 -0.605771 3.54968 0
M  V30 36853 C 3589.82 0.645357 4.45146 0
M  V30 36854 C 3591.14 -1.42206 4.16492 0
M  V30 36855 H 3588.25 -0.0984822 0.73039 0
M  V30 36856 H 3590.9 0.4442 1.84735 0
M  V30 36857 H 3589.05 -1.2185 3.68897 0
M  V30 36858 H 3590.72 1.28357 4.43082 0
M  V30 36859 H 3588.96 1.27357 4.14684 0
M  V30 36860 H 3589.63 0.369417 5.50762 0
M  V30 36861 H 3592.11 -0.9041 4.06159 0
M  V30 36862 H 3590.98 -1.62225 5.2438 0
M  V30 36863 H 3591.25 -2.41921 3.70036 0
M  V30 36864 N 3590.3 -1.57503 0.0551955 0
M  V30 36865 C 3591.53 -1.97579 -0.630657 0
M  V30 36866 C 3591.95 -0.932715 -1.63346 0
M  V30 36867 O 3591.31 0.1036 -1.81004 0
M  V30 36868 C 3591.36 -3.3672 -1.29043 0
M  V30 36869 O 3590.46 -3.3493 -2.40615 0
M  V30 36870 H 3589.81 -0.643527 -0.163614 0
M  V30 36871 H 3592.34 -2.04219 0.124789 0
M  V30 36872 H 3592.35 -3.73537 -1.64117 0
M  V30 36873 H 3591.02 -4.12173 -0.555517 0
M  V30 36874 H 3589.6 -3.09864 -2.07458 0
M  V30 36875 N 3591.78 0.218225 -1.56082 0
M  V30 36876 C 3593.06 0.966655 -1.70045 0
M  V30 36877 C 3593.44 2.02292 -0.603407 0
M  V30 36878 O 3592.79 2.25163 0.389098 0
M  V30 36879 C 3593 1.57408 -3.11486 0
M  V30 36880 C 3594.35 2.06507 -3.70999 0
M  V30 36881 O 3595.37 1.67296 -3.14469 0
M  V30 36882 O 3594.23 2.78588 -4.70161 0
M  V30 36883 H 3591.32 0.451772 -0.692699 0
M  V30 36884 H 3593.87 0.209744 -1.68399 0
M  V30 36885 H 3592.64 0.811547 -3.82792 0
M  V30 36886 H 3592.26 2.39644 -3.17264 0
M  V30 36887 N 3593.26 1.4995 0.485059 0
M  V30 36888 C 3594.68 1.37066 0.817626 0
M  V30 36889 C 3594.88 0.415983 1.97159 0
M  V30 36890 O 3593.93 -0.146522 2.52075 0
M  V30 36891 C 3595.25 2.78136 1.14283 0
M  V30 36892 C 3596.79 2.86952 1.25011 0
M  V30 36893 C 3597.27 4.28825 1.60852 0
M  V30 36894 N 3598.76 4.3171 1.67871 0
M  V30 36895 C 3599.5 5.38467 1.97079 0
M  V30 36896 N 3598.99 6.5545 2.24404 0
M  V30 36897 N 3600.78 5.25898 1.98464 0
M  V30 36898 H 3592.94 2.10604 -0.275643 0
M  V30 36899 H 3595.2 0.946051 -0.0607653 0
M  V30 36900 H 3594.9 3.49768 0.368109 0
M  V30 36901 H 3594.78 3.14506 2.08245 0
M  V30 36902 H 3597.17 2.15547 2.01552 0
M  V30 36903 H 3597.25 2.54144 0.290619 0
M  V30 36904 H 3596.89 5.00761 0.848551 0
M  V30 36905 H 3596.82 4.59109 2.57927 0
M  V30 36906 H 3599.31 3.4735 1.4885 0
M  V30 36907 H 3599.62 7.32626 2.45925 0
M  V30 36908 H 3597.97 6.58649 2.21826 0
M  V30 36909 H 3601.16 4.33507 1.76605 0
M  V30 36910 H 3601.33 6.09188 2.20893 0
M  V30 36911 N 3594.74 -0.737255 1.39292 0
M  V30 36912 C 3595.99 -1.49221 1.35705 0
M  V30 36913 C 3596.3 -1.95548 -0.0449938 0
M  V30 36914 O 3597.51 -2.70737 -0.203448 0
M  V30 36915 C 3595.96 -2.69625 2.38392 0
M  V30 36916 C 3595.57 -2.30257 3.84299 0
M  V30 36917 C 3597.32 -3.47455 2.43876 0
M  V30 36918 C 3595.22 -3.47369 4.78632 0
M  V30 36919 H 3594.15 -0.560353 0.5045 0
M  V30 36920 H 3596.8 -0.804437 1.64927 0
M  V30 36921 H 3595.19 -3.40465 2.02236 0
M  V30 36922 H 3596.36 -1.66977 4.29483 0
M  V30 36923 H 3594.67 -1.65523 3.82088 0
M  V30 36924 H 3597.27 -4.3456 3.11547 0
M  V30 36925 H 3597.61 -3.89761 1.4626 0
M  V30 36926 H 3598.15 -2.83641 2.78913 0
M  V30 36927 H 3594.89 -3.10114 5.77503 0
M  V30 36928 H 3594.41 -4.09637 4.3813 0
M  V30 36929 H 3596.09 -4.13733 4.97427 0
M  V30 36930 N 3596.22 -1.24431 -0.967199 0
M  V30 36931 C 3597.45 -1.10975 -1.74265 0
M  V30 36932 C 3597.86 0.34049 -1.86111 0
M  V30 36933 O 3597.2 1.24671 -1.34917 0
M  V30 36934 C 3597.26 -1.67618 -3.18032 0
M  V30 36935 C 3596.92 -3.16506 -3.29655 0
M  V30 36936 C 3597.92 -4.13649 -3.14945 0
M  V30 36937 C 3595.61 -3.56475 -3.5388 0
M  V30 36938 C 3597.6 -5.48743 -3.24284 0
M  V30 36939 C 3595.29 -4.91709 -3.62857 0
M  V30 36940 C 3596.29 -5.87652 -3.48072 0
M  V30 36941 O 3595.97 -7.20428 -3.56706 0
M  V30 36942 H 3595.71 -0.388394 -0.553287 0
M  V30 36943 H 3598.26 -1.65027 -1.22292 0
M  V30 36944 H 3596.49 -1.08 -3.71312 0
M  V30 36945 H 3598.18 -1.49444 -3.77387 0
M  V30 36946 H 3598.94 -3.84112 -2.96113 0
M  V30 36947 H 3594.82 -2.82301 -3.64454 0
M  V30 36948 H 3598.37 -6.2361 -3.12661 0
M  V30 36949 H 3594.26 -5.20917 -3.81203 0
M  V30 36950 H 3595.03 -7.28355 -3.73418 0
M  V30 36951 N 3597.7 1.16795 -1.05814 0
M  V30 36952 C 3598.94 1.87209 -0.771956 0
M  V30 36953 C 3599.27 1.81415 0.701333 0
M  V30 36954 O 3598.53 1.22125 1.52918 0
M  V30 36955 C 3598.82 3.36448 -1.20571 0
M  V30 36956 C 3598.49 3.62442 -2.68228 0
M  V30 36957 C 3597.15 3.69246 -3.08563 0
M  V30 36958 C 3599.5 3.73409 -3.63614 0
M  V30 36959 C 3596.83 3.84513 -4.43133 0
M  V30 36960 C 3599.18 3.90197 -4.97925 0
M  V30 36961 C 3597.85 3.95241 -5.37904 0
M  V30 36962 H 3597.12 0.685045 -0.282479 0
M  V30 36963 H 3599.77 1.3813 -1.32636 0
M  V30 36964 H 3598.07 3.87625 -0.570415 0
M  V30 36965 H 3599.77 3.89305 -0.961395 0
M  V30 36966 H 3596.36 3.57776 -2.35996 0
M  V30 36967 H 3600.54 3.67468 -3.33588 0
M  V30 36968 H 3595.8 3.86669 -4.736 0
M  V30 36969 H 3599.97 3.97625 -5.71723 0
M  V30 36970 H 3597.6 4.06823 -6.42183 0
M  V30 36971 N 3599.17 0.840037 1.33346 0
M  V30 36972 C 3600.4 0.449829 2.01951 0
M  V30 36973 C 3600.82 -0.949288 1.63199 0
M  V30 36974 O 3600.17 -1.61711 0.845919 0
M  V30 36975 C 3600.22 0.562241 3.57101 0
M  V30 36976 O 3599.95 1.90623 3.94455 0
M  V30 36977 C 3601.45 0.16914 4.42977 0
M  V30 36978 H 3598.67 0.178436 0.64684 0
M  V30 36979 H 3601.21 1.13293 1.70249 0
M  V30 36980 H 3599.37 -0.0729664 3.87331 0
M  V30 36981 H 3599.78 1.89258 4.89164 0
M  V30 36982 H 3601.25 0.298839 5.5119 0
M  V30 36983 H 3601.73 -0.889061 4.30107 0
M  V30 36984 H 3602.34 0.778829 4.18108 0
M  V30 36985 N 3600.65 -1.45872 0.596582 0
M  V30 36986 C 3601.58 -2.28593 -0.166664 0
M  V30 36987 C 3602.6 -1.39318 -0.842285 0
M  V30 36988 O 3603.79 -1.63793 -0.709519 0
M  V30 36989 C 3600.89 -3.14752 -1.25636 0
M  V30 36990 C 3600.06 -4.32238 -0.669984 0
M  V30 36991 C 3599.12 -4.99689 -1.64915 0
M  V30 36992 O 3598.14 -5.5684 -1.17976 0
M  V30 36993 N 3599.35 -4.97966 -2.98346 0
M  V30 36994 H 3602.11 -2.94738 0.543097 0
M  V30 36995 H 3599.67 -1.55938 0.435302 0
M  V30 36996 H 3601.66 -3.56741 -1.91097 0
M  V30 36997 H 3600.23 -2.5059 -1.86879 0
M  V30 36998 H 3599.45 -3.93865 0.162444 0
M  V30 36999 H 3600.74 -5.08144 -0.258256 0
M  V30 37000 H 3600.14 -4.52805 -3.39093 0
M  V30 37001 H 3598.7 -5.43852 -3.5926 0
M  V30 37002 N 3602.13 -0.335122 -1.53996 0
M  V30 37003 C 3603.08 0.540967 -2.26222 0
M  V30 37004 C 3604.07 1.10898 -1.28054 0
M  V30 37005 O 3605.28 1.05569 -1.45792 0
M  V30 37006 H 3601.65 0.193124 -0.726779 0
M  V30 37007 H 3603.62 -0.0903317 -2.98263 0
M  V30 37008 C 3602.37 1.6844 -3.04176 0
M  V30 37009 H 3601.7 1.25659 -3.79539 0
M  V30 37010 H 3603.14 2.27275 -3.57941 0
M  V30 37011 C 3601.59 2.60886 -2.13167 0
M  V30 37012 O 3602.12 3.62911 -1.72216 0
M  V30 37013 N 3600.33 2.2938 -1.78418 0
M  V30 37014 H 3599.88 1.46454 -2.11917 0
M  V30 37015 H 3599.84 2.91495 -1.17806 0
M  V30 37016 N 3603.61 1.57472 -0.0635475 0
M  V30 37017 C 3604.54 2.15279 0.904272 0
M  V30 37018 C 3605.52 1.07766 1.31607 0
M  V30 37019 O 3606.7 1.35764 1.38859 0
M  V30 37020 C 3603.83 2.70777 2.17479 0
M  V30 37021 C 3602.79 3.83384 1.90266 0
M  V30 37022 C 3602.11 4.2545 3.23877 0
M  V30 37023 C 3603.41 5.07985 1.21445 0
M  V30 37024 H 3605.11 2.96401 0.422734 0
M  V30 37025 H 3602.65 1.42578 0.201893 0
M  V30 37026 H 3604.61 3.09861 2.85594 0
M  V30 37027 H 3603.33 1.86865 2.6786 0
M  V30 37028 H 3601.99 3.44791 1.24558 0
M  V30 37029 H 3601.64 3.38471 3.72084 0
M  V30 37030 H 3601.34 5.01352 3.06463 0
M  V30 37031 H 3602.86 4.67144 3.93204 0
M  V30 37032 H 3604.28 5.44437 1.79615 0
M  V30 37033 H 3602.67 5.89111 1.14316 0
M  V30 37034 H 3603.74 4.84519 0.192295 0
M  V30 37035 N 3605.09 -0.209945 1.56195 0
M  V30 37036 C 3606.05 -1.2438 1.92516 0
M  V30 37037 C 3607.05 -1.3921 0.804817 0
M  V30 37038 O 3608.24 -1.37276 1.07243 0
M  V30 37039 C 3605.37 -2.6157 2.18618 0
M  V30 37040 H 3606.56 -0.933731 2.84994 0
M  V30 37041 H 3604.12 -0.450852 1.49656 0
M  V30 37042 H 3604.85 -2.97656 1.28729 0
M  V30 37043 H 3604.64 -2.52181 3.00245 0
M  V30 37044 H 3606.13 -3.36152 2.47773 0
M  V30 37045 N 3606.56 -1.50205 -0.4771 0
M  V30 37046 C 3607.79 -1.64912 -1.25772 0
M  V30 37047 C 3608.21 -0.329798 -1.85186 0
M  V30 37048 O 3607.57 0.705611 -1.67005 0
M  V30 37049 C 3607.62 -2.73805 -2.34656 0
M  V30 37050 O 3606.72 -2.3464 -3.39143 0
M  V30 37051 H 3606.06 -0.55117 -0.370281 0
M  V30 37052 H 3608.59 -1.96544 -0.568479 0
M  V30 37053 H 3608.6 -2.967 -2.80059 0
M  V30 37054 H 3607.28 -3.69561 -1.90782 0
M  V30 37055 H 3605.86 -2.22168 -2.99493 0
M  V30 37056 N 3608.04 0.729857 -1.39681 0
M  V30 37057 C 3609.29 1.48657 -1.36914 0
M  V30 37058 C 3609.61 1.94973 0.0325669 0
M  V30 37059 O 3608.88 1.6935 0.98476 0
M  V30 37060 H 3607.46 0.551486 -0.503858 0
M  V30 37061 H 3610.12 0.866125 -1.74598 0
M  V30 37062 H 3609.22 2.36624 -2.03508 0
M  V30 37063 N 3609.52 1.24942 0.960587 0
M  V30 37064 C 3610.77 1.09498 1.70699 0
M  V30 37065 C 3611.1 -0.36418 1.90755 0
M  V30 37066 O 3610.37 -1.26877 1.4742 0
M  V30 37067 C 3610.66 1.84323 3.0935 0
M  V30 37068 C 3610.51 3.38031 2.96741 0
M  V30 37069 C 3611.83 1.6216 4.09136 0
M  V30 37070 H 3608.95 0.399169 0.619543 0
M  V30 37071 H 3611.59 1.53699 1.11698 0
M  V30 37072 H 3609.74 1.46752 3.59717 0
M  V30 37073 H 3611.41 3.85242 2.53745 0
M  V30 37074 H 3609.66 3.66047 2.32791 0
M  V30 37075 H 3610.33 3.85594 3.94995 0
M  V30 37076 H 3612.8 1.94856 3.67655 0
M  V30 37077 H 3611.68 2.1696 5.04202 0
M  V30 37078 H 3611.94 0.561514 4.3852 0
M  V30 37079 N 3611 -1.16233 1.06432 0
M  V30 37080 C 3612.25 -1.86428 0.780328 0
M  V30 37081 C 3612.57 -1.82183 -0.695303 0
M  V30 37082 O 3611.84 -1.25633 -1.5031 0
M  V30 37083 H 3610.42 -0.69022 0.285666 0
M  V30 37084 H 3613.08 -1.40946 1.34611 0
M  V30 37085 H 3612.18 -2.91827 1.10649 0
M  V30 37086 N 3612.48 -0.847097 -1.32899 0
M  V30 37087 C 3613.41 -0.243562 -2.27902 0
M  V30 37088 C 3614.42 0.580403 -1.52102 0
M  V30 37089 O 3615.61 0.406128 -1.73818 0
M  V30 37090 C 3612.71 0.67506 -3.32109 0
M  V30 37091 C 3611.88 -0.111382 -4.37258 0
M  V30 37092 C 3610.94 0.731841 -5.21086 0
M  V30 37093 O 3609.97 0.168076 -5.68952 0
M  V30 37094 N 3611.17 2.04785 -5.43179 0
M  V30 37095 H 3613.94 -1.05988 -2.80333 0
M  V30 37096 H 3611.5 -0.706347 -1.45679 0
M  V30 37097 H 3613.49 1.24433 -3.85095 0
M  V30 37098 H 3612.06 1.39207 -2.79893 0
M  V30 37099 H 3611.28 -0.862059 -3.84659 0
M  V30 37100 H 3612.57 -0.651845 -5.04607 0
M  V30 37101 H 3611.96 2.52931 -5.06007 0
M  V30 37102 H 3610.52 2.56541 -5.99191 0
M  V30 37103 N 3613.95 1.45554 -0.604309 0
M  V30 37104 C 3615.2 2.01472 -0.095819 0
M  V30 37105 C 3615.52 1.47891 1.28014 0
M  V30 37106 O 3616.72 1.95766 1.88117 0
M  V30 37107 C 3615.18 3.59698 -0.120629 0
M  V30 37108 C 3614.79 4.22276 -1.49623 0
M  V30 37109 C 3616.53 4.23194 0.332791 0
M  V30 37110 C 3614.44 5.72644 -1.4776 0
M  V30 37111 H 3613.37 0.753318 -0.0320531 0
M  V30 37112 H 3616.02 1.6706 -0.759155 0
M  V30 37113 H 3614.4 3.91285 0.609297 0
M  V30 37114 H 3615.57 4.02268 -2.2476 0
M  V30 37115 H 3613.89 3.70961 -1.89147 0
M  V30 37116 H 3616.49 5.33447 0.365857 0
M  V30 37117 H 3616.83 3.93638 1.3548 0
M  V30 37118 H 3617.36 3.96312 -0.343761 0
M  V30 37119 H 3614.1 6.06893 -2.47711 0
M  V30 37120 H 3613.62 5.94853 -0.768764 0
M  V30 37121 H 3615.3 6.35778 -1.19982 0
M  V30 37122 N 3615.43 0.343284 1.53816 0
M  V30 37123 C 3616.66 -0.257382 2.05797 0
M  V30 37124 C 3617.08 -1.43457 1.21662 0
M  V30 37125 O 3616.44 -1.79831 0.230309 0
M  V30 37126 C 3616.49 -0.650618 3.54682 0
M  V30 37127 O 3615.59 -1.75068 3.73397 0
M  V30 37128 H 3614.93 -0.0427454 0.662623 0
M  V30 37129 H 3617.46 0.497421 1.98461 0
M  V30 37130 H 3617.47 -0.927844 3.9731 0
M  V30 37131 H 3616.15 0.210272 4.15368 0
M  V30 37132 H 3614.73 -1.47074 3.42672 0
M  V30 37133 N 3616.91 -1.57436 0.0718977 0
M  V30 37134 C 3618.14 -1.97533 -0.605339 0
M  V30 37135 C 3618.55 -0.949003 -1.63678 0
M  V30 37136 O 3617.89 0.0726664 -1.83556 0
M  V30 37137 C 3617.95 -3.3394 -1.33133 0
M  V30 37138 C 3617.62 -4.54746 -0.453346 0
M  V30 37139 C 3618.61 -5.19096 0.289104 0
M  V30 37140 C 3616.3 -5.00874 -0.378194 0
M  V30 37141 C 3618.29 -6.27925 1.09493 0
M  V30 37142 C 3615.98 -6.09576 0.431299 0
M  V30 37143 C 3616.98 -6.72964 1.16653 0
M  V30 37144 O 3616.67 -7.79573 1.96267 0
M  V30 37145 H 3616.4 -0.654588 -0.168793 0
M  V30 37146 H 3618.95 -2.04916 0.140868 0
M  V30 37147 H 3617.18 -3.23171 -2.12362 0
M  V30 37148 H 3618.87 -3.58641 -1.90082 0
M  V30 37149 H 3619.64 -4.84403 0.240637 0
M  V30 37150 H 3615.52 -4.51313 -0.940086 0
M  V30 37151 H 3619.06 -6.77333 1.6693 0
M  V30 37152 H 3614.96 -6.43703 0.48133 0
M  V30 37153 H 3615.73 -7.96451 1.887 0
M  V30 37154 N 3618.39 0.201658 -1.56305 0
M  V30 37155 C 3619.35 1.23357 -1.93173 0
M  V30 37156 C 3620.35 1.38781 -0.812188 0
M  V30 37157 O 3621.54 1.36705 -1.07969 0
M  V30 37158 C 3618.67 2.60407 -2.20002 0
M  V30 37159 H 3619.87 0.918604 -2.85485 0
M  V30 37160 H 3617.42 0.442909 -1.49893 0
M  V30 37161 H 3618.15 2.96969 -1.30306 0
M  V30 37162 H 3617.94 2.50585 -3.01578 0
M  V30 37163 H 3619.43 3.34833 -2.49553 0
M  V30 37164 N 3619.87 1.50456 0.469128 0
M  V30 37165 C 3621.09 1.65303 1.24429 0
M  V30 37166 C 3621.51 0.337163 1.85765 0
M  V30 37167 O 3620.87 -0.681088 1.69315 0
M  V30 37168 C 3620.92 2.7456 2.35158 0
M  V30 37169 O 3620.64 4.01045 1.76337 0
M  V30 37170 C 3622.14 3.00397 3.26001 0
M  V30 37171 H 3619.36 0.555593 0.376241 0
M  V30 37172 H 3621.9 1.9669 0.559743 0
M  V30 37173 H 3620.06 2.4586 2.99385 0
M  V30 37174 H 3620.47 4.61481 2.4927 0
M  V30 37175 H 3621.95 3.80503 3.99902 0
M  V30 37176 H 3622.42 2.11544 3.84897 0
M  V30 37177 H 3623.03 3.30635 2.67509 0
M  V30 37178 N 3621.34 -0.722439 1.40066 0
M  V30 37179 C 3622.27 -1.84949 1.42535 0
M  V30 37180 C 3623.26 -1.67659 0.287111 0
M  V30 37181 O 3624.44 -1.87792 0.494748 0
M  V30 37182 C 3621.57 -3.22833 1.28047 0
M  V30 37183 C 3620.52 -3.54783 2.39402 0
M  V30 37184 C 3619.85 -4.91738 2.09994 0
M  V30 37185 C 3621.15 -3.56476 3.81735 0
M  V30 37186 H 3622.84 -1.8314 2.36855 0
M  V30 37187 H 3620.39 -0.879694 1.14006 0
M  V30 37188 H 3622.34 -4.01365 1.28392 0
M  V30 37189 H 3621.07 -3.25201 0.302005 0
M  V30 37190 H 3619.73 -2.78588 2.38295 0
M  V30 37191 H 3619.37 -4.907 1.10556 0
M  V30 37192 H 3619.07 -5.14081 2.84595 0
M  V30 37193 H 3620.6 -5.72611 2.12011 0
M  V30 37194 H 3622.01 -4.2506 3.84703 0
M  V30 37195 H 3620.41 -3.90343 4.55798 0
M  V30 37196 H 3621.48 -2.56007 4.11811 0
M  V30 37197 N 3622.82 -1.2545 -0.953947 0
M  V30 37198 C 3624.05 -1.1308 -1.73861 0
M  V30 37199 C 3624.47 0.311449 -1.85504 0
M  V30 37200 O 3623.83 1.22562 -1.33598 0
M  V30 37201 C 3623.88 -1.79068 -3.12997 0
M  V30 37202 O 3622.98 -1.07079 -3.98256 0
M  V30 37203 H 3622.32 -0.394756 -0.533914 0
M  V30 37204 H 3624.85 -1.66026 -1.19568 0
M  V30 37205 H 3624.86 -1.8538 -3.63453 0
M  V30 37206 H 3623.54 -2.83998 -3.03839 0
M  V30 37207 H 3622.12 -1.08652 -3.5672 0
M  V30 37208 N 3624.3 1.15667 -1.07047 0
M  V30 37209 C 3625.53 1.90808 -0.812836 0
M  V30 37210 C 3625.95 1.77314 0.627796 0
M  V30 37211 O 3625.31 1.1037 1.43834 0
M  V30 37212 C 3625.36 3.39265 -1.22196 0
M  V30 37213 O 3624.46 4.10778 -0.365378 0
M  V30 37214 H 3623.8 0.594177 -0.296395 0
M  V30 37215 H 3626.33 1.46497 -1.42827 0
M  V30 37216 H 3626.34 3.90052 -1.19681 0
M  V30 37217 H 3625.02 3.48405 -2.27127 0
M  V30 37218 H 3623.59 3.70141 -0.452752 0
M  V30 37219 N 3625.78 0.854133 1.32447 0
M  V30 37220 C 3627.03 0.456354 1.9688 0
M  V30 37221 C 3627.35 -0.991218 1.67928 0
M  V30 37222 O 3626.62 -1.69264 0.986224 0
M  V30 37223 H 3625.2 0.165765 0.728376 0
M  V30 37224 H 3627.86 1.09045 1.6154 0
M  V30 37225 H 3626.96 0.60098 3.06259 0
M  V30 37226 N 3627.26 -1.45231 0.61202 0
M  V30 37227 C 3628.51 -2.01419 0.106502 0
M  V30 37228 C 3628.82 -1.48568 -1.27227 0
M  V30 37229 O 3630.03 -1.96761 -1.87076 0
M  V30 37230 C 3628.48 -3.59629 0.139703 0
M  V30 37231 C 3628.09 -4.21476 1.51861 0
M  V30 37232 C 3629.83 -4.23364 -0.310343 0
M  V30 37233 C 3627.74 -5.71852 1.50795 0
M  V30 37234 H 3626.67 -0.753138 0.0360477 0
M  V30 37235 H 3629.32 -1.66655 0.768004 0
M  V30 37236 H 3627.7 -3.91602 -0.588537 0
M  V30 37237 H 3628.88 -4.0107 2.26891 0
M  V30 37238 H 3627.19 -3.69953 1.91112 0
M  V30 37239 H 3629.79 -5.33633 -0.337562 0
M  V30 37240 H 3630.13 -3.94351 -1.33391 0
M  V30 37241 H 3630.67 -3.96124 0.364774 0
M  V30 37242 H 3627.4 -6.05571 2.50926 0
M  V30 37243 H 3626.92 -5.94437 0.8003 0
M  V30 37244 H 3628.6 -6.35132 1.23352 0
M  V30 37245 N 3628.74 -0.351436 -1.53632 0
M  V30 37246 C 3629.69 0.517828 -2.22042 0
M  V30 37247 C 3630.67 1.05988 -1.21059 0
M  V30 37248 O 3631.86 0.992272 -1.46571 0
M  V30 37249 C 3628.99 1.66427 -3.00262 0
M  V30 37250 C 3628.08 1.13577 -4.08609 0
M  V30 37251 N 3628.47 0.329128 -5.04728 0
M  V30 37252 C 3626.77 1.41193 -4.23061 0
M  V30 37253 C 3627.47 0.0413983 -5.81685 0
M  V30 37254 N 3626.44 0.635193 -5.39876 0
M  V30 37255 H 3630.24 -0.105438 -2.93711 0
M  V30 37256 H 3627.76 -0.158709 -1.61623 0
M  V30 37257 H 3629.76 2.29905 -3.47778 0
M  V30 37258 H 3628.42 2.29073 -2.30121 0
M  V30 37259 H 3629.43 -0.0304688 -5.17891 0
M  V30 37260 H 3626.1 2.04221 -3.64143 0
M  V30 37261 H 3627.49 -0.609804 -6.69127 0
M  V30 37262 N 3630.21 1.57396 -0.0802459 0
M  V30 37263 C 3631.44 1.98138 0.595719 0
M  V30 37264 C 3631.86 0.9589 1.62636 0
M  V30 37265 O 3631.21 -0.0533995 1.82422 0
M  V30 37266 C 3631.26 3.38952 1.25674 0
M  V30 37267 O 3630.99 4.37284 0.26734 0
M  V30 37268 C 3632.49 3.94616 2.01973 0
M  V30 37269 H 3629.71 0.651438 0.160841 0
M  V30 37270 H 3632.25 2.03911 -0.155147 0
M  V30 37271 H 3630.41 3.3424 1.95864 0
M  V30 37272 H 3630.82 5.19216 0.742604 0
M  V30 37273 H 3632.29 4.95339 2.43604 0
M  V30 37274 H 3632.77 3.3162 2.87967 0
M  V30 37275 H 3633.38 4.02755 1.36632 0
M  V30 37276 N 3631.69 -0.193366 1.56409 0
M  V30 37277 C 3633.1 -0.757885 1.70625 0
M  V30 37278 C 3633.45 -1.83775 0.687106 0
M  V30 37279 O 3632.58 -2.15836 -0.156122 0
M  V30 37280 C 3633.17 -1.38151 3.09354 0
M  V30 37281 C 3631.73 -1.89309 3.25329 0
M  V30 37282 C 3630.88 -0.76368 2.66577 0
M  V30 37283 H 3633.83 0.0317313 1.58668 0
M  V30 37284 H 3633.85 -2.25092 3.0678 0
M  V30 37285 H 3633.36 -0.59533 3.83507 0
M  V30 37286 H 3631.46 -2.7064 2.56095 0
M  V30 37287 H 3631.58 -2.05369 4.32852 0
M  V30 37288 H 3629.94 -1.17842 2.25799 0
M  V30 37289 H 3630.72 0.0102846 3.43298 0
M  V30 37290 N 3633.17 -1.50702 -0.461142 0
M  V30 37291 C 3634.4 -1.6596 -1.23551 0
M  V30 37292 C 3634.81 -0.34701 -1.85584 0
M  V30 37293 O 3634.17 0.672099 -1.69673 0
M  V30 37294 C 3634.22 -2.75803 -2.33699 0
M  V30 37295 O 3633.94 -4.01974 -1.74208 0
M  V30 37296 C 3635.44 -3.02121 -3.24403 0
M  V30 37297 H 3632.66 -0.557581 -0.373289 0
M  V30 37298 H 3635.21 -1.96985 -0.549304 0
M  V30 37299 H 3633.36 -2.47445 -2.98077 0
M  V30 37300 H 3633.78 -4.62796 -2.46819 0
M  V30 37301 H 3635.25 -3.82618 -3.97879 0
M  V30 37302 H 3635.73 -2.13582 -3.8377 0
M  V30 37303 H 3636.33 -3.32049 -2.65752 0
M  V30 37304 N 3634.65 0.715001 -1.40447 0
M  V30 37305 C 3635.89 1.47707 -1.38962 0
M  V30 37306 C 3636.23 1.94198 0.00795285 0
M  V30 37307 O 3635.5 1.68199 0.976702 0
M  V30 37308 C 3635.78 2.70272 -2.3796 0
M  V30 37309 C 3635.64 2.29671 -3.86744 0
M  V30 37310 C 3636.96 3.72431 -2.34485 0
M  V30 37311 H 3634.08 0.535773 -0.506079 0
M  V30 37312 H 3636.72 0.815968 -1.71587 0
M  V30 37313 H 3634.87 3.26679 -2.1027 0
M  V30 37314 H 3636.54 1.78742 -4.25263 0
M  V30 37315 H 3634.78 1.61667 -4.0255 0
M  V30 37316 H 3635.45 3.1753 -4.51529 0
M  V30 37317 H 3637.93 3.25655 -2.59013 0
M  V30 37318 H 3636.81 4.55827 -3.05799 0
M  V30 37319 H 3637.07 4.20769 -1.35668 0
M  V30 37320 N 3636.13 1.25954 0.947281 0
M  V30 37321 C 3637.37 1.1053 1.68719 0
M  V30 37322 C 3637.69 -0.352181 1.92403 0
M  V30 37323 O 3638.89 -0.626989 2.64161 0
M  V30 37324 C 3637.35 1.92988 3.03782 0
M  V30 37325 C 3636.96 3.43273 2.87867 0
M  V30 37326 C 3638.7 1.86156 3.81505 0
M  V30 37327 C 3636.61 4.18 4.18366 0
M  V30 37328 H 3635.54 0.410027 0.632767 0
M  V30 37329 H 3638.19 1.50212 1.05397 0
M  V30 37330 H 3636.57 1.46134 3.6805 0
M  V30 37331 H 3637.75 3.97853 2.32487 0
M  V30 37332 H 3636.06 3.51277 2.23592 0
M  V30 37333 H 3638.66 2.39275 4.78175 0
M  V30 37334 H 3639 0.830981 4.07922 0
M  V30 37335 H 3639.53 2.30799 3.24001 0
M  V30 37336 H 3636.27 5.21501 3.97135 0
M  V30 37337 H 3635.79 3.68203 4.73484 0
M  V30 37338 H 3637.47 4.26116 4.86861 0
M  V30 37339 N 3637.6 -1.15097 1.07659 0
M  V30 37340 C 3638.57 -2.18133 0.703597 0
M  V30 37341 C 3639.57 -1.58721 -0.257743 0
M  V30 37342 O 3640.76 -1.74158 -0.0382905 0
M  V30 37343 C 3637.89 -3.40879 0.0375578 0
M  V30 37344 H 3639.08 -2.52645 1.61587 0
M  V30 37345 H 3636.64 -1.29613 0.873507 0
M  V30 37346 H 3637.37 -3.11939 -0.886813 0
M  V30 37347 H 3637.16 -3.85263 0.729028 0
M  V30 37348 H 3638.65 -4.17078 -0.20864 0
M  V30 37349 N 3639.08 -0.861145 -1.31993 0
M  V30 37350 C 3640.31 -0.481048 -2.01744 0
M  V30 37351 C 3640.73 0.916498 -1.64262 0
M  V30 37352 O 3640.09 1.60318 -0.846631 0
M  V30 37353 C 3640.14 -0.635196 -3.54961 0
M  V30 37354 O 3639.24 0.329265 -4.11083 0
M  V30 37355 H 3638.58 -0.192463 -0.635495 0
M  V30 37356 H 3641.11 -1.16213 -1.68392 0
M  V30 37357 H 3641.12 -0.52516 -4.04606 0
M  V30 37358 H 3639.8 -1.65428 -3.81584 0
M  V30 37359 H 3638.38 0.174924 -3.72489 0
M  V30 37360 N 3640.56 1.44905 -0.619713 0
M  V30 37361 C 3641.81 2.01747 -0.119432 0
M  V30 37362 C 3642.13 1.48909 1.25901 0
M  V30 37363 O 3641.4 0.688137 1.83416 0
M  V30 37364 H 3639.98 0.745865 -0.0411613 0
M  V30 37365 H 3642.64 1.77551 -0.803844 0
M  V30 37366 H 3641.74 3.12001 -0.0784228 0
M  V30 37367 N 3642.04 0.359579 1.53443 0
M  V30 37368 C 3643.29 -0.233074 2.00349 0
M  V30 37369 C 3643.6 -1.50359 1.25107 0
M  V30 37370 O 3644.81 -2.17447 1.6257 0
M  V30 37371 C 3643.26 -0.465888 3.56872 0
M  V30 37372 C 3642.87 0.789648 4.40986 0
M  V30 37373 C 3644.61 -1.01652 4.12149 0
M  V30 37374 C 3642.52 0.52675 5.89049 0
M  V30 37375 H 3641.45 -0.090872 0.748504 0
M  V30 37376 H 3644.1 0.477391 1.77181 0
M  V30 37377 H 3642.48 -1.23746 3.76169 0
M  V30 37378 H 3643.66 1.56355 4.33462 0
M  V30 37379 H 3641.97 1.26307 3.96781 0
M  V30 37380 H 3644.57 -1.22844 5.20397 0
M  V30 37381 H 3644.91 -1.97687 3.66368 0
M  V30 37382 H 3645.45 -0.305264 3.96627 0
M  V30 37383 H 3642.19 1.45726 6.39096 0
M  V30 37384 H 3641.71 -0.20877 5.99437 0
M  V30 37385 H 3643.38 0.150003 6.46826 0
M  V30 37386 N 3643.52 -1.57351 0.0885919 0
M  V30 37387 C 3644.76 -1.93733 -0.575502 0
M  V30 37388 C 3645.09 -0.970674 -1.69124 0
M  V30 37389 O 3644.36 -0.0216251 -1.95888 0
M  V30 37390 H 3642.94 -0.715216 -0.215579 0
M  V30 37391 H 3645.6 -1.94319 0.150396 0
M  V30 37392 H 3644.69 -2.95985 -0.989927 0
M  V30 37393 N 3644.99 0.185069 -1.5651 0
M  V30 37394 C 3646.22 0.919828 -1.85329 0
M  V30 37395 C 3646.64 1.76423 -0.672325 0
M  V30 37396 O 3645.99 1.78938 0.358823 0
M  V30 37397 C 3646.05 1.80782 -3.1305 0
M  V30 37398 O 3645.77 0.997494 -4.26593 0
M  V30 37399 C 3647.27 2.65341 -3.55118 0
M  V30 37400 H 3644.49 0.267898 -0.6152 0
M  V30 37401 H 3647.03 0.189302 -2.03622 0
M  V30 37402 H 3645.19 2.49185 -2.96624 0
M  V30 37403 H 3645.6 1.60353 -4.99387 0
M  V30 37404 H 3647.07 3.23287 -4.47425 0
M  V30 37405 H 3647.55 3.39542 -2.78582 0
M  V30 37406 H 3648.16 2.02293 -3.74109 0
M  V30 37407 N 3646.47 1.50945 0.453144 0
M  V30 37408 C 3647.44 1.70542 1.53127 0
M  V30 37409 C 3648.44 0.575704 1.50141 0
M  V30 37410 O 3649.63 0.843024 1.52443 0
M  V30 37411 C 3646.76 1.74728 2.92716 0
M  V30 37412 H 3647.95 2.66748 1.37061 0
M  V30 37413 H 3645.5 1.40696 0.680758 0
M  V30 37414 H 3646.24 0.802808 3.14206 0
M  V30 37415 H 3646.02 2.56816 2.9629 0
M  V30 37416 H 3647.51 1.91783 3.70957 0
M  V30 37417 N 3647.95 -0.707543 1.40825 0
M  V30 37418 C 3649.23 -1.4612 1.30032 0
M  V30 37419 C 3649.61 -2.10957 -0.0776502 0
M  V30 37420 O 3648.96 -2.00769 -1.09106 0
M  V30 37421 C 3649.17 -2.49038 2.44502 0
M  V30 37422 C 3650.51 -3.14637 2.85112 0
M  V30 37423 O 3651.54 -2.5936 2.44154 0
M  V30 37424 O 3650.4 -4.14727 3.55899 0
M  V30 37425 H 3647.49 -0.650163 0.511094 0
M  V30 37426 H 3650.04 -0.739035 1.52762 0
M  V30 37427 H 3648.81 -1.99699 3.36506 0
M  V30 37428 H 3648.43 -3.28779 2.23585 0
M  V30 37429 N 3649.43 -1.26454 -0.940588 0
M  V30 37430 C 3650.68 -1.11812 -1.68352 0
M  V30 37431 C 3651 0.339003 -1.92031 0
M  V30 37432 O 3650.27 1.23901 -1.51741 0
M  V30 37433 H 3648.85 -0.410788 -0.623909 0
M  V30 37434 H 3651.51 -1.58791 -1.13011 0
M  V30 37435 H 3650.61 -1.63733 -2.65703 0
M  V30 37436 N 3650.91 1.14525 -1.08268 0
M  V30 37437 C 3652.16 1.84877 -0.806437 0
M  V30 37438 C 3652.47 1.83763 0.670119 0
M  V30 37439 O 3653.67 2.4989 1.06147 0
M  V30 37440 C 3652.13 3.31864 -1.39263 0
M  V30 37441 C 3651.74 3.41399 -2.90087 0
M  V30 37442 C 3653.48 4.07338 -1.19482 0
M  V30 37443 C 3651.39 4.82589 -3.41851 0
M  V30 37444 H 3650.32 0.69261 -0.298005 0
M  V30 37445 H 3652.97 1.29114 -1.30391 0
M  V30 37446 H 3651.35 3.87356 -0.82287 0
M  V30 37447 H 3652.53 2.95965 -3.53188 0
M  V30 37448 H 3650.84 2.79379 -3.08765 0
M  V30 37449 H 3653.44 5.11552 -1.55623 0
M  V30 37450 H 3653.78 4.16083 -0.134528 0
M  V30 37451 H 3654.31 3.58142 -1.73144 0
M  V30 37452 H 3651.05 4.79032 -4.47447 0
M  V30 37453 H 3650.57 5.28567 -2.83509 0
M  V30 37454 H 3652.25 5.51475 -3.38356 0
M  V30 37455 N 3652.39 0.868133 1.31534 0
M  V30 37456 C 3653.35 0.327495 2.26848 0
M  V30 37457 C 3654.35 -0.520488 1.52143 0
M  V30 37458 O 3655.54 -0.330058 1.71045 0
M  V30 37459 C 3652.67 -0.535114 3.36674 0
M  V30 37460 H 3653.86 1.16891 2.76182 0
M  V30 37461 H 3651.42 0.64357 1.42435 0
M  V30 37462 H 3652.15 -1.3978 2.9263 0
M  V30 37463 H 3651.94 0.0720524 3.92034 0
M  V30 37464 H 3653.43 -0.905714 4.0766 0
M  V30 37465 N 3653.86 -1.44574 0.627389 0
M  V30 37466 C 3655.11 -2.0208 0.130387 0
M  V30 37467 C 3655.44 -1.49316 -1.2464 0
M  V30 37468 O 3654.69 -0.665956 -1.8402 0
M  V30 37469 C 3654.99 -3.57346 0.0623037 0
M  V30 37470 C 3654.66 -4.29348 1.37737 0
M  V30 37471 C 3653.32 -4.48734 1.73755 0
M  V30 37472 C 3655.67 -4.70343 2.24559 0
M  V30 37473 C 3653 -5.06377 2.9631 0
M  V30 37474 C 3655.35 -5.29343 3.4638 0
M  V30 37475 C 3654.02 -5.46949 3.82626 0
M  V30 37476 H 3653.29 -0.739462 0.0477121 0
M  V30 37477 H 3655.93 -1.73388 0.812959 0
M  V30 37478 H 3654.24 -3.8543 -0.703622 0
M  V30 37479 H 3655.94 -3.99567 -0.338708 0
M  V30 37480 H 3652.53 -4.14585 1.08707 0
M  V30 37481 H 3656.71 -4.55081 1.98027 0
M  V30 37482 H 3651.97 -5.18196 3.24474 0
M  V30 37483 H 3656.14 -5.60059 4.13892 0
M  V30 37484 H 3653.77 -5.91382 4.77673 0
M  V30 37485 N 3655.34 -0.367711 -1.5325 0
M  V30 37486 C 3656.62 0.277808 -1.93617 0
M  V30 37487 C 3657 1.66211 -1.30143 0
M  V30 37488 O 3656.35 2.23795 -0.461316 0
M  V30 37489 C 3656.56 0.325876 -3.47475 0
M  V30 37490 C 3657.9 0.565202 -4.20821 0
M  V30 37491 O 3658.93 0.406995 -3.53867 0
M  V30 37492 O 3657.79 0.873427 -5.39475 0
M  V30 37493 H 3654.88 0.167144 -0.809933 0
M  V30 37494 H 3657.43 -0.42065 -1.64404 0
M  V30 37495 H 3656.2 -0.644609 -3.85954 0
M  V30 37496 H 3655.82 1.07014 -3.82928 0
M  V30 37497 N 3656.82 1.57302 -0.0969353 0
M  V30 37498 C 3658.07 1.95509 0.56104 0
M  V30 37499 C 3658.42 0.978189 1.65678 0
M  V30 37500 O 3657.71 0.00448796 1.91599 0
M  V30 37501 C 3657.91 3.38063 1.15966 0
M  V30 37502 C 3657.74 4.49531 0.123445 0
M  V30 37503 C 3656.51 5.04404 -0.300708 0
M  V30 37504 C 3658.7 5.10188 -0.649091 0
M  V30 37505 N 3656.69 5.9943 -1.32501 0
M  V30 37506 C 3658.06 6.00948 -1.52517 0
M  V30 37507 C 3660.11 4.92921 -0.702407 0
M  V30 37508 C 3658.82 6.76294 -2.44988 0
M  V30 37509 C 3660.84 5.68929 -1.61473 0
M  V30 37510 C 3660.2 6.59358 -2.47843 0
M  V30 37511 H 3656.3 0.762035 0.175577 0
M  V30 37512 H 3658.89 1.93867 -0.17993 0
M  V30 37513 H 3657.06 3.40395 1.87045 0
M  V30 37514 H 3658.79 3.63445 1.78015 0
M  V30 37515 H 3655.54 4.73519 0.087393 0
M  V30 37516 H 3655.97 6.51645 -1.83541 0
M  V30 37517 H 3660.61 4.22772 -0.0488155 0
M  V30 37518 H 3658.33 7.45704 -3.11371 0
M  V30 37519 H 3661.91 5.57582 -1.66114 0
M  V30 37520 H 3660.79 7.17145 -3.17291 0
M  V30 37521 N 3658.3 -0.176766 1.56606 0
M  V30 37522 C 3659.55 -0.892546 1.80877 0
M  V30 37523 C 3659.86 -1.83647 0.673277 0
M  V30 37524 O 3661.07 -2.59422 0.800778 0
M  V30 37525 C 3659.52 -1.63763 3.20484 0
M  V30 37526 C 3659.13 -0.737608 4.41886 0
M  V30 37527 C 3660.87 -2.34195 3.54052 0
M  V30 37528 C 3658.78 -1.48261 5.72514 0
M  V30 37529 H 3657.71 -0.33703 0.674482 0
M  V30 37530 H 3660.36 -0.145542 1.82922 0
M  V30 37531 H 3658.74 -2.42919 3.1274 0
M  V30 37532 H 3659.92 0.0165996 4.60797 0
M  V30 37533 H 3658.23 -0.143204 4.16154 0
M  V30 37534 H 3660.83 -2.90518 4.48891 0
M  V30 37535 H 3661.17 -3.09271 2.78671 0
M  V30 37536 H 3661.71 -1.61988 3.63324 0
M  V30 37537 H 3658.44 -0.774285 6.50911 0
M  V30 37538 H 3657.96 -2.21028 5.5759 0
M  V30 37539 H 3659.64 -2.03155 6.14278 0
M  V30 37540 N 3659.78 -1.51183 -0.445132 0
M  V30 37541 C 3661 -1.67261 -1.21784 0
M  V30 37542 C 3661.42 -0.366674 -1.85205 0
M  V30 37543 O 3660.78 0.654066 -1.70377 0
M  V30 37544 C 3660.83 -2.78266 -2.3076 0
M  V30 37545 O 3660.55 -4.03799 -1.69935 0
M  V30 37546 C 3662.05 -3.05545 -3.21181 0
M  V30 37547 H 3659.27 -0.561509 -0.367354 0
M  V30 37548 H 3661.81 -1.97556 -0.52838 0
M  V30 37549 H 3659.97 -2.50592 -2.95436 0
M  V30 37550 H 3660.38 -4.65388 -2.41897 0
M  V30 37551 H 3661.86 -3.86817 -3.93798 0
M  V30 37552 H 3662.33 -2.17641 -3.81483 0
M  V30 37553 H 3662.94 -3.34848 -2.62215 0
M  V30 37554 N 3661.25 0.700065 -1.41198 0
M  V30 37555 C 3662.67 1.0101 -1.23568 0
M  V30 37556 C 3662.87 2.01131 -0.121856 0
M  V30 37557 O 3661.93 2.47188 0.515215 0
M  V30 37558 C 3663.24 1.539 -2.58332 0
M  V30 37559 C 3664.79 1.65806 -2.65476 0
M  V30 37560 C 3665.26 2.22099 -4.00545 0
M  V30 37561 N 3666.75 2.29465 -4.02368 0
M  V30 37562 C 3667.49 2.74039 -5.03677 0
M  V30 37563 N 3666.98 3.18251 -6.15376 0
M  V30 37564 N 3668.78 2.73563 -4.9104 0
M  V30 37565 H 3660.93 0.0367115 -2.12368 0
M  V30 37566 H 3663.19 0.0788629 -0.944714 0
M  V30 37567 H 3662.9 0.877904 -3.40567 0
M  V30 37568 H 3662.77 2.52185 -2.80504 0
M  V30 37569 H 3665.16 2.31029 -1.83602 0
M  V30 37570 H 3665.24 0.660788 -2.47118 0
M  V30 37571 H 3664.88 1.57493 -4.82865 0
M  V30 37572 H 3664.81 3.2257 -4.16241 0
M  V30 37573 H 3667.3 1.98259 -3.21717 0
M  V30 37574 H 3667.62 3.50876 -6.88554 0
M  V30 37575 H 3665.96 3.16171 -6.18919 0
M  V30 37576 H 3669.15 2.38369 -4.02862 0
M  V30 37577 H 3669.33 3.07983 -5.70132 0
M  V30 37578 N 3662.73 1.26951 0.933869 0
M  V30 37579 C 3664.15 1.04222 1.20871 0
M  V30 37580 C 3664.35 -0.228076 2.00205 0
M  V30 37581 O 3663.4 -0.935243 2.34541 0
M  V30 37582 C 3664.72 2.27798 1.96286 0
M  V30 37583 C 3666.26 2.32774 2.09249 0
M  V30 37584 C 3666.74 3.56062 2.88069 0
M  V30 37585 N 3668.23 3.56583 2.95639 0
M  V30 37586 C 3668.97 4.48649 3.57074 0
M  V30 37587 N 3668.46 5.51011 4.1995 0
M  V30 37588 N 3670.25 4.36285 3.54418 0
M  V30 37589 H 3662.41 2.08528 0.403699 0
M  V30 37590 H 3664.67 0.91681 0.241173 0
M  V30 37591 H 3664.37 3.20234 1.45407 0
M  V30 37592 H 3664.25 2.32626 2.96926 0
M  V30 37593 H 3666.64 1.40848 2.59318 0
M  V30 37594 H 3666.72 2.31953 1.0785 0
M  V30 37595 H 3666.36 4.48321 2.38685 0
M  V30 37596 H 3666.29 3.54133 3.8974 0
M  V30 37597 H 3668.78 2.8255 2.50946 0
M  V30 37598 H 3669.09 6.17438 4.64747 0
M  V30 37599 H 3667.44 5.54861 4.18515 0
M  V30 37600 H 3670.63 3.55529 3.04494 0
M  V30 37601 H 3670.8 5.08227 4.02007 0
M  V30 37602 N 3664.21 -1.13949 1.08873 0
M  V30 37603 C 3665.46 -1.84447 0.816231 0
M  V30 37604 C 3665.77 -1.84116 -0.660364 0
M  V30 37605 O 3666.98 -2.5045 -1.0482 0
M  V30 37606 C 3665.43 -3.31121 1.41021 0
M  V30 37607 C 3665.04 -3.39856 2.91894 0
M  V30 37608 C 3666.79 -4.06699 1.21641 0
M  V30 37609 C 3664.69 -4.80769 3.44405 0
M  V30 37610 H 3663.62 -0.69102 0.301674 0
M  V30 37611 H 3666.27 -1.2842 1.31074 0
M  V30 37612 H 3664.66 -3.86914 0.843401 0
M  V30 37613 H 3665.83 -2.94088 3.54752 0
M  V30 37614 H 3664.14 -2.77738 3.10243 0
M  V30 37615 H 3666.74 -5.1072 1.58333 0
M  V30 37616 H 3667.08 -4.16005 0.156592 0
M  V30 37617 H 3667.62 -3.57219 1.75041 0
M  V30 37618 H 3664.36 -4.76652 4.49981 0
M  V30 37619 H 3663.88 -5.27056 2.86308 0
M  V30 37620 H 3665.56 -5.49673 3.41275 0
M  V30 37621 N 3665.69 -0.875096 -1.31072 0
M  V30 37622 C 3666.92 -0.502485 -2.00396 0
M  V30 37623 C 3667.33 0.910922 -1.65828 0
M  V30 37624 O 3666.67 1.60905 -0.886304 0
M  V30 37625 C 3666.73 -0.585807 -3.54695 0
M  V30 37626 C 3666.39 -1.96175 -4.12752 0
M  V30 37627 C 3667.39 -2.92991 -4.29479 0
M  V30 37628 C 3665.08 -2.26445 -4.48361 0
M  V30 37629 C 3667.07 -4.18218 -4.81012 0
M  V30 37630 C 3664.76 -3.5192 -4.99595 0
M  V30 37631 C 3665.76 -4.47622 -5.15872 0
M  V30 37632 O 3665.44 -5.70872 -5.66004 0
M  V30 37633 H 3665.18 -0.193744 -0.647641 0
M  V30 37634 H 3667.73 -1.1795 -1.68158 0
M  V30 37635 H 3665.96 0.148146 -3.86416 0
M  V30 37636 H 3667.65 -0.22589 -4.05271 0
M  V30 37637 H 3668.41 -2.70914 -4.02282 0
M  V30 37638 H 3664.29 -1.52729 -4.34965 0
M  V30 37639 H 3667.84 -4.92923 -4.93632 0
M  V30 37640 H 3663.73 -3.73839 -5.26227 0
M  V30 37641 H 3664.5 -5.73115 -5.84364 0
M  V30 37642 N 3667.17 1.44239 -0.635047 0
M  V30 37643 C 3668.4 2.06069 -0.148081 0
M  V30 37644 C 3668.8 1.4756 1.18417 0
M  V30 37645 O 3668.15 0.594455 1.73816 0
M  V30 37646 C 3668.21 3.59481 0.0368961 0
M  V30 37647 C 3667.87 4.40475 -1.2178 0
M  V30 37648 C 3668.87 4.73705 -2.14241 0
M  V30 37649 C 3666.56 4.80786 -1.45431 0
M  V30 37650 C 3668.55 5.46134 -3.28659 0
M  V30 37651 C 3666.24 5.52962 -2.60146 0
M  V30 37652 C 3667.23 5.85556 -3.51586 0
M  V30 37653 O 3666.92 6.56262 -4.64301 0
M  V30 37654 H 3666.65 0.671399 -0.0787349 0
M  V30 37655 H 3669.21 1.86034 -0.870671 0
M  V30 37656 H 3667.44 3.78021 0.814672 0
M  V30 37657 H 3669.13 4.03065 0.478913 0
M  V30 37658 H 3669.89 4.43098 -1.97204 0
M  V30 37659 H 3665.77 4.54834 -0.751458 0
M  V30 37660 H 3669.32 5.71492 -4.00053 0
M  V30 37661 H 3665.21 5.82986 -2.77124 0
M  V30 37662 H 3665.98 6.74734 -4.63332 0
M  V30 37663 N 3668.64 0.375833 1.53053 0
M  V30 37664 C 3669.87 -0.213672 2.06296 0
M  V30 37665 C 3670.29 -1.40844 1.24678 0
M  V30 37666 O 3669.65 -1.79302 0.268402 0
M  V30 37667 C 3669.7 -0.575238 3.55982 0
M  V30 37668 O 3668.8 -1.67108 3.77026 0
M  V30 37669 H 3668.15 -0.0286805 0.66338 0
M  V30 37670 H 3670.68 0.539406 1.97362 0
M  V30 37671 H 3670.69 -0.84336 3.99188 0
M  V30 37672 H 3669.36 0.298331 4.14829 0
M  V30 37673 H 3667.94 -1.39772 3.45714 0
M  V30 37674 N 3670.12 -1.57248 0.105276 0
M  V30 37675 C 3671.4 -1.86208 -0.598838 0
M  V30 37676 C 3671.78 -1.00399 -1.85697 0
M  V30 37677 O 3671.13 -0.0791494 -2.28363 0
M  V30 37678 C 3671.34 -3.37076 -0.904463 0
M  V30 37679 C 3672.69 -4.05365 -1.2635 0
M  V30 37680 O 3673.71 -3.42016 -0.99516 0
M  V30 37681 O 3672.57 -5.17162 -1.7665 0
M  V30 37682 H 3669.66 -0.77039 -0.300714 0
M  V30 37683 H 3672.21 -1.69132 0.138743 0
M  V30 37684 H 3670.98 -3.91298 -0.0123287 0
M  V30 37685 H 3670.6 -3.59534 -1.69767 0
M  V30 37686 N 3671.6 0.168458 -1.56697 0
M  V30 37687 C 3672.83 0.898814 -1.86024 0
M  V30 37688 C 3673.24 1.76211 -0.68894 0
M  V30 37689 O 3672.58 1.80314 0.351078 0
M  V30 37690 C 3672.64 1.82388 -3.09798 0
M  V30 37691 C 3672.31 1.13991 -4.42555 0
M  V30 37692 C 3673.3 0.504001 -5.17451 0
M  V30 37693 C 3670.99 1.13581 -4.8929 0
M  V30 37694 C 3672.98 -0.12687 -6.37274 0
M  V30 37695 C 3670.67 0.501115 -6.09042 0
M  V30 37696 C 3671.67 -0.129118 -6.82878 0
M  V30 37697 O 3671.36 -0.753798 -8.00358 0
M  V30 37698 H 3671.09 0.266415 -0.621288 0
M  V30 37699 H 3673.64 0.172526 -2.04674 0
M  V30 37700 H 3671.87 2.59056 -2.87101 0
M  V30 37701 H 3673.56 2.42432 -3.25548 0
M  V30 37702 H 3674.33 0.499122 -4.82425 0
M  V30 37703 H 3670.21 1.61576 -4.31757 0
M  V30 37704 H 3673.75 -0.619389 -6.94845 0
M  V30 37705 H 3669.65 0.503587 -6.43533 0
M  V30 37706 H 3670.42 -0.653332 -8.15888 0
M  V30 37707 N 3673.08 1.51417 0.437109 0
M  V30 37708 C 3674.01 1.75695 1.53797 0
M  V30 37709 C 3674.99 0.606787 1.58909 0
M  V30 37710 O 3676.17 0.849523 1.74633 0
M  V30 37711 C 3673.3 1.8822 2.91874 0
M  V30 37712 C 3672.26 3.03657 3.01623 0
M  V30 37713 C 3671.58 3.01366 4.41682 0
M  V30 37714 C 3672.88 4.43617 2.75683 0
M  V30 37715 H 3674.58 2.67873 1.33732 0
M  V30 37716 H 3672.12 1.28901 0.641914 0
M  V30 37717 H 3674.08 2.03787 3.68848 0
M  V30 37718 H 3672.8 0.926902 3.13171 0
M  V30 37719 H 3671.46 2.87795 2.27089 0
M  V30 37720 H 3671.11 2.03614 4.59946 0
M  V30 37721 H 3670.81 3.78883 4.49134 0
M  V30 37722 H 3672.33 3.19027 5.20629 0
M  V30 37723 H 3673.75 4.59828 3.4239 0
M  V30 37724 H 3672.14 5.22842 2.94545 0
M  V30 37725 H 3673.21 4.53639 1.71289 0
M  V30 37726 N 3674.56 -0.692567 1.41567 0
M  V30 37727 C 3675.5 -1.82776 1.4386 0
M  V30 37728 C 3676.5 -1.66421 0.316291 0
M  V30 37729 O 3677.7 -1.73246 0.488463 0
M  V30 37730 H 3674.08 -0.60236 0.450185 0
M  V30 37731 H 3676.05 -1.77959 2.39527 0
M  V30 37732 C 3674.8 -3.20817 1.34059 0
M  V30 37733 H 3674.12 -3.3402 2.19706 0
M  V30 37734 H 3675.56 -4.00316 1.39724 0
M  V30 37735 C 3674.02 -3.36858 0.0532772 0
M  V30 37736 O 3674.55 -3.91468 -0.900859 0
M  V30 37737 N 3672.76 -2.9059 -0.0237865 0
M  V30 37738 H 3672.3 -2.46336 0.753417 0
M  V30 37739 H 3672.26 -3.01701 -0.884518 0
M  V30 37740 N 3676.03 -1.27445 -0.927123 0
M  V30 37741 C 3676.97 -1.06017 -2.03207 0
M  V30 37742 C 3677.98 -0.0160696 -1.62792 0
M  V30 37743 O 3679.17 -0.257691 -1.7663 0
M  V30 37744 C 3676.27 -0.586284 -3.3379 0
M  V30 37745 C 3675.44 -1.7028 -4.02894 0
M  V30 37746 C 3674.5 -1.22456 -5.11753 0
M  V30 37747 O 3673.53 -1.92432 -5.35685 0
M  V30 37748 N 3674.73 -0.0805182 -5.80444 0
M  V30 37749 H 3677.49 -2.01169 -2.22152 0
M  V30 37750 H 3675.05 -1.19019 -1.09755 0
M  V30 37751 H 3677.05 -0.250232 -4.03926 0
M  V30 37752 H 3675.62 0.272021 -3.11414 0
M  V30 37753 H 3674.84 -2.2091 -3.26485 0
M  V30 37754 H 3676.12 -2.45213 -4.45812 0
M  V30 37755 H 3675.52 0.503536 -5.63455 0
M  V30 37756 H 3674.08 0.196352 -6.51504 0
M  V30 37757 N 3677.51 1.1337 -1.09476 0
M  V30 37758 C 3678.45 2.17877 -0.678577 0
M  V30 37759 C 3679.42 1.59516 0.31518 0
M  V30 37760 O 3680.61 1.87253 0.216434 0
M  V30 37761 C 3677.73 3.387 0.000246367 0
M  V30 37762 C 3676.78 4.15661 -0.955403 0
M  V30 37763 S 3677.61 4.75251 -2.46773 0
M  V30 37764 C 3678.77 5.99419 -1.80133 0
M  V30 37765 H 3679 2.52843 -1.56389 0
M  V30 37766 H 3676.54 1.24675 -0.910796 0
M  V30 37767 H 3678.49 4.08685 0.385599 0
M  V30 37768 H 3677.15 3.02034 0.862214 0
M  V30 37769 H 3676.35 5.02184 -0.427519 0
M  V30 37770 H 3675.95 3.51335 -1.28218 0
M  V30 37771 H 3678.24 6.68083 -1.12569 0
M  V30 37772 H 3679.18 6.56816 -2.64573 0
M  V30 37773 H 3679.59 5.50028 -1.27004 0
M  V30 37774 N 3678.99 0.882035 1.30606 0
M  V30 37775 C 3680.24 0.495072 1.9553 0
M  V30 37776 C 3680.55 -0.96002 1.7042 0
M  V30 37777 O 3681.76 -1.45369 2.29303 0
M  V30 37778 C 3680.21 0.834444 3.50093 0
M  V30 37779 C 3679.82 2.30711 3.84027 0
M  V30 37780 C 3681.57 0.516537 4.21346 0
M  V30 37781 C 3679.47 2.58826 5.31755 0
M  V30 37782 H 3678.4 0.181412 0.731851 0
M  V30 37783 H 3681.05 1.0766 1.48598 0
M  V30 37784 H 3679.44 0.182031 3.95581 0
M  V30 37785 H 3680.61 3.00359 3.49458 0
M  V30 37786 H 3678.93 2.59225 3.2587 0
M  V30 37787 H 3681.52 0.703669 5.3005 0
M  V30 37788 H 3681.87 -0.543862 4.12732 0
M  V30 37789 H 3682.4 1.12601 3.81531 0
M  V30 37790 H 3679.14 3.63596 5.45416 0
M  V30 37791 H 3678.66 1.93784 5.67633 0
M  V30 37792 H 3680.34 2.44176 5.99155 0
M  V30 37793 N 3680.47 -1.439 0.642688 0
M  V30 37794 C 3681.42 -2.32502 -0.0673517 0
M  V30 37795 C 3682.41 -1.48011 -0.823955 0
M  V30 37796 O 3683.62 -1.64285 -0.735546 0
M  V30 37797 H 3679.99 -0.750905 -0.0405583 0
M  V30 37798 H 3681.96 -2.90126 0.697821 0
M  V30 37799 C 3680.71 -3.32175 -1.02739 0
M  V30 37800 H 3680.03 -3.97207 -0.454627 0
M  V30 37801 H 3681.47 -3.96826 -1.49348 0
M  V30 37802 C 3679.93 -2.61973 -2.1183 0
M  V30 37803 O 3680.46 -2.42731 -3.2007 0
M  V30 37804 N 3678.67 -2.2152 -1.88088 0
M  V30 37805 H 3678.22 -2.3737 -1.00067 0
M  V30 37806 H 3678.17 -1.74877 -2.61276 0
M  V30 37807 N 3681.95 -0.383945 -1.52852 0
M  V30 37808 C 3683.17 0.202728 -2.06407 0
M  V30 37809 C 3683.6 1.40181 -1.25423 0
M  V30 37810 O 3682.96 1.79157 -0.277907 0
M  V30 37811 C 3683 0.556352 -3.56282 0
M  V30 37812 O 3682.11 1.65106 -3.77907 0
M  V30 37813 H 3681.45 0.0251621 -0.663523 0
M  V30 37814 H 3683.98 -0.549865 -1.97073 0
M  V30 37815 H 3683.99 0.822179 -3.9963 0
M  V30 37816 H 3682.66 -0.320326 -4.14665 0
M  V30 37817 H 3681.24 1.37937 -3.4645 0
M  V30 37818 N 3683.43 1.5719 -0.113614 0
M  V30 37819 C 3684.36 2.10729 0.875704 0
M  V30 37820 C 3685.34 1.02235 1.26439 0
M  V30 37821 O 3686.52 1.29855 1.36638 0
M  V30 37822 C 3683.65 2.59956 2.17119 0
M  V30 37823 C 3682.69 3.80283 1.93098 0
M  V30 37824 S 3683.53 5.22959 1.15214 0
M  V30 37825 C 3684.68 5.7555 2.45953 0
M  V30 37826 H 3684.92 2.94314 0.4203 0
M  V30 37827 H 3682.45 1.54075 0.100054 0
M  V30 37828 H 3684.41 2.88973 2.91556 0
M  V30 37829 H 3683.07 1.76562 2.59778 0
M  V30 37830 H 3682.26 4.12858 2.89075 0
M  V30 37831 H 3681.86 3.51855 1.26784 0
M  V30 37832 H 3684.15 5.84946 3.41825 0
M  V30 37833 H 3685.1 6.7373 2.17931 0
M  V30 37834 H 3685.51 5.03585 2.55074 0
M  V30 37835 N 3684.9 -0.160146 1.56784 0
M  V30 37836 C 3685.87 -1.18192 1.96375 0
M  V30 37837 C 3686.87 -1.36579 0.848698 0
M  V30 37838 O 3688.06 -1.33794 1.11556 0
M  V30 37839 C 3685.19 -2.54483 2.26829 0
M  V30 37840 H 3686.38 -0.84259 2.8782 0
M  V30 37841 H 3683.93 -0.403012 1.51015 0
M  V30 37842 H 3684.67 -2.9341 1.38134 0
M  V30 37843 H 3684.45 -2.42501 3.08116 0
M  V30 37844 H 3685.94 -3.28099 2.58342 0
M  V30 37845 N 3686.38 -1.51647 -0.429072 0
M  V30 37846 C 3687.29 -1.76415 -1.54645 0
M  V30 37847 C 3688.31 -0.648731 -1.61454 0
M  V30 37848 O 3689.48 -0.931919 -1.78542 0
M  V30 37849 C 3686.55 -1.89147 -2.90559 0
M  V30 37850 C 3685.61 -3.13019 -2.93799 0
M  V30 37851 C 3684.84 -3.25134 -4.2323 0
M  V30 37852 O 3685.07 -2.42988 -5.16055 0
M  V30 37853 O 3684 -4.18165 -4.32922 0
M  V30 37854 H 3687.83 -2.71217 -1.36657 0
M  V30 37855 H 3685.41 -1.36248 -0.612922 0
M  V30 37856 H 3687.29 -1.99459 -3.71206 0
M  V30 37857 H 3685.97 -0.975326 -3.08657 0
M  V30 37858 H 3684.87 -3.08179 -2.12076 0
M  V30 37859 H 3686.21 -4.04349 -2.80647 0
M  V30 37860 N 3687.86 0.685049 -1.41932 0
M  V30 37861 C 3689.14 1.44033 -1.3234 0
M  V30 37862 C 3689.52 2.11054 0.044079 0
M  V30 37863 O 3688.86 2.02479 1.05898 0
M  V30 37864 C 3689.07 2.45116 -2.48433 0
M  V30 37865 C 3690.42 3.10061 -2.90081 0
M  V30 37866 O 3691.45 2.55442 -2.48249 0
M  V30 37867 O 3690.31 4.09012 -3.62452 0
M  V30 37868 H 3687.4 0.64195 -0.521373 0
M  V30 37869 H 3689.95 0.714639 -1.53919 0
M  V30 37870 H 3688.72 1.9432 -3.3964 0
M  V30 37871 H 3688.34 3.2518 -2.28787 0
M  V30 37872 N 3689.34 1.27935 0.920351 0
M  V30 37873 C 3690.59 1.14477 1.66552 0
M  V30 37874 C 3690.91 -0.30841 1.92546 0
M  V30 37875 O 3690.18 -1.21471 1.53693 0
M  V30 37876 H 3688.76 0.420662 0.617295 0
M  V30 37877 H 3691.42 1.60569 1.1047 0
M  V30 37878 H 3690.51 1.67939 2.63064 0
M  V30 37879 N 3690.82 -1.12788 1.10076 0
M  V30 37880 C 3692.04 -1.88586 0.863139 0
M  V30 37881 C 3692.47 -1.78916 -0.580564 0
M  V30 37882 O 3691.82 -1.14145 -1.40857 0
M  V30 37883 C 3691.87 -3.35906 1.31148 0
M  V30 37884 O 3690.98 -4.09665 0.47416 0
M  V30 37885 H 3690.32 -0.586109 0.312045 0
M  V30 37886 H 3692.85 -1.42659 1.46661 0
M  V30 37887 H 3692.86 -3.86742 1.2998 0
M  V30 37888 H 3691.53 -3.42261 2.36285 0
M  V30 37889 H 3690.11 -3.68811 0.55073 0
M  V30 37890 N 3692.29 -0.888949 -1.30136 0
M  V30 37891 C 3693.24 -0.348253 -2.29978 0
M  V30 37892 C 3694.24 0.546866 -1.6033 0
M  V30 37893 O 3695.44 0.430859 -1.74767 0
M  V30 37894 H 3691.82 -0.0939694 -0.746106 0
M  V30 37895 H 3693.79 -1.2039 -2.73036 0
M  V30 37896 C 3692.54 0.418701 -3.4517 0
M  V30 37897 H 3691.86 -0.260831 -3.98948 0
M  V30 37898 H 3693.3 0.76206 -4.17095 0
M  V30 37899 C 3691.76 1.61729 -2.95542 0
M  V30 37900 O 3692.29 2.71665 -2.95907 0
M  V30 37901 N 3690.49 1.4558 -2.51505 0
M  V30 37902 H 3690.04 0.561438 -2.51407 0
M  V30 37903 H 3690 2.25912 -2.18658 0
M  V30 37904 N 3693.77 1.43557 -0.65031 0
M  V30 37905 C 3695.19 1.56408 -0.317613 0
M  V30 37906 C 3695.39 1.6345 1.17841 0
M  V30 37907 O 3694.44 1.58798 1.96315 0
M  V30 37908 C 3695.76 2.8264 -1.02641 0
M  V30 37909 C 3697.3 2.9638 -1.00638 0
M  V30 37910 C 3697.78 4.2544 -1.69602 0
M  V30 37911 N 3699.27 4.32298 -1.66352 0
M  V30 37912 C 3700.01 5.3092 -2.1659 0
M  V30 37913 N 3699.5 6.35838 -2.75103 0
M  V30 37914 N 3701.29 5.22554 -2.07107 0
M  V30 37915 H 3693.45 1.3723 -1.62116 0
M  V30 37916 H 3695.71 0.658883 -0.681599 0
M  V30 37917 H 3695.41 2.83489 -2.08151 0
M  V30 37918 H 3695.29 3.72774 -0.576146 0
M  V30 37919 H 3697.68 2.95072 0.0403 0
M  V30 37920 H 3697.76 2.07543 -1.49532 0
M  V30 37921 H 3697.4 4.27507 -2.74226 0
M  V30 37922 H 3697.33 5.13168 -1.18177 0
M  V30 37923 H 3699.82 3.57098 -1.2365 0
M  V30 37924 H 3700.13 7.07406 -3.11121 0
M  V30 37925 H 3698.48 6.36469 -2.79163 0
M  V30 37926 H 3701.67 4.39504 -1.61101 0
M  V30 37927 H 3701.84 5.99256 -2.46568 0
M  V30 37928 N 3695.25 0.392045 1.52646 0
M  V30 37929 C 3696.48 -0.189256 2.06033 0
M  V30 37930 C 3696.89 -1.40286 1.26354 0
M  V30 37931 O 3696.25 -1.79832 0.310909 0
M  V30 37932 C 3696.3 -0.556657 3.57188 0
M  V30 37933 O 3696.02 0.608733 4.3385 0
M  V30 37934 C 3697.52 -1.19353 4.26931 0
M  V30 37935 H 3694.74 -0.0279059 0.670419 0
M  V30 37936 H 3697.29 0.558067 1.96738 0
M  V30 37937 H 3695.44 -1.25388 3.66547 0
M  V30 37938 H 3695.86 0.306131 5.23606 0
M  V30 37939 H 3697.33 -1.40094 5.33927 0
M  V30 37940 H 3697.81 -2.16169 3.82319 0
M  V30 37941 H 3698.41 -0.536995 4.21896 0
M  V30 37942 N 3696.73 -1.57127 0.121948 0
M  V30 37943 C 3697.97 -1.95585 -0.53613 0
M  V30 37944 C 3698.31 -1.00553 -1.66141 0
M  V30 37945 O 3697.58 -0.0432769 -1.94452 0
M  V30 37946 C 3697.87 -3.43959 -1.06604 0
M  V30 37947 C 3697.72 -4.49765 0.0560249 0
M  V30 37948 C 3699.04 -3.94246 -1.95596 0
M  V30 37949 H 3696.16 -0.711168 -0.193414 0
M  V30 37950 H 3698.8 -1.88964 0.198105 0
M  V30 37951 H 3696.95 -3.49732 -1.69174 0
M  V30 37952 H 3698.62 -4.56089 0.691437 0
M  V30 37953 H 3696.86 -4.27804 0.718755 0
M  V30 37954 H 3697.53 -5.50851 -0.356036 0
M  V30 37955 H 3700.01 -3.90795 -1.42892 0
M  V30 37956 H 3698.89 -4.98577 -2.29591 0
M  V30 37957 H 3699.15 -3.35115 -2.88358 0
M  V30 37958 N 3698.21 0.151829 -1.56867 0
M  V30 37959 C 3699.46 0.863657 -1.82274 0
M  V30 37960 C 3699.77 1.82553 -0.702409 0
M  V30 37961 O 3700.97 2.58115 -0.841948 0
M  V30 37962 C 3699.43 1.58643 -3.23048 0
M  V30 37963 C 3699.04 0.667214 -4.43004 0
M  V30 37964 C 3700.78 2.28533 -3.57733 0
M  V30 37965 C 3698.69 1.39134 -5.74801 0
M  V30 37966 H 3697.62 0.326257 -0.679759 0
M  V30 37967 H 3700.27 0.116422 -1.8313 0
M  V30 37968 H 3698.65 2.37912 -3.16565 0
M  V30 37969 H 3699.83 -0.0899063 -4.60712 0
M  V30 37970 H 3698.14 0.076979 -4.16329 0
M  V30 37971 H 3700.74 2.8334 -4.53456 0
M  V30 37972 H 3701.08 3.04798 -2.83556 0
M  V30 37973 H 3701.61 1.56188 -3.65856 0
M  V30 37974 H 3698.35 0.670632 -6.5206 0
M  V30 37975 H 3697.87 2.12129 -5.61036 0
M  V30 37976 H 3699.55 1.93356 -6.17432 0
M  V30 37977 N 3699.68 1.51872 0.421024 0
M  V30 37978 C 3700.65 1.73752 1.49475 0
M  V30 37979 C 3701.65 0.607422 1.48886 0
M  V30 37980 O 3702.84 0.87517 1.5062 0
M  V30 37981 C 3699.97 1.80898 2.88944 0
M  V30 37982 H 3701.16 2.69595 1.31372 0
M  V30 37983 H 3698.72 1.42108 0.650761 0
M  V30 37984 H 3699.45 0.869275 3.12433 0
M  V30 37985 H 3699.24 2.63043 2.90776 0
M  V30 37986 H 3700.73 1.99609 3.66805 0
M  V30 37987 N 3701.16 -0.677513 1.42294 0
M  V30 37988 C 3702.58 -0.990312 1.2516 0
M  V30 37989 C 3702.78 -2.00912 0.153839 0
M  V30 37990 O 3701.83 -2.47976 -0.475824 0
M  V30 37991 C 3703.15 -1.49771 2.60748 0
M  V30 37992 C 3704.7 -1.61562 2.6808 0
M  V30 37993 C 3705.17 -2.15698 4.04028 0
M  V30 37994 N 3706.66 -2.23035 4.05968 0
M  V30 37995 C 3707.4 -2.65991 5.07973 0
M  V30 37996 N 3706.89 -3.08421 6.20362 0
M  V30 37997 N 3708.69 -2.65716 4.9533 0
M  V30 37998 H 3700.84 -0.00292089 2.124 0
M  V30 37999 H 3703.1 -0.0638234 0.945849 0
M  V30 38000 H 3702.81 -0.823612 3.4192 0
M  V30 38001 H 3702.68 -2.4769 2.84481 0
M  V30 38002 H 3705.07 -2.28078 1.87255 0
M  V30 38003 H 3705.15 -0.62139 2.48138 0
M  V30 38004 H 3704.79 -1.49792 4.85309 0
M  V30 38005 H 3704.72 -3.15907 4.2132 0
M  V30 38006 H 3707.21 -1.93116 3.2483 0
M  V30 38007 H 3707.53 -3.39877 6.94049 0
M  V30 38008 H 3705.87 -3.06285 6.23871 0
M  V30 38009 H 3709.06 -2.31929 4.06604 0
M  V30 38010 H 3709.23 -2.98874 5.7496 0
M  V30 38011 N 3702.64 -1.28421 -0.913554 0
M  V30 38012 C 3703.89 -1.15758 -1.66517 0
M  V30 38013 C 3704.22 0.293132 -1.91975 0
M  V30 38014 O 3703.49 1.21318 -1.52027 0
M  V30 38015 C 3703.78 -1.95677 -3.02295 0
M  V30 38016 C 3703.63 -3.48812 -2.8399 0
M  V30 38017 C 3704.95 -1.77233 -4.02835 0
M  V30 38018 H 3702.07 -0.421888 -0.604301 0
M  V30 38019 H 3704.71 -1.57739 -1.05917 0
M  V30 38020 H 3702.86 -1.60002 -3.54022 0
M  V30 38021 H 3704.53 -3.94394 -2.39272 0
M  V30 38022 H 3702.78 -3.74435 -2.19045 0
M  V30 38023 H 3703.45 -3.99988 -3.80412 0
M  V30 38024 H 3705.92 -2.08367 -3.6017 0
M  V30 38025 H 3704.8 -2.35524 -4.95802 0
M  V30 38026 H 3705.06 -0.723881 -4.36133 0
M  V30 38027 N 3704.12 1.12202 -1.10672 0
M  V30 38028 C 3705.53 1.65296 -0.867988 0
M  V30 38029 C 3705.88 1.8676 0.601264 0
M  V30 38030 O 3705.01 1.5959 1.4615 0
M  V30 38031 C 3705.6 3.00274 -1.56912 0
M  V30 38032 C 3704.16 3.50307 -1.37702 0
M  V30 38033 C 3703.31 2.2528 -1.61692 0
M  V30 38034 H 3706.26 0.959499 -1.26409 0
M  V30 38035 H 3706.28 3.66863 -1.00954 0
M  V30 38036 H 3705.79 2.8462 -2.63843 0
M  V30 38037 H 3703.89 3.71141 -0.329446 0
M  V30 38038 H 3704 4.2961 -2.12066 0
M  V30 38039 H 3702.37 2.32508 -1.03981 0
M  V30 38040 H 3703.15 2.12177 -2.69881 0
M  V30 38041 N 3705.6 0.895838 1.29663 0
M  V30 38042 C 3706.54 0.369051 2.2783 0
M  V30 38043 C 3707.51 -0.546729 1.56844 0
M  V30 38044 O 3708.7 -0.472804 1.84849 0
M  V30 38045 C 3705.84 -0.400824 3.42764 0
M  V30 38046 C 3704.95 0.54541 4.28543 0
M  V30 38047 C 3704.09 -0.241134 5.30652 0
M  V30 38048 C 3703.13 0.699872 6.08086 0
M  V30 38049 N 3702.26 -0.0520243 7.02081 0
M  V30 38050 H 3707.1 1.21129 2.72272 0
M  V30 38051 H 3704.64 0.608654 1.33917 0
M  V30 38052 H 3706.6 -0.863205 4.08172 0
M  V30 38053 H 3705.23 -1.20755 2.99363 0
M  V30 38054 H 3704.28 1.1263 3.63344 0
M  V30 38055 H 3705.59 1.26587 4.8247 0
M  V30 38056 H 3704.75 -0.764888 6.01859 0
M  V30 38057 H 3703.48 -0.994754 4.77447 0
M  V30 38058 H 3702.49 1.23516 5.35746 0
M  V30 38059 H 3703.71 1.45276 6.63379 0
M  V30 38060 H 3701.66 -0.787981 6.5125 0
M  V30 38061 H 3701.58 0.608602 7.53546 0
M  V30 38062 H 3702.85 -0.556167 7.77513 0
M  V30 38063 N 3707.07 -1.43211 0.657914 0
M  V30 38064 C 3708.49 -1.84985 0.252476 0
M  V30 38065 C 3708.84 -1.55074 -1.20193 0
M  V30 38066 O 3707.96 -1.00206 -1.91801 0
M  V30 38067 C 3708.56 -3.35779 0.451447 0
M  V30 38068 C 3707.12 -3.76266 0.100285 0
M  V30 38069 C 3706.26 -2.66907 0.752056 0
M  V30 38070 H 3709.21 -1.33297 0.861262 0
M  V30 38071 H 3709.23 -3.79303 -0.301623 0
M  V30 38072 H 3708.75 -3.57517 1.51007 0
M  V30 38073 H 3706.85 -3.60139 -0.955554 0
M  V30 38074 H 3706.96 -4.7617 0.529026 0
M  V30 38075 H 3705.32 -2.54028 0.184868 0
M  V30 38076 H 3706.11 -2.91473 1.8138 0
M  V30 38077 N 3708.55 -0.400135 -1.52436 0
M  V30 38078 C 3709.97 -0.0505892 -1.5952 0
M  V30 38079 C 3710.17 1.43603 -1.41352 0
M  V30 38080 O 3709.22 2.20183 -1.23595 0
M  V30 38081 C 3710.54 -0.537463 -2.95858 0
M  V30 38082 C 3712.09 -0.494657 -3.09067 0
M  V30 38083 C 3712.56 -0.957894 -4.47871 0
M  V30 38084 N 3714.05 -0.914347 -4.54086 0
M  V30 38085 C 3714.79 -1.24407 -5.59741 0
M  V30 38086 N 3714.28 -1.6448 -6.72992 0
M  V30 38087 N 3716.08 -1.16462 -5.49903 0
M  V30 38088 H 3708.23 -1.36784 -1.62493 0
M  V30 38089 H 3710.49 -0.561342 -0.763937 0
M  V30 38090 H 3710.2 -1.57617 -3.14404 0
M  V30 38091 H 3710.07 0.0576989 -3.77156 0
M  V30 38092 H 3712.46 0.534984 -2.9021 0
M  V30 38093 H 3712.54 -1.12576 -2.29696 0
M  V30 38094 H 3712.18 -1.98582 -4.67469 0
M  V30 38095 H 3712.11 -0.303694 -5.25724 0
M  V30 38096 H 3714.6 -0.619602 -3.72786 0
M  V30 38097 H 3714.92 -1.87974 -7.4959 0
M  V30 38098 H 3713.26 -1.68376 -6.74296 0
M  V30 38099 H 3716.45 -0.850482 -4.60309 0
M  V30 38100 H 3716.62 -1.42489 -6.3214 0
M  V30 38101 N 3710.03 1.57061 -0.13028 0
M  V30 38102 C 3710.99 2.1473 0.801491 0
M  V30 38103 C 3711.99 1.08491 1.18686 0
M  V30 38104 O 3713.18 1.34213 1.11051 0
M  V30 38105 C 3710.32 2.69676 2.08537 0
M  V30 38106 H 3711.51 2.98395 0.300119 0
M  V30 38107 H 3709.06 1.55846 0.119049 0
M  V30 38108 H 3709.8 1.8963 2.6308 0
M  V30 38109 H 3709.58 3.47384 1.81843 0
M  V30 38110 H 3711.07 3.14163 2.75121 0
M  V30 38111 N 3711.51 -0.143508 1.56945 0
M  V30 38112 C 3712.76 -0.853979 1.8273 0
M  V30 38113 C 3713.07 -1.82178 0.71208 0
M  V30 38114 O 3714.28 -2.57665 0.855625 0
M  V30 38115 C 3712.73 -1.56928 3.23885 0
M  V30 38116 C 3712.34 -0.643711 4.43351 0
M  V30 38117 C 3714.09 -2.26633 3.5894 0
M  V30 38118 C 3711.99 -1.36084 5.7553 0
M  V30 38119 H 3710.92 -0.322648 0.68148 0
M  V30 38120 H 3713.57 -0.106708 1.83189 0
M  V30 38121 H 3711.96 -2.3623 3.17823 0
M  V30 38122 H 3713.13 0.114338 4.60658 0
M  V30 38123 H 3711.44 -0.054899 4.16364 0
M  V30 38124 H 3714.04 -2.80931 4.54953 0
M  V30 38125 H 3714.38 -3.0329 2.85168 0
M  V30 38126 H 3714.92 -1.54245 3.66679 0
M  V30 38127 H 3711.66 -0.636043 6.52407 0
M  V30 38128 H 3711.18 -2.09151 5.62153 0
M  V30 38129 H 3712.86 -1.90079 6.18449 0
M  V30 38130 N 3712.99 -1.52093 -0.412964 0
M  V30 38131 C 3714.23 -1.6621 -1.16199 0
M  V30 38132 C 3714.57 -0.38899 -1.90264 0
M  V30 38133 O 3713.84 0.612445 -1.84606 0
M  V30 38134 C 3714.12 -2.88161 -2.15953 0
M  V30 38135 C 3713.98 -4.25511 -1.45809 0
M  V30 38136 C 3715.3 -3.05632 -3.16666 0
M  V30 38137 H 3712.42 -0.60487 -0.421072 0
M  V30 38138 H 3715.06 -1.84638 -0.44818 0
M  V30 38139 H 3713.21 -2.72579 -2.76826 0
M  V30 38140 H 3714.88 -4.52812 -0.880845 0
M  V30 38141 H 3713.12 -4.27089 -0.7601 0
M  V30 38142 H 3713.79 -5.0688 -2.18578 0
M  V30 38143 H 3716.27 -3.20085 -2.65866 0
M  V30 38144 H 3715.15 -3.9248 -3.83732 0
M  V30 38145 H 3715.41 -2.18775 -3.84174 0
M  V30 38146 N 3714.47 0.669957 -1.42651 0
M  V30 38147 C 3715.4 1.79531 -1.49301 0
M  V30 38148 C 3716.38 1.66478 -0.349139 0
M  V30 38149 O 3717.56 1.85827 -0.564105 0
M  V30 38150 C 3714.69 3.17858 -1.3994 0
M  V30 38151 C 3713.65 3.45653 -2.52404 0
M  V30 38152 C 3712.97 4.83606 -2.281 0
M  V30 38153 C 3714.27 3.42063 -3.94703 0
M  V30 38154 H 3715.97 1.74223 -2.43489 0
M  V30 38155 H 3713.51 0.836775 -1.17192 0
M  V30 38156 H 3715.46 3.96323 -1.432 0
M  V30 38157 H 3714.19 3.23856 -0.422493 0
M  V30 38158 H 3712.85 2.69552 -2.4847 0
M  V30 38159 H 3712.5 4.86259 -1.28691 0
M  V30 38160 H 3712.2 5.03165 -3.03478 0
M  V30 38161 H 3713.72 5.64348 -2.33117 0
M  V30 38162 H 3715.13 4.10489 -4.00214 0
M  V30 38163 H 3713.53 3.73158 -4.69972 0
M  V30 38164 H 3714.6 2.40547 -4.21029 0
M  V30 38165 N 3715.94 1.28904 0.90673 0
M  V30 38166 C 3717.22 1.07158 1.63636 0
M  V30 38167 C 3717.6 -0.386691 2.07528 0
M  V30 38168 O 3716.95 -1.37414 1.82564 0
M  V30 38169 C 3717.16 2.05268 2.82252 0
M  V30 38170 C 3718.51 2.35801 3.53105 0
M  V30 38171 O 3719.53 2.03407 2.92411 0
M  V30 38172 O 3718.39 2.91117 4.62507 0
M  V30 38173 H 3715.48 0.410045 0.718187 0
M  V30 38174 H 3718.03 1.40249 0.955417 0
M  V30 38175 H 3716.8 3.03521 2.46963 0
M  V30 38176 H 3716.42 1.72864 3.58056 0
M  V30 38177 N 3717.42 -1.11614 1.11266 0
M  V30 38178 C 3718.83 -1.64834 0.876742 0
M  V30 38179 C 3719.18 -1.87076 -0.591351 0
M  V30 38180 O 3718.31 -1.60363 -1.45302 0
M  V30 38181 C 3718.9 -2.99437 1.58502 0
M  V30 38182 C 3717.46 -3.49572 1.39558 0
M  V30 38183 C 3716.61 -2.24419 1.62885 0
M  V30 38184 H 3719.56 -0.952782 1.26916 0
M  V30 38185 H 3719.58 -3.66323 1.02898 0
M  V30 38186 H 3719.09 -2.83217 2.65349 0
M  V30 38187 H 3717.19 -3.70961 0.349124 0
M  V30 38188 H 3717.31 -4.28479 2.14341 0
M  V30 38189 H 3715.67 -2.31954 1.05212 0
M  V30 38190 H 3716.45 -2.10743 2.71002 0
M  V30 38191 N 3718.9 -0.902701 -1.29186 0
M  V30 38192 C 3720.14 -0.537105 -1.97217 0
M  V30 38193 C 3720.5 0.900393 -1.69579 0
M  V30 38194 O 3721.7 1.37301 -2.31088 0
M  V30 38195 C 3719.98 -0.824857 -3.47751 0
M  V30 38196 S 3721.53 -0.564019 -4.3516 0
M  V30 38197 H 3718.35 -0.199148 -0.68254 0
M  V30 38198 H 3720.95 -1.16578 -1.56939 0
M  V30 38199 H 3719.66 -1.86922 -3.6536 0
M  V30 38200 H 3719.19 -0.184411 -3.92968 0
M  V30 38201 H 3721.2 0.589611 -4.92685 0
M  V30 38202 N 3720.38 1.4286 -0.6655 0
M  V30 38203 C 3721.31 2.29128 0.0574092 0
M  V30 38204 C 3722.32 1.43178 0.774856 0
M  V30 38205 O 3723.51 1.66991 0.630564 0
M  V30 38206 C 3720.61 3.20388 1.10475 0
M  V30 38207 C 3719.78 4.34943 0.462995 0
M  V30 38208 C 3718.84 5.06989 1.40887 0
M  V30 38209 O 3717.87 5.61834 0.912741 0
M  V30 38210 N 3719.07 5.11633 2.74248 0
M  V30 38211 H 3721.84 2.91811 -0.683102 0
M  V30 38212 H 3719.4 1.53684 -0.509206 0
M  V30 38213 H 3721.39 3.65452 1.73859 0
M  V30 38214 H 3719.96 2.5922 1.7471 0
M  V30 38215 H 3719.18 3.92642 -0.350178 0
M  V30 38216 H 3720.47 5.08798 0.0155198 0
M  V30 38217 H 3719.87 4.68468 3.17103 0
M  V30 38218 H 3718.42 5.60374 3.32903 0
M  V30 38219 N 3721.86 0.408213 1.52221 0
M  V30 38220 C 3723.1 -0.167538 2.01404 0
M  V30 38221 C 3723.42 -1.45724 1.29574 0
M  V30 38222 O 3722.69 -1.91314 0.421396 0
M  V30 38223 H 3721.27 -0.0649025 0.744175 0
M  V30 38224 H 3723.94 0.544245 1.87147 0
M  V30 38225 H 3723.03 -0.364306 3.09966 0
M  V30 38226 N 3723.33 -1.56989 0.138607 0
M  V30 38227 C 3724.56 -1.99922 -0.521014 0
M  V30 38228 C 3724.97 -1.01757 -1.59506 0
M  V30 38229 O 3724.31 -0.00525142 -1.83699 0
M  V30 38230 C 3724.38 -3.39286 -1.1885 0
M  V30 38231 C 3724.04 -4.56259 -0.260064 0
M  V30 38232 C 3725.04 -5.17402 0.50901 0
M  V30 38233 C 3722.72 -5.02028 -0.165416 0
M  V30 38234 C 3724.72 -6.22716 1.36026 0
M  V30 38235 C 3722.4 -6.07198 0.689453 0
M  V30 38236 C 3723.4 -6.67411 1.45091 0
M  V30 38237 O 3723.09 -7.70547 2.29155 0
M  V30 38238 H 3722.82 -0.661158 -0.140878 0
M  V30 38239 H 3725.38 -2.04135 0.227653 0
M  V30 38240 H 3723.61 -3.31887 -1.98464 0
M  V30 38241 H 3725.29 -3.66381 -1.747 0
M  V30 38242 H 3726.06 -4.82946 0.445872 0
M  V30 38243 H 3721.94 -4.54894 -0.747823 0
M  V30 38244 H 3725.48 -6.69644 1.95508 0
M  V30 38245 H 3721.38 -6.41082 0.753913 0
M  V30 38246 H 3722.15 -7.87731 2.2231 0
M  V30 38247 N 3724.81 0.135183 -1.57019 0
M  V30 38248 C 3725.74 1.16807 -2.02184 0
M  V30 38249 C 3726.72 1.44126 -0.903425 0
M  V30 38250 O 3727.91 1.54844 -1.17205 0
M  V30 38251 C 3725.04 2.49834 -2.41247 0
M  V30 38252 C 3723.99 2.37012 -3.56384 0
M  V30 38253 C 3723.32 3.74856 -3.81296 0
M  V30 38254 C 3724.62 1.84424 -4.88657 0
M  V30 38255 H 3726.31 0.792479 -2.88722 0
M  V30 38256 H 3723.86 0.379763 -1.38902 0
M  V30 38257 H 3725.81 3.22328 -2.71446 0
M  V30 38258 H 3724.53 2.89252 -1.51661 0
M  V30 38259 H 3723.19 1.66969 -3.26369 0
M  V30 38260 H 3722.84 4.1173 -2.88941 0
M  V30 38261 H 3722.54 3.67135 -4.58787 0
M  V30 38262 H 3724.07 4.4888 -4.13931 0
M  V30 38263 H 3725.48 2.4672 -5.17496 0
M  V30 38264 H 3723.88 1.87564 -5.70035 0
M  V30 38265 H 3724.95 0.800675 -4.78244 0
M  V30 38266 N 3726.29 1.5231 0.404892 0
M  V30 38267 C 3727.52 1.70184 1.17136 0
M  V30 38268 C 3727.93 0.412838 1.84641 0
M  V30 38269 O 3727.27 -0.621317 1.72874 0
M  V30 38270 C 3727.33 2.78443 2.27397 0
M  V30 38271 C 3727 4.20061 1.79993 0
M  V30 38272 C 3727.99 5.0376 1.28537 0
M  V30 38273 C 3725.68 4.66314 1.86698 0
M  V30 38274 C 3727.67 6.31786 0.844139 0
M  V30 38275 C 3725.36 5.94328 1.42186 0
M  V30 38276 C 3726.36 6.76893 0.911299 0
M  V30 38277 O 3726.05 8.0251 0.472621 0
M  V30 38278 H 3725.78 0.573524 0.357835 0
M  V30 38279 H 3728.33 1.99667 0.481904 0
M  V30 38280 H 3726.56 2.44346 2.99719 0
M  V30 38281 H 3728.25 2.84875 2.89138 0
M  V30 38282 H 3729.02 4.69216 1.22726 0
M  V30 38283 H 3724.9 4.02149 2.25382 0
M  V30 38284 H 3728.44 6.9618 0.444941 0
M  V30 38285 H 3724.34 6.2838 1.47678 0
M  V30 38286 H 3725.11 8.16331 0.595546 0
M  V30 38287 N 3727.77 -0.662382 1.43004 0
M  V30 38288 C 3729.01 -1.42289 1.45346 0
M  V30 38289 C 3729.37 -1.92261 0.0731476 0
M  V30 38290 O 3728.66 -1.68786 -0.90674 0
M  V30 38291 C 3728.86 -2.62714 2.42314 0
M  V30 38292 C 3728.69 -2.24527 3.89638 0
M  V30 38293 C 3727.46 -2.13291 4.58078 0
M  V30 38294 C 3729.65 -1.85388 4.79725 0
M  V30 38295 N 3727.64 -1.68338 5.90369 0
M  V30 38296 C 3729.01 -1.51449 6.01218 0
M  V30 38297 C 3731.06 -1.7249 4.67067 0
M  V30 38298 C 3729.76 -1.05904 7.11461 0
M  V30 38299 C 3731.79 -1.2835 5.77304 0
M  V30 38300 C 3731.15 -0.953419 6.97918 0
M  V30 38301 H 3727.25 -0.516678 0.586999 0
M  V30 38302 H 3729.84 -0.76316 1.7912 0
M  V30 38303 H 3728.01 -3.26358 2.10582 0
M  V30 38304 H 3729.74 -3.2937 2.35154 0
M  V30 38305 H 3726.49 -2.32757 4.12458 0
M  V30 38306 H 3726.92 -1.48249 6.60569 0
M  V30 38307 H 3731.56 -1.96652 3.74283 0
M  V30 38308 H 3729.28 -0.804894 8.04082 0
M  V30 38309 H 3732.86 -1.18873 5.69526 0
M  V30 38310 H 3731.74 -0.617065 7.81768 0
M  V30 38311 N 3729.25 -1.29383 -0.899882 0
M  V30 38312 C 3730.21 -1.14498 -1.98552 0
M  V30 38313 C 3731.21 -0.0805014 -1.60598 0
M  V30 38314 O 3732.4 -0.327425 -1.71095 0
M  V30 38315 C 3729.53 -0.750876 -3.32528 0
M  V30 38316 H 3730.72 -2.10931 -2.13185 0
M  V30 38317 H 3728.28 -1.12567 -1.08436 0
M  V30 38318 H 3729.01 0.213611 -3.23596 0
M  V30 38319 H 3728.8 -1.51999 -3.6144 0
M  V30 38320 H 3730.29 -0.669781 -4.12194 0
M  V30 38321 N 3730.72 1.11022 -1.11856 0
M  V30 38322 C 3732 1.793 -0.781725 0
M  V30 38323 C 3732.38 1.98094 0.729525 0
M  V30 38324 O 3731.73 1.5691 1.66106 0
M  V30 38325 C 3731.94 3.12701 -1.54982 0
M  V30 38326 C 3733.29 3.87673 -1.73189 0
M  V30 38327 O 3734.31 3.22403 -1.51443 0
M  V30 38328 O 3733.17 5.04808 -2.09359 0
M  V30 38329 H 3730.26 0.776821 -0.283686 0
M  V30 38330 H 3732.81 1.17726 -1.22224 0
M  V30 38331 H 3731.58 2.94403 -2.57764 0
M  V30 38332 H 3731.21 3.8199 -1.10315 0
M  V30 38333 N 3732.2 0.90954 1.28706 0
M  V30 38334 C 3733.45 0.550754 1.95802 0
M  V30 38335 C 3733.8 -0.894947 1.70319 0
M  V30 38336 O 3733.1 -1.62741 1.01124 0
M  V30 38337 C 3733.29 0.791098 3.48535 0
M  V30 38338 C 3733.12 2.25861 3.88866 0
M  V30 38339 C 3731.89 2.90792 4.13241 0
M  V30 38340 C 3734.09 3.23467 3.99842 0
M  V30 38341 N 3732.07 4.27885 4.40214 0
M  V30 38342 C 3733.44 4.45709 4.3098 0
M  V30 38343 C 3735.5 3.18923 3.82351 0
M  V30 38344 C 3734.2 5.63982 4.46449 0
M  V30 38345 C 3736.22 4.36491 3.99036 0
M  V30 38346 C 3735.59 5.57506 4.30543 0
M  V30 38347 H 3731.69 0.251327 0.740513 0
M  V30 38348 H 3734.27 1.17239 1.55445 0
M  V30 38349 H 3732.44 0.198761 3.87891 0
M  V30 38350 H 3734.17 0.396764 4.0275 0
M  V30 38351 H 3730.93 2.41541 4.07376 0
M  V30 38352 H 3731.35 4.98755 4.57791 0
M  V30 38353 H 3735.99 2.26444 3.57048 0
M  V30 38354 H 3733.71 6.56943 4.70586 0
M  V30 38355 H 3737.3 4.34473 3.86943 0
M  V30 38356 H 3736.18 6.46963 4.43181 0
M  V30 38357 N 3733.68 -1.42505 0.673067 0
M  V30 38358 C 3734.96 -1.95209 0.12364 0
M  V30 38359 C 3735.34 -1.61357 -1.36115 0
M  V30 38360 O 3734.69 -0.90883 -2.09649 0
M  V30 38361 C 3734.9 -3.46803 0.390941 0
M  V30 38362 C 3736.24 -4.23492 0.306519 0
M  V30 38363 O 3737.27 -3.54718 0.324592 0
M  V30 38364 O 3736.13 -5.45941 0.247223 0
M  V30 38365 H 3733.22 -0.826998 0.00186322 0
M  V30 38366 H 3735.77 -1.52341 0.747677 0
M  V30 38367 H 3734.54 -3.64642 1.41957 0
M  V30 38368 H 3734.16 -3.96715 -0.265189 0
M  V30 38369 N 3735.16 -0.41628 -1.52003 0
M  V30 38370 C 3736.39 0.156455 -2.06308 0
M  V30 38371 C 3736.8 1.38258 -1.2857 0
M  V30 38372 O 3736.16 1.79315 -0.339479 0
M  V30 38373 C 3736.21 0.499761 -3.58029 0
M  V30 38374 O 3735.93 -0.677678 -4.32827 0
M  V30 38375 C 3737.43 1.12545 -4.28775 0
M  V30 38376 H 3734.65 0.0172366 -0.670779 0
M  V30 38377 H 3737.2 -0.589296 -1.95825 0
M  V30 38378 H 3735.35 1.19541 -3.68495 0
M  V30 38379 H 3735.76 -0.389394 -5.23053 0
M  V30 38380 H 3737.24 1.31582 -5.36088 0
M  V30 38381 H 3737.72 2.10059 -3.8571 0
M  V30 38382 H 3738.32 0.469807 -4.22697 0
M  V30 38383 N 3736.64 1.56914 -0.146931 0
M  V30 38384 C 3737.59 2.13333 0.804539 0
M  V30 38385 C 3738.57 1.06115 1.20948 0
M  V30 38386 O 3739.76 1.32292 1.17591 0
M  V30 38387 C 3736.89 2.75844 2.04365 0
M  V30 38388 C 3735.98 3.90186 1.66181 0
M  V30 38389 N 3736.37 4.96053 0.98818 0
M  V30 38390 C 3734.67 4.00892 1.95453 0
M  V30 38391 C 3735.37 5.76119 0.803855 0
M  V30 38392 N 3734.34 5.26884 1.33769 0
M  V30 38393 H 3738.15 2.92557 0.280641 0
M  V30 38394 H 3735.66 1.62308 0.0546119 0
M  V30 38395 H 3737.66 3.14625 2.73527 0
M  V30 38396 H 3736.32 1.98093 2.57273 0
M  V30 38397 H 3737.33 5.13818 0.64895 0
M  V30 38398 H 3734 3.34217 2.5021 0
M  V30 38399 H 3735.39 6.71345 0.272947 0
M  V30 38400 N 3738.11 -0.126854 1.57089 0
M  V30 38401 C 3739.08 -1.14 1.98838 0
M  V30 38402 C 3740.08 -1.34748 0.877478 0
M  V30 38403 O 3741.27 -1.31398 1.14369 0
M  V30 38404 C 3738.4 -2.49614 2.32176 0
M  V30 38405 H 3739.59 -0.781349 2.89543 0
M  V30 38406 H 3737.15 -0.370889 1.51836 0
M  V30 38407 H 3737.88 -2.90414 1.44326 0
M  V30 38408 H 3737.67 -2.35911 3.13191 0
M  V30 38409 H 3739.16 -3.22545 2.65244 0
M  V30 38410 N 3739.59 -1.52523 -0.396809 0
M  V30 38411 C 3740.54 -1.76745 -1.48424 0
M  V30 38412 C 3741.51 -0.610348 -1.5448 0
M  V30 38413 O 3742.69 -0.849231 -1.70859 0
M  V30 38414 C 3739.83 -1.9351 -2.85741 0
M  V30 38415 C 3738.95 -3.21188 -2.88899 0
M  V30 38416 C 3738.08 -3.28314 -4.17592 0
M  V30 38417 C 3737.12 -4.50146 -4.14771 0
M  V30 38418 N 3736.26 -4.54597 -5.35057 0
M  V30 38419 H 3741.1 -2.6955 -1.27071 0
M  V30 38420 H 3738.64 -1.33554 -0.616587 0
M  V30 38421 H 3740.59 -2.01214 -3.65471 0
M  V30 38422 H 3739.22 -1.04074 -3.05562 0
M  V30 38423 H 3738.28 -3.22594 -2.01587 0
M  V30 38424 H 3739.59 -4.10966 -2.82681 0
M  V30 38425 H 3738.74 -3.35158 -5.05721 0
M  V30 38426 H 3737.48 -2.36497 -4.26521 0
M  V30 38427 H 3736.49 -4.43435 -3.25031 0
M  V30 38428 H 3737.71 -5.43272 -4.07471 0
M  V30 38429 H 3735.66 -3.65667 -5.44631 0
M  V30 38430 H 3735.57 -5.38236 -5.30884 0
M  V30 38431 H 3736.84 -4.65686 -6.25106 0
M  V30 38432 N 3741.07 0.654789 -1.43354 0
M  V30 38433 C 3742.32 1.41056 -1.44174 0
M  V30 38434 C 3742.63 1.95478 -0.069093 0
M  V30 38435 O 3743.84 2.71462 0.0452544 0
M  V30 38436 C 3742.3 2.55267 -2.53706 0
M  V30 38437 C 3741.9 2.07459 -3.9707 0
M  V30 38438 C 3743.65 3.32645 -2.63719 0
M  V30 38439 C 3741.55 3.18872 -4.98071 0
M  V30 38440 H 3740.48 0.529986 -0.536312 0
M  V30 38441 H 3743.14 0.706911 -1.69337 0
M  V30 38442 H 3741.52 3.28095 -2.21742 0
M  V30 38443 H 3742.69 1.41652 -4.38487 0
M  V30 38444 H 3741.01 1.42965 -3.91088 0
M  V30 38445 H 3743.6 4.15657 -3.36353 0
M  V30 38446 H 3743.95 3.80571 -1.68736 0
M  V30 38447 H 3744.48 2.66897 -2.94976 0
M  V30 38448 H 3741.22 2.75917 -5.94601 0
M  V30 38449 H 3740.74 3.83396 -4.61268 0
M  V30 38450 H 3742.42 3.84028 -5.20703 0
M  V30 38451 N 3742.55 1.29858 0.893007 0
M  V30 38452 C 3743.46 1.1746 2.03077 0
M  V30 38453 C 3744.48 0.0963246 1.73733 0
M  V30 38454 O 3745.65 0.309702 1.99005 0
M  V30 38455 C 3742.72 0.85905 3.35889 0
M  V30 38456 C 3741.78 2.02186 3.78707 0
M  V30 38457 C 3741.01 1.72127 5.05181 0
M  V30 38458 O 3741.23 0.645376 5.66737 0
M  V30 38459 O 3740.17 2.57128 5.44214 0
M  V30 38460 H 3743.99 2.13021 2.16462 0
M  V30 38461 H 3741.58 1.09374 1.01772 0
M  V30 38462 H 3743.46 0.697925 4.1558 0
M  V30 38463 H 3742.14 -0.0667187 3.23631 0
M  V30 38464 H 3741.04 2.23827 2.99754 0
M  V30 38465 H 3742.38 2.92907 3.95558 0
M  V30 38466 N 3744.03 -1.10427 1.12443 0
M  V30 38467 C 3745.44 -1.34415 0.860505 0
M  V30 38468 C 3745.64 -1.94956 -0.509359 0
M  V30 38469 O 3744.7 -2.18929 -1.25803 0
M  V30 38470 C 3746.01 -2.26574 1.97698 0
M  V30 38471 C 3747.56 -2.40111 2.00787 0
M  V30 38472 C 3748.04 -3.35599 3.11669 0
M  V30 38473 N 3749.53 -3.43167 3.11112 0
M  V30 38474 C 3750.26 -4.17023 3.93547 0
M  V30 38475 N 3749.76 -4.93765 4.85971 0
M  V30 38476 N 3751.55 -4.12642 3.81684 0
M  V30 38477 H 3743.7 -0.695 2.00708 0
M  V30 38478 H 3745.96 -0.368603 0.873405 0
M  V30 38479 H 3745.67 -1.89301 2.96409 0
M  V30 38480 H 3745.54 -3.26882 1.88223 0
M  V30 38481 H 3747.93 -2.76654 1.02697 0
M  V30 38482 H 3748.01 -1.39618 2.14338 0
M  V30 38483 H 3747.66 -2.99782 4.09992 0
M  V30 38484 H 3747.59 -4.35972 2.95357 0
M  V30 38485 H 3750.08 -2.88438 2.44155 0
M  V30 38486 H 3750.39 -5.47519 5.45383 0
M  V30 38487 H 3748.74 -4.92889 4.89985 0
M  V30 38488 H 3751.93 -3.51783 3.08814 0
M  V30 38489 H 3752.1 -4.69942 4.4616 0
M  V30 38490 N 3745.51 -0.916353 -1.28221 0
M  V30 38491 C 3746.47 -0.411463 -2.25476 0
M  V30 38492 C 3747.47 0.463662 -1.5397 0
M  V30 38493 O 3748.66 0.266348 -1.72152 0
M  V30 38494 C 3745.79 0.409791 -3.38428 0
M  V30 38495 H 3746.98 -1.2706 -2.71654 0
M  V30 38496 H 3744.54 -0.695991 -1.39949 0
M  V30 38497 H 3745.27 1.28823 -2.97616 0
M  V30 38498 H 3745.06 -0.217504 -3.91496 0
M  V30 38499 H 3746.55 0.75379 -4.10741 0
M  V30 38500 N 3746.98 1.42146 -0.680615 0
M  V30 38501 C 3748.21 2.05792 -0.213875 0
M  V30 38502 C 3748.63 1.5116 1.1312 0
M  V30 38503 O 3747.98 0.653738 1.70389 0
M  V30 38504 C 3748.03 3.61203 -0.146571 0
M  V30 38505 O 3747.76 4.1381 -1.4385 0
M  V30 38506 C 3749.26 4.41971 0.342965 0
M  V30 38507 H 3746.48 0.663105 -0.102632 0
M  V30 38508 H 3749.02 1.82181 -0.928989 0
M  V30 38509 H 3747.18 3.83904 0.519267 0
M  V30 38510 H 3747.59 5.0773 -1.3157 0
M  V30 38511 H 3749.06 5.50958 0.338956 0
M  V30 38512 H 3749.54 4.16981 1.37926 0
M  V30 38513 H 3750.15 4.24301 -0.291341 0
M  V30 38514 N 3748.46 0.424336 1.5178 0
M  V30 38515 C 3749.39 -0.384422 2.30314 0
M  V30 38516 C 3750.37 -1.03265 1.35168 0
M  V30 38517 O 3751.56 -1.03877 1.64083 0
M  V30 38518 C 3748.69 -1.49306 3.13568 0
M  V30 38519 C 3747.64 -0.969022 4.16886 0
M  V30 38520 C 3746.97 -2.17242 4.8858 0
M  V30 38521 C 3748.27 -0.0124695 5.22299 0
M  V30 38522 H 3749.96 0.270923 2.98172 0
M  V30 38523 H 3747.51 0.131738 1.43396 0
M  V30 38524 H 3749.46 -2.06595 3.67282 0
M  V30 38525 H 3748.18 -2.1765 2.43507 0
M  V30 38526 H 3746.84 -0.41843 3.64204 0
M  V30 38527 H 3746.49 -2.84176 4.15034 0
M  V30 38528 H 3746.19 -1.82823 5.58435 0
M  V30 38529 H 3747.72 -2.75109 5.45112 0
M  V30 38530 H 3749.13 -0.494643 5.71162 0
M  V30 38531 H 3747.53 0.243649 5.99605 0
M  V30 38532 H 3748.6 0.928214 4.75933 0
M  V30 38533 N 3749.94 -1.56833 0.15525 0
M  V30 38534 C 3751.19 -1.95999 -0.492816 0
M  V30 38535 C 3751.51 -1.04153 -1.64855 0
M  V30 38536 O 3750.78 -0.104689 -1.9562 0
M  V30 38537 H 3749.36 -0.723716 -0.18505 0
M  V30 38538 H 3752.02 -1.93506 0.232678 0
M  V30 38539 H 3751.12 -2.99917 -0.863499 0
M  V30 38540 N 3751.42 0.118521 -1.57154 0
M  V30 38541 C 3752.67 0.824591 -1.84513 0
M  V30 38542 C 3752.99 1.80393 -0.740504 0
M  V30 38543 O 3752.26 1.9448 0.235447 0
M  V30 38544 H 3750.84 0.30751 -0.680769 0
M  V30 38545 H 3753.5 0.10573 -1.94613 0
M  V30 38546 H 3752.59 1.36953 -2.80447 0
M  V30 38547 N 3752.9 1.52731 0.388715 0
M  V30 38548 C 3753.84 1.78169 1.49528 0
M  V30 38549 C 3754.84 0.649641 1.56448 0
M  V30 38550 O 3756.04 0.832125 1.59611 0
M  V30 38551 H 3752.42 0.563759 0.497674 0
M  V30 38552 H 3754.39 2.70834 1.25267 0
M  V30 38553 C 3753.14 1.96779 2.86659 0
M  V30 38554 H 3752.46 2.83317 2.82084 0
M  V30 38555 H 3753.9 2.18567 3.63324 0
M  V30 38556 C 3752.36 0.740402 3.28663 0
M  V30 38557 O 3752.89 -0.0820299 4.01616 0
M  V30 38558 N 3751.1 0.570433 2.84946 0
M  V30 38559 H 3750.64 1.24082 2.25746 0
M  V30 38560 H 3750.6 -0.249441 3.13409 0
M  V30 38561 N 3754.37 -0.647178 1.43699 0
M  V30 38562 C 3755.62 -1.407 1.45636 0
M  V30 38563 C 3755.95 -1.94323 0.0828984 0
M  V30 38564 O 3755.2 -1.73098 -0.913003 0
M  V30 38565 C 3755.5 -2.60129 2.45087 0
M  V30 38566 C 3755.17 -2.24889 3.90814 0
M  V30 38567 C 3753.83 -2.1499 4.30503 0
M  V30 38568 C 3756.18 -1.96785 4.82623 0
M  V30 38569 C 3753.51 -1.75153 5.59945 0
M  V30 38570 C 3755.86 -1.58445 6.12436 0
M  V30 38571 C 3754.53 -1.47076 6.51095 0
M  V30 38572 H 3753.8 -0.514858 0.532919 0
M  V30 38573 H 3756.44 -0.735426 1.76816 0
M  V30 38574 H 3754.75 -3.32446 2.07333 0
M  V30 38575 H 3756.45 -3.18346 2.43838 0
M  V30 38576 H 3753.04 -2.33505 3.59407 0
M  V30 38577 H 3757.22 -2.03351 4.52727 0
M  V30 38578 H 3752.48 -1.64942 5.88731 0
M  V30 38579 H 3756.65 -1.35733 6.83044 0
M  V30 38580 H 3754.28 -1.15979 7.51301 0
M  V30 38581 N 3755.85 -1.3033 -0.886108 0
M  V30 38582 C 3757.27 -1.08637 -1.1692 0
M  V30 38583 C 3757.47 0.153614 -2.00914 0
M  V30 38584 O 3756.52 0.84755 -2.3785 0
M  V30 38585 C 3757.84 -2.34927 -1.87697 0
M  V30 38586 C 3759.39 -2.4038 -2.00466 0
M  V30 38587 C 3759.86 -3.66509 -2.74655 0
M  V30 38588 N 3761.35 -3.6731 -2.82201 0
M  V30 38589 C 3762.09 -4.61592 -3.40177 0
M  V30 38590 N 3761.58 -5.66218 -3.99211 0
M  V30 38591 N 3763.38 -4.49138 -3.37981 0
M  V30 38592 H 3755.53 -2.09883 -0.326027 0
M  V30 38593 H 3757.79 -0.925129 -0.20698 0
M  V30 38594 H 3757.5 -3.2541 -1.33421 0
M  V30 38595 H 3757.37 -2.43486 -2.88087 0
M  V30 38596 H 3759.76 -1.50376 -2.53912 0
M  V30 38597 H 3759.84 -2.35796 -0.991667 0
M  V30 38598 H 3759.48 -4.56871 -2.21882 0
M  V30 38599 H 3759.41 -3.68354 -3.76328 0
M  V30 38600 H 3761.9 -2.91669 -2.40287 0
M  V30 38601 H 3762.22 -6.34261 -4.41511 0
M  V30 38602 H 3760.56 -5.70011 -3.97633 0
M  V30 38603 H 3763.75 -3.66585 -2.91089 0
M  V30 38604 H 3763.92 -5.22797 -3.82868 0
M  V30 38605 N 3757.33 1.0983 -1.13028 0
M  V30 38606 C 3758.58 1.8219 -0.890768 0
M  V30 38607 C 3758.91 1.85281 0.581786 0
M  V30 38608 O 3758.18 1.318 1.43035 0
M  V30 38609 C 3758.47 3.28546 -1.47409 0
M  V30 38610 C 3758.32 3.33752 -3.01546 0
M  V30 38611 C 3759.64 4.2511 -1.13884 0
M  V30 38612 H 3756.76 0.661452 -0.32504 0
M  V30 38613 H 3759.4 1.28682 -1.39789 0
M  V30 38614 H 3757.55 3.74243 -1.04279 0
M  V30 38615 H 3759.22 2.96489 -3.53401 0
M  V30 38616 H 3757.47 2.73461 -3.36751 0
M  V30 38617 H 3758.14 4.36837 -3.37457 0
M  V30 38618 H 3760.61 3.87678 -1.51146 0
M  V30 38619 H 3759.49 5.25863 -1.57352 0
M  V30 38620 H 3759.75 4.42069 -0.0519317 0
M  V30 38621 N 3758.81 0.92314 1.27734 0
M  V30 38622 C 3760.22 0.606407 1.76577 0
M  V30 38623 C 3760.57 -0.878397 1.75438 0
M  V30 38624 O 3759.7 -1.68728 1.35498 0
M  V30 38625 C 3760.29 1.09402 3.2065 0
M  V30 38626 C 3758.85 0.828039 3.67179 0
M  V30 38627 C 3758 1.25537 2.47257 0
M  V30 38628 H 3760.95 1.1034 1.14065 0
M  V30 38629 H 3760.97 0.439647 3.77952 0
M  V30 38630 H 3760.48 2.1747 3.21447 0
M  V30 38631 H 3758.58 -0.239033 3.71832 0
M  V30 38632 H 3758.69 1.44237 4.56872 0
M  V30 38633 H 3757.06 0.673971 2.45621 0
M  V30 38634 H 3757.84 2.34459 2.50766 0
M  V30 38635 N 3760.29 -1.41783 0.688143 0
M  V30 38636 C 3761.54 -2.00571 0.21312 0
M  V30 38637 C 3761.85 -1.55103 -1.19173 0
M  V30 38638 O 3763.05 -2.064 -1.76383 0
M  V30 38639 C 3761.51 -3.58383 0.330138 0
M  V30 38640 C 3761.12 -4.12834 1.73989 0
M  V30 38641 C 3762.86 -4.24414 -0.0854905 0
M  V30 38642 C 3760.77 -5.63055 1.80896 0
M  V30 38643 H 3759.7 -0.750168 0.0759192 0
M  V30 38644 H 3762.35 -1.6235 0.855264 0
M  V30 38645 H 3760.73 -3.94171 -0.38013 0
M  V30 38646 H 3761.91 -3.88479 2.47831 0
M  V30 38647 H 3760.22 -3.59302 2.10454 0
M  V30 38648 H 3762.82 -5.34673 -0.0542202 0
M  V30 38649 H 3763.16 -4.00867 -1.123 0
M  V30 38650 H 3763.69 -3.93634 0.574238 0
M  V30 38651 H 3760.43 -5.91419 2.82674 0
M  V30 38652 H 3759.95 -5.89359 1.11427 0
M  V30 38653 H 3761.63 -6.27701 1.56846 0
M  V30 38654 N 3761.76 -0.432379 -1.51553 0
M  V30 38655 C 3763.01 0.135945 -2.02344 0
M  V30 38656 C 3763.34 1.42792 -1.31621 0
M  V30 38657 O 3762.62 1.89696 -0.429603 0
M  V30 38658 C 3762.9 0.359802 -3.58298 0
M  V30 38659 C 3762.75 -0.950476 -4.39643 0
M  V30 38660 C 3764.07 1.13177 -4.25299 0
M  V30 38661 H 3761.19 0.0479332 -0.73544 0
M  V30 38662 H 3763.83 -0.570405 -1.81236 0
M  V30 38663 H 3761.98 0.961481 -3.76414 0
M  V30 38664 H 3763.66 -1.58576 -4.33188 0
M  V30 38665 H 3761.9 -1.55621 -4.04925 0
M  V30 38666 H 3762.57 -0.747948 -5.46909 0
M  V30 38667 H 3765.05 0.622158 -4.11422 0
M  V30 38668 H 3763.92 1.25716 -5.3431 0
M  V30 38669 H 3764.18 2.15856 -3.85822 0
M  V30 38670 N 3763.24 1.56749 -0.163565 0
M  V30 38671 C 3764.19 2.18892 0.786706 0
M  V30 38672 C 3765.18 1.15068 1.24321 0
M  V30 38673 O 3766.39 1.33284 1.20976 0
M  V30 38674 H 3762.77 0.701103 0.271954 0
M  V30 38675 H 3764.74 2.97445 0.238548 0
M  V30 38676 C 3763.49 2.83786 2.009 0
M  V30 38677 H 3762.81 3.634 1.66675 0
M  V30 38678 H 3764.25 3.30747 2.65297 0
M  V30 38679 C 3762.71 1.83152 2.82766 0
M  V30 38680 O 3763.24 1.3122 3.79663 0
M  V30 38681 N 3761.44 1.52083 2.47627 0
M  V30 38682 H 3760.99 1.94507 1.68892 0
M  V30 38683 H 3760.95 0.850017 3.02691 0
M  V30 38684 N 3764.72 -0.110185 1.57214 0
M  V30 38685 C 3765.95 -0.834263 1.89881 0
M  V30 38686 C 3766.37 -1.72222 0.756377 0
M  V30 38687 O 3765.73 -1.78921 -0.292736 0
M  V30 38688 C 3765.78 -1.63623 3.21341 0
M  V30 38689 O 3764.88 -2.74393 3.07867 0
M  V30 38690 H 3764.22 -0.23016 0.622834 0
M  V30 38691 H 3766.75 -0.0899367 2.04402 0
M  V30 38692 H 3766.76 -2.02363 3.54279 0
M  V30 38693 H 3765.44 -0.98445 4.04081 0
M  V30 38694 H 3764.01 -2.38792 2.86414 0
M  V30 38695 N 3766.2 -1.52935 -0.38061 0
M  V30 38696 C 3767.42 -1.72577 -1.1503 0
M  V30 38697 C 3767.85 -0.446901 -1.82714 0
M  V30 38698 O 3767.21 0.597974 -1.71155 0
M  V30 38699 C 3767.25 -2.88174 -2.16768 0
M  V30 38700 O 3766.36 -2.55733 -3.23534 0
M  V30 38701 H 3765.7 -0.573602 -0.334479 0
M  V30 38702 H 3768.23 -1.99761 -0.442334 0
M  V30 38703 H 3768.24 -3.1391 -2.60623 0
M  V30 38704 H 3766.91 -3.80946 -1.66893 0
M  V30 38705 H 3765.49 -2.40765 -2.84757 0
M  V30 38706 N 3767.68 0.639548 -1.4404 0
M  V30 38707 C 3768.61 1.76324 -1.53076 0
M  V30 38708 C 3769.59 1.657 -0.384373 0
M  V30 38709 O 3770.77 1.84588 -0.603394 0
M  V30 38710 C 3767.9 3.14819 -1.46651 0
M  V30 38711 C 3766.86 3.40221 -2.59679 0
M  V30 38712 C 3766.18 4.78658 -2.38307 0
M  V30 38713 C 3767.48 3.33614 -4.0187 0
M  V30 38714 H 3769.18 1.69019 -2.47129 0
M  V30 38715 H 3766.72 0.811728 -1.18941 0
M  V30 38716 H 3768.68 3.93196 -1.51574 0
M  V30 38717 H 3767.4 3.22887 -0.491092 0
M  V30 38718 H 3766.06 2.64221 -2.54132 0
M  V30 38719 H 3765.71 4.8342 -1.38977 0
M  V30 38720 H 3765.41 4.96614 -3.14083 0
M  V30 38721 H 3766.93 5.59277 -2.45035 0
M  V30 38722 H 3768.34 4.01908 -4.08831 0
M  V30 38723 H 3766.74 3.63105 -4.77781 0
M  V30 38724 H 3767.81 2.31562 -4.26037 0
M  V30 38725 N 3769.15 1.30798 0.879184 0
M  V30 38726 C 3770.4 1.20132 1.63389 0
M  V30 38727 C 3770.73 -0.24213 1.92685 0
M  V30 38728 O 3770.01 -1.17245 1.5519 0
M  V30 38729 C 3770.29 2.03623 2.97001 0
M  V30 38730 C 3770.14 3.56218 2.74642 0
M  V30 38731 C 3771.46 1.87852 3.97995 0
M  V30 38732 H 3768.58 0.437761 0.592903 0
M  V30 38733 H 3771.22 1.60492 1.01697 0
M  V30 38734 H 3769.37 1.69332 3.49656 0
M  V30 38735 H 3771.05 4.00599 2.28731 0
M  V30 38736 H 3769.29 3.80111 2.09041 0
M  V30 38737 H 3769.96 4.09934 3.69673 0
M  V30 38738 H 3772.44 2.17843 3.54519 0
M  V30 38739 H 3771.31 2.48586 4.89383 0
M  V30 38740 H 3771.57 0.839259 4.34061 0
M  V30 38741 N 3770.63 -1.09229 1.13608 0
M  V30 38742 C 3771.57 -2.15209 0.758974 0
M  V30 38743 C 3772.54 -1.60576 -0.25576 0
M  V30 38744 O 3773.73 -1.87928 -0.146787 0
M  V30 38745 C 3770.86 -3.38468 0.12546 0
M  V30 38746 C 3769.9 -4.11829 1.10902 0
M  V30 38747 S 3770.73 -4.65765 2.64242 0
M  V30 38748 C 3771.89 -5.9232 2.02256 0
M  V30 38749 H 3772.12 -2.46865 1.65665 0
M  V30 38750 H 3769.66 -1.21209 0.956441 0
M  V30 38751 H 3771.61 -4.09834 -0.233653 0
M  V30 38752 H 3770.28 -3.05026 -0.749522 0
M  V30 38753 H 3769.47 -5.00251 0.613607 0
M  V30 38754 H 3769.07 -3.46334 1.41169 0
M  V30 38755 H 3771.36 -6.63445 1.37287 0
M  V30 38756 H 3772.31 -6.46544 2.88768 0
M  V30 38757 H 3772.71 -5.44935 1.4733 0
M  V30 38758 N 3772.11 -0.929901 -1.27242 0
M  V30 38759 C 3773.52 -0.615763 -1.76253 0
M  V30 38760 C 3773.87 0.86908 -1.75902 0
M  V30 38761 O 3773 1.68008 -1.36391 0
M  V30 38762 C 3773.59 -1.11101 -3.20066 0
M  V30 38763 C 3772.15 -0.847499 -3.66735 0
M  V30 38764 C 3771.3 -1.26846 -2.46587 0
M  V30 38765 H 3774.25 -1.10944 -1.13478 0
M  V30 38766 H 3774.27 -0.459684 -3.77713 0
M  V30 38767 H 3773.78 -2.19172 -3.20289 0
M  V30 38768 H 3771.88 0.21931 -3.71954 0
M  V30 38769 H 3772 -1.46658 -4.56101 0
M  V30 38770 H 3770.36 -0.686987 -2.4526 0
M  V30 38771 H 3771.14 -2.35786 -2.4952 0
M  V30 38772 N 3773.59 1.41416 -0.695653 0
M  V30 38773 C 3774.81 2.06073 -0.234199 0
M  V30 38774 C 3775.24 1.52008 1.10793 0
M  V30 38775 O 3774.6 0.64708 1.69359 0
M  V30 38776 C 3774.65 3.60031 -0.202417 0
M  V30 38777 O 3773.75 4.04111 0.822696 0
M  V30 38778 H 3773.09 0.65407 -0.114406 0
M  V30 38779 H 3775.62 1.81179 -0.950535 0
M  V30 38780 H 3775.63 4.07986 -0.0333038 0
M  V30 38781 H 3774.31 3.98751 -1.18195 0
M  V30 38782 H 3772.88 3.6766 0.622931 0
M  V30 38783 N 3775.07 0.44041 1.51321 0
M  V30 38784 C 3776.32 -0.12478 2.01714 0
M  V30 38785 C 3776.64 -1.42943 1.32636 0
M  V30 38786 O 3775.91 -1.90377 0.461882 0
M  V30 38787 H 3774.49 -0.0491029 0.745384 0
M  V30 38788 H 3777.15 0.58382 1.8595 0
M  V30 38789 H 3776.24 -0.298475 3.10669 0
M  V30 38790 N 3776.55 -1.5666 0.171876 0
M  V30 38791 C 3777.48 -2.20997 -0.753822 0
M  V30 38792 C 3778.46 -1.16576 -1.23871 0
M  V30 38793 O 3779.64 -1.45007 -1.29176 0
M  V30 38794 C 3776.77 -2.85116 -1.98309 0
M  V30 38795 C 3775.73 -3.9558 -1.63403 0
M  V30 38796 C 3775.05 -4.46751 -2.93799 0
M  V30 38797 C 3776.35 -5.15144 -0.861623 0
M  V30 38798 H 3778.05 -2.98609 -0.217545 0
M  V30 38799 H 3775.59 -1.4363 -0.103195 0
M  V30 38800 H 3777.54 -3.28799 -2.6357 0
M  V30 38801 H 3776.27 -2.04874 -2.54351 0
M  V30 38802 H 3774.93 -3.52553 -1.0051 0
M  V30 38803 H 3774.58 -3.63299 -3.47883 0
M  V30 38804 H 3774.28 -5.21273 -2.71198 0
M  V30 38805 H 3775.8 -4.93121 -3.60089 0
M  V30 38806 H 3777.21 -5.55517 -1.41684 0
M  V30 38807 H 3775.61 -5.95587 -0.734623 0
M  V30 38808 H 3776.68 -4.84692 0.141936 0
M  V30 38809 N 3778.02 0.101846 -1.57271 0
M  V30 38810 C 3779.25 0.820296 -1.89944 0
M  V30 38811 C 3779.67 1.72612 -0.764898 0
M  V30 38812 O 3779.02 1.80588 0.263467 0
M  V30 38813 C 3779.07 1.63934 -3.22192 0
M  V30 38814 O 3778.8 0.769964 -4.31281 0
M  V30 38815 C 3780.3 2.46144 -3.68684 0
M  V30 38816 H 3777.52 0.234911 -0.628536 0
M  V30 38817 H 3780.06 0.0811003 -2.04339 0
M  V30 38818 H 3778.22 2.33111 -3.09416 0
M  V30 38819 H 3778.63 1.33656 -5.07185 0
M  V30 38820 H 3780.1 2.99116 -4.63933 0
M  V30 38821 H 3780.58 3.24297 -2.96189 0
M  V30 38822 H 3781.19 1.82178 -3.84306 0
M  V30 38823 N 3779.5 1.53135 0.372494 0
M  V30 38824 C 3780.43 1.8206 1.46207 0
M  V30 38825 C 3781.41 0.673639 1.56193 0
M  V30 38826 O 3782.6 0.922827 1.70873 0
M  V30 38827 C 3779.73 2.0043 2.83628 0
M  V30 38828 C 3778.68 3.16177 2.88473 0
M  V30 38829 C 3778.01 3.19828 4.28502 0
M  V30 38830 C 3779.31 4.54911 2.5662 0
M  V30 38831 H 3781 2.73304 1.22251 0
M  V30 38832 H 3778.55 1.31508 0.586665 0
M  V30 38833 H 3780.5 2.19248 3.59873 0
M  V30 38834 H 3779.22 1.05889 3.08958 0
M  V30 38835 H 3777.88 2.97168 2.14679 0
M  V30 38836 H 3777.53 2.22938 4.50896 0
M  V30 38837 H 3777.23 3.97591 4.3266 0
M  V30 38838 H 3778.76 3.40822 5.06629 0
M  V30 38839 H 3780.17 4.73937 3.22579 0
M  V30 38840 H 3778.57 5.34864 2.72104 0
M  V30 38841 H 3779.64 4.60496 1.51894 0
M  V30 38842 N 3780.98 -0.6319 1.44377 0
M  V30 38843 C 3782.26 -1.39022 1.37595 0
M  V30 38844 C 3782.64 -2.11072 0.0342827 0
M  V30 38845 O 3781.98 -2.0627 -0.9831 0
M  V30 38846 C 3782.19 -2.35727 2.57359 0
M  V30 38847 C 3783.54 -2.99082 3.01389 0
M  V30 38848 O 3784.57 -2.46053 2.57559 0
M  V30 38849 O 3783.43 -3.95278 3.77382 0
M  V30 38850 H 3780.52 -0.622157 0.544839 0
M  V30 38851 H 3783.07 -0.65702 1.56465 0
M  V30 38852 H 3781.84 -1.81581 3.46618 0
M  V30 38853 H 3781.46 -3.16465 2.40698 0
M  V30 38854 N 3782.46 -1.31262 -0.872235 0
M  V30 38855 C 3783.69 -1.23595 -1.65553 0
M  V30 38856 C 3784.1 0.201499 -1.88124 0
M  V30 38857 O 3783.44 1.1432 -1.43794 0
M  V30 38858 C 3783.5 -1.90747 -3.04722 0
M  V30 38859 C 3783.16 -3.40087 -3.0527 0
M  V30 38860 C 3784.16 -4.35872 -2.83394 0
M  V30 38861 C 3781.85 -3.81743 -3.26462 0
M  V30 38862 C 3783.84 -5.71285 -2.82686 0
M  V30 38863 C 3781.53 -5.1727 -3.25384 0
M  V30 38864 C 3782.53 -6.11852 -3.03522 0
M  V30 38865 O 3782.21 -7.44902 -3.02284 0
M  V30 38866 H 3781.95 -0.428366 -0.522952 0
M  V30 38867 H 3784.5 -1.73643 -1.09714 0
M  V30 38868 H 3782.73 -1.35246 -3.62278 0
M  V30 38869 H 3784.42 -1.77026 -3.65262 0
M  V30 38870 H 3785.18 -4.05019 -2.66805 0
M  V30 38871 H 3781.06 -3.08558 -3.4251 0
M  V30 38872 H 3784.61 -6.45084 -2.65542 0
M  V30 38873 H 3780.5 -5.47759 -3.41512 0
M  V30 38874 H 3781.27 -7.54048 -3.18361 0
M  V30 38875 N 3783.94 1.08625 -1.14186 0
M  V30 38876 C 3784.85 2.19032 -0.840368 0
M  V30 38877 C 3785.86 1.73084 0.178292 0
M  V30 38878 O 3787.04 2.01399 0.00734423 0
M  V30 38879 C 3784.1 3.45223 -0.319734 0
M  V30 38880 C 3783.16 4.05807 -1.40067 0
M  V30 38881 C 3782.4 5.25975 -0.904785 0
M  V30 38882 O 3782.62 5.69832 0.25458 0
M  V30 38883 O 3781.55 5.77898 -1.68277 0
M  V30 38884 H 3785.38 2.47289 -1.76301 0
M  V30 38885 H 3782.96 1.17717 -0.919949 0
M  V30 38886 H 3784.85 4.21385 -0.0352008 0
M  V30 38887 H 3783.52 3.18548 0.575208 0
M  V30 38888 H 3782.43 3.31244 -1.73863 0
M  V30 38889 H 3783.76 4.36726 -2.27005 0
M  V30 38890 N 3785.41 0.936635 1.26747 0
M  V30 38891 C 3786.32 0.448613 2.30271 0
M  V30 38892 C 3787.34 -0.475154 1.67387 0
M  V30 38893 O 3788.52 -0.35579 1.98232 0
M  V30 38894 C 3785.58 -0.28256 3.45547 0
M  V30 38895 C 3784.64 0.677212 4.23925 0
M  V30 38896 C 3783.88 -0.0191612 5.33697 0
M  V30 38897 O 3784.1 -1.23693 5.56827 0
M  V30 38898 O 3783.03 0.657224 5.98301 0
M  V30 38899 H 3786.86 1.30842 2.74069 0
M  V30 38900 H 3784.44 0.702337 1.31862 0
M  V30 38901 H 3786.33 -0.694613 4.15636 0
M  V30 38902 H 3785 -1.11783 3.03786 0
M  V30 38903 H 3783.91 1.13912 3.56335 0
M  V30 38904 H 3785.24 1.47997 4.69423 0
M  V30 38905 N 3786.89 -1.41045 0.703143 0
M  V30 38906 C 3788.17 -1.94903 0.165019 0
M  V30 38907 C 3788.55 -1.64207 -1.32662 0
M  V30 38908 O 3787.9 -0.953095 -2.07674 0
M  V30 38909 C 3788.11 -3.45896 0.464415 0
M  V30 38910 C 3789.46 -4.22747 0.396279 0
M  V30 38911 O 3790.48 -3.5395 0.39976 0
M  V30 38912 O 3789.34 -5.45293 0.36297 0
M  V30 38913 H 3786.43 -0.826772 0.0194046 0
M  V30 38914 H 3788.98 -1.50721 0.779823 0
M  V30 38915 H 3787.75 -3.61549 1.4966 0
M  V30 38916 H 3787.37 -3.97188 -0.18098 0
M  V30 38917 N 3788.37 -0.448429 -1.51086 0
M  V30 38918 C 3789.3 0.347732 -2.30896 0
M  V30 38919 C 3790.28 1.01102 -1.36793 0
M  V30 38920 O 3791.47 1.01254 -1.65715 0
M  V30 38921 C 3788.6 1.44298 -3.15904 0
M  V30 38922 C 3787.55 0.902577 -4.18375 0
M  V30 38923 C 3786.88 2.09442 -4.91974 0
M  V30 38924 C 3788.18 -0.0706253 -5.22252 0
M  V30 38925 H 3789.87 -0.318325 -2.97703 0
M  V30 38926 H 3787.42 -0.154534 -1.43168 0
M  V30 38927 H 3789.37 2.00726 -3.70523 0
M  V30 38928 H 3788.09 2.13749 -2.46939 0
M  V30 38929 H 3786.75 0.360436 -3.64824 0
M  V30 38930 H 3786.4 2.77537 -4.19502 0
M  V30 38931 H 3786.1 1.73916 -5.61273 0
M  V30 38932 H 3787.62 2.66402 -5.4942 0
M  V30 38933 H 3789.04 0.403714 -5.71877 0
M  V30 38934 H 3787.44 -0.33901 -5.99142 0
M  V30 38935 H 3788.51 -1.00381 -4.74396 0
M  V30 38936 N 3789.85 1.56567 -0.180181 0
M  V30 38937 C 3790.78 2.21394 0.742092 0
M  V30 38938 C 3791.76 1.17232 1.23251 0
M  V30 38939 O 3792.94 1.4569 1.28406 0
M  V30 38940 C 3790.07 2.86163 1.96794 0
M  V30 38941 C 3789.03 3.96441 1.61303 0
M  V30 38942 C 3788.35 4.48302 2.91426 0
M  V30 38943 C 3789.65 5.15594 0.834291 0
M  V30 38944 H 3791.35 2.9872 0.201706 0
M  V30 38945 H 3788.89 1.43682 0.0955763 0
M  V30 38946 H 3790.85 3.30192 2.61823 0
M  V30 38947 H 3789.57 2.0622 2.53261 0
M  V30 38948 H 3788.23 3.53081 0.986389 0
M  V30 38949 H 3787.88 3.65139 3.45951 0
M  V30 38950 H 3787.58 5.22704 2.6843 0
M  V30 38951 H 3789.1 4.95024 3.57469 0
M  V30 38952 H 3790.52 5.5626 1.38736 0
M  V30 38953 H 3788.91 5.95968 0.703027 0
M  V30 38954 H 3789.98 4.8461 -0.167639 0
M  V30 38955 N 3791.33 -0.0935042 1.57322 0
M  V30 38956 C 3792.56 -0.809036 1.901 0
M  V30 38957 C 3792.96 -1.72723 0.772228 0
M  V30 38958 O 3792.31 -1.81784 -0.264648 0
M  V30 38959 C 3792.37 -1.674 3.18147 0
M  V30 38960 C 3792.03 -0.92746 4.4749 0
M  V30 38961 C 3793.03 -0.256544 5.19267 0
M  V30 38962 C 3790.72 -0.901069 4.94152 0
M  V30 38963 C 3792.71 0.430777 6.35943 0
M  V30 38964 C 3790.4 -0.209963 6.10739 0
M  V30 38965 C 3791.39 0.454781 6.81484 0
M  V30 38966 O 3791.08 1.1348 7.9585 0
M  V30 38967 H 3790.81 -0.236469 0.633292 0
M  V30 38968 H 3793.37 -0.0746772 2.05264 0
M  V30 38969 H 3791.6 -2.45063 2.99134 0
M  V30 38970 H 3793.29 -2.26624 3.36744 0
M  V30 38971 H 3794.05 -0.268383 4.84257 0
M  V30 38972 H 3789.93 -1.40792 4.38974 0
M  V30 38973 H 3793.48 0.950203 6.91098 0
M  V30 38974 H 3789.37 -0.195976 6.45202 0
M  V30 38975 H 3790.14 1.04186 8.11842 0
M  V30 38976 N 3792.8 -1.5333 -0.364368 0
M  V30 38977 C 3794.05 -1.70768 -1.10498 0
M  V30 38978 C 3794.41 -0.454513 -1.86954 0
M  V30 38979 O 3793.7 0.552495 -1.83461 0
M  V30 38980 C 3793.89 -2.89774 -2.09203 0
M  V30 38981 C 3793.72 -4.26543 -1.42446 0
M  V30 38982 C 3792.49 -4.91375 -1.17807 0
M  V30 38983 C 3794.69 -5.07033 -0.86153 0
M  V30 38984 N 3792.67 -6.12066 -0.474125 0
M  V30 38985 C 3794.04 -6.19335 -0.287011 0
M  V30 38986 C 3796.1 -4.9206 -0.760337 0
M  V30 38987 C 3794.8 -7.18302 0.378834 0
M  V30 38988 C 3796.83 -5.91301 -0.108271 0
M  V30 38989 C 3796.19 -7.02927 0.455368 0
M  V30 38990 H 3792.29 -0.678126 -0.389448 0
M  V30 38991 H 3794.87 -1.90729 -0.391213 0
M  V30 38992 H 3793.04 -2.7135 -2.77892 0
M  V30 38993 H 3794.77 -2.96029 -2.75951 0
M  V30 38994 H 3791.53 -4.50545 -1.45967 0
M  V30 38995 H 3791.95 -6.7686 -0.13748 0
M  V30 38996 H 3796.6 -4.05945 -1.18187 0
M  V30 38997 H 3794.31 -8.04007 0.812313 0
M  V30 38998 H 3797.9 -5.81792 -0.0308855 0
M  V30 38999 H 3796.78 -7.78401 0.95195 0
M  V30 39000 N 3794.28 0.624234 -1.4471 0
M  V30 39001 C 3795.53 1.3857 -1.48075 0
M  V30 39002 C 3795.86 1.93856 -0.115566 0
M  V30 39003 O 3795.14 1.7407 0.867757 0
M  V30 39004 C 3795.42 2.54592 -2.54666 0
M  V30 39005 C 3795.27 2.04611 -4.00568 0
M  V30 39006 C 3796.59 3.56765 -2.57695 0
M  V30 39007 H 3793.71 0.502504 -0.539128 0
M  V30 39008 H 3796.35 0.705194 -1.76428 0
M  V30 39009 H 3794.5 3.12645 -2.3062 0
M  V30 39010 H 3796.17 1.51335 -4.3577 0
M  V30 39011 H 3794.42 1.35739 -4.12016 0
M  V30 39012 H 3795.09 2.88171 -4.70809 0
M  V30 39013 H 3797.56 3.08524 -2.79199 0
M  V30 39014 H 3796.44 4.35456 -3.34169 0
M  V30 39015 H 3796.7 4.11289 -1.62153 0
M  V30 39016 N 3795.76 1.31723 0.865262 0
M  V30 39017 C 3797.04 1.12309 1.60144 0
M  V30 39018 C 3797.42 -0.320472 2.08653 0
M  V30 39019 O 3796.77 -1.31536 1.86843 0
M  V30 39020 C 3796.98 2.14143 2.75579 0
M  V30 39021 C 3798.32 2.46915 3.45425 0
M  V30 39022 O 3799.35 2.12607 2.85792 0
M  V30 39023 O 3798.21 3.05684 4.53011 0
M  V30 39024 H 3795.3 0.432686 0.704778 0
M  V30 39025 H 3797.85 1.43218 0.910314 0
M  V30 39026 H 3796.62 3.11224 2.37182 0
M  V30 39027 H 3796.24 1.84168 3.52375 0
M  V30 39028 N 3797.24 -1.08018 1.14761 0
M  V30 39029 C 3798.2 -2.13217 0.840897 0
M  V30 39030 C 3799.2 -1.60039 -0.156281 0
M  V30 39031 O 3800.39 -1.74049 0.0725449 0
M  V30 39032 C 3797.52 -3.3995 0.254268 0
M  V30 39033 H 3798.72 -2.41857 1.77328 0
M  V30 39034 H 3796.27 -1.23795 0.954168 0
M  V30 39035 H 3797 -3.16948 -0.686636 0
M  V30 39036 H 3796.79 -3.79847 0.972565 0
M  V30 39037 H 3798.28 -4.17561 0.0570285 0
M  V30 39038 N 3798.72 -0.943344 -1.26249 0
M  V30 39039 C 3799.94 -0.608376 -1.98276 0
M  V30 39040 C 3800.37 0.810179 -1.69758 0
M  V30 39041 O 3799.72 1.54609 -0.946873 0
M  V30 39042 C 3799.77 -0.859653 -3.50203 0
M  V30 39043 O 3798.88 0.0671646 -4.12345 0
M  V30 39044 H 3798.22 -0.232488 -0.621969 0
M  V30 39045 H 3800.75 -1.26687 -1.6066 0
M  V30 39046 H 3800.76 -0.781411 -4.00447 0
M  V30 39047 H 3799.43 -1.89361 -3.70291 0
M  V30 39048 H 3798.01 -0.0623199 -3.72848 0
M  V30 39049 N 3800.2 1.4067 -0.710613 0
M  V30 39050 C 3801.13 2.33397 -0.0695011 0
M  V30 39051 C 3802.11 1.52627 0.750932 0
M  V30 39052 O 3803.29 1.81112 0.700864 0
M  V30 39053 C 3800.42 3.36569 0.856645 0
M  V30 39054 C 3799.38 4.27764 0.142201 0
M  V30 39055 C 3798.7 5.21433 1.18373 0
M  V30 39056 C 3800 5.12626 -1.00061 0
M  V30 39057 H 3801.7 2.87258 -0.843996 0
M  V30 39058 H 3799.24 1.38119 -0.407311 0
M  V30 39059 H 3801.19 4.00373 1.3145 0
M  V30 39060 H 3799.92 2.81092 1.66298 0
M  V30 39061 H 3798.58 3.65405 -0.295779 0
M  V30 39062 H 3798.23 4.62263 1.98298 0
M  V30 39063 H 3797.93 5.83287 0.710608 0
M  V30 39064 H 3799.45 5.88114 1.64179 0
M  V30 39065 H 3800.86 5.69912 -0.622346 0
M  V30 39066 H 3799.26 5.83498 -1.40178 0
M  V30 39067 H 3800.33 4.48899 -1.83352 0
M  V30 39068 N 3801.67 0.456435 1.50846 0
M  V30 39069 C 3802.61 -0.381381 2.26005 0
M  V30 39070 C 3803.62 -0.969849 1.30758 0
M  V30 39071 O 3804.81 -0.860743 1.56376 0
M  V30 39072 C 3801.91 -1.54743 3.01509 0
M  V30 39073 C 3801.08 -1.07441 4.23999 0
M  V30 39074 C 3800.14 -2.11279 4.81921 0
M  V30 39075 O 3799.17 -1.69935 5.43241 0
M  V30 39076 N 3800.37 -3.43954 4.67628 0
M  V30 39077 H 3803.13 0.262875 2.98545 0
M  V30 39078 H 3800.69 0.286385 1.59347 0
M  V30 39079 H 3802.69 -2.23871 3.37141 0
M  V30 39080 H 3801.26 -2.09666 2.3186 0
M  V30 39081 H 3800.48 -0.209515 3.93643 0
M  V30 39082 H 3801.76 -0.736055 5.03448 0
M  V30 39083 H 3801.16 -3.80263 4.18828 0
M  V30 39084 H 3799.72 -4.08921 5.07569 0
M  V30 39085 N 3803.15 -1.56469 0.188482 0
M  V30 39086 C 3804.57 -1.58719 -0.16746 0
M  V30 39087 C 3804.77 -1.20444 -1.61541 0
M  V30 39088 O 3803.82 -0.924082 -2.34983 0
M  V30 39089 C 3805.14 -3.00424 0.128907 0
M  V30 39090 C 3806.68 -3.12925 0.0684851 0
M  V30 39091 C 3807.16 -4.56751 0.338072 0
M  V30 39092 N 3808.65 -4.62313 0.286454 0
M  V30 39093 C 3809.39 -5.71479 0.468987 0
M  V30 39094 N 3808.88 -6.89137 0.71151 0
M  V30 39095 N 3810.67 -5.60648 0.403701 0
M  V30 39096 H 3802.83 -1.79631 1.13342 0
M  V30 39097 H 3805.09 -0.833361 0.451899 0
M  V30 39098 H 3804.79 -3.32964 1.13261 0
M  V30 39099 H 3804.67 -3.72844 -0.571579 0
M  V30 39100 H 3807.06 -2.80201 -0.925815 0
M  V30 39101 H 3807.14 -2.42904 0.801946 0
M  V30 39102 H 3806.78 -4.90186 1.32966 0
M  V30 39103 H 3806.71 -5.24953 -0.416201 0
M  V30 39104 H 3809.2 -3.77753 0.105352 0
M  V30 39105 H 3809.51 -7.68224 0.839778 0
M  V30 39106 H 3807.86 -6.9096 0.748326 0
M  V30 39107 H 3811.05 -4.67607 0.214698 0
M  V30 39108 H 3811.22 -6.45667 0.549375 0
M  V30 39109 N 3804.63 0.0851597 -1.5737 0
M  V30 39110 C 3805.88 0.785571 -1.85773 0
M  V30 39111 C 3806.19 1.7941 -0.779204 0
M  V30 39112 O 3807.4 2.54312 -0.950666 0
M  V30 39113 C 3805.85 1.44799 -3.29486 0
M  V30 39114 C 3805.46 0.478721 -4.45435 0
M  V30 39115 C 3807.21 2.13155 -3.67104 0
M  V30 39116 C 3805.11 1.14629 -5.80185 0
M  V30 39117 H 3804.04 0.297133 -0.692985 0
M  V30 39118 H 3806.69 0.0386454 -1.83459 0
M  V30 39119 H 3805.08 2.24272 -3.26371 0
M  V30 39120 H 3806.25 -0.285229 -4.59916 0
M  V30 39121 H 3804.56 -0.0996696 -4.16281 0
M  V30 39122 H 3807.16 2.63852 -4.65066 0
M  V30 39123 H 3807.5 2.92497 -2.96228 0
M  V30 39124 H 3808.04 1.4053 -3.72151 0
M  V30 39125 H 3804.78 0.393468 -6.54318 0
M  V30 39126 H 3804.3 1.88143 -5.69528 0
M  V30 39127 H 3805.98 1.66995 -6.25077 0
M  V30 39128 N 3806.11 1.53521 0.356231 0
M  V30 39129 C 3807.02 1.83592 1.46052 0
M  V30 39130 C 3808.03 0.725025 1.58175 0
M  V30 39131 O 3809.21 1.01604 1.73892 0
M  V30 39132 C 3806.27 2.02794 2.81203 0
M  V30 39133 C 3805.34 3.2668 2.78529 0
M  V30 39134 C 3804.57 3.44957 4.07235 0
M  V30 39135 O 3804.79 2.67333 5.03874 0
M  V30 39136 O 3803.73 4.38344 4.12478 0
M  V30 39137 H 3807.55 2.77428 1.23561 0
M  V30 39138 H 3805.14 1.39018 0.547219 0
M  V30 39139 H 3807.02 2.16943 3.61267 0
M  V30 39140 H 3805.69 1.12148 3.03652 0
M  V30 39141 H 3804.6 3.17947 1.97131 0
M  V30 39142 H 3805.93 4.17279 2.61035 0
M  V30 39143 N 3807.59 -0.616551 1.45039 0
M  V30 39144 C 3809 -0.936336 1.29247 0
M  V30 39145 C 3809.2 -2.00079 0.238914 0
M  V30 39146 O 3808.26 -2.49771 -0.370221 0
M  V30 39147 C 3809.57 -1.38577 2.66865 0
M  V30 39148 C 3811.12 -1.50046 2.74691 0
M  V30 39149 C 3811.59 -1.98368 4.12812 0
M  V30 39150 N 3813.08 -2.05616 4.15062 0
M  V30 39151 C 3813.82 -2.44207 5.18797 0
M  V30 39152 N 3813.32 -2.81831 6.32885 0
M  V30 39153 N 3815.11 -2.44468 5.06154 0
M  V30 39154 H 3807.26 0.0871678 2.12221 0
M  V30 39155 H 3809.52 -0.0236492 0.947705 0
M  V30 39156 H 3809.23 -0.67785 3.45106 0
M  V30 39157 H 3809.1 -2.35402 2.9473 0
M  V30 39158 H 3811.49 -2.19931 1.9676 0
M  V30 39159 H 3811.57 -0.515587 2.5055 0
M  V30 39160 H 3811.21 -1.29073 4.91226 0
M  V30 39161 H 3811.14 -2.97753 4.34339 0
M  V30 39162 H 3813.64 -1.79165 3.32729 0
M  V30 39163 H 3813.95 -3.10134 7.07839 0
M  V30 39164 H 3812.29 -2.79548 6.363 0
M  V30 39165 H 3815.48 -2.14475 4.16075 0
M  V30 39166 H 3815.66 -2.74219 5.87118 0
M  V30 39167 N 3809.06 -1.3218 -0.858264 0
M  V30 39168 C 3810.29 -1.25665 -1.64994 0
M  V30 39169 C 3810.71 0.172989 -1.87303 0
M  V30 39170 O 3810.07 1.12314 -1.42321 0
M  V30 39171 C 3810.12 -2.01792 -2.98852 0
M  V30 39172 O 3809.22 -1.36326 -3.89216 0
M  V30 39173 H 3808.56 -0.433272 -0.503161 0
M  V30 39174 H 3811.09 -1.74438 -1.06923 0
M  V30 39175 H 3811.1 -2.1183 -3.48701 0
M  V30 39176 H 3809.78 -3.05753 -2.81936 0
M  V30 39177 H 3808.36 -1.34813 -3.47678 0
M  V30 39178 N 3810.54 1.07407 -1.15332 0
M  V30 39179 C 3811.77 1.83714 -0.951675 0
M  V30 39180 C 3812.18 1.82058 0.500022 0
M  V30 39181 O 3811.54 1.23159 1.34677 0
M  V30 39182 C 3811.59 3.3082 -1.4574 0
M  V30 39183 O 3811.31 3.32535 -2.85223 0
M  V30 39184 C 3812.81 4.23897 -1.29716 0
M  V30 39185 H 3810.03 0.579634 -0.338031 0
M  V30 39186 H 3812.58 1.35586 -1.5309 0
M  V30 39187 H 3810.73 3.763 -0.920709 0
M  V30 39188 H 3811.15 4.2444 -3.08141 0
M  V30 39189 H 3812.62 5.25187 -1.69948 0
M  V30 39190 H 3813.1 4.38537 -0.241263 0
M  V30 39191 H 3813.7 3.84253 -1.8229 0
M  V30 39192 N 3812.02 0.950026 1.25747 0
M  V30 39193 C 3812.95 0.484507 2.28418 0
M  V30 39194 C 3813.93 -0.466784 1.6357 0
M  V30 39195 O 3815.12 -0.366733 1.90706 0
M  V30 39196 C 3812.25 -0.242855 3.4645 0
M  V30 39197 C 3811.2 0.622731 4.23445 0
M  V30 39198 C 3810.53 -0.235105 5.34183 0
M  V30 39199 C 3811.83 1.89853 4.86573 0
M  V30 39200 H 3813.52 1.34262 2.67608 0
M  V30 39201 H 3811.07 0.647037 1.28645 0
M  V30 39202 H 3813.02 -0.57962 4.17395 0
M  V30 39203 H 3811.74 -1.13518 3.06237 0
M  V30 39204 H 3810.4 0.942515 3.54277 0
M  V30 39205 H 3810.05 -1.12705 4.90211 0
M  V30 39206 H 3809.75 0.340712 5.86611 0
M  V30 39207 H 3811.27 -0.566941 6.07962 0
M  V30 39208 H 3812.69 1.62846 5.49685 0
M  V30 39209 H 3811.08 2.41963 5.49157 0
M  V30 39210 H 3812.15 2.60448 4.09017 0
M  V30 39211 N 3813.5 -1.40291 0.718063 0
M  V30 39212 C 3814.73 -2.05152 0.268362 0
M  V30 39213 C 3815.14 -1.54106 -1.09073 0
M  V30 39214 O 3814.5 -0.698684 -1.68596 0
M  V30 39215 C 3814.55 -3.60687 0.242286 0
M  V30 39216 O 3814.27 -4.09851 1.54771 0
M  V30 39217 C 3815.77 -4.42725 -0.225664 0
M  V30 39218 H 3812.99 -0.66015 0.120177 0
M  V30 39219 H 3815.53 -1.79654 0.976964 0
M  V30 39220 H 3813.69 -3.85146 -0.4173 0
M  V30 39221 H 3814.1 -5.04063 1.44985 0
M  V30 39222 H 3815.58 -5.51663 -0.19276 0
M  V30 39223 H 3816.05 -4.20491 -1.26822 0
M  V30 39224 H 3816.66 -4.23379 0.403735 0
M  V30 39225 N 3814.98 -0.464428 -1.50602 0
M  V30 39226 C 3816.22 0.0926729 -2.01887 0
M  V30 39227 C 3816.55 1.40815 -1.34893 0
M  V30 39228 O 3815.82 1.89618 -0.492111 0
M  V30 39229 H 3814.4 0.0372383 -0.746071 0
M  V30 39230 H 3817.06 -0.613329 -1.84998 0
M  V30 39231 H 3816.15 0.249013 -3.11105 0
M  V30 39232 N 3816.45 1.56367 -0.196777 0
M  V30 39233 C 3817.7 1.9792 0.442203 0
M  V30 39234 C 3818.03 1.08365 1.61154 0
M  V30 39235 O 3817.31 0.136003 1.94024 0
M  V30 39236 C 3817.59 3.48653 0.900719 0
M  V30 39237 C 3817.44 4.48986 -0.27055 0
M  V30 39238 C 3818.76 4.03129 1.76563 0
M  V30 39239 H 3815.88 0.719586 0.159263 0
M  V30 39240 H 3818.52 1.87804 -0.288037 0
M  V30 39241 H 3816.67 3.57405 1.52296 0
M  V30 39242 H 3818.35 4.5227 -0.908256 0
M  V30 39243 H 3816.59 4.23888 -0.922048 0
M  V30 39244 H 3817.26 5.51922 0.0928131 0
M  V30 39245 H 3819.74 3.97168 1.24084 0
M  V30 39246 H 3818.61 5.08964 2.05541 0
M  V30 39247 H 3818.87 3.48491 2.72041 0
M  V30 39248 N 3817.93 -0.0768128 1.57413 0
M  V30 39249 C 3819.21 -0.809632 1.78057 0
M  V30 39250 C 3819.59 -1.96038 0.783087 0
M  V30 39251 O 3818.94 -2.27752 -0.184796 0
M  V30 39252 C 3819.15 -1.28724 3.24393 0
M  V30 39253 C 3820.5 -1.72266 3.88085 0
M  V30 39254 O 3821.52 -1.38303 3.28254 0
M  V30 39255 O 3820.38 -2.35126 4.93334 0
M  V30 39256 H 3817.47 -0.387571 0.73056 0
M  V30 39257 H 3820.02 -0.0572772 1.69603 0
M  V30 39258 H 3818.79 -0.46361 3.88544 0
M  V30 39259 H 3818.41 -2.10107 3.37551 0
M  V30 39260 N 3819.41 -1.53708 -0.348084 0
M  V30 39261 C 3820.83 -1.4387 -0.690901 0
M  V30 39262 C 3821.03 -0.591804 -1.92613 0
M  V30 39263 O 3820.08 -0.081024 -2.5237 0
M  V30 39264 C 3821.4 -2.87296 -0.887773 0
M  V30 39265 C 3822.94 -2.97041 -0.986679 0
M  V30 39266 C 3823.42 -4.41565 -1.2159 0
M  V30 39267 N 3824.91 -4.45071 -1.2832 0
M  V30 39268 C 3825.64 -5.54024 -1.47799 0
M  V30 39269 N 3825.14 -6.72992 -1.6448 0
M  V30 39270 N 3826.93 -5.4163 -1.5031 0
M  V30 39271 H 3819.08 -2.07267 0.464137 0
M  V30 39272 H 3821.35 -0.936737 0.145695 0
M  V30 39273 H 3821.05 -3.51662 -0.0517054 0
M  V30 39274 H 3820.93 -3.31978 -1.79083 0
M  V30 39275 H 3823.31 -2.32818 -1.81327 0
M  V30 39276 H 3823.4 -2.55728 -0.0606243 0
M  V30 39277 H 3823.04 -5.06368 -0.394252 0
M  V30 39278 H 3822.97 -4.80466 -2.15545 0
M  V30 39279 H 3825.46 -3.59341 -1.16973 0
M  V30 39280 H 3825.77 -7.51792 -1.78965 0
M  V30 39281 H 3824.12 -6.75946 -1.61625 0
M  V30 39282 H 3827.31 -4.47647 -1.36857 0
M  V30 39283 H 3827.48 -6.26602 -1.65149 0
M  V30 39284 N 3820.89 0.608851 -1.45364 0
M  V30 39285 C 3821.8 1.74794 -1.56474 0
M  V30 39286 C 3822.81 1.681 -0.449255 0
M  V30 39287 O 3823.99 1.88479 -0.709764 0
M  V30 39288 C 3821.06 3.11252 -1.5272 0
M  V30 39289 C 3820.12 3.29409 -2.75297 0
M  V30 39290 C 3819.35 4.59356 -2.71712 0
M  V30 39291 O 3819.57 5.41596 -1.78969 0
M  V30 39292 O 3818.51 4.80199 -3.62895 0
M  V30 39293 H 3822.33 1.68372 -2.52754 0
M  V30 39294 H 3819.92 0.772786 -1.27861 0
M  V30 39295 H 3821.8 3.92554 -1.53229 0
M  V30 39296 H 3820.47 3.18167 -0.595914 0
M  V30 39297 H 3819.38 2.477 -2.80349 0
M  V30 39298 H 3820.71 3.27369 -3.67547 0
M  V30 39299 N 3822.37 1.32633 0.851242 0
M  V30 39300 C 3823.61 1.23571 1.60805 0
M  V30 39301 C 3823.95 -0.201205 1.93155 0
M  V30 39302 O 3823.22 -1.13926 1.57642 0
M  V30 39303 C 3823.5 2.09877 2.92615 0
M  V30 39304 C 3823.36 3.61964 2.67025 0
M  V30 39305 C 3824.68 1.96251 3.93921 0
M  V30 39306 H 3821.79 0.450239 0.583484 0
M  V30 39307 H 3824.44 1.62613 0.982702 0
M  V30 39308 H 3822.59 1.7671 3.45985 0
M  V30 39309 H 3824.26 4.05361 2.20182 0
M  V30 39310 H 3822.5 3.8446 2.00931 0
M  V30 39311 H 3823.17 4.17683 3.60895 0
M  V30 39312 H 3825.65 2.25313 3.49819 0
M  V30 39313 H 3824.52 2.58911 4.84 0
M  V30 39314 H 3824.79 0.931141 4.32183 0
M  V30 39315 N 3823.84 -1.06794 1.159 0
M  V30 39316 C 3825.09 -1.78882 0.931879 0
M  V30 39317 C 3825.41 -1.87943 -0.541937 0
M  V30 39318 O 3826.61 -2.56609 -0.886803 0
M  V30 39319 C 3825.07 -3.21482 1.61794 0
M  V30 39320 C 3824.68 -3.20605 3.12916 0
M  V30 39321 C 3826.42 -3.9814 1.47259 0
M  V30 39322 C 3824.33 -4.57893 3.74283 0
M  V30 39323 H 3823.26 -0.670436 0.34501 0
M  V30 39324 H 3825.91 -1.19825 1.38976 0
M  V30 39325 H 3824.29 -3.80767 1.08776 0
M  V30 39326 H 3825.46 -2.70931 3.72737 0
M  V30 39327 H 3823.78 -2.57445 3.27278 0
M  V30 39328 H 3826.38 -4.99616 1.90493 0
M  V30 39329 H 3826.72 -4.14167 0.420839 0
M  V30 39330 H 3827.25 -3.45364 1.97405 0
M  V30 39331 H 3823.99 -4.4707 4.79384 0
M  V30 39332 H 3823.51 -5.07781 3.19247 0
M  V30 39333 H 3825.19 -5.26856 3.75542 0
M  V30 39334 N 3825.32 -0.956681 -1.25241 0
M  V30 39335 C 3826.57 -0.61348 -1.93298 0
M  V30 39336 C 3826.9 0.84764 -1.74725 0
M  V30 39337 O 3826.18 1.60844 -1.0936 0
M  V30 39338 C 3826.46 -0.975482 -3.46636 0
M  V30 39339 C 3826.31 -2.49248 -3.74427 0
M  V30 39340 C 3827.63 -0.502025 -4.37227 0
M  V30 39341 H 3824.75 -0.224351 -0.702023 0
M  V30 39342 H 3827.39 -1.1937 -1.4782 0
M  V30 39343 H 3825.54 -0.481738 -3.85502 0
M  V30 39344 H 3827.21 -3.06015 -3.45185 0
M  V30 39345 H 3825.46 -2.92929 -3.19961 0
M  V30 39346 H 3826.13 -2.69628 -4.81669 0
M  V30 39347 H 3828.6 -0.925585 -4.05675 0
M  V30 39348 H 3827.48 -0.783991 -5.43272 0
M  V30 39349 H 3827.74 0.598005 -4.38037 0
M  V30 39350 N 3826.8 1.39908 -0.725493 0
M  V30 39351 C 3827.75 2.325 -0.0683184 0
M  V30 39352 C 3828.74 1.52563 0.736258 0
M  V30 39353 O 3829.95 1.68294 0.638512 0
M  V30 39354 H 3826.32 0.751993 -0.00329064 0
M  V30 39355 H 3828.29 2.85564 -0.865786 0
M  V30 39356 C 3827.04 3.376 0.831976 0
M  V30 39357 H 3826.37 3.99182 0.222271 0
M  V30 39358 H 3827.81 4.04859 1.25958 0
M  V30 39359 C 3826.27 2.73877 1.96196 0
M  V30 39360 O 3826.8 2.60979 3.05373 0
M  V30 39361 N 3825 2.32109 1.74853 0
M  V30 39362 H 3824.55 2.428 0.860578 0
M  V30 39363 H 3824.51 1.89813 2.50636 0
M  V30 39364 N 3828.28 0.472408 1.50353 0
M  V30 39365 C 3829.24 -0.309771 2.27097 0
M  V30 39366 C 3830.24 -0.919282 1.31931 0
M  V30 39367 O 3831.43 -0.788257 1.55345 0
M  V30 39368 C 3828.56 -1.44143 3.08926 0
M  V30 39369 H 3829.76 0.363281 2.97692 0
M  V30 39370 H 3827.31 0.22651 1.5465 0
M  V30 39371 H 3828.04 -2.1495 2.42831 0
M  V30 39372 H 3827.83 -1.01016 3.78864 0
M  V30 39373 H 3829.32 -1.99316 3.66964 0
M  V30 39374 N 3829.76 -1.5626 0.205067 0
M  V30 39375 C 3830.72 -2.18309 -0.698128 0
M  V30 39376 C 3831.72 -1.14031 -1.13374 0
M  V30 39377 O 3832.91 -1.39359 -1.04521 0
M  V30 39378 C 3830.04 -2.79318 -1.95433 0
M  V30 39379 H 3831.24 -2.99487 -0.15741 0
M  V30 39380 H 3828.79 -1.56236 -0.0445574 0
M  V30 39381 H 3829.52 -2.01966 -2.53733 0
M  V30 39382 H 3829.31 -3.55664 -1.65061 0
M  V30 39383 H 3830.8 -3.26932 -2.59818 0
M  V30 39384 N 3831.24 0.0684638 -1.57451 0
M  V30 39385 C 3832.48 0.768124 -1.8769 0
M  V30 39386 C 3832.81 1.77056 -0.797791 0
M  V30 39387 O 3832.09 1.93554 0.19158 0
M  V30 39388 C 3832.37 1.47313 -3.28589 0
M  V30 39389 C 3832.23 0.486876 -4.47157 0
M  V30 39390 C 3833.54 2.41721 -3.67776 0
M  V30 39391 H 3830.66 0.277781 -0.682647 0
M  V30 39392 H 3833.31 0.0312634 -1.89974 0
M  V30 39393 H 3831.46 2.10123 -3.26773 0
M  V30 39394 H 3833.13 -0.136271 -4.61099 0
M  V30 39395 H 3831.37 -0.197505 -4.3335 0
M  V30 39396 H 3832.04 1.01785 -5.42535 0
M  V30 39397 H 3834.52 1.88986 -3.70707 0
M  V30 39398 H 3833.39 2.88051 -4.67245 0
M  V30 39399 H 3833.65 3.26673 -2.97888 0
M  V30 39400 N 3832.71 1.5389 0.339928 0
M  V30 39401 C 3833.66 1.78513 1.41835 0
M  V30 39402 C 3834.65 0.640473 1.47603 0
M  V30 39403 O 3835.84 0.899977 1.52412 0
M  V30 39404 C 3832.97 2.00139 2.78925 0
M  V30 39405 C 3832.05 3.2068 2.77534 0
M  V30 39406 N 3832.45 4.42075 2.45771 0
M  V30 39407 C 3830.74 3.21922 3.08678 0
M  V30 39408 C 3831.44 5.23942 2.52705 0
M  V30 39409 N 3830.42 4.60741 2.88476 0
M  V30 39410 H 3834.22 2.69962 1.1618 0
M  V30 39411 H 3831.74 1.52864 0.548313 0
M  V30 39412 H 3833.73 2.15914 3.56633 0
M  V30 39413 H 3832.39 1.09934 3.05524 0
M  V30 39414 H 3833.4 4.69362 2.18905 0
M  V30 39415 H 3830.08 2.41697 3.40424 0
M  V30 39416 H 3831.47 6.30842 2.31276 0
M  V30 39417 N 3834.19 -0.601133 1.45685 0
M  V30 39418 C 3835.15 -1.69341 1.54454 0
M  V30 39419 C 3836.15 -1.55125 0.423406 0
M  V30 39420 O 3837.34 -1.60076 0.687107 0
M  V30 39421 C 3834.48 -3.08654 1.44726 0
M  V30 39422 H 3835.67 -1.62931 2.51781 0
M  V30 39423 H 3833.22 -0.817416 1.33222 0
M  V30 39424 H 3833.96 -3.20636 0.486083 0
M  V30 39425 H 3833.74 -3.2038 2.2605 0
M  V30 39426 H 3835.23 -3.88203 1.53908 0
M  V30 39427 N 3835.67 -1.33083 -0.844196 0
M  V30 39428 C 3836.92 -1.24238 -1.5991 0
M  V30 39429 C 3837.24 0.193189 -1.93538 0
M  V30 39430 O 3836.5 1.14898 -1.5842 0
M  V30 39431 C 3836.8 -2.0577 -2.92222 0
M  V30 39432 C 3836.46 -3.55019 -2.77979 0
M  V30 39433 C 3835.13 -3.9571 -2.73802 0
M  V30 39434 C 3837.48 -4.49883 -2.63163 0
M  V30 39435 C 3834.81 -5.29489 -2.52701 0
M  V30 39436 C 3837.16 -5.83818 -2.43597 0
M  V30 39437 C 3835.82 -6.23698 -2.37819 0
M  V30 39438 H 3835.09 -0.454618 -0.585152 0
M  V30 39439 H 3837.74 -1.64616 -0.978464 0
M  V30 39440 H 3836.04 -1.58153 -3.58462 0
M  V30 39441 H 3837.74 -1.96287 -3.49675 0
M  V30 39442 H 3834.33 -3.22708 -2.8206 0
M  V30 39443 H 3838.52 -4.19359 -2.65428 0
M  V30 39444 H 3833.77 -5.59432 -2.4667 0
M  V30 39445 H 3837.95 -6.56931 -2.31115 0
M  V30 39446 H 3835.57 -7.27298 -2.21229 0
M  V30 39447 N 3837.15 1.06178 -1.16464 0
M  V30 39448 C 3838.4 1.78645 -0.945007 0
M  V30 39449 C 3838.72 1.87703 0.528453 0
M  V30 39450 O 3837.99 1.38656 1.38389 0
M  V30 39451 H 3836.57 0.661698 -0.346648 0
M  V30 39452 H 3839.23 1.28254 -1.46754 0
M  V30 39453 H 3838.32 2.8068 -1.36474 0
M  V30 39454 N 3838.63 0.96331 1.24732 0
M  V30 39455 C 3839.56 0.508707 2.27891 0
M  V30 39456 C 3840.54 -0.449409 1.64056 0
M  V30 39457 O 3841.72 -0.346485 1.91084 0
M  V30 39458 C 3838.85 -0.206096 3.46688 0
M  V30 39459 C 3837.81 0.667608 4.22761 0
M  V30 39460 C 3837.13 -0.178435 5.34402 0
M  V30 39461 C 3838.43 1.95003 4.84532 0
M  V30 39462 H 3840.13 1.37093 2.66169 0
M  V30 39463 H 3837.67 0.660645 1.27951 0
M  V30 39464 H 3839.62 -0.535317 4.17986 0
M  V30 39465 H 3838.35 -1.10264 3.07424 0
M  V30 39466 H 3837.01 0.980038 3.53257 0
M  V30 39467 H 3836.66 -1.07499 4.91379 0
M  V30 39468 H 3836.36 0.402911 5.86217 0
M  V30 39469 H 3837.88 -0.502426 6.08529 0
M  V30 39470 H 3839.29 1.68667 5.47927 0
M  V30 39471 H 3837.69 2.47774 5.4656 0
M  V30 39472 H 3838.76 2.64772 4.06231 0
M  V30 39473 N 3840.1 -1.39522 0.732902 0
M  V30 39474 C 3841.33 -2.04856 0.290106 0
M  V30 39475 C 3841.75 -1.55254 -1.07432 0
M  V30 39476 O 3841.1 -0.716526 -1.67846 0
M  V30 39477 C 3841.15 -3.6041 0.280528 0
M  V30 39478 O 3840.88 -4.08186 1.59109 0
M  V30 39479 C 3842.38 -4.4294 -0.178694 0
M  V30 39480 H 3839.6 -0.658839 0.127172 0
M  V30 39481 H 3842.14 -1.78608 0.995964 0
M  V30 39482 H 3840.3 -3.85567 -0.376426 0
M  V30 39483 H 3840.71 -5.02497 1.50323 0
M  V30 39484 H 3842.18 -5.51837 -0.134238 0
M  V30 39485 H 3842.66 -4.21813 -1.22355 0
M  V30 39486 H 3843.27 -4.22927 0.448617 0
M  V30 39487 N 3841.58 -0.480375 -1.501 0
M  V30 39488 C 3842.51 0.298677 -2.31582 0
M  V30 39489 C 3843.49 0.981774 -1.38907 0
M  V30 39490 O 3844.68 0.977159 -1.67825 0
M  V30 39491 C 3841.81 1.37565 -3.18894 0
M  V30 39492 C 3840.76 0.81363 -4.20195 0
M  V30 39493 C 3840.09 1.98959 -4.96306 0
M  V30 39494 C 3841.39 -0.181387 -5.21985 0
M  V30 39495 H 3843.08 -0.381401 -2.96961 0
M  V30 39496 H 3840.63 -0.184867 -1.42808 0
M  V30 39497 H 3842.58 1.92822 -3.74697 0
M  V30 39498 H 3841.3 2.08463 -2.51418 0
M  V30 39499 H 3839.96 0.28297 -3.65506 0
M  V30 39500 H 3839.61 2.68576 -4.25295 0
M  V30 39501 H 3839.31 1.61971 -5.64835 0
M  V30 39502 H 3840.84 2.54688 -5.54947 0
M  V30 39503 H 3842.25 0.282319 -5.72604 0
M  V30 39504 H 3840.65 -0.466021 -5.98288 0
M  V30 39505 H 3841.72 -1.10421 -4.7216 0
M  V30 39506 N 3843.06 1.56149 -0.213351 0
M  V30 39507 C 3844.29 2.02181 0.425035 0
M  V30 39508 C 3844.7 1.09251 1.54469 0
M  V30 39509 O 3844.04 0.0928907 1.83465 0
M  V30 39510 C 3844.1 3.4457 1.02527 0
M  V30 39511 C 3843.77 4.56981 0.042081 0
M  V30 39512 C 3844.76 5.14384 -0.755289 0
M  V30 39513 C 3842.45 5.02245 -0.0742964 0
M  V30 39514 C 3844.44 6.15517 -1.65582 0
M  V30 39515 C 3842.13 6.03217 -0.97837 0
M  V30 39516 C 3843.13 6.59729 -1.76768 0
M  V30 39517 O 3842.82 7.58737 -2.65657 0
M  V30 39518 H 3842.55 0.667126 0.109173 0
M  V30 39519 H 3845.1 2.02816 -0.324789 0
M  V30 39520 H 3843.33 3.40978 1.82403 0
M  V30 39521 H 3845.02 3.74298 1.57021 0
M  V30 39522 H 3845.79 4.80269 -0.675784 0
M  V30 39523 H 3841.67 4.57944 0.529936 0
M  V30 39524 H 3845.21 6.59553 -2.27235 0
M  V30 39525 H 3841.11 6.36755 -1.05892 0
M  V30 39526 H 3841.87 7.76227 -2.59641 0
M  V30 39527 N 3844.54 -0.0601128 1.57485 0
M  V30 39528 C 3845.79 -0.755542 1.87446 0
M  V30 39529 C 3846.11 -1.7752 0.806946 0
M  V30 39530 O 3845.38 -1.9522 -0.163105 0
M  V30 39531 H 3843.96 -0.282032 0.691713 0
M  V30 39532 H 3846.62 -0.0334274 1.94871 0
M  V30 39533 H 3845.72 -1.2645 2.85336 0
M  V30 39534 N 3846.02 -1.54068 -0.331762 0
M  V30 39535 C 3846.95 -1.7921 -1.42885 0
M  V30 39536 C 3847.96 -0.67378 -1.48203 0
M  V30 39537 O 3849.15 -0.950738 -1.51074 0
M  V30 39538 C 3846.25 -1.88748 -2.81474 0
M  V30 39539 C 3845.42 -3.18817 -2.99457 0
M  V30 39540 C 3844.48 -3.19161 -4.18357 0
M  V30 39541 O 3843.51 -3.92835 -4.11909 0
M  V30 39542 N 3844.71 -2.42363 -5.27485 0
M  V30 39543 H 3847.48 -2.73885 -1.21684 0
M  V30 39544 H 3845.04 -1.53264 -0.521708 0
M  V30 39545 H 3847.03 -1.86415 -3.59209 0
M  V30 39546 H 3845.6 -1.01207 -2.95763 0
M  V30 39547 H 3844.82 -3.34177 -2.09091 0
M  V30 39548 H 3846.11 -4.0471 -3.08362 0
M  V30 39549 H 3845.5 -1.8208 -5.35596 0
M  V30 39550 H 3844.06 -2.45817 -6.0367 0
M  V30 39551 N 3847.49 0.593399 -1.46002 0
M  V30 39552 C 3848.72 1.37627 -1.54085 0
M  V30 39553 C 3849.13 1.88369 -0.177129 0
M  V30 39554 O 3848.48 1.63678 0.833987 0
M  V30 39555 C 3848.54 2.60639 -2.47604 0
M  V30 39556 C 3848.2 2.31438 -3.94063 0
M  V30 39557 C 3849.2 1.90928 -4.83573 0
M  V30 39558 C 3846.88 2.43912 -4.39104 0
M  V30 39559 C 3848.88 1.63271 -6.16134 0
M  V30 39560 C 3846.56 2.15869 -5.71703 0
M  V30 39561 C 3847.56 1.75612 -6.60037 0
M  V30 39562 O 3847.25 1.47906 -7.90177 0
M  V30 39563 H 3846.98 0.427184 -0.523918 0
M  V30 39564 H 3849.54 0.72941 -1.92012 0
M  V30 39565 H 3847.77 3.28093 -2.04674 0
M  V30 39566 H 3849.46 3.22698 -2.46213 0
M  V30 39567 H 3850.22 1.80815 -4.50035 0
M  V30 39568 H 3846.1 2.74211 -3.7058 0
M  V30 39569 H 3849.64 1.31775 -6.85041 0
M  V30 39570 H 3845.54 2.25603 -6.04792 0
M  V30 39571 H 3846.31 1.6184 -8.0234 0
M  V30 39572 N 3848.97 1.33529 0.837127 0
M  V30 39573 C 3850.22 1.24431 1.58744 0
M  V30 39574 C 3850.53 -0.187851 1.94696 0
M  V30 39575 O 3851.74 -0.400856 2.68524 0
M  V30 39576 C 3850.2 2.1804 2.86333 0
M  V30 39577 C 3849.8 3.66435 2.57739 0
M  V30 39578 C 3851.55 2.17819 3.64356 0
M  V30 39579 C 3849.46 4.51953 3.81435 0
M  V30 39580 H 3848.39 0.462179 0.59574 0
M  V30 39581 H 3851.04 1.58604 0.922873 0
M  V30 39582 H 3849.42 1.76801 3.54341 0
M  V30 39583 H 3850.59 4.16125 1.97932 0
M  V30 39584 H 3848.91 3.68963 1.93017 0
M  V30 39585 H 3851.5 2.7894 4.56176 0
M  V30 39586 H 3851.85 1.17371 3.99412 0
M  V30 39587 H 3852.38 2.57428 3.03275 0
M  V30 39588 H 3849.12 5.53283 3.51509 0
M  V30 39589 H 3848.64 4.07006 4.40575 0
M  V30 39590 H 3850.32 4.65845 4.48996 0
M  V30 39591 N 3850.45 -1.05559 1.17026 0
M  V30 39592 C 3851.68 -1.81912 0.97936 0
M  V30 39593 C 3852.09 -1.83123 -0.475656 0
M  V30 39594 O 3851.43 -1.25441 -1.34202 0
M  V30 39595 C 3851.49 -3.29436 1.43916 0
M  V30 39596 C 3851.16 -3.51915 2.91556 0
M  V30 39597 C 3852.15 -3.44346 3.89515 0
M  V30 39598 C 3849.84 -3.78997 3.29646 0
M  V30 39599 C 3851.83 -3.63538 5.23563 0
M  V30 39600 C 3849.52 -3.97838 4.63862 0
M  V30 39601 C 3850.52 -3.90107 5.6063 0
M  V30 39602 O 3850.21 -4.08426 6.92418 0
M  V30 39603 H 3849.94 -0.580204 0.3469 0
M  V30 39604 H 3852.49 -1.34031 1.55643 0
M  V30 39605 H 3850.72 -3.78215 0.805622 0
M  V30 39606 H 3852.41 -3.87304 1.21451 0
M  V30 39607 H 3853.18 -3.23405 3.61433 0
M  V30 39608 H 3849.06 -3.8412 2.54898 0
M  V30 39609 H 3852.6 -3.5742 5.9908 0
M  V30 39610 H 3848.5 -4.1827 4.91651 0
M  V30 39611 H 3849.27 -4.25673 6.99103 0
M  V30 39612 N 3851.93 -0.969911 -1.2422 0
M  V30 39613 C 3853.17 -0.643546 -1.92951 0
M  V30 39614 C 3853.53 0.812667 -1.74395 0
M  V30 39615 O 3852.82 1.5773 -1.08773 0
M  V30 39616 C 3853.02 -0.956488 -3.44363 0
M  V30 39617 C 3852.85 -2.44157 -3.77647 0
M  V30 39618 C 3851.62 -3.10177 -3.98896 0
M  V30 39619 C 3853.81 -3.42175 -3.83954 0
M  V30 39620 N 3851.8 -4.484 -4.19297 0
M  V30 39621 C 3853.17 -4.65764 -4.09224 0
M  V30 39622 C 3855.22 -3.36802 -3.667 0
M  V30 39623 C 3853.92 -5.8464 -4.19033 0
M  V30 39624 C 3855.95 -4.55033 -3.77756 0
M  V30 39625 C 3855.31 -5.77412 -4.03453 0
M  V30 39626 H 3851.41 -0.286371 -0.727678 0
M  V30 39627 H 3854 -1.24522 -1.49674 0
M  V30 39628 H 3852.17 -0.383602 -3.86501 0
M  V30 39629 H 3853.9 -0.588469 -4.00399 0
M  V30 39630 H 3850.65 -2.60702 -3.95388 0
M  V30 39631 H 3851.08 -5.20029 -4.33473 0
M  V30 39632 H 3855.72 -2.43221 -3.45837 0
M  V30 39633 H 3853.44 -6.78647 -4.38706 0
M  V30 39634 H 3857.02 -4.52439 -3.65773 0
M  V30 39635 H 3855.9 -6.6737 -4.11809 0
M  V30 39636 N 3853.41 1.39131 -0.740291 0
M  V30 39637 C 3854.63 2.04699 -0.300966 0
M  V30 39638 C 3855.05 1.55821 1.06607 0
M  V30 39639 O 3854.41 0.725417 1.67463 0
M  V30 39640 C 3854.46 3.60256 -0.299637 0
M  V30 39641 O 3854.18 4.07336 -1.61272 0
M  V30 39642 C 3855.68 4.43028 0.155201 0
M  V30 39643 H 3852.9 0.658155 -0.130664 0
M  V30 39644 H 3855.44 1.78077 -1.00542 0
M  V30 39645 H 3853.6 3.85761 0.355973 0
M  V30 39646 H 3854.01 5.01693 -1.52986 0
M  V30 39647 H 3855.49 5.519 0.104971 0
M  V30 39648 H 3855.96 4.22456 1.20116 0
M  V30 39649 H 3856.57 4.22683 -0.47104 0
M  V30 39650 N 3854.88 0.488329 1.49844 0
M  V30 39651 C 3856.16 -0.123071 1.95212 0
M  V30 39652 C 3856.54 -1.55344 1.42939 0
M  V30 39653 O 3855.89 -2.19421 0.637696 0
M  V30 39654 C 3856.1 -0.0487233 3.48966 0
M  V30 39655 C 3857.45 -0.229008 4.23982 0
M  V30 39656 O 3858.47 -0.124507 3.55982 0
M  V30 39657 O 3857.33 -0.44197 5.4471 0
M  V30 39658 H 3854.42 -0.102254 0.820654 0
M  V30 39659 H 3856.97 0.549963 1.60541 0
M  V30 39660 H 3855.74 0.94927 3.79611 0
M  V30 39661 H 3855.37 -0.762462 3.90221 0
M  V30 39662 N 3856.36 -1.56034 0.221629 0
M  V30 39663 C 3857.29 -2.23284 -0.683132 0
M  V30 39664 C 3858.27 -1.20458 -1.20099 0
M  V30 39665 O 3859.46 -1.49043 -1.24498 0
M  V30 39666 C 3856.59 -2.9128 -1.89137 0
M  V30 39667 C 3855.54 -4.00578 -1.50735 0
M  V30 39668 C 3854.87 -4.55871 -2.79438 0
M  V30 39669 C 3856.17 -5.17624 -0.697297 0
M  V30 39670 H 3857.86 -2.9915 -0.122435 0
M  V30 39671 H 3855.41 -1.43885 -0.0574479 0
M  V30 39672 H 3857.36 -3.37018 -2.52976 0
M  V30 39673 H 3856.09 -2.12862 -2.47704 0
M  V30 39674 H 3854.74 -3.55572 -0.89243 0
M  V30 39675 H 3854.39 -3.74183 -3.36149 0
M  V30 39676 H 3854.09 -5.29637 -2.54477 0
M  V30 39677 H 3855.62 -5.04327 -3.44219 0
M  V30 39678 H 3857.03 -5.59743 -1.23939 0
M  V30 39679 H 3855.43 -5.97622 -0.54477 0
M  V30 39680 H 3856.5 -4.83995 0.296066 0
M  V30 39681 N 3857.84 0.0517601 -1.57515 0
M  V30 39682 C 3859.07 0.75835 -1.92179 0
M  V30 39683 C 3859.48 1.70615 -0.817751 0
M  V30 39684 O 3858.82 1.82421 0.216359 0
M  V30 39685 C 3858.88 1.58906 -3.22473 0
M  V30 39686 C 3858.55 0.80849 -4.49792 0
M  V30 39687 C 3859.54 0.11878 -5.19764 0
M  V30 39688 C 3857.23 0.769737 -4.96367 0
M  V30 39689 C 3859.22 -0.599235 -6.34577 0
M  V30 39690 C 3856.91 0.0479624 -6.11081 0
M  V30 39691 C 3857.91 -0.635304 -6.80039 0
M  V30 39692 O 3857.6 -1.34541 -7.92562 0
M  V30 39693 H 3857.33 0.219596 -0.639339 0
M  V30 39694 H 3859.88 0.0202287 -2.0539 0
M  V30 39695 H 3858.11 2.37046 -3.05526 0
M  V30 39696 H 3859.8 2.17616 -3.42634 0
M  V30 39697 H 3860.57 0.139896 -4.84798 0
M  V30 39698 H 3856.45 1.29104 -4.42553 0
M  V30 39699 H 3859.99 -1.1331 -6.88336 0
M  V30 39700 H 3855.89 0.0248428 -6.45495 0
M  V30 39701 H 3856.66 -1.25674 -8.08794 0
M  V30 39702 N 3859.32 1.54242 0.323587 0
M  V30 39703 C 3860.55 1.7641 1.08107 0
M  V30 39704 C 3860.96 0.512688 1.81706 0
M  V30 39705 O 3860.32 -0.516607 1.75035 0
M  V30 39706 C 3860.37 2.95723 2.07918 0
M  V30 39707 O 3860.09 4.16026 1.37309 0
M  V30 39708 C 3861.59 3.30101 2.95885 0
M  V30 39709 H 3858.81 0.588925 0.321572 0
M  V30 39710 H 3861.36 2.0113 0.369721 0
M  V30 39711 H 3859.51 2.73277 2.74588 0
M  V30 39712 H 3859.93 4.83139 2.0415 0
M  V30 39713 H 3861.4 4.16887 3.61814 0
M  V30 39714 H 3861.88 2.47267 3.62982 0
M  V30 39715 H 3862.48 3.54627 2.34777 0
M  V30 39716 N 3860.8 -0.585648 1.46314 0
M  V30 39717 C 3861.73 -1.70938 1.52686 0
M  V30 39718 C 3862.74 -1.57409 0.415475 0
M  V30 39719 O 3863.93 -1.64888 0.683686 0
M  V30 39720 C 3861.03 -3.0916 1.38827 0
M  V30 39721 C 3860.2 -3.4872 2.64033 0
M  V30 39722 C 3859.26 -4.65991 2.44415 0
M  V30 39723 O 3858.29 -4.72 3.18127 0
M  V30 39724 N 3859.49 -5.60681 1.50391 0
M  V30 39725 H 3862.26 -1.65928 2.49576 0
M  V30 39726 H 3859.82 -0.771548 1.42333 0
M  V30 39727 H 3861.81 -3.85402 1.2348 0
M  V30 39728 H 3860.38 -3.08554 0.501301 0
M  V30 39729 H 3859.6 -2.62214 2.94342 0
M  V30 39730 H 3860.89 -3.71915 3.47212 0
M  V30 39731 H 3860.29 -5.58559 0.896015 0
M  V30 39732 H 3858.84 -6.36365 1.41008 0
M  V30 39733 N 3862.28 -1.33971 -0.830033 0
M  V30 39734 C 3863.69 -1.13498 -1.12207 0
M  V30 39735 C 3863.89 0.0682618 -2.01384 0
M  V30 39736 O 3862.95 0.745907 -2.41231 0
M  V30 39737 C 3864.26 -2.42676 -1.77564 0
M  V30 39738 C 3865.81 -2.48666 -1.9009 0
M  V30 39739 C 3866.28 -3.77828 -2.58863 0
M  V30 39740 N 3867.77 -3.78949 -2.66369 0
M  V30 39741 C 3868.51 -4.75605 -3.20293 0
M  V30 39742 N 3868.01 -5.8264 -3.74836 0
M  V30 39743 N 3869.8 -4.63069 -3.18628 0
M  V30 39744 H 3861.95 -2.11077 -0.236715 0
M  V30 39745 H 3864.21 -0.933075 -0.167555 0
M  V30 39746 H 3863.92 -3.30776 -1.195 0
M  V30 39747 H 3863.79 -2.55486 -2.77501 0
M  V30 39748 H 3866.18 -1.61009 -2.47305 0
M  V30 39749 H 3866.26 -2.39789 -0.890766 0
M  V30 39750 H 3865.9 -4.6587 -2.02304 0
M  V30 39751 H 3865.83 -3.83984 -3.60366 0
M  V30 39752 H 3868.33 -3.01598 -2.277 0
M  V30 39753 H 3868.64 -6.52417 -4.14213 0
M  V30 39754 H 3866.98 -5.86363 -3.73099 0
M  V30 39755 H 3870.17 -3.78601 -2.75279 0
M  V30 39756 H 3870.35 -5.38565 -3.60349 0
M  V30 39757 N 3863.75 1.04937 -1.17584 0
M  V30 39758 C 3865 1.77377 -0.96022 0
M  V30 39759 C 3865.32 1.88781 0.511968 0
M  V30 39760 O 3866.52 2.57987 0.845867 0
M  V30 39761 C 3864.98 3.18868 -1.66888 0
M  V30 39762 C 3864.59 3.15586 -3.17977 0
M  V30 39763 C 3866.33 3.95746 -1.53574 0
M  V30 39764 C 3864.24 4.5188 -3.81521 0
M  V30 39765 H 3863.17 0.664862 -0.355632 0
M  V30 39766 H 3865.82 1.17599 -1.40865 0
M  V30 39767 H 3864.2 3.78989 -1.1482 0
M  V30 39768 H 3865.37 2.64967 -3.77 0
M  V30 39769 H 3863.69 2.52206 -3.31332 0
M  V30 39770 H 3866.29 4.96523 -1.98417 0
M  V30 39771 H 3866.63 4.13445 -0.486676 0
M  V30 39772 H 3867.16 3.4218 -2.02874 0
M  V30 39773 H 3863.9 4.39387 -4.86436 0
M  V30 39774 H 3863.42 5.02638 -3.27285 0
M  V30 39775 H 3865.1 5.20815 -3.83876 0
M  V30 39776 N 3865.23 0.976485 1.23703 0
M  V30 39777 C 3866.46 0.660141 1.9577 0
M  V30 39778 C 3866.87 -0.776266 1.72542 0
M  V30 39779 O 3866.21 -1.53353 1.01136 0
M  V30 39780 C 3866.27 0.865813 3.48918 0
M  V30 39781 C 3865.94 2.28354 3.95858 0
M  V30 39782 C 3866.94 3.26193 4.04838 0
M  V30 39783 C 3864.62 2.61358 4.28949 0
M  V30 39784 C 3866.61 4.55119 4.46257 0
M  V30 39785 C 3864.3 3.90508 4.7005 0
M  V30 39786 C 3865.3 4.872 4.7867 0
M  V30 39787 O 3864.99 6.14044 5.18849 0
M  V30 39788 H 3864.72 0.244597 0.630197 0
M  V30 39789 H 3867.27 1.30939 1.58253 0
M  V30 39790 H 3865.5 0.159389 3.86371 0
M  V30 39791 H 3867.19 0.547224 4.02194 0
M  V30 39792 H 3867.96 3.02025 3.79481 0
M  V30 39793 H 3863.84 1.86811 4.21453 0
M  V30 39794 H 3867.38 5.30591 4.529 0
M  V30 39795 H 3863.28 4.14473 4.94856 0
M  V30 39796 H 3864.05 6.17739 5.36973 0
M  V30 39797 N 3866.71 -1.38737 0.747659 0
M  V30 39798 C 3868.13 -1.53848 0.424604 0
M  V30 39799 C 3868.33 -1.71179 -1.06301 0
M  V30 39800 O 3867.38 -1.71944 -1.84909 0
M  V30 39801 C 3868.69 -2.74898 1.21868 0
M  V30 39802 C 3870.24 -2.88743 1.20816 0
M  V30 39803 C 3870.72 -4.12746 1.98507 0
M  V30 39804 N 3872.21 -4.19811 1.95737 0
M  V30 39805 C 3872.94 -5.14738 2.5265 0
M  V30 39806 N 3872.44 -6.15376 3.18251 0
M  V30 39807 N 3874.23 -5.07046 2.42612 0
M  V30 39808 H 3866.38 -1.25736 1.71185 0
M  V30 39809 H 3868.65 -0.610363 0.725369 0
M  V30 39810 H 3868.35 -2.68476 2.27186 0
M  V30 39811 H 3868.23 -3.67919 0.831574 0
M  V30 39812 H 3870.61 -2.94649 0.163065 0
M  V30 39813 H 3870.69 -1.96749 1.63474 0
M  V30 39814 H 3870.34 -4.07601 3.03024 0
M  V30 39815 H 3870.27 -5.03808 1.53248 0
M  V30 39816 H 3872.76 -3.47732 1.47956 0
M  V30 39817 H 3873.07 -6.84293 3.59113 0
M  V30 39818 H 3871.42 -6.15726 3.22345 0
M  V30 39819 H 3874.61 -4.27362 1.90995 0
M  V30 39820 H 3874.78 -5.80847 2.87264 0
M  V30 39821 N 3868.19 -0.496268 -1.49583 0
M  V30 39822 C 3869.15 0.273602 -2.27561 0
M  V30 39823 C 3870.15 0.898177 -1.33377 0
M  V30 39824 O 3871.34 0.763443 -1.5658 0
M  V30 39825 C 3868.47 1.3921 -3.1118 0
M  V30 39826 H 3869.67 -0.410595 -2.97076 0
M  V30 39827 H 3867.22 -0.251085 -1.5427 0
M  V30 39828 H 3867.95 2.11059 -2.4622 0
M  V30 39829 H 3867.74 0.949762 -3.80423 0
M  V30 39830 H 3869.23 1.93453 -3.70089 0
M  V30 39831 N 3869.67 1.55914 -0.2299 0
M  V30 39832 C 3870.61 2.22032 0.693159 0
M  V30 39833 C 3871.61 1.20238 1.19328 0
M  V30 39834 O 3872.81 1.38296 1.15214 0
M  V30 39835 H 3869.19 0.712006 0.241973 0
M  V30 39836 H 3871.16 2.98189 0.112177 0
M  V30 39837 C 3869.91 2.92051 1.88683 0
M  V30 39838 H 3869.23 3.70142 1.51112 0
M  V30 39839 H 3870.67 3.41702 2.5103 0
M  V30 39840 C 3869.13 1.94981 2.74744 0
M  V30 39841 O 3869.66 1.47204 3.73756 0
M  V30 39842 N 3867.87 1.62449 2.40954 0
M  V30 39843 H 3867.41 2.01496 1.60491 0
M  V30 39844 H 3867.37 0.977633 2.98814 0
M  V30 39845 N 3871.14 -0.043406 1.5754 0
M  V30 39846 C 3872.09 -1.04844 2.05612 0
M  V30 39847 C 3873.06 -1.36783 0.942323 0
M  V30 39848 O 3874.25 -1.47366 1.21194 0
M  V30 39849 C 3871.39 -2.34866 2.52848 0
M  V30 39850 C 3870.5 -2.09211 3.77961 0
M  V30 39851 C 3869.63 -3.33 4.13865 0
M  V30 39852 C 3868.67 -3.02836 5.31937 0
M  V30 39853 N 3867.81 -4.19035 5.63342 0
M  V30 39854 H 3872.65 -0.63154 2.91231 0
M  V30 39855 H 3870.19 -0.300233 1.44004 0
M  V30 39856 H 3872.14 -3.10817 2.78296 0
M  V30 39857 H 3870.77 -2.74305 1.70166 0
M  V30 39858 H 3869.83 -1.23822 3.59684 0
M  V30 39859 H 3871.14 -1.8295 4.64037 0
M  V30 39860 H 3870.29 -4.17329 4.40366 0
M  V30 39861 H 3869.03 -3.62362 3.26412 0
M  V30 39862 H 3868.04 -2.16907 5.05204 0
M  V30 39863 H 3869.26 -2.74766 6.21032 0
M  V30 39864 H 3867.21 -4.48375 4.78848 0
M  V30 39865 H 3867.12 -3.96147 6.43897 0
M  V30 39866 H 3868.39 -5.04278 5.9441 0
M  V30 39867 N 3872.62 -1.54412 -0.315402 0
M  V30 39868 C 3873.85 -1.76724 -1.07015 0
M  V30 39869 C 3874.26 -0.519786 -1.8192 0
M  V30 39870 O 3873.6 0.51947 -1.76202 0
M  V30 39871 C 3873.66 -2.91228 -2.10776 0
M  V30 39872 C 3873.33 -4.29841 -1.55196 0
M  V30 39873 C 3874.33 -5.10397 -0.989478 0
M  V30 39874 C 3872.01 -4.76406 -1.59193 0
M  V30 39875 C 3874 -6.35632 -0.474354 0
M  V30 39876 C 3871.69 -6.01607 -1.07293 0
M  V30 39877 C 3872.69 -6.81055 -0.515101 0
M  V30 39878 O 3872.38 -8.039 -0.00393129 0
M  V30 39879 H 3872.11 -0.593411 -0.323788 0
M  V30 39880 H 3874.66 -2.02137 -0.364673 0
M  V30 39881 H 3872.89 -2.61405 -2.84963 0
M  V30 39882 H 3874.58 -3.01248 -2.72037 0
M  V30 39883 H 3875.35 -4.75573 -0.951608 0
M  V30 39884 H 3871.23 -4.14606 -2.01552 0
M  V30 39885 H 3874.77 -6.97589 -0.0382913 0
M  V30 39886 H 3870.67 -6.35921 -1.1079 0
M  V30 39887 H 3871.44 -8.18414 -0.118589 0
M  V30 39888 N 3874.1 0.57788 -1.46623 0
M  V30 39889 C 3875.38 1.33819 -1.4266 0
M  V30 39890 C 3875.76 2.10799 -0.112597 0
M  V30 39891 O 3875.11 2.09777 0.905867 0
M  V30 39892 C 3875.32 2.26013 -2.65931 0
M  V30 39893 C 3876.66 2.8769 -3.12282 0
M  V30 39894 O 3877.69 2.36324 -2.66513 0
M  V30 39895 O 3876.55 3.81 -3.91793 0
M  V30 39896 H 3873.64 0.601507 -0.567554 0
M  V30 39897 H 3876.19 0.598497 -1.58796 0
M  V30 39898 H 3874.96 1.68591 -3.53119 0
M  V30 39899 H 3874.58 3.07314 -2.52278 0
M  V30 39900 N 3875.58 1.34409 0.822917 0
M  V30 39901 C 3876.83 1.26516 1.57601 0
M  V30 39902 C 3877.15 -0.164735 1.94303 0
M  V30 39903 O 3876.42 -1.09736 1.6228 0
M  V30 39904 H 3875 0.465292 0.584391 0
M  V30 39905 H 3877.66 1.68321 0.982553 0
M  V30 39906 H 3876.76 1.8699 2.49882 0
M  V30 39907 N 3877.06 -1.04312 1.18139 0
M  V30 39908 C 3878.28 -1.81664 1.00065 0
M  V30 39909 C 3878.71 -1.8273 -0.446248 0
M  V30 39910 O 3878.06 -1.24279 -1.32002 0
M  V30 39911 C 3878.11 -3.25252 1.55703 0
M  V30 39912 O 3877.22 -4.05019 0.776733 0
M  V30 39913 H 3876.56 -0.561348 0.354661 0
M  V30 39914 H 3879.09 -1.31387 1.56839 0
M  V30 39915 H 3879.1 -3.76035 1.5831 0
M  V30 39916 H 3877.77 -3.23791 2.61022 0
M  V30 39917 H 3876.35 -3.6371 0.822787 0
M  V30 39918 N 3878.53 -0.983032 -1.23184 0
M  V30 39919 C 3879.78 -0.652085 -1.91291 0
M  V30 39920 C 3880.1 0.817269 -1.77047 0
M  V30 39921 O 3879.37 1.58485 -1.15149 0
M  V30 39922 H 3877.95 -0.238193 -0.708006 0
M  V30 39923 H 3880.62 -1.24741 -1.49752 0
M  V30 39924 H 3879.71 -0.906003 -2.9866 0
M  V30 39925 N 3880.01 1.38338 -0.755006 0
M  V30 39926 C 3880.94 2.29029 -0.0884239 0
M  V30 39927 C 3881.96 1.47816 0.682232 0
M  V30 39928 O 3883.15 1.70664 0.523087 0
M  V30 39929 C 3880.25 3.26765 0.898762 0
M  V30 39930 C 3879.42 4.37007 0.18545 0
M  V30 39931 C 3878.48 5.14922 1.08359 0
M  V30 39932 O 3877.5 5.66502 0.553587 0
M  V30 39933 N 3878.71 5.28038 2.41155 0
M  V30 39934 H 3881.47 2.86876 -0.8673 0
M  V30 39935 H 3879.03 1.50134 -0.605912 0
M  V30 39936 H 3881.02 3.75769 1.50266 0
M  V30 39937 H 3879.59 2.69807 1.57871 0
M  V30 39938 H 3878.81 3.8962 -0.599174 0
M  V30 39939 H 3880.1 5.07866 -0.308088 0
M  V30 39940 H 3879.5 4.87686 2.86669 0
M  V30 39941 H 3878.06 5.80411 2.96592 0
M  V30 39942 N 3881.49 0.504194 1.49317 0
M  V30 39943 C 3882.74 -0.0410527 2.01658 0
M  V30 39944 C 3883.05 -1.3775 1.38868 0
M  V30 39945 O 3884.26 -2.00962 1.82556 0
M  V30 39946 C 3882.71 -0.123618 3.59688 0
M  V30 39947 C 3882.32 1.20637 4.31452 0
M  V30 39948 C 3884.07 -0.61906 4.19962 0
M  V30 39949 C 3881.97 1.0858 5.81347 0
M  V30 39950 H 3880.9 -0.0191154 0.753758 0
M  V30 39951 H 3883.55 0.644096 1.71824 0
M  V30 39952 H 3881.94 -0.873287 3.86251 0
M  V30 39953 H 3883.11 1.96959 4.16586 0
M  V30 39954 H 3881.43 1.63551 3.82936 0
M  V30 39955 H 3884.02 -0.726832 5.29737 0
M  V30 39956 H 3884.37 -1.61867 3.83542 0
M  V30 39957 H 3884.9 0.0741665 3.97731 0
M  V30 39958 H 3881.64 2.05978 6.22297 0
M  V30 39959 H 3881.16 0.363527 5.98697 0
M  V30 39960 H 3882.84 0.765835 6.42452 0
M  V30 39961 N 3882.97 -1.5579 0.238166 0
M  V30 39962 C 3883.93 -2.19741 -0.651664 0
M  V30 39963 C 3884.93 -1.1641 -1.1093 0
M  V30 39964 O 3886.12 -1.41545 -1.01542 0
M  V30 39965 C 3883.25 -2.83401 -1.89465 0
M  V30 39966 H 3884.45 -2.99753 -0.0938486 0
M  V30 39967 H 3882 -1.56296 -0.0114073 0
M  V30 39968 H 3882.73 -2.07303 -2.49391 0
M  V30 39969 H 3882.52 -3.59086 -1.5748 0
M  V30 39970 H 3884.01 -3.32369 -2.52825 0
M  V30 39971 N 3884.45 0.0350506 -1.57561 0
M  V30 39972 C 3885.38 1.07043 -2.01537 0
M  V30 39973 C 3886.36 1.35512 -0.898627 0
M  V30 39974 O 3887.54 1.48269 -1.16398 0
M  V30 39975 C 3884.67 2.40654 -2.38334 0
M  V30 39976 C 3883.71 2.28082 -3.6039 0
M  V30 39977 S 3884.55 1.63992 -5.09771 0
M  V30 39978 C 3885.7 2.99106 -5.49806 0
M  V30 39979 H 3885.94 0.695833 -2.89042 0
M  V30 39980 H 3883.47 0.244832 -1.52446 0
M  V30 39981 H 3885.43 3.17495 -2.60206 0
M  V30 39982 H 3884.09 2.75263 -1.51291 0
M  V30 39983 H 3883.28 3.26702 -3.83773 0
M  V30 39984 H 3882.88 1.59383 -3.38339 0
M  V30 39985 H 3885.18 3.95437 -5.50124 0
M  V30 39986 H 3886.12 2.80463 -6.50189 0
M  V30 39987 H 3886.53 3.01404 -4.77301 0
M  V30 39988 N 3885.92 1.54577 0.307209 0
M  V30 39989 C 3887.15 1.77546 1.0623 0
M  V30 39990 C 3887.57 0.531931 1.81152 0
M  V30 39991 O 3886.92 -0.498013 1.75574 0
M  V30 39992 C 3886.98 2.97912 2.0477 0
M  V30 39993 O 3886.7 4.17459 1.32889 0
M  V30 39994 C 3888.2 3.33221 2.92367 0
M  V30 39995 H 3885.42 0.592302 0.315308 0
M  V30 39996 H 3887.96 2.01511 0.348368 0
M  V30 39997 H 3886.12 2.76174 2.71674 0
M  V30 39998 H 3886.53 4.85277 1.99014 0
M  V30 39999 H 3888 4.20701 3.57372 0
M  V30 40000 H 3888.48 2.51103 3.60339 0
M  V30 40001 H 3889.09 3.57097 2.31002 0
M  V30 40002 N 3887.4 -0.570096 1.46927 0
M  V30 40003 C 3888.63 -1.35355 1.56482 0
M  V30 40004 C 3889.05 -1.87624 0.210389 0
M  V30 40005 O 3888.4 -1.64305 -0.794359 0
M  V30 40006 C 3888.45 -2.53239 2.57977 0
M  V30 40007 O 3888.17 -2.03132 3.88161 0
M  V30 40008 C 3889.68 -3.45625 2.77593 0
M  V30 40009 H 3886.9 -0.413058 0.528795 0
M  V30 40010 H 3889.44 -0.691861 1.92441 0
M  V30 40011 H 3887.59 -3.15371 2.24988 0
M  V30 40012 H 3888.01 -2.79996 4.43511 0
M  V30 40013 H 3889.48 -4.24789 3.52503 0
M  V30 40014 H 3889.96 -3.98359 1.84951 0
M  V30 40015 H 3890.57 -2.89318 3.11729 0
M  V30 40016 N 3888.88 -1.34844 -0.815777 0
M  V30 40017 C 3889.83 -1.27027 -1.94851 0
M  V30 40018 C 3890.82 -0.166966 -1.68575 0
M  V30 40019 O 3892.03 -0.332383 -1.76905 0
M  V30 40020 H 3888.4 -0.394805 -0.640026 0
M  V30 40021 H 3890.38 -2.22743 -1.98565 0
M  V30 40022 C 3889.12 -1.04983 -3.31472 0
M  V30 40023 H 3888.45 -1.89116 -3.52243 0
M  V30 40024 H 3889.89 -1.03553 -4.1116 0
M  V30 40025 C 3888.35 0.246649 -3.35996 0
M  V30 40026 O 3888.88 1.24559 -3.819 0
M  V30 40027 N 3887.08 0.282241 -2.89226 0
M  V30 40028 H 3886.63 -0.531255 -2.52062 0
M  V30 40029 H 3886.59 1.14944 -2.92635 0
M  V30 40030 N 3890.36 1.03684 -1.1869 0
M  V30 40031 C 3891.29 2.137 -0.940977 0
M  V30 40032 C 3892.27 1.69657 0.12274 0
M  V30 40033 O 3893.46 1.94176 -0.0306426 0
M  V30 40034 C 3890.59 3.44103 -0.470115 0
M  V30 40035 C 3889.54 4.0179 -1.47475 0
M  V30 40036 C 3888.87 5.27718 -0.861267 0
M  V30 40037 C 3890.17 4.37519 -2.85262 0
M  V30 40038 H 3891.86 2.34531 -1.86106 0
M  V30 40039 H 3889.41 1.12711 -0.896227 0
M  V30 40040 H 3891.36 4.20432 -0.285404 0
M  V30 40041 H 3890.08 3.22971 0.485547 0
M  V30 40042 H 3888.74 3.27547 -1.64647 0
M  V30 40043 H 3888.39 5.02897 0.101702 0
M  V30 40044 H 3888.09 5.67276 -1.53206 0
M  V30 40045 H 3889.61 6.06721 -0.687173 0
M  V30 40046 H 3891.03 5.04818 -2.7172 0
M  V30 40047 H 3889.42 4.88137 -3.4906 0
M  V30 40048 H 3890.49 3.47175 -3.38522 0
M  V30 40049 N 3891.84 0.989551 1.22661 0
M  V30 40050 C 3892.77 0.556931 2.26761 0
M  V30 40051 C 3893.75 -0.414509 1.64972 0
M  V30 40052 O 3894.93 -0.305876 1.91776 0
M  V30 40053 C 3892.06 -0.132512 3.47047 0
M  V30 40054 C 3891.02 0.757132 4.2125 0
M  V30 40055 C 3890.34 -0.06504 5.3466 0
M  V30 40056 C 3891.64 2.05237 4.80286 0
M  V30 40057 H 3893.34 1.42708 2.63201 0
M  V30 40058 H 3890.88 0.687636 1.26521 0
M  V30 40059 H 3892.84 -0.446536 4.19027 0
M  V30 40060 H 3891.56 -1.03718 3.09694 0
M  V30 40061 H 3890.22 1.05475 3.51099 0
M  V30 40062 H 3889.87 -0.970521 4.93548 0
M  V30 40063 H 3889.57 0.527166 5.8523 0
M  V30 40064 H 3891.09 -0.373235 6.09458 0
M  V30 40065 H 3892.51 1.80252 5.44226 0
M  V30 40066 H 3890.9 2.59312 5.41182 0
M  V30 40067 H 3891.97 2.73329 4.00524 0
M  V30 40068 N 3893.32 -1.37936 0.762332 0
M  V30 40069 C 3894.54 -2.04721 0.332253 0
M  V30 40070 C 3894.97 -1.57121 -1.03415 0
M  V30 40071 O 3894.32 -0.727146 -1.66079 0
M  V30 40072 C 3894.37 -3.58656 0.373962 0
M  V30 40073 O 3893.48 -4.07576 -0.628953 0
M  V30 40074 H 3892.82 -0.647866 0.145483 0
M  V30 40075 H 3895.35 -1.76438 1.0359 0
M  V30 40076 H 3895.36 -4.07363 0.227921 0
M  V30 40077 H 3894.03 -3.92658 1.37085 0
M  V30 40078 H 3892.61 -3.70214 -0.446806 0
M  V30 40079 N 3894.79 -0.512106 -1.49048 0
M  V30 40080 C 3895.73 0.297238 -2.27264 0
M  V30 40081 C 3896.74 0.92065 -1.34268 0
M  V30 40082 O 3897.93 0.802112 -1.59463 0
M  V30 40083 C 3895.03 1.43446 -3.07045 0
M  V30 40084 C 3894.2 0.916301 -4.27695 0
M  V30 40085 C 3893.26 1.93247 -4.8943 0
M  V30 40086 O 3892.29 1.49656 -5.49174 0
M  V30 40087 N 3893.49 3.26361 -4.80072 0
M  V30 40088 H 3896.25 -0.373497 -2.97364 0
M  V30 40089 H 3893.81 -0.345328 -1.58174 0
M  V30 40090 H 3895.81 2.11204 -3.45217 0
M  V30 40091 H 3894.38 2.00916 -2.39482 0
M  V30 40092 H 3893.6 0.0632722 -3.94149 0
M  V30 40093 H 3894.88 0.548697 -5.05833 0
M  V30 40094 H 3894.28 3.64456 -4.32652 0
M  V30 40095 H 3892.84 3.89801 -5.22396 0
M  V30 40096 N 3896.27 1.55662 -0.246424 0
M  V30 40097 C 3897.68 1.84925 0.25682 0
M  V30 40098 C 3898.03 1.16823 1.57628 0
M  V30 40099 O 3897.16 0.446452 2.11745 0
M  V30 40100 C 3897.75 3.35485 0.472756 0
M  V30 40101 C 3896.31 3.64977 0.920266 0
M  V30 40102 C 3895.46 2.773 -0.00278646 0
M  V30 40103 H 3898.41 1.51612 -0.468998 0
M  V30 40104 H 3898.43 3.57039 1.31543 0
M  V30 40105 H 3897.94 3.85023 -0.487732 0
M  V30 40106 H 3896.04 3.20916 1.89324 0
M  V30 40107 H 3896.16 4.7275 0.777457 0
M  V30 40108 H 3894.52 2.49572 0.508495 0
M  V30 40109 H 3895.3 3.29644 -0.958639 0
M  V30 40110 N 3897.75 -0.0266943 1.57577 0
M  V30 40111 C 3899.17 -0.382378 1.54952 0
M  V30 40112 C 3899.37 -1.76459 0.972857 0
M  V30 40113 O 3898.42 -2.45391 0.594943 0
M  V30 40114 C 3899.73 -0.282059 2.99374 0
M  V30 40115 C 3901.28 -0.358967 3.10935 0
M  V30 40116 C 3901.76 -0.28807 4.57093 0
M  V30 40117 N 3903.25 -0.346792 4.619 0
M  V30 40118 C 3903.98 -0.314861 5.72535 0
M  V30 40119 N 3903.48 -0.235083 6.92401 0
M  V30 40120 N 3905.27 -0.364765 5.60915 0
M  V30 40121 H 3897.42 0.877822 1.93412 0
M  V30 40122 H 3899.69 0.33401 0.88721 0
M  V30 40123 H 3899.39 0.667881 3.453 0
M  V30 40124 H 3899.27 -1.07478 3.61564 0
M  V30 40125 H 3901.65 -1.29934 2.64955 0
M  V30 40126 H 3901.73 0.463144 2.51572 0
M  V30 40127 H 3901.38 0.648646 5.03741 0
M  V30 40128 H 3901.31 -1.12832 5.1437 0
M  V30 40129 H 3903.8 -0.410866 3.7566 0
M  V30 40130 H 3904.11 -0.215883 7.72498 0
M  V30 40131 H 3902.46 -0.201097 6.94709 0
M  V30 40132 H 3905.65 -0.425098 4.66166 0
M  V30 40133 H 3905.82 -0.336412 6.47126 0
M  V30 40134 N 3899.23 -1.54738 -0.299007 0
M  V30 40135 C 3900.48 -1.73769 -1.03192 0
M  V30 40136 C 3900.8 -0.527478 -1.8773 0
M  V30 40137 O 3900.07 0.458208 -1.90466 0
M  V30 40138 H 3898.65 -0.640754 -0.383984 0
M  V30 40139 H 3901.31 -1.92094 -0.329511 0
M  V30 40140 H 3900.4 -2.62777 -1.68388 0
M  V30 40141 N 3900.71 0.562296 -1.47228 0
M  V30 40142 C 3901.95 1.31601 -1.52853 0
M  V30 40143 C 3902.27 1.94643 -0.19327 0
M  V30 40144 O 3903.47 2.71201 -0.127477 0
M  V30 40145 C 3901.93 2.38616 -2.69426 0
M  V30 40146 C 3901.54 1.81787 -4.0946 0
M  V30 40147 C 3903.28 3.152 -2.8434 0
M  V30 40148 C 3901.19 2.86551 -5.17342 0
M  V30 40149 H 3900.12 0.494806 -0.568932 0
M  V30 40150 H 3902.77 0.597788 -1.7349 0
M  V30 40151 H 3901.15 3.13329 -2.42159 0
M  V30 40152 H 3902.33 1.1348 -4.46608 0
M  V30 40153 H 3900.64 1.17804 -3.99389 0
M  V30 40154 H 3903.24 3.93425 -3.62107 0
M  V30 40155 H 3903.58 3.69069 -1.92597 0
M  V30 40156 H 3904.11 2.47597 -3.11353 0
M  V30 40157 H 3900.85 2.37544 -6.10945 0
M  V30 40158 H 3900.37 3.53285 -4.84716 0
M  V30 40159 H 3902.05 3.50136 -5.44071 0
M  V30 40160 N 3902.18 1.35274 0.808615 0
M  V30 40161 C 3903.13 1.28059 1.94175 0
M  V30 40162 C 3904.13 0.175903 1.68484 0
M  V30 40163 O 3905.33 0.34176 1.76726 0
M  V30 40164 H 3901.71 0.398194 0.637923 0
M  V30 40165 H 3903.68 2.23793 1.97381 0
M  V30 40166 C 3902.43 1.0674 3.30911 0
M  V30 40167 H 3901.75 1.90982 3.51235 0
M  V30 40168 H 3903.19 1.05732 4.10605 0
M  V30 40169 C 3901.65 -0.228826 3.36122 0
M  V30 40170 O 3902.18 -1.22532 3.82556 0
M  V30 40171 N 3900.38 -0.266898 2.89372 0
M  V30 40172 H 3899.93 0.544615 2.51777 0
M  V30 40173 H 3899.89 -1.13391 2.9324 0
M  V30 40174 N 3903.66 -1.03053 1.19239 0
M  V30 40175 C 3904.89 -1.80055 1.0192 0
M  V30 40176 C 3905.31 -1.83789 -0.432107 0
M  V30 40177 O 3904.66 -1.28073 -1.30014 0
M  V30 40178 C 3904.71 -3.25183 1.57918 0
M  V30 40179 O 3904.43 -3.2172 2.97368 0
M  V30 40180 C 3905.94 -4.18791 1.45359 0
M  V30 40181 H 3903.16 -0.566689 0.359311 0
M  V30 40182 H 3905.7 -1.29811 1.58017 0
M  V30 40183 H 3903.85 -3.72624 1.05974 0
M  V30 40184 H 3904.27 -4.12711 3.23682 0
M  V30 40185 H 3905.74 -5.18518 1.89323 0
M  V30 40186 H 3906.22 -4.37339 0.403856 0
M  V30 40187 H 3906.83 -3.77223 1.96426 0
M  V30 40188 N 3905.14 -0.996042 -1.22134 0
M  V30 40189 C 3906.39 -0.674666 -1.91249 0
M  V30 40190 C 3906.72 0.791624 -1.77333 0
M  V30 40191 O 3905.99 1.57283 -1.14421 0
M  V30 40192 C 3906.28 -1.08527 -3.43357 0
M  V30 40193 C 3906.13 -2.61034 -3.66307 0
M  V30 40194 C 3907.45 -0.640872 -4.35409 0
M  V30 40195 H 3904.57 -0.246571 -0.69453 0
M  V30 40196 H 3907.21 -1.24012 -1.43948 0
M  V30 40197 H 3905.36 -0.604139 -3.83774 0
M  V30 40198 H 3907.03 -3.16842 -3.35275 0
M  V30 40199 H 3905.28 -3.0296 -3.1048 0
M  V30 40200 H 3905.95 -2.84815 -4.72847 0
M  V30 40201 H 3908.42 -1.05418 -4.02525 0
M  V30 40202 H 3907.3 -0.956432 -5.40503 0
M  V30 40203 H 3907.56 0.458344 -4.39718 0
M  V30 40204 N 3906.62 1.37529 -0.769636 0
M  V30 40205 C 3907.86 2.00039 -0.333495 0
M  V30 40206 C 3908.2 1.60956 1.08658 0
M  V30 40207 O 3907.47 0.85474 1.74712 0
M  V30 40208 C 3907.76 3.56958 -0.474651 0
M  V30 40209 C 3907.61 4.05956 -1.93699 0
M  V30 40210 C 3908.93 4.3993 0.122352 0
M  V30 40211 H 3906.05 0.726723 -0.12265 0
M  V30 40212 H 3908.69 1.63238 -0.972284 0
M  V30 40213 H 3906.84 3.88438 0.0691669 0
M  V30 40214 H 3908.51 3.8505 -2.54035 0
M  V30 40215 H 3906.75 3.58228 -2.44654 0
M  V30 40216 H 3907.42 5.15004 -1.98683 0
M  V30 40217 H 3909.9 4.14695 -0.34163 0
M  V30 40218 H 3908.78 5.489 -0.00656193 0
M  V30 40219 H 3909.04 4.2515 1.21244 0
M  V30 40220 N 3908.1 0.520003 1.48774 0
M  V30 40221 C 3909.04 -0.248202 2.29462 0
M  V30 40222 C 3910.01 -0.943003 1.36736 0
M  V30 40223 O 3911.2 -0.945974 1.65698 0
M  V30 40224 C 3908.34 -1.29525 3.19871 0
M  V30 40225 C 3907.45 -0.610304 4.27667 0
M  V30 40226 C 3906.59 -1.63942 5.05269 0
M  V30 40227 C 3905.63 -0.937389 6.0488 0
M  V30 40228 N 3904.76 -1.91159 6.75576 0
M  V30 40229 H 3909.6 0.446068 2.94643 0
M  V30 40230 H 3907.14 0.231818 1.45262 0
M  V30 40231 H 3909.1 -1.9145 3.70679 0
M  V30 40232 H 3907.73 -1.95803 2.56634 0
M  V30 40233 H 3906.78 0.122665 3.80202 0
M  V30 40234 H 3908.09 -0.0585987 4.98766 0
M  V30 40235 H 3907.25 -2.33322 5.60041 0
M  V30 40236 H 3905.98 -2.22501 4.33987 0
M  V30 40237 H 3904.99 -0.229465 5.49321 0
M  V30 40238 H 3906.21 -0.358047 6.78155 0
M  V30 40239 H 3904.16 -2.48644 6.07052 0
M  V30 40240 H 3904.08 -1.41105 7.42715 0
M  V30 40241 H 3905.35 -2.59768 7.34943 0
M  V30 40242 N 3909.57 -1.55529 0.254676 0
M  V30 40243 C 3910.52 -2.23106 -0.657748 0
M  V30 40244 C 3911.52 -1.22121 -1.174 0
M  V30 40245 O 3912.72 -1.40111 -1.13 0
M  V30 40246 H 3909.1 -0.715766 -0.230615 0
M  V30 40247 H 3911.07 -2.9833 -0.0647235 0
M  V30 40248 C 3909.82 -2.95016 -1.84013 0
M  V30 40249 H 3909.14 -3.72499 -1.45204 0
M  V30 40250 H 3910.58 -3.45652 -2.45562 0
M  V30 40251 C 3909.04 -1.99327 -2.71607 0
M  V30 40252 O 3909.57 -1.53132 -3.71367 0
M  V30 40253 N 3907.78 -1.66262 -2.38339 0
M  V30 40254 H 3907.32 -2.04023 -1.57265 0
M  V30 40255 H 3907.28 -1.02505 -2.97221 0
M  V30 40256 N 3911.05 0.0183372 -1.57589 0
M  V30 40257 C 3911.98 1.0434 -2.04073 0
M  V30 40258 C 3913 1.31819 -0.955389 0
M  V30 40259 O 3914.19 1.29117 -1.23252 0
M  V30 40260 C 3911.29 2.38254 -2.41015 0
M  V30 40261 C 3910.46 2.29978 -3.72061 0
M  V30 40262 C 3909.52 3.46428 -3.96073 0
M  V30 40263 O 3908.54 3.25439 -4.66988 0
M  V30 40264 N 3909.75 4.68663 -3.42543 0
M  V30 40265 H 3912.51 0.647117 -2.9263 0
M  V30 40266 H 3910.07 0.206081 -1.60583 0
M  V30 40267 H 3912.06 3.14897 -2.54208 0
M  V30 40268 H 3910.63 2.69688 -1.58073 0
M  V30 40269 H 3909.85 1.38363 -3.6912 0
M  V30 40270 H 3911.14 2.21602 -4.58007 0
M  V30 40271 H 3910.54 4.88615 -2.85082 0
M  V30 40272 H 3909.1 5.42635 -3.61097 0
M  V30 40273 N 3912.53 1.54894 0.290797 0
M  V30 40274 C 3913.48 1.8655 1.35896 0
M  V30 40275 C 3914.45 0.715316 1.49908 0
M  V30 40276 O 3915.63 0.964915 1.64603 0
M  V30 40277 C 3912.77 2.12734 2.71732 0
M  V30 40278 C 3911.89 3.40326 2.66086 0
M  V30 40279 C 3911.02 3.56301 3.93983 0
M  V30 40280 C 3910.06 4.77649 3.82776 0
M  V30 40281 N 3909.2 4.90376 5.0247 0
M  V30 40282 H 3914.04 2.77663 1.082 0
M  V30 40283 H 3911.57 1.37484 0.52312 0
M  V30 40284 H 3913.53 2.25913 3.50741 0
M  V30 40285 H 3912.16 1.24876 2.97667 0
M  V30 40286 H 3911.21 3.35715 1.78885 0
M  V30 40287 H 3912.53 4.29463 2.53699 0
M  V30 40288 H 3911.68 3.692 4.81431 0
M  V30 40289 H 3910.42 2.65317 4.09216 0
M  V30 40290 H 3909.42 4.64773 2.93712 0
M  V30 40291 H 3910.65 5.70051 3.69078 0
M  V30 40292 H 3908.59 4.02317 5.18148 0
M  V30 40293 H 3908.51 5.73529 4.92545 0
M  V30 40294 H 3909.78 5.07641 5.91541 0
M  V30 40295 N 3914.01 -0.55448 1.47524 0
M  V30 40296 C 3914.94 -1.6766 1.56277 0
M  V30 40297 C 3915.95 -1.56492 0.44877 0
M  V30 40298 O 3917.14 -1.63401 0.718507 0
M  V30 40299 C 3914.24 -3.06146 1.45354 0
M  V30 40300 C 3913.42 -3.43041 2.7137 0
M  V30 40301 C 3912.47 -4.60702 2.54245 0
M  V30 40302 O 3911.5 -4.65146 3.28067 0
M  V30 40303 N 3912.7 -5.57365 1.6225 0
M  V30 40304 H 3915.47 -1.60596 2.53039 0
M  V30 40305 H 3913.03 -0.741184 1.43938 0
M  V30 40306 H 3915.02 -3.82696 1.31628 0
M  V30 40307 H 3913.59 -3.07422 0.566637 0
M  V30 40308 H 3912.81 -2.55912 2.99838 0
M  V30 40309 H 3914.1 -3.64467 3.55023 0
M  V30 40310 H 3913.5 -5.56533 1.01429 0
M  V30 40311 H 3912.05 -6.3323 1.54475 0
M  V30 40312 N 3915.49 -1.35701 -0.80143 0
M  V30 40313 C 3916.42 -1.24903 -1.92177 0
M  V30 40314 C 3917.43 -0.17116 -1.61898 0
M  V30 40315 O 3918.62 -0.424871 -1.7337 0
M  V30 40316 C 3915.72 -0.901763 -3.26682 0
M  V30 40317 C 3914.89 -2.07906 -3.8483 0
M  V30 40318 C 3913.95 -1.70676 -4.97751 0
M  V30 40319 O 3912.98 -2.42615 -5.14905 0
M  V30 40320 N 3914.18 -0.633396 -5.77034 0
M  V30 40321 H 3916.95 -2.21427 -2.01966 0
M  V30 40322 H 3914.51 -1.28938 -0.979109 0
M  V30 40323 H 3916.5 -0.63409 -3.99702 0
M  V30 40324 H 3915.07 -0.0260385 -3.12589 0
M  V30 40325 H 3914.29 -2.51023 -3.03942 0
M  V30 40326 H 3915.58 -2.86588 -4.2041 0
M  V30 40327 H 3914.97 -0.0358072 -5.65689 0
M  V30 40328 H 3913.53 -0.425517 -6.5041 0
M  V30 40329 N 3916.96 1.02419 -1.19783 0
M  V30 40330 C 3918.2 1.77445 -1.01453 0
M  V30 40331 C 3918.57 1.8674 0.446338 0
M  V30 40332 O 3919.77 2.58137 0.749594 0
M  V30 40333 C 3918.04 3.15952 -1.67061 0
M  V30 40334 S 3919.6 4.07109 -1.63732 0
M  V30 40335 H 3916.42 0.610784 -0.363955 0
M  V30 40336 H 3919.02 1.22687 -1.52211 0
M  V30 40337 H 3917.72 3.06807 -2.72576 0
M  V30 40338 H 3917.25 3.75784 -1.16403 0
M  V30 40339 H 3919.27 4.91726 -0.664818 0
M  V30 40340 N 3918.44 1.0025 1.21604 0
M  V30 40341 C 3919.39 0.553896 2.25909 0
M  V30 40342 C 3920.39 -0.400294 1.64603 0
M  V30 40343 O 3921.59 -0.27176 1.77937 0
M  V30 40344 H 3917.97 0.160762 0.734615 0
M  V30 40345 H 3919.94 1.44484 2.61088 0
M  V30 40346 C 3918.69 -0.106232 3.47538 0
M  V30 40347 H 3918.01 0.618959 3.9498 0
M  V30 40348 H 3919.45 -0.38344 4.22263 0
M  V30 40349 C 3917.91 -1.34464 3.08903 0
M  V30 40350 O 3918.44 -2.4392 3.19164 0
M  V30 40351 N 3916.64 -1.22345 2.63591 0
M  V30 40352 H 3916.19 -0.332807 2.55441 0
M  V30 40353 H 3916.15 -2.05308 2.38109 0
M  V30 40354 N 3919.92 -1.37119 0.776919 0
M  V30 40355 C 3920.87 -2.32086 0.154562 0
M  V30 40356 C 3921.86 -1.55191 -0.679128 0
M  V30 40357 O 3923.07 -1.70548 -0.575611 0
M  V30 40358 H 3919.44 -0.751353 0.0311981 0
M  V30 40359 H 3921.42 -2.82154 0.971174 0
M  V30 40360 C 3920.16 -3.40455 -0.706105 0
M  V30 40361 H 3919.49 -3.99732 -0.0739638 0
M  V30 40362 H 3920.93 -4.09255 -1.10845 0
M  V30 40363 C 3919.39 -2.8097 -1.85896 0
M  V30 40364 O 3919.92 -2.72133 -2.95477 0
M  V30 40365 N 3918.12 -2.38439 -1.66118 0
M  V30 40366 H 3917.67 -2.45827 -0.769872 0
M  V30 40367 H 3917.63 -1.98984 -2.43419 0
M  V30 40368 N 3921.4 -0.527886 -1.48496 0
M  V30 40369 C 3922.81 -0.0868869 -1.86498 0
M  V30 40370 C 3923.16 1.33514 -1.43765 0
M  V30 40371 O 3922.29 1.99956 -0.827432 0
M  V30 40372 C 3922.88 -0.150903 -3.38464 0
M  V30 40373 C 3921.44 0.23489 -3.75666 0
M  V30 40374 C 3920.59 -0.511597 -2.7254 0
M  V30 40375 H 3923.54 -0.739248 -1.40431 0
M  V30 40376 H 3923.56 0.637906 -3.75115 0
M  V30 40377 H 3923.07 -1.18598 -3.69535 0
M  V30 40378 H 3921.17 1.27219 -3.50209 0
M  V30 40379 H 3921.29 -0.103262 -4.78989 0
M  V30 40380 H 3919.65 0.0418834 -2.54666 0
M  V30 40381 H 3920.43 -1.54727 -3.06455 0
M  V30 40382 N 3922.88 1.55391 -0.26292 0
M  V30 40383 C 3924.12 2.01228 0.358672 0
M  V30 40384 C 3924.48 1.14724 1.53956 0
M  V30 40385 O 3925.68 1.50087 2.22996 0
M  V30 40386 C 3923.95 3.49594 0.742898 0
M  V30 40387 S 3925.51 4.17428 1.35275 0
M  V30 40388 H 3922.33 0.7021 0.112144 0
M  V30 40389 H 3924.93 1.91734 -0.381904 0
M  V30 40390 H 3923.64 4.10208 -0.12561 0
M  V30 40391 H 3923.17 3.63048 1.51525 0
M  V30 40392 H 3925.18 4.20042 2.64158 0
M  V30 40393 N 3924.36 -0.00997961 1.57597 0
M  V30 40394 C 3925.27 -1.02113 2.11211 0
M  V30 40395 C 3926.28 -1.38364 1.05505 0
M  V30 40396 O 3927.46 -1.47298 1.3735 0
M  V30 40397 C 3924.52 -2.29736 2.59658 0
M  V30 40398 C 3923.58 -1.9989 3.79925 0
M  V30 40399 C 3922.82 -3.21428 4.26052 0
M  V30 40400 O 3923.04 -4.32769 3.71574 0
M  V30 40401 O 3921.97 -3.06009 5.18307 0
M  V30 40402 H 3925.8 -0.595416 2.97806 0
M  V30 40403 H 3923.38 -0.228182 1.47647 0
M  V30 40404 H 3925.27 -3.0473 2.91063 0
M  V30 40405 H 3923.94 -2.71565 1.76165 0
M  V30 40406 H 3922.85 -1.22403 3.53509 0
M  V30 40407 H 3924.18 -1.62904 4.6446 0
M  V30 40408 N 3925.83 -1.55046 -0.282578 0
M  V30 40409 C 3926.77 -1.83666 -1.37112 0
M  V30 40410 C 3927.78 -0.720588 -1.45984 0
M  V30 40411 O 3928.97 -0.99832 -1.47972 0
M  V30 40412 C 3926.07 -1.97607 -2.75326 0
M  V30 40413 C 3925.24 -3.28183 -2.89163 0
M  V30 40414 C 3924.3 -3.32309 -4.07991 0
M  V30 40415 O 3923.33 -4.05741 -3.99203 0
M  V30 40416 N 3924.53 -2.59022 -5.19507 0
M  V30 40417 H 3927.29 -2.77618 -1.12909 0
M  V30 40418 H 3924.85 -1.54846 -0.472684 0
M  V30 40419 H 3926.85 -1.97749 -3.53097 0
M  V30 40420 H 3925.42 -1.10566 -2.92394 0
M  V30 40421 H 3924.64 -3.4066 -1.98354 0
M  V30 40422 H 3925.92 -4.14315 -2.95331 0
M  V30 40423 H 3925.32 -1.99028 -5.29532 0
M  V30 40424 H 3923.88 -2.64897 -5.95544 0
M  V30 40425 N 3927.31 0.546649 -1.47816 0
M  V30 40426 C 3928.56 1.30333 -1.54982 0
M  V30 40427 C 3928.89 1.93291 -0.216567 0
M  V30 40428 O 3928.14 1.78976 0.791591 0
M  V30 40429 C 3928.44 2.42627 -2.62425 0
M  V30 40430 C 3928.11 1.97432 -4.05378 0
M  V30 40431 C 3926.77 1.84823 -4.4429 0
M  V30 40432 C 3929.12 1.63071 -4.95033 0
M  V30 40433 C 3926.45 1.36164 -5.70681 0
M  V30 40434 C 3928.8 1.15879 -6.21896 0
M  V30 40435 C 3927.46 1.01874 -6.5968 0
M  V30 40436 H 3926.73 0.476923 -0.56712 0
M  V30 40437 H 3929.38 0.611875 -1.81462 0
M  V30 40438 H 3927.69 3.17374 -2.29742 0
M  V30 40439 H 3929.38 3.00792 -2.65189 0
M  V30 40440 H 3925.97 2.08192 -3.74639 0
M  V30 40441 H 3930.16 1.7168 -4.6566 0
M  V30 40442 H 3925.41 1.23994 -5.98695 0
M  V30 40443 H 3929.59 0.88357 -6.90772 0
M  V30 40444 H 3927.21 0.639481 -7.57506 0
M  V30 40445 N 3928.79 1.36124 0.794222 0
M  V30 40446 C 3929.74 1.30111 1.92805 0
M  V30 40447 C 3930.73 0.193763 1.68288 0
M  V30 40448 O 3931.94 0.360485 1.76353 0
M  V30 40449 H 3928.31 0.404937 0.633664 0
M  V30 40450 H 3930.28 2.25874 1.94996 0
M  V30 40451 C 3929.03 1.10243 3.2976 0
M  V30 40452 H 3928.36 1.94696 3.4919 0
M  V30 40453 H 3929.8 1.10081 4.09461 0
M  V30 40454 C 3928.25 -0.193163 3.36346 0
M  V30 40455 O 3928.78 -1.18468 3.83834 0
M  V30 40456 N 3926.99 -0.236192 2.89639 0
M  V30 40457 H 3926.54 0.571289 2.51185 0
M  V30 40458 H 3926.5 -1.10274 2.94426 0
M  V30 40459 N 3930.27 -1.01782 1.20325 0
M  V30 40460 C 3931.52 -1.75015 1.01066 0
M  V30 40461 C 3931.84 -1.89535 -0.458425 0
M  V30 40462 O 3931.11 -1.43696 -1.33147 0
M  V30 40463 H 3929.69 -0.648376 0.370968 0
M  V30 40464 H 3932.35 -1.22719 1.51413 0
M  V30 40465 H 3931.44 -2.75422 1.46797 0
M  V30 40466 N 3931.75 -1.00894 -1.21071 0
M  V30 40467 C 3932.99 -0.692514 -1.89865 0
M  V30 40468 C 3933.31 0.779531 -1.78741 0
M  V30 40469 O 3932.58 1.56007 -1.18485 0
M  V30 40470 H 3931.16 -0.253157 -0.702795 0
M  V30 40471 H 3933.83 -1.2789 -1.47072 0
M  V30 40472 H 3932.92 -0.96915 -2.96671 0
M  V30 40473 N 3933.22 1.36705 -0.78418 0
M  V30 40474 C 3934.46 2.01214 -0.359503 0
M  V30 40475 C 3934.83 1.60895 1.0477 0
M  V30 40476 O 3936.03 2.17956 1.57317 0
M  V30 40477 C 3934.3 3.53711 -0.512179 0
M  V30 40478 S 3935.86 4.38452 -0.174605 0
M  V30 40479 H 3932.68 0.697552 -0.13763 0
M  V30 40480 H 3935.28 1.66689 -1.02152 0
M  V30 40481 H 3933.98 3.80542 -1.53674 0
M  V30 40482 H 3933.51 3.9305 0.165958 0
M  V30 40483 H 3935.53 4.85485 1.02563 0
M  V30 40484 N 3934.7 0.535753 1.48214 0
M  V30 40485 C 3935.93 0.00592817 2.07399 0
M  V30 40486 C 3936.35 -1.26853 1.38888 0
M  V30 40487 O 3935.71 -1.75453 0.456715 0
M  V30 40488 C 3935.76 -0.195139 3.60072 0
M  V30 40489 O 3934.86 -1.26254 3.92598 0
M  V30 40490 H 3934.2 0.0417105 0.662689 0
M  V30 40491 H 3936.73 0.745315 1.90542 0
M  V30 40492 H 3936.74 -0.416014 4.05874 0
M  V30 40493 H 3935.42 0.735819 4.09339 0
M  V30 40494 H 3934 -1.02387 3.58568 0
M  V30 40495 N 3936.18 -1.5525 0.271158 0
M  V30 40496 C 3937.13 -2.19052 -0.632469 0
M  V30 40497 C 3938.11 -1.1539 -1.12133 0
M  V30 40498 O 3939.31 -1.41218 -1.06707 0
M  V30 40499 C 3936.44 -2.91211 -1.81799 0
M  V30 40500 C 3935.52 -4.02157 -1.34649 0
M  V30 40501 N 3935.91 -5.02337 -0.590865 0
M  V30 40502 C 3934.21 -4.15156 -1.62978 0
M  V30 40503 C 3934.91 -5.80685 -0.343499 0
M  V30 40504 N 3933.89 -5.35848 -0.914774 0
M  V30 40505 H 3937.69 -2.93862 -0.0472728 0
M  V30 40506 H 3935.2 -1.62229 0.0745392 0
M  V30 40507 H 3937.2 -3.35366 -2.4766 0
M  V30 40508 H 3935.86 -2.17911 -2.40718 0
M  V30 40509 H 3936.87 -5.1735 -0.238592 0
M  V30 40510 H 3933.55 -3.53043 -2.22861 0
M  V30 40511 H 3934.94 -6.71391 0.261402 0
M  V30 40512 N 3937.66 0.00162173 -1.576 0
M  V30 40513 C 3938.91 0.685993 -1.89676 0
M  V30 40514 C 3939.22 1.75027 -0.873209 0
M  V30 40515 O 3940.43 2.48915 -1.08413 0
M  V30 40516 C 3938.88 1.2713 -3.36699 0
M  V30 40517 C 3938.49 0.241932 -4.47346 0
M  V30 40518 C 3940.23 1.93396 -3.77887 0
M  V30 40519 C 3938.14 0.837138 -5.85445 0
M  V30 40520 H 3937.07 0.259982 -0.707761 0
M  V30 40521 H 3939.72 -0.0586568 -1.83406 0
M  V30 40522 H 3938.1 2.06656 -3.37801 0
M  V30 40523 H 3939.28 -0.52862 -4.57758 0
M  V30 40524 H 3937.59 -0.320191 -4.15167 0
M  V30 40525 H 3940.19 2.38829 -4.78398 0
M  V30 40526 H 3940.53 2.76384 -3.11316 0
M  V30 40527 H 3941.07 1.20605 -3.79077 0
M  V30 40528 H 3937.81 0.0460748 -6.55484 0
M  V30 40529 H 3937.33 1.57689 -5.78701 0
M  V30 40530 H 3939 1.33626 -6.33051 0
M  V30 40531 N 3939.14 1.55194 0.274352 0
M  V30 40532 C 3940.38 1.77486 1.0138 0
M  V30 40533 C 3940.74 0.563405 1.83548 0
M  V30 40534 O 3941.94 0.664563 2.60455 0
M  V30 40535 C 3940.21 3.04323 1.87409 0
M  V30 40536 S 3941.77 3.47729 2.67637 0
M  V30 40537 H 3938.59 0.623629 0.341478 0
M  V30 40538 H 3941.19 1.93421 0.284364 0
M  V30 40539 H 3939.9 3.9059 1.25967 0
M  V30 40540 H 3939.43 2.91051 2.64675 0
M  V30 40541 H 3941.44 3.06896 3.89909 0
M  V30 40542 N 3940.61 -0.538802 1.48104 0
M  V30 40543 C 3941.58 -1.62638 1.61498 0
M  V30 40544 C 3942.58 -1.5319 0.488819 0
M  V30 40545 O 3943.77 -1.57018 0.754383 0
M  V30 40546 C 3940.9 -3.02238 1.57687 0
M  V30 40547 H 3942.09 -1.52105 2.58465 0
M  V30 40548 H 3939.65 -0.760177 1.36569 0
M  V30 40549 H 3940.38 -3.18286 0.621638 0
M  V30 40550 H 3940.17 -3.10505 2.39436 0
M  V30 40551 H 3941.66 -3.81326 1.70235 0
M  V30 40552 N 3942.09 -1.36544 -0.786992 0
M  V30 40553 C 3943.5 -1.27663 -1.36232 0
M  V30 40554 C 3943.85 0.0825047 -1.96026 0
M  V30 40555 O 3942.98 0.984025 -1.92733 0
M  V30 40556 C 3943.57 -2.31171 -2.4768 0
M  V30 40557 C 3942.13 -2.25971 -3.01022 0
M  V30 40558 C 3941.28 -2.1582 -1.74118 0
M  V30 40559 H 3944.23 -1.47387 -0.588444 0
M  V30 40560 H 3944.25 -1.94955 -3.26761 0
M  V30 40561 H 3943.76 -3.30079 -2.04131 0
M  V30 40562 H 3941.87 -1.30537 -3.48985 0
M  V30 40563 H 3941.98 -3.1876 -3.57672 0
M  V30 40564 H 3940.34 -1.62114 -1.96447 0
M  V30 40565 H 3941.13 -3.16618 -1.32694 0
M  V30 40566 N 3943.57 1.01143 -1.20863 0
M  V30 40567 C 3944.82 1.74476 -1.01993 0
M  V30 40568 C 3945.14 1.89775 0.448367 0
M  V30 40569 O 3944.41 1.44401 1.32383 0
M  V30 40570 H 3942.99 0.6464 -0.374401 0
M  V30 40571 H 3945.65 1.21915 -1.52062 0
M  V30 40572 H 3944.75 2.74639 -1.48255 0
M  V30 40573 N 3945.05 1.01535 1.20534 0
M  V30 40574 C 3946.46 0.735717 1.71593 0
M  V30 40575 C 3946.81 -0.745841 1.81471 0
M  V30 40576 O 3945.94 -1.58213 1.4764 0
M  V30 40577 C 3946.53 1.32886 3.11652 0
M  V30 40578 C 3945.09 1.09812 3.60025 0
M  V30 40579 C 3944.24 1.43532 2.37263 0
M  V30 40580 H 3947.19 1.18497 1.05566 0
M  V30 40581 H 3947.21 0.718791 3.73649 0
M  V30 40582 H 3946.72 2.40715 3.0443 0
M  V30 40583 H 3944.82 0.0374417 3.72581 0
M  V30 40584 H 3944.93 1.7773 4.44915 0
M  V30 40585 H 3943.3 0.85431 2.39945 0
M  V30 40586 H 3944.08 2.52414 2.32684 0
M  V30 40587 N 3946.53 -1.36288 0.791419 0
M  V30 40588 C 3947.47 -2.31909 0.179169 0
M  V30 40589 C 3948.47 -1.55902 -0.66263 0
M  V30 40590 O 3949.67 -1.71149 -0.557489 0
M  V30 40591 H 3946.05 -0.750979 0.0391654 0
M  V30 40592 H 3948.02 -2.81108 1.00105 0
M  V30 40593 C 3946.77 -3.41185 -0.669956 0
M  V30 40594 H 3946.09 -3.99788 -0.0315628 0
M  V30 40595 H 3947.53 -4.10407 -1.06499 0
M  V30 40596 C 3945.99 -2.82926 -1.82905 0
M  V30 40597 O 3946.52 -2.75252 -2.92574 0
M  V30 40598 N 3944.73 -2.40187 -1.6358 0
M  V30 40599 H 3944.27 -2.46629 -0.743755 0
M  V30 40600 H 3944.23 -2.01555 -2.41294 0
M  V30 40601 N 3948.01 -0.543606 -1.47928 0
M  V30 40602 C 3949.25 -0.0144735 -2.02095 0
M  V30 40603 C 3949.57 1.33466 -1.42168 0
M  V30 40604 O 3948.84 1.86743 -0.591932 0
M  V30 40605 H 3947.42 -0.00236171 -0.746996 0
M  V30 40606 H 3950.09 -0.71053 -1.81487 0
M  V30 40607 H 3949.18 0.0837526 -3.11988 0
M  V30 40608 N 3949.48 1.55104 -0.279387 0
M  V30 40609 C 3950.45 2.21391 0.593175 0
M  V30 40610 C 3951.45 1.1931 1.07804 0
M  V30 40611 O 3952.64 1.44187 0.977534 0
M  V30 40612 C 3949.77 2.88324 1.81884 0
M  V30 40613 H 3950.96 2.99897 0.0143414 0
M  V30 40614 H 3948.51 1.56271 -0.0300358 0
M  V30 40615 H 3949.25 2.13842 2.43808 0
M  V30 40616 H 3949.03 3.63135 1.47904 0
M  V30 40617 H 3950.52 3.38956 2.43924 0
M  V30 40618 N 3950.96 0.0067362 1.57599 0
M  V30 40619 C 3951.87 -0.998672 2.12282 0
M  V30 40620 C 3952.89 -1.37237 1.06967 0
M  V30 40621 O 3954.06 -1.45833 1.38905 0
M  V30 40622 C 3951.13 -2.26969 2.6208 0
M  V30 40623 C 3950.19 -1.95849 3.82023 0
M  V30 40624 C 3949.42 -3.16891 4.29437 0
M  V30 40625 O 3949.65 -4.28803 3.76143 0
M  V30 40626 O 3948.58 -3.00495 5.21523 0
M  V30 40627 H 3952.41 -0.563796 2.98421 0
M  V30 40628 H 3949.99 -0.212509 1.47881 0
M  V30 40629 H 3951.87 -3.01625 2.94279 0
M  V30 40630 H 3950.55 -2.69681 1.79036 0
M  V30 40631 H 3949.45 -1.18647 3.54787 0
M  V30 40632 H 3950.79 -1.57968 4.66162 0
M  V30 40633 N 3952.44 -1.55337 -0.266118 0
M  V30 40634 C 3953.68 -1.78022 -1.00437 0
M  V30 40635 C 3954.04 -0.573132 -1.83246 0
M  V30 40636 O 3955.24 -0.678366 -2.60099 0
M  V30 40637 C 3953.52 -3.05313 -1.85793 0
M  V30 40638 S 3955.07 -3.49144 -2.6579 0
M  V30 40639 H 3951.89 -0.625432 -0.338166 0
M  V30 40640 H 3954.49 -1.93569 -0.274103 0
M  V30 40641 H 3953.2 -3.91253 -1.23894 0
M  V30 40642 H 3952.73 -2.9245 -2.63128 0
M  V30 40643 H 3954.74 -3.0896 -3.88276 0
M  V30 40644 N 3953.92 0.53094 -1.48387 0
M  V30 40645 C 3954.85 1.65153 -1.58925 0
M  V30 40646 C 3955.86 1.55759 -0.47361 0
M  V30 40647 O 3957.05 1.62237 -0.744412 0
M  V30 40648 C 3954.15 3.03795 -1.50206 0
M  V30 40649 C 3953.32 3.3868 -2.76793 0
M  V30 40650 C 3952.38 4.56599 -2.61542 0
M  V30 40651 O 3951.41 4.59868 -3.35425 0
M  V30 40652 N 3952.61 5.54713 -1.71096 0
M  V30 40653 H 3955.38 1.5655 -2.55562 0
M  V30 40654 H 3952.94 0.718191 -1.45099 0
M  V30 40655 H 3954.93 3.80554 -1.37699 0
M  V30 40656 H 3953.5 3.06481 -0.615473 0
M  V30 40657 H 3952.72 2.51109 -3.03871 0
M  V30 40658 H 3954.01 3.58773 -3.60777 0
M  V30 40659 H 3953.41 5.54849 -1.1027 0
M  V30 40660 H 3951.96 6.30693 -1.64529 0
M  V30 40661 N 3955.4 1.36959 0.779739 0
M  V30 40662 C 3956.64 1.33117 1.5511 0
M  V30 40663 C 3957 -0.0859113 1.91808 0
M  V30 40664 O 3958.2 -0.248983 2.67644 0
M  V30 40665 C 3956.47 2.23684 2.78748 0
M  V30 40666 S 3958.03 2.37617 3.68895 0
M  V30 40667 H 3954.85 0.47268 0.531126 0
M  V30 40668 H 3957.45 1.72629 0.917583 0
M  V30 40669 H 3956.15 3.25578 2.49855 0
M  V30 40670 H 3955.69 1.85227 3.47065 0
M  V30 40671 H 3957.7 1.58083 4.70345 0
M  V30 40672 N 3956.87 -1.00501 1.21398 0
M  V30 40673 C 3958.28 -1.55727 1.02986 0
M  V30 40674 C 3958.64 -1.91861 -0.410349 0
M  V30 40675 O 3957.76 -1.73482 -1.29355 0
M  V30 40676 C 3958.36 -2.82967 1.86321 0
M  V30 40677 C 3956.91 -3.34679 1.72241 0
M  V30 40678 C 3956.06 -2.07872 1.83533 0
M  V30 40679 H 3959.01 -0.827475 1.3542 0
M  V30 40680 H 3959.03 -3.54847 1.37345 0
M  V30 40681 H 3958.55 -2.56636 2.91135 0
M  V30 40682 H 3956.65 -3.65944 0.701112 0
M  V30 40683 H 3956.76 -4.06099 2.54205 0
M  V30 40684 H 3955.12 -2.20869 1.26842 0
M  V30 40685 H 3955.91 -1.83953 2.89855 0
M  V30 40686 N 3958.35 -1.02172 -1.19994 0
M  V30 40687 C 3959.3 -0.567068 -2.20836 0
M  V30 40688 C 3960.29 0.38035 -1.5634 0
M  V30 40689 O 3961.48 0.202482 -1.75838 0
M  V30 40690 C 3958.61 0.0880392 -3.43187 0
M  V30 40691 C 3957.69 -0.881391 -4.1484 0
M  V30 40692 N 3958.08 -2.04096 -4.62794 0
M  V30 40693 C 3956.38 -0.703303 -4.4042 0
M  V30 40694 C 3957.08 -2.65181 -5.17739 0
M  V30 40695 N 3956.06 -1.93201 -5.08109 0
M  V30 40696 H 3959.86 -1.45102 -2.55583 0
M  V30 40697 H 3957.37 -0.887751 -1.35988 0
M  V30 40698 H 3959.37 0.431334 -4.14663 0
M  V30 40699 H 3958.03 0.967764 -3.09943 0
M  V30 40700 H 3959.04 -2.42069 -4.57846 0
M  V30 40701 H 3955.72 0.127934 -4.17304 0
M  V30 40702 H 3957.11 -3.63343 -5.65182 0
M  V30 40703 N 3959.83 1.35866 -0.798635 0
M  V30 40704 C 3960.74 2.33704 -0.204799 0
M  V30 40705 C 3961.76 1.61485 0.647972 0
M  V30 40706 O 3962.93 1.93412 0.561594 0
M  V30 40707 C 3960 3.40682 0.643165 0
M  V30 40708 C 3959.06 4.28688 -0.229174 0
M  V30 40709 C 3958.29 5.30556 0.578414 0
M  V30 40710 O 3958.51 5.40796 1.81372 0
M  V30 40711 O 3957.45 6.01894 -0.0265349 0
M  V30 40712 H 3961.27 2.86273 -1.01397 0
M  V30 40713 H 3958.86 1.38497 -0.560266 0
M  V30 40714 H 3960.74 4.06067 1.12641 0
M  V30 40715 H 3959.42 2.90397 1.43007 0
M  V30 40716 H 3958.32 3.66312 -0.759378 0
M  V30 40717 H 3959.66 4.82349 -0.979821 0
M  V30 40718 N 3961.31 0.551443 1.47638 0
M  V30 40719 C 3962.56 0.0251908 2.02084 0
M  V30 40720 C 3962.88 -1.3271 1.42874 0
M  V30 40721 O 3962.15 -1.86427 0.601827 0
M  V30 40722 H 3960.73 0.00632318 0.746973 0
M  V30 40723 H 3963.39 0.720145 1.81108 0
M  V30 40724 H 3962.48 -0.067206 3.12028 0
M  V30 40725 N 3962.79 -1.54953 0.287609 0
M  V30 40726 C 3963.73 -2.24451 -0.610276 0
M  V30 40727 C 3964.73 -1.24584 -1.14784 0
M  V30 40728 O 3965.93 -1.42476 -1.10002 0
M  V30 40729 H 3962.31 -0.720496 -0.215381 0
M  V30 40730 H 3964.28 -2.984 -0.00142875 0
M  V30 40731 C 3963.03 -2.98853 -1.77714 0
M  V30 40732 H 3962.35 -3.75496 -1.3727 0
M  V30 40733 H 3963.79 -3.50783 -2.38175 0
M  V30 40734 C 3962.25 -2.05043 -2.67318 0
M  V30 40735 O 3962.78 -1.60975 -3.68035 0
M  V30 40736 N 3960.99 -1.7128 -2.34758 0
M  V30 40737 H 3960.53 -2.07313 -1.52902 0
M  V30 40738 H 3960.49 -1.08786 -2.9498 0
M  V30 40739 N 3964.26 -0.0150939 -1.57593 0
M  V30 40740 C 3965.51 0.66184 -1.92331 0
M  V30 40741 C 3965.87 1.70536 -0.890807 0
M  V30 40742 O 3965.16 1.91364 0.0950447 0
M  V30 40743 C 3965.35 1.33371 -3.31583 0
M  V30 40744 C 3965.18 0.356788 -4.48282 0
M  V30 40745 C 3963.95 -0.0382889 -5.05285 0
M  V30 40746 C 3966.15 -0.383197 -5.1287 0
M  V30 40747 N 3964.13 -1.01184 -6.05504 0
M  V30 40748 C 3965.5 -1.21095 -6.08059 0
M  V30 40749 C 3967.56 -0.44541 -4.95904 0
M  V30 40750 C 3966.26 -2.09527 -6.88107 0
M  V30 40751 C 3968.29 -1.31702 -5.76549 0
M  V30 40752 C 3967.65 -2.13258 -6.71342 0
M  V30 40753 H 3963.75 0.214924 -0.751885 0
M  V30 40754 H 3966.33 -0.0789828 -1.9454 0
M  V30 40755 H 3964.5 2.04474 -3.30219 0
M  V30 40756 H 3966.23 1.96654 -3.53708 0
M  V30 40757 H 3962.99 0.333245 -4.72426 0
M  V30 40758 H 3963.41 -1.49444 -6.603 0
M  V30 40759 H 3968.06 0.17086 -4.22455 0
M  V30 40760 H 3965.77 -2.72215 -7.60871 0
M  V30 40761 H 3969.36 -1.36926 -5.65458 0
M  V30 40762 H 3968.24 -2.7961 -7.32658 0
M  V30 40763 N 3965.74 1.55476 0.257876 0
M  V30 40764 C 3966.97 1.80574 1.00382 0
M  V30 40765 C 3967.38 0.586947 1.79865 0
M  V30 40766 O 3966.72 -0.453715 1.78009 0
M  V30 40767 C 3966.79 2.9885 1.99822 0
M  V30 40768 C 3966.45 4.35305 1.39136 0
M  V30 40769 C 3967.45 5.13718 0.799366 0
M  V30 40770 C 3965.13 4.81986 1.41402 0
M  V30 40771 C 3967.13 6.36955 0.238116 0
M  V30 40772 C 3964.81 6.05175 0.848912 0
M  V30 40773 C 3965.81 6.82497 0.261977 0
M  V30 40774 O 3965.5 8.03361 -0.294434 0
M  V30 40775 H 3965.23 0.60502 0.301541 0
M  V30 40776 H 3967.78 2.03351 0.2894 0
M  V30 40777 H 3966.01 2.71801 2.75065 0
M  V30 40778 H 3967.7 3.11137 2.60669 0
M  V30 40779 H 3968.47 4.78777 0.774446 0
M  V30 40780 H 3964.35 4.21801 1.86025 0
M  V30 40781 H 3967.89 6.97251 -0.220641 0
M  V30 40782 H 3963.79 6.39595 0.871122 0
M  V30 40783 H 3964.56 8.1829 -0.185242 0
M  V30 40784 N 3967.22 -0.523064 1.48667 0
M  V30 40785 C 3968.15 -1.63602 1.66603 0
M  V30 40786 C 3969.13 -1.62122 0.514831 0
M  V30 40787 O 3970.32 -1.7921 0.748169 0
M  V30 40788 C 3967.45 -3.02169 1.71204 0
M  V30 40789 C 3966.4 -3.1851 2.85894 0
M  V30 40790 C 3965.73 -4.58208 2.7559 0
M  V30 40791 C 3967.03 -3.00624 4.27109 0
M  V30 40792 H 3968.72 -1.48846 2.59779 0
M  V30 40793 H 3966.27 -0.714645 1.25015 0
M  V30 40794 H 3968.22 -3.79908 1.8234 0
M  V30 40795 H 3966.94 -3.17963 0.746122 0
M  V30 40796 H 3965.6 -2.4319 2.74325 0
M  V30 40797 H 3965.25 -4.70847 1.76952 0
M  V30 40798 H 3964.95 -4.70085 3.52553 0
M  V30 40799 H 3966.47 -5.38036 2.88703 0
M  V30 40800 H 3967.89 -3.68149 4.39476 0
M  V30 40801 H 3966.29 -3.2399 5.05124 0
M  V30 40802 H 3967.36 -1.96974 4.4309 0
M  V30 40803 N 3968.7 -1.37371 -0.772465 0
M  V30 40804 C 3969.66 -1.32901 -1.86735 0
M  V30 40805 C 3970.66 -0.233208 -1.591 0
M  V30 40806 O 3971.85 -0.489012 -1.67195 0
M  V30 40807 C 3968.98 -1.0644 -3.23857 0
M  V30 40808 H 3970.18 -2.30291 -1.9211 0
M  V30 40809 H 3967.73 -1.2239 -0.972136 0
M  V30 40810 H 3968.46 -0.0957935 -3.24158 0
M  V30 40811 H 3968.25 -1.85757 -3.45307 0
M  V30 40812 H 3969.74 -1.05961 -4.03933 0
M  V30 40813 N 3970.18 0.998553 -1.21929 0
M  V30 40814 C 3971.12 2.10879 -0.981464 0
M  V30 40815 C 3972.12 1.6924 0.073498 0
M  V30 40816 O 3973.32 1.79829 -0.0784536 0
M  V30 40817 H 3969.7 0.689495 -0.300167 0
M  V30 40818 H 3971.67 2.28114 -1.92371 0
M  V30 40819 C 3970.42 3.43001 -0.569731 0
M  V30 40820 H 3969.74 3.75479 -1.37316 0
M  V30 40821 H 3971.18 4.21683 -0.442692 0
M  V30 40822 C 3969.64 3.29115 0.720087 0
M  V30 40823 O 3970.17 3.60407 1.77398 0
M  V30 40824 N 3968.38 2.82312 0.689072 0
M  V30 40825 H 3967.92 2.57046 -0.168862 0
M  V30 40826 H 3967.88 2.73403 1.55236 0
M  V30 40827 N 3971.65 1.02807 1.1945 0
M  V30 40828 C 3972.6 0.60169 2.24683 0
M  V30 40829 C 3973.6 -0.36529 1.65415 0
M  V30 40830 O 3974.8 -0.233956 1.78473 0
M  V30 40831 H 3971.18 0.176308 0.73104 0
M  V30 40832 H 3973.15 1.49989 2.57965 0
M  V30 40833 C 3971.9 -0.0324904 3.47685 0
M  V30 40834 H 3971.22 0.702601 3.93578 0
M  V30 40835 H 3972.66 -0.293785 4.22981 0
M  V30 40836 C 3971.12 -1.27881 3.11686 0
M  V30 40837 O 3971.65 -2.37096 3.24266 0
M  V30 40838 N 3969.86 -1.16727 2.66126 0
M  V30 40839 H 3969.4 -0.27855 2.5609 0
M  V30 40840 H 3969.36 -2.00211 2.42411 0
M  V30 40841 N 3973.13 -1.35441 0.805829 0
M  V30 40842 C 3974.55 -1.51909 0.489475 0
M  V30 40843 C 3974.75 -1.75534 -0.989454 0
M  V30 40844 O 3973.8 -1.79632 -1.7745 0
M  V30 40845 C 3975.12 -2.69481 1.33418 0
M  V30 40846 C 3976.67 -2.83359 1.32954 0
M  V30 40847 C 3977.14 -4.03955 2.15834 0
M  V30 40848 N 3978.63 -4.11131 2.13367 0
M  V30 40849 C 3979.37 -5.0356 2.74254 0
M  V30 40850 N 3978.86 -6.01324 3.44065 0
M  V30 40851 N 3980.66 -4.963 2.639 0
M  V30 40852 H 3972.81 -1.18362 1.76364 0
M  V30 40853 H 3975.07 -0.579049 0.750604 0
M  V30 40854 H 3974.78 -2.58599 2.38368 0
M  V30 40855 H 3974.65 -3.64061 0.986873 0
M  V30 40856 H 3977.04 -2.93692 0.287889 0
M  V30 40857 H 3977.12 -1.89638 1.71671 0
M  V30 40858 H 3976.76 -3.94382 3.2004 0
M  V30 40859 H 3976.69 -4.96855 1.74478 0
M  V30 40860 H 3979.18 -3.41143 1.62572 0
M  V30 40861 H 3979.5 -6.68446 3.87813 0
M  V30 40862 H 3977.84 -6.01501 3.4817 0
M  V30 40863 H 3981.03 -4.18877 2.08949 0
M  V30 40864 H 3981.2 -5.68141 3.11641 0
M  V30 40865 N 3974.61 -0.559265 -1.47343 0
M  V30 40866 C 3975.56 0.187277 -2.30039 0
M  V30 40867 C 3976.53 0.906418 -1.39188 0
M  V30 40868 O 3977.71 0.901709 -1.68148 0
M  V30 40869 C 3974.85 1.20999 -3.23192 0
M  V30 40870 C 3973.97 0.496701 -4.29135 0
M  V30 40871 C 3973.1 1.50488 -5.09438 0
M  V30 40872 C 3972.14 0.776687 -6.07152 0
M  V30 40873 N 3971.28 1.7318 -6.80407 0
M  V30 40874 H 3976.12 -0.52403 -2.93356 0
M  V30 40875 H 3973.65 -0.27025 -1.44596 0
M  V30 40876 H 3975.61 1.81555 -3.75624 0
M  V30 40877 H 3974.24 1.8893 -2.61735 0
M  V30 40878 H 3973.29 -0.223425 -3.79743 0
M  V30 40879 H 3974.61 -0.0736608 -4.98746 0
M  V30 40880 H 3973.76 2.18392 -5.6603 0
M  V30 40881 H 3972.5 2.10916 -4.39734 0
M  V30 40882 H 3971.5 0.0837415 -5.49736 0
M  V30 40883 H 3972.73 0.17812 -6.78866 0
M  V30 40884 H 3970.67 2.32462 -6.13431 0
M  V30 40885 H 3970.59 1.21364 -7.46195 0
M  V30 40886 H 3971.86 2.40191 -7.41572 0
M  V30 40887 N 3976.09 1.54799 -0.295822 0
M  V30 40888 C 3977.04 2.20031 0.597539 0
M  V30 40889 C 3978.02 1.1716 1.10284 0
M  V30 40890 O 3979.21 1.42898 1.04447 0
M  V30 40891 C 3976.34 2.94067 1.77143 0
M  V30 40892 C 3975.43 4.04248 1.28234 0
M  V30 40893 N 3975.82 5.03213 0.510873 0
M  V30 40894 C 3974.12 4.17696 1.56352 0
M  V30 40895 C 3974.82 5.81158 0.251074 0
M  V30 40896 N 3973.8 5.37235 0.82941 0
M  V30 40897 H 3977.6 2.939 0.000515903 0
M  V30 40898 H 3975.11 1.6209 -0.100339 0
M  V30 40899 H 3977.11 3.39263 2.42293 0
M  V30 40900 H 3975.77 2.21713 2.3722 0
M  V30 40901 H 3976.78 5.17664 0.156255 0
M  V30 40902 H 3973.46 3.56544 2.17216 0
M  V30 40903 H 3974.85 6.7089 -0.368181 0
M  V30 40904 N 3977.57 0.0234513 1.57583 0
M  V30 40905 C 3978.81 -0.660641 1.93429 0
M  V30 40906 C 3979.17 -1.69617 0.899664 0
M  V30 40907 O 3980.37 -2.43234 1.14414 0
M  V30 40908 C 3978.64 -1.26611 3.34222 0
M  V30 40909 S 3980.2 -1.97207 3.91988 0
M  V30 40910 H 3977.02 -0.217654 0.676866 0
M  V30 40911 H 3979.62 0.0857594 1.95312 0
M  V30 40912 H 3978.33 -0.499932 4.07344 0
M  V30 40913 H 3977.86 -2.04994 3.35769 0
M  V30 40914 H 3979.87 -3.24987 3.74964 0
M  V30 40915 N 3979.05 -1.5561 -0.249627 0
M  V30 40916 C 3980.29 -1.76517 -0.975951 0
M  V30 40917 C 3980.61 -0.586876 -1.86588 0
M  V30 40918 O 3981.81 -0.67889 -2.62875 0
M  V30 40919 C 3980.27 -3.12496 -1.78534 0
M  V30 40920 C 3979.88 -4.37964 -0.942937 0
M  V30 40921 C 3981.62 -3.42742 -2.50456 0
M  V30 40922 C 3979.53 -5.64975 -1.74806 0
M  V30 40923 H 3978.46 -0.658026 -0.368127 0
M  V30 40924 H 3981.11 -1.82044 -0.230713 0
M  V30 40925 H 3979.49 -3.01068 -2.57243 0
M  V30 40926 H 3980.67 -4.60373 -0.198372 0
M  V30 40927 H 3978.98 -4.15033 -0.337176 0
M  V30 40928 H 3981.58 -4.3485 -3.11142 0
M  V30 40929 H 3981.92 -2.6394 -3.21934 0
M  V30 40930 H 3982.45 -3.55372 -1.7876 0
M  V30 40931 H 3979.19 -6.4659 -1.07708 0
M  V30 40932 H 3978.71 -5.46673 -2.46798 0
M  V30 40933 H 3980.39 -6.04132 -2.31588 0
M  V30 40934 N 3980.52 0.515172 -1.48942 0
M  V30 40935 C 3981.77 1.27205 -1.57946 0
M  V30 40936 C 3982.1 1.92465 -0.259045 0
M  V30 40937 O 3981.38 1.80027 0.736246 0
M  V30 40938 C 3981.66 2.35 -2.7285 0
M  V30 40939 C 3981.51 1.74334 -4.14642 0
M  V30 40940 C 3982.83 3.36667 -2.83449 0
M  V30 40941 H 3979.95 0.461128 -0.574917 0
M  V30 40942 H 3982.59 0.572381 -1.81173 0
M  V30 40943 H 3980.74 2.94677 -2.53175 0
M  V30 40944 H 3982.42 1.18594 -4.45795 0
M  V30 40945 H 3980.66 1.04803 -4.2095 0
M  V30 40946 H 3981.33 2.52454 -4.90888 0
M  V30 40947 H 3983.81 2.86964 -3.01316 0
M  V30 40948 H 3982.68 4.09469 -3.65549 0
M  V30 40949 H 3982.94 3.98128 -1.92215 0
M  V30 40950 N 3982 1.37779 0.765169 0
M  V30 40951 C 3983.28 1.23879 1.51372 0
M  V30 40952 C 3983.66 -0.164815 2.10456 0
M  V30 40953 O 3983.01 -1.17314 1.96086 0
M  V30 40954 C 3983.22 2.33995 2.58935 0
M  V30 40955 C 3984.56 2.71857 3.26157 0
M  V30 40956 O 3985.59 2.3322 2.69234 0
M  V30 40957 O 3984.45 3.38445 4.29089 0
M  V30 40958 H 3981.54 0.483772 0.670741 0
M  V30 40959 H 3984.09 1.49576 0.801571 0
M  V30 40960 H 3982.86 3.2796 2.13443 0
M  V30 40961 H 3982.48 2.09798 3.37743 0
M  V30 40962 N 3983.48 -0.992073 1.22457 0
M  V30 40963 C 3984.43 -2.10356 0.992634 0
M  V30 40964 C 3985.42 -1.69277 -0.0645217 0
M  V30 40965 O 3986.63 -1.79785 0.0879893 0
M  V30 40966 H 3983 -0.687894 0.30382 0
M  V30 40967 H 3984.97 -2.2709 1.93578 0
M  V30 40968 C 3983.72 -3.42694 0.587913 0
M  V30 40969 H 3983.05 -3.74746 1.39305 0
M  V30 40970 H 3984.49 -4.21442 0.465049 0
M  V30 40971 C 3982.94 -3.29492 -0.702623 0
M  V30 40972 O 3983.47 -3.61342 -1.75484 0
M  V30 40973 N 3981.68 -2.82674 -0.674091 0
M  V30 40974 H 3981.23 -2.56953 0.182492 0
M  V30 40975 H 3981.19 -2.74222 -1.53784 0
M  V30 40976 N 3984.96 -1.03439 -1.18904 0
M  V30 40977 C 3986.21 -0.732631 -1.88353 0
M  V30 40978 C 3986.53 0.741442 -1.80354 0
M  V30 40979 O 3985.8 1.53459 -1.21767 0
M  V30 40980 H 3984.38 -0.268007 -0.697267 0
M  V30 40981 H 3987.04 -1.3098 -1.44327 0
M  V30 40982 H 3986.13 -1.03186 -2.94549 0
M  V30 40983 N 3986.44 1.35011 -0.813001 0
M  V30 40984 C 3987.35 2.33474 -0.229575 0
M  V30 40985 C 3988.36 1.62163 0.630808 0
M  V30 40986 O 3989.54 1.93996 0.541049 0
M  V30 40987 C 3986.6 3.41345 0.606995 0
M  V30 40988 C 3985.66 4.28421 -0.274629 0
M  V30 40989 C 3984.9 5.3114 0.522109 0
M  V30 40990 O 3985.12 5.42689 1.75626 0
M  V30 40991 O 3984.05 6.01832 -0.0903724 0
M  V30 40992 H 3987.88 2.85182 -1.04428 0
M  V30 40993 H 3985.46 1.37895 -0.574924 0
M  V30 40994 H 3987.35 4.07238 1.08328 0
M  V30 40995 H 3986.02 2.91898 1.39919 0
M  V30 40996 H 3984.93 3.65486 -0.798188 0
M  V30 40997 H 3986.26 4.81282 -1.03093 0
M  V30 40998 N 3987.91 0.567071 1.47044 0
M  V30 40999 C 3989.33 0.227564 1.57969 0
M  V30 41000 C 3989.53 -1.27004 1.56436 0
M  V30 41001 O 3988.59 -2.05083 1.473 0
M  V30 41002 C 3989.9 0.862945 2.88052 0
M  V30 41003 C 3991.45 0.835085 3.01654 0
M  V30 41004 C 3991.92 1.44972 4.3445 0
M  V30 41005 N 3993.41 1.41335 4.41111 0
M  V30 41006 C 3994.15 1.85845 5.42447 0
M  V30 41007 N 3993.64 2.38257 6.50543 0
M  V30 41008 N 3995.44 1.76856 5.33553 0
M  V30 41009 H 3987.59 1.53995 1.46285 0
M  V30 41010 H 3989.85 0.642767 0.696817 0
M  V30 41011 H 3989.56 1.91583 2.94939 0
M  V30 41012 H 3989.43 0.361824 3.75461 0
M  V30 41013 H 3991.82 -0.209135 2.94358 0
M  V30 41014 H 3991.9 1.37407 2.15762 0
M  V30 41015 H 3991.54 2.49306 4.42503 0
M  V30 41016 H 3991.47 0.886094 5.19091 0
M  V30 41017 H 3993.96 1.03007 3.6359 0
M  V30 41018 H 3994.28 2.70118 7.24055 0
M  V30 41019 H 3992.62 2.42273 6.51405 0
M  V30 41020 H 3995.81 1.35679 4.48005 0
M  V30 41021 H 3995.99 2.11862 6.12388 0
M  V30 41022 N 3989.39 -1.5464 0.304027 0
M  V30 41023 C 3990.63 -2.02109 -0.305193 0
M  V30 41024 C 3991 -1.18766 -1.5086 0
M  V30 41025 O 3992.2 -1.55947 -2.18938 0
M  V30 41026 C 3990.47 -3.51441 -0.649949 0
M  V30 41027 S 3992.03 -4.20868 -1.2416 0
M  V30 41028 H 3988.84 -0.704827 -0.0934897 0
M  V30 41029 H 3991.45 -1.90654 0.432604 0
M  V30 41030 H 3990.15 -4.0973 0.234325 0
M  V30 41031 H 3989.68 -3.66938 -1.41846 0
M  V30 41032 H 3991.7 -4.26898 -2.52929 0
M  V30 41033 N 3990.87 -0.0318079 -1.57568 0
M  V30 41034 C 3992.12 0.644971 -1.91532 0
M  V30 41035 C 3992.44 1.72513 -0.909072 0
M  V30 41036 O 3991.71 1.95839 0.0490083 0
M  V30 41037 H 3990.29 0.241223 -0.70698 0
M  V30 41038 H 3992.95 -0.080245 -1.94735 0
M  V30 41039 H 3992.05 1.09599 -2.92223 0
M  V30 41040 N 3992.35 1.55741 0.241371 0
M  V30 41041 C 3993.31 1.89971 1.28233 0
M  V30 41042 C 3994.31 0.776606 1.40803 0
M  V30 41043 O 3995.5 1.04455 1.39409 0
M  V30 41044 C 3992.63 2.13303 2.65922 0
M  V30 41045 H 3993.83 2.83055 0.990961 0
M  V30 41046 H 3991.38 1.48718 0.480913 0
M  V30 41047 H 3992.11 1.22706 3.00189 0
M  V30 41048 H 3991.9 2.95103 2.58179 0
M  V30 41049 H 3993.39 2.4095 3.41076 0
M  V30 41050 N 3993.83 -0.507266 1.49213 0
M  V30 41051 C 3995.05 -1.29069 1.62345 0
M  V30 41052 C 3995.48 -1.85813 0.29242 0
M  V30 41053 O 3994.83 -1.6555 -0.739116 0
M  V30 41054 C 3994.88 -2.40125 2.69021 0
M  V30 41055 O 3993.99 -3.43802 2.27759 0
M  V30 41056 H 3993.33 -0.38131 0.543598 0
M  V30 41057 H 3995.86 -0.607963 1.95359 0
M  V30 41058 H 3995.87 -2.8598 2.90997 0
M  V30 41059 H 3994.54 -1.98189 3.65642 0
M  V30 41060 H 3993.12 -3.03908 2.16089 0
M  V30 41061 N 3995.3 -1.38182 -0.757851 0
M  V30 41062 C 3996.53 -1.37557 -1.55218 0
M  V30 41063 C 3996.95 0.0335753 -1.8807 0
M  V30 41064 O 3996.31 1.01448 -1.5026 0
M  V30 41065 C 3996.36 -2.23404 -2.8306 0
M  V30 41066 O 3995.46 -1.64821 -3.78031 0
M  V30 41067 H 3994.81 -0.469402 -0.469636 0
M  V30 41068 H 3997.34 -1.81889 -0.936891 0
M  V30 41069 H 3997.35 -2.37112 -3.32027 0
M  V30 41070 H 3996.02 -3.25824 -2.58479 0
M  V30 41071 H 3994.6 -1.60231 -3.3672 0
M  V30 41072 N 3996.78 0.985565 -1.22981 0
M  V30 41073 C 3998.03 1.72614 -1.0588 0
M  V30 41074 C 3998.36 1.90235 0.405063 0
M  V30 41075 O 3997.61 1.44809 1.31639 0
M  V30 41076 C 3997.91 3.13097 -1.72351 0
M  V30 41077 C 3997.58 3.1537 -3.22262 0
M  V30 41078 C 3996.24 3.15698 -3.63164 0
M  V30 41079 C 3998.59 3.11087 -4.1818 0
M  V30 41080 C 3995.92 3.09452 -4.98454 0
M  V30 41081 C 3998.27 3.06384 -5.53455 0
M  V30 41082 C 3996.94 3.0503 -5.93728 0
M  V30 41083 H 3996.21 0.631641 -0.387441 0
M  V30 41084 H 3998.85 1.15373 -1.52844 0
M  V30 41085 H 3997.16 3.73693 -1.17732 0
M  V30 41086 H 3998.85 3.69157 -1.56602 0
M  V30 41087 H 3995.44 3.15869 -2.89697 0
M  V30 41088 H 3999.63 3.09978 -3.87592 0
M  V30 41089 H 3994.88 3.06754 -5.28878 0
M  V30 41090 H 3999.06 3.02026 -6.27498 0
M  V30 41091 H 3996.69 2.99946 -6.98525 0
M  V30 41092 N 3998.26 1.04068 1.18353 0
M  V30 41093 C 3999.49 0.764094 1.92274 0
M  V30 41094 C 3999.9 -0.678747 1.76177 0
M  V30 41095 O 3999.26 -1.46267 1.09143 0
M  V30 41096 C 3999.31 1.12089 3.43684 0
M  V30 41097 O 3999.03 2.50708 3.59273 0
M  V30 41098 C 4000.53 0.868802 4.34703 0
M  V30 41099 H 3997.75 0.27866 0.610401 0
M  V30 41100 H 4000.3 1.38835 1.5015 0
M  V30 41101 H 3998.45 0.541595 3.83595 0
M  V30 41102 H 3998.87 2.64365 4.53002 0
M  V30 41103 H 4000.34 1.1683 5.39495 0
M  V30 41104 H 4000.82 -0.196424 4.38761 0
M  V30 41105 H 4001.42 1.43139 4.00489 0
M  V30 41106 N 3999.74 -1.34578 0.820149 0
M  V30 41107 C 4000.98 -2.0019 0.412725 0
M  V30 41108 C 4001.34 -1.63616 -1.00468 0
M  V30 41109 O 4002.54 -2.2205 -1.51483 0
M  V30 41110 C 4000.81 -3.52229 0.605779 0
M  V30 41111 S 4002.37 -4.37835 0.290792 0
M  V30 41112 H 3999.19 -0.693658 0.156076 0
M  V30 41113 H 4001.79 -1.63922 1.06536 0
M  V30 41114 H 4000.5 -3.76334 1.63709 0
M  V30 41115 H 4000.03 -3.93352 -0.0616891 0
M  V30 41116 H 4002.04 -4.88033 -0.896553 0
M  V30 41117 N 4001.22 -0.574861 -1.46742 0
M  V30 41118 C 4002.44 -0.0609143 -2.07311 0
M  V30 41119 C 4002.87 1.23126 -1.42202 0
M  V30 41120 O 4002.22 1.74181 -0.503073 0
M  V30 41121 C 4002.27 0.0996043 -3.60462 0
M  V30 41122 O 4001.38 1.15801 -3.95808 0
M  V30 41123 H 4000.72 -0.0592658 -0.66135 0
M  V30 41124 H 4003.25 -0.795571 -1.88499 0
M  V30 41125 H 4003.26 0.308257 -4.06834 0
M  V30 41126 H 4001.93 -0.844089 -4.07244 0
M  V30 41127 H 4000.51 0.928441 -3.61157 0
M  V30 41128 N 4002.69 1.54476 -0.312224 0
M  V30 41129 C 4003.64 2.25394 0.57449 0
M  V30 41130 C 4004.64 1.26394 1.12787 0
M  V30 41131 O 4005.84 1.44208 1.07722 0
M  V30 41132 H 4002.22 0.723832 0.203891 0
M  V30 41133 H 4004.19 2.98364 -0.0460443 0
M  V30 41134 C 4002.94 3.01642 1.72937 0
M  V30 41135 H 4002.26 3.77632 1.31279 0
M  V30 41136 H 4003.7 3.54528 2.32564 0
M  V30 41137 C 4002.16 2.0927 2.64022 0
M  V30 41138 O 4002.69 1.66809 3.65428 0
M  V30 41139 N 4000.9 1.74993 2.32004 0
M  V30 41140 H 4000.44 2.0972 1.49584 0
M  V30 41141 H 4000.4 1.13465 2.93211 0
M  V30 41142 N 4004.17 0.0401637 1.57549 0
M  V30 41143 C 4005.42 -0.634804 1.91871 0
M  V30 41144 C 4005.74 -1.72029 0.918208 0
M  V30 41145 O 4005.01 -1.95862 -0.0386218 0
M  V30 41146 H 4003.59 -0.237471 0.708249 0
M  V30 41147 H 4006.25 0.0905712 1.94689 0
M  V30 41148 H 4005.35 -1.08048 2.928 0
M  V30 41149 N 4005.65 -1.55866 -0.233109 0
M  V30 41150 C 4007.07 -1.48599 -0.582278 0
M  V30 41151 C 4007.27 -0.733049 -1.87693 0
M  V30 41152 O 4006.32 -0.268003 -2.51074 0
M  V30 41153 C 4007.64 -2.9309 -0.672218 0
M  V30 41154 C 4009.18 -3.03542 -0.763623 0
M  V30 41155 C 4009.66 -4.49368 -0.885008 0
M  V30 41156 N 4011.15 -4.53363 -0.949527 0
M  V30 41157 C 4011.88 -5.63461 -1.06296 0
M  V30 41158 N 4011.38 -6.83339 -1.14106 0
M  V30 41159 N 4013.17 -5.51288 -1.09719 0
M  V30 41160 H 4005.32 -2.03253 0.616604 0
M  V30 41161 H 4007.59 -0.92335 0.214778 0
M  V30 41162 H 4007.29 -3.51077 0.209291 0
M  V30 41163 H 4007.17 -3.44347 -1.53964 0
M  V30 41164 H 4009.55 -2.45627 -1.63558 0
M  V30 41165 H 4009.64 -2.55473 0.129236 0
M  V30 41166 H 4009.28 -5.07897 -0.0175548 0
M  V30 41167 H 4009.21 -4.95131 -1.79311 0
M  V30 41168 H 4011.7 -3.67028 -0.899953 0
M  V30 41169 H 4012.01 -7.62996 -1.22706 0
M  V30 41170 H 4010.36 -6.86072 -1.11039 0
M  V30 41171 H 4013.55 -4.56565 -1.03275 0
M  V30 41172 H 4013.72 -6.37126 -1.18214 0
M  V30 41173 N 4007.13 0.499346 -1.4948 0
M  V30 41174 C 4008.37 1.26352 -1.60669 0
M  V30 41175 C 4008.73 1.89833 -0.287674 0
M  V30 41176 O 4009.93 2.67392 -0.274761 0
M  V30 41177 C 4008.21 2.30079 -2.73493 0
M  V30 41178 S 4009.76 3.15813 -3.04643 0
M  V30 41179 H 4006.58 0.429381 -0.566703 0
M  V30 41180 H 4009.18 0.565403 -1.87146 0
M  V30 41181 H 4007.89 1.81976 -3.67849 0
M  V30 41182 H 4007.42 3.04558 -2.49014 0
M  V30 41183 H 4009.43 4.30761 -2.46292 0
M  V30 41184 N 4008.61 1.38582 0.750513 0
M  V30 41185 C 4009.86 1.34275 1.5051 0
M  V30 41186 C 4010.17 -0.0636514 1.95496 0
M  V30 41187 O 4011.38 -0.229273 2.7053 0
M  V30 41188 C 4009.83 2.35808 2.71887 0
M  V30 41189 C 4009.44 3.82085 2.33913 0
M  V30 41190 C 4011.18 2.40549 3.49766 0
M  V30 41191 C 4009.09 4.75296 3.5192 0
M  V30 41192 H 4008.02 0.49913 0.565142 0
M  V30 41193 H 4010.67 1.64152 0.820138 0
M  V30 41194 H 4009.05 1.98978 3.4238 0
M  V30 41195 H 4010.23 4.2787 1.71067 0
M  V30 41196 H 4008.54 3.80491 1.69161 0
M  V30 41197 H 4011.14 3.07386 4.37513 0
M  V30 41198 H 4011.48 1.42534 3.91139 0
M  V30 41199 H 4012.02 2.76194 2.86289 0
M  V30 41200 H 4008.75 5.74517 3.15611 0
M  V30 41201 H 4008.27 4.34201 4.13799 0
M  V30 41202 H 4009.95 4.93456 4.18461 0
M  V30 41203 N 4010.09 -0.979029 1.23502 0
M  V30 41204 C 4011.31 -1.76104 1.09554 0
M  V30 41205 C 4011.74 -1.84839 -0.34876 0
M  V30 41206 O 4011.09 -1.31101 -1.25228 0
M  V30 41207 C 4011.14 -3.16541 1.72725 0
M  V30 41208 O 4010.25 -4.00333 0.990333 0
M  V30 41209 H 4009.59 -0.541759 0.383918 0
M  V30 41210 H 4012.12 -1.22889 1.63583 0
M  V30 41211 H 4012.13 -3.67114 1.7802 0
M  V30 41212 H 4010.8 -3.09499 2.77818 0
M  V30 41213 H 4009.38 -3.58837 1.01442 0
M  V30 41214 N 4011.56 -1.04695 -1.178 0
M  V30 41215 C 4012.47 -0.654112 -2.25297 0
M  V30 41216 C 4013.49 0.32252 -1.70985 0
M  V30 41217 O 4014.67 0.175869 -2.00631 0
M  V30 41218 C 4011.73 -0.0296955 -3.46687 0
M  V30 41219 C 4010.79 -1.05614 -4.16106 0
M  V30 41220 C 4010.02 -0.461422 -5.31702 0
M  V30 41221 O 4010.25 0.730579 -5.65702 0
M  V30 41222 O 4009.18 -1.19323 -5.89954 0
M  V30 41223 H 4013.01 -1.54986 -2.61176 0
M  V30 41224 H 4010.59 -0.818204 -1.25003 0
M  V30 41225 H 4012.47 0.31758 -4.20202 0
M  V30 41226 H 4011.15 0.839784 -3.12617 0
M  V30 41227 H 4010.06 -1.45532 -3.44632 0
M  V30 41228 H 4011.39 -1.89659 -4.54192 0
M  V30 41229 N 4013.04 1.34141 -0.827275 0
M  V30 41230 C 4013.95 2.33217 -0.254325 0
M  V30 41231 C 4014.97 1.62823 0.613573 0
M  V30 41232 O 4016.14 1.94559 0.520443 0
M  V30 41233 C 4013.21 3.4197 0.570757 0
M  V30 41234 C 4012.27 4.28105 -0.320053 0
M  V30 41235 C 4011.5 5.31664 0.465745 0
M  V30 41236 O 4011.73 5.44521 1.6986 0
M  V30 41237 O 4010.66 6.01702 -0.1542 0
M  V30 41238 H 4014.49 2.84058 -1.07446 0
M  V30 41239 H 4012.07 1.37277 -0.589517 0
M  V30 41240 H 4013.95 4.08364 1.04002 0
M  V30 41241 H 4012.63 2.93366 1.36815 0
M  V30 41242 H 4011.53 3.64619 -0.836908 0
M  V30 41243 H 4012.87 4.80162 -1.08191 0
M  V30 41244 N 4014.52 0.582635 1.46435 0
M  V30 41245 C 4015.77 0.0766188 2.03256 0
M  V30 41246 C 4016.12 -1.26912 1.44607 0
M  V30 41247 O 4015.41 -1.81905 0.601753 0
M  V30 41248 C 4015.61 -0.0476116 3.57368 0
M  V30 41249 C 4015.44 1.28454 4.30964 0
M  V30 41250 C 4014.21 1.85866 4.69874 0
M  V30 41251 C 4016.4 2.20771 4.64505 0
M  V30 41252 N 4014.39 3.12821 5.2822 0
M  V30 41253 C 4015.76 3.32313 5.2342 0
M  V30 41254 C 4017.81 2.20452 4.46436 0
M  V30 41255 C 4016.52 4.43668 5.66172 0
M  V30 41256 C 4018.54 3.30837 4.90205 0
M  V30 41257 C 4017.9 4.411 5.49191 0
M  V30 41258 H 4014 0.070813 0.778787 0
M  V30 41259 H 4016.59 0.775517 1.78588 0
M  V30 41260 H 4014.76 -0.715678 3.81749 0
M  V30 41261 H 4016.49 -0.558006 4.00835 0
M  V30 41262 H 4013.24 1.3936 4.52632 0
M  V30 41263 H 4013.67 3.776 5.61914 0
M  V30 41264 H 4018.31 1.36476 4.00167 0
M  V30 41265 H 4016.03 5.28386 6.11419 0
M  V30 41266 H 4019.61 3.31708 4.77976 0
M  V30 41267 H 4018.49 5.25105 5.82438 0
M  V30 41268 N 4016 -1.54309 0.320412 0
M  V30 41269 C 4016.94 -2.24225 -0.546971 0
M  V30 41270 C 4017.91 -1.23188 -1.11417 0
M  V30 41271 O 4019.1 -1.51862 -1.1551 0
M  V30 41272 C 4016.24 -3.00123 -1.70354 0
M  V30 41273 C 4015.35 -4.15971 -1.16587 0
M  V30 41274 C 4014.49 -4.79406 -2.28787 0
M  V30 41275 C 4013.53 -5.87363 -1.72253 0
M  V30 41276 N 4012.66 -6.44673 -2.78102 0
M  V30 41277 H 4017.5 -2.97948 0.0558248 0
M  V30 41278 H 4015.04 -1.47047 0.0393214 0
M  V30 41279 H 4017 -3.42371 -2.38407 0
M  V30 41280 H 4015.63 -2.2874 -2.27767 0
M  V30 41281 H 4014.68 -3.78527 -0.376987 0
M  V30 41282 H 4015.99 -4.9369 -0.712167 0
M  V30 41283 H 4015.15 -5.24607 -3.0475 0
M  V30 41284 H 4013.89 -4.01061 -2.77492 0
M  V30 41285 H 4012.89 -5.41568 -0.947856 0
M  V30 41286 H 4014.12 -6.67604 -1.24428 0
M  V30 41287 H 4012.06 -5.69203 -3.26105 0
M  V30 41288 H 4011.98 -7.17796 -2.37285 0
M  V30 41289 H 4013.25 -6.9453 -3.53904 0
M  V30 41290 N 4017.48 -0.0485183 -1.57525 0
M  V30 41291 C 4018.72 0.629784 -1.94456 0
M  V30 41292 C 4019.08 1.68165 -0.926535 0
M  V30 41293 O 4020.28 2.41383 -1.18269 0
M  V30 41294 C 4018.55 1.21278 -3.36194 0
M  V30 41295 S 4020.11 1.90946 -3.95076 0
M  V30 41296 H 4016.93 0.206858 -0.680243 0
M  V30 41297 H 4019.53 -0.116821 -1.95151 0
M  V30 41298 H 4018.23 0.435064 -4.08087 0
M  V30 41299 H 4017.77 1.99626 -3.38988 0
M  V30 41300 H 4019.78 3.18981 -3.80086 0
M  V30 41301 N 4018.95 1.55988 0.224839 0
M  V30 41302 C 4020.23 1.69633 0.973854 0
M  V30 41303 C 4020.61 0.594826 2.02546 0
M  V30 41304 O 4019.96 -0.39864 2.24996 0
M  V30 41305 C 4020.17 3.10816 1.58727 0
M  V30 41306 C 4021.52 3.7012 2.08077 0
M  V30 41307 O 4022.54 3.13757 1.68627 0
M  V30 41308 O 4021.4 4.68976 2.80578 0
M  V30 41309 H 4018.49 0.690777 0.454704 0
M  V30 41310 H 4021.04 1.68308 0.216881 0
M  V30 41311 H 4019.81 3.82444 0.827766 0
M  V30 41312 H 4019.43 3.16245 2.40987 0
M  V30 41313 N 4020.43 -0.491412 1.49743 0
M  V30 41314 C 4021.38 -1.61268 1.67617 0
M  V30 41315 C 4022.37 -1.60494 0.542032 0
M  V30 41316 O 4023.58 -1.64887 0.721951 0
M  V30 41317 H 4019.95 -0.534766 0.528705 0
M  V30 41318 H 4021.93 -1.43348 2.61714 0
M  V30 41319 C 4020.67 -2.99346 1.76883 0
M  V30 41320 H 4020 -3.00651 2.63532 0
M  V30 41321 H 4021.44 -3.77312 1.93421 0
M  V30 41322 C 4019.9 -3.32928 0.515778 0
M  V30 41323 O 4020.43 -4.00135 -0.354242 0
M  V30 41324 N 4018.63 -2.88159 0.375851 0
M  V30 41325 H 4018.18 -2.33642 1.08485 0
M  V30 41326 H 4018.14 -3.10995 -0.46144 0
M  V30 41327 N 4021.91 -1.38978 -0.743153 0
M  V30 41328 C 4023.19 -1.26271 -1.49382 0
M  V30 41329 C 4023.57 0.131312 -2.10691 0
M  V30 41330 O 4022.92 1.1418 -1.97927 0
M  V30 41331 C 4023.13 -2.38085 -2.5518 0
M  V30 41332 C 4024.47 -2.77012 -3.21791 0
M  V30 41333 O 4025.5 -2.37474 -2.65489 0
M  V30 41334 O 4024.36 -3.45229 -4.2365 0
M  V30 41335 H 4021.45 -0.494382 -0.66296 0
M  V30 41336 H 4024 -1.50832 -0.777673 0
M  V30 41337 H 4022.77 -3.31314 -2.08198 0
M  V30 41338 H 4022.39 -2.15145 -3.34363 0
M  V30 41339 N 4023.39 0.972465 -1.2402 0
M  V30 41340 C 4024.34 2.0875 -1.02597 0
M  V30 41341 C 4025.33 1.69358 0.037583 0
M  V30 41342 O 4026.54 1.79622 -0.11658 0
M  V30 41343 H 4022.91 0.682973 -0.314725 0
M  V30 41344 H 4024.88 2.23982 -1.97167 0
M  V30 41345 C 4023.63 3.41715 -0.642358 0
M  V30 41346 H 4022.95 3.72482 -1.45249 0
M  V30 41347 H 4024.39 4.20649 -0.532038 0
M  V30 41348 C 4022.85 3.30568 0.650115 0
M  V30 41349 O 4023.38 3.64088 1.69713 0
M  V30 41350 N 4021.59 2.8371 0.629035 0
M  V30 41351 H 4021.14 2.5663 -0.223348 0
M  V30 41352 H 4021.09 2.76634 1.49402 0
M  V30 41353 N 4024.87 1.05318 1.17243 0
M  V30 41354 C 4026.14 0.677811 1.8348 0
M  V30 41355 C 4026.52 -0.841719 1.93593 0
M  V30 41356 O 4025.87 -1.74816 1.47145 0
M  V30 41357 C 4026.08 1.36829 3.21059 0
M  V30 41358 C 4027.43 1.50715 3.96951 0
M  V30 41359 O 4028.45 1.3274 3.30543 0
M  V30 41360 O 4027.31 1.80121 5.15964 0
M  V30 41361 H 4024.41 0.238755 0.791786 0
M  V30 41362 H 4026.95 1.15285 1.24529 0
M  V30 41363 H 4025.72 2.4049 3.08675 0
M  V30 41364 H 4025.35 0.882685 3.87678 0
M  V30 41365 N 4026.34 -1.33701 0.834377 0
M  V30 41366 C 4027.58 -1.99741 0.433935 0
M  V30 41367 C 4027.95 -1.64673 -0.987265 0
M  V30 41368 O 4029.15 -2.23644 -1.4912 0
M  V30 41369 C 4027.42 -3.51566 0.643104 0
M  V30 41370 S 4028.98 -4.37502 0.337214 0
M  V30 41371 H 4025.8 -0.691964 0.163424 0
M  V30 41372 H 4028.4 -1.62783 1.08269 0
M  V30 41373 H 4027.1 -3.74577 1.67691 0
M  V30 41374 H 4026.63 -3.93395 -0.0199654 0
M  V30 41375 H 4028.65 -4.88957 -0.84474 0
M  V30 41376 N 4027.82 -0.590393 -1.46124 0
M  V30 41377 C 4029.07 -0.0787611 -2.01946 0
M  V30 41378 C 4029.39 1.28876 -1.46342 0
M  V30 41379 O 4028.66 1.84765 -0.651043 0
M  V30 41380 H 4027.24 -0.0261256 -0.746543 0
M  V30 41381 H 4029.9 -0.767909 -1.79135 0
M  V30 41382 H 4029 -0.0155463 -3.12096 0
M  V30 41383 N 4029.3 1.54136 -0.328591 0
M  V30 41384 C 4030.58 1.92847 0.326992 0
M  V30 41385 C 4030.96 1.2587 1.69469 0
M  V30 41386 O 4030.31 0.404212 2.24896 0
M  V30 41387 C 4030.52 3.46533 0.4142 0
M  V30 41388 C 4031.86 4.19247 0.672116 0
M  V30 41389 O 4032.89 3.52717 0.49692 0
M  V30 41390 O 4031.75 5.37078 1.01044 0
M  V30 41391 H 4028.84 0.805417 0.187702 0
M  V30 41392 H 4031.39 1.65421 -0.378674 0
M  V30 41393 H 4030.16 3.87469 -0.546178 0
M  V30 41394 H 4029.78 3.8008 1.16725 0
M  V30 41395 N 4030.78 0.0568716 1.57497 0
M  V30 41396 C 4032.03 -0.614418 1.92534 0
M  V30 41397 C 4032.35 -1.71045 0.936403 0
M  V30 41398 O 4031.62 -1.95892 -0.0178459 0
M  V30 41399 H 4030.2 -0.229945 0.710728 0
M  V30 41400 H 4032.86 0.111215 1.94582 0
M  V30 41401 H 4031.96 -1.04936 2.9393 0
M  V30 41402 N 4032.26 -1.56105 -0.216564 0
M  V30 41403 C 4033.48 -1.83785 -0.961131 0
M  V30 41404 C 4033.91 -0.637823 -1.76956 0
M  V30 41405 O 4033.26 0.413418 -1.76524 0
M  V30 41406 C 4033.31 -3.09503 -1.85042 0
M  V30 41407 O 4032.42 -2.88547 -2.94643 0
M  V30 41408 H 4031.76 -0.605789 -0.271874 0
M  V30 41409 H 4034.29 -2.03322 -0.228368 0
M  V30 41410 H 4034.3 -3.39737 -2.25926 0
M  V30 41411 H 4032.97 -3.96473 -1.25626 0
M  V30 41412 H 4031.55 -2.69558 -2.57668 0
M  V30 41413 N 4033.73 0.483463 -1.50001 0
M  V30 41414 C 4035.01 1.24476 -1.50881 0
M  V30 41415 C 4035.39 2.09657 -0.24643 0
M  V30 41416 O 4034.74 2.15113 0.770623 0
M  V30 41417 C 4034.95 2.08643 -2.79766 0
M  V30 41418 C 4036.3 2.67247 -3.29945 0
M  V30 41419 O 4037.32 2.18897 -2.81003 0
M  V30 41420 O 4036.18 3.55312 -4.1523 0
M  V30 41421 H 4033.27 0.564195 -0.604659 0
M  V30 41422 H 4035.82 0.496297 -1.62281 0
M  V30 41423 H 4034.59 1.45793 -3.63126 0
M  V30 41424 H 4034.22 2.90648 -2.71311 0
M  V30 41425 N 4035.21 1.39371 0.735772 0
M  V30 41426 C 4036.12 1.40301 1.88023 0
M  V30 41427 C 4037.14 0.297908 1.71431 0
M  V30 41428 O 4038.31 0.539253 1.94046 0
M  V30 41429 C 4035.38 1.24421 3.23605 0
M  V30 41430 C 4034.44 2.44896 3.52597 0
M  V30 41431 C 4033.67 2.29764 4.8171 0
M  V30 41432 O 4033.9 1.30071 5.55372 0
M  V30 41433 O 4032.83 3.18731 5.10582 0
M  V30 41434 H 4036.66 2.36771 1.90193 0
M  V30 41435 H 4034.24 1.20478 0.883483 0
M  V30 41436 H 4036.12 1.17695 4.04631 0
M  V30 41437 H 4034.8 0.310466 3.22208 0
M  V30 41438 H 4033.71 2.57199 2.71661 0
M  V30 41439 H 4035.04 3.36962 3.58772 0
M  V30 41440 N 4036.69 -0.965875 1.24534 0
M  V30 41441 C 4037.62 -2.05964 0.982543 0
M  V30 41442 C 4038.6 -1.62381 -0.0843264 0
M  V30 41443 O 4039.79 -1.88426 0.0529907 0
M  V30 41444 C 4036.91 -3.35237 0.483079 0
M  V30 41445 C 4035.96 -3.97774 1.53877 0
M  V30 41446 S 4036.79 -4.35173 3.12066 0
M  V30 41447 C 4037.95 -5.67579 2.63826 0
M  V30 41448 H 4038.18 -2.27939 1.90869 0
M  V30 41449 H 4035.71 -1.10402 1.07939 0
M  V30 41450 H 4037.67 -4.10005 0.201538 0
M  V30 41451 H 4036.33 -3.11247 -0.422389 0
M  V30 41452 H 4035.53 -4.90944 1.13976 0
M  V30 41453 H 4035.13 -3.29443 1.77041 0
M  V30 41454 H 4037.42 -6.45182 2.06752 0
M  V30 41455 H 4038.36 -6.1234 3.55592 0
M  V30 41456 H 4038.77 -5.26275 2.04193 0
M  V30 41457 N 4038.17 -1.05938 -1.16683 0
M  V30 41458 C 4039.08 -0.677971 -2.2459 0
M  V30 41459 C 4040.1 0.304367 -1.71317 0
M  V30 41460 O 4041.27 0.15458 -2.00806 0
M  V30 41461 C 4038.34 -0.0664646 -3.46636 0
M  V30 41462 C 4037.4 -1.10021 -4.14962 0
M  V30 41463 C 4036.63 -0.51779 -5.31182 0
M  V30 41464 O 4036.85 0.670538 -5.66445 0
M  V30 41465 O 4035.79 -1.25573 -5.88655 0
M  V30 41466 H 4039.61 -1.57748 -2.59517 0
M  V30 41467 H 4037.2 -0.831417 -1.24128 0
M  V30 41468 H 4039.08 0.272995 -4.20515 0
M  V30 41469 H 4037.76 0.806579 -3.1349 0
M  V30 41470 H 4036.66 -1.49179 -3.43069 0
M  V30 41471 H 4038 -1.94466 -4.52155 0
M  V30 41472 N 4039.65 1.33256 -0.841456 0
M  V30 41473 C 4040.87 2.02436 -0.451046 0
M  V30 41474 C 4041.3 1.62883 0.940782 0
M  V30 41475 O 4040.66 0.822738 1.61557 0
M  V30 41476 C 4040.7 3.55865 -0.582432 0
M  V30 41477 O 4039.81 4.10549 0.390254 0
M  V30 41478 H 4039.15 0.638282 -0.183008 0
M  V30 41479 H 4041.68 1.70098 -1.137 0
M  V30 41480 H 4041.69 4.05341 -0.465038 0
M  V30 41481 H 4040.36 3.83998 -1.59745 0
M  V30 41482 H 4038.94 3.72189 0.230201 0
M  V30 41483 N 4041.13 0.598134 1.45809 0
M  V30 41484 C 4042.37 0.0897796 2.02601 0
M  V30 41485 C 4042.7 -1.27279 1.46675 0
M  V30 41486 O 4041.98 -1.83747 0.637767 0
M  V30 41487 C 4042.26 0.0406345 3.60077 0
M  V30 41488 C 4042.12 1.4332 4.26356 0
M  V30 41489 C 4043.43 -0.652087 4.35242 0
M  V30 41490 H 4040.55 0.0340995 0.736211 0
M  V30 41491 H 4043.2 0.768294 1.73774 0
M  V30 41492 H 4041.35 -0.537183 3.84768 0
M  V30 41493 H 4043.02 2.05737 4.1288 0
M  V30 41494 H 4041.26 1.99659 3.85121 0
M  V30 41495 H 4041.93 1.35114 5.35209 0
M  V30 41496 H 4044.41 -0.161055 4.15788 0
M  V30 41497 H 4043.28 -0.65555 5.44971 0
M  V30 41498 H 4043.54 -1.71639 4.07422 0
M  V30 41499 N 4042.6 -1.5396 0.33676 0
M  V30 41500 C 4043.84 -2.02711 -0.262254 0
M  V30 41501 C 4044.21 -1.21939 -1.48307 0
M  V30 41502 O 4045.41 -1.60556 -2.15581 0
M  V30 41503 C 4043.68 -3.5274 -0.575257 0
M  V30 41504 S 4045.24 -4.23407 -1.15205 0
M  V30 41505 H 4042.06 -0.706651 -0.0785182 0
M  V30 41506 H 4044.66 -1.89693 0.472947 0
M  V30 41507 H 4043.36 -4.09141 0.321182 0
M  V30 41508 H 4042.89 -3.69864 -1.34031 0
M  V30 41509 H 4044.91 -4.32167 -2.43817 0
M  V30 41510 N 4044.08 -0.0652232 -1.57465 0
M  V30 41511 C 4045.04 0.889597 -2.11232 0
M  V30 41512 C 4046.04 1.2307 -1.03491 0
M  V30 41513 O 4047.23 1.16506 -1.29507 0
M  V30 41514 C 4044.37 2.1951 -2.60822 0
M  V30 41515 H 4045.56 0.423249 -2.96898 0
M  V30 41516 H 4043.11 0.18339 -1.5522 0
M  V30 41517 H 4043.85 2.70696 -1.7859 0
M  V30 41518 H 4043.63 1.96051 -3.39568 0
M  V30 41519 H 4045.12 2.87876 -3.02518 0
M  V30 41520 N 4045.56 1.56218 0.208282 0
M  V30 41521 C 4046.49 1.96515 1.26112 0
M  V30 41522 C 4047.47 0.83521 1.48183 0
M  V30 41523 O 4048.66 1.09854 1.60143 0
M  V30 41524 C 4045.79 2.2933 2.60816 0
M  V30 41525 C 4044.74 3.44939 2.53379 0
M  V30 41526 C 4044.07 3.63395 3.92235 0
M  V30 41527 C 4045.37 4.79522 2.07018 0
M  V30 41528 H 4047.06 2.8471 0.9263 0
M  V30 41529 H 4044.61 1.36979 0.444145 0
M  V30 41530 H 4046.56 2.56114 3.34639 0
M  V30 41531 H 4045.28 1.38003 2.96012 0
M  V30 41532 H 4043.94 3.18225 1.82012 0
M  V30 41533 H 4043.59 2.6942 4.24761 0
M  V30 41534 H 4043.29 4.41161 3.88137 0
M  V30 41535 H 4044.81 3.92541 4.677 0
M  V30 41536 H 4046.23 5.05424 2.70592 0
M  V30 41537 H 4044.62 5.60665 2.13951 0
M  V30 41538 H 4045.69 4.73988 1.0229 0
M  V30 41539 N 4047.04 -0.475502 1.50256 0
M  V30 41540 C 4047.99 -1.57155 1.65186 0
M  V30 41541 C 4048.97 -1.52716 0.506605 0
M  V30 41542 O 4050.16 -1.59815 0.760802 0
M  V30 41543 C 4047.29 -2.95626 1.74528 0
M  V30 41544 C 4046.38 -3.04966 2.94715 0
M  V30 41545 N 4046.77 -2.84129 4.18455 0
M  V30 41546 C 4045.07 -3.36096 2.93181 0
M  V30 41547 C 4045.77 -2.98319 4.9938 0
M  V30 41548 N 4044.74 -3.28326 4.33247 0
M  V30 41549 H 4048.55 -1.39739 2.58554 0
M  V30 41550 H 4046.06 -0.682146 1.47379 0
M  V30 41551 H 4048.06 -3.74429 1.83326 0
M  V30 41552 H 4046.72 -3.14093 0.823144 0
M  V30 41553 H 4047.73 -2.59798 4.48024 0
M  V30 41554 H 4044.41 -3.60579 2.1045 0
M  V30 41555 H 4045.8 -2.86487 6.07762 0
M  V30 41556 N 4048.52 -1.39759 -0.72837 0
M  V30 41557 C 4049.74 -1.40631 -1.51758 0
M  V30 41558 C 4050.16 -0.00257228 -1.888 0
M  V30 41559 O 4049.52 0.9704 -1.54562 0
M  V30 41560 C 4049.57 -2.28533 -2.80098 0
M  V30 41561 O 4049.29 -3.63441 -2.44627 0
M  V30 41562 C 4050.79 -2.3786 -3.74082 0
M  V30 41563 H 4048.01 -0.480111 -0.468758 0
M  V30 41564 H 4050.55 -1.83655 -0.899497 0
M  V30 41565 H 4048.71 -1.88904 -3.38222 0
M  V30 41566 H 4049.12 -4.09994 -3.27117 0
M  V30 41567 H 4050.6 -3.03599 -4.61011 0
M  V30 41568 H 4051.07 -1.39975 -4.16298 0
M  V30 41569 H 4051.68 -2.77986 -3.21875 0
M  V30 41570 N 4049.99 0.959257 -1.25044 0
M  V30 41571 C 4051.23 1.71817 -1.10717 0
M  V30 41572 C 4051.6 1.88843 0.346723 0
M  V30 41573 O 4052.8 2.61747 0.611708 0
M  V30 41574 C 4051.07 3.06652 -1.83574 0
M  V30 41575 S 4052.63 3.97857 -1.85082 0
M  V30 41576 H 4049.45 0.590633 -0.39582 0
M  V30 41577 H 4052.05 1.14446 -1.585 0
M  V30 41578 H 4050.75 2.91927 -2.88456 0
M  V30 41579 H 4050.28 3.69086 -1.36159 0
M  V30 41580 H 4052.3 4.87511 -0.924537 0
M  V30 41581 N 4051.47 1.06556 1.16119 0
M  V30 41582 C 4052.7 0.80474 1.91151 0
M  V30 41583 C 4053.12 -0.635307 1.77046 0
M  V30 41584 O 4052.48 -1.443 1.09759 0
M  V30 41585 C 4052.53 1.20757 3.3978 0
M  V30 41586 O 4051.63 0.347961 4.10929 0
M  V30 41587 H 4050.97 0.293874 0.595428 0
M  V30 41588 H 4053.5 1.42205 1.47102 0
M  V30 41589 H 4053.51 1.18026 3.90556 0
M  V30 41590 H 4052.19 2.25648 3.49365 0
M  V30 41591 H 4050.77 0.437058 3.7033 0
M  V30 41592 N 4052.95 -1.32808 0.848511 0
M  V30 41593 C 4054.36 -1.79759 0.504339 0
M  V30 41594 C 4054.71 -1.70123 -0.977378 0
M  V30 41595 O 4053.84 -1.25618 -1.76208 0
M  V30 41596 C 4054.43 -3.26387 0.908686 0
M  V30 41597 C 4052.99 -3.71317 0.616506 0
M  V30 41598 C 4052.14 -2.54037 1.11178 0
M  V30 41599 H 4055.09 -1.20193 1.0363 0
M  V30 41600 H 4055.11 -3.79848 0.222585 0
M  V30 41601 H 4054.62 -3.33368 1.98714 0
M  V30 41602 H 4052.72 -3.69855 -0.45148 0
M  V30 41603 H 4052.84 -4.6438 1.17849 0
M  V30 41604 H 4051.2 -2.49076 0.532271 0
M  V30 41605 H 4051.98 -2.63776 2.19721 0
M  V30 41606 N 4054.43 -0.605858 -1.45489 0
M  V30 41607 C 4055.66 -0.106688 -2.06625 0
M  V30 41608 C 4056.07 1.2082 -1.4508 0
M  V30 41609 O 4055.43 1.73555 -0.564346 0
M  V30 41610 C 4055.48 0.0412544 -3.61476 0
M  V30 41611 O 4055.2 -1.22161 -4.20724 0
M  V30 41612 C 4056.7 0.572085 -4.39593 0
M  V30 41613 H 4053.92 -0.0680482 -0.667541 0
M  V30 41614 H 4056.47 -0.8331 -1.86761 0
M  V30 41615 H 4054.62 0.717986 -3.80688 0
M  V30 41616 H 4055.03 -1.05018 -5.13879 0
M  V30 41617 H 4056.51 0.624694 -5.48454 0
M  V30 41618 H 4056.99 1.594 -4.09253 0
M  V30 41619 H 4057.59 -0.0705444 -4.25241 0
M  V30 41620 N 4055.91 1.53779 -0.34492 0
M  V30 41621 C 4056.87 2.23708 0.498742 0
M  V30 41622 C 4057.87 1.23775 1.02647 0
M  V30 41623 O 4059.06 1.48203 0.9155 0
M  V30 41624 C 4056.19 2.95779 1.69492 0
M  V30 41625 H 4057.38 2.99688 -0.112868 0
M  V30 41626 H 4054.94 1.56003 -0.0962887 0
M  V30 41627 H 4055.67 2.2399 2.34518 0
M  V30 41628 H 4055.46 3.69081 1.32369 0
M  V30 41629 H 4056.95 3.48996 2.29328 0
M  V30 41630 N 4057.38 0.0735731 1.57428 0
M  V30 41631 C 4058.63 -0.595138 1.93557 0
M  V30 41632 C 4058.96 -1.69511 0.95374 0
M  V30 41633 O 4058.21 -1.95676 -0.0303387 0
M  V30 41634 C 4058.51 -1.20972 3.36304 0
M  V30 41635 C 4058.18 -0.235711 4.50283 0
M  V30 41636 C 4056.84 0.0322421 4.81189 0
M  V30 41637 C 4059.19 0.430543 5.19419 0
M  V30 41638 C 4056.52 0.973508 5.78567 0
M  V30 41639 C 4058.87 1.36014 6.17805 0
M  V30 41640 C 4057.54 1.63654 6.47127 0
M  V30 41641 H 4056.81 -0.217776 0.708276 0
M  V30 41642 H 4059.45 0.144828 1.90952 0
M  V30 41643 H 4057.76 -2.02546 3.35384 0
M  V30 41644 H 4059.46 -1.73445 3.61549 0
M  V30 41645 H 4056.05 -0.454743 4.26181 0
M  V30 41646 H 4060.23 0.236647 4.95735 0
M  V30 41647 H 4055.49 1.19489 5.9961 0
M  V30 41648 H 4059.66 1.88234 6.70478 0
M  V30 41649 H 4057.29 2.36751 7.22394 0
M  V30 41650 N 4058.86 -1.56326 -0.199995 0
M  V30 41651 C 4060.09 -1.84443 -0.93747 0
M  V30 41652 C 4060.51 -0.655459 -1.77057 0
M  V30 41653 O 4059.86 0.375881 -1.78587 0
M  V30 41654 C 4059.91 -3.1131 -1.83761 0
M  V30 41655 O 4059.63 -4.25622 -1.03815 0
M  V30 41656 C 4061.14 -3.5257 -2.68718 0
M  V30 41657 H 4058.36 -0.612616 -0.273756 0
M  V30 41658 H 4060.9 -2.03432 -0.208723 0
M  V30 41659 H 4059.05 -2.94233 -2.52004 0
M  V30 41660 H 4059.47 -4.97834 -1.65111 0
M  V30 41661 H 4060.94 -4.4432 -3.27542 0
M  V30 41662 H 4061.42 -2.75329 -3.42185 0
M  V30 41663 H 4062.03 -3.72162 -2.05854 0
M  V30 41664 N 4060.34 0.467527 -1.50506 0
M  V30 41665 C 4061.58 1.22915 -1.63313 0
M  V30 41666 C 4061.94 1.8918 -0.327875 0
M  V30 41667 O 4063.15 2.66749 -0.331417 0
M  V30 41668 C 4061.42 2.24226 -2.78311 0
M  V30 41669 S 4062.98 3.0928 -3.11273 0
M  V30 41670 H 4059.79 0.417264 -0.575684 0
M  V30 41671 H 4062.4 0.525579 -1.88303 0
M  V30 41672 H 4061.1 1.74132 -3.71626 0
M  V30 41673 H 4060.63 2.99207 -2.55418 0
M  V30 41674 H 4062.65 4.2544 -2.55374 0
M  V30 41675 N 4061.82 1.40143 0.720948 0
M  V30 41676 C 4062.78 1.3974 1.81674 0
M  V30 41677 C 4063.78 0.292096 1.58125 0
M  V30 41678 O 4064.97 0.550729 1.65265 0
M  V30 41679 C 4062.1 1.18387 3.19683 0
M  V30 41680 H 4063.3 2.37262 1.83431 0
M  V30 41681 H 4060.85 1.25913 0.926042 0
M  V30 41682 H 4061.58 0.216037 3.2358 0
M  V30 41683 H 4061.37 1.98445 3.38175 0
M  V30 41684 H 4062.86 1.2088 3.99722 0
M  V30 41685 N 4063.3 -0.952612 1.25551 0
M  V30 41686 C 4064.24 -2.07091 1.05905 0
M  V30 41687 C 4065.24 -1.69397 -0.0106348 0
M  V30 41688 O 4066.44 -1.79414 0.145142 0
M  V30 41689 H 4062.82 -0.67788 0.325551 0
M  V30 41690 H 4064.79 -2.20817 2.00705 0
M  V30 41691 C 4063.54 -3.4065 0.69664 0
M  V30 41692 H 4062.86 -3.70124 1.51157 0
M  V30 41693 H 4064.3 -4.19749 0.598892 0
M  V30 41694 C 4062.76 -3.3156 -0.597442 0
M  V30 41695 O 4063.29 -3.66742 -1.63899 0
M  V30 41696 N 4061.5 -2.84675 -0.583819 0
M  V30 41697 H 4061.04 -2.56242 0.264147 0
M  V30 41698 H 4061 -2.78976 -1.44982 0
M  V30 41699 N 4064.77 -1.0717 -1.15553 0
M  V30 41700 C 4066.02 -0.792183 -1.85927 0
M  V30 41701 C 4066.34 0.683688 -1.82622 0
M  V30 41702 O 4065.61 1.49507 -1.26588 0
M  V30 41703 H 4064.19 -0.290055 -0.688387 0
M  V30 41704 H 4066.86 -1.35506 -1.40086 0
M  V30 41705 H 4065.95 -1.12505 -2.91117 0
M  V30 41706 N 4066.25 1.32356 -0.855542 0
M  V30 41707 C 4067.67 1.49988 -0.545517 0
M  V30 41708 C 4067.87 1.79085 0.923625 0
M  V30 41709 O 4066.93 1.86094 1.70661 0
M  V30 41710 C 4068.24 2.64344 -1.43327 0
M  V30 41711 C 4069.79 2.78229 -1.43379 0
M  V30 41712 C 4070.26 3.95666 -2.30678 0
M  V30 41713 N 4071.75 4.02929 -2.28479 0
M  V30 41714 C 4072.49 4.93034 -2.92754 0
M  V30 41715 N 4071.98 5.8814 -3.66146 0
M  V30 41716 N 4073.78 4.86163 -2.82138 0
M  V30 41717 H 4065.93 1.11735 -1.80635 0
M  V30 41718 H 4068.19 0.550792 -0.771578 0
M  V30 41719 H 4067.9 2.49574 -2.47802 0
M  V30 41720 H 4067.77 3.60148 -1.12131 0
M  V30 41721 H 4070.16 2.92422 -0.396693 0
M  V30 41722 H 4070.24 1.83136 -1.78591 0
M  V30 41723 H 4069.88 3.82232 -3.34456 0
M  V30 41724 H 4069.81 4.90037 -1.92798 0
M  V30 41725 H 4072.3 3.34875 -1.75121 0
M  V30 41726 H 4072.62 6.53592 -4.12355 0
M  V30 41727 H 4070.96 5.88164 -3.70254 0
M  V30 41728 H 4074.15 4.10833 -2.24351 0
M  V30 41729 H 4074.33 5.56183 -3.32512 0
M  V30 41730 N 4067.73 0.613565 1.45166 0
M  V30 41731 C 4068.97 0.114182 2.04081 0
M  V30 41732 C 4069.34 -1.23412 1.47083 0
M  V30 41733 O 4070.54 -1.82458 1.97389 0
M  V30 41734 C 4068.81 0.0818053 3.57306 0
M  V30 41735 S 4070.37 -0.355516 4.37357 0
M  V30 41736 H 4067.18 0.0524887 0.70906 0
M  V30 41737 H 4069.79 0.813011 1.77793 0
M  V30 41738 H 4068.49 1.06652 3.963 0
M  V30 41739 H 4068.02 -0.638829 3.88178 0
M  V30 41740 H 4070.04 -1.60372 4.69569 0
M  V30 41741 N 4069.21 -1.53594 0.353071 0
M  V30 41742 C 4070.46 -2.01365 -0.240869 0
M  V30 41743 C 4070.79 -1.24026 -1.49436 0
M  V30 41744 O 4070.06 -0.330485 -1.91672 0
M  V30 41745 C 4070.35 -3.55945 -0.545434 0
M  V30 41746 C 4070.2 -4.43987 0.72082 0
M  V30 41747 C 4071.52 -4.18846 -1.35116 0
M  V30 41748 H 4068.64 -0.731957 -0.0860709 0
M  V30 41749 H 4071.28 -1.83954 0.475491 0
M  V30 41750 H 4069.43 -3.70912 -1.15571 0
M  V30 41751 H 4071.1 -4.4084 1.35859 0
M  V30 41752 H 4069.34 -4.12463 1.34377 0
M  V30 41753 H 4070.02 -5.50056 0.462845 0
M  V30 41754 H 4072.49 -4.07635 -0.835032 0
M  V30 41755 H 4071.37 -5.27058 -1.53301 0
M  V30 41756 H 4071.63 -3.74089 -2.35606 0
M  V30 41757 N 4070.69 -0.0819208 -1.57387 0
M  V30 41758 C 4071.62 0.911502 -2.10296 0
M  V30 41759 C 4072.63 1.25476 -1.03729 0
M  V30 41760 O 4073.82 1.21017 -1.31214 0
M  V30 41761 C 4070.92 2.22444 -2.5568 0
M  V30 41762 C 4070.09 2.0585 -3.85933 0
M  V30 41763 C 4069.15 3.20538 -4.17303 0
M  V30 41764 O 4068.18 2.95082 -4.8674 0
M  V30 41765 N 4069.38 4.4593 -3.71655 0
M  V30 41766 H 4072.15 0.459705 -2.96153 0
M  V30 41767 H 4069.71 0.103539 -1.61569 0
M  V30 41768 H 4071.7 2.98093 -2.7372 0
M  V30 41769 H 4070.27 2.59089 -1.74904 0
M  V30 41770 H 4069.49 1.14608 -3.77172 0
M  V30 41771 H 4070.78 1.92025 -4.71173 0
M  V30 41772 H 4070.18 4.69496 -3.15579 0
M  V30 41773 H 4068.73 5.18572 -3.94875 0
M  V30 41774 N 4072.17 1.5643 0.191702 0
M  V30 41775 C 4073.4 1.84669 0.926331 0
M  V30 41776 C 4073.8 0.662705 1.77214 0
M  V30 41777 O 4073.15 -0.377807 1.79773 0
M  V30 41778 C 4073.21 3.07056 1.86967 0
M  V30 41779 C 4072.87 4.40814 1.20548 0
M  V30 41780 C 4073.87 5.16646 0.580761 0
M  V30 41781 C 4071.55 4.8755 1.20832 0
M  V30 41782 C 4073.55 6.37392 -0.0322523 0
M  V30 41783 C 4071.24 6.08231 0.591473 0
M  V30 41784 C 4072.23 6.82994 -0.0277297 0
M  V30 41785 O 4071.92 8.01389 -0.634901 0
M  V30 41786 H 4071.65 0.617265 0.275609 0
M  V30 41787 H 4074.21 2.04395 0.202891 0
M  V30 41788 H 4072.44 2.83223 2.6329 0
M  V30 41789 H 4074.13 3.21913 2.47238 0
M  V30 41790 H 4074.89 4.81631 0.570684 0
M  V30 41791 H 4070.77 4.29311 1.67968 0
M  V30 41792 H 4074.32 6.95688 -0.51617 0
M  V30 41793 H 4070.21 6.42714 0.599064 0
M  V30 41794 H 4070.98 8.16768 -0.53214 0
M  V30 41795 N 4073.64 -0.459538 1.50751 0
M  V30 41796 C 4074.87 -1.23839 1.66369 0
M  V30 41797 C 4075.29 -1.84789 0.351387 0
M  V30 41798 O 4074.65 -1.67818 -0.686073 0
M  V30 41799 C 4074.7 -2.31444 2.76525 0
M  V30 41800 O 4073.8 -3.36382 2.38582 0
M  V30 41801 H 4073.14 -0.363823 0.555454 0
M  V30 41802 H 4075.67 -0.545503 1.97194 0
M  V30 41803 H 4075.68 -2.76578 2.99948 0
M  V30 41804 H 4074.36 -1.86456 3.71762 0
M  V30 41805 H 4072.94 -2.96879 2.25648 0
M  V30 41806 N 4075.12 -1.40523 -0.713506 0
M  V30 41807 C 4076.35 -1.42027 -1.5004 0
M  V30 41808 C 4076.76 -0.018861 -1.89191 0
M  V30 41809 O 4076.1 0.968043 -1.56124 0
M  V30 41810 C 4076.16 -2.24922 -2.80446 0
M  V30 41811 C 4075.83 -3.73311 -2.63606 0
M  V30 41812 C 4076.83 -4.65898 -2.30728 0
M  V30 41813 C 4074.51 -4.1715 -2.79805 0
M  V30 41814 C 4076.5 -6.00308 -2.14263 0
M  V30 41815 C 4074.19 -5.51631 -2.62958 0
M  V30 41816 C 4075.19 -6.43025 -2.30234 0
M  V30 41817 O 4074.88 -7.75026 -2.13517 0
M  V30 41818 H 4074.61 -0.486329 -0.469532 0
M  V30 41819 H 4077.16 -1.85234 -0.887547 0
M  V30 41820 H 4075.39 -1.76498 -3.44072 0
M  V30 41821 H 4077.08 -2.18342 -3.42172 0
M  V30 41822 H 4077.85 -4.33323 -2.17844 0
M  V30 41823 H 4073.73 -3.46331 -3.04263 0
M  V30 41824 H 4077.27 -6.71609 -1.88644 0
M  V30 41825 H 4073.17 -5.8379 -2.75427 0
M  V30 41826 H 4073.94 -7.85981 -2.2842 0
M  V30 41827 N 4076.6 0.94594 -1.26054 0
M  V30 41828 C 4078.02 1.2186 -1.03064 0
M  V30 41829 C 4078.22 1.99978 0.24717 0
M  V30 41830 O 4077.27 2.33638 0.957581 0
M  V30 41831 C 4078.58 1.98451 -2.25915 0
M  V30 41832 C 4080.13 2.11461 -2.30767 0
M  V30 41833 C 4080.61 2.91453 -3.53297 0
M  V30 41834 N 4082.1 2.99029 -3.53746 0
M  V30 41835 C 4082.83 3.61339 -4.45221 0
M  V30 41836 N 4082.33 4.25189 -5.46979 0
M  V30 41837 N 4084.12 3.58565 -4.32883 0
M  V30 41838 H 4076.27 0.423579 -2.08134 0
M  V30 41839 H 4078.54 0.24991 -0.914467 0
M  V30 41840 H 4078.24 1.48456 -3.18832 0
M  V30 41841 H 4078.12 2.99132 -2.29782 0
M  V30 41842 H 4080.5 2.6065 -1.38367 0
M  V30 41843 H 4080.58 1.10058 -2.30913 0
M  V30 41844 H 4080.23 2.42952 -4.46023 0
M  V30 41845 H 4080.16 3.93102 -3.50398 0
M  V30 41846 H 4082.65 2.53631 -2.80142 0
M  V30 41847 H 4082.96 4.70618 -6.12975 0
M  V30 41848 H 4081.31 4.23791 -5.50842 0
M  V30 41849 H 4084.5 3.07873 -3.52607 0
M  V30 41850 H 4084.67 4.06838 -5.04367 0
M  V30 41851 N 4078.08 1.07781 1.14983 0
M  V30 41852 C 4079.32 0.813036 1.87534 0
M  V30 41853 C 4079.68 -0.64919 1.80692 0
M  V30 41854 O 4080.88 -1.0292 2.48316 0
M  V30 41855 C 4079.15 1.31265 3.32422 0
M  V30 41856 S 4080.71 1.17922 4.22658 0
M  V30 41857 H 4077.53 0.294508 0.647137 0
M  V30 41858 H 4080.13 1.3778 1.38697 0
M  V30 41859 H 4078.84 2.37146 3.34948 0
M  V30 41860 H 4078.37 0.743286 3.86314 0
M  V30 41861 H 4080.38 0.119481 4.96056 0
M  V30 41862 N 4079.56 -1.31901 0.862549 0
M  V30 41863 C 4080.83 -1.91657 0.390778 0
M  V30 41864 C 4081.21 -1.78534 -1.12645 0
M  V30 41865 O 4080.56 -1.18836 -1.95167 0
M  V30 41866 C 4080.77 -3.38139 0.863906 0
M  V30 41867 C 4082.12 -4.1526 0.885694 0
M  V30 41868 O 4083.14 -3.4689 0.809066 0
M  V30 41869 O 4082 -5.37361 0.995264 0
M  V30 41870 H 4079.1 -0.818893 0.115515 0
M  V30 41871 H 4081.64 -1.40619 0.949972 0
M  V30 41872 H 4080.41 -3.41669 1.90729 0
M  V30 41873 H 4080.04 -3.96594 0.282606 0
M  V30 41874 N 4081.03 -0.621255 -1.44838 0
M  V30 41875 C 4082.26 -0.128411 -2.06201 0
M  V30 41876 C 4082.67 1.1982 -1.46424 0
M  V30 41877 O 4082.02 1.74375 -0.577842 0
M  V30 41878 C 4082.08 0.0711969 -3.59429 0
M  V30 41879 C 4081.74 -1.17572 -4.41617 0
M  V30 41880 C 4082.74 -2.09711 -4.75728 0
M  V30 41881 C 4080.42 -1.40837 -4.82152 0
M  V30 41882 C 4082.42 -3.23433 -5.49245 0
M  V30 41883 C 4080.1 -2.54858 -5.55419 0
M  V30 41884 C 4081.1 -3.45983 -5.88884 0
M  V30 41885 O 4080.79 -4.58017 -6.60663 0
M  V30 41886 H 4080.52 -0.0723246 -0.67212 0
M  V30 41887 H 4083.08 -0.85288 -1.86856 0
M  V30 41888 H 4081.31 0.850707 -3.77227 0
M  V30 41889 H 4083 0.517352 -4.02589 0
M  V30 41890 H 4083.76 -1.92967 -4.44959 0
M  V30 41891 H 4079.64 -0.708022 -4.55531 0
M  V30 41892 H 4083.18 -3.94582 -5.75283 0
M  V30 41893 H 4079.08 -2.71549 -5.85604 0
M  V30 41894 H 4079.85 -4.56873 -6.79124 0
M  V30 41895 N 4082.51 1.53405 -0.361211 0
M  V30 41896 C 4083.74 2.05311 0.230394 0
M  V30 41897 C 4084.15 1.23477 1.43353 0
M  V30 41898 O 4083.49 0.267335 1.81744 0
M  V30 41899 C 4083.56 3.52773 0.692179 0
M  V30 41900 C 4083.22 4.55301 -0.393677 0
M  V30 41901 C 4084.22 5.04844 -1.24213 0
M  V30 41902 C 4081.9 4.9925 -0.552668 0
M  V30 41903 C 4083.9 5.96933 -2.23496 0
M  V30 41904 C 4081.58 5.91146 -1.54887 0
M  V30 41905 C 4082.58 6.39877 -2.38845 0
M  V30 41906 O 4082.27 7.29961 -3.36766 0
M  V30 41907 H 4082 0.674495 0.0450891 0
M  V30 41908 H 4084.55 1.98797 -0.516622 0
M  V30 41909 H 4082.78 3.56811 1.49073 0
M  V30 41910 H 4084.47 3.87561 1.2063 0
M  V30 41911 H 4085.24 4.71641 -1.13047 0
M  V30 41912 H 4081.12 4.6091 0.0910388 0
M  V30 41913 H 4084.66 6.34892 -2.89065 0
M  V30 41914 H 4080.56 6.23763 -1.66102 0
M  V30 41915 H 4081.33 7.47946 -3.32444 0
M  V30 41916 N 4083.99 0.0902663 1.57341 0
M  V30 41917 C 4084.94 -0.887959 2.14984 0
M  V30 41918 C 4085.93 -1.29553 1.09144 0
M  V30 41919 O 4087.14 -1.27062 1.27496 0
M  V30 41920 H 4083.51 -0.304364 0.687653 0
M  V30 41921 H 4085.48 -0.377042 2.96008 0
M  V30 41922 C 4084.23 -2.1392 2.74105 0
M  V30 41923 H 4083.56 -1.83446 3.55229 0
M  V30 41924 H 4085 -2.80437 3.18012 0
M  V30 41925 C 4083.46 -2.91002 1.69763 0
M  V30 41926 O 4083.99 -3.85371 1.13366 0
M  V30 41927 N 4082.19 -2.54452 1.40366 0
M  V30 41928 H 4081.74 -1.77782 1.86417 0
M  V30 41929 H 4081.7 -3.06327 0.707891 0
M  V30 41930 N 4085.47 -1.56529 -0.183403 0
M  V30 41931 C 4086.75 -1.72156 -0.928537 0
M  V30 41932 C 4087.13 -0.648319 -2.00898 0
M  V30 41933 O 4086.47 0.338846 -2.25974 0
M  V30 41934 C 4086.68 -3.14915 -1.5043 0
M  V30 41935 C 4088.03 -3.75507 -1.98191 0
M  V30 41936 O 4089.06 -3.18117 -1.60249 0
M  V30 41937 O 4087.91 -4.7625 -2.68046 0
M  V30 41938 H 4085.01 -0.70259 -0.43623 0
M  V30 41939 H 4087.55 -1.68824 -0.172181 0
M  V30 41940 H 4086.33 -3.84505 -0.726077 0
M  V30 41941 H 4085.95 -3.22523 -2.32518 0
M  V30 41942 N 4086.95 0.451537 -1.50993 0
M  V30 41943 C 4088.19 1.21176 -1.64608 0
M  V30 41944 C 4088.55 1.88821 -0.347922 0
M  V30 41945 O 4089.75 2.66383 -0.35969 0
M  V30 41946 C 4088.02 2.21262 -2.80674 0
M  V30 41947 S 4089.58 3.05962 -3.14536 0
M  V30 41948 H 4086.4 0.411135 -0.580077 0
M  V30 41949 H 4089 0.505578 -1.8885 0
M  V30 41950 H 4087.71 1.70181 -3.73452 0
M  V30 41951 H 4087.24 2.96481 -2.58578 0
M  V30 41952 H 4089.25 4.22707 -2.59872 0
M  V30 41953 N 4088.42 1.409 0.706044 0
M  V30 41954 C 4089.67 1.39417 1.46312 0
M  V30 41955 C 4089.99 0.000530869 1.95 0
M  V30 41956 O 4089.26 -0.955874 1.70997 0
M  V30 41957 H 4087.84 0.513145 0.542854 0
M  V30 41958 H 4090.51 1.76042 0.836365 0
M  V30 41959 H 4089.6 2.07495 2.33136 0
M  V30 41960 N 4089.9 -0.939242 1.26554 0
M  V30 41961 C 4091.18 -1.6631 1.02958 0
M  V30 41962 C 4091.56 -2.06477 -0.43938 0
M  V30 41963 O 4090.91 -1.79008 -1.42016 0
M  V30 41964 C 4091.12 -2.87385 1.98018 0
M  V30 41965 C 4092.47 -3.58992 2.26738 0
M  V30 41966 O 4093.49 -2.97493 1.95899 0
M  V30 41967 O 4092.35 -4.69766 2.79252 0
M  V30 41968 H 4089.44 -0.72839 0.391634 0
M  V30 41969 H 4091.99 -0.9908 1.37772 0
M  V30 41970 H 4090.76 -2.54608 2.97137 0
M  V30 41971 H 4090.38 -3.62339 1.63695 0
M  V30 41972 N 4091.38 -1.08389 -1.14409 0
M  V30 41973 C 4092.63 -0.811859 -1.85076 0
M  V30 41974 C 4092.95 0.66428 -1.83337 0
M  V30 41975 O 4092.22 1.48156 -1.28166 0
M  V30 41976 H 4090.8 -0.29734 -0.685272 0
M  V30 41977 H 4093.46 -1.36984 -1.38641 0
M  V30 41978 H 4092.56 -1.15586 -2.89907 0
M  V30 41979 N 4092.86 1.31442 -0.869532 0
M  V30 41980 C 4094.08 2.01434 -0.493884 0
M  V30 41981 C 4094.51 1.64842 0.90602 0
M  V30 41982 O 4093.87 0.856822 1.59776 0
M  V30 41983 C 4093.91 3.5455 -0.657785 0
M  V30 41984 O 4093.02 4.11285 0.303083 0
M  V30 41985 H 4092.36 0.634257 -0.196505 0
M  V30 41986 H 4094.89 1.67648 -1.17283 0
M  V30 41987 H 4094.9 4.04263 -0.550912 0
M  V30 41988 H 4093.57 3.80523 -1.67855 0
M  V30 41989 H 4092.15 3.72593 0.151202 0
M  V30 41990 N 4094.34 0.628927 1.44507 0
M  V30 41991 C 4095.61 0.063554 1.95497 0
M  V30 41992 C 4095.99 -1.41012 1.57095 0
M  V30 41993 O 4095.34 -2.12344 0.843932 0
M  V30 41994 C 4095.55 0.284112 3.47842 0
M  V30 41995 C 4096.9 0.176148 4.24234 0
M  V30 41996 O 4097.92 0.215361 3.55548 0
M  V30 41997 O 4096.78 0.0792263 5.46443 0
M  V30 41998 H 4093.88 -0.0235683 0.826664 0
M  V30 41999 H 4096.42 0.700478 1.54568 0
M  V30 42000 H 4095.19 1.30677 3.68835 0
M  V30 42001 H 4094.82 -0.387056 3.95712 0
M  V30 42002 N 4095.82 -1.53211 0.369342 0
M  V30 42003 C 4096.73 -2.2957 -0.483186 0
M  V30 42004 C 4097.74 -1.35686 -1.08928 0
M  V30 42005 O 4098.92 -1.68745 -1.09941 0
M  V30 42006 C 4095.98 -3.07289 -1.60543 0
M  V30 42007 C 4095.04 -4.16847 -1.02649 0
M  V30 42008 C 4094.28 -4.90851 -2.09525 0
M  V30 42009 O 4094.5 -4.64751 -3.30701 0
M  V30 42010 O 4093.43 -5.7669 -1.72372 0
M  V30 42011 H 4097.26 -3.03385 0.138299 0
M  V30 42012 H 4094.84 -1.48801 0.133615 0
M  V30 42013 H 4096.73 -3.55809 -2.25783 0
M  V30 42014 H 4095.4 -2.36307 -2.21225 0
M  V30 42015 H 4094.31 -3.72571 -0.337898 0
M  V30 42016 H 4095.64 -4.90006 -0.464173 0
M  V30 42017 N 4097.29 -0.0986092 -1.57291 0
M  V30 42018 C 4098.26 0.844591 -2.13071 0
M  V30 42019 C 4099.26 1.20847 -1.06078 0
M  V30 42020 O 4100.45 1.13733 -1.31949 0
M  V30 42021 C 4097.58 2.13928 -2.65419 0
M  V30 42022 H 4098.77 0.360177 -2.97729 0
M  V30 42023 H 4096.32 0.150424 -1.55574 0
M  V30 42024 H 4097.06 2.66847 -1.84291 0
M  V30 42025 H 4096.84 1.88805 -3.4365 0
M  V30 42026 H 4098.33 2.81394 -3.08556 0
M  V30 42027 N 4098.77 1.56624 0.175099 0
M  V30 42028 C 4100.02 1.8142 0.890573 0
M  V30 42029 C 4100.34 0.67499 1.82945 0
M  V30 42030 O 4099.61 -0.305405 1.93505 0
M  V30 42031 H 4098.19 0.669241 0.331852 0
M  V30 42032 H 4100.85 1.94105 0.175821 0
M  V30 42033 H 4099.95 2.75327 1.46974 0
M  V30 42034 N 4100.25 -0.443523 1.5123 0
M  V30 42035 C 4101.49 -1.20302 1.65248 0
M  V30 42036 C 4101.85 -1.88634 0.357931 0
M  V30 42037 O 4103.05 -2.66188 0.373812 0
M  V30 42038 C 4101.33 -2.1977 2.81844 0
M  V30 42039 S 4102.88 -3.04289 3.16154 0
M  V30 42040 H 4099.7 -0.408053 0.582249 0
M  V30 42041 H 4102.3 -0.495555 1.89115 0
M  V30 42042 H 4101.01 -1.68198 3.7435 0
M  V30 42043 H 4100.54 -2.95106 2.60146 0
M  V30 42044 H 4102.55 -4.21323 2.6211 0
M  V30 42045 N 4101.73 -1.41272 -0.698562 0
M  V30 42046 C 4102.66 -1.45654 -1.82503 0
M  V30 42047 C 4103.64 -0.315527 -1.67148 0
M  V30 42048 O 4104.82 -0.526551 -1.86925 0
M  V30 42049 C 4101.95 -1.33508 -3.20613 0
M  V30 42050 C 4100.91 -2.45389 -3.50668 0
M  V30 42051 C 4100.23 -2.1831 -4.88103 0
M  V30 42052 C 4101.53 -3.87731 -3.49946 0
M  V30 42053 H 4103.23 -2.39929 -1.79093 0
M  V30 42054 H 4100.77 -1.15483 -0.860216 0
M  V30 42055 H 4102.73 -1.35186 -3.99128 0
M  V30 42056 H 4101.45 -0.357158 -3.24641 0
M  V30 42057 H 4100.11 -2.42989 -2.74503 0
M  V30 42058 H 4099.76 -1.18868 -4.88753 0
M  V30 42059 H 4099.46 -2.93279 -5.09177 0
M  V30 42060 H 4100.98 -2.21699 -5.6893 0
M  V30 42061 H 4102.4 -3.91863 -4.18469 0
M  V30 42062 H 4100.79 -4.62358 -3.82551 0
M  V30 42063 H 4101.86 -4.16097 -2.4898 0
M  V30 42064 N 4103.21 0.932517 -1.27051 0
M  V30 42065 C 4104.45 1.67968 -1.13106 0
M  V30 42066 C 4104.78 1.91782 0.324013 0
M  V30 42067 O 4104.04 1.50262 1.25379 0
M  V30 42068 C 4104.33 3.05505 -1.85476 0
M  V30 42069 C 4104 3.01418 -3.35348 0
M  V30 42070 C 4102.66 3.00011 -3.76227 0
M  V30 42071 C 4105.01 2.93071 -4.30998 0
M  V30 42072 C 4102.34 2.88032 -5.1113 0
M  V30 42073 C 4104.69 2.82634 -5.65951 0
M  V30 42074 C 4103.36 2.79574 -6.06131 0
M  V30 42075 H 4102.63 0.61464 -0.413883 0
M  V30 42076 H 4105.28 1.08786 -1.576 0
M  V30 42077 H 4103.58 3.68363 -1.33475 0
M  V30 42078 H 4105.28 3.62183 -1.72118 0
M  V30 42079 H 4101.87 3.03298 -3.02834 0
M  V30 42080 H 4106.05 2.9326 -4.0039 0
M  V30 42081 H 4101.31 2.84047 -5.41413 0
M  V30 42082 H 4105.48 2.7514 -6.39743 0
M  V30 42083 H 4103.11 2.70049 -7.10618 0
M  V30 42084 N 4104.68 1.08995 1.13833 0
M  V30 42085 C 4106.1 0.818765 1.36998 0
M  V30 42086 C 4106.3 -0.569069 1.93297 0
M  V30 42087 O 4105.36 -1.32476 2.14957 0
M  V30 42088 C 4106.67 1.90638 2.32546 0
M  V30 42089 C 4108.22 1.93309 2.46172 0
M  V30 42090 C 4108.69 3.01201 3.45024 0
M  V30 42091 N 4110.18 3.00412 3.52572 0
M  V30 42092 C 4110.92 3.80537 4.28928 0
M  V30 42093 N 4110.41 4.70558 5.08475 0
M  V30 42094 N 4112.21 3.68815 4.24184 0
M  V30 42095 H 4104.36 1.98475 0.756391 0
M  V30 42096 H 4106.62 0.861657 0.395287 0
M  V30 42097 H 4106.33 2.90448 1.98326 0
M  V30 42098 H 4106.2 1.78082 3.32516 0
M  V30 42099 H 4108.59 0.941408 2.79681 0
M  V30 42100 H 4108.67 2.09943 1.46143 0
M  V30 42101 H 4108.31 4.0058 3.12247 0
M  V30 42102 H 4108.24 2.81811 4.44848 0
M  V30 42103 H 4110.73 2.3517 2.9581 0
M  V30 42104 H 4111.05 5.28289 5.64031 0
M  V30 42105 H 4109.39 4.74597 5.07723 0
M  V30 42106 H 4112.58 2.9785 3.61113 0
M  V30 42107 H 4112.76 4.31498 4.83439 0
M  V30 42108 N 4106.16 -1.30979 0.87649 0
M  V30 42109 C 4107.44 -1.91231 0.411084 0
M  V30 42110 C 4107.82 -1.79719 -1.10745 0
M  V30 42111 O 4107.17 -1.209 -1.93896 0
M  V30 42112 C 4107.38 -3.37203 0.899722 0
M  V30 42113 C 4108.72 -4.14297 0.929688 0
M  V30 42114 O 4109.75 -3.46012 0.845813 0
M  V30 42115 O 4108.61 -5.36275 1.0522 0
M  V30 42116 H 4105.7 -0.817621 0.124194 0
M  V30 42117 H 4108.25 -1.39603 0.964833 0
M  V30 42118 H 4107.02 -3.39627 1.94342 0
M  V30 42119 H 4106.64 -3.96272 0.324654 0
M  V30 42120 N 4107.64 -0.636582 -1.44171 0
M  V30 42121 C 4108.88 -0.146635 -2.03873 0
M  V30 42122 C 4109.24 1.21056 -1.49028 0
M  V30 42123 O 4110.44 1.79294 -2.00267 0
M  V30 42124 C 4108.72 -0.138639 -3.57131 0
M  V30 42125 S 4110.27 0.285891 -4.37868 0
M  V30 42126 H 4107.09 -0.0637626 -0.708135 0
M  V30 42127 H 4109.69 -0.841194 -1.76477 0
M  V30 42128 H 4108.4 -1.12943 -3.94553 0
M  V30 42129 H 4107.93 0.576993 -3.89146 0
M  V30 42130 H 4109.94 1.52881 -4.72061 0
M  V30 42131 N 4109.12 1.53013 -0.377462 0
M  V30 42132 C 4110.07 2.27628 0.478376 0
M  V30 42133 C 4111.06 1.31064 1.07325 0
M  V30 42134 O 4112.27 1.48647 1.01508 0
M  V30 42135 H 4108.64 0.731828 0.173008 0
M  V30 42136 H 4110.61 2.97901 -0.172549 0
M  V30 42137 C 4109.36 3.08706 1.59988 0
M  V30 42138 H 4108.68 3.8286 1.15144 0
M  V30 42139 H 4110.12 3.64073 2.17318 0
M  V30 42140 C 4108.58 2.2028 2.54909 0
M  V30 42141 O 4109.11 1.82158 3.58024 0
M  V30 42142 N 4107.32 1.84676 2.24373 0
M  V30 42143 H 4106.87 2.15875 1.40555 0
M  V30 42144 H 4106.82 1.25799 2.88135 0
M  V30 42145 N 4110.6 0.106949 1.57237 0
M  V30 42146 C 4111.56 -0.833279 2.13516 0
M  V30 42147 C 4112.56 -1.20283 1.06718 0
M  V30 42148 O 4113.75 -1.13032 1.3255 0
M  V30 42149 C 4110.88 -2.12518 2.6655 0
M  V30 42150 H 4112.07 -0.344383 2.97916 0
M  V30 42151 H 4109.63 -0.142171 1.55652 0
M  V30 42152 H 4110.36 -2.65866 1.85704 0
M  V30 42153 H 4110.15 -1.86979 3.44646 0
M  V30 42154 H 4111.64 -2.79754 3.10044 0
M  V30 42155 N 4112.07 -1.56715 -0.166791 0
M  V30 42156 C 4113.3 -1.8639 -0.898137 0
M  V30 42157 C 4113.72 -0.692868 -1.75627 0
M  V30 42158 O 4113.07 0.337916 -1.79344 0
M  V30 42159 C 4113.13 -3.15138 -1.77116 0
M  V30 42160 O 4112.85 -4.27728 -0.94764 0
M  V30 42161 C 4114.35 -3.58191 -2.61179 0
M  V30 42162 H 4111.57 -0.618285 -0.2607 0
M  V30 42163 H 4114.11 -2.03829 -0.165525 0
M  V30 42164 H 4112.27 -2.99512 -2.45706 0
M  V30 42165 H 4112.68 -5.01224 -1.54514 0
M  V30 42166 H 4114.15 -4.51168 -3.18044 0
M  V30 42167 H 4114.63 -2.82526 -3.36268 0
M  V30 42168 H 4115.24 -3.76444 -1.97913 0
M  V30 42169 N 4113.55 0.435497 -1.51463 0
M  V30 42170 C 4114.78 1.20716 -1.68033 0
M  V30 42171 C 4115.2 1.84968 -0.378459 0
M  V30 42172 O 4114.55 1.7079 0.643204 0
M  V30 42173 C 4114.6 2.28984 -2.7973 0
M  V30 42174 O 4114.32 1.6736 -4.04873 0
M  V30 42175 C 4115.83 3.19229 -3.07584 0
M  V30 42176 H 4113.05 0.363771 -0.563836 0
M  V30 42177 H 4115.59 0.51579 -1.97888 0
M  V30 42178 H 4113.74 2.93834 -2.52468 0
M  V30 42179 H 4114.16 2.38928 -4.66919 0
M  V30 42180 H 4115.63 3.91327 -3.89316 0
M  V30 42181 H 4116.11 3.80089 -2.20065 0
M  V30 42182 H 4116.72 2.60077 -3.36511 0
M  V30 42183 N 4115.03 1.41641 0.69106 0
M  V30 42184 C 4115.94 1.46212 1.83464 0
M  V30 42185 C 4116.96 0.352297 1.70396 0
M  V30 42186 O 4118.13 0.600714 1.92233 0
M  V30 42187 C 4115.2 1.34653 3.19483 0
M  V30 42188 C 4114.26 2.5599 3.44627 0
M  V30 42189 C 4113.49 2.44973 4.74156 0
M  V30 42190 O 4113.71 1.47674 5.50952 0
M  V30 42191 O 4112.65 3.34813 5.00184 0
M  V30 42192 H 4116.47 2.42702 1.82564 0
M  V30 42193 H 4114.06 1.23228 0.844707 0
M  V30 42194 H 4115.94 1.30508 4.00681 0
M  V30 42195 H 4114.62 0.412816 3.21057 0
M  V30 42196 H 4113.52 2.65711 2.63341 0
M  V30 42197 H 4114.86 3.48205 3.47871 0
M  V30 42198 N 4116.51 -0.925766 1.27543 0
M  V30 42199 C 4117.76 -1.67366 1.13995 0
M  V30 42200 C 4118.08 -1.91951 -0.313838 0
M  V30 42201 O 4117.34 -1.50925 -1.2458 0
M  V30 42202 C 4117.64 -3.04517 1.87093 0
M  V30 42203 C 4117.3 -2.99635 3.36941 0
M  V30 42204 C 4115.97 -2.98011 3.77813 0
M  V30 42205 C 4118.32 -2.90781 4.32546 0
M  V30 42206 C 4115.65 -2.85318 5.12651 0
M  V30 42207 C 4118 -2.79629 5.67442 0
M  V30 42208 C 4116.66 -2.76355 6.07605 0
M  V30 42209 H 4115.93 -0.612436 0.417136 0
M  V30 42210 H 4118.58 -1.07949 1.58175 0
M  V30 42211 H 4116.88 -3.6765 1.35427 0
M  V30 42212 H 4118.58 -3.61265 1.74037 0
M  V30 42213 H 4115.17 -3.01688 3.04438 0
M  V30 42214 H 4119.35 -2.91132 4.0194 0
M  V30 42215 H 4114.61 -2.81171 5.42911 0
M  V30 42216 H 4118.78 -2.71743 6.41193 0
M  V30 42217 H 4116.41 -2.66277 7.1204 0
M  V30 42218 N 4117.99 -1.09597 -1.13253 0
M  V30 42219 C 4118.92 -0.680896 -2.17805 0
M  V30 42220 C 4119.9 0.313483 -1.5955 0
M  V30 42221 O 4121.08 0.214441 -1.87276 0
M  V30 42222 C 4118.21 -0.00335797 -3.387 0
M  V30 42223 C 4117.25 -0.959826 -4.15559 0
M  V30 42224 S 4118.09 -2.47279 -4.74988 0
M  V30 42225 C 4119.24 -1.80771 -5.99227 0
M  V30 42226 H 4119.48 -1.56658 -2.52677 0
M  V30 42227 H 4117.01 -0.912122 -1.24578 0
M  V30 42228 H 4118.97 0.38125 -4.08726 0
M  V30 42229 H 4117.63 0.858999 -3.02126 0
M  V30 42230 H 4116.82 -0.432863 -5.02138 0
M  V30 42231 H 4116.42 -1.28592 -3.51198 0
M  V30 42232 H 4118.72 -1.1328 -6.67963 0
M  V30 42233 H 4119.66 -2.65271 -6.56534 0
M  V30 42234 H 4120.07 -1.27589 -5.49892 0
M  V30 42235 N 4119.46 1.30512 -0.883424 0
M  V30 42236 C 4120.7 1.97993 -0.507768 0
M  V30 42237 C 4121.07 1.68223 0.925467 0
M  V30 42238 O 4122.27 2.29025 1.40716 0
M  V30 42239 C 4120.54 3.48937 -0.773142 0
M  V30 42240 S 4122.1 4.35949 -0.499357 0
M  V30 42241 H 4118.92 0.685421 -0.188993 0
M  V30 42242 H 4121.52 1.58652 -1.14235 0
M  V30 42243 H 4120.22 3.68095 -1.81478 0
M  V30 42244 H 4119.75 3.93198 -0.126054 0
M  V30 42245 H 4121.77 4.91755 0.662685 0
M  V30 42246 N 4120.94 0.644219 1.43832 0
M  V30 42247 C 4121.89 -0.0648775 2.3251 0
M  V30 42248 C 4122.88 -0.822379 1.48099 0
M  V30 42249 O 4124.09 -0.733798 1.64364 0
M  V30 42250 H 4120.47 -0.0397592 0.750948 0
M  V30 42251 H 4122.44 0.700908 2.90051 0
M  V30 42252 C 4121.19 -1.02386 3.32284 0
M  V30 42253 H 4120.51 -0.4504 3.97255 0
M  V30 42254 H 4121.95 -1.48926 3.96985 0
M  V30 42255 C 4120.41 -2.11551 2.62198 0
M  V30 42256 O 4120.94 -3.19811 2.43072 0
M  V30 42257 N 4119.14 -1.87853 2.2172 0
M  V30 42258 H 4118.69 -0.998147 2.37476 0
M  V30 42259 H 4118.65 -2.6109 1.75155 0
M  V30 42260 N 4122.42 -1.52811 0.385571 0
M  V30 42261 C 4123.37 -2.27878 -0.466298 0
M  V30 42262 C 4124.36 -1.31631 -1.06628 0
M  V30 42263 O 4125.57 -1.49184 -1.00719 0
M  V30 42264 H 4121.94 -0.732735 -0.169124 0
M  V30 42265 H 4123.91 -2.97805 0.188345 0
M  V30 42266 C 4122.66 -3.0955 -1.58348 0
M  V30 42267 H 4121.99 -3.83465 -1.13112 0
M  V30 42268 H 4123.43 -3.6522 -2.15384 0
M  V30 42269 C 4121.89 -2.21629 -2.53737 0
M  V30 42270 O 4122.42 -1.84055 -3.57053 0
M  V30 42271 N 4120.62 -1.85863 -2.2339 0
M  V30 42272 H 4120.17 -2.16618 -1.39408 0
M  V30 42273 H 4120.13 -1.27326 -2.87464 0
M  V30 42274 N 4123.9 -0.115287 -1.57178 0
M  V30 42275 C 4125.31 0.241317 -1.57765 0
M  V30 42276 C 4125.51 1.66983 -1.12778 0
M  V30 42277 O 4124.57 2.39038 -0.813461 0
M  V30 42278 C 4125.88 0.0113762 -3.00698 0
M  V30 42279 C 4127.43 0.0775637 -3.12904 0
M  V30 42280 C 4127.91 -0.124637 -4.5783 0
M  V30 42281 N 4129.4 -0.0704812 -4.63146 0
M  V30 42282 C 4130.13 -0.201891 -5.73044 0
M  V30 42283 N 4129.63 -0.389264 -6.91706 0
M  V30 42284 N 4131.42 -0.141728 -5.61921 0
M  V30 42285 H 4123.57 -1.04839 -1.84723 0
M  V30 42286 H 4125.84 -0.412532 -0.853534 0
M  V30 42287 H 4125.54 -0.976055 -3.37885 0
M  V30 42288 H 4125.42 0.744882 -3.69772 0
M  V30 42289 H 4127.8 1.05552 -2.75577 0
M  V30 42290 H 4127.88 -0.687762 -2.46381 0
M  V30 42291 H 4127.53 -1.09955 -4.95855 0
M  V30 42292 H 4127.46 0.660629 -5.2244 0
M  V30 42293 H 4129.95 0.0709778 -3.77833 0
M  V30 42294 H 4130.26 -0.480501 -7.71305 0
M  V30 42295 H 4128.61 -0.425191 -6.93698 0
M  V30 42296 H 4131.8 0.00366645 -4.681 0
M  V30 42297 H 4131.97 -0.247584 -6.47527 0
M  V30 42298 N 4125.38 1.56801 0.158477 0
M  V30 42299 C 4126.79 1.51208 0.510716 0
M  V30 42300 C 4126.99 0.821765 1.83982 0
M  V30 42301 O 4126.05 0.387488 2.49509 0
M  V30 42302 C 4127.36 2.95963 0.531616 0
M  V30 42303 C 4128.91 3.0684 0.617929 0
M  V30 42304 C 4129.39 4.53079 0.669601 0
M  V30 42305 N 4130.88 4.57377 0.73214 0
M  V30 42306 C 4131.61 5.67891 0.792911 0
M  V30 42307 N 4131.11 6.88005 0.81373 0
M  V30 42308 N 4132.9 5.55895 0.832916 0
M  V30 42309 H 4125.05 2.0008 -0.712876 0
M  V30 42310 H 4127.31 0.912051 -0.258588 0
M  V30 42311 H 4127.02 3.49678 -0.376556 0
M  V30 42312 H 4126.89 3.51301 1.3736 0
M  V30 42313 H 4129.28 2.53151 1.51652 0
M  V30 42314 H 4129.36 2.54566 -0.250978 0
M  V30 42315 H 4129.01 5.07402 -0.224789 0
M  V30 42316 H 4128.94 5.03123 1.55484 0
M  V30 42317 H 4131.43 3.70903 0.723815 0
M  V30 42318 H 4131.74 7.67982 0.861631 0
M  V30 42319 H 4130.09 6.90589 0.781794 0
M  V30 42320 H 4133.28 4.60973 0.813741 0
M  V30 42321 H 4133.45 6.4204 0.876813 0
M  V30 42322 N 4126.86 -0.427458 1.51692 0
M  V30 42323 C 4128.1 -1.18542 1.66514 0
M  V30 42324 C 4128.46 -1.88244 0.377918 0
M  V30 42325 O 4129.66 -2.65777 0.402024 0
M  V30 42326 C 4127.93 -2.16769 2.84159 0
M  V30 42327 S 4129.49 -3.00919 3.19364 0
M  V30 42328 H 4126.31 -0.401854 0.586544 0
M  V30 42329 H 4128.91 -0.475469 1.8963 0
M  V30 42330 H 4127.61 -1.64218 3.76113 0
M  V30 42331 H 4127.15 -2.9233 2.63262 0
M  V30 42332 H 4129.16 -4.18519 2.66564 0
M  V30 42333 N 4128.33 -1.42005 -0.683539 0
M  V30 42334 C 4129.58 -1.41303 -1.43932 0
M  V30 42335 C 4129.9 -0.0296949 -1.95577 0
M  V30 42336 O 4131.1 0.0999382 -2.71316 0
M  V30 42337 C 4129.56 -2.48511 -2.60327 0
M  V30 42338 C 4129.17 -3.9281 -2.15417 0
M  V30 42339 C 4130.91 -2.56963 -3.37891 0
M  V30 42340 C 4128.82 -4.91545 -3.28842 0
M  V30 42341 H 4127.75 -0.525525 -0.540684 0
M  V30 42342 H 4130.4 -1.67878 -0.740885 0
M  V30 42343 H 4128.78 -2.15087 -3.32496 0
M  V30 42344 H 4129.95 -4.35544 -1.50458 0
M  V30 42345 H 4128.27 -3.88129 -1.50815 0
M  V30 42346 H 4130.87 -3.2791 -4.22349 0
M  V30 42347 H 4131.21 -1.61034 -3.83893 0
M  V30 42348 H 4131.74 -2.89539 -2.72786 0
M  V30 42349 H 4128.48 -5.88921 -2.8784 0
M  V30 42350 H 4128 -4.53449 -3.92611 0
M  V30 42351 H 4129.68 -5.1286 -3.94441 0
M  V30 42352 N 4129.81 0.918989 -1.28033 0
M  V30 42353 C 4131.22 1.48262 -1.13469 0
M  V30 42354 C 4131.57 1.94232 0.277206 0
M  V30 42355 O 4130.7 1.81981 1.17097 0
M  V30 42356 C 4131.29 2.69459 -2.05371 0
M  V30 42357 C 4129.85 3.22018 -1.94887 0
M  V30 42358 C 4129 1.94735 -1.97417 0
M  V30 42359 H 4131.95 0.732221 -1.40798 0
M  V30 42360 H 4131.97 3.44543 -1.61463 0
M  V30 42361 H 4131.48 2.35971 -3.08123 0
M  V30 42362 H 4129.58 3.60245 -0.951537 0
M  V30 42363 H 4129.7 3.87623 -2.81577 0
M  V30 42364 H 4128.06 2.11607 -1.41756 0
M  V30 42365 H 4128.84 1.63549 -3.01839 0
M  V30 42366 N 4131.29 1.10196 1.12671 0
M  V30 42367 C 4132.71 0.833249 1.36122 0
M  V30 42368 C 4132.91 -0.548535 1.9389 0
M  V30 42369 O 4131.96 -1.30188 2.1635 0
M  V30 42370 C 4133.27 1.93093 2.30511 0
M  V30 42371 C 4134.82 1.95909 2.44108 0
M  V30 42372 C 4135.3 3.04844 3.4181 0
M  V30 42373 N 4136.79 3.04135 3.49366 0
M  V30 42374 C 4137.52 3.85065 4.24868 0
M  V30 42375 N 4137.02 4.75925 5.03456 0
M  V30 42376 N 4138.81 3.73293 4.20249 0
M  V30 42377 H 4130.96 1.99267 0.735297 0
M  V30 42378 H 4133.23 0.865801 0.386125 0
M  V30 42379 H 4132.93 2.92535 1.95234 0
M  V30 42380 H 4132.81 1.81598 3.30608 0
M  V30 42381 H 4135.19 0.971019 2.78667 0
M  V30 42382 H 4135.27 2.11481 1.43908 0
M  V30 42383 H 4134.92 4.03869 3.07981 0
M  V30 42384 H 4134.85 2.86514 4.41834 0
M  V30 42385 H 4137.34 2.38295 2.93299 0
M  V30 42386 H 4137.65 5.34241 5.58396 0
M  V30 42387 H 4136 4.79955 5.02661 0
M  V30 42388 H 4139.19 3.01664 3.57934 0
M  V30 42389 H 4139.36 4.36601 4.78836 0
M  V30 42390 N 4132.77 -1.30042 0.890333 0
M  V30 42391 C 4133.68 -2.31738 0.365307 0
M  V30 42392 C 4134.69 -1.65565 -0.53519 0
M  V30 42393 O 4135.87 -1.96821 -0.427023 0
M  V30 42394 C 4132.93 -3.44303 -0.406949 0
M  V30 42395 C 4132 -4.26091 0.523943 0
M  V30 42396 C 4131.23 -5.33281 -0.211551 0
M  V30 42397 O 4131.45 -5.52006 -1.43687 0
M  V30 42398 O 4130.39 -6.00282 0.441104 0
M  V30 42399 H 4134.21 -2.78608 1.20877 0
M  V30 42400 H 4131.8 -1.34308 0.654343 0
M  V30 42401 H 4133.68 -4.12861 -0.844002 0
M  V30 42402 H 4132.35 -2.99559 -1.22662 0
M  V30 42403 H 4131.26 -3.6021 1.00992 0
M  V30 42404 H 4132.59 -4.74453 1.30977 0
M  V30 42405 N 4134.25 -0.651838 -1.43488 0
M  V30 42406 C 4135.49 -0.164668 -2.01829 0
M  V30 42407 C 4135.82 1.22087 -1.5141 0
M  V30 42408 O 4135.08 1.82864 -0.697094 0
M  V30 42409 C 4135.37 -0.122948 -3.57188 0
M  V30 42410 C 4135.04 -1.45005 -4.26948 0
M  V30 42411 C 4133.7 -1.81347 -4.45721 0
M  V30 42412 C 4136.05 -2.32509 -4.66464 0
M  V30 42413 C 4133.38 -3.04862 -5.01275 0
M  V30 42414 C 4135.73 -3.55315 -5.23387 0
M  V30 42415 C 4134.4 -3.91854 -5.40376 0
M  V30 42416 H 4133.67 -0.0602562 -0.738546 0
M  V30 42417 H 4136.32 -0.842271 -1.71983 0
M  V30 42418 H 4134.62 0.638101 -3.86569 0
M  V30 42419 H 4136.32 0.27084 -4.00084 0
M  V30 42420 H 4132.91 -1.15728 -4.1268 0
M  V30 42421 H 4137.09 -2.05723 -4.51655 0
M  V30 42422 H 4132.35 -3.33222 -5.12614 0
M  V30 42423 H 4136.52 -4.23338 -5.52954 0
M  V30 42424 H 4134.15 -4.87642 -5.83189 0
M  V30 42425 N 4135.72 1.52604 -0.39367 0
M  V30 42426 C 4136.97 2.00818 0.188388 0
M  V30 42427 C 4137.29 1.28425 1.47535 0
M  V30 42428 O 4138.49 1.67373 2.13772 0
M  V30 42429 C 4136.95 3.57821 0.386278 0
M  V30 42430 C 4136.56 4.39117 -0.887684 0
M  V30 42431 C 4138.3 4.14311 0.924464 0
M  V30 42432 C 4136.21 5.8773 -0.657832 0
M  V30 42433 H 4135.14 0.750343 0.0741762 0
M  V30 42434 H 4137.79 1.76074 -0.51674 0
M  V30 42435 H 4136.17 3.78832 1.15336 0
M  V30 42436 H 4137.34 4.29872 -1.65972 0
M  V30 42437 H 4135.66 3.93869 -1.35114 0
M  V30 42438 H 4138.26 5.23005 1.11221 0
M  V30 42439 H 4138.6 3.7068 1.89477 0
M  V30 42440 H 4139.13 3.97209 0.216838 0
M  V30 42441 H 4135.87 6.35692 -1.59926 0
M  V30 42442 H 4135.39 5.99753 0.0751909 0
M  V30 42443 H 4137.07 6.46331 -0.294049 0
M  V30 42444 N 4137.2 0.12362 1.57114 0
M  V30 42445 C 4138.44 -0.536289 1.97239 0
M  V30 42446 C 4138.81 -1.63552 1.00571 0
M  V30 42447 O 4140.01 -2.35466 1.29651 0
M  V30 42448 C 4138.28 -1.051 3.41597 0
M  V30 42449 S 4139.84 -1.71879 4.03737 0
M  V30 42450 H 4136.65 -0.174168 0.689338 0
M  V30 42451 H 4139.26 0.209797 1.94371 0
M  V30 42452 H 4137.96 -0.239865 4.09698 0
M  V30 42453 H 4137.49 -1.83225 3.48126 0
M  V30 42454 H 4139.51 -3.00483 3.94873 0
M  V30 42455 N 4138.68 -1.56883 -0.15016 0
M  V30 42456 C 4139.63 -1.98972 -1.20469 0
M  V30 42457 C 4140.62 -0.881635 -1.4465 0
M  V30 42458 O 4141.83 -1.06681 -1.4498 0
M  V30 42459 H 4138.2 -0.633343 -0.405438 0
M  V30 42460 H 4140.17 -2.86826 -0.822992 0
M  V30 42461 C 4138.92 -2.38369 -2.53131 0
M  V30 42462 H 4138.25 -3.23185 -2.35354 0
M  V30 42463 H 4139.69 -2.71645 -3.25554 0
M  V30 42464 C 4138.14 -1.23514 -3.13442 0
M  V30 42465 O 4138.67 -0.534171 -3.98133 0
M  V30 42466 N 4136.88 -1.00021 -2.72845 0
M  V30 42467 H 4136.43 -1.572 -2.04074 0
M  V30 42468 H 4136.39 -0.233612 -3.13531 0
M  V30 42469 N 4140.16 0.419408 -1.51917 0
M  V30 42470 C 4141.41 1.16499 -1.65144 0
M  V30 42471 C 4141.73 1.91288 -0.378665 0
M  V30 42472 O 4141 1.86287 0.606131 0
M  V30 42473 H 4139.58 0.43304 -0.608675 0
M  V30 42474 H 4142.24 0.479107 -1.8892 0
M  V30 42475 H 4141.34 1.88473 -2.48766 0
M  V30 42476 N 4141.64 1.42366 0.675998 0
M  V30 42477 C 4142.88 1.42983 1.43818 0
M  V30 42478 C 4143.22 0.0456043 1.94146 0
M  V30 42479 O 4142.49 -0.929946 1.70828 0
M  V30 42480 C 4142.77 2.45322 2.63607 0
M  V30 42481 C 4142.63 3.92931 2.18919 0
M  V30 42482 C 4143.95 2.44666 3.65823 0
M  V30 42483 H 4141.06 0.520662 0.521613 0
M  V30 42484 H 4143.71 1.73772 0.76834 0
M  V30 42485 H 4141.86 2.19199 3.20756 0
M  V30 42486 H 4143.53 4.30031 1.66947 0
M  V30 42487 H 4141.77 4.06855 1.50504 0
M  V30 42488 H 4142.44 4.60114 3.04957 0
M  V30 42489 H 4144.92 2.67895 3.18389 0
M  V30 42490 H 4143.79 3.18253 4.4722 0
M  V30 42491 H 4144.06 1.4722 4.16868 0
M  V30 42492 N 4143.11 -0.912187 1.28518 0
M  V30 42493 C 4144.39 -1.64088 1.06463 0
M  V30 42494 C 4144.77 -2.07362 -0.395485 0
M  V30 42495 O 4144.12 -1.8198 -1.38187 0
M  V30 42496 C 4144.33 -2.8312 2.04069 0
M  V30 42497 C 4145.68 -3.54102 2.34302 0
M  V30 42498 O 4146.7 -2.9327 2.02166 0
M  V30 42499 O 4145.56 -4.63737 2.89154 0
M  V30 42500 H 4142.65 -0.719919 0.406996 0
M  V30 42501 H 4145.2 -0.961354 1.39843 0
M  V30 42502 H 4143.97 -2.48248 3.02471 0
M  V30 42503 H 4143.6 -3.58785 1.71344 0
M  V30 42504 N 4144.59 -1.10792 -1.12085 0
M  V30 42505 C 4145.54 -0.75504 -2.20004 0
M  V30 42506 C 4146.53 0.250471 -1.67538 0
M  V30 42507 O 4147.74 0.110454 -1.79661 0
M  V30 42508 H 4144.12 -0.226249 -0.717158 0
M  V30 42509 H 4146.09 -1.67404 -2.47019 0
M  V30 42510 C 4144.84 -0.207099 -3.47083 0
M  V30 42511 H 4144.16 -0.972059 -3.87803 0
M  V30 42512 H 4145.6 0.00170462 -4.24 0
M  V30 42513 C 4144.06 1.06106 -3.19755 0
M  V30 42514 O 4144.59 2.14194 -3.39829 0
M  V30 42515 N 4142.79 0.981164 -2.73535 0
M  V30 42516 H 4142.34 0.101473 -2.574 0
M  V30 42517 H 4142.3 1.83036 -2.55627 0
M  V30 42518 N 4146.07 1.29568 -0.897217 0
M  V30 42519 C 4147.31 1.97443 -0.52874 0
M  V30 42520 C 4147.67 1.69195 0.907573 0
M  V30 42521 O 4148.88 2.30504 1.38279 0
M  V30 42522 C 4147.15 3.48098 -0.810108 0
M  V30 42523 S 4148.71 4.35395 -0.545568 0
M  V30 42524 H 4145.52 0.683378 -0.196253 0
M  V30 42525 H 4148.13 1.57432 -1.15912 0
M  V30 42526 H 4146.83 3.66149 -1.85372 0
M  V30 42527 H 4146.36 3.93042 -0.167751 0
M  V30 42528 H 4148.38 4.9243 0.610491 0
M  V30 42529 N 4147.55 0.659438 1.4314 0
M  V30 42530 C 4148.5 -0.0508156 2.27943 0
M  V30 42531 C 4149.48 -0.78869 1.40244 0
M  V30 42532 O 4150.67 -0.670132 1.63824 0
M  V30 42533 C 4147.8 -1.01219 3.28039 0
M  V30 42534 C 4146.89 -0.272463 4.23224 0
M  V30 42535 N 4147.28 0.714376 5.0073 0
M  V30 42536 C 4145.58 -0.513052 4.43039 0
M  V30 42537 C 4146.28 1.15401 5.70138 0
M  V30 42538 N 4145.26 0.487013 5.41414 0
M  V30 42539 H 4149.06 0.706344 2.85286 0
M  V30 42540 H 4146.57 0.487228 1.54919 0
M  V30 42541 H 4148.57 -1.53587 3.87578 0
M  V30 42542 H 4147.23 -1.76934 2.72258 0
M  V30 42543 H 4148.24 1.09334 5.06228 0
M  V30 42544 H 4144.92 -1.25089 3.9832 0
M  V30 42545 H 4146.31 1.9709 6.42343 0
M  V30 42546 N 4149.03 -1.52393 0.401757 0
M  V30 42547 C 4150.3 -1.94188 -0.23461 0
M  V30 42548 C 4150.68 -1.33813 -1.63271 0
M  V30 42549 O 4150.03 -0.511053 -2.22712 0
M  V30 42550 C 4150.24 -3.48115 -0.248393 0
M  V30 42551 C 4151.59 -4.21976 -0.471322 0
M  V30 42552 O 4152.61 -3.54686 -0.328069 0
M  V30 42553 O 4151.47 -5.41287 -0.75304 0
M  V30 42554 H 4148.57 -0.813456 -0.149061 0
M  V30 42555 H 4151.11 -1.63426 0.457167 0
M  V30 42556 H 4149.88 -3.84422 0.730422 0
M  V30 42557 H 4149.51 -3.85217 -0.984576 0
M  V30 42558 N 4150.5 -0.131951 -1.57047 0
M  V30 42559 C 4151.45 0.830648 -2.17263 0
M  V30 42560 C 4152.45 1.26614 -1.1254 0
M  V30 42561 O 4153.65 1.23637 -1.3082 0
M  V30 42562 H 4150.03 0.286025 -0.695481 0
M  V30 42563 H 4152 0.298428 -2.96904 0
M  V30 42564 C 4150.75 2.06577 -2.79681 0
M  V30 42565 H 4150.07 1.73963 -3.59968 0
M  V30 42566 H 4151.51 2.71906 -3.25335 0
M  V30 42567 C 4149.97 2.86399 -1.77418 0
M  V30 42568 O 4150.5 3.8223 -1.23544 0
M  V30 42569 N 4148.71 2.50641 -1.47063 0
M  V30 42570 H 4148.25 1.72777 -1.91065 0
M  V30 42571 H 4148.21 3.04343 -0.788859 0
M  V30 42572 N 4151.98 1.5696 0.141838 0
M  V30 42573 C 4152.93 1.99608 1.19413 0
M  V30 42574 C 4153.92 0.889294 1.4418 0
M  V30 42575 O 4155.13 1.07448 1.44412 0
M  V30 42576 H 4151.51 0.635485 0.402074 0
M  V30 42577 H 4153.48 2.87259 0.80777 0
M  V30 42578 C 4152.23 2.39708 2.51864 0
M  V30 42579 H 4151.55 3.24429 2.33637 0
M  V30 42580 H 4152.99 2.73367 3.24108 0
M  V30 42581 C 4151.45 1.25175 3.12783 0
M  V30 42582 O 4151.98 0.555277 3.97844 0
M  V30 42583 N 4150.18 1.01466 2.7231 0
M  V30 42584 H 4149.73 1.5828 2.03237 0
M  V30 42585 H 4149.69 0.250236 3.13403 0
M  V30 42586 N 4153.46 -0.411345 1.52137 0
M  V30 42587 C 4154.69 -1.18028 1.69932 0
M  V30 42588 C 4155.1 -1.84342 0.407838 0
M  V30 42589 O 4154.46 -1.71791 -0.615951 0
M  V30 42590 C 4154.51 -2.24505 2.83337 0
M  V30 42591 O 4154.23 -1.60898 4.07484 0
M  V30 42592 C 4155.73 -3.14295 3.12624 0
M  V30 42593 H 4152.95 -0.354755 0.569552 0
M  V30 42594 H 4155.5 -0.484243 1.98684 0
M  V30 42595 H 4153.65 -2.8978 2.57111 0
M  V30 42596 H 4154.07 -2.3147 4.70661 0
M  V30 42597 H 4155.54 -3.85084 3.95493 0
M  V30 42598 H 4156.02 -3.7654 2.26084 0
M  V30 42599 H 4156.62 -2.54691 3.40606 0
M  V30 42600 N 4154.94 -1.42722 -0.668439 0
M  V30 42601 C 4156.16 -1.4715 -1.46156 0
M  V30 42602 C 4156.59 -0.0860982 -1.87903 0
M  V30 42603 O 4155.95 0.916863 -1.56408 0
M  V30 42604 C 4156 -2.40953 -2.68279 0
M  V30 42605 O 4155.1 -1.88529 -3.66784 0
M  V30 42606 H 4154.44 -0.498319 -0.438833 0
M  V30 42607 H 4156.97 -1.87479 -0.81932 0
M  V30 42608 H 4156.98 -2.57748 -3.16275 0
M  V30 42609 H 4155.66 -3.41603 -2.37234 0
M  V30 42610 H 4154.23 -1.81321 -3.25848 0
M  V30 42611 N 4156.42 0.905358 -1.29 0
M  V30 42612 C 4157.69 1.63521 -1.07332 0
M  V30 42613 C 4158.07 2.07569 0.384482 0
M  V30 42614 O 4157.42 1.8271 1.3722 0
M  V30 42615 C 4157.63 2.82033 -2.05568 0
M  V30 42616 C 4158.98 3.52854 -2.36176 0
M  V30 42617 O 4160 2.92194 -2.03718 0
M  V30 42618 O 4158.86 4.62197 -2.91609 0
M  V30 42619 H 4155.96 0.71775 -0.410809 0
M  V30 42620 H 4158.5 0.953924 -1.40351 0
M  V30 42621 H 4157.28 2.4664 -3.03783 0
M  V30 42622 H 4156.9 3.57872 -1.73245 0
M  V30 42623 N 4157.9 1.11385 1.11495 0
M  V30 42624 C 4158.81 0.784354 2.211 0
M  V30 42625 C 4159.82 -0.222283 1.72574 0
M  V30 42626 O 4161 -0.0585966 2.01315 0
M  V30 42627 C 4158.06 0.231774 3.45924 0
M  V30 42628 C 4157.12 1.29694 4.09241 0
M  V30 42629 C 4156.36 0.770635 5.28107 0
M  V30 42630 O 4156.58 -0.399516 5.68999 0
M  V30 42631 O 4155.51 1.53516 5.81994 0
M  V30 42632 H 4159.34 1.6995 2.51696 0
M  V30 42633 H 4156.92 0.889693 1.2002 0
M  V30 42634 H 4158.81 -0.0720507 4.21338 0
M  V30 42635 H 4157.48 -0.65609 3.16981 0
M  V30 42636 H 4156.39 1.65377 3.35561 0
M  V30 42637 H 4157.72 2.15817 4.42361 0
M  V30 42638 N 4159.37 -1.2909 0.904076 0
M  V30 42639 C 4160.32 -2.27591 0.38355 0
M  V30 42640 C 4161.29 -1.57189 -0.536731 0
M  V30 42641 O 4162.48 -1.85146 -0.461025 0
M  V30 42642 C 4159.62 -3.43013 -0.37899 0
M  V30 42643 C 4158.73 -4.28187 0.572686 0
M  V30 42644 C 4157.86 -5.30795 -0.207341 0
M  V30 42645 C 4156.9 -6.07628 0.738577 0
M  V30 42646 N 4156.04 -7.021 -0.00731897 0
M  V30 42647 H 4160.88 -2.71495 1.2286 0
M  V30 42648 H 4158.42 -1.33527 0.617169 0
M  V30 42649 H 4160.37 -4.08714 -0.837198 0
M  V30 42650 H 4159 -3.00126 -1.18846 0
M  V30 42651 H 4158.06 -3.62619 1.14942 0
M  V30 42652 H 4159.37 -4.81654 1.29657 0
M  V30 42653 H 4158.52 -6.02334 -0.72655 0
M  V30 42654 H 4157.26 -4.78071 -0.964333 0
M  V30 42655 H 4156.27 -5.34949 1.26925 0
M  V30 42656 H 4157.49 -6.62441 1.49497 0
M  V30 42657 H 4155.44 -6.51739 -0.746498 0
M  V30 42658 H 4155.35 -7.53144 0.656571 0
M  V30 42659 H 4156.62 -7.77852 -0.506648 0
M  V30 42660 N 4160.85 -0.66702 -1.42789 0
M  V30 42661 C 4161.8 0.027879 -2.32583 0
M  V30 42662 C 4162.79 0.798714 -1.49388 0
M  V30 42663 O 4164 0.707556 -1.6551 0
M  V30 42664 H 4160.37 0.0278072 -0.751486 0
M  V30 42665 H 4162.35 -0.746964 -2.889 0
M  V30 42666 C 4161.09 0.970863 -3.33871 0
M  V30 42667 H 4160.42 0.387143 -3.97921 0
M  V30 42668 H 4161.86 1.42592 -3.99304 0
M  V30 42669 C 4160.32 2.07353 -2.6553 0
M  V30 42670 O 4160.85 3.15904 -2.48129 0
M  V30 42671 N 4159.05 1.84301 -2.24681 0
M  V30 42672 H 4158.6 0.96024 -2.39034 0
M  V30 42673 H 4158.56 2.58271 -1.79287 0
M  V30 42674 N 4162.33 1.52178 -0.409833 0
M  V30 42675 C 4163.57 2.03731 0.16524 0
M  V30 42676 C 4163.93 1.28876 1.4232 0
M  V30 42677 O 4165.13 1.70659 2.07675 0
M  V30 42678 C 4163.41 3.55083 0.406305 0
M  V30 42679 S 4164.96 4.28421 0.948724 0
M  V30 42680 H 4161.78 0.709593 0.0447136 0
M  V30 42681 H 4164.38 1.87221 -0.562914 0
M  V30 42682 H 4163.09 4.07143 -0.516023 0
M  V30 42683 H 4162.62 3.75838 1.16231 0
M  V30 42684 H 4164.63 4.43307 2.2292 0
M  V30 42685 N 4163.81 0.140278 1.56974 0
M  V30 42686 C 4165.22 -0.381656 1.82757 0
M  V30 42687 C 4165.57 -1.65189 1.05863 0
M  V30 42688 O 4164.69 -2.14285 0.301806 0
M  V30 42689 C 4165.29 -0.699214 3.31506 0
M  V30 42690 C 4163.85 -1.1657 3.57895 0
M  V30 42691 C 4163 -0.185302 2.7668 0
M  V30 42692 H 4165.95 0.365085 1.54444 0
M  V30 42693 H 4165.97 -1.55456 3.47295 0
M  V30 42694 H 4165.48 0.225462 3.87445 0
M  V30 42695 H 4163.58 -2.10654 3.07336 0
M  V30 42696 H 4163.69 -1.09631 4.66388 0
M  V30 42697 H 4162.06 -0.676599 2.45549 0
M  V30 42698 H 4162.84 0.732846 3.35387 0
M  V30 42699 N 4165.29 -1.57033 -0.133512 0
M  V30 42700 C 4166.56 -1.75023 -0.873297 0
M  V30 42701 C 4166.94 -0.711905 -1.98734 0
M  V30 42702 O 4166.29 0.266783 -2.26937 0
M  V30 42703 C 4166.5 -3.19542 -1.40335 0
M  V30 42704 C 4167.85 -3.81622 -1.86144 0
M  V30 42705 O 4168.87 -3.23055 -1.50047 0
M  V30 42706 O 4167.73 -4.84536 -2.52758 0
M  V30 42707 H 4164.83 -0.716113 -0.413656 0
M  V30 42708 H 4167.37 -1.69287 -0.118383 0
M  V30 42709 H 4166.14 -3.8662 -0.603382 0
M  V30 42710 H 4165.77 -3.29758 -2.22139 0
M  V30 42711 N 4166.76 0.403271 -1.52353 0
M  V30 42712 C 4168.18 0.742318 -1.41286 0
M  V30 42713 C 4168.38 1.94622 -0.52198 0
M  V30 42714 O 4167.44 2.52498 0.0100103 0
M  V30 42715 C 4168.75 0.990769 -2.83909 0
M  V30 42716 C 4170.3 1.09312 -2.93291 0
M  V30 42717 C 4170.77 1.3743 -4.36895 0
M  V30 42718 N 4172.26 1.44282 -4.40156 0
M  V30 42719 C 4173 1.67676 -5.48336 0
M  V30 42720 N 4172.49 1.88635 -6.66625 0
M  V30 42721 N 4174.29 1.69739 -5.35859 0
M  V30 42722 H 4166.44 -0.389114 -2.08805 0
M  V30 42723 H 4168.7 -0.11183 -0.941381 0
M  V30 42724 H 4168.41 0.178449 -3.51247 0
M  V30 42725 H 4168.28 1.90935 -3.25306 0
M  V30 42726 H 4170.67 1.89603 -2.2613 0
M  V30 42727 H 4170.75 0.152777 -2.55343 0
M  V30 42728 H 4170.39 0.576546 -5.04617 0
M  V30 42729 H 4170.32 2.32726 -4.72384 0
M  V30 42730 H 4172.81 1.29851 -3.5489 0
M  V30 42731 H 4173.13 2.05952 -7.44851 0
M  V30 42732 H 4171.47 1.85888 -6.6968 0
M  V30 42733 H 4174.66 1.52907 -4.42422 0
M  V30 42734 H 4174.84 1.87631 -6.20241 0
M  V30 42735 N 4168.24 1.43075 0.66086 0
M  V30 42736 C 4169.47 1.47712 1.44875 0
M  V30 42737 C 4169.88 0.0926482 1.88573 0
M  V30 42738 O 4169.24 -0.895552 1.59016 0
M  V30 42739 C 4169.29 2.41636 2.68876 0
M  V30 42740 O 4169.01 3.74698 2.27008 0
M  V30 42741 C 4170.51 2.55437 3.62308 0
M  V30 42742 H 4167.73 0.50193 0.445318 0
M  V30 42743 H 4170.28 1.87738 0.810849 0
M  V30 42744 H 4168.43 2.04826 3.28824 0
M  V30 42745 H 4168.85 4.25134 3.07183 0
M  V30 42746 H 4170.32 3.25249 4.46001 0
M  V30 42747 H 4170.8 1.59678 4.09145 0
M  V30 42748 H 4171.4 2.93027 3.08246 0
M  V30 42749 N 4169.72 -0.898504 1.29478 0
M  V30 42750 C 4170.96 -1.66339 1.18788 0
M  V30 42751 C 4171.32 -1.90283 -0.256229 0
M  V30 42752 O 4172.53 -2.64368 -0.486128 0
M  V30 42753 C 4170.8 -2.97544 1.97996 0
M  V30 42754 S 4172.36 -3.88574 2.03853 0
M  V30 42755 H 4169.17 -0.571075 0.423549 0
M  V30 42756 H 4171.78 -1.06754 1.6378 0
M  V30 42757 H 4170.48 -2.77832 3.02056 0
M  V30 42758 H 4170.01 -3.62169 1.53613 0
M  V30 42759 H 4172.03 -4.82544 1.15608 0
M  V30 42760 N 4171.2 -1.11974 -1.10903 0
M  V30 42761 C 4172.13 -0.740981 -2.16892 0
M  V30 42762 C 4173.14 0.23007 -1.61166 0
M  V30 42763 O 4174.33 0.0121299 -1.78496 0
M  V30 42764 C 4171.43 -0.0752449 -3.38816 0
M  V30 42765 C 4170.61 -1.07453 -4.23996 0
M  V30 42766 C 4169.66 -0.437317 -5.2438 0
M  V30 42767 O 4168.69 -1.09289 -5.58609 0
M  V30 42768 N 4169.89 0.797374 -5.74998 0
M  V30 42769 H 4172.66 -1.65295 -2.49995 0
M  V30 42770 H 4170.22 -1.0107 -1.26477 0
M  V30 42771 H 4172.21 0.362914 -4.0307 0
M  V30 42772 H 4170.78 0.739401 -3.0373 0
M  V30 42773 H 4170 -1.69047 -3.56113 0
M  V30 42774 H 4171.29 -1.75042 -4.77742 0
M  V30 42775 H 4170.69 1.34905 -5.49379 0
M  V30 42776 H 4169.24 1.17843 -6.41059 0
M  V30 42777 N 4172.68 1.28609 -0.910909 0
M  V30 42778 C 4173.9 1.99761 -0.557719 0
M  V30 42779 C 4174.33 1.67641 0.853118 0
M  V30 42780 O 4173.68 0.90722 1.56969 0
M  V30 42781 C 4173.73 3.52278 -0.77025 0
M  V30 42782 O 4172.84 4.12041 0.172082 0
M  V30 42783 H 4172.18 0.627684 -0.216584 0
M  V30 42784 H 4174.71 1.63832 -1.22557 0
M  V30 42785 H 4174.72 4.02306 -0.679247 0
M  V30 42786 H 4173.39 3.7499 -1.79876 0
M  V30 42787 H 4171.97 3.72886 0.032588 0
M  V30 42788 N 4174.15 0.674583 1.42433 0
M  V30 42789 C 4175.4 0.196368 2.01144 0
M  V30 42790 C 4175.72 -1.20124 1.53607 0
M  V30 42791 O 4174.99 -1.80655 0.757659 0
M  V30 42792 H 4173.57 0.0696068 0.74375 0
M  V30 42793 H 4176.24 0.871043 1.74353 0
M  V30 42794 H 4175.33 0.197481 3.11475 0
M  V30 42795 N 4175.63 -1.51958 0.417898 0
M  V30 42796 C 4176.86 -2.06025 -0.154035 0
M  V30 42797 C 4177.27 -1.28712 -1.38671 0
M  V30 42798 O 4176.61 -0.334605 -1.80627 0
M  V30 42799 C 4176.68 -3.55099 -0.560773 0
M  V30 42800 C 4176.34 -4.53526 0.562388 0
M  V30 42801 C 4177.34 -4.99886 1.42864 0
M  V30 42802 C 4175.02 -4.96855 0.73758 0
M  V30 42803 C 4177.02 -5.88226 2.45496 0
M  V30 42804 C 4174.7 -5.8499 1.7672 0
M  V30 42805 C 4175.7 -6.30571 2.62429 0
M  V30 42806 O 4175.39 -7.1696 3.63626 0
M  V30 42807 H 4175.12 -0.675703 -0.0200246 0
M  V30 42808 H 4177.67 -1.96742 0.590049 0
M  V30 42809 H 4175.9 -3.62098 -1.35727 0
M  V30 42810 H 4177.59 -3.91771 -1.06163 0
M  V30 42811 H 4178.36 -4.67121 1.30474 0
M  V30 42812 H 4174.24 -4.6093 0.0800877 0
M  V30 42813 H 4177.78 -6.23726 3.12429 0
M  V30 42814 H 4173.68 -6.17169 1.89138 0
M  V30 42815 H 4174.45 -7.35092 3.59974 0
M  V30 42816 N 4177.11 -0.1486 -1.56898 0
M  V30 42817 C 4178.34 0.509012 -2.00541 0
M  V30 42818 C 4178.75 1.58313 -1.0287 0
M  V30 42819 O 4178.11 1.82482 -0.0259618 0
M  V30 42820 C 4178.16 1.10819 -3.44095 0
M  V30 42821 O 4177.88 0.076971 -4.38032 0
M  V30 42822 C 4179.38 1.84626 -4.03024 0
M  V30 42823 H 4176.6 0.132367 -0.657815 0
M  V30 42824 H 4179.15 -0.243654 -2.03043 0
M  V30 42825 H 4177.3 1.81147 -3.42439 0
M  V30 42826 H 4177.72 0.516164 -5.21954 0
M  V30 42827 H 4179.19 2.21838 -5.05462 0
M  V30 42828 H 4179.67 2.73277 -3.43826 0
M  V30 42829 H 4180.27 1.18993 -4.08315 0
M  V30 42830 N 4178.59 1.57102 0.125182 0
M  V30 42831 C 4179.54 1.99888 1.15383 0
M  V30 42832 C 4180.51 0.869999 1.41493 0
M  V30 42833 O 4181.69 1.13375 1.53462 0
M  V30 42834 C 4178.83 2.40306 2.47683 0
M  V30 42835 C 4177.94 3.66584 2.28562 0
M  V30 42836 C 4177.08 3.96009 3.54049 0
M  V30 42837 C 4176.12 5.15488 3.30058 0
M  V30 42838 N 4175.25 5.40815 4.47732 0
M  V30 42839 H 4180.09 2.87557 0.781967 0
M  V30 42840 H 4177.63 1.4225 0.37463 0
M  V30 42841 H 4179.59 2.61775 3.24853 0
M  V30 42842 H 4178.22 1.55688 2.82774 0
M  V30 42843 H 4177.27 3.52766 1.42339 0
M  V30 42844 H 4178.58 4.53908 2.06807 0
M  V30 42845 H 4177.74 4.18093 4.3964 0
M  V30 42846 H 4176.48 3.07148 3.78829 0
M  V30 42847 H 4175.48 4.93255 2.42857 0
M  V30 42848 H 4176.71 6.0592 3.06655 0
M  V30 42849 H 4174.65 4.54911 4.72644 0
M  V30 42850 H 4174.57 6.2245 4.2906 0
M  V30 42851 H 4175.84 5.67413 5.34474 0
M  V30 42852 N 4180.07 -0.395186 1.52565 0
M  V30 42853 C 4181.31 -1.14984 1.68991 0
M  V30 42854 C 4181.67 -1.874 0.417762 0
M  V30 42855 O 4182.87 -2.64864 0.458309 0
M  V30 42856 C 4181.14 -2.10692 2.88693 0
M  V30 42857 S 4182.7 -2.94077 3.25675 0
M  V30 42858 H 4179.52 -0.389322 0.594936 0
M  V30 42859 H 4182.12 -0.435139 1.90596 0
M  V30 42860 H 4180.83 -1.56203 3.79511 0
M  V30 42861 H 4180.36 -2.8668 2.69403 0
M  V30 42862 H 4182.37 -4.12771 2.75381 0
M  V30 42863 N 4181.54 -1.43423 -0.653263 0
M  V30 42864 C 4182.49 -1.45024 -1.75932 0
M  V30 42865 C 4183.48 -0.318705 -1.57712 0
M  V30 42866 O 4184.67 -0.562484 -1.67825 0
M  V30 42867 C 4181.8 -1.37596 -3.14519 0
M  V30 42868 C 4180.89 -2.55779 -3.38287 0
M  V30 42869 N 4181.28 -3.81129 -3.32527 0
M  V30 42870 C 4179.57 -2.50502 -3.69005 0
M  V30 42871 C 4180.28 -4.59752 -3.56375 0
M  V30 42872 N 4179.25 -3.90483 -3.78185 0
M  V30 42873 H 4183.05 -2.39812 -1.69904 0
M  V30 42874 H 4180.57 -1.38075 -0.854929 0
M  V30 42875 H 4182.56 -1.36826 -3.93807 0
M  V30 42876 H 4181.22 -0.438286 -3.21728 0
M  V30 42877 H 4182.24 -4.13417 -3.1194 0
M  V30 42878 H 4178.91 -1.65421 -3.8333 0
M  V30 42879 H 4180.3 -5.6877 -3.57701 0
M  V30 42880 N 4183.02 0.891625 -1.29953 0
M  V30 42881 C 4183.97 2.01803 -1.15665 0
M  V30 42882 C 4184.96 1.69254 -0.0701986 0
M  V30 42883 O 4186.17 1.78517 -0.230577 0
M  V30 42884 H 4182.55 0.661575 -0.357523 0
M  V30 42885 H 4184.52 2.10989 -2.11012 0
M  V30 42886 C 4183.27 3.36938 -0.858375 0
M  V30 42887 H 4182.59 3.62491 -1.68644 0
M  V30 42888 H 4184.03 4.16414 -0.798478 0
M  V30 42889 C 4182.49 3.34033 0.43857 0
M  V30 42890 O 4183.02 3.74144 1.46215 0
M  V30 42891 N 4181.22 2.87136 0.447332 0
M  V30 42892 H 4180.77 2.5469 -0.386102 0
M  V30 42893 H 4180.73 2.85576 1.31507 0
M  V30 42894 N 4184.5 1.12561 1.10308 0
M  V30 42895 C 4185.73 0.904933 1.86616 0
M  V30 42896 C 4186.15 -0.540565 1.80165 0
M  V30 42897 O 4185.51 -1.38279 1.17254 0
M  V30 42898 C 4185.56 1.38598 3.32901 0
M  V30 42899 O 4184.66 0.565297 4.08507 0
M  V30 42900 H 4184 0.325023 0.579013 0
M  V30 42901 H 4186.53 1.49803 1.39357 0
M  V30 42902 H 4186.54 1.38563 3.8375 0
M  V30 42903 H 4185.22 2.4385 3.36912 0
M  V30 42904 H 4183.79 0.632747 3.67492 0
M  V30 42905 N 4185.98 -1.28124 0.917717 0
M  V30 42906 C 4186.93 -2.29145 0.399395 0
M  V30 42907 C 4187.92 -1.61508 -0.511016 0
M  V30 42908 O 4189.13 -1.75684 -0.391822 0
M  V30 42909 H 4185.5 -0.743827 0.110566 0
M  V30 42910 H 4187.47 -2.70287 1.26442 0
M  V30 42911 C 4186.22 -3.46017 -0.341709 0
M  V30 42912 H 4185.55 -3.98268 0.349634 0
M  V30 42913 H 4186.99 -4.1869 -0.668961 0
M  V30 42914 C 4185.44 -2.99072 -1.55106 0
M  V30 42915 O 4185.97 -3.01885 -2.65006 0
M  V30 42916 N 4184.18 -2.54685 -1.39942 0
M  V30 42917 H 4183.73 -2.52596 -0.505297 0
M  V30 42918 H 4183.69 -2.23636 -2.20985 0
M  V30 42919 N 4187.46 -0.682127 -1.42073 0
M  V30 42920 C 4188.71 -0.204616 -2.00659 0
M  V30 42921 C 4189.02 1.1983 -1.54597 0
M  V30 42922 O 4190.23 1.77257 -2.05651 0
M  V30 42923 C 4188.68 -0.314943 -3.58519 0
M  V30 42924 C 4188.29 -1.72237 -4.13568 0
M  V30 42925 C 4190.03 0.103481 -4.24374 0
M  V30 42926 C 4187.94 -1.78507 -5.63817 0
M  V30 42927 H 4186.87 -0.0727385 -0.750483 0
M  V30 42928 H 4189.52 -0.848374 -1.62711 0
M  V30 42929 H 4187.9 0.396836 -3.94007 0
M  V30 42930 H 4189.08 -2.46182 -3.89526 0
M  V30 42931 H 4187.39 -2.08929 -3.60191 0
M  V30 42932 H 4189.99 0.0768849 -5.34645 0
M  V30 42933 H 4190.33 1.13998 -4.00387 0
M  V30 42934 H 4190.87 -0.557546 -3.93873 0
M  V30 42935 H 4187.6 -2.80164 -5.92612 0
M  V30 42936 H 4187.12 -1.08928 -5.89826 0
M  V30 42937 H 4188.8 -1.54183 -6.2836 0
M  V30 42938 N 4188.94 1.51735 -0.425951 0
M  V30 42939 C 4190.18 2.03895 0.143622 0
M  V30 42940 C 4190.54 1.30378 1.40945 0
M  V30 42941 O 4191.74 1.72852 2.05854 0
M  V30 42942 C 4190.01 3.55494 0.368621 0
M  V30 42943 S 4191.57 4.29403 0.903231 0
M  V30 42944 H 4188.39 0.710027 0.0371849 0
M  V30 42945 H 4190.99 1.86613 -0.582739 0
M  V30 42946 H 4189.69 4.06573 -0.559177 0
M  V30 42947 H 4189.23 3.77049 1.12238 0
M  V30 42948 H 4191.24 4.45647 2.18205 0
M  V30 42949 N 4190.41 0.156919 1.56817 0
M  V30 42950 C 4191.66 -0.491715 1.95615 0
M  V30 42951 C 4191.98 -1.65355 1.04484 0
M  V30 42952 O 4193.18 -2.36747 1.32902 0
M  V30 42953 C 4191.64 -0.926161 3.47779 0
M  V30 42954 C 4191.25 0.209288 4.47511 0
M  V30 42955 C 4192.99 -1.54403 3.95424 0
M  V30 42956 C 4190.9 -0.243983 5.90897 0
M  V30 42957 H 4189.83 -0.187468 0.730323 0
M  V30 42958 H 4192.48 0.242851 1.81886 0
M  V30 42959 H 4190.86 -1.71628 3.56875 0
M  V30 42960 H 4192.03 0.986405 4.50119 0
M  V30 42961 H 4190.35 0.73619 4.0984 0
M  V30 42962 H 4192.95 -1.89495 4.99996 0
M  V30 42963 H 4193.29 -2.43666 3.37539 0
M  V30 42964 H 4193.82 -0.818617 3.89286 0
M  V30 42965 H 4190.56 0.613521 6.52623 0
M  V30 42966 H 4190.08 -0.986765 5.91627 0
M  V30 42967 H 4191.76 -0.692687 6.43281 0
M  V30 42968 N 4191.89 -1.57166 -0.116849 0
M  V30 42969 C 4193.3 -1.74119 -0.673762 0
M  V30 42970 C 4193.65 -0.775923 -1.80205 0
M  V30 42971 O 4192.78 0.0506638 -2.16341 0
M  V30 42972 C 4193.37 -3.15724 -1.22898 0
M  V30 42973 C 4191.93 -3.34175 -1.73216 0
M  V30 42974 C 4191.08 -2.69984 -0.63275 0
M  V30 42975 H 4194.03 -1.58325 0.109083 0
M  V30 42976 H 4194.05 -3.17393 -2.09861 0
M  V30 42977 H 4193.56 -3.85954 -0.407569 0
M  V30 42978 H 4191.66 -2.68991 -2.57827 0
M  V30 42979 H 4191.78 -4.42353 -1.84012 0
M  V30 42980 H 4190.14 -2.31278 -1.06689 0
M  V30 42981 H 4190.92 -3.4284 0.177714 0
M  V30 42982 N 4193.37 0.38709 -1.52772 0
M  V30 42983 C 4194.79 0.727291 -1.42066 0
M  V30 42984 C 4194.99 1.94057 -0.542593 0
M  V30 42985 O 4194.04 2.52494 -0.0167711 0
M  V30 42986 C 4195.35 0.960601 -2.84944 0
M  V30 42987 C 4196.9 1.06195 -2.94434 0
M  V30 42988 C 4197.38 1.32788 -4.38328 0
M  V30 42989 N 4198.87 1.39606 -4.41661 0
M  V30 42990 C 4199.6 1.61851 -5.50084 0
M  V30 42991 N 4199.1 1.81554 -6.68588 0
M  V30 42992 N 4200.89 1.64046 -5.37629 0
M  V30 42993 H 4193.04 -0.411239 -2.08381 0
M  V30 42994 H 4195.31 -0.121808 -0.940142 0
M  V30 42995 H 4195.01 0.141185 -3.51417 0
M  V30 42996 H 4194.89 1.87474 -3.27312 0
M  V30 42997 H 4197.27 1.87194 -2.28128 0
M  V30 42998 H 4197.35 0.125686 -2.55491 0
M  V30 42999 H 4197 0.522992 -5.052 0
M  V30 43000 H 4196.93 2.27703 -4.74825 0
M  V30 43001 H 4199.42 1.2608 -3.56248 0
M  V30 43002 H 4199.73 1.9804 -7.46994 0
M  V30 43003 H 4198.08 1.78775 -6.71613 0
M  V30 43004 H 4201.27 1.48205 -4.44019 0
M  V30 43005 H 4201.44 1.81042 -6.22196 0
M  V30 43006 N 4194.85 1.43768 0.645648 0
M  V30 43007 C 4196.09 1.46001 1.40753 0
M  V30 43008 C 4196.43 0.0867754 1.94006 0
M  V30 43009 O 4195.7 -0.893502 1.72762 0
M  V30 43010 C 4195.98 2.50859 2.58344 0
M  V30 43011 C 4195.84 3.97486 2.10535 0
M  V30 43012 C 4197.16 2.52371 3.60551 0
M  V30 43013 H 4194.28 0.531609 0.510452 0
M  V30 43014 H 4196.92 1.75362 0.731307 0
M  V30 43015 H 4195.07 2.25953 3.16034 0
M  V30 43016 H 4196.74 4.33475 1.57788 0
M  V30 43017 H 4194.98 4.09956 1.41841 0
M  V30 43018 H 4195.65 4.66479 2.95129 0
M  V30 43019 H 4198.13 2.74588 3.12635 0
M  V30 43020 H 4197.01 3.27668 4.40369 0
M  V30 43021 H 4197.27 1.56029 4.13651 0
M  V30 43022 N 4196.33 -0.884721 1.30424 0
M  V30 43023 C 4197.56 -1.66725 1.2201 0
M  V30 43024 C 4197.96 -1.87923 -0.219441 0
M  V30 43025 O 4197.31 -1.42696 -1.15687 0
M  V30 43026 C 4197.37 -3.06529 1.87831 0
M  V30 43027 C 4197.03 -3.08501 3.37159 0
M  V30 43028 C 4198.03 -2.8754 4.33148 0
M  V30 43029 C 4195.71 -3.3009 3.7861 0
M  V30 43030 C 4197.71 -2.88125 5.68562 0
M  V30 43031 C 4195.4 -3.30305 5.14142 0
M  V30 43032 C 4196.39 -3.09347 6.08928 0
M  V30 43033 O 4196.08 -3.09378 7.41984 0
M  V30 43034 H 4195.81 -0.527016 0.423356 0
M  V30 43035 H 4198.37 -1.11366 1.72589 0
M  V30 43036 H 4196.6 -3.63552 1.31783 0
M  V30 43037 H 4198.29 -3.66935 1.73533 0
M  V30 43038 H 4199.05 -2.70657 4.02454 0
M  V30 43039 H 4194.93 -3.45439 3.05276 0
M  V30 43040 H 4198.48 -2.71685 6.42521 0
M  V30 43041 H 4194.37 -3.46723 5.44475 0
M  V30 43042 H 4195.14 -3.25542 7.50976 0
M  V30 43043 N 4197.8 -1.13144 -1.09709 0
M  V30 43044 C 4198.73 -0.8287 -2.183 0
M  V30 43045 C 4199.71 0.210703 -1.6879 0
M  V30 43046 O 4200.9 0.0702636 -1.94073 0
M  V30 43047 C 4198.03 -0.290735 -3.46081 0
M  V30 43048 C 4196.98 -1.26405 -4.08908 0
M  V30 43049 C 4196.31 -0.58598 -5.31479 0
M  V30 43050 C 4197.61 -2.6215 -4.51746 0
M  V30 43051 H 4199.3 -1.73672 -2.43882 0
M  V30 43052 H 4196.85 -0.836469 -1.17214 0
M  V30 43053 H 4198.8 -0.0666249 -4.21347 0
M  V30 43054 H 4197.53 0.652659 -3.20012 0
M  V30 43055 H 4196.19 -1.4741 -3.35657 0
M  V30 43056 H 4195.83 0.362795 -5.0169 0
M  V30 43057 H 4195.53 -1.23532 -5.74468 0
M  V30 43058 H 4197.06 -0.371083 -6.09471 0
M  V30 43059 H 4198.47 -2.4513 -5.18251 0
M  V30 43060 H 4196.87 -3.23232 -5.05609 0
M  V30 43061 H 4197.94 -3.20031 -3.64291 0
M  V30 43062 N 4199.28 1.27635 -0.924498 0
M  V30 43063 C 4200.52 1.96277 -0.570501 0
M  V30 43064 C 4200.89 1.71083 0.87148 0
M  V30 43065 O 4202.09 2.33386 1.33359 0
M  V30 43066 C 4200.36 3.46301 -0.883762 0
M  V30 43067 S 4201.92 4.3414 -0.637799 0
M  V30 43068 H 4198.74 0.679062 -0.210704 0
M  V30 43069 H 4201.34 1.54938 -1.19225 0
M  V30 43070 H 4200.04 3.62135 -1.93097 0
M  V30 43071 H 4199.57 3.92598 -0.251083 0
M  V30 43072 H 4201.59 4.93614 0.505902 0
M  V30 43073 N 4200.76 0.689652 1.41709 0
M  V30 43074 C 4202.04 0.146414 1.95051 0
M  V30 43075 C 4202.42 -1.34223 1.62934 0
M  V30 43076 O 4201.77 -2.08574 0.933235 0
M  V30 43077 C 4201.98 0.431388 3.46324 0
M  V30 43078 C 4203.32 0.355922 4.23106 0
M  V30 43079 O 4204.35 0.365967 3.54315 0
M  V30 43080 O 4203.21 0.31092 5.45615 0
M  V30 43081 H 4200.3 0.0115145 0.82692 0
M  V30 43082 H 4202.85 0.765405 1.51458 0
M  V30 43083 H 4201.62 1.46203 3.62961 0
M  V30 43084 H 4201.24 -0.218873 3.96997 0
M  V30 43085 N 4202.24 -1.51507 0.433991 0
M  V30 43086 C 4203.49 -2.0166 -0.133329 0
M  V30 43087 C 4203.81 -1.32029 -1.43504 0
M  V30 43088 O 4203.08 -0.453808 -1.90571 0
M  V30 43089 H 4201.66 -0.74517 -0.0522622 0
M  V30 43090 H 4204.32 -1.86196 0.575932 0
M  V30 43091 H 4203.42 -3.1054 -0.311642 0
M  V30 43092 N 4203.72 -0.165233 -1.56731 0
M  V30 43093 C 4204.99 0.527311 -1.88358 0
M  V30 43094 C 4205.37 1.81728 -1.07415 0
M  V30 43095 O 4204.72 2.27894 -0.166276 0
M  V30 43096 C 4204.93 0.775115 -3.40284 0
M  V30 43097 C 4206.28 1.10782 -4.09893 0
M  V30 43098 O 4207.3 0.86386 -3.45566 0
M  V30 43099 O 4206.16 1.56777 -5.23529 0
M  V30 43100 H 4203.26 0.271083 -0.781309 0
M  V30 43101 H 4205.8 -0.203213 -1.68479 0
M  V30 43102 H 4204.57 -0.137069 -3.9106 0
M  V30 43103 H 4204.2 1.55917 -3.65753 0
M  V30 43104 N 4205.19 1.57226 0.108512 0
M  V30 43105 C 4206.14 2.02096 1.15152 0
M  V30 43106 C 4207.14 0.919676 1.42261 0
M  V30 43107 O 4208.34 1.10487 1.421 0
M  V30 43108 H 4204.72 0.64387 0.388504 0
M  V30 43109 H 4206.69 2.88908 0.746656 0
M  V30 43110 C 4205.44 2.44997 2.46722 0
M  V30 43111 H 4204.76 3.29311 2.26702 0
M  V30 43112 H 4206.2 2.80181 3.18237 0
M  V30 43113 C 4204.66 1.31781 3.10057 0
M  V30 43114 O 4205.19 0.639541 3.96576 0
M  V30 43115 N 4203.4 1.0722 2.70097 0
M  V30 43116 H 4202.94 1.62555 1.99834 0
M  V30 43117 H 4202.9 0.316657 3.12801 0
M  V30 43118 N 4206.67 -0.378982 1.52975 0
M  V30 43119 C 4207.95 -1.13786 1.59098 0
M  V30 43120 C 4208.33 -2.07461 0.390272 0
M  V30 43121 O 4207.68 -2.19911 -0.620605 0
M  V30 43122 C 4207.89 -1.88875 2.93474 0
M  V30 43123 C 4209.24 -2.43883 3.47572 0
M  V30 43124 O 4210.26 -1.99019 2.95415 0
M  V30 43125 O 4209.12 -3.25863 4.3872 0
M  V30 43126 H 4206.21 -0.521201 0.642089 0
M  V30 43127 H 4208.76 -0.383326 1.65314 0
M  V30 43128 H 4207.53 -1.20431 3.72306 0
M  V30 43129 H 4207.15 -2.71267 2.90689 0
M  V30 43130 N 4208.15 -1.44108 -0.638015 0
M  V30 43131 C 4209.39 -1.48045 -1.40933 0
M  V30 43132 C 4209.75 -0.107467 -1.91699 0
M  V30 43133 O 4210.96 -0.0215082 -2.68791 0
M  V30 43134 C 4209.23 -2.50589 -2.54833 0
M  V30 43135 S 4210.79 -2.7352 -3.43121 0
M  V30 43136 H 4207.6 -0.523709 -0.480884 0
M  V30 43137 H 4210.21 -1.80983 -0.739279 0
M  V30 43138 H 4208.91 -3.4906 -2.15837 0
M  V30 43139 H 4208.44 -2.192 -3.26673 0
M  V30 43140 H 4210.46 -2.04594 -4.52057 0
M  V30 43141 N 4209.63 0.877792 -1.30891 0
M  V30 43142 C 4210.88 1.62698 -1.19891 0
M  V30 43143 C 4211.2 1.93456 0.244938 0
M  V30 43144 O 4210.47 1.57604 1.16352 0
M  V30 43145 H 4209.05 0.603131 -0.440729 0
M  V30 43146 H 4211.71 1.05131 -1.64114 0
M  V30 43147 H 4210.81 2.57401 -1.76497 0
M  V30 43148 N 4211.11 1.13725 1.09108 0
M  V30 43149 C 4212.38 0.812045 1.77947 0
M  V30 43150 C 4212.76 -0.695797 1.99303 0
M  V30 43151 O 4212.11 -1.63419 1.59707 0
M  V30 43152 C 4212.32 1.60267 3.10025 0
M  V30 43153 C 4213.67 1.79745 3.84678 0
M  V30 43154 O 4214.69 1.56893 3.19786 0
M  V30 43155 O 4213.55 2.17897 5.01182 0
M  V30 43156 H 4210.65 0.29683 0.771894 0
M  V30 43157 H 4213.19 1.24204 1.15635 0
M  V30 43158 H 4211.96 2.62724 2.89986 0
M  V30 43159 H 4211.59 1.16782 3.80063 0
M  V30 43160 N 4212.58 -1.27143 0.931254 0
M  V30 43161 C 4213.53 -2.28709 0.423676 0
M  V30 43162 C 4214.53 -1.62041 -0.493857 0
M  V30 43163 O 4215.73 -1.76089 -0.373167 0
M  V30 43164 H 4212.11 -0.742613 0.118449 0
M  V30 43165 H 4214.08 -2.6893 1.29302 0
M  V30 43166 C 4212.83 -3.4636 -0.30499 0
M  V30 43167 H 4212.15 -3.97875 0.391856 0
M  V30 43168 H 4213.59 -4.19375 -0.624516 0
M  V30 43169 C 4212.05 -3.007 -1.51925 0
M  V30 43170 O 4212.58 -3.04679 -2.6179 0
M  V30 43171 N 4210.79 -2.56155 -1.37233 0
M  V30 43172 H 4210.33 -2.53117 -0.478478 0
M  V30 43173 H 4210.29 -2.25967 -2.18601 0
M  V30 43174 N 4214.06 -0.697157 -1.41342 0
M  V30 43175 C 4215.29 -0.236392 -2.06048 0
M  V30 43176 C 4215.71 1.10632 -1.52126 0
M  V30 43177 O 4215.07 1.6929 -0.648882 0
M  V30 43178 C 4215.12 -0.206248 -3.6001 0
M  V30 43179 O 4214.22 0.818395 -4.04198 0
M  V30 43180 H 4213.56 -0.115102 -0.653948 0
M  V30 43181 H 4216.09 -0.952463 -1.81078 0
M  V30 43182 H 4216.1 -0.0376455 -4.07983 0
M  V30 43183 H 4214.78 -1.18619 -3.98625 0
M  V30 43184 H 4213.36 0.619018 -3.67726 0
M  V30 43185 N 4215.54 1.51274 -0.44202 0
M  V30 43186 C 4216.82 1.94742 0.183042 0
M  V30 43187 C 4217.2 1.38094 1.59666 0
M  V30 43188 O 4216.55 0.569921 2.21278 0
M  V30 43189 C 4216.76 3.48651 0.156009 0
M  V30 43190 C 4218.1 4.23077 0.359277 0
M  V30 43191 O 4219.13 3.55431 0.233914 0
M  V30 43192 O 4217.99 5.43093 0.609263 0
M  V30 43193 H 4215.08 0.817122 0.127441 0
M  V30 43194 H 4217.63 1.62157 -0.500336 0
M  V30 43195 H 4216.4 3.82351 -0.832088 0
M  V30 43196 H 4216.02 3.87692 0.882096 0
M  V30 43197 N 4217.02 0.173543 1.56642 0
M  V30 43198 C 4217.93 -0.768324 2.21662 0
M  V30 43199 C 4218.95 -1.25142 1.20894 0
M  V30 43200 O 4220.12 -1.30308 1.53563 0
M  V30 43201 C 4217.19 -1.97948 2.84636 0
M  V30 43202 C 4216.25 -1.54305 4.0061 0
M  V30 43203 C 4215.48 -2.69647 4.60572 0
M  V30 43204 O 4215.7 -3.86573 4.19425 0
M  V30 43205 O 4214.64 -2.43594 5.50405 0
M  V30 43206 H 4218.46 -0.2447 3.02713 0
M  V30 43207 H 4216.05 -0.0547584 1.493 0
M  V30 43208 H 4217.93 -2.68776 3.24557 0
M  V30 43209 H 4216.61 -2.49212 2.0658 0
M  V30 43210 H 4215.51 -0.8042 3.65354 0
M  V30 43211 H 4216.85 -1.0773 4.80266 0
M  V30 43212 N 4218.5 -1.57281 -0.100172 0
M  V30 43213 C 4219.45 -2.02704 -1.14078 0
M  V30 43214 C 4220.44 -0.927208 -1.41772 0
M  V30 43215 O 4221.65 -1.11239 -1.41512 0
M  V30 43216 H 4218.02 -0.645921 -0.385084 0
M  V30 43217 H 4219.99 -2.893 -0.731324 0
M  V30 43218 C 4218.74 -2.46302 -2.4542 0
M  V30 43219 H 4218.06 -3.30509 -2.24953 0
M  V30 43220 H 4219.5 -2.81864 -3.16747 0
M  V30 43221 C 4217.96 -1.33423 -3.09354 0
M  V30 43222 O 4218.49 -0.660563 -3.96232 0
M  V30 43223 N 4216.7 -1.0865 -2.69524 0
M  V30 43224 H 4216.25 -1.63613 -1.98969 0
M  V30 43225 H 4216.2 -0.333241 -3.12629 0
M  V30 43226 N 4219.98 0.370864 -1.53174 0
M  V30 43227 C 4221.39 0.947932 -1.60845 0
M  V30 43228 C 4221.74 1.90424 -0.472561 0
M  V30 43229 O 4220.86 2.12637 0.401785 0
M  V30 43230 C 4221.46 1.72602 -2.91537 0
M  V30 43231 C 4220.02 2.25251 -3.01561 0
M  V30 43232 C 4219.16 1.06335 -2.56102 0
M  V30 43233 H 4222.11 0.149824 -1.57991 0
M  V30 43234 H 4222.14 2.5868 -2.79043 0
M  V30 43235 H 4221.65 1.02975 -3.74189 0
M  V30 43236 H 4219.75 2.98136 -2.23485 0
M  V30 43237 H 4219.86 2.53495 -4.06543 0
M  V30 43238 H 4218.23 1.42877 -2.10851 0
M  V30 43239 H 4219.01 0.38215 -3.41166 0
M  V30 43240 N 4221.45 1.44444 0.630363 0
M  V30 43241 C 4222.68 1.50751 1.4171 0
M  V30 43242 C 4223.1 0.132626 1.88334 0
M  V30 43243 O 4222.45 -0.861621 1.6088 0
M  V30 43244 C 4222.5 2.47285 2.6369 0
M  V30 43245 O 4222.23 3.79429 2.19009 0
M  V30 43246 C 4223.73 2.63064 3.56808 0
M  V30 43247 H 4220.95 0.511262 0.434571 0
M  V30 43248 H 4223.49 1.89416 0.770844 0
M  V30 43249 H 4221.65 2.11755 3.24405 0
M  V30 43250 H 4222.06 4.31554 2.98096 0
M  V30 43251 H 4223.53 3.34636 4.39002 0
M  V30 43252 H 4224.01 1.6832 4.05666 0
M  V30 43253 H 4224.62 2.99499 3.01961 0
M  V30 43254 N 4222.93 -0.870838 1.31355 0
M  V30 43255 C 4224.16 -1.65421 1.23772 0
M  V30 43256 C 4224.57 -1.88145 -0.199497 0
M  V30 43257 O 4223.91 -1.43915 -1.14167 0
M  V30 43258 C 4223.97 -3.04519 1.91071 0
M  V30 43259 C 4223.64 -3.04908 3.40412 0
M  V30 43260 C 4224.64 -2.8293 4.36173 0
M  V30 43261 C 4222.32 -3.26056 3.8209 0
M  V30 43262 C 4224.31 -2.82078 5.71586 0
M  V30 43263 C 4222 -3.24833 5.17616 0
M  V30 43264 C 4223 -3.02871 6.12175 0
M  V30 43265 O 4222.69 -3.01491 7.45224 0
M  V30 43266 H 4222.42 -0.522496 0.428922 0
M  V30 43267 H 4224.97 -1.09529 1.7376 0
M  V30 43268 H 4223.2 -3.62134 1.35631 0
M  V30 43269 H 4224.89 -3.65074 1.77415 0
M  V30 43270 H 4225.66 -2.66374 4.05303 0
M  V30 43271 H 4221.54 -3.42181 3.08922 0
M  V30 43272 H 4225.08 -2.64855 6.45366 0
M  V30 43273 H 4220.98 -3.40929 5.48122 0
M  V30 43274 H 4221.75 -3.17559 7.54386 0
M  V30 43275 N 4224.41 -1.14302 -1.08503 0
M  V30 43276 C 4225.65 -0.92099 -1.82475 0
M  V30 43277 C 4226.01 0.542737 -1.84169 0
M  V30 43278 O 4227.21 0.882671 -2.53894 0
M  V30 43279 C 4225.49 -1.50423 -3.24203 0
M  V30 43280 S 4227.04 -1.42363 -4.15064 0
M  V30 43281 H 4223.86 -0.331737 -0.628865 0
M  V30 43282 H 4226.46 -1.45632 -1.30428 0
M  V30 43283 H 4225.17 -2.56271 -3.20551 0
M  V30 43284 H 4224.7 -0.967254 -3.81324 0
M  V30 43285 H 4226.71 -0.408493 -4.94516 0
M  V30 43286 N 4225.89 1.26648 -0.937984 0
M  V30 43287 C 4227.12 1.97994 -0.600499 0
M  V30 43288 C 4227.53 1.69879 0.823808 0
M  V30 43289 O 4226.89 0.96519 1.54888 0
M  V30 43290 C 4226.94 3.51859 -0.829326 0
M  V30 43291 O 4226.66 3.78994 -2.19761 0
M  V30 43292 C 4228.16 4.40449 -0.501951 0
M  V30 43293 H 4225.38 0.631581 -0.226598 0
M  V30 43294 H 4227.92 1.61243 -1.25782 0
M  V30 43295 H 4226.08 3.86782 -0.218664 0
M  V30 43296 H 4226.49 4.73538 -2.25526 0
M  V30 43297 H 4227.97 5.4738 -0.712701 0
M  V30 43298 H 4228.44 4.35577 0.562934 0
M  V30 43299 H 4229.05 4.11063 -1.0912 0
M  V30 43300 N 4227.37 0.704643 1.4097 0
M  V30 43301 C 4228.59 0.248774 2.05399 0
M  V30 43302 C 4229.01 -1.10538 1.53058 0
M  V30 43303 O 4228.37 -1.69255 0.682564 0
M  V30 43304 C 4228.42 0.207857 3.60902 0
M  V30 43305 O 4228.14 1.50853 4.11309 0
M  V30 43306 C 4229.64 -0.267899 4.4249 0
M  V30 43307 H 4226.86 0.113872 0.661267 0
M  V30 43308 H 4229.4 0.959777 1.80578 0
M  V30 43309 H 4227.56 -0.454032 3.8473 0
M  V30 43310 H 4227.97 1.40169 5.05424 0
M  V30 43311 H 4229.45 -0.245392 5.51454 0
M  V30 43312 H 4229.92 -1.30828 4.19262 0
M  V30 43313 H 4230.53 0.363317 4.23745 0
M  V30 43314 N 4228.84 -1.51038 0.450036 0
M  V30 43315 C 4229.79 -2.24925 -0.373176 0
M  V30 43316 C 4230.78 -1.27659 -0.979389 0
M  V30 43317 O 4231.97 -1.5268 -0.895425 0
M  V30 43318 C 4229.1 -3.10394 -1.46664 0
M  V30 43319 C 4228.19 -4.15097 -0.869196 0
M  V30 43320 N 4228.58 -5.058 -0.00209121 0
M  V30 43321 C 4226.87 -4.31305 -1.13543 0
M  V30 43322 C 4227.58 -5.80736 0.334796 0
M  V30 43323 N 4226.55 -5.42853 -0.284789 0
M  V30 43324 H 4230.35 -2.92414 0.295126 0
M  V30 43325 H 4227.87 -1.60258 0.262879 0
M  V30 43326 H 4229.86 -3.61915 -2.06937 0
M  V30 43327 H 4228.52 -2.44451 -2.13715 0
M  V30 43328 H 4229.54 -5.1661 0.365264 0
M  V30 43329 H 4226.21 -3.76586 -1.80249 0
M  V30 43330 H 4227.6 -6.63784 1.04117 0
M  V30 43331 N 4230.32 -0.181847 -1.56547 0
M  V30 43332 C 4231.55 0.46636 -2.01576 0
M  V30 43333 C 4231.97 1.56096 -1.06205 0
M  V30 43334 O 4231.32 1.82385 -0.064663 0
M  V30 43335 C 4231.37 1.03495 -3.46368 0
M  V30 43336 O 4231.09 -0.0159594 -4.38097 0
M  V30 43337 C 4232.6 1.76035 -4.06849 0
M  V30 43338 H 4229.82 0.118384 -0.660474 0
M  V30 43339 H 4232.36 -0.286667 -2.02481 0
M  V30 43340 H 4230.51 1.73843 -3.46204 0
M  V30 43341 H 4230.93 0.405334 -5.22931 0
M  V30 43342 H 4232.4 2.11067 -5.10054 0
M  V30 43343 H 4232.88 2.65923 -3.49545 0
M  V30 43344 H 4233.49 1.10305 -4.10747 0
M  V30 43345 N 4231.8 1.57332 0.09183 0
M  V30 43346 C 4233.04 1.88081 0.800301 0
M  V30 43347 C 4233.4 0.773238 1.75741 0
M  V30 43348 O 4234.61 0.963234 2.50949 0
M  V30 43349 C 4232.88 3.2407 1.5071 0
M  V30 43350 S 4234.44 3.7652 2.2534 0
M  V30 43351 H 4231.25 0.65914 0.266562 0
M  V30 43352 H 4233.86 1.95416 0.0572749 0
M  V30 43353 H 4232.56 4.02598 0.796429 0
M  V30 43354 H 4232.09 3.19882 2.28996 0
M  V30 43355 H 4234.11 3.50198 3.51533 0
M  V30 43356 N 4233.28 -0.362736 1.53369 0
M  V30 43357 C 4234.5 -1.13008 1.73908 0
M  V30 43358 C 4234.93 -1.8218 0.468195 0
M  V30 43359 O 4234.29 -1.71841 -0.577959 0
M  V30 43360 C 4234.33 -2.1339 2.90684 0
M  V30 43361 O 4233.44 -3.20528 2.59491 0
M  V30 43362 H 4232.78 -0.327762 0.577467 0
M  V30 43363 H 4235.31 -0.418991 2.00264 0
M  V30 43364 H 4235.32 -2.56942 3.1693 0
M  V30 43365 H 4233.99 -1.62436 3.82867 0
M  V30 43366 H 4232.57 -2.81928 2.44072 0
M  V30 43367 N 4234.76 -1.44777 -0.622694 0
M  V30 43368 C 4235.98 -1.51726 -1.414 0
M  V30 43369 C 4236.41 -0.145835 -1.87534 0
M  V30 43370 O 4235.76 0.866639 -1.59245 0
M  V30 43371 C 4235.81 -2.49367 -2.60478 0
M  V30 43372 O 4234.92 -2.00102 -3.60601 0
M  V30 43373 H 4234.26 -0.512028 -0.422757 0
M  V30 43374 H 4236.79 -1.89991 -0.759261 0
M  V30 43375 H 4236.8 -2.67679 -3.07915 0
M  V30 43376 H 4235.47 -3.48978 -2.26247 0
M  V30 43377 H 4234.05 -1.91596 -3.19915 0
M  V30 43378 N 4236.23 0.863859 -1.31815 0
M  V30 43379 C 4237.46 1.65526 -1.24964 0
M  V30 43380 C 4237.88 1.87228 0.180927 0
M  V30 43381 O 4237.24 1.41844 1.12916 0
M  V30 43382 C 4237.29 2.99704 -2.00523 0
M  V30 43383 O 4236.39 3.8979 -1.34674 0
M  V30 43384 H 4235.74 0.504993 -0.431136 0
M  V30 43385 H 4238.27 1.07662 -1.73983 0
M  V30 43386 H 4238.28 3.49595 -2.1035 0
M  V30 43387 H 4236.95 2.83229 -3.04555 0
M  V30 43388 H 4235.53 3.48246 -1.33338 0
M  V30 43389 N 4237.71 1.14875 1.07895 0
M  V30 43390 C 4238.62 0.854298 2.18492 0
M  V30 43391 C 4239.64 -0.167267 1.73194 0
M  V30 43392 O 4240.81 0.00547977 2.01399 0
M  V30 43393 C 4237.88 0.341709 3.45012 0
M  V30 43394 C 4236.94 1.42648 4.04907 0
M  V30 43395 C 4236.17 0.938258 5.25388 0
M  V30 43396 O 4236.4 -0.218291 5.69982 0
M  V30 43397 O 4235.33 1.71954 5.76815 0
M  V30 43398 H 4239.16 1.77872 2.46161 0
M  V30 43399 H 4236.74 0.927426 1.17129 0
M  V30 43400 H 4238.62 0.0620314 4.21354 0
M  V30 43401 H 4237.3 -0.554913 3.18908 0
M  V30 43402 H 4236.21 1.75969 3.3013 0
M  V30 43403 H 4237.54 2.29782 4.35271 0
M  V30 43404 N 4239.19 -1.26148 0.944687 0
M  V30 43405 C 4240.44 -1.93588 0.594127 0
M  V30 43406 C 4240.77 -1.7409 -0.867351 0
M  V30 43407 O 4240.02 -1.07342 -1.63634 0
M  V30 43408 C 4240.32 -3.4622 0.886913 0
M  V30 43409 C 4239.99 -3.85862 2.33283 0
M  V30 43410 C 4238.65 -3.96395 2.72808 0
M  V30 43411 C 4241 -4.05671 3.27231 0
M  V30 43412 C 4238.33 -4.24137 4.0537 0
M  V30 43413 C 4240.68 -4.34903 4.59394 0
M  V30 43414 C 4239.34 -4.43651 4.98729 0
M  V30 43415 H 4238.61 -0.708389 0.217406 0
M  V30 43416 H 4241.26 -1.4989 1.19185 0
M  V30 43417 H 4239.57 -3.91254 0.206685 0
M  V30 43418 H 4241.26 -3.9657 0.594398 0
M  V30 43419 H 4237.85 -3.78213 2.01626 0
M  V30 43420 H 4242.04 -3.96958 2.9789 0
M  V30 43421 H 4237.29 -4.29123 4.35503 0
M  V30 43422 H 4241.47 -4.49176 5.32179 0
M  V30 43423 H 4239.09 -4.64901 6.01474 0
M  V30 43424 N 4240.67 -0.712109 -1.40594 0
M  V30 43425 C 4241.6 -0.0179542 -2.29193 0
M  V30 43426 C 4242.61 0.727363 -1.45648 0
M  V30 43427 O 4243.8 0.57532 -1.68974 0
M  V30 43428 C 4240.9 0.998819 -3.23847 0
M  V30 43429 C 4240.08 0.319745 -4.3623 0
M  V30 43430 C 4239.13 1.24142 -5.11347 0
M  V30 43431 O 4238.16 0.727528 -5.64531 0
M  V30 43432 N 4239.36 2.57278 -5.20373 0
M  V30 43433 H 4242.13 -0.778674 -2.89408 0
M  V30 43434 H 4239.69 -0.559459 -1.51927 0
M  V30 43435 H 4241.68 1.6175 -3.7097 0
M  V30 43436 H 4240.25 1.66093 -2.64824 0
M  V30 43437 H 4239.47 -0.47908 -3.91278 0
M  V30 43438 H 4240.76 -0.15177 -5.08574 0
M  V30 43439 H 4240.16 3.0153 -4.7864 0
M  V30 43440 H 4238.71 3.14299 -5.71016 0
M  V30 43441 N 4242.15 1.50797 -0.45804 0
M  V30 43442 C 4243.39 2.04154 0.100341 0
M  V30 43443 C 4243.75 1.33339 1.38148 0
M  V30 43444 O 4244.95 1.77179 2.02141 0
M  V30 43445 C 4243.22 3.56196 0.293132 0
M  V30 43446 S 4244.78 4.31223 0.811945 0
M  V30 43447 H 4241.6 0.710656 0.0221158 0
M  V30 43448 H 4244.2 1.85335 -0.622192 0
M  V30 43449 H 4242.91 4.05295 -0.645291 0
M  V30 43450 H 4242.44 3.79345 1.04215 0
M  V30 43451 H 4244.45 4.50175 2.08703 0
M  V30 43452 N 4243.63 0.190147 1.56449 0
M  V30 43453 C 4244.59 -0.718928 2.17633 0
M  V30 43454 C 4245.59 -1.14457 1.12943 0
M  V30 43455 O 4246.78 -1.05846 1.38355 0
M  V30 43456 C 4243.91 -1.9809 2.7744 0
M  V30 43457 H 4245.1 -0.18598 2.99323 0
M  V30 43458 H 4242.66 -0.0594638 1.56187 0
M  V30 43459 H 4243.39 -2.55648 1.99536 0
M  V30 43460 H 4243.18 -1.68448 3.54073 0
M  V30 43461 H 4244.67 -2.62926 3.24437 0
M  V30 43462 N 4245.1 -1.57379 -0.083485 0
M  V30 43463 C 4246.33 -1.9127 -0.801914 0
M  V30 43464 C 4246.75 -0.785499 -1.70914 0
M  V30 43465 O 4246.11 0.262326 -1.79392 0
M  V30 43466 C 4246.16 -3.24072 -1.58145 0
M  V30 43467 O 4245.26 -3.1248 -2.69128 0
M  V30 43468 H 4244.6 -0.626651 -0.219555 0
M  V30 43469 H 4247.13 -2.04525 -0.0552302 0
M  V30 43470 H 4247.14 -3.57662 -1.9632 0
M  V30 43471 H 4245.82 -4.05694 -0.915723 0
M  V30 43472 H 4244.4 -2.90426 -2.33896 0
M  V30 43473 N 4246.58 0.354597 -1.53559 0
M  V30 43474 C 4247.83 1.0939 -1.69936 0
M  V30 43475 C 4248.15 1.8951 -0.459456 0
M  V30 43476 O 4247.42 1.8869 0.526575 0
M  V30 43477 H 4246 0.406834 -0.626494 0
M  V30 43478 H 4248.66 0.398548 -1.90782 0
M  V30 43479 H 4247.76 1.77752 -2.56536 0
M  V30 43480 N 4248.06 1.45105 0.615008 0
M  V30 43481 C 4249.48 1.29347 0.93496 0
M  V30 43482 C 4249.68 0.241043 2.00053 0
M  V30 43483 O 4248.73 -0.367563 2.4981 0
M  V30 43484 C 4250.04 2.67012 1.38293 0
M  V30 43485 C 4251.59 2.74851 1.49754 0
M  V30 43486 C 4252.07 4.13023 1.97929 0
M  V30 43487 N 4253.56 4.15281 2.05174 0
M  V30 43488 C 4254.29 5.19057 2.43655 0
M  V30 43489 N 4253.79 6.33184 2.81158 0
M  V30 43490 N 4255.58 5.06414 2.4393 0
M  V30 43491 H 4247.73 2.12212 -0.0894261 0
M  V30 43492 H 4250 0.94773 0.0226407 0
M  V30 43493 H 4249.7 3.45178 0.674177 0
M  V30 43494 H 4249.58 2.94981 2.35088 0
M  V30 43495 H 4251.96 1.96994 2.19722 0
M  V30 43496 H 4252.04 2.50605 0.512921 0
M  V30 43497 H 4251.69 4.91363 1.2855 0
M  V30 43498 H 4251.62 4.34656 2.97291 0
M  V30 43499 H 4254.11 3.32919 1.78811 0
M  V30 43500 H 4254.42 7.08169 3.09381 0
M  V30 43501 H 4252.77 6.36597 2.78871 0
M  V30 43502 H 4255.96 4.16303 2.14032 0
M  V30 43503 H 4256.13 5.8741 2.73594 0
M  V30 43504 N 4249.54 -0.856857 1.32271 0
M  V30 43505 C 4250.78 -1.62476 1.2402 0
M  V30 43506 C 4251.14 -1.91001 -0.195562 0
M  V30 43507 O 4252.34 -2.6578 -0.401775 0
M  V30 43508 C 4250.61 -2.91094 2.07362 0
M  V30 43509 S 4252.17 -3.81891 2.16112 0
M  V30 43510 H 4248.99 -0.557311 0.441503 0
M  V30 43511 H 4251.59 -1.01489 1.67093 0
M  V30 43512 H 4250.3 -2.68081 3.10742 0
M  V30 43513 H 4249.83 -3.57099 1.65057 0
M  V30 43514 H 4251.84 -4.78622 1.30901 0
M  V30 43515 N 4251.02 -1.15446 -1.07285 0
M  V30 43516 C 4252.26 -0.924288 -1.79276 0
M  V30 43517 C 4252.58 0.549899 -1.87711 0
M  V30 43518 O 4253.78 0.897673 -2.56231 0
M  V30 43519 C 4252.24 -1.60429 -3.22165 0
M  V30 43520 C 4251.85 -3.11555 -3.21928 0
M  V30 43521 C 4253.59 -1.4557 -3.9876 0
M  V30 43522 C 4251.5 -3.72339 -4.59475 0
M  V30 43523 H 4250.43 -0.342165 -0.671892 0
M  V30 43524 H 4253.08 -1.38467 -1.20413 0
M  V30 43525 H 4251.46 -1.07161 -3.81225 0
M  V30 43526 H 4252.64 -3.71585 -2.72509 0
M  V30 43527 H 4250.95 -3.26184 -2.58831 0
M  V30 43528 H 4253.55 -1.88373 -5.00419 0
M  V30 43529 H 4253.89 -0.403278 -4.14342 0
M  V30 43530 H 4254.42 -1.95939 -3.46198 0
M  V30 43531 H 4251.16 -4.77484 -4.49098 0
M  V30 43532 H 4250.68 -3.17092 -5.09129 0
M  V30 43533 H 4252.36 -3.73305 -5.28443 0
M  V30 43534 N 4252.49 1.25646 -0.951364 0
M  V30 43535 C 4253.9 1.75183 -0.64559 0
M  V30 43536 C 4254.26 1.77352 0.839099 0
M  V30 43537 O 4253.38 1.39223 1.65668 0
M  V30 43538 C 4253.98 3.18134 -1.16518 0
M  V30 43539 C 4252.53 3.65243 -0.909624 0
M  V30 43540 C 4251.68 2.44399 -1.31013 0
M  V30 43541 H 4254.63 1.11578 -1.12854 0
M  V30 43542 H 4254.65 3.76878 -0.523728 0
M  V30 43543 H 4254.17 3.16523 -2.24577 0
M  V30 43544 H 4252.27 3.72273 0.156147 0
M  V30 43545 H 4252.38 4.53546 -1.54379 0
M  V30 43546 H 4250.74 2.44059 -0.728517 0
M  V30 43547 H 4251.53 2.45482 -2.39987 0
M  V30 43548 N 4253.97 0.719555 1.40215 0
M  V30 43549 C 4254.9 0.0301086 2.2918 0
M  V30 43550 C 4255.92 -0.719629 1.46031 0
M  V30 43551 O 4257.11 -0.56635 1.69277 0
M  V30 43552 C 4254.21 -0.981631 3.24372 0
M  V30 43553 C 4253.38 -0.296606 4.36393 0
M  V30 43554 C 4252.44 -1.21428 5.11998 0
M  V30 43555 O 4251.46 -0.697579 5.64909 0
M  V30 43556 N 4252.67 -2.54515 5.2173 0
M  V30 43557 H 4255.43 0.794011 2.88991 0
M  V30 43558 H 4252.99 0.567508 1.51628 0
M  V30 43559 H 4254.98 -1.5978 3.71823 0
M  V30 43560 H 4253.55 -1.64686 2.65701 0
M  V30 43561 H 4252.77 0.499824 3.91018 0
M  V30 43562 H 4254.06 0.178739 5.08486 0
M  V30 43563 H 4253.46 -2.98987 4.80232 0
M  V30 43564 H 4252.02 -3.11267 5.72675 0
M  V30 43565 N 4255.45 -1.50552 0.466031 0
M  V30 43566 C 4256.4 -2.25308 -0.349299 0
M  V30 43567 C 4257.38 -1.2869 -0.965794 0
M  V30 43568 O 4258.58 -1.53621 -0.879181 0
M  V30 43569 C 4255.7 -3.11932 -1.43363 0
M  V30 43570 C 4254.79 -4.15996 -0.825121 0
M  V30 43571 N 4255.18 -5.05774 0.0515558 0
M  V30 43572 C 4253.48 -4.32485 -1.08962 0
M  V30 43573 C 4254.18 -5.80348 0.396372 0
M  V30 43574 N 4253.16 -5.43125 -0.227196 0
M  V30 43575 H 4256.96 -2.92085 0.326123 0
M  V30 43576 H 4254.47 -1.5997 0.279862 0
M  V30 43577 H 4256.47 -3.6409 -2.03087 0
M  V30 43578 H 4255.13 -2.46704 -2.1111 0
M  V30 43579 H 4256.14 -5.16194 0.420037 0
M  V30 43580 H 4252.82 -3.78476 -1.76244 0
M  V30 43581 H 4254.21 -6.62642 1.11152 0
M  V30 43582 N 4256.93 -0.198441 -1.56346 0
M  V30 43583 C 4258.17 0.433453 -1.98728 0
M  V30 43584 C 4258.53 1.59007 -1.08327 0
M  V30 43585 O 4257.82 1.9117 -0.128363 0
M  V30 43586 C 4258.02 0.938652 -3.44854 0
M  V30 43587 C 4257.84 -0.167472 -4.49388 0
M  V30 43588 C 4256.61 -0.626218 -5.01405 0
M  V30 43589 C 4258.81 -0.977611 -5.04923 0
M  V30 43590 N 4256.79 -1.70981 -5.89609 0
M  V30 43591 C 4258.17 -1.91054 -5.89829 0
M  V30 43592 C 4260.22 -1.01965 -4.87347 0
M  V30 43593 C 4258.92 -2.88203 -6.59038 0
M  V30 43594 C 4260.95 -1.97921 -5.57298 0
M  V30 43595 C 4260.31 -2.89957 -6.41954 0
M  V30 43596 H 4256.41 0.125938 -0.771792 0
M  V30 43597 H 4258.99 -0.304904 -1.92298 0
M  V30 43598 H 4257.17 1.64644 -3.51777 0
M  V30 43599 H 4258.9 1.54143 -3.74195 0
M  V30 43600 H 4255.65 -0.218959 -4.73094 0
M  V30 43601 H 4256.08 -2.25292 -6.38414 0
M  V30 43602 H 4260.72 -0.32207 -4.21572 0
M  V30 43603 H 4258.44 -3.58935 -7.24011 0
M  V30 43604 H 4262.02 -2.01819 -5.45674 0
M  V30 43605 H 4260.9 -3.62996 -6.95128 0
M  V30 43606 N 4258.41 1.57421 0.0751377 0
M  V30 43607 C 4259.64 1.91032 0.786796 0
M  V30 43608 C 4260.04 0.792333 1.7181 0
M  V30 43609 O 4259.39 -0.243415 1.8208 0
M  V30 43610 C 4259.45 3.20079 1.63676 0
M  V30 43611 C 4259.11 4.48542 0.875173 0
M  V30 43612 C 4260.11 5.19531 0.195926 0
M  V30 43613 C 4257.8 4.9517 0.843338 0
M  V30 43614 C 4259.79 6.35397 -0.504965 0
M  V30 43615 C 4257.48 6.10943 0.138673 0
M  V30 43616 C 4258.47 6.80907 -0.534282 0
M  V30 43617 O 4258.16 7.94472 -1.2276 0
M  V30 43618 H 4257.89 0.636008 0.229063 0
M  V30 43619 H 4260.45 2.05337 0.0507168 0
M  V30 43620 H 4258.68 3.01973 2.41555 0
M  V30 43621 H 4260.37 3.39366 2.22679 0
M  V30 43622 H 4261.13 4.84537 0.21185 0
M  V30 43623 H 4257.01 4.40588 1.3566 0
M  V30 43624 H 4260.56 6.89942 -1.03079 0
M  V30 43625 H 4256.45 6.45387 0.120664 0
M  V30 43626 H 4257.22 8.10571 -1.13653 0
M  V30 43627 N 4259.88 -0.346449 1.53745 0
M  V30 43628 C 4261.12 -1.09549 1.72564 0
M  V30 43629 C 4261.49 -1.85976 0.47717 0
M  V30 43630 O 4262.69 -2.63272 0.542341 0
M  V30 43631 C 4260.96 -2.01401 2.9525 0
M  V30 43632 S 4262.52 -2.83567 3.34866 0
M  V30 43633 H 4259.34 -0.370198 0.607021 0
M  V30 43634 H 4261.94 -0.374282 1.91884 0
M  V30 43635 H 4260.64 -1.4405 3.84289 0
M  V30 43636 H 4260.17 -2.77964 2.78387 0
M  V30 43637 H 4262.19 -4.03801 2.88374 0
M  V30 43638 N 4261.36 -1.45429 -0.607304 0
M  V30 43639 C 4262.64 -1.39935 -1.36666 0
M  V30 43640 C 4263.02 -0.0701034 -2.10984 0
M  V30 43641 O 4262.37 0.947947 -2.07909 0
M  V30 43642 C 4262.58 -2.61323 -2.31325 0
M  V30 43643 C 4263.93 -3.06422 -2.93923 0
M  V30 43644 O 4264.95 -2.61698 -2.41646 0
M  V30 43645 O 4263.81 -3.84037 -3.88816 0
M  V30 43646 H 4260.9 -0.55532 -0.61282 0
M  V30 43647 H 4263.45 -1.57558 -0.630369 0
M  V30 43648 H 4262.22 -3.4965 -1.75671 0
M  V30 43649 H 4261.84 -2.46035 -3.12334 0
M  V30 43650 N 4262.84 0.84983 -1.32724 0
M  V30 43651 C 4263.77 1.96555 -1.17893 0
M  V30 43652 C 4264.79 1.6241 -0.112683 0
M  V30 43653 O 4265.97 1.74789 -0.362093 0
M  V30 43654 C 4263.07 3.29721 -0.783405 0
M  V30 43655 C 4262.25 3.92075 -1.93897 0
M  V30 43656 C 4261.31 5.03581 -1.5262 0
M  V30 43657 O 4260.33 5.23316 -2.23894 0
M  V30 43658 N 4261.53 5.78942 -0.424958 0
M  V30 43659 H 4264.3 2.09817 -2.14002 0
M  V30 43660 H 4261.86 1.02496 -1.25325 0
M  V30 43661 H 4263.85 4.01728 -0.489582 0
M  V30 43662 H 4262.42 3.1248 0.0866696 0
M  V30 43663 H 4261.64 3.12794 -2.39903 0
M  V30 43664 H 4262.93 4.30468 -2.71246 0
M  V30 43665 H 4262.33 5.6545 0.168152 0
M  V30 43666 H 4260.89 6.51521 -0.190761 0
M  V30 43667 N 4264.32 1.16013 1.06671 0
M  V30 43668 C 4265.23 0.877424 2.17574 0
M  V30 43669 C 4266.24 -0.148888 1.73362 0
M  V30 43670 O 4267.42 0.0268405 2.01382 0
M  V30 43671 C 4264.49 0.378283 3.4463 0
M  V30 43672 C 4263.55 1.46935 4.03372 0
M  V30 43673 C 4262.78 0.993929 5.24363 0
M  V30 43674 O 4263 -0.157824 5.70182 0
M  V30 43675 O 4261.94 1.78062 5.74959 0
M  V30 43676 H 4265.76 1.80472 2.44261 0
M  V30 43677 H 4263.35 0.939797 1.16139 0
M  V30 43678 H 4265.23 0.106718 4.21265 0
M  V30 43679 H 4263.9 -0.521057 3.19479 0
M  V30 43680 H 4262.81 1.79461 3.28245 0
M  V30 43681 H 4264.14 2.34385 4.3281 0
M  V30 43682 N 4265.8 -1.25139 0.958014 0
M  V30 43683 C 4267.02 -1.97014 0.631922 0
M  V30 43684 C 4267.44 -1.71168 -0.796678 0
M  V30 43685 O 4266.8 -0.98971 -1.53333 0
M  V30 43686 C 4266.85 -3.50495 0.885198 0
M  V30 43687 O 4266.57 -3.7545 2.25763 0
M  V30 43688 C 4268.07 -4.39595 0.571959 0
M  V30 43689 H 4265.29 -0.627896 0.236617 0
M  V30 43690 H 4267.83 -1.59221 1.28331 0
M  V30 43691 H 4265.99 -3.86386 0.28017 0
M  V30 43692 H 4266.4 -4.6989 2.33031 0
M  V30 43693 H 4267.88 -5.46177 0.799694 0
M  V30 43694 H 4268.35 -4.36418 -0.493566 0
M  V30 43695 H 4268.96 -4.09275 1.15646 0
M  V30 43696 N 4267.27 -0.726981 -1.39831 0
M  V30 43697 C 4268.55 -0.198077 -1.94594 0
M  V30 43698 C 4268.93 1.29855 -1.66435 0
M  V30 43699 O 4268.28 2.06026 -0.988206 0
M  V30 43700 C 4268.49 -0.523057 -3.45058 0
M  V30 43701 C 4269.84 -0.467976 -4.22013 0
M  V30 43702 O 4270.86 -0.459779 -3.5322 0
M  V30 43703 O 4269.72 -0.455471 -5.44599 0
M  V30 43704 H 4266.81 -0.0334348 -0.826324 0
M  V30 43705 H 4269.36 -0.805292 -1.49376 0
M  V30 43706 H 4268.13 -1.55775 -3.58957 0
M  V30 43707 H 4267.76 0.113539 -3.97438 0
M  V30 43708 N 4268.75 1.50303 -0.474008 0
M  V30 43709 C 4269.99 2.04249 0.078682 0
M  V30 43710 C 4270.36 1.34796 1.36726 0
M  V30 43711 O 4271.56 1.79313 2.0025 0
M  V30 43712 C 4269.83 3.56487 0.255336 0
M  V30 43713 S 4271.39 4.32059 0.766163 0
M  V30 43714 H 4268.21 0.710851 0.0145771 0
M  V30 43715 H 4270.81 1.84665 -0.641814 0
M  V30 43716 H 4269.51 4.04588 -0.688242 0
M  V30 43717 H 4269.04 3.80429 1.00186 0
M  V30 43718 H 4271.06 4.52363 2.03917 0
M  V30 43719 N 4270.23 0.20673 1.56238 0
M  V30 43720 C 4271.48 -0.428956 1.97905 0
M  V30 43721 C 4271.81 -1.60818 1.09397 0
M  V30 43722 O 4271.06 -1.9523 0.135607 0
M  V30 43723 C 4271.36 -0.920351 3.45347 0
M  V30 43724 C 4271.03 0.146754 4.50661 0
M  V30 43725 C 4269.69 0.439936 4.79185 0
M  V30 43726 C 4272.04 0.869204 5.13901 0
M  V30 43727 C 4269.37 1.46034 5.68235 0
M  V30 43728 C 4271.72 1.87884 6.04055 0
M  V30 43729 C 4270.38 2.1791 6.30929 0
M  V30 43730 H 4269.65 -0.156966 0.724184 0
M  V30 43731 H 4272.3 0.306139 1.89037 0
M  V30 43732 H 4270.61 -1.73394 3.51343 0
M  V30 43733 H 4272.3 -1.4218 3.74948 0
M  V30 43734 H 4268.89 -0.0919161 4.28501 0
M  V30 43735 H 4273.08 0.655934 4.91946 0
M  V30 43736 H 4268.33 1.69876 5.87326 0
M  V30 43737 H 4272.51 2.4438 6.52113 0
M  V30 43738 H 4270.13 2.97123 6.9973 0
M  V30 43739 N 4271.71 -1.57458 -0.0667882 0
M  V30 43740 C 4272.99 -1.78569 -0.798278 0
M  V30 43741 C 4273.37 -0.795554 -1.95536 0
M  V30 43742 O 4272.71 0.170291 -2.27865 0
M  V30 43743 C 4272.92 -3.25206 -1.26656 0
M  V30 43744 C 4274.27 -3.89174 -1.69791 0
M  V30 43745 O 4275.3 -3.29128 -1.3621 0
M  V30 43746 O 4274.15 -4.94821 -2.3198 0
M  V30 43747 H 4271.25 -0.733013 -0.382911 0
M  V30 43748 H 4273.79 -1.69636 -0.0464767 0
M  V30 43749 H 4272.57 -3.88831 -0.438861 0
M  V30 43750 H 4272.19 -3.38882 -2.07953 0
M  V30 43751 N 4273.19 0.33829 -1.53926 0
M  V30 43752 C 4274.15 1.39862 -1.8158 0
M  V30 43753 C 4275.15 1.45384 -0.687036 0
M  V30 43754 O 4276.34 1.45668 -0.95533 0
M  V30 43755 C 4273.47 2.7874 -1.96257 0
M  V30 43756 H 4274.67 1.16603 -2.76304 0
M  V30 43757 H 4272.22 0.572971 -1.45419 0
M  V30 43758 H 4272.95 3.07275 -1.03694 0
M  V30 43759 H 4272.74 2.76128 -2.78381 0
M  V30 43760 H 4274.23 3.55476 -2.1915 0
M  V30 43761 N 4274.67 1.45749 0.599583 0
M  V30 43762 C 4275.89 1.53956 1.38969 0
M  V30 43763 C 4276.32 0.175651 1.87278 0
M  V30 43764 O 4275.67 -0.841194 1.60604 0
M  V30 43765 C 4275.72 2.53479 2.56478 0
M  V30 43766 O 4274.83 2.05814 3.57372 0
M  V30 43767 H 4274.17 0.518689 0.414558 0
M  V30 43768 H 4276.7 1.91174 0.728939 0
M  V30 43769 H 4276.71 2.72544 3.03618 0
M  V30 43770 H 4275.38 3.52533 2.20666 0
M  V30 43771 H 4273.96 1.96661 3.16826 0
M  V30 43772 N 4276.14 -0.84278 1.33173 0
M  V30 43773 C 4277.42 -1.58214 1.15011 0
M  V30 43774 C 4277.8 -2.09167 -0.285011 0
M  V30 43775 O 4277.15 -1.89049 -1.28346 0
M  V30 43776 C 4277.36 -2.71904 2.1879 0
M  V30 43777 C 4278.71 -3.41184 2.52742 0
M  V30 43778 O 4279.73 -2.82142 2.17427 0
M  V30 43779 O 4278.59 -4.47758 3.13329 0
M  V30 43780 H 4275.68 -0.697333 0.444586 0
M  V30 43781 H 4278.23 -0.885874 1.44742 0
M  V30 43782 H 4277 -2.31865 3.15205 0
M  V30 43783 H 4276.62 -3.49198 1.90122 0
M  V30 43784 N 4277.62 -1.16577 -1.06054 0
M  V30 43785 C 4278.53 -0.88895 -2.17106 0
M  V30 43786 C 4279.55 0.139692 -1.73438 0
M  V30 43787 O 4280.72 -0.0375199 -2.01365 0
M  V30 43788 C 4277.79 -0.396555 -3.44425 0
M  V30 43789 C 4276.85 -1.49072 -4.02587 0
M  V30 43790 C 4276.08 -1.02172 -5.23829 0
M  V30 43791 O 4276.31 0.127584 -5.70257 0
M  V30 43792 O 4275.24 -1.81108 -5.74006 0
M  V30 43793 H 4279.07 -1.81765 -2.433 0
M  V30 43794 H 4276.65 -0.945943 -1.15639 0
M  V30 43795 H 4278.53 -0.129057 -4.21202 0
M  V30 43796 H 4277.21 0.504107 -3.19751 0
M  V30 43797 H 4276.11 -1.81199 -3.27289 0
M  V30 43798 H 4277.45 -2.36677 -4.31561 0
M  V30 43799 N 4279.1 1.2463 -0.964637 0
M  V30 43800 C 4280.51 1.74488 -0.664134 0
M  V30 43801 C 4280.86 1.78232 0.820241 0
M  V30 43802 O 4279.99 1.40972 1.64182 0
M  V30 43803 C 4280.58 3.1688 -1.19885 0
M  V30 43804 C 4279.14 3.64258 -0.948312 0
M  V30 43805 C 4278.29 2.42996 -1.33598 0
M  V30 43806 H 4281.24 1.10375 -1.14031 0
M  V30 43807 H 4281.26 3.76302 -0.563672 0
M  V30 43808 H 4280.77 3.14124 -2.27921 0
M  V30 43809 H 4278.87 3.72417 0.116653 0
M  V30 43810 H 4278.99 4.51883 -1.5918 0
M  V30 43811 H 4277.35 2.43272 -0.754361 0
M  V30 43812 H 4278.13 2.42922 -2.42577 0
M  V30 43813 N 4280.58 0.734386 1.39444 0
M  V30 43814 C 4281.54 0.102517 2.28971 0
M  V30 43815 C 4282.54 -0.667779 1.46278 0
M  V30 43816 O 4283.73 -0.496888 1.66963 0
M  V30 43817 C 4280.86 -0.864049 3.29768 0
M  V30 43818 H 4282.06 0.891258 2.8635 0
M  V30 43819 H 4279.61 0.50018 1.48081 0
M  V30 43820 H 4280.34 -1.67917 2.77443 0
M  V30 43821 H 4280.13 -0.314349 3.90838 0
M  V30 43822 H 4281.62 -1.30275 3.9676 0
M  V30 43823 N 4282.06 -1.50049 0.481972 0
M  V30 43824 C 4283.28 -2.07286 -0.0688449 0
M  V30 43825 C 4283.71 -1.34225 -1.31778 0
M  V30 43826 O 4283.06 -0.393166 -1.76986 0
M  V30 43827 C 4283.11 -3.59134 -0.324822 0
M  V30 43828 O 4282.22 -3.87792 -1.40326 0
M  V30 43829 H 4281.56 -0.663762 0.0177928 0
M  V30 43830 H 4284.09 -1.93105 0.676138 0
M  V30 43831 H 4284.1 -4.0411 -0.562064 0
M  V30 43832 H 4282.77 -4.11726 0.58777 0
M  V30 43833 H 4281.35 -3.54644 -1.15247 0
M  V30 43834 N 4283.53 -0.215012 -1.56126 0
M  V30 43835 C 4284.77 0.420381 -2.0003 0
M  V30 43836 C 4285.14 1.57411 -1.09936 0
M  V30 43837 O 4286.34 2.27506 -1.43159 0
M  V30 43838 C 4284.61 0.850049 -3.47144 0
M  V30 43839 S 4286.17 1.48047 -4.13071 0
M  V30 43840 H 4282.99 0.133681 -0.69832 0
M  V30 43841 H 4285.59 -0.322764 -1.92817 0
M  V30 43842 H 4284.29 0.000591171 -4.104 0
M  V30 43843 H 4283.82 1.62617 -3.58217 0
M  V30 43844 H 4285.84 2.7695 -4.1172 0
M  V30 43845 N 4285.01 1.57492 0.0584368 0
M  V30 43846 C 4286.26 1.87526 0.753547 0
M  V30 43847 C 4286.58 0.808834 1.77434 0
M  V30 43848 O 4285.85 -0.161027 1.95237 0
M  V30 43849 H 4284.43 0.692013 0.281296 0
M  V30 43850 H 4287.09 1.94875 0.0313536 0
M  V30 43851 H 4286.19 2.85471 1.26146 0
M  V30 43852 N 4286.49 -0.330122 1.54104 0
M  V30 43853 C 4287.44 -1.40695 1.79413 0
M  V30 43854 C 4288.42 -1.47193 0.649859 0
M  V30 43855 O 4289.62 -1.51836 0.909664 0
M  V30 43856 C 4286.74 -2.77645 2.01911 0
M  V30 43857 C 4285.83 -2.75487 3.22441 0
M  V30 43858 N 4286.22 -2.42951 4.43631 0
M  V30 43859 C 4284.52 -3.06622 3.23881 0
M  V30 43860 C 4285.22 -2.49363 5.25541 0
M  V30 43861 N 4284.2 -2.85536 4.62569 0
M  V30 43862 H 4288 -1.14459 2.70696 0
M  V30 43863 H 4285.51 -0.538568 1.5321 0
M  V30 43864 H 4287.51 -3.55251 2.1818 0
M  V30 43865 H 4286.17 -3.04817 1.11877 0
M  V30 43866 H 4287.18 -2.15912 4.70747 0
M  V30 43867 H 4283.86 -3.38879 2.4386 0
M  V30 43868 H 4285.25 -2.27254 6.32301 0
M  V30 43869 N 4287.97 -1.46065 -0.591845 0
M  V30 43870 C 4289.19 -1.54691 -1.3815 0
M  V30 43871 C 4289.62 -0.18558 -1.87182 0
M  V30 43872 O 4288.98 0.832665 -1.61048 0
M  V30 43873 C 4289.02 -2.54836 -2.5513 0
M  V30 43874 O 4288.13 -2.07706 -3.56275 0
M  V30 43875 H 4287.47 -0.52088 -0.411801 0
M  V30 43876 H 4290 -1.91558 -0.71879 0
M  V30 43877 H 4290.01 -2.7415 -3.02168 0
M  V30 43878 H 4288.68 -3.53698 -2.18793 0
M  V30 43879 H 4287.26 -1.98339 -3.15779 0
M  V30 43880 N 4289.45 0.835705 -1.33618 0
M  V30 43881 C 4290.36 1.97778 -1.26178 0
M  V30 43882 C 4291.37 1.7315 -0.171767 0
M  V30 43883 O 4292.55 1.9747 -0.39593 0
M  V30 43884 C 4289.61 3.31836 -1.00427 0
M  V30 43885 C 4288.67 3.69559 -2.1846 0
M  V30 43886 C 4287.91 4.9722 -1.93928 0
M  V30 43887 O 4288.13 5.63395 -0.891164 0
M  V30 43888 O 4287.06 5.3252 -2.80546 0
M  V30 43889 H 4290.89 2.06996 -2.22231 0
M  V30 43890 H 4288.48 0.969208 -1.13696 0
M  V30 43891 H 4290.36 4.12153 -0.877945 0
M  V30 43892 H 4289.03 3.23615 -0.0740483 0
M  V30 43893 H 4287.94 2.89739 -2.36648 0
M  V30 43894 H 4289.27 3.8245 -3.09828 0
M  V30 43895 N 4290.92 1.17138 1.05434 0
M  V30 43896 C 4292.34 0.918131 1.30547 0
M  V30 43897 C 4292.54 -0.424118 1.96986 0
M  V30 43898 O 4291.6 -1.16166 2.24191 0
M  V30 43899 C 4292.91 2.07362 2.17765 0
M  V30 43900 C 4294.46 2.11037 2.31155 0
M  V30 43901 C 4294.93 3.25965 3.21731 0
M  V30 43902 N 4296.42 3.25737 3.29317 0
M  V30 43903 C 4297.16 4.11306 3.99519 0
M  V30 43904 N 4296.65 5.06979 4.7217 0
M  V30 43905 N 4298.45 3.99263 3.95658 0
M  V30 43906 H 4290.6 2.03539 0.607082 0
M  V30 43907 H 4292.86 0.888604 0.330282 0
M  V30 43908 H 4292.57 3.04359 1.76235 0
M  V30 43909 H 4292.44 2.02256 3.1839 0
M  V30 43910 H 4294.83 1.14628 2.71927 0
M  V30 43911 H 4294.91 2.20205 1.30167 0
M  V30 43912 H 4294.55 4.22638 2.81673 0
M  V30 43913 H 4294.48 3.14033 4.22719 0
M  V30 43914 H 4296.97 2.56465 2.7755 0
M  V30 43915 H 4297.29 5.68672 5.2329 0
M  V30 43916 H 4295.63 5.10951 4.7112 0
M  V30 43917 H 4298.82 3.23816 3.38024 0
M  V30 43918 H 4299 4.66169 4.501 0
M  V30 43919 N 4292.4 -1.24116 0.971232 0
M  V30 43920 C 4293.63 -1.96332 0.652783 0
M  V30 43921 C 4294.05 -1.72003 -0.778478 0
M  V30 43922 O 4293.4 -1.00592 -1.52275 0
M  V30 43923 C 4293.45 -3.49536 0.922323 0
M  V30 43924 O 4293.17 -3.73035 2.29732 0
M  V30 43925 C 4294.68 -4.38963 0.618552 0
M  V30 43926 H 4291.9 -0.625351 0.243263 0
M  V30 43927 H 4294.44 -1.57851 1.30013 0
M  V30 43928 H 4292.59 -3.86067 0.321135 0
M  V30 43929 H 4293.01 -4.67392 2.38002 0
M  V30 43930 H 4294.48 -5.45298 0.857578 0
M  V30 43931 H 4294.96 -4.36917 -0.44725 0
M  V30 43932 H 4295.57 -4.08025 1.1998 0
M  V30 43933 N 4293.88 -0.741771 -1.39052 0
M  V30 43934 C 4295.12 -0.297459 -2.02224 0
M  V30 43935 C 4295.48 1.09668 -1.57597 0
M  V30 43936 O 4296.69 1.63945 -2.13015 0
M  V30 43937 C 4294.96 -0.403168 -3.55119 0
M  V30 43938 S 4296.52 -0.0396958 -4.38782 0
M  V30 43939 H 4293.33 -0.116115 -0.701454 0
M  V30 43940 H 4295.94 -0.969783 -1.69751 0
M  V30 43941 H 4294.64 -1.41899 -3.85088 0
M  V30 43942 H 4294.17 0.286744 -3.92354 0
M  V30 43943 H 4296.19 1.17444 -4.82101 0
M  V30 43944 N 4295.36 1.49792 -0.489923 0
M  V30 43945 C 4296.29 2.31767 0.283925 0
M  V30 43946 C 4297.27 1.3953 0.972909 0
M  V30 43947 O 4298.45 1.68444 0.966453 0
M  V30 43948 C 4295.58 3.19763 1.35532 0
M  V30 43949 C 4294.54 4.20705 0.786858 0
M  V30 43950 C 4293.86 4.97563 1.95795 0
M  V30 43951 C 4295.16 5.21859 -0.21462 0
M  V30 43952 H 4296.86 2.96712 -0.400302 0
M  V30 43953 H 4294.4 1.42688 -0.193957 0
M  V30 43954 H 4296.36 3.75917 1.90432 0
M  V30 43955 H 4295.08 2.5274 2.06858 0
M  V30 43956 H 4293.74 3.65679 0.259691 0
M  V30 43957 H 4293.39 4.26996 2.65863 0
M  V30 43958 H 4293.09 5.65855 1.58371 0
M  V30 43959 H 4294.61 5.56558 2.51149 0
M  V30 43960 H 4296.03 5.72773 0.245854 0
M  V30 43961 H 4294.42 5.97979 -0.504107 0
M  V30 43962 H 4295.49 4.71447 -1.13426 0
M  V30 43963 N 4296.84 0.223289 1.5601 0
M  V30 43964 C 4297.8 -0.672603 2.19109 0
M  V30 43965 C 4298.8 -1.12036 1.15346 0
M  V30 43966 O 4299.99 -1.02888 1.40569 0
M  V30 43967 C 4297.12 -1.9216 2.8158 0
M  V30 43968 H 4298.31 -0.122447 2.9965 0
M  V30 43969 H 4295.87 -0.0263209 1.56278 0
M  V30 43970 H 4296.6 -2.51358 2.04913 0
M  V30 43971 H 4296.39 -1.60899 3.57567 0
M  V30 43972 H 4297.88 -2.55985 3.29942 0
M  V30 43973 N 4298.31 -1.5752 -0.0500839 0
M  V30 43974 C 4299.59 -1.79406 -0.779293 0
M  V30 43975 C 4299.97 -0.816248 -1.94681 0
M  V30 43976 O 4299.32 0.146113 -2.28032 0
M  V30 43977 C 4299.53 -3.26531 -1.232 0
M  V30 43978 C 4300.88 -3.90953 -1.65654 0
M  V30 43979 O 4301.9 -3.30554 -1.32712 0
M  V30 43980 O 4300.76 -4.97253 -2.26719 0
M  V30 43981 H 4297.85 -0.737033 -0.375115 0
M  V30 43982 H 4300.4 -1.69676 -0.0284819 0
M  V30 43983 H 4299.17 -3.89275 -0.397595 0
M  V30 43984 H 4298.8 -3.41069 -2.04347 0
M  V30 43985 N 4299.79 0.321945 -1.54277 0
M  V30 43986 C 4300.7 1.41926 -1.868 0
M  V30 43987 C 4301.72 1.56521 -0.760079 0
M  V30 43988 O 4302.89 1.71586 -1.05453 0
M  V30 43989 C 4299.96 2.76616 -2.09008 0
M  V30 43990 C 4299.02 2.71183 -3.32803 0
M  V30 43991 C 4298.25 3.9945 -3.53943 0
M  V30 43992 O 4298.48 4.97794 -2.7849 0
M  V30 43993 O 4297.41 4.02611 -4.47424 0
M  V30 43994 H 4301.24 1.1735 -2.80112 0
M  V30 43995 H 4298.82 0.516116 -1.40202 0
M  V30 43996 H 4300.7 3.56345 -2.24936 0
M  V30 43997 H 4299.38 3.01078 -1.18884 0
M  V30 43998 H 4298.29 1.9 -3.22259 0
M  V30 43999 H 4299.62 2.51675 -4.2299 0
M  V30 44000 N 4301.27 1.46377 0.58409 0
M  V30 44001 C 4302.52 1.51615 1.34235 0
M  V30 44002 C 4302.85 0.167305 1.93779 0
M  V30 44003 O 4302.1 -0.836883 1.76903 0
M  V30 44004 C 4302.4 2.56165 2.49227 0
M  V30 44005 C 4302.07 4.00222 2.07685 0
M  V30 44006 C 4300.73 4.39443 1.9607 0
M  V30 44007 C 4303.08 4.90722 1.75616 0
M  V30 44008 C 4300.41 5.6703 1.50643 0
M  V30 44009 C 4302.76 6.18746 1.31669 0
M  V30 44010 C 4301.42 6.56874 1.1863 0
M  V30 44011 H 4300.69 0.554799 0.491201 0
M  V30 44012 H 4303.34 1.79846 0.657858 0
M  V30 44013 H 4301.65 2.2159 3.23118 0
M  V30 44014 H 4303.34 2.57448 3.07443 0
M  V30 44015 H 4299.93 3.69219 2.17659 0
M  V30 44016 H 4304.12 4.6114 1.83476 0
M  V30 44017 H 4299.37 5.95345 1.3919 0
M  V30 44018 H 4303.55 6.883 1.05908 0
M  V30 44019 H 4301.17 7.55633 0.832055 0
M  V30 44020 N 4302.75 -0.828607 1.34059 0
M  V30 44021 C 4303.7 -1.93914 1.25165 0
M  V30 44022 C 4304.67 -1.65606 0.12807 0
M  V30 44023 O 4305.85 -1.88296 0.308086 0
M  V30 44024 C 4302.99 -3.30074 1.00724 0
M  V30 44025 C 4302.1 -3.70712 2.21803 0
M  V30 44026 C 4301.24 -4.95792 1.90693 0
M  V30 44027 C 4300.28 -5.28994 3.07947 0
M  V30 44028 N 4299.42 -6.45252 2.76757 0
M  V30 44029 H 4304.26 -2.00853 2.20141 0
M  V30 44030 H 4301.79 -0.982735 1.09457 0
M  V30 44031 H 4303.75 -4.08534 0.845936 0
M  V30 44032 H 4302.38 -3.22663 0.0941824 0
M  V30 44033 H 4301.43 -2.87691 2.48874 0
M  V30 44034 H 4302.74 -3.91224 3.09427 0
M  V30 44035 H 4301.9 -5.82025 1.71266 0
M  V30 44036 H 4300.64 -4.7727 1.00321 0
M  V30 44037 H 4299.64 -4.41261 3.27977 0
M  V30 44038 H 4300.87 -5.49458 3.99089 0
M  V30 44039 H 4298.81 -6.28197 1.88955 0
M  V30 44040 H 4298.73 -6.65909 3.57913 0
M  V30 44041 H 4300 -7.3457 2.60821 0
M  V30 44042 N 4304.23 -1.17696 -1.04812 0
M  V30 44043 C 4305.47 -0.978577 -1.79453 0
M  V30 44044 C 4305.83 0.483871 -1.85803 0
M  V30 44045 O 4307.03 0.80145 -2.56574 0
M  V30 44046 C 4305.3 -1.60661 -3.19253 0
M  V30 44047 S 4306.86 -1.55496 -4.10325 0
M  V30 44048 H 4303.68 -0.351576 -0.617993 0
M  V30 44049 H 4306.28 -1.49708 -1.25729 0
M  V30 44050 H 4304.99 -2.6634 -3.12236 0
M  V30 44051 H 4304.52 -1.08808 -3.78053 0
M  V30 44052 H 4306.53 -0.565613 -4.92966 0
M  V30 44053 N 4305.71 1.23599 -0.977801 0
M  V30 44054 C 4306.98 1.8736 -0.561747 0
M  V30 44055 C 4307.36 1.87951 0.961133 0
M  V30 44056 O 4306.71 1.35925 1.83675 0
M  V30 44057 C 4306.92 3.28987 -1.16484 0
M  V30 44058 C 4308.27 4.05599 -1.25597 0
M  V30 44059 O 4309.29 3.38197 -1.1181 0
M  V30 44060 O 4308.15 5.26218 -1.47503 0
M  V30 44061 H 4305.25 0.805167 -0.188774 0
M  V30 44062 H 4307.79 1.31495 -1.07272 0
M  V30 44063 H 4306.56 3.2311 -2.20716 0
M  V30 44064 H 4306.19 3.92439 -0.638526 0
M  V30 44065 N 4307.18 0.749135 1.38657 0
M  V30 44066 C 4308.43 0.302714 1.9982 0
M  V30 44067 C 4308.75 -1.11813 1.59759 0
M  V30 44068 O 4308.02 -1.76385 0.852355 0
M  V30 44069 H 4306.6 0.108933 0.739015 0
M  V30 44070 H 4309.26 0.962239 1.6949 0
M  V30 44071 H 4308.36 0.362309 3.0999 0
M  V30 44072 N 4308.66 -1.4953 0.49786 0
M  V30 44073 C 4309.91 -2.02044 -0.0476787 0
M  V30 44074 C 4310.23 -1.37997 -1.37775 0
M  V30 44075 O 4309.5 -0.534227 -1.88475 0
M  V30 44076 H 4308.08 -0.746716 -0.02061 0
M  V30 44077 H 4310.74 -1.83586 0.654386 0
M  V30 44078 H 4309.84 -3.11583 -0.179651 0
M  V30 44079 N 4310.14 -0.23156 -1.5589 0
M  V30 44080 C 4311.56 0.123626 -1.5912 0
M  V30 44081 C 4311.76 1.58158 -1.24853 0
M  V30 44082 O 4310.81 2.32345 -0.988532 0
M  V30 44083 C 4312.12 -0.211705 -2.99954 0
M  V30 44084 C 4313.67 -0.154754 -3.12617 0
M  V30 44085 C 4314.15 -0.463901 -4.55645 0
M  V30 44086 N 4315.64 -0.413838 -4.61348 0
M  V30 44087 C 4316.37 -0.626405 -5.69968 0
M  V30 44088 N 4315.87 -0.901282 -6.86912 0
M  V30 44089 N 4317.66 -0.558157 -5.59322 0
M  V30 44090 H 4309.81 -1.18253 -1.76437 0
M  V30 44091 H 4312.08 -0.474709 -0.820582 0
M  V30 44092 H 4311.78 -1.224 -3.29714 0
M  V30 44093 H 4311.66 0.468542 -3.74279 0
M  V30 44094 H 4314.04 0.848192 -2.82648 0
M  V30 44095 H 4314.12 -0.868627 -2.406 0
M  V30 44096 H 4313.77 -1.46433 -4.86333 0
M  V30 44097 H 4313.7 0.271276 -5.25901 0
M  V30 44098 H 4316.19 -0.209485 -3.77319 0
M  V30 44099 H 4316.5 -1.05131 -7.65616 0
M  V30 44100 H 4314.85 -0.938588 -6.88633 0
M  V30 44101 H 4318.04 -0.343569 -4.66837 0
M  V30 44102 H 4318.21 -0.727222 -6.43906 0
M  V30 44103 N 4311.62 1.57545 0.0417295 0
M  V30 44104 C 4312.86 1.90532 0.740059 0
M  V30 44105 C 4313.22 0.828758 1.73192 0
M  V30 44106 O 4314.42 1.04258 2.47757 0
M  V30 44107 C 4312.69 3.28701 1.40323 0
M  V30 44108 S 4314.25 3.83499 2.13247 0
M  V30 44109 H 4311.07 0.667287 0.245457 0
M  V30 44110 H 4313.67 1.95499 -0.00492428 0
M  V30 44111 H 4312.38 4.04928 0.667942 0
M  V30 44112 H 4311.91 3.27006 2.18703 0
M  V30 44113 H 4313.92 3.61205 3.40214 0
M  V30 44114 N 4313.1 -0.313759 1.54445 0
M  V30 44115 C 4314.34 -1.04811 1.7233 0
M  V30 44116 C 4314.66 -1.88855 0.50922 0
M  V30 44117 O 4315.86 -2.65458 0.56961 0
M  V30 44118 C 4314.32 -1.91303 3.04846 0
M  V30 44119 C 4313.93 -1.12323 4.33691 0
M  V30 44120 C 4315.67 -2.64415 3.32092 0
M  V30 44121 C 4313.58 -1.98018 5.57264 0
M  V30 44122 H 4312.51 -0.395022 0.642241 0
M  V30 44123 H 4315.16 -0.305791 1.80934 0
M  V30 44124 H 4313.54 -2.69472 2.90174 0
M  V30 44125 H 4314.72 -0.388568 4.59159 0
M  V30 44126 H 4313.03 -0.508505 4.13283 0
M  V30 44127 H 4315.63 -3.28857 4.21613 0
M  V30 44128 H 4315.97 -3.32572 2.50402 0
M  V30 44129 H 4316.5 -1.93302 3.47677 0
M  V30 44130 H 4313.24 -1.34353 6.41584 0
M  V30 44131 H 4312.76 -2.69192 5.36 0
M  V30 44132 H 4314.44 -2.56371 5.94039 0
M  V30 44133 N 4314.57 -1.46684 -0.576319 0
M  V30 44134 C 4315.98 -1.46413 -1.15846 0
M  V30 44135 C 4316.34 -0.208417 -1.9509 0
M  V30 44136 O 4315.46 0.688056 -2.0517 0
M  V30 44137 C 4316.06 -2.65271 -2.10753 0
M  V30 44138 C 4314.61 -2.68019 -2.64277 0
M  V30 44139 C 4313.76 -2.39205 -1.40273 0
M  V30 44140 H 4316.71 -1.54471 -0.363915 0
M  V30 44141 H 4316.73 -2.41153 -2.94322 0
M  V30 44142 H 4316.25 -3.56647 -1.5305 0
M  V30 44143 H 4314.35 -1.80732 -3.25832 0
M  V30 44144 H 4314.46 -3.68168 -3.06576 0
M  V30 44145 H 4312.82 -1.89393 -1.70301 0
M  V30 44146 H 4313.61 -3.32766 -0.84391 0
M  V30 44147 N 4316.05 0.821486 -1.34497 0
M  V30 44148 C 4317.28 1.61466 -1.30167 0
M  V30 44149 C 4317.7 1.87709 0.12127 0
M  V30 44150 O 4317.06 1.45364 1.08347 0
M  V30 44151 C 4317.11 2.93173 -2.09957 0
M  V30 44152 O 4316.21 3.85309 -1.47007 0
M  V30 44153 H 4315.55 0.491021 -0.446983 0
M  V30 44154 H 4318.08 1.02072 -1.7732 0
M  V30 44155 H 4318.09 3.42726 -2.21365 0
M  V30 44156 H 4316.77 2.73397 -3.13412 0
M  V30 44157 H 4315.34 3.43828 -1.4435 0
M  V30 44158 N 4317.53 1.1825 1.04186 0
M  V30 44159 C 4318.44 0.923377 2.15664 0
M  V30 44160 C 4319.46 -0.112082 1.73639 0
M  V30 44161 O 4320.63 0.0695506 2.0128 0
M  V30 44162 C 4317.7 0.451299 3.4375 0
M  V30 44163 C 4316.76 1.55458 4.00164 0
M  V30 44164 C 4315.99 1.10493 5.22137 0
M  V30 44165 O 4316.21 -0.036845 5.70388 0
M  V30 44166 O 4315.15 1.90218 5.71052 0
M  V30 44167 H 4318.97 1.85613 2.40378 0
M  V30 44168 H 4316.56 0.96422 1.14119 0
M  V30 44169 H 4318.44 0.196051 4.20944 0
M  V30 44170 H 4317.12 -0.453174 3.20512 0
M  V30 44171 H 4316.02 1.86383 3.24364 0
M  V30 44172 H 4317.36 2.43513 4.27741 0
M  V30 44173 N 4319.01 -1.23079 0.984342 0
M  V30 44174 C 4320.25 -1.92187 0.66602 0
M  V30 44175 C 4320.61 -1.75331 -0.792259 0
M  V30 44176 O 4319.9 -1.10607 -1.5645 0
M  V30 44177 C 4320.1 -3.43224 0.996611 0
M  V30 44178 C 4319.93 -3.74772 2.48548 0
M  V30 44179 C 4318.7 -3.95249 3.14812 0
M  V30 44180 C 4320.89 -3.79934 3.46633 0
M  V30 44181 N 4318.88 -4.14036 4.53263 0
M  V30 44182 C 4320.25 -4.0376 4.70508 0
M  V30 44183 C 4322.3 -3.62744 3.41059 0
M  V30 44184 C 4321 -4.12181 5.89491 0
M  V30 44185 C 4323.03 -3.7242 4.5941 0
M  V30 44186 C 4322.39 -3.96687 5.82082 0
M  V30 44187 H 4318.49 -0.724286 0.294844 0
M  V30 44188 H 4321.08 -1.4821 1.26261 0
M  V30 44189 H 4319.25 -3.86027 0.428683 0
M  V30 44190 H 4320.98 -3.99685 0.635157 0
M  V30 44191 H 4317.73 -3.92318 2.65299 0
M  V30 44192 H 4318.16 -4.27375 5.25052 0
M  V30 44193 H 4322.8 -3.42975 2.47241 0
M  V30 44194 H 4320.52 -4.30756 6.83721 0
M  V30 44195 H 4324.1 -3.60468 4.56677 0
M  V30 44196 H 4322.98 -4.03992 6.72131 0
M  V30 44197 N 4320.49 -0.756478 -1.38258 0
M  V30 44198 C 4321.74 -0.310693 -1.99293 0
M  V30 44199 C 4322.05 1.11466 -1.60731 0
M  V30 44200 O 4323.25 1.66106 -2.14758 0
M  V30 44201 C 4321.71 -0.504543 -3.56346 0
M  V30 44202 C 4321.32 -1.93917 -4.03857 0
M  V30 44203 C 4323.06 -0.121616 -4.24326 0
M  V30 44204 C 4320.97 -2.08143 -5.53562 0
M  V30 44205 H 4319.9 -0.112418 -0.745572 0
M  V30 44206 H 4322.55 -0.933431 -1.57985 0
M  V30 44207 H 4320.93 0.187424 -3.95556 0
M  V30 44208 H 4322.11 -2.66484 -3.75929 0
M  V30 44209 H 4320.42 -2.27728 -3.4861 0
M  V30 44210 H 4323.02 -0.206627 -5.34301 0
M  V30 44211 H 4323.36 0.926141 -4.05867 0
M  V30 44212 H 4323.89 -0.765546 -3.90364 0
M  V30 44213 H 4320.63 -3.11183 -5.76927 0
M  V30 44214 H 4320.15 -1.4004 -5.83223 0
M  V30 44215 H 4321.83 -1.87275 -6.19304 0
M  V30 44216 N 4321.96 1.49264 -0.505783 0
M  V30 44217 C 4323.2 2.04369 0.0353402 0
M  V30 44218 C 4323.57 1.37666 1.33836 0
M  V30 44219 O 4324.77 1.8352 1.96402 0
M  V30 44220 C 4323.04 3.56948 0.179663 0
M  V30 44221 S 4324.6 4.33587 0.674344 0
M  V30 44222 H 4321.42 0.711 -0.000504404 0
M  V30 44223 H 4324.02 1.83262 -0.680839 0
M  V30 44224 H 4322.72 4.03037 -0.773906 0
M  V30 44225 H 4322.25 3.82469 0.920941 0
M  V30 44226 H 4324.27 4.56587 1.94276 0
M  V30 44227 N 4323.44 0.239823 1.55765 0
M  V30 44228 C 4324.72 -0.436843 1.90659 0
M  V30 44229 C 4325.1 -1.76396 1.15964 0
M  V30 44230 O 4324.45 -2.26841 0.274817 0
M  V30 44231 C 4324.66 -0.611879 3.43594 0
M  V30 44232 C 4326.01 -0.910992 4.14712 0
M  V30 44233 O 4327.03 -0.698002 3.49294 0
M  V30 44234 O 4325.89 -1.31621 5.30413 0
M  V30 44235 H 4322.98 -0.233497 0.793353 0
M  V30 44236 H 4325.53 0.283365 1.67317 0
M  V30 44237 H 4324.3 0.323493 3.89961 0
M  V30 44238 H 4323.92 -1.38289 3.72776 0
M  V30 44239 N 4324.92 -1.57565 -0.0333739 0
M  V30 44240 C 4326.17 -1.88701 -0.723618 0
M  V30 44241 C 4326.49 -0.83696 -1.76125 0
M  V30 44242 O 4325.76 0.129946 -1.95469 0
M  V30 44243 H 4324.34 -0.6964 -0.270251 0
M  V30 44244 H 4327 -1.949 -0.00034676 0
M  V30 44245 H 4326.1 -2.87442 -1.21589 0
M  V30 44246 N 4326.4 0.305564 -1.54609 0
M  V30 44247 C 4327.68 1.06066 -1.64346 0
M  V30 44248 C 4328.06 2.05363 -0.48881 0
M  V30 44249 O 4327.4 2.22621 0.514976 0
M  V30 44250 C 4327.61 1.74658 -3.02152 0
M  V30 44251 C 4328.96 2.27022 -3.58812 0
M  V30 44252 O 4329.99 1.84698 -3.04574 0
M  V30 44253 O 4328.84 3.0456 -4.53768 0
M  V30 44254 H 4325.94 0.489973 -0.666225 0
M  V30 44255 H 4328.48 0.304016 -1.66955 0
M  V30 44256 H 4327.26 1.02531 -3.77628 0
M  V30 44257 H 4326.88 2.57089 -3.033 0
M  V30 44258 N 4327.88 1.46988 0.568532 0
M  V30 44259 C 4328.82 1.59013 1.69757 0
M  V30 44260 C 4329.82 0.457931 1.63093 0
M  V30 44261 O 4331.02 0.635325 1.68415 0
M  V30 44262 H 4327.4 0.500213 0.561508 0
M  V30 44263 H 4329.37 2.53914 1.56749 0
M  V30 44264 C 4328.12 1.61094 3.0813 0
M  V30 44265 H 4327.44 2.47559 3.13934 0
M  V30 44266 H 4328.88 1.7356 3.8685 0
M  V30 44267 C 4327.34 0.342141 3.35158 0
M  V30 44268 O 4327.87 -0.561614 3.97755 0
M  V30 44269 N 4326.08 0.225659 2.89723 0
M  V30 44270 H 4325.62 0.962021 2.38962 0
M  V30 44271 H 4325.58 -0.622364 3.08179 0
M  V30 44272 N 4329.35 -0.814342 1.3493 0
M  V30 44273 C 4330.63 -1.55739 1.18341 0
M  V30 44274 C 4331.01 -2.09725 -0.240579 0
M  V30 44275 O 4330.36 -1.91729 -1.24307 0
M  V30 44276 C 4330.57 -2.67202 2.24508 0
M  V30 44277 C 4331.92 -3.35746 2.59922 0
M  V30 44278 O 4332.94 -2.77466 2.23363 0
M  V30 44279 O 4331.8 -4.41011 3.22756 0
M  V30 44280 H 4328.89 -0.687745 0.459277 0
M  V30 44281 H 4331.44 -0.854973 1.46589 0
M  V30 44282 H 4330.21 -2.25127 3.20052 0
M  V30 44283 H 4329.84 -3.45087 1.97486 0
M  V30 44284 N 4330.83 -1.18801 -1.03557 0
M  V30 44285 C 4332.07 -0.997555 -1.78405 0
M  V30 44286 C 4332.44 0.464136 -1.86306 0
M  V30 44287 O 4333.64 0.774192 -2.5741 0
M  V30 44288 C 4331.91 -1.64038 -3.17531 0
M  V30 44289 S 4333.47 -1.5984 -4.08652 0
M  V30 44290 H 4330.29 -0.358111 -0.614229 0
M  V30 44291 H 4332.89 -1.51033 -1.24134 0
M  V30 44292 H 4331.59 -2.69636 -3.09394 0
M  V30 44293 H 4331.12 -1.12812 -3.76878 0
M  V30 44294 H 4333.14 -0.617867 -4.92338 0
M  V30 44295 N 4332.31 1.22555 -0.990855 0
M  V30 44296 C 4333.56 1.90872 -0.664252 0
M  V30 44297 C 4333.88 1.77564 0.805979 0
M  V30 44298 O 4333.15 1.16156 1.57749 0
M  V30 44299 H 4331.73 0.706475 -0.242696 0
M  V30 44300 H 4334.39 1.48955 -1.25692 0
M  V30 44301 H 4333.49 2.98077 -0.925002 0
M  V30 44302 N 4333.79 0.763799 1.37855 0
M  V30 44303 C 4335.07 0.2496 1.94001 0
M  V30 44304 C 4335.45 -1.25397 1.6982 0
M  V30 44305 O 4334.79 -2.03334 1.04248 0
M  V30 44306 C 4335 0.61436 3.4355 0
M  V30 44307 C 4336.35 0.579701 4.20624 0
M  V30 44308 O 4337.38 0.553267 3.51877 0
M  V30 44309 O 4336.24 0.599701 5.432 0
M  V30 44310 H 4333.33 0.0553316 0.825147 0
M  V30 44311 H 4335.88 0.844614 1.47188 0
M  V30 44312 H 4334.65 1.65237 3.547 0
M  V30 44313 H 4334.27 -0.00812546 3.97599 0
M  V30 44314 N 4335.27 -1.48993 0.513692 0
M  V30 44315 C 4336.2 -2.26155 -0.304845 0
M  V30 44316 C 4337.18 -1.31291 -0.959246 0
M  V30 44317 O 4338.36 -1.60604 -0.986852 0
M  V30 44318 C 4335.49 -3.07016 -1.43035 0
M  V30 44319 C 4334.54 -4.17131 -0.889029 0
M  V30 44320 S 4335.37 -5.35005 0.230262 0
M  V30 44321 C 4336.52 -6.19423 -0.898106 0
M  V30 44322 H 4336.76 -2.95232 0.350038 0
M  V30 44323 H 4334.29 -1.51473 0.299195 0
M  V30 44324 H 4336.25 -3.54185 -2.07517 0
M  V30 44325 H 4334.91 -2.37383 -2.05689 0
M  V30 44326 H 4334.1 -4.73273 -1.73288 0
M  V30 44327 H 4333.7 -3.72618 -0.321196 0
M  V30 44328 H 4336 -6.53137 -1.80049 0
M  V30 44329 H 4336.94 -7.07106 -0.375028 0
M  V30 44330 H 4337.35 -5.52217 -1.17116 0
M  V30 44331 N 4336.75 -0.248081 -1.55635 0
M  V30 44332 C 4337.97 0.383403 -2.03825 0
M  V30 44333 C 4338.4 1.50664 -1.12614 0
M  V30 44334 O 4337.75 1.80907 -0.119328 0
M  V30 44335 C 4337.8 0.867418 -3.50012 0
M  V30 44336 O 4336.91 1.9769 -3.61929 0
M  V30 44337 H 4336.25 0.0833973 -0.658742 0
M  V30 44338 H 4338.78 -0.374482 -2.01144 0
M  V30 44339 H 4338.79 1.17032 -3.90855 0
M  V30 44340 H 4337.46 0.045461 -4.15875 0
M  V30 44341 H 4336.04 1.6786 -3.32983 0
M  V30 44342 N 4338.22 1.5758 0.0250174 0
M  V30 44343 C 4339.5 1.80623 0.750653 0
M  V30 44344 C 4339.88 0.847117 1.93358 0
M  V30 44345 O 4339.23 -0.109817 2.28236 0
M  V30 44346 C 4339.44 3.2845 1.17989 0
M  V30 44347 C 4340.79 3.93539 1.59413 0
M  V30 44348 O 4341.81 3.32624 1.27436 0
M  V30 44349 O 4340.67 5.00797 2.18779 0
M  V30 44350 H 4337.76 0.742907 0.363342 0
M  V30 44351 H 4340.31 1.697 0.00148428 0
M  V30 44352 H 4339.08 3.89858 0.335615 0
M  V30 44353 H 4338.7 3.44277 1.98895 0
M  V30 44354 N 4339.7 -0.29736 1.54769 0
M  V30 44355 C 4340.61 -1.38936 1.89034 0
M  V30 44356 C 4341.63 -1.55292 0.784884 0
M  V30 44357 O 4342.8 -1.69887 1.08169 0
M  V30 44358 C 4339.87 -2.73256 2.13382 0
M  V30 44359 C 4338.93 -2.65855 3.37075 0
M  V30 44360 C 4338.16 -3.93769 3.60253 0
M  V30 44361 O 4338.39 -4.93301 2.86374 0
M  V30 44362 O 4337.32 -3.95442 4.53772 0
M  V30 44363 H 4341.15 -1.12879 2.81943 0
M  V30 44364 H 4338.73 -0.493746 1.41005 0
M  V30 44365 H 4340.61 -3.52721 2.30577 0
M  V30 44366 H 4339.29 -2.99149 1.23659 0
M  V30 44367 H 4338.19 -1.84849 3.25241 0
M  V30 44368 H 4339.53 -2.44914 4.2694 0
M  V30 44369 N 4341.18 -1.47287 -0.560729 0
M  V30 44370 C 4342.46 -1.44212 -1.32145 0
M  V30 44371 C 4342.84 -0.137191 -2.10654 0
M  V30 44372 O 4342.18 0.881323 -2.1082 0
M  V30 44373 C 4342.39 -2.6855 -2.22894 0
M  V30 44374 C 4343.74 -3.15618 -2.84026 0
M  V30 44375 O 4344.77 -2.69253 -2.33198 0
M  V30 44376 O 4343.63 -3.96212 -3.76401 0
M  V30 44377 H 4340.72 -0.574536 -0.594843 0
M  V30 44378 H 4343.27 -1.59483 -0.579924 0
M  V30 44379 H 4342.04 -3.55062 -1.64458 0
M  V30 44380 H 4341.66 -2.55847 -3.04348 0
M  V30 44381 N 4342.66 0.807175 -1.3536 0
M  V30 44382 C 4343.6 1.91898 -1.28234 0
M  V30 44383 C 4344.57 1.65381 -0.1544 0
M  V30 44384 O 4345.76 1.87782 -0.338004 0
M  V30 44385 C 4342.9 3.2843 -1.05963 0
M  V30 44386 C 4342.01 3.67136 -2.27673 0
M  V30 44387 C 4341.15 4.92695 -1.98557 0
M  V30 44388 C 4340.19 5.24028 -3.16324 0
M  V30 44389 N 4339.32 6.40767 -2.86988 0
M  V30 44390 H 4344.16 1.97325 -2.23308 0
M  V30 44391 H 4341.7 0.965197 -1.11006 0
M  V30 44392 H 4343.66 4.07136 -0.910823 0
M  V30 44393 H 4342.29 3.22472 -0.145503 0
M  V30 44394 H 4341.34 2.83695 -2.53419 0
M  V30 44395 H 4342.65 3.86252 -3.15612 0
M  V30 44396 H 4341.81 5.79227 -1.80503 0
M  V30 44397 H 4340.55 4.75614 -1.07901 0
M  V30 44398 H 4339.55 4.35987 -3.34955 0
M  V30 44399 H 4340.78 5.4304 -4.0778 0
M  V30 44400 H 4338.72 6.25112 -1.98925 0
M  V30 44401 H 4338.64 6.6013 -3.68462 0
M  V30 44402 H 4339.91 7.30327 -2.72474 0
M  V30 44403 N 4344.14 1.19348 1.02926 0
M  V30 44404 C 4345.55 0.945615 1.2857 0
M  V30 44405 C 4345.75 -0.382238 1.97841 0
M  V30 44406 O 4344.81 -1.11384 2.26605 0
M  V30 44407 C 4346.12 2.11935 2.13317 0
M  V30 44408 C 4347.67 2.15892 2.26626 0
M  V30 44409 C 4348.14 3.32716 3.14745 0
M  V30 44410 N 4349.63 3.32649 3.22333 0
M  V30 44411 C 4350.37 4.19687 3.90705 0
M  V30 44412 N 4349.87 5.1688 4.6131 0
M  V30 44413 N 4351.66 4.07566 3.871 0
M  V30 44414 H 4343.81 2.04781 0.563772 0
M  V30 44415 H 4346.07 0.89541 0.311359 0
M  V30 44416 H 4345.78 3.08028 1.69739 0
M  V30 44417 H 4345.65 2.08964 3.14028 0
M  V30 44418 H 4348.04 1.2037 2.69435 0
M  V30 44419 H 4348.12 2.22916 1.25467 0
M  V30 44420 H 4347.76 4.28517 2.72645 0
M  V30 44421 H 4347.69 3.22928 4.15962 0
M  V30 44422 H 4350.19 2.62294 2.72048 0
M  V30 44423 H 4350.5 5.79643 5.1111 0
M  V30 44424 H 4348.84 5.20829 4.60176 0
M  V30 44425 H 4352.03 3.30914 3.3108 0
M  V30 44426 H 4352.21 4.75612 4.40111 0
M  V30 44427 N 4345.61 -1.22028 0.997341 0
M  V30 44428 C 4346.56 -2.21933 0.52246 0
M  V30 44429 C 4347.55 -1.55542 -0.411771 0
M  V30 44430 O 4348.74 -1.75394 -0.237868 0
M  V30 44431 C 4345.87 -3.4294 -0.157165 0
M  V30 44432 C 4344.95 -4.16532 0.797632 0
M  V30 44433 N 4345.35 -4.66812 1.94731 0
M  V30 44434 C 4343.64 -4.41747 0.614426 0
M  V30 44435 C 4344.34 -5.22977 2.54696 0
M  V30 44436 N 4343.32 -5.11898 1.82924 0
M  V30 44437 H 4347.12 -2.58455 1.39923 0
M  V30 44438 H 4344.64 -1.37749 0.860173 0
M  V30 44439 H 4346.63 -4.13709 -0.514791 0
M  V30 44440 H 4345.29 -3.0793 -1.03001 0
M  V30 44441 H 4346.3 -4.6263 2.32795 0
M  V30 44442 H 4342.98 -4.16961 -0.211985 0
M  V30 44443 H 4344.37 -5.72388 3.51883 0
M  V30 44444 N 4347.09 -0.771099 -1.37448 0
M  V30 44445 C 4348.02 -0.115147 -2.28911 0
M  V30 44446 C 4349.04 0.664934 -1.48602 0
M  V30 44447 O 4350.23 0.503134 -1.71262 0
M  V30 44448 C 4347.33 0.860566 -3.27792 0
M  V30 44449 C 4346.5 0.134437 -4.37193 0
M  V30 44450 C 4345.56 1.02342 -5.16152 0
M  V30 44451 O 4344.58 0.487436 -5.67109 0
M  V30 44452 N 4345.79 2.34976 -5.30817 0
M  V30 44453 H 4348.55 -0.900721 -2.85845 0
M  V30 44454 H 4346.11 -0.623392 -1.49417 0
M  V30 44455 H 4348.1 1.4587 -3.77497 0
M  V30 44456 H 4346.67 1.54711 -2.71631 0
M  V30 44457 H 4345.89 -0.644604 -3.88894 0
M  V30 44458 H 4347.18 -0.367337 -5.07472 0
M  V30 44459 H 4346.58 2.80958 -4.90998 0
M  V30 44460 H 4345.14 2.89798 -5.83833 0
M  V30 44461 N 4348.57 1.48719 -0.521586 0
M  V30 44462 C 4349.81 2.04395 0.0136621 0
M  V30 44463 C 4350.17 1.39078 1.32368 0
M  V30 44464 O 4351.38 1.85593 1.94444 0
M  V30 44465 C 4349.65 3.57119 0.141794 0
M  V30 44466 S 4351.21 4.34278 0.628318 0
M  V30 44467 H 4348.02 0.710954 -0.00804548 0
M  V30 44468 H 4350.63 1.82529 -0.700238 0
M  V30 44469 H 4349.33 4.02194 -0.81661 0
M  V30 44470 H 4348.86 3.83424 0.880323 0
M  V30 44471 H 4350.88 4.58622 1.89422 0
M  V30 44472 N 4350.05 0.256331 1.55501 0
M  V30 44473 C 4350.98 -0.672136 2.19123 0
M  V30 44474 C 4351.99 -1.1317 1.17031 0
M  V30 44475 O 4353.18 -1.05685 1.4385 0
M  V30 44476 C 4350.28 -1.9265 2.78818 0
M  V30 44477 C 4349.46 -1.61683 4.0642 0
M  V30 44478 C 4348.51 -2.72174 4.50342 0
M  V30 44479 O 4347.54 -2.39158 5.16519 0
M  V30 44480 N 4348.74 -4.01862 4.18912 0
M  V30 44481 H 4351.51 -0.127717 2.99428 0
M  V30 44482 H 4349.07 0.0766671 1.61718 0
M  V30 44483 H 4351.06 -2.65825 3.05154 0
M  V30 44484 H 4349.63 -2.38046 2.02616 0
M  V30 44485 H 4348.85 -0.719799 3.87573 0
M  V30 44486 H 4350.14 -1.3847 4.89595 0
M  V30 44487 H 4349.54 -4.31514 3.65803 0
M  V30 44488 H 4348.09 -4.71473 4.50063 0
M  V30 44489 N 4351.53 -1.57591 -0.0166602 0
M  V30 44490 C 4352.47 -2.08466 -1.03173 0
M  V30 44491 C 4353.47 -1.00105 -1.36657 0
M  V30 44492 O 4354.67 -1.18584 -1.35417 0
M  V30 44493 H 4351.05 -0.665426 -0.350304 0
M  V30 44494 H 4353.02 -2.92769 -0.576945 0
M  V30 44495 C 4351.77 -2.58965 -2.32019 0
M  V30 44496 H 4351.09 -3.41969 -2.07117 0
M  V30 44497 H 4352.53 -2.98258 -3.0136 0
M  V30 44498 C 4350.99 -1.49634 -3.01846 0
M  V30 44499 O 4351.52 -0.869668 -3.92173 0
M  V30 44500 N 4349.73 -1.22785 -2.63386 0
M  V30 44501 H 4349.27 -1.73929 -1.90017 0
M  V30 44502 H 4349.23 -0.498491 -3.10423 0
M  V30 44503 N 4353 0.289148 -1.54925 0
M  V30 44504 C 4353.94 1.37889 -1.83083 0
M  V30 44505 C 4354.95 1.46288 -0.714393 0
M  V30 44506 O 4356.14 1.48394 -0.992038 0
M  V30 44507 C 4353.24 2.76161 -1.96438 0
M  V30 44508 C 4352.41 2.90551 -3.26954 0
M  V30 44509 C 4351.47 4.09396 -3.30577 0
M  V30 44510 O 4350.5 4.00919 -4.04045 0
M  V30 44511 N 4351.7 5.20601 -2.56817 0
M  V30 44512 H 4354.46 1.14085 -2.77137 0
M  V30 44513 H 4352.02 0.479244 -1.54644 0
M  V30 44514 H 4354.02 3.53932 -1.96251 0
M  V30 44515 H 4352.59 2.9286 -1.09325 0
M  V30 44516 H 4351.81 1.99796 -3.39816 0
M  V30 44517 H 4353.09 2.97084 -4.1306 0
M  V30 44518 H 4352.49 5.30371 -1.96781 0
M  V30 44519 H 4351.05 5.96662 -2.6237 0
M  V30 44520 N 4354.48 1.47583 0.55291 0
M  V30 44521 C 4355.43 1.60805 1.68061 0
M  V30 44522 C 4356.42 0.475204 1.62598 0
M  V30 44523 O 4357.63 0.653152 1.67732 0
M  V30 44524 H 4354.01 0.506141 0.556171 0
M  V30 44525 H 4355.98 2.55562 1.54047 0
M  V30 44526 C 4354.73 1.64353 3.06404 0
M  V30 44527 H 4354.05 2.50874 3.11291 0
M  V30 44528 H 4355.49 1.77654 3.84987 0
M  V30 44529 C 4353.95 0.37767 3.34776 0
M  V30 44530 O 4354.48 -0.519396 3.98328 0
M  V30 44531 N 4352.68 0.256375 2.89467 0
M  V30 44532 H 4352.23 0.987312 2.37928 0
M  V30 44533 H 4352.19 -0.589642 3.08821 0
M  V30 44534 N 4355.96 -0.799985 1.35787 0
M  V30 44535 C 4357.2 -1.57069 1.308 0
M  V30 44536 C 4357.56 -1.91659 -0.114376 0
M  V30 44537 O 4358.77 -2.67245 -0.288687 0
M  V30 44538 C 4357.04 -2.82038 2.19521 0
M  V30 44539 S 4358.6 -3.72382 2.32115 0
M  V30 44540 H 4355.41 -0.538084 0.464743 0
M  V30 44541 H 4358.02 -0.943109 1.71247 0
M  V30 44542 H 4356.72 -2.5466 3.21833 0
M  V30 44543 H 4356.25 -3.49777 1.80055 0
M  V30 44544 H 4358.27 -4.7264 1.51084 0
M  V30 44545 N 4357.44 -1.19892 -1.02292 0
M  V30 44546 C 4358.66 -1.03134 -1.79939 0
M  V30 44547 C 4359.09 0.415169 -1.83461 0
M  V30 44548 O 4358.45 1.29873 -1.26501 0
M  V30 44549 C 4358.49 -1.61202 -3.22562 0
M  V30 44550 O 4357.6 -0.845366 -4.03643 0
M  V30 44551 H 4356.94 -0.364138 -0.555247 0
M  V30 44552 H 4359.47 -1.59047 -1.28706 0
M  V30 44553 H 4359.48 -1.6467 -3.73293 0
M  V30 44554 H 4358.15 -2.6648 -3.19314 0
M  V30 44555 H 4356.73 -0.884402 -3.62261 0
M  V30 44556 N 4358.92 1.21498 -1.0038 0
M  V30 44557 C 4360.19 1.86126 -0.601362 0
M  V30 44558 C 4360.57 1.89947 0.92105 0
M  V30 44559 O 4359.92 1.39791 1.80751 0
M  V30 44560 C 4360.13 3.26442 -1.23436 0
M  V30 44561 C 4361.48 4.02844 -1.34172 0
M  V30 44562 O 4362.5 3.35749 -1.18958 0
M  V30 44563 O 4361.36 5.22971 -1.58631 0
M  V30 44564 H 4358.46 0.800981 -0.20581 0
M  V30 44565 H 4361 1.2919 -1.10037 0
M  V30 44566 H 4359.77 3.18355 -2.2752 0
M  V30 44567 H 4359.4 3.90997 -0.721624 0
M  V30 44568 N 4360.39 0.778378 1.37037 0
M  V30 44569 C 4361.62 0.356122 2.0432 0
M  V30 44570 C 4362.04 -1.01574 1.58317 0
M  V30 44571 O 4361.4 -1.65219 0.746479 0
M  V30 44572 C 4361.45 0.415793 3.58195 0
M  V30 44573 O 4360.55 -0.581344 4.08282 0
M  V30 44574 H 4359.9 0.153034 0.646124 0
M  V30 44575 H 4362.43 1.05642 1.75217 0
M  V30 44576 H 4362.44 0.275447 4.07069 0
M  V30 44577 H 4361.11 1.41659 3.91032 0
M  V30 44578 H 4359.69 -0.40357 3.7071 0
M  V30 44579 N 4361.87 -1.4844 0.529465 0
M  V30 44580 C 4362.78 -2.33395 -0.237432 0
M  V30 44581 C 4363.8 -1.46455 -0.939517 0
M  V30 44582 O 4364.98 -1.79436 -0.914591 0
M  V30 44583 C 4362.04 -3.22559 -1.2711 0
M  V30 44584 C 4361.1 -4.25372 -0.579416 0
M  V30 44585 C 4360.33 -5.10274 -1.56383 0
M  V30 44586 O 4360.56 -4.97149 -2.79641 0
M  V30 44587 O 4359.49 -5.91698 -1.10351 0
M  V30 44588 H 4363.32 -3.00216 0.458705 0
M  V30 44589 H 4360.9 -1.46551 0.290395 0
M  V30 44590 H 4362.78 -3.77712 -1.86846 0
M  V30 44591 H 4361.46 -2.584 -1.94965 0
M  V30 44592 H 4360.37 -3.74054 0.0584292 0
M  V30 44593 H 4361.7 -4.92167 0.0571886 0
M  V30 44594 N 4363.35 -0.264574 -1.55363 0
M  V30 44595 C 4364.6 0.35521 -1.9936 0
M  V30 44596 C 4364.93 1.56647 -1.1529 0
M  V30 44597 O 4364.18 1.94592 -0.207972 0
M  V30 44598 C 4364.48 0.791544 -3.48525 0
M  V30 44599 C 4364.15 -0.313913 -4.49806 0
M  V30 44600 C 4362.81 -0.61748 -4.77222 0
M  V30 44601 C 4365.16 -1.05934 -5.10321 0
M  V30 44602 C 4362.49 -1.67023 -5.62423 0
M  V30 44603 C 4364.84 -2.10174 -5.96665 0
M  V30 44604 C 4363.5 -2.41176 -6.22407 0
M  V30 44605 H 4362.77 0.12998 -0.729511 0
M  V30 44606 H 4365.42 -0.376088 -1.87771 0
M  V30 44607 H 4363.73 1.60234 -3.57536 0
M  V30 44608 H 4365.42 1.28166 -3.79966 0
M  V30 44609 H 4362.01 -0.0671827 -4.28547 0
M  V30 44610 H 4366.2 -0.838065 -4.89173 0
M  V30 44611 H 4361.45 -1.91557 -5.80617 0
M  V30 44612 H 4365.63 -2.68415 -6.42594 0
M  V30 44613 H 4363.25 -3.22888 -6.8822 0
M  V30 44614 N 4364.83 1.57598 0.00830251 0
M  V30 44615 C 4365.76 2.10933 1.00147 0
M  V30 44616 C 4366.74 1.01655 1.36383 0
M  V30 44617 O 4367.93 1.29293 1.44903 0
M  V30 44618 C 4365.06 2.60582 2.29596 0
M  V30 44619 C 4364.01 3.74312 2.07544 0
M  V30 44620 C 4363.34 4.10244 3.42935 0
M  V30 44621 C 4364.64 5.01921 1.44475 0
M  V30 44622 H 4366.33 2.94165 0.557409 0
M  V30 44623 H 4363.88 1.41509 0.266678 0
M  V30 44624 H 4365.83 2.9652 2.99422 0
M  V30 44625 H 4364.55 1.74461 2.761 0
M  V30 44626 H 4363.21 3.38755 1.40146 0
M  V30 44627 H 4362.86 3.21158 3.87126 0
M  V30 44628 H 4362.56 4.86861 3.28999 0
M  V30 44629 H 4364.08 4.48734 4.1409 0
M  V30 44630 H 4365.5 5.35683 2.04247 0
M  V30 44631 H 4363.89 5.83287 1.41052 0
M  V30 44632 H 4364.96 4.83138 0.412964 0
M  V30 44633 N 4366.31 -0.280928 1.55076 0
M  V30 44634 C 4367.55 -1.02131 1.77055 0
M  V30 44635 C 4367.91 -1.83785 0.55562 0
M  V30 44636 O 4369.11 -2.60735 0.653516 0
M  V30 44637 C 4367.38 -1.88697 3.03526 0
M  V30 44638 S 4368.94 -2.69109 3.46592 0
M  V30 44639 H 4365.76 -0.344119 0.622176 0
M  V30 44640 H 4368.36 -0.292561 1.93299 0
M  V30 44641 H 4367.07 -1.27621 3.90052 0
M  V30 44642 H 4366.6 -2.65907 2.89926 0
M  V30 44643 H 4368.61 -3.91207 3.05241 0
M  V30 44644 N 4367.79 -1.47874 -0.545076 0
M  V30 44645 C 4369.03 -1.55351 -1.30361 0
M  V30 44646 C 4369.36 -0.220216 -1.92947 0
M  V30 44647 O 4368.64 0.772367 -1.78507 0
M  V30 44648 C 4368.92 -2.6806 -2.4045 0
M  V30 44649 C 4368.78 -4.11045 -1.82653 0
M  V30 44650 C 4370.09 -2.76609 -3.42309 0
M  V30 44651 H 4367.21 -0.56551 -0.472618 0
M  V30 44652 H 4369.86 -1.79983 -0.608767 0
M  V30 44653 H 4368.01 -2.47187 -2.99718 0
M  V30 44654 H 4369.68 -4.43315 -1.27552 0
M  V30 44655 H 4367.92 -4.18753 -1.13263 0
M  V30 44656 H 4368.59 -4.85702 -2.62293 0
M  V30 44657 H 4371.07 -2.95473 -2.92976 0
M  V30 44658 H 4369.94 -3.57225 -4.16751 0
M  V30 44659 H 4370.2 -1.84154 -4.0192 0
M  V30 44660 N 4369.26 0.792773 -1.36209 0
M  V30 44661 C 4370.21 1.92667 -1.30316 0
M  V30 44662 C 4371.21 1.68267 -0.195554 0
M  V30 44663 O 4372.41 1.76315 -0.362362 0
M  V30 44664 H 4368.79 0.633232 -0.405612 0
M  V30 44665 H 4370.76 1.94756 -2.26081 0
M  V30 44666 C 4369.51 3.29643 -1.10594 0
M  V30 44667 H 4368.83 3.48982 -1.95068 0
M  V30 44668 H 4370.27 4.09344 -1.10516 0
M  V30 44669 C 4368.73 3.36366 0.189584 0
M  V30 44670 O 4369.26 3.8396 1.18059 0
M  V30 44671 N 4367.46 2.89664 0.233109 0
M  V30 44672 H 4367.01 2.51124 -0.573962 0
M  V30 44673 H 4366.97 2.94544 1.09961 0
M  V30 44674 N 4370.74 1.20433 1.01654 0
M  V30 44675 C 4372.02 0.923569 1.72423 0
M  V30 44676 C 4372.4 -0.567639 2.03325 0
M  V30 44677 O 4371.75 -1.52932 1.69777 0
M  V30 44678 C 4371.96 1.79659 2.99205 0
M  V30 44679 C 4373.3 2.03845 3.72468 0
M  V30 44680 O 4374.33 1.76913 3.09161 0
M  V30 44681 O 4373.19 2.49329 4.8631 0
M  V30 44682 H 4370.28 0.345318 0.751455 0
M  V30 44683 H 4372.83 1.31307 1.07502 0
M  V30 44684 H 4371.6 2.80634 2.72691 0
M  V30 44685 H 4371.22 1.40717 3.71866 0
M  V30 44686 N 4372.22 -1.20963 1.01023 0
M  V30 44687 C 4373.64 -1.42236 0.723959 0
M  V30 44688 C 4373.84 -1.88992 -0.698864 0
M  V30 44689 O 4372.89 -2.05476 -1.4675 0
M  V30 44690 C 4374.2 -2.44941 1.74426 0
M  V30 44691 C 4375.75 -2.58716 1.76167 0
M  V30 44692 C 4376.23 -3.64659 2.77106 0
M  V30 44693 N 4377.72 -3.72136 2.75807 0
M  V30 44694 C 4378.45 -4.5375 3.50568 0
M  V30 44695 N 4377.95 -5.3922 4.34986 0
M  V30 44696 N 4379.74 -4.48223 3.39194 0
M  V30 44697 H 4371.89 -0.889267 1.92888 0
M  V30 44698 H 4374.16 -0.452819 0.832862 0
M  V30 44699 H 4373.86 -2.17569 2.76327 0
M  V30 44700 H 4373.74 -3.43829 1.55118 0
M  V30 44701 H 4376.12 -2.85422 0.749543 0
M  V30 44702 H 4376.2 -1.60046 1.99547 0
M  V30 44703 H 4375.85 -3.38698 3.78479 0
M  V30 44704 H 4375.78 -4.62938 2.5099 0
M  V30 44705 H 4378.27 -3.11079 2.14565 0
M  V30 44706 H 4378.58 -5.98564 4.88816 0
M  V30 44707 H 4376.93 -5.38744 4.39067 0
M  V30 44708 H 4380.12 -3.80484 2.72672 0
M  V30 44709 H 4380.29 -5.11593 3.97714 0
M  V30 44710 N 4373.7 -0.785634 -1.36622 0
M  V30 44711 C 4375.11 -0.419935 -1.81916 0
M  V30 44712 C 4375.46 1.05567 -1.65378 0
M  V30 44713 O 4374.58 1.81876 -1.17261 0
M  V30 44714 C 4375.18 -0.755442 -3.3027 0
M  V30 44715 C 4373.74 -0.442622 -3.73788 0
M  V30 44716 C 4372.89 -0.992064 -2.58947 0
M  V30 44717 H 4375.84 -0.979106 -1.24897 0
M  V30 44718 H 4375.86 -0.0451497 -3.80473 0
M  V30 44719 H 4375.37 -1.82946 -3.42275 0
M  V30 44720 H 4373.47 0.623519 -3.67346 0
M  V30 44721 H 4373.58 -0.960586 -4.69371 0
M  V30 44722 H 4371.95 -0.415502 -2.51288 0
M  V30 44723 H 4372.73 -2.07177 -2.73738 0
M  V30 44724 N 4375.18 1.48157 -0.53733 0
M  V30 44725 C 4376.59 1.86439 -0.0987602 0
M  V30 44726 C 4376.94 1.44612 1.32596 0
M  V30 44727 O 4376.06 0.840147 1.99425 0
M  V30 44728 C 4376.66 3.38361 -0.172451 0
M  V30 44729 C 4375.22 3.75808 0.210965 0
M  V30 44730 C 4374.36 2.72209 -0.52894 0
M  V30 44731 H 4377.31 1.39957 -0.748175 0
M  V30 44732 H 4377.34 3.75513 0.614008 0
M  V30 44733 H 4376.85 3.68772 -1.20949 0
M  V30 44734 H 4374.95 3.51011 1.24987 0
M  V30 44735 H 4375.06 4.78913 -0.133759 0
M  V30 44736 H 4373.43 2.54687 0.025667 0
M  V30 44737 H 4374.21 3.05463 -1.56675 0
M  V30 44738 N 4376.65 0.272809 1.55221 0
M  V30 44739 C 4377.93 -0.396303 1.91543 0
M  V30 44740 C 4378.31 -1.73897 1.19679 0
M  V30 44741 O 4377.66 -2.26207 0.322872 0
M  V30 44742 C 4377.87 -0.53886 3.44815 0
M  V30 44743 C 4379.22 -0.822821 4.16551 0
M  V30 44744 O 4380.24 -0.623755 3.50696 0
M  V30 44745 O 4379.1 -1.2034 5.33086 0
M  V30 44746 H 4376.19 -0.216616 0.798127 0
M  V30 44747 H 4378.74 0.318792 1.66679 0
M  V30 44748 H 4377.51 0.406136 3.89187 0
M  V30 44749 H 4377.14 -1.30351 3.75625 0
M  V30 44750 N 4378.13 -1.576 5.54043e-05 0
M  V30 44751 C 4379.55 -1.55578 -0.356023 0
M  V30 44752 C 4379.75 -1.00267 -1.74782 0
M  V30 44753 O 4378.8 -0.636508 -2.44346 0
M  V30 44754 C 4380.12 -2.9981 -0.231205 0
M  V30 44755 C 4381.67 -3.11499 -0.30614 0
M  V30 44756 C 4382.14 -4.57516 -0.210445 0
M  V30 44757 N 4383.63 -4.62422 -0.268343 0
M  V30 44758 C 4384.37 -5.72987 -0.217638 0
M  V30 44759 N 4383.86 -6.927 -0.117527 0
M  V30 44760 N 4385.66 -5.61454 -0.269507 0
M  V30 44761 H 4377.81 -1.91894 0.910524 0
M  V30 44762 H 4380.07 -0.881413 0.349021 0
M  V30 44763 H 4379.78 -3.44117 0.726394 0
M  V30 44764 H 4379.65 -3.63336 -1.01325 0
M  V30 44765 H 4382.04 -2.67122 -1.25418 0
M  V30 44766 H 4382.12 -2.5075 0.505777 0
M  V30 44767 H 4381.76 -5.02567 0.734054 0
M  V30 44768 H 4381.69 -5.16211 -1.04085 0
M  V30 44769 H 4384.18 -3.76303 -0.347045 0
M  V30 44770 H 4384.5 -7.72754 -0.0847346 0
M  V30 44771 H 4382.84 -6.9495 -0.0831537 0
M  V30 44772 H 4386.03 -4.6682 -0.345914 0
M  V30 44773 H 4386.2 -6.47604 -0.226526 0
M  V30 44774 N 4379.61 0.2727 -1.55223 0
M  V30 44775 C 4381.03 0.619907 -1.47069 0
M  V30 44776 C 4381.23 1.89498 -0.685045 0
M  V30 44777 O 4380.28 2.51674 -0.204019 0
M  V30 44778 C 4381.6 0.74659 -2.91284 0
M  V30 44779 C 4383.14 0.840625 -3.015 0
M  V30 44780 C 4383.62 0.999083 -4.4697 0
M  V30 44781 N 4385.11 1.0646 -4.508 0
M  V30 44782 C 4385.84 1.20601 -5.60574 0
M  V30 44783 N 4385.34 1.31459 -6.80213 0
M  V30 44784 N 4387.13 1.23714 -5.48317 0
M  V30 44785 H 4379.28 -0.564678 -2.04756 0
M  V30 44786 H 4381.55 -0.19121 -0.928516 0
M  V30 44787 H 4381.25 -0.119877 -3.51496 0
M  V30 44788 H 4381.13 1.62678 -3.40317 0
M  V30 44789 H 4383.51 1.69756 -2.41385 0
M  V30 44790 H 4383.6 -0.0641773 -2.55719 0
M  V30 44791 H 4383.24 0.146806 -5.07688 0
M  V30 44792 H 4383.17 1.91854 -4.90408 0
M  V30 44793 H 4385.66 0.993068 -3.64618 0
M  V30 44794 H 4385.97 1.42084 -7.59626 0
M  V30 44795 H 4384.32 1.28463 -6.83024 0
M  V30 44796 H 4387.51 1.14861 -4.53789 0
M  V30 44797 H 4387.68 1.3439 -6.33911 0
M  V30 44798 N 4381.09 1.48161 0.537226 0
M  V30 44799 C 4382.33 1.57401 1.304 0
M  V30 44800 C 4382.69 0.239269 1.90503 0
M  V30 44801 O 4383.89 0.206622 2.68005 0
M  V30 44802 C 4382.16 2.67549 2.36965 0
M  V30 44803 S 4383.72 2.96507 3.23464 0
M  V30 44804 H 4380.54 0.555592 0.443665 0
M  V30 44805 H 4383.14 1.85646 0.612847 0
M  V30 44806 H 4381.85 3.63099 1.91278 0
M  V30 44807 H 4381.38 2.41183 3.10796 0
M  V30 44808 H 4383.39 2.3525 4.36889 0
M  V30 44809 N 4382.57 -0.785538 1.36627 0
M  V30 44810 C 4383.82 -1.53878 1.30401 0
M  V30 44811 C 4384.13 -1.95271 -0.113384 0
M  V30 44812 O 4385.33 -2.69859 -0.298047 0
M  V30 44813 C 4383.79 -2.778 2.28812 0
M  V30 44814 C 4383.4 -2.43561 3.76008 0
M  V30 44815 C 4385.14 -3.55775 2.3157 0
M  V30 44816 C 4383.05 -3.63902 4.66186 0
M  V30 44817 H 4381.98 -0.577661 0.484586 0
M  V30 44818 H 4384.63 -0.861648 1.62012 0
M  V30 44819 H 4383.01 -3.47333 1.902 0
M  V30 44820 H 4384.19 -1.81901 4.23378 0
M  V30 44821 H 4382.5 -1.7879 3.76063 0
M  V30 44822 H 4385.1 -4.45194 2.96152 0
M  V30 44823 H 4385.44 -3.9464 1.32534 0
M  V30 44824 H 4385.97 -2.93226 2.68819 0
M  V30 44825 H 4382.71 -3.3013 5.66299 0
M  V30 44826 H 4382.23 -4.24715 4.23529 0
M  V30 44827 H 4383.91 -4.30884 4.82647 0
M  V30 44828 N 4384.04 -1.20971 -1.01014 0
M  V30 44829 C 4385.46 -1.02325 -1.56162 0
M  V30 44830 C 4385.81 0.418479 -1.91685 0
M  V30 44831 O 4384.93 1.3009 -1.72933 0
M  V30 44832 C 4385.53 -1.85119 -2.83754 0
M  V30 44833 C 4384.09 -1.70821 -3.35406 0
M  V30 44834 C 4383.23 -1.82651 -2.08648 0
M  V30 44835 H 4386.18 -1.35068 -0.833208 0
M  V30 44836 H 4386.2 -1.35839 -3.55426 0
M  V30 44837 H 4385.72 -2.90044 -2.57868 0
M  V30 44838 H 4383.82 -0.685593 -3.66238 0
M  V30 44839 H 4383.93 -2.52482 -4.07173 0
M  V30 44840 H 4382.29 -1.25904 -2.21405 0
M  V30 44841 H 4383.08 -2.89073 -1.8518 0
M  V30 44842 N 4385.52 1.20426 -1.01663 0
M  V30 44843 C 4386.45 2.22624 -0.545066 0
M  V30 44844 C 4387.47 1.5848 0.372553 0
M  V30 44845 O 4388.66 1.7768 0.170896 0
M  V30 44846 C 4385.76 3.38142 0.226511 0
M  V30 44847 C 4384.93 4.31875 -0.693028 0
M  V30 44848 C 4383.99 5.26191 0.0309766 0
M  V30 44849 O 4383.01 5.66118 -0.591542 0
M  V30 44850 N 4384.22 5.65623 1.30581 0
M  V30 44851 H 4386.98 2.63711 -1.42397 0
M  V30 44852 H 4384.54 1.34968 -0.894163 0
M  V30 44853 H 4386.53 3.98242 0.7201 0
M  V30 44854 H 4385.1 2.95946 1.00671 0
M  V30 44855 H 4384.32 3.69742 -1.36692 0
M  V30 44856 H 4385.61 4.91422 -1.31841 0
M  V30 44857 H 4385.01 5.35197 1.83251 0
M  V30 44858 H 4383.57 6.28031 1.74413 0
M  V30 44859 N 4387 0.792868 1.36203 0
M  V30 44860 C 4388.23 0.377773 2.0393 0
M  V30 44861 C 4388.65 -0.998891 1.59386 0
M  V30 44862 O 4388.01 -1.64418 0.763961 0
M  V30 44863 C 4388.06 0.453761 3.57734 0
M  V30 44864 O 4387.16 -0.538007 4.08876 0
M  V30 44865 H 4386.5 0.159878 0.644465 0
M  V30 44866 H 4389.03 1.07494 1.74087 0
M  V30 44867 H 4389.04 0.318607 4.06754 0
M  V30 44868 H 4387.72 1.45798 3.89507 0
M  V30 44869 H 4386.29 -0.364229 3.71117 0
M  V30 44870 N 4388.48 -1.4787 0.54518 0
M  V30 44871 C 4389.72 -2.03385 0.0248666 0
M  V30 44872 C 4390.08 -1.4133 -1.30551 0
M  V30 44873 O 4389.37 -0.555265 -1.83378 0
M  V30 44874 C 4389.57 -3.57131 -0.138544 0
M  V30 44875 C 4389.4 -4.34093 1.17445 0
M  V30 44876 C 4388.17 -4.74452 1.73848 0
M  V30 44877 C 4390.36 -4.69973 2.08878 0
M  V30 44878 N 4388.35 -5.3601 2.99277 0
M  V30 44879 C 4389.72 -5.31707 3.18884 0
M  V30 44880 C 4391.77 -4.51902 2.09019 0
M  V30 44881 C 4390.47 -5.7728 4.29116 0
M  V30 44882 C 4392.5 -4.98466 3.18255 0
M  V30 44883 C 4391.86 -5.60238 4.2698 0
M  V30 44884 H 4387.96 -0.780337 0.0509704 0
M  V30 44885 H 4390.55 -1.80504 0.729816 0
M  V30 44886 H 4388.72 -3.79804 -0.812599 0
M  V30 44887 H 4390.45 -3.99285 -0.659835 0
M  V30 44888 H 4387.2 -4.56032 1.27796 0
M  V30 44889 H 4387.63 -5.71342 3.63177 0
M  V30 44890 H 4392.27 -4.03511 1.26248 0
M  V30 44891 H 4389.99 -6.24669 5.12655 0
M  V30 44892 H 4393.57 -4.86263 3.19437 0
M  V30 44893 H 4392.45 -5.95613 5.10112 0
M  V30 44894 N 4389.96 -0.281037 -1.55074 0
M  V30 44895 C 4391.2 0.33454 -2.00022 0
M  V30 44896 C 4391.54 1.55059 -1.1692 0
M  V30 44897 O 4390.81 1.93005 -0.240714 0
M  V30 44898 C 4391.09 0.710883 -3.53013 0
M  V30 44899 C 4390.95 -0.512923 -4.46866 0
M  V30 44900 C 4392.27 1.54508 -4.12087 0
M  V30 44901 H 4389.38 0.120122 -0.727145 0
M  V30 44902 H 4392.03 -0.389162 -1.85972 0
M  V30 44903 H 4390.18 1.32748 -3.65117 0
M  V30 44904 H 4391.85 -1.15147 -4.46698 0
M  V30 44905 H 4390.09 -1.1499 -4.18282 0
M  V30 44906 H 4390.76 -0.205749 -5.51616 0
M  V30 44907 H 4393.24 1.02428 -4.03296 0
M  V30 44908 H 4392.11 1.77721 -5.19333 0
M  V30 44909 H 4392.38 2.528 -3.62691 0
M  V30 44910 N 4391.44 1.57598 -0.00841331 0
M  V30 44911 C 4392.68 1.9279 0.679068 0
M  V30 44912 C 4393.04 0.883438 1.70468 0
M  V30 44913 O 4394.24 1.12088 2.44315 0
M  V30 44914 C 4392.51 3.32999 1.29795 0
M  V30 44915 S 4394.07 3.90089 2.00938 0
M  V30 44916 H 4390.89 0.674758 0.224103 0
M  V30 44917 H 4393.49 1.95385 -0.0671184 0
M  V30 44918 H 4392.19 4.06848 0.538779 0
M  V30 44919 H 4391.73 3.33798 2.08189 0
M  V30 44920 H 4393.74 3.71845 3.2855 0
M  V30 44921 N 4392.91 -0.264465 1.55365 0
M  V30 44922 C 4394.19 -1.01671 1.671 0
M  V30 44923 C 4394.57 -2.03995 0.543087 0
M  V30 44924 O 4393.92 -2.23908 -0.455771 0
M  V30 44925 C 4394.13 -1.66586 3.06676 0
M  V30 44926 C 4395.48 -2.17429 3.64705 0
M  V30 44927 O 4396.5 -1.76557 3.09364 0
M  V30 44928 O 4395.36 -2.92423 4.61683 0
M  V30 44929 H 4392.45 -0.472137 0.678982 0
M  V30 44930 H 4395 -0.259644 1.67702 0
M  V30 44931 H 4393.77 -0.924828 3.80214 0
M  V30 44932 H 4393.39 -2.48957 3.1001 0
M  V30 44933 N 4394.39 -1.48444 -0.529361 0
M  V30 44934 C 4395.64 -1.56184 -1.28262 0
M  V30 44935 C 4395.96 -0.237789 -1.93545 0
M  V30 44936 O 4395.23 0.740715 -1.81357 0
M  V30 44937 H 4393.81 -0.575384 -0.476385 0
M  V30 44938 H 4396.47 -1.84911 -0.615955 0
M  V30 44939 H 4395.57 -2.3432 -2.06157 0
M  V30 44940 N 4395.87 0.778281 -1.37042 0
M  V30 44941 C 4397.15 1.52547 -1.22429 0
M  V30 44942 C 4397.53 2.10289 0.18489 0
M  V30 44943 O 4396.87 1.94957 1.1918 0
M  V30 44944 C 4397.08 2.61156 -2.31514 0
M  V30 44945 C 4398.43 3.28737 -2.68733 0
M  V30 44946 O 4399.46 2.71447 -2.30641 0
M  V30 44947 O 4398.32 4.32298 -3.34336 0
M  V30 44948 H 4395.41 0.675327 -0.47735 0
M  V30 44949 H 4397.96 0.815807 -1.48804 0
M  V30 44950 H 4396.73 2.16562 -3.25909 0
M  V30 44951 H 4396.35 3.3973 -2.06566 0
M  V30 44952 N 4397.35 1.21505 1.00371 0
M  V30 44953 C 4398.59 1.03459 1.74425 0
M  V30 44954 C 4398.93 -0.430697 1.89364 0
M  V30 44955 O 4398.2 -1.31957 1.4289 0
M  V30 44956 C 4398.48 1.73386 3.15609 0
M  V30 44957 C 4398.34 3.27442 3.08386 0
M  V30 44958 C 4399.66 1.47746 4.14559 0
M  V30 44959 H 4396.78 0.377248 0.633129 0
M  V30 44960 H 4399.42 1.49697 1.17007 0
M  V30 44961 H 4397.57 1.34077 3.64631 0
M  V30 44962 H 4399.24 3.76128 2.67068 0
M  V30 44963 H 4397.48 3.57678 2.45456 0
M  V30 44964 H 4398.15 3.71538 4.08244 0
M  V30 44965 H 4400.63 1.81873 3.74248 0
M  V30 44966 H 4399.51 1.99187 5.11484 0
M  V30 44967 H 4399.77 0.407744 4.40216 0
M  V30 44968 N 4398.83 -1.19885 1.023 0
M  V30 44969 C 4400.1 -1.85146 0.630897 0
M  V30 44970 C 4400.48 -1.91388 -0.890714 0
M  V30 44971 O 4399.83 -1.42649 -1.78504 0
M  V30 44972 C 4400.04 -3.24437 1.28613 0
M  V30 44973 C 4401.39 -4.00658 1.40564 0
M  V30 44974 O 4402.41 -3.33814 1.24285 0
M  V30 44975 O 4401.27 -5.20381 1.66931 0
M  V30 44976 H 4398.37 -0.797606 0.218527 0
M  V30 44977 H 4400.91 -1.27423 1.12078 0
M  V30 44978 H 4399.68 -3.14695 2.32556 0
M  V30 44979 H 4399.31 -3.89799 0.783737 0
M  V30 44980 N 4400.3 -0.80008 -1.35781 0
M  V30 44981 C 4401.54 -0.382962 -2.0078 0
M  V30 44982 C 4401.91 1.02885 -1.62107 0
M  V30 44983 O 4403.11 1.54763 -2.19777 0
M  V30 44984 C 4401.38 -0.553424 -3.53089 0
M  V30 44985 S 4402.94 -0.225763 -4.38219 0
M  V30 44986 H 4399.76 -0.145761 -0.695898 0
M  V30 44987 H 4402.36 -1.04091 -1.65485 0
M  V30 44988 H 4401.06 -1.58104 -3.78723 0
M  V30 44989 H 4400.59 0.120076 -3.93217 0
M  V30 44990 H 4402.61 0.968903 -4.86648 0
M  V30 44991 N 4401.78 1.47579 -0.553014 0
M  V30 44992 C 4403.01 2.06875 -0.0321283 0
M  V30 44993 C 4403.42 1.4063 1.25971 0
M  V30 44994 O 4402.78 0.501411 1.75477 0
M  V30 44995 C 4402.83 3.61093 0.171543 0
M  V30 44996 O 4402.55 4.24854 -1.06914 0
M  V30 44997 C 4404.05 4.37245 0.73019 0
M  V30 44998 H 4401.27 0.66956 -0.0439385 0
M  V30 44999 H 4403.82 1.89643 -0.76523 0
M  V30 45000 H 4401.97 3.77853 0.854761 0
M  V30 45001 H 4402.39 5.17331 -0.86424 0
M  V30 45002 H 4403.86 5.45845 0.822011 0
M  V30 45003 H 4404.34 4.03241 1.7405 0
M  V30 45004 H 4404.94 4.25219 0.0828048 0
M  V30 45005 N 4403.26 0.289257 1.54923 0
M  V30 45006 C 4404.54 -0.375965 1.91953 0
M  V30 45007 C 4404.92 -1.72618 1.21517 0
M  V30 45008 O 4404.26 -2.25852 0.346846 0
M  V30 45009 C 4404.47 -0.502257 3.45367 0
M  V30 45010 C 4405.82 -0.778594 4.174 0
M  V30 45011 O 4406.85 -0.586524 3.51338 0
M  V30 45012 O 4405.71 -1.14679 5.34332 0
M  V30 45013 H 4402.8 -0.208138 0.80038 0
M  V30 45014 H 4405.35 0.336452 1.66331 0
M  V30 45015 H 4404.12 0.447392 3.88734 0
M  V30 45016 H 4403.74 -1.2636 3.76987 0
M  V30 45017 N 4404.74 -1.57591 0.016771 0
M  V30 45018 C 4405.99 -1.90908 -0.663218 0
M  V30 45019 C 4406.31 -0.892569 -1.73373 0
M  V30 45020 O 4405.58 0.0676934 -1.95783 0
M  V30 45021 H 4404.16 -0.704646 -0.247958 0
M  V30 45022 H 4406.82 -1.94802 0.0616594 0
M  V30 45023 H 4405.91 -2.91164 -1.12382 0
M  V30 45024 N 4406.22 0.256222 -1.55503 0
M  V30 45025 C 4407.45 1.0019 -1.80681 0
M  V30 45026 C 4407.85 1.79803 -0.58886 0
M  V30 45027 O 4407.2 1.78057 0.451821 0
M  V30 45028 C 4407.26 1.99504 -2.99062 0
M  V30 45029 C 4406.92 1.38673 -4.35453 0
M  V30 45030 C 4407.92 0.793899 -5.13803 0
M  V30 45031 C 4405.61 1.40889 -4.82137 0
M  V30 45032 C 4407.6 0.231338 -6.3698 0
M  V30 45033 C 4405.29 0.842472 -6.05265 0
M  V30 45034 C 4406.28 0.254713 -6.82525 0
M  V30 45035 O 4405.97 -0.302983 -8.03329 0
M  V30 45036 H 4405.7 0.300897 -0.60534 0
M  V30 45037 H 4408.26 0.287236 -2.03382 0
M  V30 45038 H 4406.49 2.74776 -2.72094 0
M  V30 45039 H 4408.18 2.60338 -3.11414 0
M  V30 45040 H 4408.94 0.769351 -4.78859 0
M  V30 45041 H 4404.82 1.85576 -4.21998 0
M  V30 45042 H 4408.37 -0.228061 -6.97227 0
M  V30 45043 H 4404.26 0.864316 -6.39687 0
M  V30 45044 H 4405.03 -0.19395 -8.1827 0
M  V30 45045 N 4407.69 1.48722 0.521481 0
M  V30 45046 C 4408.97 1.47665 1.28275 0
M  V30 45047 C 4409.35 0.192994 2.10216 0
M  V30 45048 O 4408.7 -0.825118 2.13082 0
M  V30 45049 C 4408.91 2.74365 2.15696 0
M  V30 45050 C 4410.26 3.23037 2.75558 0
M  V30 45051 O 4411.28 2.75341 2.25977 0
M  V30 45052 O 4410.14 4.06053 3.65764 0
M  V30 45053 H 4407.23 0.590105 0.579401 0
M  V30 45054 H 4409.78 1.60965 0.537436 0
M  V30 45055 H 4408.55 3.59298 1.54987 0
M  V30 45056 H 4408.18 2.63826 2.97458 0
M  V30 45057 N 4409.17 -0.771003 1.37453 0
M  V30 45058 C 4410.08 -1.91533 1.35471 0
M  V30 45059 C 4411.1 -1.72133 0.254183 0
M  V30 45060 O 4412.27 -1.95356 0.489694 0
M  V30 45061 C 4409.34 -3.26667 1.16145 0
M  V30 45062 C 4408.4 -3.58715 2.35843 0
M  V30 45063 C 4407.63 -4.87401 2.1743 0
M  V30 45064 O 4407.86 -5.58502 1.15895 0
M  V30 45065 O 4406.79 -5.18529 3.05633 0
M  V30 45066 H 4410.62 -1.96157 2.31854 0
M  V30 45067 H 4408.2 -0.913858 1.18191 0
M  V30 45068 H 4410.08 -4.07495 1.07359 0
M  V30 45069 H 4408.76 -3.22893 0.228365 0
M  V30 45070 H 4407.67 -2.78118 2.50202 0
M  V30 45071 H 4409 -3.67232 3.27722 0
M  V30 45072 N 4410.65 -1.22035 -0.997255 0
M  V30 45073 C 4411.6 -0.983708 -2.10775 0
M  V30 45074 C 4412.59 0.0716969 -1.69248 0
M  V30 45075 O 4413.8 -0.0803673 -1.7982 0
M  V30 45076 H 4410.17 -0.300901 -0.689175 0
M  V30 45077 H 4412.14 -1.92614 -2.27909 0
M  V30 45078 C 4410.89 -0.57338 -3.4294 0
M  V30 45079 H 4410.22 -1.37715 -3.75333 0
M  V30 45080 H 4411.66 -0.447179 -4.21635 0
M  V30 45081 C 4410.12 0.716584 -3.29191 0
M  V30 45082 O 4410.65 1.77014 -3.60595 0
M  V30 45083 N 4408.85 0.686068 -2.82385 0
M  V30 45084 H 4408.4 -0.171598 -2.57028 0
M  V30 45085 H 4408.36 1.54945 -2.73568 0
M  V30 45086 N 4412.13 1.19341 -1.02934 0
M  V30 45087 C 4413.06 2.22034 -0.568648 0
M  V30 45088 C 4414.07 1.58866 0.355723 0
M  V30 45089 O 4415.26 1.77851 0.152041 0
M  V30 45090 C 4412.36 3.38363 0.190633 0
M  V30 45091 C 4411.54 4.31116 -0.738795 0
M  V30 45092 C 4410.59 5.26194 -0.0248347 0
M  V30 45093 O 4409.62 5.65459 -0.651553 0
M  V30 45094 N 4410.82 5.66976 1.24574 0
M  V30 45095 H 4413.59 2.62185 -1.45186 0
M  V30 45096 H 4411.15 1.34012 -0.908428 0
M  V30 45097 H 4413.14 3.98983 0.677821 0
M  V30 45098 H 4411.71 2.96997 0.975261 0
M  V30 45099 H 4410.93 3.68271 -1.40606 0
M  V30 45100 H 4412.22 4.89996 -1.37046 0
M  V30 45101 H 4411.62 5.3711 1.77564 0
M  V30 45102 H 4410.17 6.29846 1.67742 0
M  V30 45103 N 4413.61 0.80727 1.35355 0
M  V30 45104 C 4414.55 0.206222 2.31684 0
M  V30 45105 C 4415.55 -0.64439 1.56665 0
M  V30 45106 O 4416.75 -0.537478 1.71788 0
M  V30 45107 H 4413.13 0.047927 0.750471 0
M  V30 45108 H 4415.1 1.03378 2.7992 0
M  V30 45109 C 4413.85 -0.630092 3.41943 0
M  V30 45110 H 4413.17 0.0150963 3.99797 0
M  V30 45111 H 4414.61 -1.01702 4.11622 0
M  V30 45112 C 4413.07 -1.79591 2.85042 0
M  V30 45113 O 4413.6 -2.89342 2.78647 0
M  V30 45114 N 4411.81 -1.60766 2.4208 0
M  V30 45115 H 4411.35 -0.714922 2.47481 0
M  V30 45116 H 4411.31 -2.38926 2.04357 0
M  V30 45117 N 4415.08 -1.47283 0.560833 0
M  V30 45118 C 4416.32 -2.0436 0.0405346 0
M  V30 45119 C 4416.69 -1.42539 -1.28634 0
M  V30 45120 O 4417.89 -1.90683 -1.89455 0
M  V30 45121 C 4416.16 -3.57369 -0.04706 0
M  V30 45122 S 4417.72 -4.35791 -0.512956 0
M  V30 45123 H 4414.54 -0.710491 0.0268924 0
M  V30 45124 H 4417.14 -1.80608 0.748387 0
M  V30 45125 H 4415.84 -3.99887 0.922957 0
M  V30 45126 H 4415.37 -3.85623 -0.778356 0
M  V30 45127 H 4417.39 -4.63483 -1.77196 0
M  V30 45128 N 4416.56 -0.297469 -1.54767 0
M  V30 45129 C 4417.79 0.315551 -2.0448 0
M  V30 45130 C 4418.21 1.47788 -1.17491 0
M  V30 45131 O 4417.56 1.81403 -0.199774 0
M  V30 45132 C 4417.61 0.775176 -3.53091 0
M  V30 45133 O 4417.33 -0.340885 -4.36772 0
M  V30 45134 C 4418.84 1.45371 -4.18786 0
M  V30 45135 H 4416.06 0.0690652 -0.667436 0
M  V30 45136 H 4418.6 -0.436073 -1.99797 0
M  V30 45137 H 4416.75 1.47683 -3.58146 0
M  V30 45138 H 4417.17 0.0163191 -5.24497 0
M  V30 45139 H 4418.64 1.72651 -5.24305 0
M  V30 45140 H 4419.12 2.39262 -3.68308 0
M  V30 45141 H 4419.73 0.795328 -4.17797 0
M  V30 45142 N 4418.04 1.5758 -0.0251282 0
M  V30 45143 C 4419.46 1.56125 0.331227 0
M  V30 45144 C 4419.66 1.03035 1.73165 0
M  V30 45145 O 4418.71 0.675301 2.43302 0
M  V30 45146 C 4420.03 3.0014 0.183478 0
M  V30 45147 C 4421.57 3.11947 0.256544 0
M  V30 45148 C 4422.05 4.57793 0.137631 0
M  V30 45149 N 4423.54 4.6279 0.194742 0
M  V30 45150 C 4424.27 5.73261 0.126453 0
M  V30 45151 N 4423.77 6.928 0.00730932 0
M  V30 45152 N 4425.56 5.61811 0.180151 0
M  V30 45153 H 4417.71 1.90421 -0.940937 0
M  V30 45154 H 4419.98 0.875749 -0.362999 0
M  V30 45155 H 4419.68 3.42918 -0.781048 0
M  V30 45156 H 4419.56 3.64902 0.95532 0
M  V30 45157 H 4421.94 2.69084 1.21153 0
M  V30 45158 H 4422.03 2.49914 -0.545605 0
M  V30 45159 H 4421.67 5.01336 -0.813915 0
M  V30 45160 H 4421.6 5.17802 0.958593 0
M  V30 45161 H 4424.09 3.76808 0.287135 0
M  V30 45162 H 4424.4 7.72791 -0.0382145 0
M  V30 45163 H 4422.75 6.94995 -0.0274174 0
M  V30 45164 H 4425.94 4.67311 0.271603 0
M  V30 45165 H 4426.11 6.47882 0.123469 0
M  V30 45166 N 4419.52 -0.247971 1.55637 0
M  V30 45167 C 4420.93 -0.596431 1.48037 0
M  V30 45168 C 4421.13 -1.88384 0.715106 0
M  V30 45169 O 4420.19 -2.51318 0.244032 0
M  V30 45170 C 4421.5 -0.700155 2.92435 0
M  V30 45171 C 4423.05 -0.792553 3.028 0
M  V30 45172 C 4423.53 -0.927847 4.48503 0
M  V30 45173 N 4425.02 -0.992744 4.52437 0
M  V30 45174 C 4425.75 -1.11667 5.62421 0
M  V30 45175 N 4425.25 -1.20621 6.82219 0
M  V30 45176 N 4427.04 -1.14975 5.50216 0
M  V30 45177 H 4419.19 0.597181 2.03832 0
M  V30 45178 H 4421.46 0.205958 0.925357 0
M  V30 45179 H 4421.16 0.175781 3.5126 0
M  V30 45180 H 4421.04 -1.57243 3.42862 0
M  V30 45181 H 4423.42 -1.65894 2.44056 0
M  V30 45182 H 4423.5 0.104852 2.55585 0
M  V30 45183 H 4423.15 -0.0660186 5.07857 0
M  V30 45184 H 4423.08 -1.84028 4.93398 0
M  V30 45185 H 4425.57 -0.934935 3.66152 0
M  V30 45186 H 4425.88 -1.29981 7.6179 0
M  V30 45187 H 4424.23 -1.17581 6.84982 0
M  V30 45188 H 4427.42 -1.07627 4.55559 0
M  V30 45189 H 4427.59 -1.24288 6.35969 0
M  V30 45190 N 4421 -1.48997 -0.513587 0
M  V30 45191 C 4422.23 -1.61536 -1.29282 0
M  V30 45192 C 4422.64 -0.281867 -1.86684 0
M  V30 45193 O 4422 0.731052 -1.67218 0
M  V30 45194 C 4422.05 -2.67457 -2.43205 0
M  V30 45195 O 4421.77 -3.95633 -1.88165 0
M  V30 45196 C 4423.27 -2.90586 -3.34775 0
M  V30 45197 H 4420.49 -0.544179 -0.392569 0
M  V30 45198 H 4423.03 -1.94942 -0.617887 0
M  V30 45199 H 4421.19 -2.36864 -3.06552 0
M  V30 45200 H 4421.6 -4.53878 -2.6286 0
M  V30 45201 H 4423.08 -3.68463 -4.11022 0
M  V30 45202 H 4423.55 -2.00024 -3.91008 0
M  V30 45203 H 4424.16 -3.22547 -2.77206 0
M  V30 45204 N 4422.48 0.763702 -1.3786 0
M  V30 45205 C 4423.72 1.53546 -1.34918 0
M  V30 45206 C 4424.08 1.91895 0.0635207 0
M  V30 45207 O 4425.28 2.67917 0.21773 0
M  V30 45208 C 4423.55 2.76118 -2.26922 0
M  V30 45209 S 4425.11 3.66097 -2.41906 0
M  V30 45210 H 4421.93 0.525573 -0.478846 0
M  V30 45211 H 4424.53 0.897374 -1.73688 0
M  V30 45212 H 4423.23 2.46038 -3.28471 0
M  V30 45213 H 4422.77 3.4488 -1.89265 0
M  V30 45214 H 4424.78 4.68468 -1.63562 0
M  V30 45215 N 4423.95 1.22562 0.990769 0
M  V30 45216 C 4425.18 1.07868 1.77142 0
M  V30 45217 C 4425.6 -0.366382 1.84497 0
M  V30 45218 O 4424.96 -1.26474 1.299 0
M  V30 45219 C 4425.01 1.69697 3.18175 0
M  V30 45220 O 4424.11 0.952087 4.01259 0
M  V30 45221 H 4423.45 0.378731 0.545398 0
M  V30 45222 H 4425.98 1.62403 1.24444 0
M  V30 45223 H 4425.99 1.74509 3.68796 0
M  V30 45224 H 4424.67 2.74852 3.12136 0
M  V30 45225 H 4423.25 0.980138 3.59788 0
M  V30 45226 N 4425.43 -1.18793 1.03566 0
M  V30 45227 C 4426.34 -2.2591 0.632584 0
M  V30 45228 C 4427.36 -1.70669 -0.338822 0
M  V30 45229 O 4428.53 -2.00454 -0.195006 0
M  V30 45230 C 4425.6 -3.467 -0.00338754 0
M  V30 45231 C 4424.66 -4.17095 1.01638 0
M  V30 45232 C 4423.89 -5.32118 0.410665 0
M  V30 45233 O 4424.12 -5.64979 -0.784526 0
M  V30 45234 O 4423.05 -5.91066 1.13688 0
M  V30 45235 H 4426.88 -2.62643 1.52487 0
M  V30 45236 H 4424.46 -1.25778 0.806239 0
M  V30 45237 H 4426.34 -4.19879 -0.357663 0
M  V30 45238 H 4425.02 -3.11801 -0.869576 0
M  V30 45239 H 4423.92 -3.46005 1.42236 0
M  V30 45240 H 4425.26 -4.55981 1.85317 0
M  V30 45241 N 4426.91 -0.814437 -1.34925 0
M  V30 45242 C 4427.86 -0.218506 -2.31571 0
M  V30 45243 C 4428.85 0.636073 -1.57005 0
M  V30 45244 O 4430.06 0.52836 -1.72071 0
M  V30 45245 H 4426.43 -0.0519063 -0.750206 0
M  V30 45246 H 4428.4 -1.04861 -2.79368 0
M  V30 45247 C 4427.15 0.611949 -3.42273 0
M  V30 45248 H 4426.48 -0.0362983 -3.99784 0
M  V30 45249 H 4427.92 0.995173 -4.12156 0
M  V30 45250 C 4426.37 1.78077 -2.8599 0
M  V30 45251 O 4426.9 2.8786 -2.80178 0
M  V30 45252 N 4425.11 1.5948 -2.42929 0
M  V30 45253 H 4424.66 0.701787 -2.47856 0
M  V30 45254 H 4424.62 2.37839 -2.05621 0
M  V30 45255 N 4428.39 1.46984 -0.568636 0
M  V30 45256 C 4429.3 2.33943 0.175468 0
M  V30 45257 C 4430.31 1.48894 0.900357 0
M  V30 45258 O 4431.49 1.81798 0.866696 0
M  V30 45259 C 4428.55 3.25815 1.18513 0
M  V30 45260 C 4427.62 4.26759 0.466432 0
M  V30 45261 C 4426.85 5.14241 1.42799 0
M  V30 45262 O 4427.07 5.04389 2.66361 0
M  V30 45263 O 4426.01 5.94416 0.946244 0
M  V30 45264 H 4429.83 2.98894 -0.538141 0
M  V30 45265 H 4427.42 1.45729 -0.329148 0
M  V30 45266 H 4429.3 3.82533 1.76766 0
M  V30 45267 H 4427.97 2.63478 1.88045 0
M  V30 45268 H 4426.88 3.73768 -0.157583 0
M  V30 45269 H 4428.21 4.91842 -0.187658 0
M  V30 45270 N 4429.87 0.305673 1.54607 0
M  V30 45271 C 4431.11 -0.302228 2.00232 0
M  V30 45272 C 4431.44 -1.53536 1.19403 0
M  V30 45273 O 4430.7 -1.93972 0.259491 0
M  V30 45274 C 4430.99 -0.69886 3.50501 0
M  V30 45275 C 4430.66 0.433061 4.48816 0
M  V30 45276 C 4429.32 0.743789 4.75417 0
M  V30 45277 C 4431.67 1.19427 5.07333 0
M  V30 45278 C 4429 1.81876 5.57797 0
M  V30 45279 C 4431.35 2.2592 5.90883 0
M  V30 45280 C 4430.02 2.57594 6.15794 0
M  V30 45281 H 4429.29 -0.110593 0.732701 0
M  V30 45282 H 4431.94 0.42574 1.86708 0
M  V30 45283 H 4430.24 -1.50698 3.61659 0
M  V30 45284 H 4431.94 -1.18047 3.83231 0
M  V30 45285 H 4428.53 0.180781 4.28219 0
M  V30 45286 H 4432.71 0.967466 4.86779 0
M  V30 45287 H 4427.97 2.06884 5.75334 0
M  V30 45288 H 4432.14 2.85357 6.35251 0
M  V30 45289 H 4429.77 3.41021 6.79418 0
M  V30 45290 N 4431.34 -1.57564 0.0334847 0
M  V30 45291 C 4432.57 -1.96282 -0.654278 0
M  V30 45292 C 4432.99 -0.910196 -1.65411 0
M  V30 45293 O 4432.34 0.107531 -1.82183 0
M  V30 45294 C 4432.39 -3.35071 -1.35681 0
M  V30 45295 O 4432.12 -4.36297 -0.397038 0
M  V30 45296 C 4433.62 -3.88446 -2.13599 0
M  V30 45297 H 4430.84 -0.646376 -0.180109 0
M  V30 45298 H 4433.38 -2.04281 0.0945439 0
M  V30 45299 H 4431.54 -3.28278 -2.057 0
M  V30 45300 H 4431.95 -5.16783 -0.896416 0
M  V30 45301 H 4433.42 -4.87889 -2.58202 0
M  V30 45302 H 4433.9 -3.22925 -2.97685 0
M  V30 45303 H 4434.51 -3.98521 -1.48529 0
M  V30 45304 N 4432.82 0.239714 -1.55766 0
M  V30 45305 C 4434.06 0.974013 -1.79701 0
M  V30 45306 C 4434.43 1.82247 -0.604152 0
M  V30 45307 O 4435.63 2.5891 -0.722415 0
M  V30 45308 C 4433.9 1.80584 -3.08422 0
M  V30 45309 S 4435.46 2.59825 -3.53605 0
M  V30 45310 H 4432.27 0.327502 -0.631081 0
M  V30 45311 H 4434.88 0.241208 -1.94006 0
M  V30 45312 H 4433.58 1.17235 -3.93299 0
M  V30 45313 H 4433.11 2.58126 -2.96874 0
M  V30 45314 H 4435.13 3.82976 -3.15506 0
M  V30 45315 N 4434.3 1.49267 0.505678 0
M  V30 45316 C 4435.55 1.58204 1.25761 0
M  V30 45317 C 4435.87 0.26855 1.93142 0
M  V30 45318 O 4435.14 -0.711769 1.82512 0
M  V30 45319 H 4433.72 0.58289 0.467171 0
M  V30 45320 H 4436.38 1.85867 0.586459 0
M  V30 45321 H 4435.48 2.3757 2.02403 0
M  V30 45322 N 4435.78 -0.756381 1.38263 0
M  V30 45323 C 4437.01 -1.54336 1.37346 0
M  V30 45324 C 4437.42 -1.89159 -0.0393252 0
M  V30 45325 O 4436.76 -1.53073 -1.01559 0
M  V30 45326 C 4436.82 -2.8723 2.16192 0
M  V30 45327 C 4436.49 -2.7496 3.65028 0
M  V30 45328 C 4437.48 -2.44946 4.58582 0
M  V30 45329 C 4435.17 -2.92501 4.08349 0
M  V30 45330 C 4437.16 -2.32621 5.93436 0
M  V30 45331 C 4434.85 -2.79796 5.43284 0
M  V30 45332 C 4435.85 -2.49899 6.35641 0
M  V30 45333 O 4435.53 -2.37248 7.68094 0
M  V30 45334 H 4435.27 -0.484265 0.471661 0
M  V30 45335 H 4437.82 -0.944088 1.82417 0
M  V30 45336 H 4436.05 -3.49336 1.65834 0
M  V30 45337 H 4437.74 -3.48724 2.07717 0
M  V30 45338 H 4438.51 -2.31066 4.2642 0
M  V30 45339 H 4434.38 -3.14769 3.36811 0
M  V30 45340 H 4437.93 -2.09207 6.65491 0
M  V30 45341 H 4433.83 -2.93249 5.75044 0
M  V30 45342 H 4434.59 -2.52482 7.78585 0
M  V30 45343 N 4437.26 -1.23086 -0.984255 0
M  V30 45344 C 4438.5 -1.05854 -1.72161 0
M  V30 45345 C 4438.83 0.405982 -1.90727 0
M  V30 45346 O 4438.1 1.29134 -1.47314 0
M  V30 45347 H 4436.68 -0.388707 -0.637899 0
M  V30 45348 H 4439.34 -1.5474 -1.18497 0
M  V30 45349 H 4438.43 -1.54336 -2.71269 0
M  V30 45350 N 4438.73 1.18243 -1.04194 0
M  V30 45351 C 4439.66 2.24125 -0.654993 0
M  V30 45352 C 4440.65 1.66618 0.342393 0
M  V30 45353 O 4441.83 1.92925 0.222209 0
M  V30 45354 C 4438.96 3.47295 -0.0184978 0
M  V30 45355 C 4437.91 4.1756 -0.939561 0
M  V30 45356 C 4437.24 5.34438 -0.167474 0
M  V30 45357 C 4438.54 4.70909 -2.25924 0
M  V30 45358 H 4440.23 2.56748 -1.54016 0
M  V30 45359 H 4437.78 1.23412 -0.741993 0
M  V30 45360 H 4439.73 4.20573 0.263935 0
M  V30 45361 H 4438.46 3.1391 0.901554 0
M  V30 45362 H 4437.12 3.46181 -1.2064 0
M  V30 45363 H 4436.76 4.97301 0.755025 0
M  V30 45364 H 4436.46 5.82385 -0.781106 0
M  V30 45365 H 4437.99 6.10505 0.107911 0
M  V30 45366 H 4439.4 5.35875 -2.03742 0
M  V30 45367 H 4437.8 5.29396 -2.82595 0
M  V30 45368 H 4438.87 3.88262 -2.90484 0
M  V30 45369 N 4440.21 0.821581 1.34491 0
M  V30 45370 C 4441.45 0.414855 2.00146 0
M  V30 45371 C 4441.82 -1.00293 1.63723 0
M  V30 45372 O 4443.02 -1.51247 2.22211 0
M  V30 45373 C 4441.29 0.609527 3.52164 0
M  V30 45374 S 4442.85 0.295451 4.37804 0
M  V30 45375 H 4439.67 0.156814 0.693491 0
M  V30 45376 H 4442.27 1.0671 1.63808 0
M  V30 45377 H 4440.97 1.64109 3.7616 0
M  V30 45378 H 4440.5 -0.0575031 3.93358 0
M  V30 45379 H 4442.52 -0.891359 4.88128 0
M  V30 45380 N 4441.69 -1.4668 0.576422 0
M  V30 45381 C 4442.94 -2.01618 0.0573534 0
M  V30 45382 C 4443.25 -1.45422 -1.30813 0
M  V30 45383 O 4444.46 -1.9214 -1.91819 0
M  V30 45384 C 4442.91 -3.59862 0.0519636 0
M  V30 45385 C 4442.52 -4.25054 1.41538 0
M  V30 45386 C 4444.27 -4.22481 -0.41349 0
M  V30 45387 C 4442.17 -5.75359 1.36805 0
M  V30 45388 H 4441.1 -0.753793 0.0176713 0
M  V30 45389 H 4443.75 -1.68478 0.727136 0
M  V30 45390 H 4442.14 -3.90051 -0.683857 0
M  V30 45391 H 4443.31 -4.06484 2.17043 0
M  V30 45392 H 4441.63 -3.74503 1.82034 0
M  V30 45393 H 4444.22 -5.32652 -0.467591 0
M  V30 45394 H 4444.57 -3.90981 -1.42968 0
M  V30 45395 H 4445.1 -3.96896 0.268068 0
M  V30 45396 H 4441.84 -6.1151 2.36085 0
M  V30 45397 H 4441.36 -5.96212 0.655105 0
M  V30 45398 H 4443.04 -6.37952 1.07827 0
M  V30 45399 N 4443.17 -0.313868 -1.54443 0
M  V30 45400 C 4444.58 0.176178 -1.85867 0
M  V30 45401 C 4444.93 1.524 -1.23566 0
M  V30 45402 O 4444.06 2.09603 -0.53809 0
M  V30 45403 C 4444.65 0.326451 -3.37224 0
M  V30 45404 C 4443.21 0.760716 -3.68633 0
M  V30 45405 C 4442.36 -0.123344 -2.77026 0
M  V30 45406 H 4445.31 -0.53447 -1.49429 0
M  V30 45407 H 4445.33 1.15895 -3.6242 0
M  V30 45408 H 4444.84 -0.654666 -3.82539 0
M  V30 45409 H 4442.94 1.75192 -3.28844 0
M  V30 45410 H 4443.05 0.571186 -4.75683 0
M  V30 45411 H 4441.42 0.399508 -2.51547 0
M  V30 45412 H 4442.2 -1.10105 -3.25164 0
M  V30 45413 N 4444.65 1.57544 -0.0418402 0
M  V30 45414 C 4445.59 2.1098 0.935731 0
M  V30 45415 C 4446.56 1.0149 1.31487 0
M  V30 45416 O 4447.75 1.28985 1.40597 0
M  V30 45417 C 4444.89 2.65177 2.20851 0
M  V30 45418 C 4444 3.88721 1.88468 0
M  V30 45419 C 4443.14 4.31265 3.10135 0
M  V30 45420 C 4442.18 5.47533 2.7363 0
M  V30 45421 N 4441.31 5.85175 3.87962 0
M  V30 45422 H 4446.15 2.9422 0.473146 0
M  V30 45423 H 4443.69 1.45416 0.22193 0
M  V30 45424 H 4445.65 2.94695 2.95315 0
M  V30 45425 H 4444.28 1.84749 2.64703 0
M  V30 45426 H 4443.33 3.65853 1.04193 0
M  V30 45427 H 4444.64 4.73251 1.57591 0
M  V30 45428 H 4443.8 4.62286 3.92907 0
M  V30 45429 H 4442.53 3.45528 3.44183 0
M  V30 45430 H 4441.54 5.16193 1.89273 0
M  V30 45431 H 4442.76 6.3498 2.40785 0
M  V30 45432 H 4440.71 5.02392 4.21828 0
M  V30 45433 H 4440.63 6.64375 3.60752 0
M  V30 45434 H 4441.9 6.20807 4.71401 0
M  V30 45435 N 4446.12 -0.23145 1.55891 0
M  V30 45436 C 4447.37 -0.955284 1.77644 0
M  V30 45437 C 4447.69 -1.8589 0.608612 0
M  V30 45438 O 4448.89 -2.62065 0.709522 0
M  V30 45439 C 4447.35 -1.74875 3.14558 0
M  V30 45440 C 4446.96 -0.89176 4.39035 0
M  V30 45441 C 4448.7 -2.46439 3.45641 0
M  V30 45442 C 4446.61 -1.68201 5.66977 0
M  V30 45443 H 4445.54 -0.360422 0.662278 0
M  V30 45444 H 4448.19 -0.209452 1.82301 0
M  V30 45445 H 4446.57 -2.53712 3.0405 0
M  V30 45446 H 4447.74 -0.144631 4.60573 0
M  V30 45447 H 4446.06 -0.288717 4.15398 0
M  V30 45448 H 4448.66 -3.06046 4.38452 0
M  V30 45449 H 4449 -3.18831 2.67679 0
M  V30 45450 H 4449.53 -1.74601 3.57434 0
M  V30 45451 H 4446.27 -1.00155 6.47803 0
M  V30 45452 H 4445.79 -2.40401 5.49516 0
M  V30 45453 H 4447.47 -2.24522 6.06794 0
M  V30 45454 N 4447.6 -1.49533 -0.497755 0
M  V30 45455 C 4448.85 -1.59184 -1.25167 0
M  V30 45456 C 4449.18 -0.279999 -1.92474 0
M  V30 45457 O 4448.43 0.73232 -1.81482 0
M  V30 45458 C 4448.73 -2.7026 -2.33868 0
M  V30 45459 C 4448.4 -4.1165 -1.83997 0
M  V30 45460 C 4447.06 -4.50127 -1.70116 0
M  V30 45461 C 4449.41 -5.00126 -1.46707 0
M  V30 45462 C 4446.74 -5.74849 -1.17327 0
M  V30 45463 C 4449.09 -6.2537 -0.9537 0
M  V30 45464 C 4447.76 -6.62673 -0.801305 0
M  V30 45465 H 4447.03 -0.582494 -0.458019 0
M  V30 45466 H 4449.67 -1.83375 -0.551883 0
M  V30 45467 H 4447.98 -2.40052 -3.09649 0
M  V30 45468 H 4449.67 -2.74935 -2.9191 0
M  V30 45469 H 4446.26 -3.81281 -1.95762 0
M  V30 45470 H 4450.45 -4.71053 -1.56278 0
M  V30 45471 H 4445.7 -6.02448 -1.04243 0
M  V30 45472 H 4449.88 -6.93304 -0.655981 0
M  V30 45473 H 4447.51 -7.59199 -0.390084 0
M  V30 45474 N 4449.08 0.749038 -1.38662 0
M  V30 45475 C 4450.5 1.05271 -1.19959 0
M  V30 45476 C 4450.7 2.01434 -0.0514108 0
M  V30 45477 O 4449.75 2.45234 0.601384 0
M  V30 45478 C 4451.07 1.62844 -2.52789 0
M  V30 45479 C 4452.61 1.74993 -2.59512 0
M  V30 45480 C 4453.09 2.35977 -3.92529 0
M  V30 45481 N 4454.58 2.43402 -3.94093 0
M  V30 45482 C 4455.31 2.91494 -4.9378 0
M  V30 45483 N 4454.81 3.39587 -6.03865 0
M  V30 45484 N 4456.6 2.90575 -4.81168 0
M  V30 45485 H 4448.75 0.110991 -2.1211 0
M  V30 45486 H 4451.02 0.111868 -0.941376 0
M  V30 45487 H 4450.72 0.996522 -3.37287 0
M  V30 45488 H 4450.6 2.61845 -2.71509 0
M  V30 45489 H 4452.98 2.37311 -1.75407 0
M  V30 45490 H 4453.07 0.746844 -2.44655 0
M  V30 45491 H 4452.71 1.74291 -4.77059 0
M  V30 45492 H 4452.64 3.36935 -4.047 0
M  V30 45493 H 4455.13 2.09394 -3.14583 0
M  V30 45494 H 4455.44 3.74751 -6.75856 0
M  V30 45495 H 4453.79 3.37632 -6.07478 0
M  V30 45496 H 4456.98 2.52318 -3.94276 0
M  V30 45497 H 4457.15 3.27742 -5.59007 0
M  V30 45498 N 4450.56 1.23606 0.977714 0
M  V30 45499 C 4451.8 1.08154 1.73442 0
M  V30 45500 C 4452.16 -0.374719 1.88308 0
M  V30 45501 O 4453.36 -0.650497 2.6081 0
M  V30 45502 C 4451.64 1.79001 3.09343 0
M  V30 45503 S 4453.19 1.79155 4.00561 0
M  V30 45504 H 4450.01 0.387008 0.596444 0
M  V30 45505 H 4452.61 1.56784 1.16787 0
M  V30 45506 H 4451.32 2.84091 2.96177 0
M  V30 45507 H 4450.85 1.30664 3.71067 0
M  V30 45508 H 4452.86 0.852064 4.8883 0
M  V30 45509 N 4452.04 -1.17688 1.0482 0
M  V30 45510 C 4453.31 -1.83766 0.670027 0
M  V30 45511 C 4453.69 -1.93235 -0.849918 0
M  V30 45512 O 4453.04 -1.46403 -1.75438 0
M  V30 45513 C 4453.25 -3.21636 1.35466 0
M  V30 45514 C 4454.6 -3.97586 1.49031 0
M  V30 45515 O 4455.62 -3.31103 1.31337 0
M  V30 45516 O 4454.48 -5.16723 1.77932 0
M  V30 45517 H 4451.58 -0.792791 0.235396 0
M  V30 45518 H 4454.12 -1.25017 1.14756 0
M  V30 45519 H 4452.9 -3.09692 2.39179 0
M  V30 45520 H 4452.52 -3.88049 0.866243 0
M  V30 45521 N 4453.52 -0.828702 -1.34053 0
M  V30 45522 C 4454.93 -0.515188 -1.51056 0
M  V30 45523 C 4455.13 0.959518 -1.77188 0
M  V30 45524 O 4454.19 1.74376 -1.82618 0
M  V30 45525 C 4455.5 -1.37972 -2.67178 0
M  V30 45526 C 4457.05 -1.37744 -2.81061 0
M  V30 45527 C 4457.52 -2.2266 -4.00233 0
M  V30 45528 N 4459.01 -2.20314 -4.07451 0
M  V30 45529 C 4459.75 -2.82762 -4.98832 0
M  V30 45530 N 4459.25 -3.54222 -5.95398 0
M  V30 45531 N 4461.04 -2.72285 -4.91749 0
M  V30 45532 H 4453.19 -1.78347 -1.15352 0
M  V30 45533 H 4455.45 -0.760324 -0.566225 0
M  V30 45534 H 4455.16 -2.42723 -2.54516 0
M  V30 45535 H 4455.03 -1.04852 -3.62334 0
M  V30 45536 H 4457.42 -0.337696 -2.93161 0
M  V30 45537 H 4457.5 -1.74865 -1.86697 0
M  V30 45538 H 4457.14 -3.26687 -3.88893 0
M  V30 45539 H 4457.07 -1.82886 -4.93822 0
M  V30 45540 H 4459.57 -1.68339 -3.38335 0
M  V30 45541 H 4459.88 -3.99103 -6.61768 0
M  V30 45542 H 4458.22 -3.58329 -5.95504 0
M  V30 45543 H 4461.41 -2.16028 -4.1527 0
M  V30 45544 H 4461.59 -3.21239 -5.62769 0
M  V30 45545 N 4454.99 1.46373 -0.584193 0
M  V30 45546 C 4455.94 2.27372 0.169152 0
M  V30 45547 C 4456.93 1.35958 0.860475 0
M  V30 45548 O 4458.12 1.60122 0.754326 0
M  V30 45549 C 4455.25 3.22338 1.18122 0
M  V30 45550 C 4454.33 4.21237 0.49194 0
M  V30 45551 N 4454.73 5.03765 -0.453307 0
M  V30 45552 C 4453.02 4.39776 0.742497 0
M  V30 45553 C 4453.72 5.75363 -0.856293 0
M  V30 45554 N 4452.7 5.43213 -0.205117 0
M  V30 45555 H 4456.5 2.8857 -0.557198 0
M  V30 45556 H 4454.02 1.57241 -0.406097 0
M  V30 45557 H 4456.01 3.79077 1.73512 0
M  V30 45558 H 4454.67 2.62699 1.90838 0
M  V30 45559 H 4455.68 5.11224 -0.828903 0
M  V30 45560 H 4452.36 3.91285 1.45611 0
M  V30 45561 H 4453.75 6.51714 -1.63457 0
M  V30 45562 N 4456.47 0.322054 1.54274 0
M  V30 45563 C 4457.42 -0.560127 2.25755 0
M  V30 45564 C 4458.41 -1.1198 1.2711 0
M  V30 45565 O 4459.62 -1.06801 1.44891 0
M  V30 45566 H 4455.99 -0.199278 0.725115 0
M  V30 45567 H 4457.97 0.0650414 2.98329 0
M  V30 45568 C 4456.71 -1.71013 3.02737 0
M  V30 45569 H 4456.04 -1.28872 3.7846 0
M  V30 45570 H 4457.48 -2.30302 3.56002 0
M  V30 45571 C 4455.94 -2.62684 2.10947 0
M  V30 45572 O 4456.47 -3.64358 1.69133 0
M  V30 45573 N 4454.67 -2.30885 1.76467 0
M  V30 45574 H 4454.22 -1.48246 2.10668 0
M  V30 45575 H 4454.18 -2.92483 1.1533 0
M  V30 45576 N 4457.95 -1.5752 0.0501946 0
M  V30 45577 C 4459.23 -1.83998 -0.66362 0
M  V30 45578 C 4459.61 -0.938406 -1.89096 0
M  V30 45579 O 4458.95 0.000797261 -2.285 0
M  V30 45580 C 4459.16 -3.33706 -1.02184 0
M  V30 45581 C 4460.51 -4.00696 -1.40455 0
M  V30 45582 O 4461.54 -3.38325 -1.11421 0
M  V30 45583 O 4460.4 -5.10665 -1.94636 0
M  V30 45584 H 4457.49 -0.759397 -0.327483 0
M  V30 45585 H 4460.04 -1.69514 0.0794834 0
M  V30 45586 H 4458.81 -3.91015 -0.149226 0
M  V30 45587 H 4458.43 -3.53374 -1.82243 0
M  V30 45588 N 4459.43 0.223179 -1.56012 0
M  V30 45589 C 4460.67 0.954898 -1.80724 0
M  V30 45590 C 4461.03 1.81596 -0.623447 0
M  V30 45591 O 4462.23 2.5813 -0.749835 0
M  V30 45592 C 4460.5 1.77302 -3.1032 0
M  V30 45593 S 4462.06 2.5606 -3.56341 0
M  V30 45594 H 4458.88 0.32079 -0.634519 0
M  V30 45595 H 4461.48 0.220618 -1.94251 0
M  V30 45596 H 4460.19 1.13057 -3.9452 0
M  V30 45597 H 4459.72 2.54963 -2.99595 0
M  V30 45598 H 4461.73 3.79608 -3.1955 0
M  V30 45599 N 4460.91 1.49795 0.489818 0
M  V30 45600 C 4462.15 1.59529 1.24076 0
M  V30 45601 C 4462.47 0.289021 1.92846 0
M  V30 45602 O 4461.74 -0.692371 1.83257 0
M  V30 45603 H 4460.32 0.587812 0.460962 0
M  V30 45604 H 4462.99 1.86479 0.566713 0
M  V30 45605 H 4462.08 2.39703 1.99872 0
M  V30 45606 N 4462.38 -0.741673 1.39057 0
M  V30 45607 C 4463.66 -1.49247 1.2643 0
M  V30 45608 C 4464.04 -2.10705 -0.12907 0
M  V30 45609 O 4463.39 -1.98049 -1.13969 0
M  V30 45610 C 4463.6 -2.54926 2.38356 0
M  V30 45611 C 4464.95 -3.21496 2.77354 0
M  V30 45612 O 4465.97 -2.65236 2.37757 0
M  V30 45613 O 4464.83 -4.23282 3.4568 0
M  V30 45614 H 4461.92 -0.662433 0.495087 0
M  V30 45615 H 4464.47 -0.776068 1.50915 0
M  V30 45616 H 4463.24 -2.07845 3.31536 0
M  V30 45617 H 4462.86 -3.34133 2.15501 0
M  V30 45618 N 4463.86 -1.24123 -0.971145 0
M  V30 45619 C 4465.09 -1.10421 -1.74616 0
M  V30 45620 C 4465.5 0.346397 -1.86002 0
M  V30 45621 O 4464.84 1.25099 -1.34521 0
M  V30 45622 C 4464.9 -1.66608 -3.18563 0
M  V30 45623 C 4464.57 -3.15458 -3.30659 0
M  V30 45624 C 4465.57 -4.12647 -3.16256 0
M  V30 45625 C 4463.25 -3.5535 -3.5501 0
M  V30 45626 C 4465.24 -5.4771 -3.26025 0
M  V30 45627 C 4462.93 -4.90555 -3.64417 0
M  V30 45628 C 4463.93 -5.86544 -3.49936 0
M  V30 45629 O 4463.62 -7.19291 -3.58992 0
M  V30 45630 H 4463.35 -0.386636 -0.554517 0
M  V30 45631 H 4465.9 -1.64638 -1.22815 0
M  V30 45632 H 4464.13 -1.06821 -3.71653 0
M  V30 45633 H 4465.82 -1.48246 -3.7786 0
M  V30 45634 H 4466.59 -3.8317 -2.97331 0
M  V30 45635 H 4462.47 -2.81143 -3.65349 0
M  V30 45636 H 4466.01 -6.22614 -3.14639 0
M  V30 45637 H 4461.91 -5.19704 -3.82854 0
M  V30 45638 H 4462.68 -7.27166 -3.75728 0
M  V30 45639 N 4465.34 1.17131 -1.05443 0
M  V30 45640 C 4466.57 1.9191 -0.786463 0
M  V30 45641 C 4466.99 1.76432 0.652172 0
M  V30 45642 O 4466.35 1.08378 1.45341 0
M  V30 45643 C 4466.4 3.40916 -1.17509 0
M  V30 45644 O 4465.5 4.11243 -0.308733 0
M  V30 45645 H 4464.84 0.598205 -0.288179 0
M  V30 45646 H 4467.37 1.48452 -1.40795 0
M  V30 45647 H 4467.38 3.91664 -1.14294 0
M  V30 45648 H 4466.06 3.51502 -2.22304 0
M  V30 45649 H 4464.63 3.7073 -0.4017 0
M  V30 45650 N 4466.82 0.835799 1.33612 0
M  V30 45651 C 4468.1 0.352085 1.92405 0
M  V30 45652 C 4468.48 -1.16219 1.76228 0
M  V30 45653 O 4467.82 -1.97522 1.1488 0
M  V30 45654 C 4468.03 0.795604 3.3981 0
M  V30 45655 C 4469.38 0.801849 4.1696 0
M  V30 45656 O 4470.41 0.739012 3.4845 0
M  V30 45657 O 4469.26 0.886797 5.39257 0
M  V30 45658 H 4466.36 0.098993 0.821054 0
M  V30 45659 H 4468.9 0.921447 1.42504 0
M  V30 45660 H 4467.68 1.83807 3.45443 0
M  V30 45661 H 4467.3 0.202645 3.97083 0
M  V30 45662 N 4468.3 -1.46061 0.591947 0
M  V30 45663 C 4469.21 -2.34192 -0.138227 0
M  V30 45664 C 4470.22 -1.50308 -0.876555 0
M  V30 45665 O 4471.4 -1.83153 -0.837664 0
M  V30 45666 C 4468.46 -3.2766 -1.13314 0
M  V30 45667 C 4467.52 -4.27447 -0.39848 0
M  V30 45668 C 4466.76 -5.16448 -1.346 0
M  V30 45669 O 4466.98 -5.08562 -2.58303 0
M  V30 45670 O 4465.91 -5.95846 -0.851558 0
M  V30 45671 H 4469.74 -2.98 0.585624 0
M  V30 45672 H 4467.33 -1.45187 0.352291 0
M  V30 45673 H 4469.21 -3.85297 -1.70658 0
M  V30 45674 H 4467.88 -2.66436 -1.8383 0
M  V30 45675 H 4466.79 -3.7347 0.217026 0
M  V30 45676 H 4468.12 -4.91481 0.265882 0
M  V30 45677 N 4469.77 -0.330231 -1.54101 0
M  V30 45678 C 4471.19 0.022181 -1.59585 0
M  V30 45679 C 4471.39 1.49897 -1.34659 0
M  V30 45680 O 4470.45 2.25588 -1.13429 0
M  V30 45681 C 4471.76 -0.402036 -2.98 0
M  V30 45682 C 4473.31 -0.353254 -3.11 0
M  V30 45683 C 4473.78 -0.752735 -4.51772 0
M  V30 45684 N 4475.27 -0.7064 -4.57782 0
M  V30 45685 C 4476.01 -0.987616 -5.64831 0
M  V30 45686 N 4475.5 -1.33631 -6.7979 0
M  V30 45687 N 4477.3 -0.912735 -5.5464 0
M  V30 45688 H 4469.45 -1.29234 -1.6856 0
M  V30 45689 H 4471.71 -0.525934 -0.788732 0
M  V30 45690 H 4471.42 -1.43121 -3.21262 0
M  V30 45691 H 4471.29 0.229566 -3.76501 0
M  V30 45692 H 4473.68 0.666721 -2.8747 0
M  V30 45693 H 4473.76 -1.01988 -2.34589 0
M  V30 45694 H 4473.4 -1.77066 -4.76036 0
M  V30 45695 H 4473.33 -0.063726 -5.26561 0
M  V30 45696 H 4475.82 -0.449022 -3.75223 0
M  V30 45697 H 4476.14 -1.53609 -7.5738 0
M  V30 45698 H 4474.48 -1.37463 -6.8127 0
M  V30 45699 H 4477.67 -0.639764 -4.63707 0
M  V30 45700 H 4477.85 -1.13525 -6.37978 0
M  V30 45701 N 4471.25 1.57491 -0.0585476 0
M  V30 45702 C 4472.5 1.92599 0.612369 0
M  V30 45703 C 4472.82 0.938222 1.70946 0
M  V30 45704 O 4472.09 -0.0157612 1.95894 0
M  V30 45705 H 4470.67 0.710972 0.229189 0
M  V30 45706 H 4473.33 1.9457 -0.113286 0
M  V30 45707 H 4472.43 2.94042 1.04623 0
M  V30 45708 N 4472.73 -0.214903 1.56128 0
M  V30 45709 C 4473.97 -0.945301 1.81228 0
M  V30 45710 C 4474.33 -1.81263 0.633069 0
M  V30 45711 O 4475.54 -2.57728 0.763514 0
M  V30 45712 C 4473.81 -1.75654 3.11256 0
M  V30 45713 S 4475.37 -2.54167 3.57694 0
M  V30 45714 H 4472.18 -0.317421 0.636212 0
M  V30 45715 H 4474.79 -0.210313 1.94365 0
M  V30 45716 H 4473.49 -1.10963 3.95114 0
M  V30 45717 H 4473.02 -2.53371 3.00943 0
M  V30 45718 H 4475.04 -3.77908 3.21558 0
M  V30 45719 N 4474.21 -1.50053 -0.481867 0
M  V30 45720 C 4475.14 -1.71051 -1.58945 0
M  V30 45721 C 4476.12 -0.559344 -1.6064 0
M  V30 45722 O 4477.3 -0.797306 -1.77078 0
M  V30 45723 C 4474.43 -1.79472 -2.97333 0
M  V30 45724 C 4473.39 -2.94569 -3.10505 0
M  V30 45725 C 4472.71 -2.88121 -4.50433 0
M  V30 45726 C 4474.01 -4.35237 -2.88731 0
M  V30 45727 H 4475.71 -2.63785 -1.41626 0
M  V30 45728 H 4473.25 -1.26939 -0.679897 0
M  V30 45729 H 4475.21 -1.92748 -3.74735 0
M  V30 45730 H 4473.93 -0.833523 -3.15785 0
M  V30 45731 H 4472.59 -2.80927 -2.35533 0
M  V30 45732 H 4472.24 -1.89869 -4.65788 0
M  V30 45733 H 4471.94 -3.65383 -4.60184 0
M  V30 45734 H 4473.46 -3.03431 -5.2987 0
M  V30 45735 H 4474.88 -4.49461 -3.5589 0
M  V30 45736 H 4473.27 -5.13867 -3.09937 0
M  V30 45737 H 4474.34 -4.48354 -1.8468 0
M  V30 45738 N 4475.69 0.734288 -1.39449 0
M  V30 45739 C 4476.92 1.52132 -1.39784 0
M  V30 45740 C 4477.32 1.89198 0.00922661 0
M  V30 45741 O 4476.67 1.54669 0.991113 0
M  V30 45742 C 4476.73 2.83754 -2.20734 0
M  V30 45743 C 4476.39 2.69118 -3.69357 0
M  V30 45744 C 4477.39 2.37619 -4.62421 0
M  V30 45745 C 4475.08 2.85967 -4.1295 0
M  V30 45746 C 4477.07 2.23151 -5.97062 0
M  V30 45747 C 4474.76 2.71118 -5.47666 0
M  V30 45748 C 4475.75 2.39755 -6.39536 0
M  V30 45749 O 4475.44 2.24999 -7.71771 0
M  V30 45750 H 4475.17 0.4767 -0.479305 0
M  V30 45751 H 4477.73 0.914947 -1.83896 0
M  V30 45752 H 4475.96 3.46654 -1.71371 0
M  V30 45753 H 4477.65 3.45375 -2.13239 0
M  V30 45754 H 4478.41 2.24252 -4.30042 0
M  V30 45755 H 4474.29 3.09371 -3.41776 0
M  V30 45756 H 4477.84 1.98593 -6.68735 0
M  V30 45757 H 4473.73 2.84063 -5.79636 0
M  V30 45758 H 4474.5 2.40063 -7.82504 0
M  V30 45759 N 4477.16 1.24636 0.964549 0
M  V30 45760 C 4478.1 0.999375 2.06265 0
M  V30 45761 C 4479.11 -0.0322654 1.62768 0
M  V30 45762 O 4480.3 0.205141 1.77317 0
M  V30 45763 C 4477.4 0.486934 3.35384 0
M  V30 45764 C 4476.57 1.58244 4.07772 0
M  V30 45765 C 4475.63 1.0721 5.15163 0
M  V30 45766 O 4474.66 1.76445 5.41162 0
M  V30 45767 N 4475.86 -0.0918332 5.80427 0
M  V30 45768 H 4478.62 1.94485 2.28026 0
M  V30 45769 H 4476.18 1.15708 1.1324 0
M  V30 45770 H 4478.18 0.130209 4.0449 0
M  V30 45771 H 4476.75 -0.36435 3.10469 0
M  V30 45772 H 4475.97 2.11121 3.32899 0
M  V30 45773 H 4477.25 2.3187 4.52895 0
M  V30 45774 H 4476.65 -0.670586 5.61711 0
M  V30 45775 H 4475.21 -0.389676 6.50634 0
M  V30 45776 N 4478.64 -1.1657 1.06062 0
M  V30 45777 C 4479.87 -1.90949 0.796619 0
M  V30 45778 C 4480.29 -1.77304 -0.648746 0
M  V30 45779 O 4479.64 -1.1161 -1.44393 0
M  V30 45780 C 4479.69 -3.41732 1.17906 0
M  V30 45781 O 4479.41 -3.54966 2.5677 0
M  V30 45782 C 4480.92 -4.33166 0.94246 0
M  V30 45783 H 4478.14 -0.605584 0.28898 0
M  V30 45784 H 4480.68 -1.47772 1.41363 0
M  V30 45785 H 4478.83 -3.82621 0.606625 0
M  V30 45786 H 4479.25 -4.4845 2.72016 0
M  V30 45787 H 4480.72 -5.37434 1.2597 0
M  V30 45788 H 4481.2 -4.39031 -0.121924 0
M  V30 45789 H 4481.81 -3.98002 1.49916 0
M  V30 45790 N 4480.12 -0.842873 -1.33167 0
M  V30 45791 C 4481.36 -0.446644 -1.9946 0
M  V30 45792 C 4481.73 0.976759 -1.65298 0
M  V30 45793 O 4482.93 1.47693 -2.24589 0
M  V30 45794 C 4481.2 -0.665476 -3.5115 0
M  V30 45795 S 4482.76 -0.365064 -4.37279 0
M  V30 45796 H 4479.57 -0.167827 -0.690909 0
M  V30 45797 H 4482.18 -1.09303 -1.6209 0
M  V30 45798 H 4480.88 -1.70073 -3.73501 0
M  V30 45799 H 4480.41 -0.00508398 -3.934 0
M  V30 45800 H 4482.43 0.813589 -4.89485 0
M  V30 45801 N 4481.6 1.45745 -0.599685 0
M  V30 45802 C 4482.53 2.28628 0.161798 0
M  V30 45803 C 4483.54 1.39497 0.839318 0
M  V30 45804 O 4484.73 1.63943 0.706032 0
M  V30 45805 C 4481.83 3.15019 1.24965 0
M  V30 45806 C 4481.01 4.3238 0.660783 0
M  V30 45807 C 4480.07 5.00039 1.63851 0
M  V30 45808 O 4479.09 5.57089 1.16791 0
M  V30 45809 N 4480.29 4.98599 2.97286 0
M  V30 45810 H 4483.06 2.94622 -0.549369 0
M  V30 45811 H 4480.62 1.55845 -0.438619 0
M  V30 45812 H 4482.61 3.57146 1.90338 0
M  V30 45813 H 4481.18 2.50987 1.86345 0
M  V30 45814 H 4480.4 3.9383 -0.170827 0
M  V30 45815 H 4481.69 5.08198 0.24744 0
M  V30 45816 H 4481.09 4.53525 3.38129 0
M  V30 45817 H 4479.64 5.44616 3.58102 0
M  V30 45818 N 4483.08 0.338398 1.53924 0
M  V30 45819 C 4484.01 -0.555039 2.22378 0
M  V30 45820 C 4485.02 -1.06808 1.22866 0
M  V30 45821 O 4486.21 -0.979111 1.4925 0
M  V30 45822 C 4483.31 -1.77599 2.88638 0
M  V30 45823 C 4482.48 -1.39912 4.14419 0
M  V30 45824 C 4481.54 -2.4792 4.64136 0
M  V30 45825 O 4480.57 -2.11442 5.2847 0
M  V30 45826 N 4481.77 -3.79091 4.39625 0
M  V30 45827 H 4484.54 0.0311831 2.99684 0
M  V30 45828 H 4482.1 0.162283 1.61085 0
M  V30 45829 H 4484.09 -2.49276 3.18816 0
M  V30 45830 H 4482.66 -2.26971 2.14949 0
M  V30 45831 H 4481.88 -0.513344 3.90843 0
M  V30 45832 H 4483.17 -1.12323 4.96247 0
M  V30 45833 H 4482.57 -4.11517 3.88162 0
M  V30 45834 H 4481.12 -4.46954 4.74422 0
M  V30 45835 N 4484.56 -1.57458 0.0668989 0
M  V30 45836 C 4485.5 -2.13642 -0.919776 0
M  V30 45837 C 4486.5 -1.07209 -1.31159 0
M  V30 45838 O 4487.7 -1.25596 -1.28941 0
M  V30 45839 H 4484.08 -0.683059 -0.314538 0
M  V30 45840 H 4486.05 -2.95416 -0.420943 0
M  V30 45841 C 4484.8 -2.70899 -2.17965 0
M  V30 45842 H 4484.12 -3.52467 -1.88699 0
M  V30 45843 H 4485.56 -3.13813 -2.85127 0
M  V30 45844 C 4484.02 -1.65424 -2.9349 0
M  V30 45845 O 4484.55 -1.07633 -3.87012 0
M  V30 45846 N 4482.76 -1.36573 -2.56507 0
M  V30 45847 H 4482.3 -1.83757 -1.8053 0
M  V30 45848 H 4482.26 -0.662338 -3.07344 0
M  V30 45849 N 4486.03 0.20662 -1.5624 0
M  V30 45850 C 4486.97 1.2799 -1.90134 0
M  V30 45851 C 4487.98 1.42296 -0.790933 0
M  V30 45852 O 4489.17 1.42927 -1.0693 0
M  V30 45853 C 4486.27 2.6536 -2.10801 0
M  V30 45854 C 4485.44 2.72812 -3.41896 0
M  V30 45855 C 4484.5 3.91298 -3.51813 0
M  V30 45856 O 4483.53 3.78938 -4.24729 0
M  V30 45857 N 4484.73 5.06255 -2.84052 0
M  V30 45858 H 4487.49 0.992344 -2.82794 0
M  V30 45859 H 4485.05 0.396596 -1.56967 0
M  V30 45860 H 4487.05 3.43032 -2.14736 0
M  V30 45861 H 4485.62 2.86653 -1.24695 0
M  V30 45862 H 4484.84 1.81502 -3.49929 0
M  V30 45863 H 4486.12 2.74771 -4.28227 0
M  V30 45864 H 4485.52 5.19195 -2.24618 0
M  V30 45865 H 4484.08 5.81915 -2.93629 0
M  V30 45866 N 4487.51 1.50306 0.473902 0
M  V30 45867 C 4488.76 1.61155 1.22619 0
M  V30 45868 C 4489.09 0.310585 1.92004 0
M  V30 45869 O 4488.34 -0.703355 1.82624 0
M  V30 45870 C 4488.64 2.73946 2.29539 0
M  V30 45871 C 4488.31 4.14525 1.77425 0
M  V30 45872 C 4486.97 4.52776 1.62933 0
M  V30 45873 C 4489.32 5.02397 1.38732 0
M  V30 45874 C 4486.65 5.76643 1.08167 0
M  V30 45875 C 4489 6.26808 0.854089 0
M  V30 45876 C 4487.66 6.63864 0.695778 0
M  V30 45877 H 4486.93 0.589707 0.448694 0
M  V30 45878 H 4489.58 1.8423 0.52264 0
M  V30 45879 H 4487.89 2.44948 3.0579 0
M  V30 45880 H 4489.58 2.79544 2.87499 0
M  V30 45881 H 4486.17 3.84347 1.89671 0
M  V30 45882 H 4490.36 4.7348 1.48764 0
M  V30 45883 H 4485.61 6.0403 0.946453 0
M  V30 45884 H 4489.79 6.94259 0.545599 0
M  V30 45885 H 4487.41 7.59723 0.269252 0
M  V30 45886 N 4488.99 -0.726883 1.39836 0
M  V30 45887 C 4490.22 -1.51608 1.40793 0
M  V30 45888 C 4490.63 -1.88799 0.00458143 0
M  V30 45889 O 4489.99 -1.54665 -0.968755 0
M  V30 45890 C 4490.04 -2.79855 2.28831 0
M  V30 45891 O 4489.76 -2.4424 3.63701 0
M  V30 45892 C 4491.26 -3.73829 2.38258 0
M  V30 45893 H 4488.48 -0.468247 0.48061 0
M  V30 45894 H 4491.03 -0.897542 1.83751 0
M  V30 45895 H 4489.18 -3.38021 1.89264 0
M  V30 45896 H 4489.6 -3.2668 4.10341 0
M  V30 45897 H 4491.07 -4.60688 3.0409 0
M  V30 45898 H 4491.55 -4.16148 1.40418 0
M  V30 45899 H 4492.15 -3.21579 2.78328 0
M  V30 45900 N 4490.47 -1.25146 -0.957926 0
M  V30 45901 C 4491.71 -1.10899 -1.71699 0
M  V30 45902 C 4492.07 0.344713 -1.8888 0
M  V30 45903 O 4493.27 0.608922 -2.61812 0
M  V30 45904 C 4491.54 -1.839 -3.06456 0
M  V30 45905 S 4493.1 -1.85505 -3.9766 0
M  V30 45906 H 4489.92 -0.396448 -0.590212 0
M  V30 45907 H 4492.52 -1.58622 -1.14278 0
M  V30 45908 H 4491.23 -2.88767 -2.91619 0
M  V30 45909 H 4490.76 -1.36551 -3.68941 0
M  V30 45910 H 4492.77 -0.929725 -4.87412 0
M  V30 45911 N 4491.95 1.16006 -1.06679 0
M  V30 45912 C 4492.88 2.20112 -0.638998 0
M  V30 45913 C 4493.89 1.59917 0.305001 0
M  V30 45914 O 4495.08 1.78245 0.095382 0
M  V30 45915 C 4492.18 3.38799 0.0828892 0
M  V30 45916 C 4491.35 4.28547 -0.875577 0
M  V30 45917 C 4490.41 5.25849 -0.192227 0
M  V30 45918 O 4489.44 5.63099 -0.831119 0
M  V30 45919 N 4490.64 5.70652 1.06473 0
M  V30 45920 H 4493.4 2.57434 -1.53454 0
M  V30 45921 H 4490.97 1.31054 -0.950603 0
M  V30 45922 H 4492.96 4.00938 0.550544 0
M  V30 45923 H 4491.53 2.9995 0.88028 0
M  V30 45924 H 4490.75 3.63611 -1.52251 0
M  V30 45925 H 4492.04 4.85388 -1.52566 0
M  V30 45926 H 4491.43 5.42488 1.60386 0
M  V30 45927 H 4489.99 6.34864 1.47619 0
M  V30 45928 N 4493.42 0.849923 1.32718 0
M  V30 45929 C 4494.37 0.279826 2.30911 0
M  V30 45930 C 4495.37 -0.594222 1.58636 0
M  V30 45931 O 4496.57 -0.482552 1.73411 0
M  V30 45932 H 4492.95 0.0717784 0.748567 0
M  V30 45933 H 4494.92 1.12232 2.7649 0
M  V30 45934 C 4493.67 -0.520987 3.43775 0
M  V30 45935 H 4492.99 0.142281 3.99547 0
M  V30 45936 H 4494.43 -0.885547 4.14649 0
M  V30 45937 C 4492.89 -1.70432 2.90611 0
M  V30 45938 O 4493.42 -2.8033 2.87712 0
M  V30 45939 N 4491.62 -1.52983 2.47072 0
M  V30 45940 H 4491.17 -0.635826 2.4963 0
M  V30 45941 H 4491.13 -2.32303 2.11855 0
M  V30 45942 N 4494.9 -1.45425 0.607406 0
M  V30 45943 C 4496.15 -2.01841 0.102324 0
M  V30 45944 C 4496.47 -1.47836 -1.27159 0
M  V30 45945 O 4495.74 -0.672562 -1.83993 0
M  V30 45946 H 4494.32 -0.746187 0.0348363 0
M  V30 45947 H 4496.98 -1.78226 0.788762 0
M  V30 45948 H 4496.08 -3.12057 0.0519682 0
M  V30 45949 N 4496.38 -0.346557 -1.53742 0
M  V30 45950 C 4497.8 0.00525364 -1.59599 0
M  V30 45951 C 4498 1.48461 -1.36241 0
M  V30 45952 O 4497.05 2.24372 -1.15816 0
M  V30 45953 C 4498.37 -0.433621 -2.97557 0
M  V30 45954 C 4499.91 -0.38622 -3.10608 0
M  V30 45955 C 4500.39 -0.800609 -4.50948 0
M  V30 45956 N 4501.88 -0.754914 -4.57007 0
M  V30 45957 C 4502.61 -1.04747 -5.63751 0
M  V30 45958 N 4502.11 -1.40833 -6.78335 0
M  V30 45959 N 4503.9 -0.971511 -5.53641 0
M  V30 45960 H 4496.05 -1.31015 -1.67179 0
M  V30 45961 H 4498.32 -0.53427 -0.783109 0
M  V30 45962 H 4498.02 -1.4652 -3.19726 0
M  V30 45963 H 4497.9 0.189621 -3.76723 0
M  V30 45964 H 4500.28 0.636194 -2.88161 0
M  V30 45965 H 4500.37 -1.04471 -2.33494 0
M  V30 45966 H 4500.01 -1.82105 -4.74131 0
M  V30 45967 H 4499.94 -0.119571 -5.26464 0
M  V30 45968 H 4502.43 -0.488794 -3.74726 0
M  V30 45969 H 4502.74 -1.61633 -7.55708 0
M  V30 45970 H 4501.09 -1.44681 -6.79774 0
M  V30 45971 H 4504.28 -0.688911 -4.63003 0
M  V30 45972 H 4504.45 -1.20285 -6.36738 0
M  V30 45973 N 4497.86 1.5742 -0.0752483 0
M  V30 45974 C 4499.1 1.95497 0.596688 0
M  V30 45975 C 4499.46 0.954944 1.66568 0
M  V30 45976 O 4500.66 1.22349 2.39341 0
M  V30 45977 C 4498.93 3.38204 1.15554 0
M  V30 45978 S 4500.49 3.9826 1.84212 0
M  V30 45979 H 4497.31 0.683656 0.195283 0
M  V30 45980 H 4499.91 1.94924 -0.149927 0
M  V30 45981 H 4498.62 4.08767 0.365736 0
M  V30 45982 H 4498.15 3.42328 1.93844 0
M  V30 45983 H 4500.16 3.85446 3.12484 0
M  V30 45984 N 4499.34 -0.198331 1.56347 0
M  V30 45985 C 4500.59 -0.917388 1.7963 0
M  V30 45986 C 4500.9 -1.84558 0.647905 0
M  V30 45987 O 4502.1 -2.60501 0.76495 0
M  V30 45988 C 4500.56 -1.68164 3.18196 0
M  V30 45989 C 4500.17 -0.798434 4.40828 0
M  V30 45990 C 4501.91 -2.39052 3.50791 0
M  V30 45991 C 4499.82 -1.56137 5.70417 0
M  V30 45992 H 4498.75 -0.346294 0.669774 0
M  V30 45993 H 4501.4 -0.170736 1.82704 0
M  V30 45994 H 4499.78 -2.47205 3.09363 0
M  V30 45995 H 4500.96 -0.0469045 4.60776 0
M  V30 45996 H 4499.27 -0.20054 4.15917 0
M  V30 45997 H 4501.87 -2.96677 4.44845 0
M  V30 45998 H 4502.21 -3.13082 2.74382 0
M  V30 45999 H 4502.74 -1.6698 3.61058 0
M  V30 46000 H 4499.48 -0.863913 6.49782 0
M  V30 46001 H 4499 -2.28691 5.54491 0
M  V30 46002 H 4500.68 -2.11601 6.1142 0
M  V30 46003 N 4500.81 -1.50555 -0.465925 0
M  V30 46004 C 4502.04 -1.65843 -1.24543 0
M  V30 46005 C 4502.46 -0.343551 -1.84936 0
M  V30 46006 O 4501.82 0.693181 -1.67525 0
M  V30 46007 C 4501.87 -2.75541 -2.32614 0
M  V30 46008 O 4500.97 -2.37153 -3.3739 0
M  V30 46009 H 4500.32 -0.553906 -0.366175 0
M  V30 46010 H 4502.85 -1.96961 -0.553857 0
M  V30 46011 H 4502.86 -2.98773 -2.77847 0
M  V30 46012 H 4501.53 -3.70968 -1.8803 0
M  V30 46013 H 4500.11 -2.24388 -2.97833 0
M  V30 46014 N 4502.29 0.719457 -1.4022 0
M  V30 46015 C 4503.24 1.83354 -1.40178 0
M  V30 46016 C 4504.21 1.64064 -0.259264 0
M  V30 46017 O 4505.39 1.85253 -0.456742 0
M  V30 46018 C 4502.53 3.21026 -1.26635 0
M  V30 46019 C 4501.65 3.51914 -2.5056 0
M  V30 46020 C 4500.78 4.79071 -2.29488 0
M  V30 46021 C 4499.82 5.02851 -3.4901 0
M  V30 46022 N 4498.96 6.21219 -3.27157 0
M  V30 46023 H 4503.8 1.82724 -2.35406 0
M  V30 46024 H 4501.34 0.892647 -1.1692 0
M  V30 46025 H 4503.29 4.0052 -1.1679 0
M  V30 46026 H 4501.92 3.20894 -0.350289 0
M  V30 46027 H 4500.98 2.67004 -2.70948 0
M  V30 46028 H 4502.29 3.65398 -3.39538 0
M  V30 46029 H 4501.44 5.66575 -2.16975 0
M  V30 46030 H 4500.18 4.67789 -1.3793 0
M  V30 46031 H 4499.19 4.13803 -3.62004 0
M  V30 46032 H 4500.41 5.16007 -4.4149 0
M  V30 46033 H 4498.36 6.11195 -2.38277 0
M  V30 46034 H 4498.27 6.35361 -4.09698 0
M  V30 46035 H 4499.54 7.11521 -3.18369 0
M  V30 46036 N 4503.77 1.25652 0.951275 0
M  V30 46037 C 4505 1.13349 1.73088 0
M  V30 46038 C 4505.41 -0.312369 1.86198 0
M  V30 46039 O 4504.77 -1.21461 1.36211 0
M  V30 46040 C 4504.82 1.78613 3.14292 0
M  V30 46041 O 4504.54 3.17548 3.0182 0
M  V30 46042 C 4506.04 1.72133 4.08516 0
M  V30 46043 H 4503.26 0.3952 0.542271 0
M  V30 46044 H 4505.81 1.6608 1.19322 0
M  V30 46045 H 4503.96 1.29845 3.64992 0
M  V30 46046 H 4504.38 3.4969 3.90919 0
M  V30 46047 H 4505.85 2.22453 5.05192 0
M  V30 46048 H 4506.33 0.685787 4.33813 0
M  V30 46049 H 4506.93 2.20405 3.63733 0
M  V30 46050 N 4505.25 -1.15438 1.07293 0
M  V30 46051 C 4506.5 -1.8621 0.795733 0
M  V30 46052 C 4506.82 -1.82294 -0.678174 0
M  V30 46053 O 4506.08 -1.24062 -1.51351 0
M  V30 46054 C 4506.38 -3.34885 1.24846 0
M  V30 46055 C 4506.04 -3.58997 2.72822 0
M  V30 46056 C 4504.71 -3.65287 3.1324 0
M  V30 46057 C 4507.06 -3.68749 3.68339 0
M  V30 46058 C 4504.39 -3.78839 4.47994 0
M  V30 46059 C 4506.74 -3.83824 5.02854 0
M  V30 46060 C 4505.4 -3.88359 5.42894 0
M  V30 46061 H 4504.67 -0.681392 0.291179 0
M  V30 46062 H 4507.32 -1.3643 1.34384 0
M  V30 46063 H 4505.62 -3.86868 0.619731 0
M  V30 46064 H 4507.32 -3.88049 1.01089 0
M  V30 46065 H 4503.91 -3.54742 2.40533 0
M  V30 46066 H 4508.09 -3.6319 3.3824 0
M  V30 46067 H 4503.35 -3.80606 4.78486 0
M  V30 46068 H 4507.52 -3.90312 5.76741 0
M  V30 46069 H 4505.15 -3.98612 6.47312 0
M  V30 46070 N 4506.73 -0.85695 -1.32265 0
M  V30 46071 C 4507.97 -0.462139 -1.97464 0
M  V30 46072 C 4508.31 0.980239 -1.67645 0
M  V30 46073 O 4507.58 1.6882 -0.965917 0
M  V30 46074 C 4507.86 -0.70446 -3.53142 0
M  V30 46075 C 4507.72 -2.19542 -3.92583 0
M  V30 46076 C 4509.04 -0.162355 -4.398 0
M  V30 46077 H 4506.15 -0.169382 -0.717272 0
M  V30 46078 H 4508.8 -1.0758 -1.5661 0
M  V30 46079 H 4506.95 -0.182135 -3.88073 0
M  V30 46080 H 4508.62 -2.784 -3.67819 0
M  V30 46081 H 4506.86 -2.67304 -3.41659 0
M  V30 46082 H 4507.53 -2.31566 -5.0108 0
M  V30 46083 H 4510.01 -0.60905 -4.11618 0
M  V30 46084 H 4508.88 -0.361457 -5.47709 0
M  V30 46085 H 4509.15 0.935006 -4.321 0
M  V30 46086 N 4508.2 1.45101 -0.61511 0
M  V30 46087 C 4509.44 2.04069 -0.116353 0
M  V30 46088 C 4509.81 1.47215 1.23255 0
M  V30 46089 O 4511.01 1.97583 1.82248 0
M  V30 46090 C 4509.28 3.57297 -0.0856076 0
M  V30 46091 S 4510.84 4.37395 0.350862 0
M  V30 46092 H 4507.66 0.709004 -0.0532432 0
M  V30 46093 H 4510.26 1.77706 -0.814903 0
M  V30 46094 H 4508.96 3.96186 -1.07074 0
M  V30 46095 H 4508.49 3.88246 0.634698 0
M  V30 46096 H 4510.51 4.6974 1.59872 0
M  V30 46097 N 4509.68 0.354705 1.53557 0
M  V30 46098 C 4510.96 -0.294213 1.93375 0
M  V30 46099 C 4511.34 -1.67308 1.28729 0
M  V30 46100 O 4510.69 -2.24178 0.442326 0
M  V30 46101 C 4510.9 -0.355323 3.47186 0
M  V30 46102 C 4512.25 -0.600859 4.20327 0
M  V30 46103 O 4513.27 -0.436981 3.53509 0
M  V30 46104 O 4512.13 -0.919133 5.38715 0
M  V30 46105 H 4509.22 -0.174004 0.808487 0
M  V30 46106 H 4511.77 0.406696 1.64755 0
M  V30 46107 H 4510.54 0.611865 3.86487 0
M  V30 46108 H 4510.16 -1.10257 3.82007 0
M  V30 46109 N 4511.16 -1.57378 0.0835957 0
M  V30 46110 C 4512.07 -2.169 -0.893944 0
M  V30 46111 C 4513.09 -1.13533 -1.31857 0
M  V30 46112 O 4514.26 -1.45853 -1.38885 0
M  V30 46113 C 4511.33 -2.72839 -2.13916 0
M  V30 46114 C 4510.39 -3.91121 -1.76983 0
M  V30 46115 C 4509.62 -4.44382 -2.95568 0
M  V30 46116 O 4509.85 -3.9661 -4.09947 0
M  V30 46117 O 4508.78 -5.35559 -2.747 0
M  V30 46118 H 4512.61 -3.00816 -0.417573 0
M  V30 46119 H 4510.19 -1.48741 -0.140128 0
M  V30 46120 H 4512.07 -3.0864 -2.86913 0
M  V30 46121 H 4510.75 -1.91976 -2.60628 0
M  V30 46122 H 4509.65 -3.60152 -1.01201 0
M  V30 46123 H 4510.99 -4.73312 -1.35044 0
M  V30 46124 N 4512.64 0.190037 -1.5645 0
M  V30 46125 C 4513.92 0.935826 -1.7176 0
M  V30 46126 C 4514.3 2.01171 -0.639797 0
M  V30 46127 O 4513.64 2.25828 0.348422 0
M  V30 46128 C 4513.85 1.51764 -3.14275 0
M  V30 46129 C 4515.2 1.99781 -3.74663 0
M  V30 46130 O 4516.23 1.61596 -3.17435 0
M  V30 46131 O 4515.09 2.70062 -4.75109 0
M  V30 46132 H 4512.18 0.439204 -0.700735 0
M  V30 46133 H 4514.73 0.179336 -1.6875 0
M  V30 46134 H 4513.5 0.74237 -3.84193 0
M  V30 46135 H 4513.12 2.33883 -3.21535 0
M  V30 46136 N 4514.12 1.508 0.457934 0
M  V30 46137 C 4515.07 1.71167 1.57494 0
M  V30 46138 C 4516.06 0.577648 1.59247 0
M  V30 46139 O 4517.27 0.758501 1.63238 0
M  V30 46140 H 4513.64 0.540486 0.522856 0
M  V30 46141 H 4515.61 2.64842 1.37482 0
M  V30 46142 C 4514.36 1.83507 2.95331 0
M  V30 46143 H 4513.68 2.70163 2.94706 0
M  V30 46144 H 4515.12 2.01778 3.7291 0
M  V30 46145 C 4513.58 0.589811 3.31697 0
M  V30 46146 O 4514.11 -0.265022 4.00825 0
M  V30 46147 N 4512.32 0.439946 2.8725 0
M  V30 46148 H 4511.87 1.13663 2.31168 0
M  V30 46149 H 4511.82 -0.39205 3.11946 0
M  V30 46150 N 4515.6 -0.71201 1.40599 0
M  V30 46151 C 4516.87 -1.46532 1.29568 0
M  V30 46152 C 4517.25 -2.10931 -0.0843476 0
M  V30 46153 O 4516.6 -2.00422 -1.09743 0
M  V30 46154 C 4516.81 -2.49813 2.4371 0
M  V30 46155 C 4518.16 -3.15541 2.84111 0
M  V30 46156 O 4519.18 -2.60133 2.43329 0
M  V30 46157 O 4518.04 -4.15855 3.5458 0
M  V30 46158 H 4515.14 -0.651783 0.509027 0
M  V30 46159 H 4517.68 -0.743882 1.52527 0
M  V30 46160 H 4516.45 -2.00766 3.3587 0
M  V30 46161 H 4516.08 -3.29487 2.2254 0
M  V30 46162 N 4517.07 -1.26155 -0.944598 0
M  V30 46163 C 4518.31 -1.12714 -1.70513 0
M  V30 46164 C 4518.68 0.324661 -1.89235 0
M  V30 46165 O 4519.88 0.581119 -2.62443 0
M  V30 46166 C 4518.15 -1.8714 -3.04489 0
M  V30 46167 S 4519.71 -1.89712 -3.9567 0
M  V30 46168 H 4516.53 -0.402686 -0.585974 0
M  V30 46169 H 4519.13 -1.59825 -1.12589 0
M  V30 46170 H 4517.83 -2.91844 -2.8854 0
M  V30 46171 H 4517.36 -1.40457 -3.67472 0
M  V30 46172 H 4519.38 -0.981369 -4.86399 0
M  V30 46173 N 4518.55 1.14868 -1.07903 0
M  V30 46174 C 4519.8 1.85419 -0.804006 0
M  V30 46175 C 4520.12 1.83053 0.672046 0
M  V30 46176 O 4519.39 1.27537 1.48698 0
M  V30 46177 H 4517.97 0.686527 -0.294432 0
M  V30 46178 H 4520.63 1.39221 -1.36395 0
M  V30 46179 H 4519.73 2.90395 -1.14356 0
M  V30 46180 N 4520.03 0.863952 1.31809 0
M  V30 46181 C 4521.31 0.392818 1.91615 0
M  V30 46182 C 4521.69 -1.12455 1.78654 0
M  V30 46183 O 4521.03 -1.95041 1.19044 0
M  V30 46184 C 4521.24 0.867504 3.38046 0
M  V30 46185 C 4522.59 0.890112 4.15165 0
M  V30 46186 O 4523.62 0.812757 3.46804 0
M  V30 46187 O 4522.48 1.00098 5.37255 0
M  V30 46188 H 4519.57 0.116387 0.818769 0
M  V30 46189 H 4522.12 0.951467 1.40518 0
M  V30 46190 H 4520.89 1.91093 3.41466 0
M  V30 46191 H 4520.51 0.286826 3.96564 0
M  V30 46192 N 4521.51 -1.44772 0.622796 0
M  V30 46193 C 4522.76 -2.01721 0.123726 0
M  V30 46194 C 4523.08 -1.49177 -1.25584 0
M  V30 46195 O 4522.35 -0.692039 -1.83269 0
M  V30 46196 H 4520.93 -0.745776 0.0427487 0
M  V30 46197 H 4523.59 -1.7738 0.807621 0
M  V30 46198 H 4522.68 -3.11984 0.0850631 0
M  V30 46199 N 4522.99 -0.362844 -1.53366 0
M  V30 46200 C 4524.21 0.231154 -2.06108 0
M  V30 46201 C 4524.64 1.41896 -1.23479 0
M  V30 46202 O 4523.99 1.79523 -0.253191 0
M  V30 46203 C 4524.04 0.605398 -3.55482 0
M  V30 46204 O 4523.15 1.70298 -3.75596 0
M  V30 46205 H 4522.49 0.0343037 -0.663113 0
M  V30 46206 H 4525.02 -0.522654 -1.97812 0
M  V30 46207 H 4525.03 0.877174 -3.98459 0
M  V30 46208 H 4523.7 -0.26315 -4.15067 0
M  V30 46209 H 4522.28 1.42698 -3.44517 0
M  V30 46210 N 4524.46 1.57332 -0.0919406 0
M  V30 46211 C 4525.74 1.85693 0.614603 0
M  V30 46212 C 4526.12 0.988211 1.86541 0
M  V30 46213 O 4525.47 0.0597858 2.28422 0
M  V30 46214 C 4525.68 3.36297 0.933008 0
M  V30 46215 C 4527.03 4.04279 1.29782 0
M  V30 46216 O 4528.05 3.4116 1.02412 0
M  V30 46217 O 4526.91 5.15646 1.81029 0
M  V30 46218 H 4524 0.767813 0.307234 0
M  V30 46219 H 4526.55 1.69243 -0.124399 0
M  V30 46220 H 4525.32 3.91274 0.0455029 0
M  V30 46221 H 4524.95 3.58082 1.72809 0
M  V30 46222 N 4525.94 -0.181737 1.56549 0
M  V30 46223 C 4526.85 -1.24531 1.98819 0
M  V30 46224 C 4527.87 -1.49042 0.897913 0
M  V30 46225 O 4529.04 -1.61395 1.20473 0
M  V30 46226 C 4526.11 -2.56675 2.33064 0
M  V30 46227 C 4525.17 -2.40119 3.55867 0
M  V30 46228 C 4524.4 -3.65961 3.88469 0
M  V30 46229 O 4524.63 -4.70699 3.22177 0
M  V30 46230 O 4523.56 -3.60693 4.81855 0
M  V30 46231 H 4527.39 -0.916545 2.8954 0
M  V30 46232 H 4524.97 -0.387791 1.44279 0
M  V30 46233 H 4526.85 -3.34646 2.56106 0
M  V30 46234 H 4525.53 -2.89152 1.45508 0
M  V30 46235 H 4524.44 -1.60214 3.38057 0
M  V30 46236 H 4525.77 -2.1257 4.43931 0
M  V30 46237 N 4527.42 -1.51041 -0.44993 0
M  V30 46238 C 4528.35 -1.74384 -1.55281 0
M  V30 46239 C 4529.33 -0.593292 -1.59418 0
M  V30 46240 O 4530.52 -0.834687 -1.75347 0
M  V30 46241 C 4527.65 -1.85739 -2.93459 0
M  V30 46242 C 4526.6 -3.01089 -3.04187 0
M  V30 46243 C 4525.93 -2.97611 -4.44221 0
M  V30 46244 C 4527.23 -4.41264 -2.79434 0
M  V30 46245 H 4528.92 -2.6673 -1.35999 0
M  V30 46246 H 4526.47 -1.28352 -0.652819 0
M  V30 46247 H 4528.42 -2.00653 -3.70562 0
M  V30 46248 H 4527.14 -0.900318 -3.13946 0
M  V30 46249 H 4525.8 -2.85859 -2.29521 0
M  V30 46250 H 4525.45 -1.99707 -4.61656 0
M  V30 46251 H 4525.15 -3.75062 -4.5233 0
M  V30 46252 H 4526.67 -3.14602 -5.23315 0
M  V30 46253 H 4528.09 -4.56909 -3.46276 0
M  V30 46254 H 4526.49 -5.20326 -2.98967 0
M  V30 46255 H 4527.56 -4.5217 -1.75129 0
M  V30 46256 N 4528.9 0.704544 -1.40975 0
M  V30 46257 C 4529.83 1.82856 -1.36524 0
M  V30 46258 C 4530.81 1.60909 -0.233877 0
M  V30 46259 O 4531.99 1.83777 -0.419336 0
M  V30 46260 C 4529.12 3.19386 -1.1274 0
M  V30 46261 C 4528.17 3.6014 -2.28476 0
M  V30 46262 S 4529 3.6598 -3.9092 0
M  V30 46263 C 4530.16 5.05251 -3.69421 0
M  V30 46264 H 4530.39 1.86352 -2.31646 0
M  V30 46265 H 4527.92 0.872394 -1.27392 0
M  V30 46266 H 4529.88 3.98208 -0.997033 0
M  V30 46267 H 4528.54 3.13509 -0.192537 0
M  V30 46268 H 4527.73 4.59301 -2.07505 0
M  V30 46269 H 4527.34 2.88604 -2.37873 0
M  V30 46270 H 4529.63 5.92492 -3.28572 0
M  V30 46271 H 4530.57 5.31261 -4.68153 0
M  V30 46272 H 4530.98 4.76366 -3.02879 0
M  V30 46273 N 4530.38 1.26654 0.937895 0
M  V30 46274 C 4531.33 1.05163 2.02299 0
M  V30 46275 C 4532.31 -0.0170668 1.60891 0
M  V30 46276 O 4533.5 0.200275 1.75863 0
M  V30 46277 C 4530.63 0.69008 3.36293 0
M  V30 46278 C 4529.72 1.7964 3.84175 0
M  V30 46279 N 4530.11 3.03436 4.04673 0
M  V30 46280 C 4528.41 1.68075 4.13118 0
M  V30 46281 C 4529.11 3.75361 4.44386 0
M  V30 46282 N 4528.08 3.03067 4.51278 0
M  V30 46283 H 4531.89 1.99125 2.16163 0
M  V30 46284 H 4529.4 1.1722 1.12398 0
M  V30 46285 H 4531.4 0.517257 4.13679 0
M  V30 46286 H 4530.06 -0.242025 3.23797 0
M  V30 46287 H 4531.07 3.39307 3.91269 0
M  V30 46288 H 4527.74 0.818773 4.09393 0
M  V30 46289 H 4529.13 4.81707 4.6841 0
M  V30 46290 N 4531.85 -1.14294 1.08511 0
M  V30 46291 C 4532.78 -2.2154 0.737724 0
M  V30 46292 C 4533.77 -1.67774 -0.280318 0
M  V30 46293 O 4534.95 -1.93616 -0.150453 0
M  V30 46294 C 4532.08 -3.46987 0.147381 0
M  V30 46295 C 4531.03 -4.13785 1.09389 0
M  V30 46296 C 4530.36 -5.33448 0.365711 0
M  V30 46297 C 4531.66 -4.622 2.43246 0
M  V30 46298 H 4533.35 -2.50855 1.63439 0
M  V30 46299 H 4530.9 -1.20573 0.787285 0
M  V30 46300 H 4532.85 -4.21262 -0.10766 0
M  V30 46301 H 4531.58 -3.1704 -0.784427 0
M  V30 46302 H 4530.24 -3.41466 1.33405 0
M  V30 46303 H 4529.88 -4.99761 -0.569935 0
M  V30 46304 H 4529.58 -5.79085 0.996716 0
M  V30 46305 H 4531.11 -6.10485 0.118748 0
M  V30 46306 H 4532.52 -5.27944 2.23491 0
M  V30 46307 H 4530.92 -5.18543 3.02049 0
M  V30 46308 H 4531.99 -3.77213 3.04694 0
M  V30 46309 N 4533.33 -0.87093 -1.31349 0
M  V30 46310 C 4534.57 -0.488852 -1.98468 0
M  V30 46311 C 4534.94 0.941478 -1.67333 0
M  V30 46312 O 4536.14 1.42895 -2.27672 0
M  V30 46313 C 4534.41 -0.73981 -3.49659 0
M  V30 46314 S 4535.97 -0.457735 -4.36406 0
M  V30 46315 H 4532.79 -0.182444 -0.687194 0
M  V30 46316 H 4535.39 -1.12716 -1.59735 0
M  V30 46317 H 4534.09 -1.77957 -3.6981 0
M  V30 46318 H 4533.62 -0.0885287 -3.933 0
M  V30 46319 H 4535.64 0.709579 -4.911 0
M  V30 46320 N 4534.81 1.4444 -0.630465 0
M  V30 46321 C 4535.76 2.27795 0.0967302 0
M  V30 46322 C 4536.74 1.38627 0.816786 0
M  V30 46323 O 4537.94 1.6244 0.703003 0
M  V30 46324 C 4535.07 3.25933 1.07808 0
M  V30 46325 C 4534.15 4.22589 0.357677 0
M  V30 46326 N 4534.54 5.02067 -0.613346 0
M  V30 46327 C 4532.84 4.41916 0.60221 0
M  V30 46328 C 4533.54 5.72347 -1.03891 0
M  V30 46329 N 4532.52 5.42285 -0.377833 0
M  V30 46330 H 4536.32 2.86651 -0.648722 0
M  V30 46331 H 4533.83 1.55869 -0.455917 0
M  V30 46332 H 4535.83 3.84405 1.61364 0
M  V30 46333 H 4534.49 2.68638 1.82384 0
M  V30 46334 H 4535.5 5.08328 -0.991125 0
M  V30 46335 H 4532.18 3.95719 1.33089 0
M  V30 46336 H 4533.57 6.46184 -1.84108 0
M  V30 46337 N 4536.29 0.370972 1.53172 0
M  V30 46338 C 4537.52 -0.217632 2.05752 0
M  V30 46339 C 4537.93 -1.42014 1.24409 0
M  V30 46340 O 4537.29 -1.80244 0.286096 0
M  V30 46341 C 4537.34 -0.605828 3.56387 0
M  V30 46342 O 4537.06 0.548886 4.34648 0
M  V30 46343 C 4538.56 -1.25225 4.25245 0
M  V30 46344 H 4535.78 -0.0371423 0.669971 0
M  V30 46345 H 4538.33 0.530902 1.97488 0
M  V30 46346 H 4536.48 -1.30427 3.64784 0
M  V30 46347 H 4536.89 0.233944 5.23978 0
M  V30 46348 H 4538.37 -1.47439 5.31945 0
M  V30 46349 H 4538.85 -2.21417 3.79304 0
M  V30 46350 H 4539.45 -0.595085 4.21116 0
M  V30 46351 N 4537.77 -1.57281 0.100283 0
M  V30 46352 C 4539.18 -1.81727 -0.428043 0
M  V30 46353 C 4539.53 -1.01625 -1.6783 0
M  V30 46354 O 4538.65 -0.247174 -2.14984 0
M  V30 46355 C 4539.25 -3.29619 -0.783354 0
M  V30 46356 C 4537.81 -3.54812 -1.2564 0
M  V30 46357 C 4536.95 -2.76119 -0.255655 0
M  V30 46358 H 4539.91 -1.55323 0.325662 0
M  V30 46359 H 4539.93 -3.43226 -1.64244 0
M  V30 46360 H 4539.44 -3.87893 0.126787 0
M  V30 46361 H 4537.54 -3.01876 -2.18408 0
M  V30 46362 H 4537.65 -4.63447 -1.21465 0
M  V30 46363 H 4536.02 -2.43747 -0.738871 0
M  V30 46364 H 4536.8 -3.37143 0.647255 0
M  V30 46365 N 4539.25 0.173432 -1.56643 0
M  V30 46366 C 4540.16 1.23475 -1.99477 0
M  V30 46367 C 4541.17 1.48564 -0.905805 0
M  V30 46368 O 4542.35 1.60754 -1.21327 0
M  V30 46369 C 4539.41 2.55435 -2.34422 0
M  V30 46370 C 4538.47 2.38228 -3.57136 0
M  V30 46371 C 4537.71 3.63896 -3.90404 0
M  V30 46372 O 4537.93 4.68984 -3.24669 0
M  V30 46373 O 4536.86 3.58132 -4.83761 0
M  V30 46374 H 4540.69 0.901177 -2.90022 0
M  V30 46375 H 4538.27 0.380134 -1.44483 0
M  V30 46376 H 4540.16 3.33283 -2.57877 0
M  V30 46377 H 4538.83 2.88376 -1.4704 0
M  V30 46378 H 4537.74 1.58419 -3.38901 0
M  V30 46379 H 4539.07 2.10212 -4.45052 0
M  V30 46380 N 4540.72 1.51278 0.441914 0
M  V30 46381 C 4542.13 1.56248 1.02193 0
M  V30 46382 C 4542.49 0.383217 1.92421 0
M  V30 46383 O 4541.61 -0.500539 2.10532 0
M  V30 46384 C 4542.21 2.83168 1.86014 0
M  V30 46385 C 4540.76 2.90725 2.39073 0
M  V30 46386 C 4539.91 2.50862 1.18166 0
M  V30 46387 H 4542.86 1.5712 0.223361 0
M  V30 46388 H 4542.88 2.66672 2.71415 0
M  V30 46389 H 4542.4 3.68978 1.20318 0
M  V30 46390 H 4540.5 2.09334 3.08237 0
M  V30 46391 H 4540.61 3.94275 2.72184 0
M  V30 46392 H 4538.97 2.03957 1.52557 0
M  V30 46393 H 4539.76 3.39012 0.540882 0
M  V30 46394 N 4542.2 -0.697058 1.41347 0
M  V30 46395 C 4543.43 -1.48588 1.43977 0
M  V30 46396 C 4543.84 -1.88747 0.0446276 0
M  V30 46397 O 4543.2 -1.56685 -0.93573 0
M  V30 46398 C 4543.25 -2.74938 2.34715 0
M  V30 46399 O 4542.97 -2.36471 3.688 0
M  V30 46400 C 4544.47 -3.68691 2.46134 0
M  V30 46401 H 4541.69 -0.457947 0.490434 0
M  V30 46402 H 4544.24 -0.858364 1.85613 0
M  V30 46403 H 4542.39 -3.3393 1.96391 0
M  V30 46404 H 4542.81 -3.17903 4.17179 0
M  V30 46405 H 4544.28 -4.54134 3.13793 0
M  V30 46406 H 4544.76 -4.13076 1.49213 0
M  V30 46407 H 4545.36 -3.15603 2.85087 0
M  V30 46408 N 4543.68 -1.2715 -0.931165 0
M  V30 46409 C 4544.92 -1.14517 -1.69308 0
M  V30 46410 C 4545.28 0.304572 -1.89569 0
M  V30 46411 O 4546.48 0.553251 -2.63045 0
M  V30 46412 C 4544.76 -1.90359 -3.02487 0
M  V30 46413 S 4546.31 -1.93898 -3.93636 0
M  V30 46414 H 4543.13 -0.408878 -0.58167 0
M  V30 46415 H 4545.73 -1.6101 -1.10887 0
M  V30 46416 H 4544.44 -2.94887 -2.85429 0
M  V30 46417 H 4543.97 -1.44346 -3.65961 0
M  V30 46418 H 4545.98 -1.0329 -4.8533 0
M  V30 46419 N 4545.16 1.13717 -1.09116 0
M  V30 46420 C 4546.57 1.66477 -0.845126 0
M  V30 46421 C 4546.92 1.85914 0.626944 0
M  V30 46422 O 4546.04 1.57561 1.48335 0
M  V30 46423 C 4546.64 3.02407 -1.52759 0
M  V30 46424 C 4545.2 3.52172 -1.32861 0
M  V30 46425 C 4544.35 2.27486 -1.58572 0
M  V30 46426 H 4547.3 0.976828 -1.25075 0
M  V30 46427 H 4547.32 3.6822 -0.958882 0
M  V30 46428 H 4546.83 2.88229 -2.59895 0
M  V30 46429 H 4544.93 3.71559 -0.278268 0
M  V30 46430 H 4545.04 4.32492 -2.06125 0
M  V30 46431 H 4543.41 2.33919 -1.00767 0
M  V30 46432 H 4544.19 2.15876 -2.66931 0
M  V30 46433 N 4546.64 0.877884 1.30885 0
M  V30 46434 C 4548.05 0.544256 1.78591 0
M  V30 46435 C 4548.4 -0.93924 1.72258 0
M  V30 46436 O 4547.52 -1.73366 1.29512 0
M  V30 46437 C 4548.12 0.981164 3.24282 0
M  V30 46438 C 4546.68 0.699065 3.69851 0
M  V30 46439 C 4545.82 1.16809 2.51497 0
M  V30 46440 H 4548.77 1.06282 1.17855 0
M  V30 46441 H 4548.8 0.307142 3.79258 0
M  V30 46442 H 4548.31 2.0609 3.28859 0
M  V30 46443 H 4546.41 -0.368981 3.70769 0
M  V30 46444 H 4546.52 1.28164 4.61639 0
M  V30 46445 H 4544.89 0.587622 2.47829 0
M  V30 46446 H 4545.67 2.25542 2.58816 0
M  V30 46447 N 4548.11 -1.44104 0.638116 0
M  V30 46448 C 4549.06 -2.27843 -0.0846484 0
M  V30 46449 C 4550.05 -1.39058 -0.809422 0
M  V30 46450 O 4551.24 -1.62811 -0.694378 0
M  V30 46451 C 4548.37 -3.265 -1.06078 0
M  V30 46452 C 4547.45 -4.22773 -0.335261 0
M  V30 46453 N 4547.85 -5.01735 0.639963 0
M  V30 46454 C 4546.14 -4.42229 -0.578765 0
M  V30 46455 C 4546.84 -5.71788 1.06924 0
M  V30 46456 N 4545.82 -5.42077 0.406586 0
M  V30 46457 H 4549.62 -2.86303 0.663915 0
M  V30 46458 H 4547.14 -1.55625 0.464176 0
M  V30 46459 H 4549.13 -3.85255 -1.59323 0
M  V30 46460 H 4547.79 -2.69601 -1.80957 0
M  V30 46461 H 4548.8 -5.07795 1.01807 0
M  V30 46462 H 4545.48 -3.96419 -1.30989 0
M  V30 46463 H 4546.87 -6.45199 1.87533 0
M  V30 46464 N 4549.59 -0.37909 -1.52973 0
M  V30 46465 C 4550.5 0.468558 -2.29873 0
M  V30 46466 C 4551.52 1.08062 -1.36376 0
M  V30 46467 O 4552.69 1.08865 -1.69442 0
M  V30 46468 C 4549.76 1.58584 -3.08305 0
M  V30 46469 C 4548.82 0.999923 -4.17493 0
M  V30 46470 C 4548.05 2.06396 -4.92175 0
M  V30 46471 O 4548.28 3.27735 -4.66847 0
M  V30 46472 O 4547.21 1.68696 -5.77776 0
M  V30 46473 H 4551.04 -0.157614 -3.03291 0
M  V30 46474 H 4548.62 -0.143087 -1.48713 0
M  V30 46475 H 4550.5 2.23513 -3.57239 0
M  V30 46476 H 4549.18 2.19716 -2.37711 0
M  V30 46477 H 4548.08 0.314168 -3.72778 0
M  V30 46478 H 4549.42 0.432963 -4.90292 0
M  V30 46479 N 4551.07 1.57225 -0.108623 0
M  V30 46480 C 4552.32 1.94835 0.551875 0
M  V30 46481 C 4552.64 0.991263 1.67345 0
M  V30 46482 O 4551.9 0.0132565 1.95696 0
M  V30 46483 C 4552.2 3.38915 1.13451 0
M  V30 46484 C 4551.86 4.50697 0.13535 0
M  V30 46485 C 4550.53 4.80998 -0.139421 0
M  V30 46486 C 4552.88 5.18331 -0.546139 0
M  V30 46487 C 4550.21 5.76255 -1.10214 0
M  V30 46488 C 4552.56 6.14622 -1.49742 0
M  V30 46489 C 4551.22 6.43321 -1.78029 0
M  V30 46490 H 4550.49 0.712951 0.201945 0
M  V30 46491 H 4553.14 1.90582 -0.187327 0
M  V30 46492 H 4551.44 3.39812 1.95025 0
M  V30 46493 H 4553.14 3.65323 1.65349 0
M  V30 46494 H 4549.73 4.27088 0.359696 0
M  V30 46495 H 4553.92 4.95085 -0.347016 0
M  V30 46496 H 4549.17 5.968 -1.32816 0
M  V30 46497 H 4553.35 6.66119 -2.03123 0
M  V30 46498 H 4550.97 7.16941 -2.52784 0
M  V30 46499 N 4552.55 -0.165123 1.56733 0
M  V30 46500 C 4553.49 -1.20433 1.96887 0
M  V30 46501 C 4554.46 -1.43661 0.833708 0
M  V30 46502 O 4555.65 -1.56298 1.09433 0
M  V30 46503 C 4552.79 -2.53719 2.33925 0
M  V30 46504 C 4551.9 -2.37817 3.60648 0
M  V30 46505 C 4551.04 -3.64012 3.8687 0
M  V30 46506 C 4550.08 -3.4307 5.06921 0
M  V30 46507 N 4549.21 -4.6135 5.29245 0
M  V30 46508 H 4554.05 -0.854896 2.85474 0
M  V30 46509 H 4551.59 -0.41071 1.4125 0
M  V30 46510 H 4553.55 -3.3141 2.53423 0
M  V30 46511 H 4552.18 -2.86645 1.48441 0
M  V30 46512 H 4551.23 -1.5127 3.49029 0
M  V30 46513 H 4552.54 -2.18292 4.48498 0
M  V30 46514 H 4551.7 -4.50138 4.06769 0
M  V30 46515 H 4550.44 -3.86523 2.97408 0
M  V30 46516 H 4549.44 -2.55332 4.86915 0
M  V30 46517 H 4550.67 -3.21976 5.9792 0
M  V30 46518 H 4548.61 -4.84068 4.42735 0
M  V30 46519 H 4548.53 -4.44762 6.11329 0
M  V30 46520 H 4549.8 -5.48741 5.53627 0
M  V30 46521 N 4554.03 -1.5151 -0.433885 0
M  V30 46522 C 4555.27 -1.6601 -1.19247 0
M  V30 46523 C 4555.63 -0.369934 -1.88402 0
M  V30 46524 O 4556.83 -0.390754 -2.65945 0
M  V30 46525 C 4555.1 -2.83237 -2.17971 0
M  V30 46526 S 4556.66 -3.18085 -3.0227 0
M  V30 46527 H 4553.48 -0.584836 -0.404337 0
M  V30 46528 H 4556.08 -1.89427 -0.483504 0
M  V30 46529 H 4554.79 -3.75413 -1.65811 0
M  V30 46530 H 4554.32 -2.6202 -2.93444 0
M  V30 46531 H 4556.33 -2.64787 -4.19645 0
M  V30 46532 N 4555.5 0.689552 -1.41714 0
M  V30 46533 C 4556.78 1.44452 -1.31882 0
M  V30 46534 C 4557.16 2.11039 0.0507795 0
M  V30 46535 O 4556.51 2.02142 1.0654 0
M  V30 46536 C 4556.72 2.45904 -2.47653 0
M  V30 46537 C 4558.07 3.10981 -2.89095 0
M  V30 46538 O 4559.09 2.56229 -2.47437 0
M  V30 46539 O 4557.95 4.10161 -3.61151 0
M  V30 46540 H 4555.04 0.643602 -0.519332 0
M  V30 46541 H 4557.59 0.719522 -1.53691 0
M  V30 46542 H 4556.36 1.95397 -3.39021 0
M  V30 46543 H 4555.99 3.25905 -2.27754 0
M  V30 46544 N 4556.98 1.27642 0.924409 0
M  V30 46545 C 4557.93 1.10492 2.04681 0
M  V30 46546 C 4558.92 0.0271016 1.69378 0
M  V30 46547 O 4560.13 0.185071 1.79046 0
M  V30 46548 H 4556.51 0.34057 0.67046 0
M  V30 46549 H 4558.48 2.05574 2.16291 0
M  V30 46550 C 4557.23 0.772349 3.39013 0
M  V30 46551 H 4556.55 1.59364 3.66665 0
M  V30 46552 H 4557.99 0.692244 4.18311 0
M  V30 46553 C 4556.45 -0.523437 3.32809 0
M  V30 46554 O 4556.98 -1.55689 3.70302 0
M  V30 46555 N 4555.18 -0.520262 2.85905 0
M  V30 46556 H 4554.73 0.32116 2.5559 0
M  V30 46557 H 4554.69 -1.38732 2.82136 0
M  V30 46558 N 4558.46 -1.13137 1.09717 0
M  V30 46559 C 4559.71 -1.84116 0.833403 0
M  V30 46560 C 4560.03 -1.84099 -0.642839 0
M  V30 46561 O 4559.3 -1.29887 -1.4665 0
M  V30 46562 H 4557.88 -0.681756 0.305317 0
M  V30 46563 H 4560.54 -1.37033 1.38593 0
M  V30 46564 H 4559.64 -2.88539 1.18961 0
M  V30 46565 N 4559.94 -0.884812 -1.30418 0
M  V30 46566 C 4561.35 -0.578792 -1.48735 0
M  V30 46567 C 4561.55 0.883503 -1.81098 0
M  V30 46568 O 4560.61 1.66473 -1.8985 0
M  V30 46569 C 4561.92 -1.4918 -2.61086 0
M  V30 46570 C 4563.47 -1.49541 -2.74966 0
M  V30 46571 C 4563.95 -2.39434 -3.90429 0
M  V30 46572 N 4565.44 -2.37397 -3.9774 0
M  V30 46573 C 4566.17 -3.03664 -4.8639 0
M  V30 46574 N 4565.67 -3.79156 -5.79838 0
M  V30 46575 N 4567.46 -2.92897 -4.79758 0
M  V30 46576 H 4559.61 -1.83079 -1.07684 0
M  V30 46577 H 4561.88 -0.783656 -0.533468 0
M  V30 46578 H 4561.58 -2.533 -2.43992 0
M  V30 46579 H 4561.46 -1.20126 -3.57561 0
M  V30 46580 H 4563.84 -0.461732 -2.91465 0
M  V30 46581 H 4563.92 -1.82626 -1.79112 0
M  V30 46582 H 4563.57 -3.42888 -3.74687 0
M  V30 46583 H 4563.5 -2.03666 -4.85621 0
M  V30 46584 H 4565.99 -1.82537 -3.30891 0
M  V30 46585 H 4566.3 -4.26812 -6.44245 0
M  V30 46586 H 4564.65 -3.83264 -5.7977 0
M  V30 46587 H 4567.84 -2.33447 -4.05734 0
M  V30 46588 H 4568.01 -3.44819 -5.48638 0
M  V30 46589 N 4561.42 1.43763 -0.645749 0
M  V30 46590 C 4562.66 2.03776 -0.159613 0
M  V30 46591 C 4563.02 1.49796 1.20105 0
M  V30 46592 O 4564.22 2.01405 1.78016 0
M  V30 46593 C 4562.49 3.57035 -0.161376 0
M  V30 46594 S 4564.05 4.38041 0.258005 0
M  V30 46595 H 4560.87 0.707715 -0.0682703 0
M  V30 46596 H 4563.47 1.75938 -0.852414 0
M  V30 46597 H 4562.18 3.93826 -1.15453 0
M  V30 46598 H 4561.71 3.89505 0.552203 0
M  V30 46599 H 4563.72 4.73025 1.49872 0
M  V30 46600 N 4562.89 0.387197 1.5277 0
M  V30 46601 C 4564.14 -0.196899 2.00737 0
M  V30 46602 C 4564.46 -1.48078 1.27798 0
M  V30 46603 O 4565.66 -2.14479 1.66466 0
M  V30 46604 C 4564.12 -0.401443 3.57654 0
M  V30 46605 C 4563.73 0.869061 4.3949 0
M  V30 46606 C 4565.47 -0.942018 4.13916 0
M  V30 46607 C 4563.38 0.632912 5.88004 0
M  V30 46608 H 4562.31 -0.0773563 0.750021 0
M  V30 46609 H 4564.96 0.509272 1.76291 0
M  V30 46610 H 4563.34 -1.16941 3.7834 0
M  V30 46611 H 4564.51 1.64148 4.30572 0
M  V30 46612 H 4562.83 1.33443 3.94439 0
M  V30 46613 H 4565.43 -1.13437 5.22529 0
M  V30 46614 H 4565.77 -1.91047 3.69874 0
M  V30 46615 H 4566.3 -0.233674 3.97113 0
M  V30 46616 H 4563.04 1.5723 6.36364 0
M  V30 46617 H 4562.56 -0.100614 5.99716 0
M  V30 46618 H 4564.24 0.266647 6.4645 0
M  V30 46619 N 4564.37 -1.57165 0.116959 0
M  V30 46620 C 4565.28 -2.18748 -0.847735 0
M  V30 46621 C 4566.3 -1.16304 -1.29419 0
M  V30 46622 O 4567.47 -1.48766 -1.3576 0
M  V30 46623 C 4564.54 -2.77315 -2.0808 0
M  V30 46624 C 4563.6 -3.94787 -1.68647 0
M  V30 46625 C 4562.83 -4.50551 -2.86075 0
M  V30 46626 O 4563.06 -4.05217 -4.01442 0
M  V30 46627 O 4561.99 -5.41265 -2.63278 0
M  V30 46628 H 4565.82 -3.01634 -0.353672 0
M  V30 46629 H 4563.4 -1.49005 -0.108547 0
M  V30 46630 H 4565.28 -3.14657 -2.80302 0
M  V30 46631 H 4563.96 -1.97461 -2.56497 0
M  V30 46632 H 4562.87 -3.62217 -0.935391 0
M  V30 46633 H 4564.2 -4.7607 -1.24974 0
M  V30 46634 N 4565.85 0.156809 -1.56818 0
M  V30 46635 C 4566.78 1.2231 -1.92654 0
M  V30 46636 C 4567.76 1.42056 -0.791126 0
M  V30 46637 O 4568.95 1.56828 -1.04582 0
M  V30 46638 C 4566.07 2.58367 -2.19007 0
M  V30 46639 C 4565.12 2.55272 -3.4167 0
M  V30 46640 S 4565.95 2.02928 -4.95561 0
M  V30 46641 C 4567.11 3.40734 -5.25025 0
M  V30 46642 H 4567.34 0.917304 -2.82795 0
M  V30 46643 H 4564.87 0.362006 -1.50096 0
M  V30 46644 H 4566.83 3.36669 -2.3487 0
M  V30 46645 H 4565.49 2.8614 -1.29548 0
M  V30 46646 H 4564.69 3.55406 -3.57355 0
M  V30 46647 H 4564.29 1.85074 -3.24998 0
M  V30 46648 H 4566.58 4.36801 -5.17891 0
M  V30 46649 H 4567.52 3.29911 -6.2655 0
M  V30 46650 H 4567.93 3.37417 -4.5256 0
M  V30 46651 N 4567.33 1.51738 0.425844 0
M  V30 46652 C 4568.26 1.68579 1.53806 0
M  V30 46653 C 4569.24 0.533334 1.53604 0
M  V30 46654 O 4570.42 0.758615 1.72561 0
M  V30 46655 C 4567.55 1.70987 2.92371 0
M  V30 46656 C 4566.6 2.92335 3.10552 0
M  V30 46657 S 4567.43 4.52962 2.85632 0
M  V30 46658 C 4568.59 4.58132 4.26457 0
M  V30 46659 H 4568.82 2.62652 1.39289 0
M  V30 46660 H 4566.35 1.41566 0.616311 0
M  V30 46661 H 4568.31 1.7306 3.72237 0
M  V30 46662 H 4566.97 0.780717 3.04243 0
M  V30 46663 H 4566.16 2.90454 4.11889 0
M  V30 46664 H 4565.77 2.88063 2.38528 0
M  V30 46665 H 4568.06 4.3448 5.1984 0
M  V30 46666 H 4569 5.59998 4.33368 0
M  V30 46667 H 4569.41 3.87334 4.10649 0
M  V30 46668 N 4568.81 -0.682027 1.42078 0
M  V30 46669 C 4569.75 -1.79573 1.4499 0
M  V30 46670 C 4570.72 -1.63319 0.302671 0
M  V30 46671 O 4571.91 -1.83976 0.505698 0
M  V30 46672 C 4569.05 -3.17555 1.35102 0
M  V30 46673 C 4568.16 -3.45147 2.59803 0
M  V30 46674 C 4567.3 -4.72818 2.42109 0
M  V30 46675 C 4566.34 -4.9342 3.62219 0
M  V30 46676 N 4565.47 -6.12326 3.43513 0
M  V30 46677 H 4570.31 -1.76419 2.40167 0
M  V30 46678 H 4567.85 -0.861334 1.19245 0
M  V30 46679 H 4569.81 -3.97282 1.27368 0
M  V30 46680 H 4568.44 -3.19852 0.435245 0
M  V30 46681 H 4567.49 -2.59727 2.77932 0
M  V30 46682 H 4568.8 -3.56267 3.49106 0
M  V30 46683 H 4567.96 -5.60623 2.3192 0
M  V30 46684 H 4566.7 -4.63968 1.50284 0
M  V30 46685 H 4565.7 -4.0406 3.72848 0
M  V30 46686 H 4566.93 -5.0412 4.55016 0
M  V30 46687 H 4564.87 -6.04663 2.54398 0
M  V30 46688 H 4564.79 -6.24275 4.26399 0
M  V30 46689 H 4566.06 -7.0283 3.37121 0
M  V30 46690 N 4570.29 -1.2813 -0.917626 0
M  V30 46691 C 4571.22 -1.14255 -2.03637 0
M  V30 46692 C 4572.2 -0.0413346 -1.7005 0
M  V30 46693 O 4573.38 -0.217633 -1.92977 0
M  V30 46694 C 4570.51 -0.79955 -3.37971 0
M  V30 46695 C 4569.47 -1.85511 -3.85707 0
M  V30 46696 C 4568.79 -1.36584 -5.16961 0
M  V30 46697 C 4570.09 -3.26099 -4.07991 0
M  V30 46698 H 4571.79 -2.07842 -2.15504 0
M  V30 46699 H 4569.33 -1.00068 -1.03549 0
M  V30 46700 H 4571.28 -0.68926 -4.15725 0
M  V30 46701 H 4570.01 0.17203 -3.26147 0
M  V30 46702 H 4568.67 -1.95448 -3.10155 0
M  V30 46703 H 4568.32 -0.383429 -5.01536 0
M  V30 46704 H 4568.02 -2.07163 -5.4987 0
M  V30 46705 H 4569.54 -1.26869 -5.97274 0
M  V30 46706 H 4570.95 -3.19106 -4.76282 0
M  V30 46707 H 4569.35 -3.94478 -4.52224 0
M  V30 46708 H 4570.42 -3.70405 -3.12935 0
M  V30 46709 N 4571.76 1.12553 -1.10316 0
M  V30 46710 C 4573 1.85677 -0.854608 0
M  V30 46711 C 4573.37 1.82093 0.608779 0
M  V30 46712 O 4574.57 2.50547 0.973629 0
M  V30 46713 C 4572.84 3.29415 -1.38638 0
M  V30 46714 S 4574.4 4.19926 -1.27307 0
M  V30 46715 H 4571.22 0.640416 -0.30885 0
M  V30 46716 H 4573.82 1.35594 -1.40835 0
M  V30 46717 H 4572.52 3.29582 -2.44548 0
M  V30 46718 H 4572.05 3.84563 -0.829155 0
M  V30 46719 H 4574.07 4.95667 -0.22995 0
M  V30 46720 N 4573.24 0.891716 1.29947 0
M  V30 46721 C 4574.19 0.353147 2.29904 0
M  V30 46722 C 4575.18 -0.543453 1.60446 0
M  V30 46723 O 4576.39 -0.427139 1.74859 0
M  V30 46724 H 4572.76 0.0955572 0.745904 0
M  V30 46725 H 4574.74 1.20971 2.72779 0
M  V30 46726 C 4573.48 -0.411354 3.45258 0
M  V30 46727 H 4572.81 0.269322 3.98892 0
M  V30 46728 H 4574.25 -0.753181 4.17257 0
M  V30 46729 C 4572.71 -1.611 2.95886 0
M  V30 46730 O 4573.24 -2.71035 2.96484 0
M  V30 46731 N 4571.44 -1.45045 2.51814 0
M  V30 46732 H 4570.99 -0.556086 2.51526 0
M  V30 46733 H 4570.95 -2.25446 2.19138 0
M  V30 46734 N 4574.72 -1.43419 0.653364 0
M  V30 46735 C 4575.67 -2.2792 -0.0604778 0
M  V30 46736 C 4576.65 -1.39909 -0.794628 0
M  V30 46737 O 4577.85 -1.63538 -0.677071 0
M  V30 46738 C 4574.97 -3.27607 -1.02609 0
M  V30 46739 C 4574.06 -4.23105 -0.290402 0
M  V30 46740 N 4574.45 -5.01028 0.693143 0
M  V30 46741 C 4572.75 -4.42818 -0.531829 0
M  V30 46742 C 4573.45 -5.70622 1.12983 0
M  V30 46743 N 4572.43 -5.41616 0.464058 0
M  V30 46744 H 4576.23 -2.85583 0.694244 0
M  V30 46745 H 4573.74 -1.55124 0.480656 0
M  V30 46746 H 4575.74 -3.86923 -1.55228 0
M  V30 46747 H 4574.4 -2.71505 -1.78087 0
M  V30 46748 H 4575.41 -5.06687 1.07187 0
M  V30 46749 H 4572.09 -3.97786 -1.26777 0
M  V30 46750 H 4573.48 -6.43173 1.94365 0
M  V30 46751 N 4576.2 -0.395293 -1.52562 0
M  V30 46752 C 4577.13 0.428304 -2.29538 0
M  V30 46753 C 4578.11 1.05826 -1.33172 0
M  V30 46754 O 4579.29 1.0699 -1.62071 0
M  V30 46755 C 4576.42 1.55263 -3.10662 0
M  V30 46756 C 4575.38 1.0484 -4.14961 0
M  V30 46757 C 4574.7 2.26526 -4.84345 0
M  V30 46758 C 4576 0.11214 -5.2218 0
M  V30 46759 H 4577.7 -0.213972 -2.98634 0
M  V30 46760 H 4575.24 -0.104349 -1.43621 0
M  V30 46761 H 4577.2 2.13567 -3.63273 0
M  V30 46762 H 4575.92 2.22258 -2.39309 0
M  V30 46763 H 4574.58 0.487857 -3.63339 0
M  V30 46764 H 4574.23 2.92045 -4.09535 0
M  V30 46765 H 4573.93 1.93447 -5.54844 0
M  V30 46766 H 4575.45 2.85462 -5.39763 0
M  V30 46767 H 4576.87 0.603551 -5.70114 0
M  V30 46768 H 4575.26 -0.129179 -5.99961 0
M  V30 46769 H 4576.33 -0.83722 -4.77618 0
M  V30 46770 N 4577.68 1.57101 -0.125292 0
M  V30 46771 C 4578.95 1.86955 0.575077 0
M  V30 46772 C 4579.33 1.02756 1.84403 0
M  V30 46773 O 4578.68 0.108224 2.28244 0
M  V30 46774 C 4578.89 3.38201 0.861464 0
M  V30 46775 C 4580.24 4.06941 1.21178 0
M  V30 46776 O 4581.26 3.43256 0.951525 0
M  V30 46777 O 4580.12 5.1937 1.7005 0
M  V30 46778 H 4577.22 0.774157 0.290879 0
M  V30 46779 H 4579.76 1.68941 -0.16027 0
M  V30 46780 H 4578.53 3.91282 -0.0375023 0
M  V30 46781 H 4578.16 3.61667 1.65175 0
M  V30 46782 N 4579.15 -0.14849 1.56899 0
M  V30 46783 C 4580.43 -0.889958 1.74181 0
M  V30 46784 C 4580.81 -1.99404 0.692909 0
M  V30 46785 O 4580.16 -2.26672 -0.288425 0
M  V30 46786 C 4580.37 -1.43378 3.18188 0
M  V30 46787 C 4581.72 -1.89777 3.79828 0
M  V30 46788 O 4582.74 -1.53123 3.21608 0
M  V30 46789 O 4581.6 -2.5737 4.82102 0
M  V30 46790 H 4578.69 -0.420471 0.712133 0
M  V30 46791 H 4581.24 -0.134532 1.69166 0
M  V30 46792 H 4580.01 -0.640247 3.86027 0
M  V30 46793 H 4579.63 -2.25275 3.27623 0
M  V30 46794 N 4580.63 -1.51961 -0.417791 0
M  V30 46795 C 4581.87 -1.67266 -1.1748 0
M  V30 46796 C 4582.24 -0.389896 -1.87999 0
M  V30 46797 O 4583.44 -0.418939 -2.65515 0
M  V30 46798 C 4581.71 -2.85533 -2.14955 0
M  V30 46799 S 4583.27 -3.21273 -2.98879 0
M  V30 46800 H 4580.08 -0.589091 -0.398111 0
M  V30 46801 H 4582.69 -1.89929 -0.463385 0
M  V30 46802 H 4581.39 -3.77151 -1.6182 0
M  V30 46803 H 4580.92 -2.65118 -2.90648 0
M  V30 46804 H 4582.94 -2.69223 -4.16813 0
M  V30 46805 N 4582.11 0.674483 -1.42438 0
M  V30 46806 C 4583.04 1.80004 -1.4873 0
M  V30 46807 C 4584.02 1.66588 -0.343852 0
M  V30 46808 O 4585.21 1.86005 -0.558202 0
M  V30 46809 C 4582.34 3.18301 -1.3893 0
M  V30 46810 C 4581.29 3.46453 -2.51306 0
M  V30 46811 C 4580.62 4.84327 -2.26564 0
M  V30 46812 C 4581.92 3.43314 -3.93615 0
M  V30 46813 H 4583.61 1.74995 -2.42934 0
M  V30 46814 H 4581.16 0.840491 -1.16926 0
M  V30 46815 H 4583.11 3.96776 -1.41941 0
M  V30 46816 H 4581.83 3.23988 -0.412208 0
M  V30 46817 H 4580.49 2.70339 -2.47613 0
M  V30 46818 H 4580.14 4.86665 -1.27147 0
M  V30 46819 H 4579.84 5.04126 -3.01879 0
M  V30 46820 H 4581.36 5.65086 -2.31324 0
M  V30 46821 H 4582.78 4.11758 -3.98909 0
M  V30 46822 H 4581.17 3.74648 -4.68785 0
M  V30 46823 H 4582.24 2.41882 -4.20263 0
M  V30 46824 N 4583.59 1.28615 0.910818 0
M  V30 46825 C 4584.87 1.06638 1.63975 0
M  V30 46826 C 4585.25 -0.393278 2.07404 0
M  V30 46827 O 4584.59 -1.37993 1.82127 0
M  V30 46828 C 4584.8 2.0437 2.82902 0
M  V30 46829 C 4586.15 2.34678 3.53852 0
M  V30 46830 O 4587.18 2.02478 2.93055 0
M  V30 46831 O 4586.03 2.89647 4.63429 0
M  V30 46832 H 4583.13 0.407762 0.719485 0
M  V30 46833 H 4585.67 1.39945 0.959865 0
M  V30 46834 H 4584.45 3.02735 2.47926 0
M  V30 46835 H 4584.07 1.71726 3.58603 0
M  V30 46836 N 4585.07 -1.11967 1.10911 0
M  V30 46837 C 4586.01 -2.19924 0.757381 0
M  V30 46838 C 4587.01 -1.67565 -0.248688 0
M  V30 46839 O 4588.21 -1.79672 -0.108542 0
M  V30 46840 H 4584.59 -0.716917 0.227012 0
M  V30 46841 H 4586.56 -2.46841 1.67666 0
M  V30 46842 C 4585.31 -3.4706 0.210793 0
M  V30 46843 H 4584.63 -3.87699 0.976186 0
M  V30 46844 H 4586.07 -4.24 0.00280745 0
M  V30 46845 C 4584.53 -3.19868 -1.05766 0
M  V30 46846 O 4585.06 -3.40057 -2.13833 0
M  V30 46847 N 4583.27 -2.7364 -0.978253 0
M  V30 46848 H 4582.81 -2.57411 -0.0987341 0
M  V30 46849 H 4582.77 -2.55822 -1.82764 0
M  V30 46850 N 4586.54 -0.898595 -1.29472 0
M  V30 46851 C 4587.77 -0.538632 -2.00284 0
M  V30 46852 C 4588.19 0.869076 -1.66819 0
M  V30 46853 O 4587.55 1.57827 -0.8922 0
M  V30 46854 C 4587.6 -0.7366 -3.52997 0
M  V30 46855 O 4586.7 0.211392 -4.11858 0
M  V30 46856 H 4586.05 -0.210585 -0.629722 0
M  V30 46857 H 4588.58 -1.20988 -1.64994 0
M  V30 46858 H 4588.59 -0.640827 -4.02936 0
M  V30 46859 H 4587.26 -1.76289 -3.76689 0
M  V30 46860 H 4585.84 0.0681681 -3.72838 0
M  V30 46861 N 4588.02 1.4307 -0.660961 0
M  V30 46862 C 4589.3 1.95307 -0.107086 0
M  V30 46863 C 4589.68 1.60197 1.37478 0
M  V30 46864 O 4589.03 0.891023 2.10412 0
M  V30 46865 C 4589.24 3.47122 -0.361524 0
M  V30 46866 C 4590.59 4.23737 -0.270604 0
M  V30 46867 O 4591.61 3.5498 -0.294507 0
M  V30 46868 O 4590.47 5.46131 -0.200929 0
M  V30 46869 H 4587.56 0.826984 0.00514822 0
M  V30 46870 H 4590.11 1.5297 -0.734734 0
M  V30 46871 H 4588.88 3.65833 -1.38861 0
M  V30 46872 H 4588.5 3.96476 0.298813 0
M  V30 46873 N 4589.5 0.403378 1.5235 0
M  V30 46874 C 4590.41 -0.431928 2.3059 0
M  V30 46875 C 4591.43 -1.05879 1.38078 0
M  V30 46876 O 4592.6 -1.06155 1.71152 0
M  V30 46877 C 4589.67 -1.53659 3.10789 0
M  V30 46878 C 4588.73 -0.933377 4.1903 0
M  V30 46879 C 4587.96 -1.98539 4.95397 0
M  V30 46880 O 4588.18 -3.20266 4.72002 0
M  V30 46881 O 4587.12 -1.59483 5.80387 0
M  V30 46882 H 4590.94 0.205845 3.03002 0
M  V30 46883 H 4588.53 0.166728 1.48467 0
M  V30 46884 H 4590.41 -2.17801 3.6075 0
M  V30 46885 H 4589.09 -2.15906 2.41176 0
M  V30 46886 H 4587.99 -0.254822 3.73231 0
M  V30 46887 H 4589.33 -0.354907 4.90919 0
M  V30 46888 N 4590.98 -1.57033 0.133622 0
M  V30 46889 C 4591.93 -2.16077 -0.811132 0
M  V30 46890 C 4592.9 -1.08984 -1.25346 0
M  V30 46891 O 4594.08 -1.36962 -1.32838 0
M  V30 46892 C 4591.22 -2.77602 -2.05015 0
M  V30 46893 C 4590.33 -3.99048 -1.65484 0
M  V30 46894 C 4589.47 -4.48613 -2.84463 0
M  V30 46895 C 4588.51 -5.62555 -2.41242 0
M  V30 46896 N 4587.64 -6.06799 -3.53184 0
M  V30 46897 H 4592.48 -2.96478 -0.300802 0
M  V30 46898 H 4590.02 -1.46463 -0.136771 0
M  V30 46899 H 4591.98 -3.11411 -2.77631 0
M  V30 46900 H 4590.61 -1.99868 -2.53481 0
M  V30 46901 H 4589.66 -3.71305 -0.826851 0
M  V30 46902 H 4590.97 -4.81634 -1.29732 0
M  V30 46903 H 4590.13 -4.84408 -3.65286 0
M  V30 46904 H 4588.87 -3.65007 -3.23452 0
M  V30 46905 H 4587.87 -5.26351 -1.58856 0
M  V30 46906 H 4589.1 -6.47938 -2.03354 0
M  V30 46907 H 4587.04 -5.26131 -3.91819 0
M  V30 46908 H 4586.96 -6.84278 -3.21403 0
M  V30 46909 H 4588.23 -6.47235 -4.34404 0
M  V30 46910 N 4592.46 0.140167 -1.56975 0
M  V30 46911 C 4593.7 0.84994 -1.83359 0
M  V30 46912 C 4594.03 1.81396 -0.715574 0
M  V30 46913 O 4593.3 1.94137 0.262226 0
M  V30 46914 H 4591.88 0.316862 -0.676467 0
M  V30 46915 H 4594.54 0.132539 -1.94449 0
M  V30 46916 H 4593.63 1.40805 -2.78533 0
M  V30 46917 N 4593.93 1.52181 0.409726 0
M  V30 46918 C 4595.17 1.67887 1.16591 0
M  V30 46919 C 4595.54 0.399861 1.8779 0
M  V30 46920 O 4596.74 0.433014 2.65289 0
M  V30 46921 C 4595.01 2.86669 2.13438 0
M  V30 46922 S 4596.57 3.22854 2.97171 0
M  V30 46923 H 4593.39 0.591194 0.394982 0
M  V30 46924 H 4595.99 1.90172 0.453306 0
M  V30 46925 H 4594.69 3.78003 1.59817 0
M  V30 46926 H 4594.22 2.66655 2.89238 0
M  V30 46927 H 4596.24 2.7143 4.1538 0
M  V30 46928 N 4595.41 -0.666919 1.42793 0
M  V30 46929 C 4596.66 -1.42412 1.43399 0
M  V30 46930 C 4596.98 -1.94924 0.0543058 0
M  V30 46931 O 4596.25 -1.73568 -0.908354 0
M  V30 46932 H 4594.83 -0.528497 0.527921 0
M  V30 46933 H 4597.49 -0.7875 1.78282 0
M  V30 46934 H 4596.59 -2.27325 2.13845 0
M  V30 46935 N 4596.89 -1.29096 -0.903985 0
M  V30 46936 C 4598.14 -1.16193 -1.6487 0
M  V30 46937 C 4598.45 0.286673 -1.93488 0
M  V30 46938 O 4599.66 0.536968 -2.66137 0
M  V30 46939 C 4598.11 -2.03188 -2.97057 0
M  V30 46940 C 4597.72 -3.52846 -2.7605 0
M  V30 46941 C 4599.47 -1.98997 -3.74967 0
M  V30 46942 C 4597.37 -4.31959 -4.03937 0
M  V30 46943 H 4596.3 -0.431268 -0.618485 0
M  V30 46944 H 4598.95 -1.53703 -1.00238 0
M  V30 46945 H 4597.34 -1.58542 -3.62878 0
M  V30 46946 H 4598.51 -4.05514 -2.18849 0
M  V30 46947 H 4596.83 -3.58664 -2.11541 0
M  V30 46948 H 4599.42 -2.55367 -4.69778 0
M  V30 46949 H 4599.77 -0.968957 -4.04867 0
M  V30 46950 H 4600.3 -2.41663 -3.1598 0
M  V30 46951 H 4597.04 -5.3468 -3.79206 0
M  V30 46952 H 4596.56 -3.84061 -4.60714 0
M  V30 46953 H 4598.24 -4.42396 -4.72118 0
M  V30 46954 N 4598.37 1.11377 -1.11503 0
M  V30 46955 C 4599.32 2.19519 -0.769033 0
M  V30 46956 C 4600.31 1.67694 0.239798 0
M  V30 46957 O 4601.52 1.79727 0.0990123 0
M  V30 46958 H 4597.89 0.715703 -0.230811 0
M  V30 46959 H 4599.86 2.45949 -1.68973 0
M  V30 46960 C 4598.61 3.46944 -0.229195 0
M  V30 46961 H 4597.94 3.87176 -0.996733 0
M  V30 46962 H 4599.38 4.23992 -0.0252932 0
M  V30 46963 C 4597.83 3.20424 1.04068 0
M  V30 46964 O 4598.36 3.41186 2.12026 0
M  V30 46965 N 4596.57 2.74154 0.963727 0
M  V30 46966 H 4596.12 2.57459 0.0850816 0
M  V30 46967 H 4596.08 2.56787 1.81405 0
M  V30 46968 N 4599.85 0.905449 1.28994 0
M  V30 46969 C 4600.76 0.392327 2.31296 0
M  V30 46970 C 4601.77 -0.515831 1.66178 0
M  V30 46971 O 4602.95 -0.404024 1.97306 0
M  V30 46972 C 4600.01 -0.366739 3.44755 0
M  V30 46973 C 4599.08 0.573634 4.2545 0
M  V30 46974 C 4598.31 -0.149301 5.33491 0
M  V30 46975 O 4598.53 -1.37235 5.53645 0
M  V30 46976 O 4597.47 0.511129 5.99726 0
M  V30 46977 H 4601.29 1.2412 2.77178 0
M  V30 46978 H 4598.88 0.669973 1.33535 0
M  V30 46979 H 4600.76 -0.795761 4.13818 0
M  V30 46980 H 4599.43 -1.19158 3.0097 0
M  V30 46981 H 4598.34 1.05189 3.59007 0
M  V30 46982 H 4599.67 1.36505 4.72892 0
M  V30 46983 N 4601.33 -1.42718 0.668539 0
M  V30 46984 C 4602.57 -2.03496 0.192012 0
M  V30 46985 C 4602.93 -1.51688 -1.17707 0
M  V30 46986 O 4604.13 -2.04211 -1.74789 0
M  V30 46987 C 4602.4 -3.56734 0.218157 0
M  V30 46988 S 4603.96 -4.38396 -0.188284 0
M  V30 46989 H 4600.78 -0.706539 0.0795208 0
M  V30 46990 H 4603.38 -1.7456 0.880296 0
M  V30 46991 H 4602.08 -3.91939 1.21704 0
M  V30 46992 H 4601.62 -3.90334 -0.490166 0
M  V30 46993 H 4603.63 -4.7535 -1.42328 0
M  V30 46994 N 4602.8 -0.411452 -1.52134 0
M  V30 46995 C 4603.75 0.430297 -2.23903 0
M  V30 46996 C 4604.74 1.01156 -1.25125 0
M  V30 46997 O 4605.93 0.933991 -1.50352 0
M  V30 46998 C 4603.06 1.54516 -3.06561 0
M  V30 46999 C 4602.14 0.974555 -4.12751 0
M  V30 47000 N 4602.54 0.130814 -5.05631 0
M  V30 47001 C 4600.83 1.24482 -4.28276 0
M  V30 47002 C 4601.53 -0.186894 -5.814 0
M  V30 47003 N 4600.51 0.42285 -5.41953 0
M  V30 47004 H 4604.31 -0.220612 -2.93071 0
M  V30 47005 H 4601.83 -0.222009 -1.60875 0
M  V30 47006 H 4603.82 2.16081 -3.56532 0
M  V30 47007 H 4602.48 2.19867 -2.38933 0
M  V30 47008 H 4603.49 -0.233672 -5.17373 0
M  V30 47009 H 4600.17 1.89774 -3.71876 0
M  V30 47010 H 4601.56 -0.871907 -6.66219 0
M  V30 47011 N 4604.28 1.56959 -0.141948 0
M  V30 47012 C 4605.56 1.87555 0.555215 0
M  V30 47013 C 4605.94 1.04706 1.83303 0
M  V30 47014 O 4605.29 0.132426 2.28116 0
M  V30 47015 C 4605.5 3.39095 0.825545 0
M  V30 47016 C 4606.84 4.08204 1.16855 0
M  V30 47017 O 4607.87 3.44246 0.915064 0
M  V30 47018 O 4606.73 5.21144 1.64532 0
M  V30 47019 H 4603.82 0.777198 0.282651 0
M  V30 47020 H 4606.37 1.68762 -0.17818 0
M  V30 47021 H 4605.14 3.9122 -0.0790009 0
M  V30 47022 H 4604.76 3.63398 1.6133 0
M  V30 47023 N 4605.76 -0.13184 1.57048 0
M  V30 47024 C 4607.17 -0.690346 1.73468 0
M  V30 47025 C 4607.52 -1.80937 0.758692 0
M  V30 47026 O 4606.65 -2.16282 -0.0713053 0
M  V30 47027 C 4607.24 -1.25905 3.14537 0
M  V30 47028 C 4605.8 -1.76397 3.32507 0
M  V30 47029 C 4604.95 -0.658484 2.69368 0
M  V30 47030 H 4607.9 0.09397 1.58422 0
M  V30 47031 H 4607.92 -2.1288 3.15376 0
M  V30 47032 H 4607.43 -0.444379 3.85548 0
M  V30 47033 H 4605.53 -2.60382 2.66518 0
M  V30 47034 H 4605.65 -1.88225 4.40577 0
M  V30 47035 H 4604.01 -1.08891 2.3025 0
M  V30 47036 H 4604.79 0.144991 3.42994 0
M  V30 47037 N 4607.24 -1.52396 -0.40165 0
M  V30 47038 C 4608.46 -1.70976 -1.17397 0
M  V30 47039 C 4608.89 -0.421679 -1.83313 0
M  V30 47040 O 4608.25 0.621504 -1.70314 0
M  V30 47041 C 4608.29 -2.85159 -2.20718 0
M  V30 47042 O 4607.4 -2.5125 -3.27028 0
M  V30 47043 H 4606.74 -0.568939 -0.342352 0
M  V30 47044 H 4609.27 -1.99133 -0.469821 0
M  V30 47045 H 4609.28 -3.10288 -2.64925 0
M  V30 47046 H 4607.95 -3.7861 -1.72127 0
M  V30 47047 H 4606.53 -2.36818 -2.88048 0
M  V30 47048 N 4608.72 0.659337 -1.43145 0
M  V30 47049 C 4609.96 1.41513 -1.43726 0
M  V30 47050 C 4610.28 1.95499 -0.0628863 0
M  V30 47051 O 4611.48 2.71447 0.0538729 0
M  V30 47052 C 4609.94 2.56071 -2.52894 0
M  V30 47053 C 4609.55 2.08719 -3.96409 0
M  V30 47054 C 4611.29 3.33481 -2.62661 0
M  V30 47055 C 4609.2 3.20452 -4.97056 0
M  V30 47056 H 4608.13 0.531686 -0.534627 0
M  V30 47057 H 4610.78 0.712284 -1.69112 0
M  V30 47058 H 4609.16 3.28798 -2.20699 0
M  V30 47059 H 4610.34 1.43044 -4.38035 0
M  V30 47060 H 4608.65 1.44206 -3.90632 0
M  V30 47061 H 4611.25 4.16723 -3.35032 0
M  V30 47062 H 4611.59 3.81104 -1.67526 0
M  V30 47063 H 4612.12 2.67832 -2.94127 0
M  V30 47064 H 4608.86 2.77803 -5.93722 0
M  V30 47065 H 4608.38 3.84858 -4.60048 0
M  V30 47066 H 4610.06 3.85679 -5.19481 0
M  V30 47067 N 4610.19 1.29574 0.897126 0
M  V30 47068 C 4611.42 1.20711 1.68652 0
M  V30 47069 C 4611.84 -0.228517 1.86707 0
M  V30 47070 O 4611.2 -1.1649 1.38924 0
M  V30 47071 C 4611.25 1.92831 3.04711 0
M  V30 47072 O 4610.35 1.24711 3.93092 0
M  V30 47073 H 4609.69 0.418144 0.515802 0
M  V30 47074 H 4612.22 1.71187 1.12054 0
M  V30 47075 H 4612.23 2.01385 3.54836 0
M  V30 47076 H 4610.91 2.97249 2.90888 0
M  V30 47077 H 4609.49 1.24432 3.51527 0
M  V30 47078 N 4611.67 -1.10784 1.12092 0
M  V30 47079 C 4612.92 -1.82307 0.872269 0
M  V30 47080 C 4613.24 -1.85422 -0.603644 0
M  V30 47081 O 4612.51 -1.32968 -1.43862 0
M  V30 47082 H 4611.09 -0.675126 0.319709 0
M  V30 47083 H 4613.75 -1.34063 1.41468 0
M  V30 47084 H 4612.85 -2.8595 1.25055 0
M  V30 47085 N 4613.15 -0.912277 -1.28512 0
M  V30 47086 C 4614.39 -0.551746 -1.96812 0
M  V30 47087 C 4614.75 0.887765 -1.70243 0
M  V30 47088 O 4615.96 1.3558 -2.32102 0
M  V30 47089 C 4614.23 -0.850677 -3.47129 0
M  V30 47090 S 4615.79 -0.596343 -4.34729 0
M  V30 47091 H 4612.6 -0.204215 -0.681041 0
M  V30 47092 H 4615.21 -1.17741 -1.56068 0
M  V30 47093 H 4613.91 -1.89632 -3.63961 0
M  V30 47094 H 4613.44 -0.213609 -3.9282 0
M  V30 47095 H 4615.46 0.55298 -4.93109 0
M  V30 47096 N 4614.63 1.42361 -0.676098 0
M  V30 47097 C 4615.91 1.95182 -0.127795 0
M  V30 47098 C 4616.29 1.61646 1.35771 0
M  V30 47099 O 4615.63 0.91329 2.09455 0
M  V30 47100 C 4615.84 3.46719 -0.398321 0
M  V30 47101 C 4617.19 4.23426 -0.315532 0
M  V30 47102 O 4618.22 3.54648 -0.332141 0
M  V30 47103 O 4617.07 5.45887 -0.258842 0
M  V30 47104 H 4614.17 0.826992 -0.00362334 0
M  V30 47105 H 4616.71 1.52182 -0.750918 0
M  V30 47106 H 4615.49 3.64339 -1.42733 0
M  V30 47107 H 4615.11 3.9677 0.256745 0
M  V30 47108 N 4616.11 0.419515 1.51914 0
M  V30 47109 C 4617.06 -0.418417 2.24128 0
M  V30 47110 C 4618.04 -1.00491 1.2566 0
M  V30 47111 O 4619.23 -0.926005 1.50845 0
M  V30 47112 C 4616.36 -1.52888 3.07376 0
M  V30 47113 C 4615.45 -0.952652 4.13262 0
M  V30 47114 N 4615.84 -0.103997 5.05693 0
M  V30 47115 C 4614.14 -1.22209 4.2893 0
M  V30 47116 C 4614.84 0.217724 5.81292 0
M  V30 47117 N 4613.81 -0.394103 5.4217 0
M  V30 47118 H 4617.62 0.236151 2.9295 0
M  V30 47119 H 4615.13 0.230537 1.60755 0
M  V30 47120 H 4617.13 -2.14187 3.57673 0
M  V30 47121 H 4615.79 -2.18596 2.40095 0
M  V30 47122 H 4616.8 0.261106 5.17241 0
M  V30 47123 H 4613.47 -1.87799 3.72878 0
M  V30 47124 H 4614.86 0.907226 6.65747 0
M  V30 47125 N 4617.58 -1.56882 0.15027 0
M  V30 47126 C 4618.53 -2.18217 -0.805236 0
M  V30 47127 C 4619.53 -1.1401 -1.25292 0
M  V30 47128 O 4620.73 -1.32254 -1.22102 0
M  V30 47129 H 4617.11 -0.698772 -0.277889 0
M  V30 47130 H 4619.08 -2.97232 -0.263757 0
M  V30 47131 C 4617.83 -2.82072 -2.03299 0
M  V30 47132 H 4617.15 -3.61974 -1.6975 0
M  V30 47133 H 4618.59 -3.28486 -2.68091 0
M  V30 47134 C 4617.05 -1.80749 -2.84309 0
M  V30 47135 O 4617.58 -1.27996 -3.80762 0
M  V30 47136 N 4615.79 -1.49978 -2.48907 0
M  V30 47137 H 4615.33 -1.93068 -1.70535 0
M  V30 47138 H 4615.29 -0.824324 -3.03401 0
M  V30 47139 N 4619.06 0.12351 -1.57115 0
M  V30 47140 C 4620.3 0.838032 -1.86431 0
M  V30 47141 C 4620.67 1.77264 -0.737674 0
M  V30 47142 O 4621.87 2.52838 -0.912478 0
M  V30 47143 C 4620.14 1.57208 -3.20968 0
M  V30 47144 S 4621.7 2.3288 -3.71904 0
M  V30 47145 H 4618.52 0.279788 -0.653636 0
M  V30 47146 H 4621.12 0.0966348 -1.95261 0
M  V30 47147 H 4619.82 0.877381 -4.00912 0
M  V30 47148 H 4619.35 2.35394 -3.15204 0
M  V30 47149 H 4621.37 3.58518 -3.43045 0
M  V30 47150 N 4620.54 1.52607 0.393562 0
M  V30 47151 C 4621.77 1.71298 1.16037 0
M  V30 47152 C 4622.18 0.429324 1.83854 0
M  V30 47153 O 4621.54 -0.59586 1.72499 0
M  V30 47154 C 4621.59 2.85938 2.21183 0
M  V30 47155 O 4621.31 4.09334 1.56131 0
M  V30 47156 C 4622.81 3.1627 3.10625 0
M  V30 47157 H 4620.03 0.573654 0.348084 0
M  V30 47158 H 4622.58 1.99236 0.461022 0
M  V30 47159 H 4620.73 2.60475 2.8676 0
M  V30 47160 H 4621.15 4.7333 2.25961 0
M  V30 47161 H 4622.62 3.9996 3.80442 0
M  V30 47162 H 4623.1 2.30463 3.73876 0
M  V30 47163 H 4623.7 3.43556 2.50698 0
M  V30 47164 N 4622.02 -0.651737 1.43493 0
M  V30 47165 C 4623.3 -1.40905 1.35666 0
M  V30 47166 C 4623.68 -2.11099 0.00519155 0
M  V30 47167 O 4623.02 -2.04896 -1.01143 0
M  V30 47168 C 4623.23 -2.39251 2.54086 0
M  V30 47169 C 4624.58 -3.03207 2.97239 0
M  V30 47170 O 4625.61 -2.49579 2.54143 0
M  V30 47171 O 4624.46 -4.00441 3.71899 0
M  V30 47172 H 4621.56 -0.629607 0.536213 0
M  V30 47173 H 4624.1 -0.67852 1.55545 0
M  V30 47174 H 4622.88 -1.8634 3.44083 0
M  V30 47175 H 4622.5 -3.19752 2.36314 0
M  V30 47176 N 4623.5 -1.30048 -0.890242 0
M  V30 47177 C 4624.72 -1.21478 -1.67483 0
M  V30 47178 C 4625.14 0.223175 -1.87476 0
M  V30 47179 O 4624.5 1.14823 -1.41851 0
M  V30 47180 C 4624.55 -1.93405 -3.05412 0
M  V30 47181 O 4624.27 -3.31586 -2.86325 0
M  V30 47182 C 4625.77 -1.91428 -3.99838 0
M  V30 47183 H 4622.99 -0.420623 -0.522798 0
M  V30 47184 H 4625.53 -1.71584 -1.11262 0
M  V30 47185 H 4623.69 -1.47111 -3.58381 0
M  V30 47186 H 4624.1 -3.67943 -3.73789 0
M  V30 47187 H 4625.58 -2.46303 -4.94003 0
M  V30 47188 H 4626.05 -0.891984 -4.30047 0
M  V30 47189 H 4626.66 -2.37509 -3.52803 0
M  V30 47190 N 4624.97 1.10188 -1.12678 0
M  V30 47191 C 4625.9 2.18649 -0.819439 0
M  V30 47192 C 4626.89 1.68699 0.217856 0
M  V30 47193 O 4628.07 1.94041 0.0784899 0
M  V30 47194 C 4625.2 3.46201 -0.276062 0
M  V30 47195 C 4624.15 4.0944 -1.24671 0
M  V30 47196 C 4623.48 5.31723 -0.563445 0
M  V30 47197 C 4624.78 4.52853 -2.60233 0
M  V30 47198 H 4626.47 2.44616 -1.72637 0
M  V30 47199 H 4624.02 1.17568 -0.831493 0
M  V30 47200 H 4625.97 4.21372 -0.0487631 0
M  V30 47201 H 4624.7 3.19733 0.666219 0
M  V30 47202 H 4623.36 3.36279 -1.45986 0
M  V30 47203 H 4623 5.01532 0.384059 0
M  V30 47204 H 4622.7 5.74987 -1.21095 0
M  V30 47205 H 4624.23 6.09623 -0.345244 0
M  V30 47206 H 4625.64 5.19286 -2.42931 0
M  V30 47207 H 4624.04 5.06975 -3.21086 0
M  V30 47208 H 4625.11 3.65645 -3.18484 0
M  V30 47209 N 4626.45 0.919079 1.28026 0
M  V30 47210 C 4627.68 0.571041 1.98864 0
M  V30 47211 C 4628.1 -0.848936 1.68637 0
M  V30 47212 O 4627.45 -1.56304 0.942091 0
M  V30 47213 C 4627.5 0.777001 3.53051 0
M  V30 47214 O 4627.22 2.14111 3.82215 0
M  V30 47215 C 4628.73 0.436511 4.41146 0
M  V30 47216 H 4625.95 0.217197 0.634875 0
M  V30 47217 H 4628.49 1.23374 1.63092 0
M  V30 47218 H 4626.64 0.161221 3.87064 0
M  V30 47219 H 4627.06 2.18471 4.76834 0
M  V30 47220 H 4628.53 0.631363 5.48377 0
M  V30 47221 H 4629.01 -0.627534 4.34694 0
M  V30 47222 H 4629.62 1.03006 4.12638 0
M  V30 47223 N 4627.93 -1.42001 0.683638 0
M  V30 47224 C 4629.16 -2.06265 0.21672 0
M  V30 47225 C 4629.58 -1.51063 -1.12078 0
M  V30 47226 O 4628.94 -0.632698 -1.69902 0
M  V30 47227 C 4628.99 -3.6019 0.171885 0
M  V30 47228 O 4628.09 -4.03399 -0.856927 0
M  V30 47229 H 4627.43 -0.655016 0.108857 0
M  V30 47230 H 4629.96 -1.81979 0.935141 0
M  V30 47231 H 4629.97 -4.08 -0.00128686 0
M  V30 47232 H 4628.65 -3.99739 1.1481 0
M  V30 47233 H 4627.22 -3.67119 -0.654079 0
M  V30 47234 N 4629.41 -0.427565 -1.51689 0
M  V30 47235 C 4630.66 0.142158 -2.02 0
M  V30 47236 C 4630.98 1.43562 -1.31226 0
M  V30 47237 O 4630.24 1.91297 -0.412811 0
M  V30 47238 C 4630.54 0.418124 -3.54946 0
M  V30 47239 C 4630.2 -0.788343 -4.43955 0
M  V30 47240 C 4628.87 -1.11923 -4.68003 0
M  V30 47241 C 4631.22 -1.59364 -4.96238 0
M  V30 47242 C 4628.55 -2.25627 -5.41581 0
M  V30 47243 C 4630.9 -2.7216 -5.71062 0
M  V30 47244 C 4629.56 -3.05713 -5.93377 0
M  V30 47245 H 4628.83 0.0520192 -0.739172 0
M  V30 47246 H 4631.48 -0.572761 -1.82734 0
M  V30 47247 H 4629.78 1.21483 -3.72491 0
M  V30 47248 H 4631.48 0.872201 -3.914 0
M  V30 47249 H 4628.07 -0.520494 -4.25428 0
M  V30 47250 H 4632.26 -1.35123 -4.77552 0
M  V30 47251 H 4627.51 -2.51949 -5.57074 0
M  V30 47252 H 4631.69 -3.34935 -6.10566 0
M  V30 47253 H 4629.31 -3.93933 -6.5017 0
M  V30 47254 N 4630.89 1.568 -0.158588 0
M  V30 47255 C 4632.12 2.0057 0.495513 0
M  V30 47256 C 4632.53 1.0378 1.58197 0
M  V30 47257 O 4631.87 0.0286442 1.83678 0
M  V30 47258 C 4631.93 3.40772 1.1452 0
M  V30 47259 C 4631.59 4.56554 0.201941 0
M  V30 47260 C 4632.59 5.16712 -0.574857 0
M  V30 47261 C 4630.28 5.02197 0.101472 0
M  V30 47262 C 4632.27 6.20934 -1.43945 0
M  V30 47263 C 4629.96 6.06271 -0.766721 0
M  V30 47264 C 4630.96 6.65509 -1.53578 0
M  V30 47265 O 4630.64 7.67567 -2.38949 0
M  V30 47266 H 4630.38 0.662898 0.132447 0
M  V30 47267 H 4632.93 2.03828 -0.253631 0
M  V30 47268 H 4631.16 3.34387 1.94221 0
M  V30 47269 H 4632.85 3.68576 1.7002 0
M  V30 47270 H 4633.61 4.82339 -0.507337 0
M  V30 47271 H 4629.49 4.55809 0.689834 0
M  V30 47272 H 4633.04 6.671 -2.04019 0
M  V30 47273 H 4628.93 6.4007 -0.835491 0
M  V30 47274 H 4629.7 7.84836 -2.32324 0
M  V30 47275 N 4632.37 -0.115176 1.57179 0
M  V30 47276 C 4633.61 -0.828133 1.86872 0
M  V30 47277 C 4633.97 -1.7687 0.747064 0
M  V30 47278 O 4635.17 -2.52351 0.925874 0
M  V30 47279 C 4633.44 -1.55504 3.21797 0
M  V30 47280 S 4635 -2.30904 3.73134 0
M  V30 47281 H 4631.82 -0.276317 0.65511 0
M  V30 47282 H 4634.42 -0.0862782 1.9531 0
M  V30 47283 H 4633.12 -0.856107 4.01371 0
M  V30 47284 H 4632.66 -2.33719 3.16447 0
M  V30 47285 H 4634.67 -3.56693 3.44941 0
M  V30 47286 N 4633.84 -1.52813 -0.385464 0
M  V30 47287 C 4635.07 -1.72211 -1.15577 0
M  V30 47288 C 4635.49 -0.441098 -1.82855 0
M  V30 47289 O 4634.85 0.603405 -1.70964 0
M  V30 47290 C 4634.9 -2.87484 -2.17682 0
M  V30 47291 O 4634 -2.54704 -3.24345 0
M  V30 47292 H 4633.34 -0.572538 -0.336298 0
M  V30 47293 H 4635.87 -1.9962 -0.448674 0
M  V30 47294 H 4635.88 -3.13081 -2.61619 0
M  V30 47295 H 4634.56 -3.80414 -1.68101 0
M  V30 47296 H 4633.14 -2.3986 -2.8552 0
M  V30 47297 N 4635.32 0.644118 -1.43836 0
M  V30 47298 C 4636.56 1.4156 -1.47446 0
M  V30 47299 C 4636.93 1.91743 -0.0993397 0
M  V30 47300 O 4638.13 2.68798 -0.0101137 0
M  V30 47301 C 4636.4 2.55893 -2.49507 0
M  V30 47302 S 4637.96 3.44278 -2.72063 0
M  V30 47303 H 4634.77 0.4831 -0.521666 0
M  V30 47304 H 4637.38 0.746944 -1.80668 0
M  V30 47305 H 4636.08 2.17315 -3.48141 0
M  V30 47306 H 4635.61 3.27599 -2.17813 0
M  V30 47307 H 4637.63 4.5292 -2.02676 0
M  V30 47308 N 4636.8 1.30518 0.883332 0
M  V30 47309 C 4638.22 1.08885 1.16688 0
M  V30 47310 C 4638.42 -0.149338 2.00946 0
M  V30 47311 O 4637.47 -0.842486 2.3803 0
M  V30 47312 C 4638.78 2.35325 1.87196 0
M  V30 47313 C 4640.33 2.40806 1.99954 0
M  V30 47314 C 4640.81 3.67092 2.73874 0
M  V30 47315 N 4642.3 3.6791 2.81419 0
M  V30 47316 C 4643.03 4.62315 3.39194 0
M  V30 47317 N 4642.53 5.67066 3.98005 0
M  V30 47318 N 4644.32 4.49857 3.37024 0
M  V30 47319 H 4636.47 2.09952 0.321559 0
M  V30 47320 H 4638.74 0.925567 0.20501 0
M  V30 47321 H 4638.44 3.25693 1.32728 0
M  V30 47322 H 4638.32 2.44099 2.87568 0
M  V30 47323 H 4640.7 1.50916 2.53591 0
M  V30 47324 H 4640.78 2.36006 0.986647 0
M  V30 47325 H 4640.43 4.57342 2.20909 0
M  V30 47326 H 4640.36 3.69154 3.75543 0
M  V30 47327 H 4642.85 2.9218 2.39665 0
M  V30 47328 H 4643.16 6.352 4.4016 0
M  V30 47329 H 4641.51 5.70856 3.96419 0
M  V30 47330 H 4644.7 3.67204 2.90308 0
M  V30 47331 H 4644.87 5.2361 3.81754 0
M  V30 47332 N 4638.28 -1.09589 1.13261 0
M  V30 47333 C 4639.69 -1.63225 0.906331 0
M  V30 47334 C 4640.04 -1.88112 -0.557512 0
M  V30 47335 O 4639.16 -1.62958 -1.42386 0
M  V30 47336 C 4639.76 -2.9653 1.63877 0
M  V30 47337 C 4638.32 -3.46998 1.4584 0
M  V30 47338 C 4637.47 -2.21444 1.66906 0
M  V30 47339 H 4640.42 -0.929734 1.28614 0
M  V30 47340 H 4640.44 -3.64407 1.09488 0
M  V30 47341 H 4639.95 -2.78385 2.70414 0
M  V30 47342 H 4638.05 -3.70271 0.415978 0
M  V30 47343 H 4638.16 -4.24544 2.22035 0
M  V30 47344 H 4636.53 -2.30018 1.09379 0
M  V30 47345 H 4637.31 -2.05821 2.74759 0
M  V30 47346 N 4639.76 -0.925856 -1.27537 0
M  V30 47347 C 4641 -0.564206 -1.94065 0
M  V30 47348 C 4641.32 0.897127 -1.73138 0
M  V30 47349 O 4640.59 1.6357 -1.07804 0
M  V30 47350 H 4639.17 -0.20567 -0.718129 0
M  V30 47351 H 4641.84 -1.17785 -1.55283 0
M  V30 47352 H 4640.93 -0.768916 -3.0248 0
M  V30 47353 N 4641.23 1.41636 -0.691159 0
M  V30 47354 C 4642.46 2.05329 -0.22883 0
M  V30 47355 C 4642.87 1.52093 1.12535 0
M  V30 47356 O 4642.21 0.662205 1.71349 0
M  V30 47357 C 4642.28 3.59349 -0.104197 0
M  V30 47358 C 4641.94 4.35357 -1.38971 0
M  V30 47359 C 4642.94 4.64934 -2.32665 0
M  V30 47360 C 4640.62 4.74709 -1.64186 0
M  V30 47361 C 4642.62 5.32816 -3.49837 0
M  V30 47362 C 4640.3 5.42328 -2.81644 0
M  V30 47363 C 4641.3 5.71309 -3.74293 0
M  V30 47364 O 4640.99 6.37537 -4.89695 0
M  V30 47365 H 4640.72 0.667792 -0.105021 0
M  V30 47366 H 4643.28 1.82474 -0.943002 0
M  V30 47367 H 4641.51 3.80927 0.665705 0
M  V30 47368 H 4643.19 4.04634 0.320377 0
M  V30 47369 H 4643.96 4.35018 -2.1444 0
M  V30 47370 H 4639.84 4.51535 -0.929361 0
M  V30 47371 H 4643.38 5.55353 -4.22171 0
M  V30 47372 H 4639.28 5.71662 -2.99788 0
M  V30 47373 H 4640.05 6.56032 -4.89453 0
M  V30 47374 N 4642.71 0.435603 1.5146 0
M  V30 47375 C 4643.66 -0.376717 2.27705 0
M  V30 47376 C 4644.63 -1.01833 1.31222 0
M  V30 47377 O 4645.81 -1.03757 1.60122 0
M  V30 47378 C 4642.95 -1.4729 3.12089 0
M  V30 47379 C 4642.07 -0.849595 4.23563 0
M  V30 47380 C 4641.2 -1.92068 4.95261 0
M  V30 47381 C 4640.24 -1.27572 5.98658 0
M  V30 47382 N 4639.38 -2.28809 6.6377 0
M  V30 47383 H 4644.22 0.279839 2.96683 0
M  V30 47384 H 4641.76 0.149847 1.46335 0
M  V30 47385 H 4643.71 -2.11972 3.59338 0
M  V30 47386 H 4642.34 -2.09911 2.45229 0
M  V30 47387 H 4641.4 -0.0911192 3.80291 0
M  V30 47388 H 4642.71 -0.338703 4.97649 0
M  V30 47389 H 4641.86 -2.64416 5.46049 0
M  V30 47390 H 4640.6 -2.4653 4.20802 0
M  V30 47391 H 4639.61 -0.5377 5.47164 0
M  V30 47392 H 4640.83 -0.738456 6.75073 0
M  V30 47393 H 4638.78 -2.82354 5.92125 0
M  V30 47394 H 4638.69 -1.82607 7.33615 0
M  V30 47395 H 4639.96 -3.00646 7.19189 0
M  V30 47396 N 4644.19 -1.56714 0.166901 0
M  V30 47397 C 4645.12 -2.20757 -0.760835 0
M  V30 47398 C 4646.1 -1.16183 -1.2424 0
M  V30 47399 O 4647.29 -1.44596 -1.29636 0
M  V30 47400 C 4644.42 -2.84485 -1.99213 0
M  V30 47401 C 4643.37 -3.95059 -1.64658 0
M  V30 47402 C 4642.7 -4.45816 -2.95216 0
M  V30 47403 C 4644 -5.14868 -0.877974 0
M  V30 47404 H 4645.69 -2.98538 -0.227025 0
M  V30 47405 H 4643.24 -1.43596 -0.107754 0
M  V30 47406 H 4645.19 -3.27961 -2.64613 0
M  V30 47407 H 4643.91 -2.04065 -2.55 0
M  V30 47408 H 4642.57 -3.52232 -1.01629 0
M  V30 47409 H 4642.22 -3.62193 -3.49035 0
M  V30 47410 H 4641.92 -5.20409 -2.72852 0
M  V30 47411 H 4643.44 -4.91975 -3.61653 0
M  V30 47412 H 4644.86 -5.55064 -1.43447 0
M  V30 47413 H 4643.26 -5.9535 -0.753528 0
M  V30 47414 H 4644.33 -4.84735 0.126547 0
M  V30 47415 N 4645.67 0.106839 -1.57237 0
M  V30 47416 C 4646.6 1.16119 -1.96448 0
M  V30 47417 C 4647.58 1.39467 -0.83592 0
M  V30 47418 O 4648.76 1.53421 -1.09518 0
M  V30 47419 C 4645.89 2.51269 -2.27116 0
M  V30 47420 C 4644.94 2.44273 -3.49618 0
M  V30 47421 S 4645.77 1.8706 -5.01766 0
M  V30 47422 C 4646.93 3.23858 -5.35599 0
M  V30 47423 H 4647.16 0.82687 -2.8557 0
M  V30 47424 H 4644.69 0.314071 -1.51172 0
M  V30 47425 H 4646.65 3.29026 -2.45462 0
M  V30 47426 H 4645.31 2.81874 -1.38586 0
M  V30 47427 H 4644.5 3.43857 -3.68481 0
M  V30 47428 H 4644.11 1.74641 -3.30721 0
M  V30 47429 H 4646.4 4.20103 -5.31526 0
M  V30 47430 H 4647.34 3.09811 -6.36728 0
M  V30 47431 H 4647.75 3.22848 -4.63065 0
M  V30 47432 N 4647.15 1.53016 0.377354 0
M  V30 47433 C 4648.37 1.72822 1.14662 0
M  V30 47434 C 4648.8 0.450789 1.82618 0
M  V30 47435 O 4648.15 -0.59433 1.71282 0
M  V30 47436 C 4648.2 2.88634 2.16154 0
M  V30 47437 O 4647.31 2.56421 3.22989 0
M  V30 47438 H 4646.65 0.574313 0.333257 0
M  V30 47439 H 4649.18 1.99855 0.438081 0
M  V30 47440 H 4649.19 3.14464 2.59955 0
M  V30 47441 H 4647.86 3.813 1.66082 0
M  V30 47442 H 4646.44 2.4137 2.84244 0
M  V30 47443 N 4648.62 -0.636481 1.44176 0
M  V30 47444 C 4649.9 -1.39458 1.37153 0
M  V30 47445 C 4650.28 -2.11082 0.0275812 0
M  V30 47446 O 4649.63 -2.05957 -0.989644 0
M  V30 47447 C 4649.84 -2.36543 2.56609 0
M  V30 47448 C 4651.19 -3.00037 3.00438 0
M  V30 47449 O 4652.21 -2.46869 2.56776 0
M  V30 47450 O 4651.07 -3.96474 3.76125 0
M  V30 47451 H 4648.16 -0.623884 0.542861 0
M  V30 47452 H 4650.71 -0.661985 1.56256 0
M  V30 47453 H 4649.48 -1.8268 3.4604 0
M  V30 47454 H 4649.11 -3.17228 2.39692 0
M  V30 47455 N 4650.1 -1.30985 -0.876398 0
M  V30 47456 C 4651.05 -1.18092 -1.983 0
M  V30 47457 C 4652.02 -0.0682846 -1.6596 0
M  V30 47458 O 4653.2 -0.240004 -1.89285 0
M  V30 47459 C 4650.34 -0.887592 -3.3349 0
M  V30 47460 C 4649.46 -2.08294 -3.78467 0
M  V30 47461 C 4648.59 -1.72695 -5.02344 0
M  V30 47462 C 4647.63 -2.88676 -5.39752 0
M  V30 47463 N 4646.77 -2.53315 -6.5481 0
M  V30 47464 H 4651.61 -2.12757 -2.08659 0
M  V30 47465 H 4649.15 -1.05843 -1.02156 0
M  V30 47466 H 4651.1 -0.698106 -4.11318 0
M  V30 47467 H 4649.73 0.0222015 -3.22792 0
M  V30 47468 H 4648.79 -2.38341 -2.96476 0
M  V30 47469 H 4650.1 -2.95122 -4.02125 0
M  V30 47470 H 4649.25 -1.50172 -5.87821 0
M  V30 47471 H 4647.99 -0.830496 -4.80577 0
M  V30 47472 H 4647 -3.11856 -4.52798 0
M  V30 47473 H 4648.22 -3.79021 -5.63489 0
M  V30 47474 H 4646.17 -1.66185 -6.34601 0
M  V30 47475 H 4646.08 -3.33674 -6.78379 0
M  V30 47476 H 4647.35 -2.34169 -7.43495 0
M  V30 47477 N 4651.58 1.08987 -1.13841 0
M  V30 47478 C 4653 1.33309 -0.877552 0
M  V30 47479 C 4653.2 1.95589 0.484491 0
M  V30 47480 O 4652.25 2.20513 1.23005 0
M  V30 47481 C 4653.57 2.24038 -2.00568 0
M  V30 47482 C 4655.11 2.37535 -2.03829 0
M  V30 47483 C 4655.59 3.31603 -3.15917 0
M  V30 47484 N 4657.08 3.39178 -3.15457 0
M  V30 47485 C 4657.81 4.11978 -3.98826 0
M  V30 47486 N 4657.31 4.87536 -4.9222 0
M  V30 47487 N 4659.1 4.07748 -3.86908 0
M  V30 47488 H 4651.25 0.669385 -2.01576 0
M  V30 47489 H 4653.52 0.357451 -0.878028 0
M  V30 47490 H 4653.22 1.85511 -2.98795 0
M  V30 47491 H 4653.1 3.24459 -1.9237 0
M  V30 47492 H 4655.48 2.75324 -1.06211 0
M  V30 47493 H 4655.57 1.36877 -2.16098 0
M  V30 47494 H 4655.21 2.94536 -4.13776 0
M  V30 47495 H 4655.14 4.32175 -3.00885 0
M  V30 47496 H 4657.63 2.85306 -2.47809 0
M  V30 47497 H 4657.94 5.4053 -5.52311 0
M  V30 47498 H 4656.29 4.86609 -4.96222 0
M  V30 47499 H 4659.48 3.47822 -3.13269 0
M  V30 47500 H 4659.65 4.64222 -4.52108 0
M  V30 47501 N 4653.06 0.932607 1.27044 0
M  V30 47502 C 4654.29 0.592101 1.98247 0
M  V30 47503 C 4654.7 -0.831002 1.69528 0
M  V30 47504 O 4654.06 -1.55296 0.958616 0
M  V30 47505 C 4654.11 0.814403 3.52207 0
M  V30 47506 O 4653.83 2.18152 3.79922 0
M  V30 47507 C 4655.33 0.483275 4.40658 0
M  V30 47508 H 4652.55 0.223918 0.632536 0
M  V30 47509 H 4655.1 1.25097 1.61774 0
M  V30 47510 H 4653.25 0.202266 3.86872 0
M  V30 47511 H 4653.66 2.23517 4.7449 0
M  V30 47512 H 4655.14 0.689491 5.47677 0
M  V30 47513 H 4655.62 -0.581393 4.35335 0
M  V30 47514 H 4656.22 1.07377 4.11522 0
M  V30 47515 N 4654.54 -1.41267 0.698661 0
M  V30 47516 C 4655.78 -2.03043 0.235133 0
M  V30 47517 C 4656.14 -1.5415 -1.14463 0
M  V30 47518 O 4657.34 -2.07873 -1.70418 0
M  V30 47519 C 4655.61 -3.56191 0.293777 0
M  V30 47520 S 4657.17 -4.38697 -0.095251 0
M  V30 47521 H 4653.99 -0.704693 0.0944896 0
M  V30 47522 H 4656.59 -1.72653 0.917125 0
M  V30 47523 H 4655.3 -3.89269 1.2999 0
M  V30 47524 H 4654.83 -3.91286 -0.40726 0
M  V30 47525 H 4656.84 -4.78262 -1.32213 0
M  V30 47526 N 4656.01 -0.44363 -1.51227 0
M  V30 47527 C 4657.26 0.120904 -2.02439 0
M  V30 47528 C 4657.59 1.4181 -1.32679 0
M  V30 47529 O 4656.87 1.89372 -0.443689 0
M  V30 47530 C 4657.15 0.333165 -3.58555 0
M  V30 47531 C 4657 -0.983122 -4.38925 0
M  V30 47532 C 4658.32 1.10013 -4.26128 0
M  V30 47533 H 4655.44 0.0424664 -0.735776 0
M  V30 47534 H 4658.08 -0.583857 -1.80807 0
M  V30 47535 H 4656.23 0.933481 -3.77119 0
M  V30 47536 H 4657.91 -1.6179 -4.31997 0
M  V30 47537 H 4656.15 -1.58626 -4.03758 0
M  V30 47538 H 4656.82 -0.788571 -5.46338 0
M  V30 47539 H 4659.3 0.591566 -4.11873 0
M  V30 47540 H 4658.17 1.21742 -5.35229 0
M  V30 47541 H 4658.43 2.12982 -3.87416 0
M  V30 47542 N 4657.49 1.56623 -0.175209 0
M  V30 47543 C 4658.77 1.8869 0.515307 0
M  V30 47544 C 4659.15 1.0857 1.81041 0
M  V30 47545 O 4658.5 0.180783 2.27784 0
M  V30 47546 C 4658.71 3.4077 0.753432 0
M  V30 47547 C 4660.06 4.1059 1.0817 0
M  V30 47548 O 4661.08 3.46109 0.841839 0
M  V30 47549 O 4659.94 5.24517 1.53441 0
M  V30 47550 H 4657.03 0.783019 0.266102 0
M  V30 47551 H 4659.58 1.68346 -0.213936 0
M  V30 47552 H 4658.35 3.90965 -0.161967 0
M  V30 47553 H 4657.97 3.66739 1.53585 0
M  V30 47554 N 4658.97 -0.0984986 1.57292 0
M  V30 47555 C 4660.22 -0.801293 1.851 0
M  V30 47556 C 4660.53 -1.80064 0.763965 0
M  V30 47557 O 4661.74 -2.55109 0.929071 0
M  V30 47558 C 4660.2 -1.47587 3.28247 0
M  V30 47559 C 4659.8 -0.516468 4.45013 0
M  V30 47560 C 4661.55 -2.16259 3.65284 0
M  V30 47561 C 4659.45 -1.19544 5.79192 0
M  V30 47562 H 4658.38 -0.302997 0.690441 0
M  V30 47563 H 4661.04 -0.0541978 1.8342 0
M  V30 47564 H 4659.42 -2.27031 3.24458 0
M  V30 47565 H 4660.59 0.246227 4.60142 0
M  V30 47566 H 4658.91 0.0643733 4.1635 0
M  V30 47567 H 4661.5 -2.67786 4.62812 0
M  V30 47568 H 4661.85 -2.94998 2.93737 0
M  V30 47569 H 4662.38 -1.4368 3.70946 0
M  V30 47570 H 4659.12 -0.448927 6.53961 0
M  V30 47571 H 4658.64 -1.92964 5.67913 0
M  V30 47572 H 4660.32 -1.72288 6.23639 0
M  V30 47573 N 4660.45 -1.53214 -0.369234 0
M  V30 47574 C 4661.73 -1.59819 -1.12771 0
M  V30 47575 C 4662.11 -0.403474 -2.07208 0
M  V30 47576 O 4661.45 0.60659 -2.20301 0
M  V30 47577 C 4661.66 -2.94671 -1.87003 0
M  V30 47578 C 4663.01 -3.49118 -2.41665 0
M  V30 47579 O 4664.04 -2.96676 -1.97134 0
M  V30 47580 O 4662.9 -4.40786 -3.23063 0
M  V30 47581 H 4659.99 -0.645395 -0.517102 0
M  V30 47582 H 4662.54 -1.65555 -0.372792 0
M  V30 47583 H 4661.31 -3.73066 -1.18058 0
M  V30 47584 H 4660.93 -2.9241 -2.69411 0
M  V30 47585 N 4661.93 0.628826 -1.44511 0
M  V30 47586 C 4662.84 1.76934 -1.5405 0
M  V30 47587 C 4663.85 1.68703 -0.426046 0
M  V30 47588 O 4665.03 1.89439 -0.683722 0
M  V30 47589 C 4662.09 3.13327 -1.48416 0
M  V30 47590 C 4661.16 3.33172 -2.70731 0
M  V30 47591 C 4660.39 4.63057 -2.65356 0
M  V30 47592 O 4660.61 5.44011 -1.71488 0
M  V30 47593 O 4659.55 4.85154 -3.56243 0
M  V30 47594 H 4663.37 1.71839 -2.50409 0
M  V30 47595 H 4660.96 0.790333 -1.26784 0
M  V30 47596 H 4662.84 3.94629 -1.47805 0
M  V30 47597 H 4661.51 3.18959 -0.552011 0
M  V30 47598 H 4660.42 2.5154 -2.76909 0
M  V30 47599 H 4661.75 3.32403 -3.63 0
M  V30 47600 N 4663.41 1.31448 0.869439 0
M  V30 47601 C 4664.65 1.22464 1.63652 0
M  V30 47602 C 4665.01 -0.213779 1.90806 0
M  V30 47603 O 4666.21 -0.427118 2.65385 0
M  V30 47604 C 4664.48 2.04574 2.9306 0
M  V30 47605 S 4666.04 2.12458 3.83936 0
M  V30 47606 H 4662.86 0.436165 0.561499 0
M  V30 47607 H 4665.46 1.66117 1.03079 0
M  V30 47608 H 4664.16 3.0817 2.71034 0
M  V30 47609 H 4663.7 1.61642 3.58658 0
M  V30 47610 H 4665.71 1.26328 4.7985 0
M  V30 47611 N 4664.88 -1.08381 1.14417 0
M  V30 47612 C 4666.11 -1.84514 0.936066 0
M  V30 47613 C 4666.53 -1.81628 -0.515439 0
M  V30 47614 O 4665.88 -1.22013 -1.35717 0
M  V30 47615 C 4665.93 -3.32044 1.4293 0
M  V30 47616 O 4665.66 -3.34941 2.82393 0
M  V30 47617 C 4667.16 -4.24981 1.26118 0
M  V30 47618 H 4664.38 -0.582479 0.333105 0
M  V30 47619 H 4666.92 -1.36879 1.51935 0
M  V30 47620 H 4665.08 -3.77067 0.888773 0
M  V30 47621 H 4665.49 -4.27037 3.04532 0
M  V30 47622 H 4666.96 -5.26609 1.65489 0
M  V30 47623 H 4667.44 -4.38726 0.204074 0
M  V30 47624 H 4668.05 -3.85785 1.79026 0
M  V30 47625 N 4666.36 -0.939331 -1.26548 0
M  V30 47626 C 4667.27 -0.453513 -2.30175 0
M  V30 47627 C 4668.29 0.471591 -1.67487 0
M  V30 47628 O 4669.46 0.35157 -1.98308 0
M  V30 47629 C 4666.53 0.275205 -3.45606 0
M  V30 47630 C 4665.59 -0.686233 -4.2378 0
M  V30 47631 C 4664.82 0.00780232 -5.33699 0
M  V30 47632 O 4665.05 1.22508 -5.57089 0
M  V30 47633 O 4663.98 -0.669956 -5.9816 0
M  V30 47634 H 4667.81 -1.31425 -2.7379 0
M  V30 47635 H 4665.39 -0.705142 -1.31712 0
M  V30 47636 H 4667.27 0.685765 -4.15783 0
M  V30 47637 H 4665.95 1.11136 -3.04024 0
M  V30 47638 H 4664.85 -1.1467 -3.56092 0
M  V30 47639 H 4666.19 -1.48995 -4.69107 0
M  V30 47640 N 4667.84 1.40895 -0.706143 0
M  V30 47641 C 4668.77 2.282 0.00320759 0
M  V30 47642 C 4669.75 1.42819 0.77727 0
M  V30 47643 O 4670.93 1.7224 0.765883 0
M  V30 47644 C 4668.06 3.2323 1.01194 0
M  V30 47645 C 4667.11 4.25223 0.329805 0
M  V30 47646 S 4667.94 5.27266 -0.935483 0
M  V30 47647 C 4669.1 6.25859 0.0713861 0
M  V30 47648 H 4669.33 2.88014 -0.737244 0
M  V30 47649 H 4666.86 1.46189 -0.496807 0
M  V30 47650 H 4668.82 3.78509 1.58875 0
M  V30 47651 H 4667.48 2.62491 1.72503 0
M  V30 47652 H 4666.67 4.92027 1.09203 0
M  V30 47653 H 4666.28 3.73594 -0.1742 0
M  V30 47654 H 4668.57 6.71207 0.921285 0
M  V30 47655 H 4669.51 7.05858 -0.563013 0
M  V30 47656 H 4669.92 5.62853 0.43089 0
M  V30 47657 N 4669.32 0.451643 1.5099 0
M  V30 47658 C 4670.73 -0.00812007 1.86698 0
M  V30 47659 C 4671.08 -1.40656 1.36785 0
M  V30 47660 O 4670.2 -2.03907 0.724617 0
M  V30 47661 C 4670.8 -0.0215112 3.38793 0
M  V30 47662 C 4669.36 -0.425734 3.73985 0
M  V30 47663 C 4668.51 0.372259 2.7479 0
M  V30 47664 H 4671.46 0.666836 1.4401 0
M  V30 47665 H 4671.48 -0.827947 3.71383 0
M  V30 47666 H 4670.99 0.99642 3.75091 0
M  V30 47667 H 4669.09 -1.44874 3.43282 0
M  V30 47668 H 4669.2 -0.140592 4.78894 0
M  V30 47669 H 4667.57 -0.171409 2.54123 0
M  V30 47670 H 4668.35 1.38934 3.13931 0
M  V30 47671 N 4670.8 -1.56528 0.183513 0
M  V30 47672 C 4672.04 -1.97246 -0.458288 0
M  V30 47673 C 4672.37 -1.06998 -1.62425 0
M  V30 47674 O 4671.63 -0.10661 -1.95409 0
M  V30 47675 C 4671.92 -3.43942 -0.971516 0
M  V30 47676 C 4671.59 -4.50829 0.0798369 0
M  V30 47677 C 4670.25 -4.79785 0.368752 0
M  V30 47678 C 4672.6 -5.15135 0.792819 0
M  V30 47679 C 4669.93 -5.7034 1.37583 0
M  V30 47680 C 4672.28 -6.06777 1.78896 0
M  V30 47681 C 4670.95 -6.34094 2.0852 0
M  V30 47682 H 4670.22 -0.721774 -0.167699 0
M  V30 47683 H 4672.87 -1.89471 0.278043 0
M  V30 47684 H 4671.17 -3.4873 -1.7859 0
M  V30 47685 H 4672.87 -3.72796 -1.4773 0
M  V30 47686 H 4669.46 -4.28318 -0.155517 0
M  V30 47687 H 4673.64 -4.92866 0.582832 0
M  V30 47688 H 4668.9 -5.89783 1.61138 0
M  V30 47689 H 4673.07 -6.55669 2.34673 0
M  V30 47690 H 4670.7 -7.04064 2.86702 0
M  V30 47691 N 4672.27 0.0901557 -1.57342 0
M  V30 47692 C 4673.52 0.793916 -1.86614 0
M  V30 47693 C 4673.85 1.78139 -0.773315 0
M  V30 47694 O 4673.13 1.93272 0.218236 0
M  V30 47695 C 4673.41 1.51827 -3.26528 0
M  V30 47696 C 4673.26 0.548452 -4.46444 0
M  V30 47697 C 4674.58 2.46766 -3.6441 0
M  V30 47698 H 4671.7 0.287162 -0.678754 0
M  V30 47699 H 4674.34 0.0574408 -1.89913 0
M  V30 47700 H 4672.49 2.14606 -3.23846 0
M  V30 47701 H 4674.17 -0.0727134 -4.61243 0
M  V30 47702 H 4672.41 -0.137766 -4.33581 0
M  V30 47703 H 4673.08 1.09252 -5.4108 0
M  V30 47704 H 4675.56 1.94076 -3.68067 0
M  V30 47705 H 4674.43 2.94463 -4.63231 0
M  V30 47706 H 4674.69 3.30747 -2.93357 0
M  V30 47707 N 4673.75 1.53407 0.361103 0
M  V30 47708 C 4674.99 1.71511 1.11191 0
M  V30 47709 C 4675.36 0.459402 1.86423 0
M  V30 47710 O 4676.56 0.517194 2.63777 0
M  V30 47711 C 4674.83 2.93314 2.04209 0
M  V30 47712 S 4676.39 3.32145 2.8675 0
M  V30 47713 H 4673.21 0.603461 0.375973 0
M  V30 47714 H 4675.81 1.91518 0.392575 0
M  V30 47715 H 4674.51 3.82897 1.4771 0
M  V30 47716 H 4674.04 2.75722 2.80608 0
M  V30 47717 H 4676.06 2.84507 4.06534 0
M  V30 47718 N 4675.23 -0.621153 1.44843 0
M  V30 47719 C 4676.46 -1.41239 1.51876 0
M  V30 47720 C 4676.88 -1.87518 0.14783 0
M  V30 47721 O 4676.24 -1.59337 -0.864944 0
M  V30 47722 C 4676.29 -2.60212 2.49644 0
M  V30 47723 O 4675.39 -3.60387 2.00486 0
M  V30 47724 H 4674.73 -0.422212 0.512477 0
M  V30 47725 H 4677.26 -0.757238 1.90071 0
M  V30 47726 H 4677.27 -3.0763 2.68007 0
M  V30 47727 H 4675.95 -2.25875 3.49218 0
M  V30 47728 H 4674.52 -3.19711 1.91936 0
M  V30 47729 N 4676.71 -1.31907 -0.862456 0
M  V30 47730 C 4677.64 -1.16012 -1.97671 0
M  V30 47731 C 4678.65 -0.0971805 -1.6251 0
M  V30 47732 O 4679.84 -0.345398 -1.75126 0
M  V30 47733 C 4676.94 -0.751907 -3.30454 0
M  V30 47734 C 4676.12 -1.90147 -3.93907 0
M  V30 47735 C 4675.17 -1.47808 -5.05014 0
M  V30 47736 O 4674.2 -2.1889 -5.25429 0
M  V30 47737 N 4675.4 -0.369695 -5.79322 0
M  V30 47738 H 4678.17 -2.1199 -2.1185 0
M  V30 47739 H 4675.73 -1.24341 -1.03687 0
M  V30 47740 H 4677.72 -0.451226 -4.02177 0
M  V30 47741 H 4676.29 0.116483 -3.12383 0
M  V30 47742 H 4675.51 -2.36907 -3.15069 0
M  V30 47743 H 4676.8 -2.67126 -4.33037 0
M  V30 47744 H 4676.2 0.222101 -5.65264 0
M  V30 47745 H 4674.75 -0.128583 -6.51673 0
M  V30 47746 N 4678.19 1.07773 -1.1499 0
M  V30 47747 C 4679.13 2.14864 -0.842747 0
M  V30 47748 C 4680.1 1.64861 0.202494 0
M  V30 47749 O 4681.29 1.90668 0.0709898 0
M  V30 47750 C 4678.43 3.43485 -0.333484 0
M  V30 47751 C 4677.54 4.07301 -1.43979 0
M  V30 47752 C 4676.68 5.2374 -0.887098 0
M  V30 47753 C 4675.72 5.7951 -1.97064 0
M  V30 47754 N 4674.85 6.87286 -1.43464 0
M  V30 47755 H 4679.69 2.40478 -1.75995 0
M  V30 47756 H 4677.23 1.18007 -0.878221 0
M  V30 47757 H 4679.19 4.17195 -0.019963 0
M  V30 47758 H 4677.82 3.18135 0.546805 0
M  V30 47759 H 4676.87 3.31287 -1.86958 0
M  V30 47760 H 4678.18 4.44763 -2.25804 0
M  V30 47761 H 4677.34 6.04417 -0.525864 0
M  V30 47762 H 4676.07 4.87685 -0.0379671 0
M  V30 47763 H 4675.08 4.97483 -2.34075 0
M  V30 47764 H 4676.3 6.17622 -2.82347 0
M  V30 47765 H 4674.25 6.53178 -0.607797 0
M  V30 47766 H 4674.17 7.23609 -2.1892 0
M  V30 47767 H 4675.44 7.71678 -1.10151 0
M  V30 47768 N 4679.66 0.946029 1.26048 0
M  V30 47769 C 4680.9 0.603733 1.9528 0
M  V30 47770 C 4681.27 -0.842316 1.72537 0
M  V30 47771 O 4682.47 -1.29379 2.35615 0
M  V30 47772 C 4680.74 0.942413 3.44751 0
M  V30 47773 S 4682.3 0.711394 4.32995 0
M  V30 47774 H 4679.12 0.222199 0.675388 0
M  V30 47775 H 4681.72 1.21838 1.52892 0
M  V30 47776 H 4680.42 1.99216 3.58805 0
M  V30 47777 H 4679.95 0.317684 3.92115 0
M  V30 47778 H 4681.97 -0.422047 4.94402 0
M  V30 47779 N 4681.14 -1.40518 0.713605 0
M  V30 47780 C 4682.05 -2.34521 0.0607491 0
M  V30 47781 C 4683.07 -1.57196 -0.746015 0
M  V30 47782 O 4684.24 -1.89594 -0.679426 0
M  V30 47783 C 4681.31 -3.36084 -0.851373 0
M  V30 47784 C 4680.37 -4.29286 -0.0347829 0
M  V30 47785 C 4679.6 -5.25997 -0.903464 0
M  V30 47786 O 4679.83 -5.28624 -2.14273 0
M  V30 47787 O 4678.76 -6.00919 -0.343512 0
M  V30 47788 H 4682.59 -2.91965 0.836074 0
M  V30 47789 H 4680.17 -1.41679 0.47407 0
M  V30 47790 H 4682.05 -3.98374 -1.3739 0
M  V30 47791 H 4680.73 -2.81057 -1.60588 0
M  V30 47792 H 4679.64 -3.70287 0.532763 0
M  V30 47793 H 4680.97 -4.8746 0.681458 0
M  V30 47794 N 4682.62 -0.459644 -1.50748 0
M  V30 47795 C 4683.57 0.354597 -2.29881 0
M  V30 47796 C 4684.56 1.00081 -1.36675 0
M  V30 47797 O 4685.77 0.933223 -1.53919 0
M  V30 47798 H 4682.14 0.133184 -0.740112 0
M  V30 47799 H 4684.11 -0.333373 -2.96532 0
M  V30 47800 C 4682.86 1.43062 -3.16905 0
M  V30 47801 H 4682.19 0.942745 -3.88526 0
M  V30 47802 H 4683.63 1.97314 -3.75291 0
M  V30 47803 C 4682.09 2.42625 -2.33741 0
M  V30 47804 O 4682.62 3.47651 -2.0125 0
M  V30 47805 N 4680.82 2.14059 -1.96538 0
M  V30 47806 H 4680.37 1.28677 -2.23159 0
M  V30 47807 H 4680.33 2.80912 -1.41195 0
M  V30 47808 N 4684.1 1.56428 -0.191812 0
M  V30 47809 C 4685.34 1.97779 0.448485 0
M  V30 47810 C 4685.68 1.07853 1.61498 0
M  V30 47811 O 4684.95 0.129842 1.94066 0
M  V30 47812 C 4685.24 3.48365 0.911784 0
M  V30 47813 C 4685.09 4.49069 -0.256294 0
M  V30 47814 C 4686.41 4.02567 1.77842 0
M  V30 47815 H 4683.53 0.719077 0.161547 0
M  V30 47816 H 4686.17 1.87895 -0.282073 0
M  V30 47817 H 4684.32 3.5692 1.5343 0
M  V30 47818 H 4685.99 4.52556 -0.893892 0
M  V30 47819 H 4684.23 4.24178 -0.908585 0
M  V30 47820 H 4684.9 5.5189 0.110336 0
M  V30 47821 H 4687.38 3.96772 1.25345 0
M  V30 47822 H 4686.26 5.08308 2.07156 0
M  V30 47823 H 4686.52 3.47626 2.73146 0
M  V30 47824 N 4685.58 -0.0818102 1.57388 0
M  V30 47825 C 4686.83 -0.781616 1.8594 0
M  V30 47826 C 4687.14 -1.79243 0.78302 0
M  V30 47827 O 4688.34 -2.54109 0.956076 0
M  V30 47828 C 4686.8 -1.44097 3.29794 0
M  V30 47829 C 4686.41 -0.469239 4.45536 0
M  V30 47830 C 4688.15 -2.12373 3.67557 0
M  V30 47831 C 4686.06 -1.13394 5.80427 0
M  V30 47832 H 4684.99 -0.295657 0.693616 0
M  V30 47833 H 4687.64 -0.0347406 1.83467 0
M  V30 47834 H 4686.02 -2.23577 3.26848 0
M  V30 47835 H 4687.2 0.295017 4.59855 0
M  V30 47836 H 4685.51 0.108529 4.16259 0
M  V30 47837 H 4688.11 -2.62862 4.65626 0
M  V30 47838 H 4688.45 -2.91866 2.9685 0
M  V30 47839 H 4688.98 -1.39737 3.72449 0
M  V30 47840 H 4685.72 -0.379541 6.544 0
M  V30 47841 H 4685.24 -1.8693 5.69927 0
M  V30 47842 H 4686.92 -1.65664 6.25431 0
M  V30 47843 N 4687.06 -1.53597 -0.352963 0
M  V30 47844 C 4688.3 -1.70052 -1.09209 0
M  V30 47845 C 4688.62 -0.461473 -1.89461 0
M  V30 47846 O 4687.89 0.524567 -1.88746 0
M  V30 47847 H 4686.47 -0.626927 -0.406167 0
M  V30 47848 H 4689.14 -1.90824 -0.396518 0
M  V30 47849 H 4688.23 -2.56725 -1.77479 0
M  V30 47850 N 4688.53 0.613463 -1.4517 0
M  V30 47851 C 4689.76 1.40431 -1.52623 0
M  V30 47852 C 4690.18 1.87437 -0.157773 0
M  V30 47853 O 4689.54 1.59794 0.856481 0
M  V30 47854 C 4689.59 2.58885 -2.5102 0
M  V30 47855 O 4688.69 3.59319 -2.02394 0
M  V30 47856 H 4688.03 0.419488 -0.514709 0
M  V30 47857 H 4690.56 0.747148 -1.9047 0
M  V30 47858 H 4690.57 3.06205 -2.69634 0
M  V30 47859 H 4689.25 2.2402 -3.50411 0
M  V30 47860 H 4687.83 3.18688 -1.93629 0
M  V30 47861 N 4690.01 1.32363 0.855449 0
M  V30 47862 C 4691.24 1.25694 1.63965 0
M  V30 47863 C 4691.65 -0.177526 1.88365 0
M  V30 47864 O 4690.99 -1.1248 1.45238 0
M  V30 47865 C 4691.05 1.94612 3.02269 0
M  V30 47866 C 4690.72 3.43947 3.00914 0
M  V30 47867 C 4691.72 4.39445 2.7782 0
M  V30 47868 C 4689.4 3.85869 3.21575 0
M  V30 47869 C 4691.39 5.74839 2.75389 0
M  V30 47870 C 4689.08 5.21372 3.1877 0
M  V30 47871 C 4690.08 6.15668 2.95706 0
M  V30 47872 O 4689.77 7.48691 2.92773 0
M  V30 47873 H 4689.5 0.43499 0.517455 0
M  V30 47874 H 4692.05 1.75026 1.07494 0
M  V30 47875 H 4690.28 1.39848 3.60527 0
M  V30 47876 H 4691.97 1.81664 3.62978 0
M  V30 47877 H 4692.74 4.08384 2.61625 0
M  V30 47878 H 4688.62 3.12895 3.38553 0
M  V30 47879 H 4692.16 6.48413 2.57305 0
M  V30 47880 H 4688.06 5.52064 3.34509 0
M  V30 47881 H 4688.83 7.58041 3.08733 0
M  V30 47882 N 4691.49 -1.07162 1.1556 0
M  V30 47883 C 4692.74 -1.79177 0.926195 0
M  V30 47884 C 4693.05 -1.8777 -0.547901 0
M  V30 47885 O 4694.26 -2.56326 -0.894946 0
M  V30 47886 C 4692.71 -3.21994 1.60772 0
M  V30 47887 C 4692.32 -3.21596 3.11897 0
M  V30 47888 C 4694.07 -3.98605 1.45994 0
M  V30 47889 C 4691.97 -4.59079 3.72828 0
M  V30 47890 H 4690.9 -0.671528 0.342879 0
M  V30 47891 H 4693.55 -1.20265 1.38595 0
M  V30 47892 H 4691.94 -3.81111 1.07566 0
M  V30 47893 H 4693.11 -2.72113 3.71875 0
M  V30 47894 H 4691.42 -2.58483 3.26459 0
M  V30 47895 H 4694.02 -5.00219 1.88906 0
M  V30 47896 H 4694.36 -4.14299 0.407687 0
M  V30 47897 H 4694.9 -3.45989 1.96307 0
M  V30 47898 H 4691.64 -4.4859 4.77962 0
M  V30 47899 H 4691.16 -5.08792 3.17633 0
M  V30 47900 H 4692.84 -5.28046 3.73867 0
M  V30 47901 N 4692.97 -0.9527 -1.25544 0
M  V30 47902 C 4694.21 -0.614081 -1.94957 0
M  V30 47903 C 4694.57 0.833154 -1.72981 0
M  V30 47904 O 4695.77 1.28127 -2.36298 0
M  V30 47905 C 4694.04 -0.960683 -3.44246 0
M  V30 47906 S 4695.6 -0.734347 -4.32612 0
M  V30 47907 H 4692.42 -0.225778 -0.6742 0
M  V30 47908 H 4695.02 -1.22647 -1.52243 0
M  V30 47909 H 4693.73 -2.01116 -3.57744 0
M  V30 47910 H 4693.26 -0.338474 -3.91941 0
M  V30 47911 H 4695.27 0.395821 -4.94619 0
M  V30 47912 N 4694.45 1.40138 -0.721047 0
M  V30 47913 C 4695.39 2.30688 -0.0720001 0
M  V30 47914 C 4696.36 1.48479 0.744532 0
M  V30 47915 O 4697.55 1.77203 0.70736 0
M  V30 47916 C 4694.69 3.34727 0.839737 0
M  V30 47917 C 4693.8 4.31998 0.012092 0
M  V30 47918 C 4692.94 5.23105 0.923811 0
M  V30 47919 C 4691.97 6.12033 0.0905818 0
M  V30 47920 N 4691.11 6.95541 0.957473 0
M  V30 47921 H 4695.95 2.85625 -0.849856 0
M  V30 47922 H 4693.49 1.40651 -0.430775 0
M  V30 47923 H 4695.45 3.93623 1.38265 0
M  V30 47924 H 4694.08 2.8128 1.58372 0
M  V30 47925 H 4693.13 3.74839 -0.648072 0
M  V30 47926 H 4694.44 4.9477 -0.632769 0
M  V30 47927 H 4693.59 5.86959 1.53506 0
M  V30 47928 H 4692.33 4.60621 1.60248 0
M  V30 47929 H 4691.34 5.47205 -0.53357 0
M  V30 47930 H 4692.56 6.76579 -0.584666 0
M  V30 47931 H 4690.51 6.35639 1.62169 0
M  V30 47932 H 4690.43 7.551 0.368775 0
M  V30 47933 H 4691.69 7.63838 1.55473 0
M  V30 47934 N 4695.92 0.467632 1.50502 0
M  V30 47935 C 4697.16 -0.0873396 2.04213 0
M  V30 47936 C 4697.53 -1.37296 1.34216 0
M  V30 47937 O 4698.73 -2.01009 1.78463 0
M  V30 47938 C 4697 -0.270446 3.56375 0
M  V30 47939 S 4698.56 -0.784471 4.31731 0
M  V30 47940 H 4695.38 -0.0175903 0.710782 0
M  V30 47941 H 4697.98 0.63398 1.84935 0
M  V30 47942 H 4696.68 0.671085 4.04876 0
M  V30 47943 H 4696.21 -1.01798 3.80001 0
M  V30 47944 H 4698.23 -2.05833 4.51495 0
M  V30 47945 N 4697.4 -1.56324 0.200105 0
M  V30 47946 C 4698.36 -2.18086 -0.705056 0
M  V30 47947 C 4699.36 -1.1367 -1.13736 0
M  V30 47948 O 4700.55 -1.39026 -1.04963 0
M  V30 47949 C 4697.69 -2.78696 -1.96319 0
M  V30 47950 H 4698.88 -2.99435 -0.166917 0
M  V30 47951 H 4696.43 -1.56222 -0.0495176 0
M  V30 47952 H 4697.17 -2.01159 -2.54373 0
M  V30 47953 H 4696.95 -3.55139 -1.6619 0
M  V30 47954 H 4698.44 -3.26105 -2.60855 0
M  V30 47955 N 4698.88 0.0734624 -1.57429 0
M  V30 47956 C 4700.29 0.625489 -1.75911 0
M  V30 47957 C 4700.64 1.77997 -0.825323 0
M  V30 47958 O 4699.77 2.16398 -0.00901572 0
M  V30 47959 C 4700.36 1.14144 -3.18993 0
M  V30 47960 C 4698.92 1.63935 -3.38825 0
M  V30 47961 C 4698.07 0.558056 -2.71627 0
M  V30 47962 H 4701.02 -0.152702 -1.57964 0
M  V30 47963 H 4701.04 2.01029 -3.2306 0
M  V30 47964 H 4700.55 0.30098 -3.86931 0
M  V30 47965 H 4698.65 2.50311 -2.75998 0
M  V30 47966 H 4698.77 1.71744 -4.47259 0
M  V30 47967 H 4697.13 1.0027 -2.34132 0
M  V30 47968 H 4697.91 -0.272191 -3.42219 0
M  V30 47969 N 4700.36 1.53782 0.344812 0
M  V30 47970 C 4701.61 1.70629 1.08305 0
M  V30 47971 C 4701.93 0.471514 1.89213 0
M  V30 47972 O 4701.2 -0.51455 1.89022 0
M  V30 47973 H 4699.78 0.629072 0.402837 0
M  V30 47974 H 4702.44 1.91031 0.386392 0
M  V30 47975 H 4701.53 2.57662 1.76115 0
M  V30 47976 N 4701.84 -0.605756 1.45494 0
M  V30 47977 C 4703.07 -1.38929 1.52913 0
M  V30 47978 C 4703.47 -1.88512 0.161152 0
M  V30 47979 O 4702.82 -1.62965 -0.847834 0
M  V30 47980 C 4702.88 -2.62729 2.45385 0
M  V30 47981 C 4702.54 -2.34771 3.92086 0
M  V30 47982 C 4703.54 -1.95021 4.81937 0
M  V30 47983 C 4701.23 -2.47626 4.3702 0
M  V30 47984 C 4703.22 -1.68489 6.14728 0
M  V30 47985 C 4700.91 -2.20708 5.69852 0
M  V30 47986 C 4701.9 -1.81201 6.58525 0
M  V30 47987 O 4701.59 -1.54599 7.88894 0
M  V30 47988 H 4701.32 -0.43161 0.520277 0
M  V30 47989 H 4703.88 -0.745663 1.91387 0
M  V30 47990 H 4702.11 -3.29817 2.01885 0
M  V30 47991 H 4703.8 -3.24774 2.43468 0
M  V30 47992 H 4704.56 -1.84623 4.48485 0
M  V30 47993 H 4700.44 -2.77343 3.68242 0
M  V30 47994 H 4703.99 -1.37578 6.83899 0
M  V30 47995 H 4699.88 -2.30723 6.02858 0
M  V30 47996 H 4700.65 -1.68637 8.00939 0
M  V30 47997 N 4703.31 -1.32814 -0.848417 0
M  V30 47998 C 4704.24 -1.24888 -1.97295 0
M  V30 47999 C 4705.23 -0.131416 -1.69592 0
M  V30 48000 O 4706.41 -0.31962 -1.91552 0
M  V30 48001 C 4703.54 -0.977577 -3.33258 0
M  V30 48002 C 4702.49 -2.05695 -3.75331 0
M  V30 48003 C 4701.82 -1.63795 -5.08995 0
M  V30 48004 C 4703.12 -3.47268 -3.90131 0
M  V30 48005 H 4704.81 -2.18974 -2.04184 0
M  V30 48006 H 4702.36 -1.05416 -0.980992 0
M  V30 48007 H 4704.31 -0.908658 -4.11487 0
M  V30 48008 H 4703.04 -0.00109483 -3.266 0
M  V30 48009 H 4701.7 -2.11613 -2.99358 0
M  V30 48010 H 4701.34 -0.648744 -4.98799 0
M  V30 48011 H 4701.04 -2.36019 -5.38116 0
M  V30 48012 H 4702.57 -1.58351 -5.8971 0
M  V30 48013 H 4703.98 -3.43904 -4.58697 0
M  V30 48014 H 4702.38 -4.17895 -4.30678 0
M  V30 48015 H 4703.45 -3.86472 -2.9286 0
M  V30 48016 N 4704.79 1.06547 -1.16127 0
M  V30 48017 C 4706.21 1.31417 -0.905632 0
M  V30 48018 C 4706.41 1.96572 0.442895 0
M  V30 48019 O 4705.46 2.23073 1.183 0
M  V30 48020 C 4706.78 2.19733 -2.05275 0
M  V30 48021 C 4708.33 2.33158 -2.08822 0
M  V30 48022 C 4708.8 3.24827 -3.2288 0
M  V30 48023 N 4710.29 3.3241 -3.2258 0
M  V30 48024 C 4711.03 4.03425 -4.07475 0
M  V30 48025 N 4710.52 4.76986 -5.0245 0
M  V30 48026 N 4712.32 3.9945 -3.9547 0
M  V30 48027 H 4704.47 0.626477 -2.02951 0
M  V30 48028 H 4706.73 0.338746 -0.885412 0
M  V30 48029 H 4706.44 1.79131 -3.02663 0
M  V30 48030 H 4706.31 3.20306 -1.99209 0
M  V30 48031 H 4708.7 2.73009 -1.12028 0
M  V30 48032 H 4708.78 1.32262 -2.18953 0
M  V30 48033 H 4708.42 2.85693 -4.19931 0
M  V30 48034 H 4708.35 4.25696 -3.09985 0
M  V30 48035 H 4710.84 2.79985 -2.53805 0
M  V30 48036 H 4711.16 5.28693 -5.63652 0
M  V30 48037 H 4709.5 4.75974 -5.06432 0
M  V30 48038 H 4712.69 3.41099 -3.20576 0
M  V30 48039 H 4712.86 4.54528 -4.61853 0
M  V30 48040 N 4706.27 0.959345 1.25037 0
M  V30 48041 C 4707.18 0.490075 2.29424 0
M  V30 48042 C 4708.2 -0.444885 1.68216 0
M  V30 48043 O 4709.37 -0.319976 1.98842 0
M  V30 48044 C 4706.44 -0.220187 3.46 0
M  V30 48045 C 4705.5 0.753566 4.22634 0
M  V30 48046 C 4704.73 0.0771056 5.33644 0
M  V30 48047 O 4704.95 -1.1363 5.58967 0
M  V30 48048 O 4703.89 0.765034 5.97018 0
M  V30 48049 H 4707.71 1.35765 2.71665 0
M  V30 48050 H 4705.3 0.726007 1.30574 0
M  V30 48051 H 4707.18 -0.619531 4.16821 0
M  V30 48052 H 4705.86 -1.06286 3.05753 0
M  V30 48053 H 4704.76 1.20321 3.54223 0
M  V30 48054 H 4706.1 1.5644 4.66677 0
M  V30 48055 N 4707.75 -1.39754 0.728469 0
M  V30 48056 C 4709.16 -1.83497 0.344353 0
M  V30 48057 C 4709.51 -1.60872 -1.12315 0
M  V30 48058 O 4708.64 -1.0964 -1.86569 0
M  V30 48059 C 4709.23 -3.33112 0.618229 0
M  V30 48060 C 4707.79 -3.75299 0.287681 0
M  V30 48061 C 4706.94 -2.62827 0.88414 0
M  V30 48062 H 4709.89 -1.28839 0.926623 0
M  V30 48063 H 4709.91 -3.80334 -0.112215 0
M  V30 48064 H 4709.42 -3.49547 1.68637 0
M  V30 48065 H 4707.52 -3.64453 -0.774884 0
M  V30 48066 H 4707.63 -4.72942 0.765678 0
M  V30 48067 H 4706 -2.52791 0.311238 0
M  V30 48068 H 4706.78 -2.82071 1.95681 0
M  V30 48069 N 4709.23 -0.475607 -1.50252 0
M  V30 48070 C 4710.5 0.139617 -1.95101 0
M  V30 48071 C 4710.88 1.5655 -1.41617 0
M  V30 48072 O 4710.23 2.19954 -0.61907 0
M  V30 48073 C 4710.44 0.0783072 -3.48912 0
M  V30 48074 C 4711.79 0.264946 -4.23773 0
M  V30 48075 O 4712.81 0.154683 -3.55864 0
M  V30 48076 O 4711.67 0.488135 -5.44316 0
M  V30 48077 H 4708.77 0.109208 -0.819758 0
M  V30 48078 H 4711.31 -0.536333 -1.61002 0
M  V30 48079 H 4710.08 -0.917052 -3.80402 0
M  V30 48080 H 4709.71 0.795518 -3.8956 0
M  V30 48081 N 4710.7 1.56216 -0.208392 0
M  V30 48082 C 4711.95 1.97559 0.426007 0
M  V30 48083 C 4712.27 1.09689 1.61225 0
M  V30 48084 O 4711.54 0.171024 1.95152 0
M  V30 48085 H 4710.12 0.72958 0.16038 0
M  V30 48086 H 4712.79 1.92605 -0.298223 0
M  V30 48087 H 4711.88 3.02675 0.761205 0
M  V30 48088 N 4712.18 -0.0651125 1.57465 0
M  V30 48089 C 4713.13 -1.07668 2.04148 0
M  V30 48090 C 4714.1 -1.38068 0.923383 0
M  V30 48091 O 4715.28 -1.49022 1.19151 0
M  V30 48092 C 4712.42 -2.38328 2.49587 0
M  V30 48093 C 4711.54 -2.144 3.75042 0
M  V30 48094 C 4710.67 -3.38672 4.09237 0
M  V30 48095 C 4709.71 -3.10137 5.27713 0
M  V30 48096 N 4708.85 -4.26758 5.57514 0
M  V30 48097 H 4713.69 -0.671614 2.90333 0
M  V30 48098 H 4711.23 -0.320049 1.43576 0
M  V30 48099 H 4713.18 -3.14623 2.73986 0
M  V30 48100 H 4711.81 -2.76624 1.6637 0
M  V30 48101 H 4710.87 -1.28767 3.57943 0
M  V30 48102 H 4712.18 -1.89327 4.61472 0
M  V30 48103 H 4711.33 -4.23358 4.34573 0
M  V30 48104 H 4710.07 -3.66826 3.21387 0
M  V30 48105 H 4709.08 -2.23849 5.02167 0
M  V30 48106 H 4710.3 -2.83299 6.17186 0
M  V30 48107 H 4708.25 -4.54932 4.72624 0
M  V30 48108 H 4708.16 -4.04983 6.38377 0
M  V30 48109 H 4709.43 -5.12422 5.87404 0
M  V30 48110 N 4713.66 -1.53962 -0.336652 0
M  V30 48111 C 4714.89 -1.75487 -1.09599 0
M  V30 48112 C 4715.3 -0.497264 -1.82134 0
M  V30 48113 O 4714.66 0.531428 -1.74591 0
M  V30 48114 C 4714.71 -2.9395 -2.10418 0
M  V30 48115 O 4714.43 -4.14847 -1.40831 0
M  V30 48116 C 4715.93 -3.27581 -2.98673 0
M  V30 48117 H 4713.15 -0.586177 -0.326554 0
M  V30 48118 H 4715.7 -2.00809 -0.38676 0
M  V30 48119 H 4713.85 -2.70939 -2.76895 0
M  V30 48120 H 4714.27 -4.81391 -2.08238 0
M  V30 48121 H 4715.74 -4.13804 -3.65336 0
M  V30 48122 H 4716.22 -2.44181 -3.65065 0
M  V30 48123 H 4716.82 -3.52623 -2.37775 0
M  V30 48124 N 4715.14 0.598031 -1.45813 0
M  V30 48125 C 4716.38 1.36797 -1.51875 0
M  V30 48126 C 4716.74 1.9133 -0.160291 0
M  V30 48127 O 4717.94 2.6863 -0.0956247 0
M  V30 48128 C 4716.21 2.47826 -2.57521 0
M  V30 48129 S 4717.77 3.35448 -2.82878 0
M  V30 48130 H 4714.59 0.466259 -0.536771 0
M  V30 48131 H 4717.19 0.689088 -1.82953 0
M  V30 48132 H 4715.9 2.06129 -3.54879 0
M  V30 48133 H 4715.43 3.20504 -2.28125 0
M  V30 48134 H 4717.44 4.46243 -2.16983 0
M  V30 48135 N 4716.62 1.33262 0.841362 0
M  V30 48136 C 4718.03 1.12542 1.13165 0
M  V30 48137 C 4718.23 -0.0853329 2.01319 0
M  V30 48138 O 4717.29 -0.766332 2.4059 0
M  V30 48139 C 4718.6 2.41162 1.79615 0
M  V30 48140 C 4720.15 2.47045 1.92192 0
M  V30 48141 C 4720.63 3.7562 2.62057 0
M  V30 48142 N 4722.12 3.76677 2.69572 0
M  V30 48143 C 4722.85 4.72872 3.24314 0
M  V30 48144 N 4722.35 5.79441 3.79762 0
M  V30 48145 N 4724.14 4.60351 3.22542 0
M  V30 48146 H 4716.29 2.10869 0.254602 0
M  V30 48147 H 4718.55 0.931621 0.17546 0
M  V30 48148 H 4718.26 3.29751 1.223 0
M  V30 48149 H 4718.13 2.53124 2.79657 0
M  V30 48150 H 4720.52 1.58907 2.48662 0
M  V30 48151 H 4720.6 2.39026 0.911064 0
M  V30 48152 H 4720.25 4.64139 2.06247 0
M  V30 48153 H 4720.18 3.80915 3.63609 0
M  V30 48154 H 4722.67 2.99656 2.30249 0
M  V30 48155 H 4722.98 6.48882 4.19729 0
M  V30 48156 H 4721.33 5.83179 3.78057 0
M  V30 48157 H 4724.52 3.76254 2.78479 0
M  V30 48158 H 4724.69 5.35491 3.64902 0
M  V30 48159 N 4718.1 -1.0593 1.1669 0
M  V30 48160 C 4719.03 -2.13465 0.834578 0
M  V30 48161 C 4720.04 -1.62014 -0.159783 0
M  V30 48162 O 4721.23 -1.7838 0.0654855 0
M  V30 48163 C 4718.33 -3.38169 0.22248 0
M  V30 48164 C 4717.5 -4.18923 1.25786 0
M  V30 48165 C 4716.56 -5.21982 0.664886 0
M  V30 48166 O 4715.59 -5.5333 1.33472 0
M  V30 48167 N 4716.79 -5.77921 -0.546631 0
M  V30 48168 H 4719.55 -2.42572 1.76008 0
M  V30 48169 H 4717.12 -1.21963 1.06474 0
M  V30 48170 H 4719.11 -4.04266 -0.18733 0
M  V30 48171 H 4717.68 -3.06657 -0.60665 0
M  V30 48172 H 4716.9 -3.48427 1.8437 0
M  V30 48173 H 4718.19 -4.6968 1.95647 0
M  V30 48174 H 4717.58 -5.54725 -1.10893 0
M  V30 48175 H 4716.14 -6.45576 -0.898602 0
M  V30 48176 N 4719.57 -0.965962 -1.24527 0
M  V30 48177 C 4720.52 -0.486586 -2.27454 0
M  V30 48178 C 4721.52 0.448983 -1.63342 0
M  V30 48179 O 4722.72 0.324465 -1.77051 0
M  V30 48180 H 4719.1 -0.138883 -0.739064 0
M  V30 48181 H 4721.07 -1.36669 -2.65262 0
M  V30 48182 C 4719.82 0.209359 -3.47069 0
M  V30 48183 H 4719.14 -0.501429 -3.96643 0
M  V30 48184 H 4720.58 0.508627 -4.20938 0
M  V30 48185 C 4719.04 1.43575 -3.04775 0
M  V30 48186 O 4719.57 2.53288 -3.11782 0
M  V30 48187 N 4717.77 1.30117 -2.59842 0
M  V30 48188 H 4717.32 0.408493 -2.54341 0
M  V30 48189 H 4717.28 2.12286 -2.3191 0
M  V30 48190 N 4721.05 1.39365 -0.73587 0
M  V30 48191 C 4722.28 2.05318 -0.293124 0
M  V30 48192 C 4722.7 1.55119 1.06394 0
M  V30 48193 O 4722.06 0.69532 1.67437 0
M  V30 48194 C 4722.11 3.59304 -0.305449 0
M  V30 48195 O 4721.21 4.06301 0.706618 0
M  V30 48196 H 4720.55 0.650525 -0.133092 0
M  V30 48197 H 4723.08 1.78383 -1.00204 0
M  V30 48198 H 4723.09 4.07724 -0.150141 0
M  V30 48199 H 4721.77 3.95203 -1.29567 0
M  V30 48200 H 4720.34 3.69293 0.517375 0
M  V30 48201 N 4722.53 0.483569 1.49998 0
M  V30 48202 C 4723.48 -0.31798 2.30416 0
M  V30 48203 C 4724.47 -0.978939 1.3825 0
M  V30 48204 O 4725.68 -0.908618 1.55384 0
M  V30 48205 H 4722.05 -0.121393 0.742137 0
M  V30 48206 H 4724.02 0.380507 2.95964 0
M  V30 48207 C 4722.77 -1.38002 3.19141 0
M  V30 48208 H 4722.1 -0.880815 3.89977 0
M  V30 48209 H 4723.54 -1.91319 3.78382 0
M  V30 48210 C 4721.99 -2.38876 2.37571 0
M  V30 48211 O 4722.52 -3.44405 2.06756 0
M  V30 48212 N 4720.73 -2.10905 1.99918 0
M  V30 48213 H 4720.28 -1.2511 2.25178 0
M  V30 48214 H 4720.24 -2.7863 1.45646 0
M  V30 48215 N 4724.01 -1.56103 0.216674 0
M  V30 48216 C 4725.26 -1.97349 -0.416675 0
M  V30 48217 C 4725.57 -1.10721 -1.61246 0
M  V30 48218 O 4726.78 -1.41844 -2.31501 0
M  V30 48219 C 4725.23 -3.51061 -0.792712 0
M  V30 48220 C 4724.84 -4.46386 0.379985 0
M  V30 48221 C 4726.58 -4.0103 -1.39194 0
M  V30 48222 C 4724.49 -5.91397 -0.0182144 0
M  V30 48223 H 4723.42 -0.736948 -0.159449 0
M  V30 48224 H 4726.07 -1.80826 0.312114 0
M  V30 48225 H 4724.45 -3.63167 -1.57878 0
M  V30 48226 H 4725.63 -4.46025 1.15753 0
M  V30 48227 H 4723.94 -4.06731 0.892121 0
M  V30 48228 H 4726.54 -5.06866 -1.70268 0
M  V30 48229 H 4726.88 -3.46595 -2.30602 0
M  V30 48230 H 4727.42 -3.92127 -0.6694 0
M  V30 48231 H 4724.15 -6.49804 0.86223 0
M  V30 48232 H 4723.67 -5.94963 -0.760175 0
M  V30 48233 H 4725.35 -6.45457 -0.446591 0
M  V30 48234 N 4725.49 0.0567608 -1.57498 0
M  V30 48235 C 4726.4 1.08338 -2.08086 0
M  V30 48236 C 4727.41 1.41435 -1.01351 0
M  V30 48237 O 4728.59 1.51311 -1.32917 0
M  V30 48238 C 4725.65 2.37343 -2.52724 0
M  V30 48239 C 4724.71 2.1108 -3.73823 0
M  V30 48240 C 4723.95 3.33934 -4.16322 0
M  V30 48241 O 4724.17 4.43609 -3.58563 0
M  V30 48242 O 4723.1 3.21261 -5.08994 0
M  V30 48243 H 4726.93 0.683563 -2.95907 0
M  V30 48244 H 4724.51 0.271913 -1.46905 0
M  V30 48245 H 4726.4 3.13236 -2.81888 0
M  V30 48246 H 4725.07 2.76675 -1.68026 0
M  V30 48247 H 4723.98 1.32844 -3.49719 0
M  V30 48248 H 4725.31 1.7662 -4.59419 0
M  V30 48249 N 4726.96 1.54139 0.328482 0
M  V30 48250 C 4728.37 1.63398 0.903215 0
M  V30 48251 C 4728.73 0.524895 1.89048 0
M  V30 48252 O 4727.85 -0.342993 2.13664 0
M  V30 48253 C 4728.45 2.96186 1.64497 0
M  V30 48254 C 4727 3.07658 2.1685 0
M  V30 48255 C 4726.15 2.58937 0.992325 0
M  V30 48256 H 4729.1 1.58344 0.106198 0
M  V30 48257 H 4729.12 2.8607 2.50886 0
M  V30 48258 H 4728.64 3.76887 0.92617 0
M  V30 48259 H 4726.74 2.31621 2.9186 0
M  V30 48260 H 4726.85 4.13379 2.42187 0
M  V30 48261 H 4725.21 2.14711 1.37008 0
M  V30 48262 H 4726 3.4209 0.287921 0
M  V30 48263 N 4728.44 -0.59029 1.46128 0
M  V30 48264 C 4729.67 -1.37299 1.54378 0
M  V30 48265 C 4730.08 -1.88331 0.181137 0
M  V30 48266 O 4729.42 -1.63855 -0.830502 0
M  V30 48267 C 4729.48 -2.60111 2.48158 0
M  V30 48268 C 4729.15 -2.30599 3.94554 0
M  V30 48269 C 4730.15 -1.89898 4.83978 0
M  V30 48270 C 4727.83 -2.42977 4.39622 0
M  V30 48271 C 4729.82 -1.6196 6.1648 0
M  V30 48272 C 4727.51 -2.14652 5.72161 0
M  V30 48273 C 4728.51 -1.74207 6.6041 0
M  V30 48274 O 4728.2 -1.46224 7.9049 0
M  V30 48275 H 4727.93 -0.426068 0.524826 0
M  V30 48276 H 4730.48 -0.725322 1.92167 0
M  V30 48277 H 4728.71 -3.27657 2.05372 0
M  V30 48278 H 4730.4 -3.22174 2.46899 0
M  V30 48279 H 4731.17 -1.79856 4.50418 0
M  V30 48280 H 4727.05 -2.73422 3.71162 0
M  V30 48281 H 4730.59 -1.30317 6.8532 0
M  V30 48282 H 4726.49 -2.24316 6.05271 0
M  V30 48283 H 4727.26 -1.60132 8.02683 0
M  V30 48284 N 4729.92 -1.33707 -0.834283 0
M  V30 48285 C 4730.85 -1.26974 -1.95959 0
M  V30 48286 C 4731.83 -0.149396 -1.69443 0
M  V30 48287 O 4733.02 -0.339919 -1.91202 0
M  V30 48288 C 4730.15 -1.01287 -3.32202 0
M  V30 48289 C 4729.1 -2.09665 -3.73128 0
M  V30 48290 C 4728.43 -1.69184 -5.07229 0
M  V30 48291 C 4729.73 -3.51386 -3.86426 0
M  V30 48292 H 4731.42 -2.21127 -2.0185 0
M  V30 48293 H 4728.97 -1.06451 -0.969756 0
M  V30 48294 H 4730.92 -0.95225 -4.105 0
M  V30 48295 H 4729.64 -0.0357351 -3.2658 0
M  V30 48296 H 4728.3 -2.14777 -2.97097 0
M  V30 48297 H 4727.95 -0.701612 -4.98083 0
M  V30 48298 H 4727.65 -2.41713 -5.35582 0
M  V30 48299 H 4729.17 -1.64597 -5.87997 0
M  V30 48300 H 4730.59 -3.4875 -4.55024 0
M  V30 48301 H 4728.98 -4.2244 -4.26222 0
M  V30 48302 H 4730.05 -3.89557 -2.88745 0
M  V30 48303 N 4731.4 1.0531 -1.1725 0
M  V30 48304 C 4732.65 1.77681 -0.954584 0
M  V30 48305 C 4732.96 1.88617 0.517959 0
M  V30 48306 O 4734.17 2.57717 0.854053 0
M  V30 48307 C 4732.62 3.19396 -1.65874 0
M  V30 48308 C 4732.23 3.16594 -3.16974 0
M  V30 48309 C 4733.97 3.96232 -1.52317 0
M  V30 48310 C 4731.88 4.53089 -3.80084 0
M  V30 48311 H 4730.81 0.665988 -0.353519 0
M  V30 48312 H 4733.46 1.18045 -1.40491 0
M  V30 48313 H 4731.84 3.79351 -1.13616 0
M  V30 48314 H 4733.02 2.66163 -3.76157 0
M  V30 48315 H 4731.33 2.53257 -3.3053 0
M  V30 48316 H 4733.93 4.9715 -1.9684 0
M  V30 48317 H 4734.27 4.13598 -0.473547 0
M  V30 48318 H 4734.81 3.42822 -2.01787 0
M  V30 48319 H 4731.55 4.40929 -4.85038 0
M  V30 48320 H 4731.07 5.03674 -3.25688 0
M  V30 48321 H 4732.74 5.22031 -3.8222 0
M  V30 48322 N 4732.88 0.972553 1.24013 0
M  V30 48323 C 4734.12 0.637102 1.92217 0
M  V30 48324 C 4734.45 -0.828357 1.75979 0
M  V30 48325 O 4733.71 -1.61203 1.10961 0
M  V30 48326 C 4734.01 0.963815 3.44159 0
M  V30 48327 C 4733.67 2.4182 3.8057 0
M  V30 48328 C 4732.33 2.8157 3.9022 0
M  V30 48329 C 4734.69 3.36186 3.98281 0
M  V30 48330 C 4732.01 4.14717 4.15002 0
M  V30 48331 C 4734.37 4.68967 4.24561 0
M  V30 48332 C 4733.03 5.08487 4.32431 0
M  V30 48333 H 4732.3 0.233132 0.703371 0
M  V30 48334 H 4734.95 1.22495 1.47198 0
M  V30 48335 H 4733.25 0.293787 3.90697 0
M  V30 48336 H 4734.95 0.682588 3.95148 0
M  V30 48337 H 4731.54 2.10001 3.73628 0
M  V30 48338 H 4735.72 3.06658 3.90224 0
M  V30 48339 H 4730.98 4.44954 4.19316 0
M  V30 48340 H 4735.15 5.42052 4.3721 0
M  V30 48341 H 4732.78 6.11681 4.51387 0
M  V30 48342 N 4734.35 -1.38973 0.74325 0
M  V30 48343 C 4735.58 -2.0516 0.304008 0
M  V30 48344 C 4736 -1.55681 -1.0557 0
M  V30 48345 O 4735.36 -0.70419 -1.67065 0
M  V30 48346 C 4735.41 -3.59137 0.3245 0
M  V30 48347 O 4734.51 -4.0667 -0.685061 0
M  V30 48348 H 4733.86 -0.64981 0.13654 0
M  V30 48349 H 4736.39 -1.77849 1.01148 0
M  V30 48350 H 4736.4 -4.07638 0.171761 0
M  V30 48351 H 4735.07 -3.9451 1.31661 0
M  V30 48352 H 4733.65 -3.69563 -0.497783 0
M  V30 48353 N 4735.83 -0.491517 -1.49739 0
M  V30 48354 C 4736.78 0.305756 -2.30582 0
M  V30 48355 C 4737.77 0.971594 -1.38767 0
M  V30 48356 O 4738.98 0.900365 -1.55863 0
M  V30 48357 H 4735.36 0.117455 -0.742771 0
M  V30 48358 H 4737.33 -0.396197 -2.95758 0
M  V30 48359 C 4736.08 1.36307 -3.19868 0
M  V30 48360 H 4735.4 0.860121 -3.90438 0
M  V30 48361 H 4736.84 1.8931 -3.79391 0
M  V30 48362 C 4735.3 2.37612 -2.38835 0
M  V30 48363 O 4735.83 3.43304 -2.08579 0
M  V30 48364 N 4734.03 2.09842 -2.01034 0
M  V30 48365 H 4733.58 1.23914 -2.25839 0
M  V30 48366 H 4733.54 2.77853 -1.47122 0
M  V30 48367 N 4737.31 1.55986 -0.224949 0
M  V30 48368 C 4738.73 1.59067 0.13037 0
M  V30 48369 C 4738.93 1.24182 1.58686 0
M  V30 48370 O 4737.98 0.978674 2.32762 0
M  V30 48371 C 4739.3 3.00041 -0.198988 0
M  V30 48372 C 4740.84 3.1268 -0.141501 0
M  V30 48373 C 4741.32 4.55837 -0.444582 0
M  V30 48374 N 4742.81 4.61519 -0.394277 0
M  V30 48375 C 4743.54 5.70229 -0.602238 0
M  V30 48376 N 4743.04 6.87288 -0.872155 0
M  V30 48377 N 4744.83 5.59554 -0.534442 0
M  V30 48378 H 4736.98 1.76937 -1.17504 0
M  V30 48379 H 4739.25 0.822587 -0.471226 0
M  V30 48380 H 4738.95 3.3023 -1.21001 0
M  V30 48381 H 4738.83 3.74077 0.484404 0
M  V30 48382 H 4741.21 2.82286 0.860166 0
M  V30 48383 H 4741.3 2.40966 -0.85842 0
M  V30 48384 H 4740.94 4.86949 -1.4437 0
M  V30 48385 H 4740.87 5.25781 0.293567 0
M  V30 48386 H 4743.36 3.77404 -0.193489 0
M  V30 48387 H 4743.67 7.66054 -1.01885 0
M  V30 48388 H 4742.02 6.89025 -0.909387 0
M  V30 48389 H 4745.21 4.66979 -0.323776 0
M  V30 48390 H 4745.38 6.44209 -0.699919 0
M  V30 48391 N 4738.79 -0.0484076 1.57526 0
M  V30 48392 C 4740.02 -0.754258 1.9234 0
M  V30 48393 C 4740.43 -1.70441 0.82138 0
M  V30 48394 O 4739.77 -1.82467 -0.212476 0
M  V30 48395 C 4739.83 -1.58219 3.22811 0
M  V30 48396 C 4739.5 -0.798915 4.49963 0
M  V30 48397 C 4740.49 -0.107717 5.19788 0
M  V30 48398 C 4738.18 -0.759171 4.9653 0
M  V30 48399 C 4740.17 0.612739 6.34448 0
M  V30 48400 C 4737.86 -0.0349565 6.1109 0
M  V30 48401 C 4738.86 0.649776 6.79902 0
M  V30 48402 O 4738.54 1.36227 7.92274 0
M  V30 48403 H 4738.28 -0.218234 0.639804 0
M  V30 48404 H 4740.83 -0.0158573 2.05394 0
M  V30 48405 H 4739.06 -2.36395 3.0603 0
M  V30 48406 H 4740.75 -2.16886 3.43096 0
M  V30 48407 H 4741.52 -0.129578 4.84827 0
M  V30 48408 H 4737.39 -1.28162 4.42827 0
M  V30 48409 H 4740.94 1.14775 6.88093 0
M  V30 48410 H 4736.84 -0.0111044 6.45499 0
M  V30 48411 H 4737.6 1.27395 8.08525 0
M  V30 48412 N 4740.27 -1.54311 -0.320303 0
M  V30 48413 C 4741.5 -1.76383 -1.07575 0
M  V30 48414 C 4741.9 -0.514008 -1.82084 0
M  V30 48415 O 4741.25 0.525061 -1.76036 0
M  V30 48416 C 4741.31 -2.90557 -2.117 0
M  V30 48417 C 4740.97 -4.29346 -1.5656 0
M  V30 48418 C 4741.97 -5.10081 -1.00568 0
M  V30 48419 C 4739.66 -4.75898 -1.60705 0
M  V30 48420 C 4741.65 -6.35479 -0.494533 0
M  V30 48421 C 4739.34 -6.01264 -1.09203 0
M  V30 48422 C 4740.33 -6.80888 -0.536721 0
M  V30 48423 O 4740.02 -8.03895 -0.0294545 0
M  V30 48424 H 4739.75 -0.59238 -0.325671 0
M  V30 48425 H 4742.31 -2.0202 -0.371089 0
M  V30 48426 H 4740.54 -2.60499 -2.85792 0
M  V30 48427 H 4742.23 -3.00383 -2.72993 0
M  V30 48428 H 4742.99 -4.75268 -0.966702 0
M  V30 48429 H 4738.87 -4.13964 -2.02867 0
M  V30 48430 H 4742.42 -6.97574 -0.060439 0
M  V30 48431 H 4738.31 -6.35566 -1.12809 0
M  V30 48432 H 4739.08 -8.18372 -0.144572 0
M  V30 48433 N 4741.74 0.582532 -1.46439 0
M  V30 48434 C 4742.67 1.70181 -1.59877 0
M  V30 48435 C 4743.66 1.64064 -0.4491 0
M  V30 48436 O 4744.84 1.82078 -0.675364 0
M  V30 48437 C 4741.97 3.08821 -1.58892 0
M  V30 48438 C 4740.92 3.29769 -2.7283 0
M  V30 48439 C 4740.25 4.68938 -2.56906 0
M  V30 48440 C 4741.55 3.17587 -4.14652 0
M  V30 48441 H 4743.24 1.59191 -2.53571 0
M  V30 48442 H 4740.79 0.764429 -1.22035 0
M  V30 48443 H 4742.74 3.86945 -1.66887 0
M  V30 48444 H 4741.47 3.20711 -0.617418 0
M  V30 48445 H 4740.13 2.54045 -2.64304 0
M  V30 48446 H 4739.77 4.77594 -1.5784 0
M  V30 48447 H 4739.47 4.83907 -3.33329 0
M  V30 48448 H 4741 5.4923 -2.66793 0
M  V30 48449 H 4742.41 3.85555 -4.24288 0
M  V30 48450 H 4740.81 3.44077 -4.91662 0
M  V30 48451 H 4741.88 2.14665 -4.34795 0
M  V30 48452 N 4743.22 1.34147 0.82718 0
M  V30 48453 C 4744.64 1.13736 1.11965 0
M  V30 48454 C 4744.84 -0.0639755 2.01398 0
M  V30 48455 O 4743.89 -0.740771 2.41389 0
M  V30 48456 C 4745.21 2.43053 1.77047 0
M  V30 48457 C 4746.76 2.4907 1.89561 0
M  V30 48458 C 4747.23 3.78378 2.58058 0
M  V30 48459 N 4748.72 3.79515 2.65561 0
M  V30 48460 C 4749.46 4.76285 3.1928 0
M  V30 48461 N 4748.95 5.83437 3.73595 0
M  V30 48462 N 4750.75 4.63746 3.17641 0
M  V30 48463 H 4742.9 2.11127 0.232222 0
M  V30 48464 H 4745.16 0.93343 0.165569 0
M  V30 48465 H 4744.87 3.3103 1.18795 0
M  V30 48466 H 4744.74 2.56076 2.76957 0
M  V30 48467 H 4747.13 1.61535 2.46962 0
M  V30 48468 H 4747.21 2.39979 0.885661 0
M  V30 48469 H 4746.85 4.663 2.01312 0
M  V30 48470 H 4746.78 3.8475 3.59548 0
M  V30 48471 H 4749.27 3.02082 2.27057 0
M  V30 48472 H 4749.59 6.53297 4.12823 0
M  V30 48473 H 4747.93 5.87156 3.71851 0
M  V30 48474 H 4751.12 3.79187 2.74473 0
M  V30 48475 H 4751.29 5.39331 3.59202 0
M  V30 48476 N 4744.7 -1.04686 1.17807 0
M  V30 48477 C 4745.65 -2.14662 0.895711 0
M  V30 48478 C 4746.64 -1.68807 -0.14162 0
M  V30 48479 O 4747.85 -1.79999 0.00594242 0
M  V30 48480 H 4744.22 -0.701028 0.272146 0
M  V30 48481 H 4746.19 -2.35679 1.83025 0
M  V30 48482 C 4744.94 -3.45017 0.431084 0
M  V30 48483 H 4744.27 -3.80706 1.22077 0
M  V30 48484 H 4745.71 -4.23124 0.27245 0
M  V30 48485 C 4744.17 -3.25946 -0.852092 0
M  V30 48486 O 4744.7 -3.52967 -1.91773 0
M  V30 48487 N 4742.9 -2.79307 -0.802248 0
M  V30 48488 H 4742.45 -2.57518 0.0651693 0
M  V30 48489 H 4742.41 -2.66927 -1.66125 0
M  V30 48490 N 4746.18 -0.979116 -1.23495 0
M  V30 48491 C 4747.11 -0.537686 -2.27225 0
M  V30 48492 C 4748.09 0.428481 -1.64615 0
M  V30 48493 O 4749.28 0.322124 -1.9151 0
M  V30 48494 C 4746.41 0.16193 -3.46922 0
M  V30 48495 C 4745.36 -0.721391 -4.21877 0
M  V30 48496 C 4744.69 0.110367 -5.34586 0
M  V30 48497 C 4745.99 -2.01158 -4.82009 0
M  V30 48498 H 4747.68 -1.40471 -2.64402 0
M  V30 48499 H 4745.23 -0.676885 -1.27099 0
M  V30 48500 H 4747.18 0.482045 -4.18634 0
M  V30 48501 H 4745.9 1.0634 -3.08803 0
M  V30 48502 H 4744.56 -1.02494 -3.51981 0
M  V30 48503 H 4744.21 1.01233 -4.92708 0
M  V30 48504 H 4743.91 -0.477531 -5.85656 0
M  V30 48505 H 4745.43 0.424892 -6.0912 0
M  V30 48506 H 4746.85 -1.75631 -5.45735 0
M  V30 48507 H 4745.24 -2.54714 -5.43361 0
M  V30 48508 H 4746.31 -2.69924 -4.02827 0
M  V30 48509 N 4747.66 1.38577 -0.75061 0
M  V30 48510 C 4748.89 2.0447 -0.31617 0
M  V30 48511 C 4749.3 1.56609 1.05446 0
M  V30 48512 O 4748.66 0.737842 1.6692 0
M  V30 48513 C 4748.71 3.60023 -0.326401 0
M  V30 48514 O 4748.43 4.06127 -1.64294 0
M  V30 48515 C 4749.93 4.43131 0.122273 0
M  V30 48516 H 4747.15 0.657166 -0.135551 0
M  V30 48517 H 4749.69 1.77325 -1.01863 0
M  V30 48518 H 4747.85 3.86015 0.327296 0
M  V30 48519 H 4748.26 5.00542 -1.5671 0
M  V30 48520 H 4749.74 5.51963 0.0639533 0
M  V30 48521 H 4750.21 4.23337 1.16973 0
M  V30 48522 H 4750.82 4.22322 -0.502439 0
M  V30 48523 N 4749.14 0.499451 1.49477 0
M  V30 48524 C 4750.38 -0.047455 2.01644 0
M  V30 48525 C 4750.7 -1.3819 1.3843 0
M  V30 48526 O 4751.9 -2.01541 1.81917 0
M  V30 48527 C 4750.36 -0.135038 3.59647 0
M  V30 48528 C 4749.97 1.19267 4.31833 0
M  V30 48529 C 4751.71 -0.632391 4.19763 0
M  V30 48530 C 4749.62 1.06733 5.81689 0
M  V30 48531 H 4748.55 -0.0215085 0.753693 0
M  V30 48532 H 4751.2 0.638637 1.72028 0
M  V30 48533 H 4749.58 -0.885546 3.85972 0
M  V30 48534 H 4750.76 1.95635 4.17209 0
M  V30 48535 H 4749.07 1.62334 3.83453 0
M  V30 48536 H 4751.67 -0.743647 5.29504 0
M  V30 48537 H 4752.01 -1.63084 3.83026 0
M  V30 48538 H 4752.54 0.0615385 3.97752 0
M  V30 48539 H 4749.28 2.04001 6.22948 0
M  V30 48540 H 4748.8 0.344517 5.9881 0
M  V30 48541 H 4750.48 0.745434 6.42691 0
M  V30 48542 N 4750.61 -1.55865 0.233218 0
M  V30 48543 C 4751.89 -1.90473 -0.444921 0
M  V30 48544 C 4752.27 -1.15215 -1.76886 0
M  V30 48545 O 4751.62 -0.265199 -2.26956 0
M  V30 48546 C 4751.83 -3.43332 -0.626438 0
M  V30 48547 C 4753.18 -4.14322 -0.928564 0
M  V30 48548 O 4754.2 -3.48995 -0.712803 0
M  V30 48549 O 4753.06 -5.29851 -1.33868 0
M  V30 48550 H 4750.15 -0.792356 -0.236858 0
M  V30 48551 H 4752.7 -1.67436 0.27627 0
M  V30 48552 H 4751.47 -3.90094 0.306959 0
M  V30 48553 H 4751.09 -3.72186 -1.39868 0
M  V30 48554 N 4752.09 0.0400529 -1.57549 0
M  V30 48555 C 4753.34 0.73161 -1.88393 0
M  V30 48556 C 4753.66 1.76478 -0.829487 0
M  V30 48557 O 4752.93 1.95412 0.138231 0
M  V30 48558 H 4751.51 0.2732 -0.695249 0
M  V30 48559 H 4754.17 0.00860874 -1.94898 0
M  V30 48560 H 4753.27 1.22806 -2.86924 0
M  V30 48561 N 4753.57 1.54478 0.312115 0
M  V30 48562 C 4754.8 1.76951 1.06639 0
M  V30 48563 C 4755.21 0.523657 1.81809 0
M  V30 48564 O 4754.55 -0.515718 1.76312 0
M  V30 48565 C 4754.61 2.91676 2.10156 0
M  V30 48566 C 4754.28 4.3017 1.54281 0
M  V30 48567 C 4755.27 5.10607 0.978613 0
M  V30 48568 C 4752.96 4.76744 1.58179 0
M  V30 48569 C 4754.95 6.35732 0.460825 0
M  V30 48570 C 4752.64 6.01834 1.06013 0
M  V30 48571 C 4753.64 6.81163 0.500604 0
M  V30 48572 O 4753.33 8.03899 -0.0131784 0
M  V30 48573 H 4753.06 0.594099 0.322525 0
M  V30 48574 H 4755.61 2.02214 0.36037 0
M  V30 48575 H 4753.84 2.62011 2.84406 0
M  V30 48576 H 4755.53 3.01826 2.71396 0
M  V30 48577 H 4756.3 4.75774 0.941484 0
M  V30 48578 H 4752.18 4.15034 2.00669 0
M  V30 48579 H 4755.72 6.97596 0.0234441 0
M  V30 48580 H 4751.62 6.36156 1.09437 0
M  V30 48581 H 4752.38 8.18437 0.10117 0
M  V30 48582 N 4755.05 -0.574758 1.46746 0
M  V30 48583 C 4756.29 -1.33267 1.52467 0
M  V30 48584 C 4756.62 -1.93669 0.17964 0
M  V30 48585 O 4755.88 -1.77433 -0.825602 0
M  V30 48586 C 4756.18 -2.47591 2.57747 0
M  V30 48587 C 4755.84 -2.05132 4.01537 0
M  V30 48588 C 4754.5 -1.93268 4.40682 0
M  V30 48589 C 4756.86 -1.72488 4.9183 0
M  V30 48590 C 4754.18 -1.4703 5.67978 0
M  V30 48591 C 4756.54 -1.27726 6.19571 0
M  V30 48592 C 4755.2 -1.14445 6.57616 0
M  V30 48593 H 4754.47 -0.487659 0.557916 0
M  V30 48594 H 4757.12 -0.646393 1.80261 0
M  V30 48595 H 4755.42 -3.217 2.23643 0
M  V30 48596 H 4757.12 -3.05798 2.59401 0
M  V30 48597 H 4753.71 -2.15303 3.70597 0
M  V30 48598 H 4757.89 -1.80536 4.62299 0
M  V30 48599 H 4753.15 -1.35396 5.9622 0
M  V30 48600 H 4757.32 -1.01523 6.8896 0
M  V30 48601 H 4754.95 -0.783924 7.56147 0
M  V30 48602 N 4756.53 -1.34584 -0.820054 0
M  V30 48603 C 4757.76 -1.29997 -1.60575 0
M  V30 48604 C 4758.16 0.127522 -1.8877 0
M  V30 48605 O 4757.51 1.08589 -1.48169 0
M  V30 48606 C 4757.57 -2.02558 -2.97003 0
M  V30 48607 C 4757.23 -3.51805 -2.91689 0
M  V30 48608 C 4758.23 -4.46657 -2.66071 0
M  V30 48609 C 4755.91 -3.94259 -3.11231 0
M  V30 48610 C 4757.91 -5.81938 -2.60051 0
M  V30 48611 C 4755.6 -5.2964 -3.04835 0
M  V30 48612 C 4756.59 -6.23292 -2.79278 0
M  V30 48613 O 4756.28 -7.56191 -2.7282 0
M  V30 48614 H 4756.01 -0.448557 -0.50574 0
M  V30 48615 H 4758.57 -1.77815 -1.02815 0
M  V30 48616 H 4756.8 -1.49358 -3.56692 0
M  V30 48617 H 4758.49 -1.91223 -3.58034 0
M  V30 48618 H 4759.25 -4.15177 -2.50706 0
M  V30 48619 H 4755.13 -3.21761 -3.30138 0
M  V30 48620 H 4758.68 -6.55007 -2.40023 0
M  V30 48621 H 4754.57 -5.60738 -3.19754 0
M  V30 48622 H 4755.34 -7.6596 -2.88526 0
M  V30 48623 N 4758 1.0406 -1.18361 0
M  V30 48624 C 4759.23 1.8145 -1.00451 0
M  V30 48625 C 4759.65 1.82825 0.442358 0
M  V30 48626 O 4759.01 1.24559 1.31737 0
M  V30 48627 C 4759.06 3.2492 -1.56395 0
M  V30 48628 O 4758.16 4.04853 -0.785351 0
M  V30 48629 H 4757.5 0.560592 -0.355855 0
M  V30 48630 H 4760.03 1.31053 -1.57119 0
M  V30 48631 H 4760.04 3.75697 -1.5911 0
M  V30 48632 H 4758.72 3.23234 -2.6171 0
M  V30 48633 H 4757.3 3.63534 -0.830526 0
M  V30 48634 N 4759.48 0.985651 1.22974 0
M  V30 48635 C 4760.41 0.549729 2.26937 0
M  V30 48636 C 4761.39 -0.419745 1.6484 0
M  V30 48637 O 4762.58 -0.311963 1.91678 0
M  V30 48638 C 4759.71 -0.14353 3.47003 0
M  V30 48639 C 4758.66 0.743754 4.21488 0
M  V30 48640 C 4757.99 -0.0820147 5.34637 0
M  V30 48641 C 4759.29 2.03711 4.80936 0
M  V30 48642 H 4760.98 1.41872 2.63653 0
M  V30 48643 H 4758.53 0.683616 1.26739 0
M  V30 48644 H 4760.48 -0.459837 4.18884 0
M  V30 48645 H 4759.2 -1.04701 3.09363 0
M  V30 48646 H 4757.86 1.0436 3.51432 0
M  V30 48647 H 4757.51 -0.986185 4.93238 0
M  V30 48648 H 4757.21 0.508583 5.85395 0
M  V30 48649 H 4758.74 -0.392583 6.09337 0
M  V30 48650 H 4760.15 1.78523 5.44796 0
M  V30 48651 H 4758.55 2.57592 5.42002 0
M  V30 48652 H 4759.62 2.72056 4.01389 0
M  V30 48653 N 4760.96 -1.38177 0.757949 0
M  V30 48654 C 4762.21 -1.9926 0.312814 0
M  V30 48655 C 4762.52 -1.6085 -1.11295 0
M  V30 48656 O 4763.73 -2.14934 -1.65878 0
M  V30 48657 C 4762.18 -3.56292 0.508335 0
M  V30 48658 C 4761.79 -4.0365 1.94347 0
M  V30 48659 C 4763.54 -4.24313 0.126131 0
M  V30 48660 C 4761.44 -5.5334 2.08732 0
M  V30 48661 H 4760.37 -0.745452 0.113211 0
M  V30 48662 H 4763.02 -1.57886 0.935112 0
M  V30 48663 H 4761.41 -3.95576 -0.183214 0
M  V30 48664 H 4762.58 -3.75645 2.66884 0
M  V30 48665 H 4760.9 -3.48368 2.28099 0
M  V30 48666 H 4763.49 -5.34278 0.212312 0
M  V30 48667 H 4763.84 -4.05966 -0.921822 0
M  V30 48668 H 4764.37 -3.90283 0.7697 0
M  V30 48669 H 4761.11 -5.76596 3.11797 0
M  V30 48670 H 4760.63 -5.83073 1.40661 0
M  V30 48671 H 4762.31 -6.19104 1.87934 0
M  V30 48672 N 4762.44 -0.507371 -1.4921 0
M  V30 48673 C 4763.37 0.256858 -2.32083 0
M  V30 48674 C 4764.35 0.956559 -1.40655 0
M  V30 48675 O 4765.53 0.946729 -1.6956 0
M  V30 48676 C 4762.66 1.31791 -3.21323 0
M  V30 48677 C 4761.62 0.737707 -4.21594 0
M  V30 48678 C 4760.94 1.89975 -4.99814 0
M  V30 48679 C 4762.24 -0.275509 -5.21573 0
M  V30 48680 H 4763.94 -0.434902 -2.96225 0
M  V30 48681 H 4761.48 -0.210596 -1.42452 0
M  V30 48682 H 4763.44 1.86032 -3.78114 0
M  V30 48683 H 4762.16 2.03894 -2.55137 0
M  V30 48684 H 4760.82 0.216997 -3.65957 0
M  V30 48685 H 4760.47 2.60862 -4.3007 0
M  V30 48686 H 4760.17 1.51757 -5.67665 0
M  V30 48687 H 4761.69 2.44637 -5.59451 0
M  V30 48688 H 4763.11 0.178992 -5.73021 0
M  V30 48689 H 4761.5 -0.573859 -5.9735 0
M  V30 48690 H 4762.57 -1.1892 -4.70092 0
M  V30 48691 N 4763.92 1.55739 -0.241481 0
M  V30 48692 C 4764.83 2.24793 0.671226 0
M  V30 48693 C 4765.84 1.26221 1.19768 0
M  V30 48694 O 4767.02 1.59083 1.23509 0
M  V30 48695 C 4764.08 2.92973 1.85386 0
M  V30 48696 C 4763.14 4.0694 1.36742 0
M  V30 48697 C 4762.38 4.7186 2.49368 0
M  V30 48698 O 4762.6 4.35836 3.67972 0
M  V30 48699 O 4761.53 5.60475 2.19434 0
M  V30 48700 H 4765.36 3.0349 0.11286 0
M  V30 48701 H 4762.95 1.49397 -0.0102038 0
M  V30 48702 H 4764.83 3.35936 2.54411 0
M  V30 48703 H 4763.5 2.17219 2.39995 0
M  V30 48704 H 4762.41 3.68505 0.644596 0
M  V30 48705 H 4763.74 4.84495 0.867476 0
M  V30 48706 N 4765.39 -0.0316971 1.57568 0
M  V30 48707 C 4766.64 -0.721609 1.88778 0
M  V30 48708 C 4766.96 -1.76036 0.838834 0
M  V30 48709 O 4766.23 -1.95482 -0.127866 0
M  V30 48710 H 4764.81 -0.269509 0.696688 0
M  V30 48711 H 4767.48 0.00172731 1.949 0
M  V30 48712 H 4766.57 -1.21283 2.87571 0
M  V30 48713 N 4766.87 -1.54642 -0.303919 0
M  V30 48714 C 4767.8 -1.88391 -1.37953 0
M  V30 48715 C 4768.78 -0.742539 -1.53037 0
M  V30 48716 O 4769.97 -0.998017 -1.66593 0
M  V30 48717 C 4767.1 -2.12864 -2.7442 0
M  V30 48718 C 4766.05 -3.28711 -2.74104 0
M  V30 48719 C 4765.38 -3.38596 -4.13832 0
M  V30 48720 C 4766.68 -4.65889 -2.36103 0
M  V30 48721 H 4768.37 -2.78478 -1.09957 0
M  V30 48722 H 4765.92 -1.3399 -0.527509 0
M  V30 48723 H 4767.87 -2.35059 -3.4975 0
M  V30 48724 H 4766.6 -1.19545 -3.03935 0
M  V30 48725 H 4765.25 -3.06435 -2.0123 0
M  V30 48726 H 4764.9 -2.428 -4.40519 0
M  V30 48727 H 4764.6 -4.16467 -4.14522 0
M  V30 48728 H 4766.13 -3.63048 -4.90946 0
M  V30 48729 H 4767.54 -4.87834 -3.0115 0
M  V30 48730 H 4765.94 -5.46452 -2.48012 0
M  V30 48731 H 4767.01 -4.66804 -1.31233 0
M  V30 48732 N 4768.35 0.566968 -1.47048 0
M  V30 48733 C 4769.63 1.32755 -1.4365 0
M  V30 48734 C 4770.01 2.1071 -0.12826 0
M  V30 48735 O 4769.36 2.10444 0.890252 0
M  V30 48736 C 4769.57 2.2403 -2.67603 0
M  V30 48737 C 4770.91 2.85361 -3.14411 0
M  V30 48738 O 4771.94 2.34337 -2.68262 0
M  V30 48739 O 4770.8 3.78077 -3.94613 0
M  V30 48740 H 4767.89 0.597273 -0.572009 0
M  V30 48741 H 4770.44 0.586679 -1.59236 0
M  V30 48742 H 4769.21 1.65962 -3.54362 0
M  V30 48743 H 4768.83 3.0543 -2.54555 0
M  V30 48744 N 4769.83 1.35017 0.812906 0
M  V30 48745 C 4770.78 1.27441 1.9458 0
M  V30 48746 C 4771.77 0.170553 1.68539 0
M  V30 48747 O 4772.98 0.336148 1.76833 0
M  V30 48748 H 4769.35 0.396166 0.639184 0
M  V30 48749 H 4771.32 2.23165 1.98091 0
M  V30 48750 C 4770.07 1.05689 3.31248 0
M  V30 48751 H 4769.39 1.89865 3.5184 0
M  V30 48752 H 4770.83 1.04427 4.10939 0
M  V30 48753 C 4769.29 -0.239497 3.36048 0
M  V30 48754 O 4769.82 -1.23746 3.82165 0
M  V30 48755 N 4768.03 -0.276084 2.89286 0
M  V30 48756 H 4767.58 0.536619 2.51949 0
M  V30 48757 H 4767.53 -1.14321 2.92879 0
M  V30 48758 N 4771.31 -1.03431 1.18911 0
M  V30 48759 C 4772.55 -1.77002 0.98986 0
M  V30 48760 C 4772.89 -1.88206 -0.47875 0
M  V30 48761 O 4772.16 -1.39486 -1.35551 0
M  V30 48762 C 4772.44 -3.1992 1.65298 0
M  V30 48763 C 4772.3 -3.16619 3.19488 0
M  V30 48764 C 4773.62 -4.18185 1.37148 0
M  V30 48765 H 4770.73 -0.642525 0.361013 0
M  V30 48766 H 4773.38 -1.20779 1.46671 0
M  V30 48767 H 4771.53 -3.67925 1.24754 0
M  V30 48768 H 4773.2 -2.76554 3.6921 0
M  V30 48769 H 4771.44 -2.54479 3.51316 0
M  V30 48770 H 4772.11 -4.17568 3.61028 0
M  V30 48771 H 4774.59 -3.78755 1.7229 0
M  V30 48772 H 4773.46 -5.16388 1.86105 0
M  V30 48773 H 4773.73 -4.41111 0.295579 0
M  V30 48774 N 4772.78 -0.992159 -1.2245 0
M  V30 48775 C 4774.03 -0.66859 -1.91462 0
M  V30 48776 C 4774.36 0.79725 -1.77081 0
M  V30 48777 O 4773.64 1.57646 -1.13921 0
M  V30 48778 C 4773.92 -1.07436 -3.437 0
M  V30 48779 C 4773.77 -2.5987 -3.67134 0
M  V30 48780 C 4775.09 -0.627044 -4.3561 0
M  V30 48781 H 4772.21 -0.244365 -0.695309 0
M  V30 48782 H 4774.85 -1.23555 -1.44341 0
M  V30 48783 H 4773 -0.591951 -3.83964 0
M  V30 48784 H 4774.68 -3.15776 -3.36279 0
M  V30 48785 H 4772.92 -3.01972 -3.1144 0
M  V30 48786 H 4773.59 -2.83313 -4.73749 0
M  V30 48787 H 4776.07 -1.04139 -4.02858 0
M  V30 48788 H 4774.94 -0.939266 -5.40804 0
M  V30 48789 H 4775.2 0.472302 -4.3957 0
M  V30 48790 N 4774.26 1.37773 -0.765266 0
M  V30 48791 C 4775.23 2.28685 -0.153496 0
M  V30 48792 C 4776.23 1.4773 0.635029 0
M  V30 48793 O 4777.42 1.68028 0.459573 0
M  V30 48794 C 4774.55 3.31611 0.790378 0
M  V30 48795 H 4775.74 2.84294 -0.954823 0
M  V30 48796 H 4773.29 1.4693 -0.533042 0
M  V30 48797 H 4774.03 2.81114 1.61695 0
M  V30 48798 H 4773.81 3.91441 0.22721 0
M  V30 48799 H 4775.3 3.99563 1.21405 0
M  V30 48800 N 4775.74 0.515277 1.48938 0
M  V30 48801 C 4776.67 -0.244546 2.32216 0
M  V30 48802 C 4777.65 -0.949087 1.41161 0
M  V30 48803 O 4778.84 -0.937723 1.7006 0
M  V30 48804 C 4775.97 -1.30085 3.22017 0
M  V30 48805 C 4774.92 -0.715338 4.2198 0
M  V30 48806 C 4774.25 -1.87321 5.00814 0
M  V30 48807 C 4775.55 0.303165 5.21419 0
M  V30 48808 H 4777.24 0.450605 2.9599 0
M  V30 48809 H 4774.79 0.218148 1.42338 0
M  V30 48810 H 4776.74 -1.84024 3.79095 0
M  V30 48811 H 4775.46 -2.02538 2.56214 0
M  V30 48812 H 4774.12 -0.197586 3.66067 0
M  V30 48813 H 4773.77 -2.58577 4.31447 0
M  V30 48814 H 4773.47 -1.48744 5.68462 0
M  V30 48815 H 4775 -2.41667 5.6074 0
M  V30 48816 H 4776.41 -0.148601 5.73107 0
M  V30 48817 H 4774.81 0.60553 5.97037 0
M  V30 48818 H 4775.88 1.21411 4.69454 0
M  V30 48819 N 4777.22 -1.55609 0.249737 0
M  V30 48820 C 4778.5 -1.90934 -0.424694 0
M  V30 48821 C 4778.88 -1.17084 -1.75654 0
M  V30 48822 O 4778.22 -0.289256 -2.26662 0
M  V30 48823 C 4778.43 -3.43977 -0.589988 0
M  V30 48824 C 4779.78 -4.15284 -0.884568 0
M  V30 48825 O 4780.81 -3.49731 -0.675747 0
M  V30 48826 O 4779.67 -5.31241 -1.28241 0
M  V30 48827 H 4776.76 -0.794823 -0.22844 0
M  V30 48828 H 4779.31 -1.67134 0.294013 0
M  V30 48829 H 4778.08 -3.89747 0.348317 0
M  V30 48830 H 4777.7 -3.73649 -1.35913 0
M  V30 48831 N 4778.7 0.0233405 -1.57583 0
M  V30 48832 C 4779.94 0.712996 -1.89533 0
M  V30 48833 C 4780.27 1.75053 -0.847734 0
M  V30 48834 O 4779.53 1.9512 0.150568 0
M  V30 48835 C 4779.83 1.41417 -3.28232 0
M  V30 48836 C 4779.49 0.512064 -4.47983 0
M  V30 48837 C 4778.15 0.263616 -4.80477 0
M  V30 48838 C 4780.51 -0.110432 -5.21083 0
M  V30 48839 C 4777.83 -0.616009 -5.83457 0
M  V30 48840 C 4780.19 -0.977793 -6.24998 0
M  V30 48841 C 4778.85 -1.23565 -6.55963 0
M  V30 48842 H 4778.12 0.260904 -0.693549 0
M  V30 48843 H 4780.77 -0.027172 -1.91481 0
M  V30 48844 H 4779.07 2.2278 -3.22299 0
M  V30 48845 H 4780.77 1.95343 -3.50203 0
M  V30 48846 H 4777.36 0.715865 -4.22579 0
M  V30 48847 H 4781.54 0.0685392 -4.96253 0
M  V30 48848 H 4776.8 -0.824033 -6.05821 0
M  V30 48849 H 4780.97 -1.46662 -6.80781 0
M  V30 48850 H 4778.6 -1.91896 -7.35581 0
M  V30 48851 N 4780.18 1.54801 0.295713 0
M  V30 48852 C 4781.45 1.65018 1.05017 0
M  V30 48853 C 4781.83 0.501877 2.05047 0
M  V30 48854 O 4781.18 -0.50079 2.22945 0
M  V30 48855 C 4781.39 3.03258 1.72731 0
M  V30 48856 C 4782.74 3.6025 2.24733 0
M  V30 48857 O 4783.76 3.05744 1.82754 0
M  V30 48858 O 4782.62 4.55698 3.01665 0
M  V30 48859 H 4779.72 0.669331 0.485721 0
M  V30 48860 H 4782.26 1.67145 0.293379 0
M  V30 48861 H 4781.03 3.78273 1.00124 0
M  V30 48862 H 4780.66 3.04931 2.55153 0
M  V30 48863 N 4781.65 -0.559161 1.47347 0
M  V30 48864 C 4783.07 -0.884897 1.32822 0
M  V30 48865 C 4783.27 -1.98987 0.317243 0
M  V30 48866 O 4782.33 -2.51032 -0.271923 0
M  V30 48867 C 4783.64 -1.27998 2.72098 0
M  V30 48868 C 4785.19 -1.39151 2.80367 0
M  V30 48869 C 4785.66 -1.82016 4.20279 0
M  V30 48870 N 4787.15 -1.8917 4.22811 0
M  V30 48871 C 4787.89 -2.23661 5.2798 0
M  V30 48872 N 4787.38 -2.56779 6.43456 0
M  V30 48873 N 4789.18 -2.24418 5.15357 0
M  V30 48874 H 4781.33 0.170379 2.11716 0
M  V30 48875 H 4783.59 0.013558 0.947903 0
M  V30 48876 H 4783.3 -0.541905 3.475 0
M  V30 48877 H 4783.17 -2.23655 3.03741 0
M  V30 48878 H 4785.56 -2.12041 2.05238 0
M  V30 48879 H 4785.64 -0.416871 2.5238 0
M  V30 48880 H 4785.28 -1.09697 4.95912 0
M  V30 48881 H 4785.21 -2.8048 4.45689 0
M  V30 48882 H 4787.7 -1.6597 3.39503 0
M  V30 48883 H 4788.02 -2.82119 7.19464 0
M  V30 48884 H 4786.36 -2.54364 6.4678 0
M  V30 48885 H 4789.55 -1.97983 4.2417 0
M  V30 48886 H 4789.73 -2.50968 5.97427 0
M  V30 48887 N 4783.13 -1.35446 -0.805734 0
M  V30 48888 C 4784.38 -1.28958 -1.56518 0
M  V30 48889 C 4784.71 0.135529 -1.93727 0
M  V30 48890 O 4783.99 1.0851 -1.61418 0
M  V30 48891 C 4784.27 -2.19688 -2.85323 0
M  V30 48892 C 4784.12 -3.70819 -2.54585 0
M  V30 48893 C 4785.44 -2.09509 -3.87033 0
M  V30 48894 H 4782.56 -0.469784 -0.567866 0
M  V30 48895 H 4785.2 -1.65855 -0.926942 0
M  V30 48896 H 4783.35 -1.88352 -3.39788 0
M  V30 48897 H 4785.02 -4.12601 -2.06297 0
M  V30 48898 H 4783.27 -3.91058 -1.87766 0
M  V30 48899 H 4783.94 -4.29691 -3.4651 0
M  V30 48900 H 4786.41 -2.37057 -3.4197 0
M  V30 48901 H 4785.29 -2.75189 -4.74934 0
M  V30 48902 H 4785.55 -1.07729 -4.28774 0
M  V30 48903 N 4784.61 1.02799 -1.19458 0
M  V30 48904 C 4785.52 2.14572 -0.948483 0
M  V30 48905 C 4786.54 1.73758 0.0918099 0
M  V30 48906 O 4787.71 2.01185 -0.0930361 0
M  V30 48907 C 4784.78 3.432 -0.491386 0
M  V30 48908 C 4783.84 3.98323 -1.60117 0
M  V30 48909 C 4783.07 5.20812 -1.16579 0
M  V30 48910 O 4783.29 5.70392 -0.0297243 0
M  V30 48911 O 4782.23 5.68794 -1.96869 0
M  V30 48912 H 4786.05 2.38195 -1.88406 0
M  V30 48913 H 4783.64 1.12986 -0.977473 0
M  V30 48914 H 4785.52 4.20686 -0.245163 0
M  V30 48915 H 4784.2 3.21019 0.415738 0
M  V30 48916 H 4783.1 3.22167 -1.90156 0
M  V30 48917 H 4784.44 4.2487 -2.48488 0
M  V30 48918 N 4786.09 0.998639 1.21922 0
M  V30 48919 C 4787.03 0.5537 2.2406 0
M  V30 48920 C 4788 -0.416942 1.60782 0
M  V30 48921 O 4789.19 -0.320416 1.8809 0
M  V30 48922 C 4786.33 -0.119838 3.44892 0
M  V30 48923 C 4785.44 0.893225 4.22665 0
M  V30 48924 C 4784.58 0.192611 5.30851 0
M  V30 48925 C 4783.62 1.19366 6.00348 0
M  V30 48926 N 4782.75 0.520953 7.00165 0
M  V30 48927 H 4787.59 1.42939 2.61481 0
M  V30 48928 H 4785.13 0.715883 1.28505 0
M  V30 48929 H 4787.09 -0.527314 4.13854 0
M  V30 48930 H 4785.72 -0.959281 3.08217 0
M  V30 48931 H 4784.77 1.41899 3.52943 0
M  V30 48932 H 4786.08 1.65528 4.70534 0
M  V30 48933 H 4785.24 -0.271302 6.06093 0
M  V30 48934 H 4783.98 -0.601905 4.83971 0
M  V30 48935 H 4782.98 1.66814 5.23883 0
M  V30 48936 H 4784.21 1.98914 6.49315 0
M  V30 48937 H 4782.15 -0.254022 6.55508 0
M  V30 48938 H 4782.07 1.22137 7.46069 0
M  V30 48939 H 4783.34 0.0800336 7.79459 0
M  V30 48940 N 4787.57 -1.37365 0.772562 0
M  V30 48941 C 4788.98 -1.53057 0.452285 0
M  V30 48942 C 4789.18 -1.73069 -1.03197 0
M  V30 48943 O 4788.24 -1.75251 -1.81778 0
M  V30 48944 C 4789.55 -2.72655 1.26806 0
M  V30 48945 C 4791.1 -2.86517 1.26005 0
M  V30 48946 C 4791.57 -4.09098 2.05919 0
M  V30 48947 N 4793.06 -4.16212 2.03278 0
M  V30 48948 C 4793.8 -5.10098 2.61893 0
M  V30 48949 N 4793.3 -6.09536 3.29299 0
M  V30 48950 N 4795.09 -5.02587 2.51719 0
M  V30 48951 H 4787.24 -1.22628 1.73425 0
M  V30 48952 H 4789.5 -0.597181 0.73626 0
M  V30 48953 H 4789.21 -2.64335 2.31991 0
M  V30 48954 H 4789.08 -3.6636 0.897801 0
M  V30 48955 H 4791.47 -2.94307 0.216185 0
M  V30 48956 H 4791.55 -1.93768 1.66996 0
M  V30 48957 H 4791.19 -4.02069 3.10327 0
M  V30 48958 H 4791.12 -5.00962 1.6231 0
M  V30 48959 H 4793.62 -3.45006 1.54204 0
M  V30 48960 H 4793.93 -6.77705 3.71398 0
M  V30 48961 H 4792.27 -6.09812 3.33398 0
M  V30 48962 H 4795.46 -4.23848 1.98672 0
M  V30 48963 H 4795.64 -5.75571 2.97694 0
M  V30 48964 N 4789.04 -0.523168 -1.48663 0
M  V30 48965 C 4789.97 0.232228 -2.32342 0
M  V30 48966 C 4790.95 0.941587 -1.41662 0
M  V30 48967 O 4792.14 0.928691 -1.70555 0
M  V30 48968 C 4789.27 1.28375 -3.22703 0
M  V30 48969 C 4788.22 0.692949 -4.22353 0
M  V30 48970 C 4787.55 1.84663 -5.01801 0
M  V30 48971 C 4788.85 -0.330813 -5.21251 0
M  V30 48972 H 4790.54 -0.466296 -2.95747 0
M  V30 48973 H 4788.09 -0.225693 -1.4222 0
M  V30 48974 H 4790.04 1.82011 -3.80066 0
M  V30 48975 H 4788.77 2.01177 -2.57285 0
M  V30 48976 H 4787.43 0.17817 -3.66167 0
M  V30 48977 H 4787.07 2.56286 -4.32813 0
M  V30 48978 H 4786.77 1.45727 -5.69243 0
M  V30 48979 H 4788.3 2.3869 -5.62014 0
M  V30 48980 H 4789.71 0.118205 -5.73178 0
M  V30 48981 H 4788.11 -0.637184 -5.96708 0
M  V30 48982 H 4789.18 -1.23899 -4.68804 0
M  V30 48983 N 4790.52 1.55474 -0.257986 0
M  V30 48984 C 4791.75 2.03315 0.366955 0
M  V30 48985 C 4792.16 1.13631 1.51277 0
M  V30 48986 O 4791.5 0.145398 1.83124 0
M  V30 48987 C 4791.57 3.47365 0.926162 0
M  V30 48988 C 4791.23 4.56914 -0.088819 0
M  V30 48989 C 4792.23 5.1201 -0.902303 0
M  V30 48990 C 4789.91 5.01826 -0.218113 0
M  V30 48991 C 4791.91 6.10522 -1.83143 0
M  V30 48992 C 4789.59 6.00168 -1.15073 0
M  V30 48993 C 4790.59 6.54395 -1.95591 0
M  V30 48994 O 4790.28 7.50817 -2.87279 0
M  V30 48995 H 4790.01 0.669979 0.0900207 0
M  V30 48996 H 4792.56 2.01802 -0.382744 0
M  V30 48997 H 4790.79 3.46062 1.72562 0
M  V30 48998 H 4792.48 3.78642 1.46236 0
M  V30 48999 H 4793.25 4.78136 -0.81306 0
M  V30 49000 H 4789.13 4.59274 0.39856 0
M  V30 49001 H 4792.67 6.52774 -2.46031 0
M  V30 49002 H 4788.57 6.33461 -1.24086 0
M  V30 49003 H 4789.34 7.68473 -2.81766 0
M  V30 49004 N 4792 -0.0149831 1.57593 0
M  V30 49005 C 4793.25 -0.698423 1.91033 0
M  V30 49006 C 4793.6 -1.72205 0.8581 0
M  V30 49007 O 4792.89 -1.91148 -0.131546 0
M  V30 49008 C 4793.09 -1.39674 3.28977 0
M  V30 49009 C 4792.92 -0.442271 4.4752 0
M  V30 49010 C 4791.69 -0.0581447 5.05267 0
M  V30 49011 C 4793.89 0.285253 5.13508 0
M  V30 49012 N 4791.87 0.896106 6.07325 0
M  V30 49013 C 4793.24 1.09469 6.10259 0
M  V30 49014 C 4795.29 0.350693 4.96663 0
M  V30 49015 C 4794 1.96357 6.9198 0
M  V30 49016 C 4796.02 1.20675 5.78957 0
M  V30 49017 C 4795.38 2.00407 6.7529 0
M  V30 49018 H 4791.48 -0.229234 0.747647 0
M  V30 49019 H 4794.07 0.0418432 1.94655 0
M  V30 49020 H 4792.24 -2.10739 3.26257 0
M  V30 49021 H 4793.97 -2.03368 3.4989 0
M  V30 49022 H 4790.73 -0.42334 4.71704 0
M  V30 49023 H 4791.15 1.36816 6.63031 0
M  V30 49024 H 4795.79 -0.251448 4.22052 0
M  V30 49025 H 4793.51 2.57645 7.65927 0
M  V30 49026 H 4797.1 1.2611 5.67968 0
M  V30 49027 H 4795.98 2.65577 7.37861 0
M  V30 49028 N 4793.48 -1.54955 -0.2875 0
M  V30 49029 C 4794.73 -1.74084 -1.0187 0
M  V30 49030 C 4795.04 -0.541201 -1.87964 0
M  V30 49031 O 4796.25 -0.614584 -2.64452 0
M  V30 49032 C 4794.7 -3.08049 -1.86102 0
M  V30 49033 C 4794.31 -4.35535 -1.04946 0
M  V30 49034 C 4796.05 -3.36532 -2.5874 0
M  V30 49035 C 4793.96 -5.60544 -1.88531 0
M  V30 49036 H 4792.89 -0.648854 -0.384064 0
M  V30 49037 H 4795.54 -1.81427 -0.275037 0
M  V30 49038 H 4793.92 -2.94706 -2.64508 0
M  V30 49039 H 4795.1 -4.59752 -0.310578 0
M  V30 49040 H 4793.41 -4.14087 -0.438284 0
M  V30 49041 H 4796.01 -4.27134 -3.21653 0
M  V30 49042 H 4796.35 -2.56011 -3.28274 0
M  V30 49043 H 4796.89 -3.50908 -1.87373 0
M  V30 49044 H 4793.63 -6.43772 -1.23444 0
M  V30 49045 H 4793.15 -5.40492 -2.60055 0
M  V30 49046 H 4794.82 -5.98305 -2.46252 0
M  V30 49047 N 4794.96 0.551339 -1.47641 0
M  V30 49048 C 4796.23 1.31224 -1.4505 0
M  V30 49049 C 4796.61 2.10562 -0.150601 0
M  V30 49050 O 4795.96 2.11377 0.867881 0
M  V30 49051 C 4796.17 2.2118 -2.69964 0
M  V30 49052 C 4797.52 2.8201 -3.1742 0
M  V30 49053 O 4798.54 2.31479 -2.70733 0
M  V30 49054 O 4797.4 3.73871 -3.98601 0
M  V30 49055 H 4794.5 0.591172 -0.578312 0
M  V30 49056 H 4797.04 0.569757 -1.59849 0
M  V30 49057 H 4795.81 1.62194 -3.56102 0
M  V30 49058 H 4795.44 3.02713 -2.5778 0
M  V30 49059 N 4796.43 1.35872 0.79854 0
M  V30 49060 C 4797.66 1.32727 1.58717 0
M  V30 49061 C 4798.08 -0.0934969 1.88568 0
M  V30 49062 O 4797.43 -1.04779 1.49424 0
M  V30 49063 C 4797.49 2.13985 2.91364 0
M  V30 49064 O 4797.21 3.50523 2.62803 0
M  V30 49065 C 4798.71 2.18517 3.85701 0
M  V30 49066 H 4795.93 0.455638 0.49258 0
M  V30 49067 H 4798.47 1.78841 0.99178 0
M  V30 49068 H 4796.63 1.7145 3.47396 0
M  V30 49069 H 4797.04 3.92818 3.47555 0
M  V30 49070 H 4798.51 2.79749 4.75862 0
M  V30 49071 H 4798.99 1.18612 4.22881 0
M  V30 49072 H 4799.6 2.61248 3.35603 0
M  V30 49073 N 4797.91 -1.02164 1.20001 0
M  V30 49074 C 4798.84 -2.10702 0.902068 0
M  V30 49075 C 4799.86 -1.6244 -0.108159 0
M  V30 49076 O 4801.05 -1.78081 0.122203 0
M  V30 49077 C 4798.15 -3.3729 0.329953 0
M  V30 49078 C 4797.32 -4.14709 1.3905 0
M  V30 49079 C 4796.38 -5.19603 0.830614 0
M  V30 49080 O 4795.4 -5.48803 1.51008 0
M  V30 49081 N 4796.61 -5.79367 -0.362493 0
M  V30 49082 H 4799.37 -2.3685 1.83636 0
M  V30 49083 H 4796.93 -1.18514 1.103 0
M  V30 49084 H 4798.92 -4.04658 -0.0586211 0
M  V30 49085 H 4797.49 -3.08432 -0.508782 0
M  V30 49086 H 4796.71 -3.42385 1.95362 0
M  V30 49087 H 4798 -4.63218 2.10491 0
M  V30 49088 H 4797.4 -5.57972 -0.931885 0
M  V30 49089 H 4795.96 -6.48108 -0.692762 0
M  V30 49090 N 4799.39 -1.00509 -1.21391 0
M  V30 49091 C 4800.81 -0.717923 -1.42541 0
M  V30 49092 C 4801.01 0.70687 -1.88694 0
M  V30 49093 O 4800.06 1.4762 -2.04852 0
M  V30 49094 C 4801.38 -1.73386 -2.45678 0
M  V30 49095 C 4802.92 -1.75069 -2.59461 0
M  V30 49096 C 4803.4 -2.75558 -3.6583 0
M  V30 49097 N 4804.89 -2.74227 -3.73302 0
M  V30 49098 C 4805.62 -3.48642 -4.55232 0
M  V30 49099 N 4805.12 -4.32697 -5.4106 0
M  V30 49100 N 4806.91 -3.37291 -4.49657 0
M  V30 49101 H 4799.06 -1.92509 -0.897436 0
M  V30 49102 H 4801.33 -0.830935 -0.456346 0
M  V30 49103 H 4801.03 -2.75402 -2.18738 0
M  V30 49104 H 4800.91 -1.53659 -3.44483 0
M  V30 49105 H 4803.29 -0.737437 -2.85737 0
M  V30 49106 H 4803.38 -1.98867 -1.6089 0
M  V30 49107 H 4803.02 -3.77039 -3.40299 0
M  V30 49108 H 4802.95 -2.49025 -4.63998 0
M  V30 49109 H 4805.44 -2.13244 -3.11986 0
M  V30 49110 H 4805.75 -4.86274 -6.00631 0
M  V30 49111 H 4804.1 -4.36779 -5.40601 0
M  V30 49112 H 4807.29 -2.71056 -3.81636 0
M  V30 49113 H 4807.46 -3.95542 -5.13274 0
M  V30 49114 N 4800.87 1.36954 -0.779835 0
M  V30 49115 C 4801.8 2.28833 -0.12972 0
M  V30 49116 C 4802.81 1.49022 0.655459 0
M  V30 49117 O 4804 1.71579 0.492219 0
M  V30 49118 C 4801.1 3.28333 0.839677 0
M  V30 49119 C 4800.28 4.3727 0.106597 0
M  V30 49120 C 4799.33 5.16793 0.990535 0
M  V30 49121 O 4798.36 5.67408 0.451316 0
M  V30 49122 N 4799.56 5.32302 2.31591 0
M  V30 49123 H 4802.33 2.85265 -0.918903 0
M  V30 49124 H 4799.89 1.49017 -0.632894 0
M  V30 49125 H 4801.88 3.78418 1.43464 0
M  V30 49126 H 4800.45 2.7261 1.52979 0
M  V30 49127 H 4799.67 3.88476 -0.669353 0
M  V30 49128 H 4800.96 5.07228 -0.399642 0
M  V30 49129 H 4800.36 4.92777 2.77826 0
M  V30 49130 H 4798.91 5.85666 2.86074 0
M  V30 49131 N 4802.35 0.531045 1.48384 0
M  V30 49132 C 4803.59 -0.00267006 2.028 0
M  V30 49133 C 4803.93 -1.33833 1.40721 0
M  V30 49134 O 4803.2 -1.86463 0.553343 0
M  V30 49135 C 4803.48 -0.12355 3.59888 0
M  V30 49136 C 4803.34 1.23736 4.32446 0
M  V30 49137 C 4804.66 -0.849816 4.31817 0
M  V30 49138 H 4801.77 0.000503668 0.737 0
M  V30 49139 H 4804.42 0.68828 1.77095 0
M  V30 49140 H 4802.57 -0.712022 3.81919 0
M  V30 49141 H 4804.24 1.86702 4.21829 0
M  V30 49142 H 4802.48 1.81896 3.93823 0
M  V30 49143 H 4803.15 1.10576 5.40811 0
M  V30 49144 H 4805.63 -0.350426 4.14622 0
M  V30 49145 H 4804.5 -0.903295 5.41416 0
M  V30 49146 H 4804.77 -1.90033 3.99174 0
M  V30 49147 N 4803.82 -1.55335 0.266227 0
M  V30 49148 C 4805.07 -1.98575 -0.353679 0
M  V30 49149 C 4805.39 -1.15795 -1.57642 0
M  V30 49150 O 4806.59 -1.49137 -2.26871 0
M  V30 49151 C 4805.05 -3.53406 -0.680623 0
M  V30 49152 C 4804.66 -4.44951 0.521807 0
M  V30 49153 C 4806.4 -4.05256 -1.26365 0
M  V30 49154 C 4804.31 -5.91156 0.169943 0
M  V30 49155 H 4803.24 -0.741647 -0.135923 0
M  V30 49156 H 4805.89 -1.79742 0.369484 0
M  V30 49157 H 4804.27 -3.68006 -1.46244 0
M  V30 49158 H 4805.44 -4.42116 1.29884 0
M  V30 49159 H 4803.76 -4.03687 1.02107 0
M  V30 49160 H 4806.36 -5.12026 -1.54056 0
M  V30 49161 H 4806.7 -3.53756 -2.19459 0
M  V30 49162 H 4807.23 -3.94059 -0.544308 0
M  V30 49163 H 4803.97 -6.46732 1.06852 0
M  V30 49164 H 4803.49 -5.97081 -0.570507 0
M  V30 49165 H 4805.17 -6.46551 -0.241018 0
M  V30 49166 N 4805.3 0.0066254 -1.57599 0
M  V30 49167 C 4806.21 1.01663 -2.11428 0
M  V30 49168 C 4807.23 1.38139 -1.05799 0
M  V30 49169 O 4808.41 1.47006 -1.37664 0
M  V30 49170 C 4805.47 2.29183 -2.60147 0
M  V30 49171 C 4804.53 1.99081 -3.80349 0
M  V30 49172 C 4803.76 3.2052 -4.26735 0
M  V30 49173 O 4803.99 4.31977 -3.72494 0
M  V30 49174 O 4802.92 3.04906 -5.18957 0
M  V30 49175 H 4806.75 0.589077 -2.97932 0
M  V30 49176 H 4804.33 0.225039 -1.47695 0
M  V30 49177 H 4806.21 3.04109 -2.91711 0
M  V30 49178 H 4804.89 2.71189 -1.76743 0
M  V30 49179 H 4803.8 1.21651 -3.53768 0
M  V30 49180 H 4805.13 1.61915 -4.64806 0
M  V30 49181 N 4806.78 1.55106 0.279278 0
M  V30 49182 C 4808.2 1.46805 0.626136 0
M  V30 49183 C 4808.4 0.677006 1.89786 0
M  V30 49184 O 4807.45 0.193349 2.51759 0
M  V30 49185 C 4808.77 2.90965 0.758931 0
M  V30 49186 C 4810.31 3.01141 0.853398 0
M  V30 49187 C 4810.79 4.46543 1.01802 0
M  V30 49188 N 4812.28 4.50345 1.0837 0
M  V30 49189 C 4813.02 5.60058 1.22976 0
M  V30 49190 N 4812.51 6.7965 1.34342 0
M  V30 49191 N 4814.3 5.47787 1.26037 0
M  V30 49192 H 4806.46 2.04994 -0.555993 0
M  V30 49193 H 4808.72 0.929319 -0.187272 0
M  V30 49194 H 4808.42 3.51543 -0.104975 0
M  V30 49195 H 4808.3 3.39624 1.64119 0
M  V30 49196 H 4810.69 2.40664 1.70778 0
M  V30 49197 H 4810.77 2.55744 -0.0533365 0
M  V30 49198 H 4810.41 5.07621 0.168326 0
M  V30 49199 H 4810.34 4.8959 1.93931 0
M  V30 49200 H 4812.83 3.64194 1.00852 0
M  V30 49201 H 4813.14 7.59017 1.45303 0
M  V30 49202 H 4811.49 6.82474 1.31358 0
M  V30 49203 H 4814.68 4.53298 1.16784 0
M  V30 49204 H 4814.85 6.33336 1.37076 0
M  V30 49205 N 4808.26 -0.543502 1.47932 0
M  V30 49206 C 4809.19 -1.6655 1.56001 0
M  V30 49207 C 4810.17 -1.57313 0.41126 0
M  V30 49208 O 4811.35 -1.77978 0.620985 0
M  V30 49209 C 4808.48 -3.04877 1.47538 0
M  V30 49210 C 4807.53 -3.32517 2.67086 0
M  V30 49211 S 4808.36 -3.20267 4.29173 0
M  V30 49212 C 4809.52 -4.61064 4.23286 0
M  V30 49213 H 4809.75 -1.59453 2.50922 0
M  V30 49214 H 4807.28 -0.725408 1.36298 0
M  V30 49215 H 4809.24 -3.8466 1.43342 0
M  V30 49216 H 4807.9 -3.09427 0.539774 0
M  V30 49217 H 4807.09 -4.33394 2.57266 0
M  V30 49218 H 4806.7 -2.60379 2.68475 0
M  V30 49219 H 4808.99 -5.52305 3.92385 0
M  V30 49220 H 4809.93 -4.7594 5.24296 0
M  V30 49221 H 4810.34 -4.39753 3.53945 0
M  V30 49222 N 4809.74 -1.36293 -0.791323 0
M  V30 49223 C 4810.98 -1.30417 -1.54912 0
M  V30 49224 C 4811.31 0.117093 -1.94147 0
M  V30 49225 O 4810.57 1.08593 -1.62807 0
M  V30 49226 C 4810.87 -2.17078 -2.83922 0
M  V30 49227 C 4810.53 -3.65654 -2.63833 0
M  V30 49228 C 4809.19 -4.06149 -2.58063 0
M  V30 49229 C 4811.55 -4.59863 -2.45306 0
M  V30 49230 C 4808.87 -5.38998 -2.31729 0
M  V30 49231 C 4811.23 -5.92927 -2.20499 0
M  V30 49232 C 4809.89 -6.32549 -2.13161 0
M  V30 49233 H 4809.16 -0.47723 -0.566862 0
M  V30 49234 H 4811.81 -1.68329 -0.913113 0
M  V30 49235 H 4810.11 -1.72097 -3.5198 0
M  V30 49236 H 4811.81 -2.09858 -3.41703 0
M  V30 49237 H 4808.4 -3.33528 -2.69179 0
M  V30 49238 H 4812.58 -4.29452 -2.48767 0
M  V30 49239 H 4807.84 -5.6868 -2.24528 0
M  V30 49240 H 4812.01 -6.65495 -2.05158 0
M  V30 49241 H 4809.64 -7.35419 -1.92518 0
M  V30 49242 N 4811.22 1.01526 -1.20541 0
M  V30 49243 C 4812.15 2.11968 -0.97937 0
M  V30 49244 C 4813.13 1.6985 0.092119 0
M  V30 49245 O 4814.31 1.94089 -0.0656614 0
M  V30 49246 C 4811.44 3.432 -0.532105 0
M  V30 49247 C 4810.4 3.99064 -1.54699 0
M  V30 49248 C 4809.72 5.26079 -0.956312 0
M  V30 49249 C 4811.02 4.32302 -2.93107 0
M  V30 49250 H 4812.72 2.31136 -1.90306 0
M  V30 49251 H 4810.26 1.11076 -0.916411 0
M  V30 49252 H 4812.21 4.19849 -0.361192 0
M  V30 49253 H 4810.94 3.23794 0.427214 0
M  V30 49254 H 4809.6 3.24524 -1.70528 0
M  V30 49255 H 4809.25 5.02999 0.010977 0
M  V30 49256 H 4808.95 5.6442 -1.63413 0
M  V30 49257 H 4810.47 6.05383 -0.796496 0
M  V30 49258 H 4811.88 4.99835 -2.80781 0
M  V30 49259 H 4810.28 4.81761 -3.57808 0
M  V30 49260 H 4811.35 3.41013 -3.44729 0
M  V30 49261 N 4812.69 1.01151 1.20856 0
M  V30 49262 C 4813.64 0.570669 2.25491 0
M  V30 49263 C 4814.64 -0.388051 1.64895 0
M  V30 49264 O 4815.84 -0.25853 1.78134 0
M  V30 49265 H 4812.22 0.166217 0.7334 0
M  V30 49266 H 4814.19 1.4642 2.60007 0
M  V30 49267 C 4812.94 -0.0804019 3.47607 0
M  V30 49268 H 4812.26 0.648295 3.94509 0
M  V30 49269 H 4813.7 -0.352048 4.22536 0
M  V30 49270 C 4812.16 -1.32164 3.09894 0
M  V30 49271 O 4812.69 -2.41542 3.20968 0
M  V30 49272 N 4810.89 -1.20383 2.64493 0
M  V30 49273 H 4810.44 -0.313815 2.55681 0
M  V30 49274 H 4810.4 -2.03532 2.39629 0
M  V30 49275 N 4814.17 -1.36538 0.787088 0
M  V30 49276 C 4815.12 -2.30081 0.181982 0
M  V30 49277 C 4816.09 -1.51862 -0.672843 0
M  V30 49278 O 4817.27 -1.80377 -0.622009 0
M  V30 49279 C 4814.41 -3.38353 -0.679078 0
M  V30 49280 C 4813.53 -4.31564 0.194034 0
M  V30 49281 C 4812.66 -5.26917 -0.673179 0
M  V30 49282 C 4811.7 -6.11768 0.20153 0
M  V30 49283 N 4810.84 -6.99317 -0.624532 0
M  V30 49284 H 4815.68 -2.81245 0.985163 0
M  V30 49285 H 4813.21 -1.38436 0.497391 0
M  V30 49286 H 4815.17 -3.99771 -1.19327 0
M  V30 49287 H 4813.8 -2.88516 -1.44771 0
M  V30 49288 H 4812.85 -3.7132 0.826174 0
M  V30 49289 H 4814.17 -4.91188 0.868109 0
M  V30 49290 H 4813.32 -5.93614 -1.25327 0
M  V30 49291 H 4812.06 -4.67742 -1.38089 0
M  V30 49292 H 4811.06 -5.44036 0.79404 0
M  V30 49293 H 4812.29 -6.73018 0.906804 0
M  V30 49294 H 4810.24 -6.42653 -1.31657 0
M  V30 49295 H 4810.15 -7.56 -0.0080866 0
M  V30 49296 H 4811.42 -7.70386 -1.18852 0
M  V30 49297 N 4815.65 -0.538906 -1.481 0
M  V30 49298 C 4816.88 -0.0123863 -2.06896 0
M  V30 49299 C 4817.29 1.27307 -1.39421 0
M  V30 49300 O 4816.65 1.75947 -0.484644 0
M  V30 49301 C 4816.7 0.205992 -3.60913 0
M  V30 49302 O 4816.42 -1.02855 -4.25855 0
M  V30 49303 C 4817.92 0.77188 -4.36528 0
M  V30 49304 H 4815.14 -0.0375474 -0.669949 0
M  V30 49305 H 4817.69 -0.747099 -1.90365 0
M  V30 49306 H 4815.84 0.890777 -3.7702 0
M  V30 49307 H 4816.26 -0.814836 -5.18132 0
M  V30 49308 H 4817.73 0.874059 -5.45036 0
M  V30 49309 H 4818.21 1.7789 -4.01562 0
M  V30 49310 H 4818.81 0.123376 -4.25121 0
M  V30 49311 N 4817.13 1.55192 -0.274461 0
M  V30 49312 C 4818.08 2.23926 0.629283 0
M  V30 49313 C 4819.07 1.23606 1.15836 0
M  V30 49314 O 4820.28 1.41539 1.11206 0
M  V30 49315 H 4816.65 0.718644 0.221482 0
M  V30 49316 H 4818.62 2.98388 0.0267273 0
M  V30 49317 C 4817.37 2.97336 1.80241 0
M  V30 49318 H 4816.69 3.74318 1.40449 0
M  V30 49319 H 4818.13 3.48751 2.4114 0
M  V30 49320 C 4816.59 2.0277 2.69047 0
M  V30 49321 O 4817.12 1.57849 3.69387 0
M  V30 49322 N 4815.33 1.69284 2.36202 0
M  V30 49323 H 4814.88 2.0601 1.54654 0
M  V30 49324 H 4814.83 1.06281 2.95891 0
M  V30 49325 N 4818.61 0.00173253 1.576 0
M  V30 49326 C 4819.55 -0.989121 2.08531 0
M  V30 49327 C 4820.52 -1.34028 0.981112 0
M  V30 49328 O 4821.71 -1.43834 1.25365 0
M  V30 49329 C 4818.85 -2.27528 2.59471 0
M  V30 49330 C 4817.96 -1.983 3.83798 0
M  V30 49331 C 4817.1 -3.2101 4.23233 0
M  V30 49332 C 4816.13 -2.87476 5.40392 0
M  V30 49333 N 4815.27 -4.02728 5.75112 0
M  V30 49334 H 4820.11 -0.54787 2.9292 0
M  V30 49335 H 4817.65 -0.258866 1.44804 0
M  V30 49336 H 4819.61 -3.02719 2.87084 0
M  V30 49337 H 4818.24 -2.69319 1.77953 0
M  V30 49338 H 4817.29 -1.1347 3.63082 0
M  V30 49339 H 4818.6 -1.69584 4.69087 0
M  V30 49340 H 4817.75 -4.04545 4.52137 0
M  V30 49341 H 4816.49 -3.52865 3.36657 0
M  V30 49342 H 4815.5 -2.02349 5.11209 0
M  V30 49343 H 4816.72 -2.56867 6.28646 0
M  V30 49344 H 4814.67 -4.34477 4.91494 0
M  V30 49345 H 4814.59 -3.77543 6.54979 0
M  V30 49346 H 4815.85 -4.87047 6.08609 0
M  V30 49347 N 4820.08 -1.55252 -0.271048 0
M  V30 49348 C 4820.99 -1.91365 -1.35708 0
M  V30 49349 C 4822.01 -0.811129 -1.53937 0
M  V30 49350 O 4823.19 -1.11037 -1.68026 0
M  V30 49351 C 4820.25 -2.1799 -2.69595 0
M  V30 49352 C 4819.31 -3.41539 -2.60095 0
M  V30 49353 C 4818.55 -3.66884 -3.87597 0
M  V30 49354 O 4818.77 -2.94706 -4.88369 0
M  V30 49355 O 4817.7 -4.60419 -3.87683 0
M  V30 49356 H 4821.53 -2.83818 -1.08078 0
M  V30 49357 H 4819.11 -1.41823 -0.469742 0
M  V30 49358 H 4821 -2.36531 -3.48757 0
M  V30 49359 H 4819.67 -1.28719 -2.97007 0
M  V30 49360 H 4818.58 -3.28332 -1.79302 0
M  V30 49361 H 4819.91 -4.31036 -2.37632 0
M  V30 49362 N 4821.56 0.535649 -1.48218 0
M  V30 49363 C 4822.79 1.31666 -1.59599 0
M  V30 49364 C 4823.21 1.87082 -0.254122 0
M  V30 49365 O 4822.56 1.66114 0.755795 0
M  V30 49366 C 4822.61 2.47149 -2.63817 0
M  V30 49367 O 4822.33 1.94018 -3.92796 0
M  V30 49368 C 4823.84 3.39052 -2.85585 0
M  V30 49369 H 4821.06 0.400604 -0.538291 0
M  V30 49370 H 4823.6 0.646758 -1.94003 0
M  V30 49371 H 4821.75 3.10035 -2.32287 0
M  V30 49372 H 4822.17 2.69569 -4.49925 0
M  V30 49373 H 4823.64 4.16446 -3.62321 0
M  V30 49374 H 4824.12 3.93934 -1.94198 0
M  V30 49375 H 4824.73 2.81964 -3.18397 0
M  V30 49376 N 4823.04 1.36711 0.784084 0
M  V30 49377 C 4824.29 1.30565 1.53739 0
M  V30 49378 C 4824.6 -0.111305 1.95283 0
M  V30 49379 O 4825.81 -0.295175 2.69891 0
M  V30 49380 C 4824.26 2.29108 2.77557 0
M  V30 49381 C 4823.87 3.76267 2.43161 0
M  V30 49382 C 4825.62 2.31949 3.55528 0
M  V30 49383 C 4823.52 4.66573 3.63406 0
M  V30 49384 H 4822.45 0.485201 0.577145 0
M  V30 49385 H 4825.1 1.62104 0.859924 0
M  V30 49386 H 4823.49 1.9057 3.4713 0
M  V30 49387 H 4824.66 4.23571 1.8145 0
M  V30 49388 H 4822.98 3.76253 1.7839 0
M  V30 49389 H 4825.57 2.96626 4.44879 0
M  V30 49390 H 4825.92 1.32954 3.94498 0
M  V30 49391 H 4826.45 2.69131 2.92939 0
M  V30 49392 H 4823.19 5.6665 3.29527 0
M  V30 49393 H 4822.71 4.23981 4.24264 0
M  V30 49394 H 4824.39 4.83105 4.3037 0
M  V30 49395 N 4824.52 -1.00885 1.21078 0
M  V30 49396 C 4825.77 -1.74016 1.01987 0
M  V30 49397 C 4826.08 -1.9041 -0.447598 0
M  V30 49398 O 4827.29 -2.60709 -0.757815 0
M  V30 49399 C 4825.74 -3.13019 1.77614 0
M  V30 49400 C 4825.35 -3.04611 3.28506 0
M  V30 49401 C 4827.09 -3.90306 1.66918 0
M  V30 49402 C 4825 -4.38671 3.96638 0
M  V30 49403 H 4823.93 -0.652409 0.377994 0
M  V30 49404 H 4826.58 -1.1275 1.44775 0
M  V30 49405 H 4824.96 -3.74873 1.27617 0
M  V30 49406 H 4826.14 -2.52019 3.85776 0
M  V30 49407 H 4824.45 -2.40815 3.39701 0
M  V30 49408 H 4827.05 -4.89502 2.15155 0
M  V30 49409 H 4827.39 -4.11555 0.626725 0
M  V30 49410 H 4827.93 -3.35097 2.14371 0
M  V30 49411 H 4824.67 -4.22623 5.01069 0
M  V30 49412 H 4824.19 -4.91239 3.44157 0
M  V30 49413 H 4825.86 -5.07486 4.01332 0
M  V30 49414 N 4826 -1.01791 -1.20318 0
M  V30 49415 C 4826.94 -0.582619 -2.25185 0
M  V30 49416 C 4827.94 0.379301 -1.65099 0
M  V30 49417 O 4829.14 0.249079 -1.78268 0
M  V30 49418 H 4825.52 -0.170104 -0.732508 0
M  V30 49419 H 4827.49 -1.47797 -2.59227 0
M  V30 49420 C 4826.24 0.0619663 -3.47645 0
M  V30 49421 H 4825.56 -0.669208 -3.94159 0
M  V30 49422 H 4827 0.329635 -4.22717 0
M  V30 49423 C 4825.46 1.30519 -3.1059 0
M  V30 49424 O 4825.99 2.39836 -3.22244 0
M  V30 49425 N 4824.2 1.18979 -2.65127 0
M  V30 49426 H 4823.74 0.300251 -2.55844 0
M  V30 49427 H 4823.7 2.02259 -2.40705 0
M  V30 49428 N 4827.47 1.36119 -0.794317 0
M  V30 49429 C 4828.42 2.27372 -0.169097 0
M  V30 49430 C 4829.41 1.47192 0.649861 0
M  V30 49431 O 4830.6 1.69519 0.509131 0
M  V30 49432 C 4827.73 3.36267 0.691337 0
M  V30 49433 C 4826.82 4.2388 -0.136679 0
M  V30 49434 N 4827.21 4.91514 -1.19362 0
M  V30 49435 C 4825.5 4.45921 0.0836932 0
M  V30 49436 C 4826.21 5.56363 -1.6981 0
M  V30 49437 N 4825.18 5.342 -1.00652 0
M  V30 49438 H 4828.98 2.77151 -0.977995 0
M  V30 49439 H 4826.5 1.49502 -0.63426 0
M  V30 49440 H 4828.49 4.00576 1.1552 0
M  V30 49441 H 4827.15 2.88042 1.49872 0
M  V30 49442 H 4828.17 4.93334 -1.57612 0
M  V30 49443 H 4824.84 4.08521 0.861197 0
M  V30 49444 H 4826.23 6.20359 -2.58077 0
M  V30 49445 N 4828.95 0.546753 1.47812 0
M  V30 49446 C 4830.37 0.205772 1.58268 0
M  V30 49447 C 4830.57 -1.29148 1.54671 0
M  V30 49448 O 4829.62 -2.07093 1.4446 0
M  V30 49449 C 4830.94 0.823167 2.89214 0
M  V30 49450 C 4832.49 0.793434 3.02777 0
M  V30 49451 C 4832.96 1.38971 4.36407 0
M  V30 49452 N 4834.45 1.35242 4.43017 0
M  V30 49453 C 4835.19 1.78352 5.44957 0
M  V30 49454 N 4834.68 2.29269 6.53764 0
M  V30 49455 N 4836.48 1.69486 5.35939 0
M  V30 49456 H 4828.63 1.51965 1.48393 0
M  V30 49457 H 4830.89 0.633103 0.705609 0
M  V30 49458 H 4830.6 1.875 2.97551 0
M  V30 49459 H 4830.47 0.310047 3.75924 0
M  V30 49460 H 4832.86 -0.249681 2.94042 0
M  V30 49461 H 4832.94 1.3442 2.17635 0
M  V30 49462 H 4832.58 2.43184 4.45897 0
M  V30 49463 H 4832.51 0.814474 5.20263 0
M  V30 49464 H 4835 0.979868 3.64975 0
M  V30 49465 H 4835.32 2.60114 7.27709 0
M  V30 49466 H 4833.66 2.33273 6.54682 0
M  V30 49467 H 4836.85 1.29493 4.49833 0
M  V30 49468 H 4837.02 2.03402 6.15249 0
M  V30 49469 N 4830.43 -1.55044 0.282687 0
M  V30 49470 C 4831.36 -2.25792 -0.594987 0
M  V30 49471 C 4832.34 -1.25078 -1.1528 0
M  V30 49472 O 4833.53 -1.53814 -1.18553 0
M  V30 49473 C 4830.66 -2.98478 -1.77562 0
M  V30 49474 C 4829.61 -4.06185 -1.349 0
M  V30 49475 C 4828.94 -4.66486 -2.61333 0
M  V30 49476 C 4830.24 -5.19962 -0.493639 0
M  V30 49477 H 4831.93 -2.994 -0.00495128 0
M  V30 49478 H 4829.48 -1.44 -0.000941378 0
M  V30 49479 H 4831.43 -3.46685 -2.39556 0
M  V30 49480 H 4830.15 -2.22418 -2.3916 0
M  V30 49481 H 4828.81 -3.588 -0.752212 0
M  V30 49482 H 4828.46 -3.87086 -3.21207 0
M  V30 49483 H 4828.16 -5.39215 -2.33497 0
M  V30 49484 H 4829.68 -5.17446 -3.24163 0
M  V30 49485 H 4831.1 -5.64175 -1.01878 0
M  V30 49486 H 4829.5 -5.993 -0.309836 0
M  V30 49487 H 4830.57 -4.82461 0.485763 0
M  V30 49488 N 4831.91 -0.0100904 -1.57597 0
M  V30 49489 C 4833.32 0.531363 -1.78979 0
M  V30 49490 C 4833.67 1.73372 -0.918515 0
M  V30 49491 O 4832.8 2.16046 -0.123711 0
M  V30 49492 C 4833.39 0.970745 -3.24595 0
M  V30 49493 C 4831.95 1.45744 -3.47039 0
M  V30 49494 C 4831.1 0.413288 -2.74203 0
M  V30 49495 H 4834.05 -0.236221 -1.56932 0
M  V30 49496 H 4834.07 1.83621 -3.33262 0
M  V30 49497 H 4833.58 0.0954529 -3.87983 0
M  V30 49498 H 4831.68 2.35329 -2.88879 0
M  V30 49499 H 4831.79 1.47794 -4.55734 0
M  V30 49500 H 4830.16 0.877182 -2.39118 0
M  V30 49501 H 4830.94 -0.453211 -3.40295 0
M  V30 49502 N 4833.39 1.55393 0.262811 0
M  V30 49503 C 4834.35 1.88186 1.30839 0
M  V30 49504 C 4835.35 0.757129 1.4186 0
M  V30 49505 O 4836.54 1.02524 1.40835 0
M  V30 49506 C 4833.67 2.09618 2.68836 0
M  V30 49507 H 4834.86 2.81662 1.02987 0
M  V30 49508 H 4832.42 1.48041 0.501362 0
M  V30 49509 H 4833.15 1.18557 3.01852 0
M  V30 49510 H 4832.94 2.91517 2.62221 0
M  V30 49511 H 4834.43 2.36227 3.44364 0
M  V30 49512 N 4834.87 -0.527781 1.485 0
M  V30 49513 C 4835.83 -1.61433 1.62702 0
M  V30 49514 C 4836.83 -1.52823 0.50019 0
M  V30 49515 O 4838.02 -1.56453 0.766031 0
M  V30 49516 C 4835.15 -3.01058 1.59928 0
M  V30 49517 H 4836.34 -1.5018 2.59588 0
M  V30 49518 H 4833.9 -0.750007 1.3713 0
M  V30 49519 H 4834.63 -3.17816 0.645275 0
M  V30 49520 H 4834.42 -3.08717 2.41736 0
M  V30 49521 H 4835.91 -3.80051 1.73064 0
M  V30 49522 N 4836.34 -1.37125 -0.776822 0
M  V30 49523 C 4837.25 -1.34658 -1.92105 0
M  V30 49524 C 4838.27 -0.246884 -1.7224 0
M  V30 49525 O 4839.45 -0.481409 -1.95562 0
M  V30 49526 C 4836.51 -1.14759 -3.27156 0
M  V30 49527 C 4835.57 -2.34321 -3.59711 0
M  V30 49528 C 4834.8 -2.15362 -4.88318 0
M  V30 49529 O 4835.03 -1.13527 -5.58988 0
M  V30 49530 O 4833.96 -3.03433 -5.1982 0
M  V30 49531 H 4837.79 -2.3102 -1.97138 0
M  V30 49532 H 4835.37 -1.17802 -0.91886 0
M  V30 49533 H 4837.25 -1.05631 -4.07946 0
M  V30 49534 H 4835.93 -0.214675 -3.22987 0
M  V30 49535 H 4834.84 -2.49021 -2.79177 0
M  V30 49536 H 4836.17 -3.26162 -3.68618 0
M  V30 49537 N 4837.82 1.00242 -1.21611 0
M  V30 49538 C 4839.05 1.78163 -1.06173 0
M  V30 49539 C 4839.47 1.84139 0.38397 0
M  V30 49540 O 4838.83 1.28688 1.27707 0
M  V30 49541 C 4838.88 3.1978 -1.66653 0
M  V30 49542 O 4837.98 4.0215 -0.913755 0
M  V30 49543 H 4837.32 0.548987 -0.37351 0
M  V30 49544 H 4839.85 1.25988 -1.61208 0
M  V30 49545 H 4839.86 3.70445 -1.70982 0
M  V30 49546 H 4838.54 3.14745 -2.71861 0
M  V30 49547 H 4837.11 3.60707 -0.945761 0
M  V30 49548 N 4839.3 1.02428 1.19776 0
M  V30 49549 C 4840.23 0.621649 2.25073 0
M  V30 49550 C 4841.21 -0.36709 1.66092 0
M  V30 49551 O 4842.4 -0.250824 1.92573 0
M  V30 49552 C 4839.53 -0.0330605 3.47284 0
M  V30 49553 C 4838.48 0.877471 4.18909 0
M  V30 49554 C 4837.81 0.0881175 5.34627 0
M  V30 49555 C 4839.11 2.18909 4.74211 0
M  V30 49556 H 4840.8 1.50188 2.59006 0
M  V30 49557 H 4838.35 0.723591 1.245 0
M  V30 49558 H 4840.3 -0.32634 4.20134 0
M  V30 49559 H 4839.02 -0.948055 3.12537 0
M  V30 49560 H 4837.68 1.15487 3.47934 0
M  V30 49561 H 4837.33 -0.828766 4.96125 0
M  V30 49562 H 4837.03 0.694564 5.83481 0
M  V30 49563 H 4838.55 -0.198529 6.10277 0
M  V30 49564 H 4839.97 1.95765 5.3884 0
M  V30 49565 H 4838.36 2.74705 5.33533 0
M  V30 49566 H 4839.43 2.84688 3.92531 0
M  V30 49567 N 4840.78 -1.35696 0.801525 0
M  V30 49568 C 4841.74 -2.28198 0.214074 0
M  V30 49569 C 4842.74 -1.49361 -0.595638 0
M  V30 49570 O 4843.93 -1.69188 -0.414862 0
M  V30 49571 C 4841.06 -3.3359 -0.702179 0
M  V30 49572 H 4842.26 -2.81663 1.02986 0
M  V30 49573 H 4839.81 -1.45465 0.57181 0
M  V30 49574 H 4840.54 -2.85302 -1.54185 0
M  V30 49575 H 4840.33 -3.91906 -0.123347 0
M  V30 49576 H 4841.82 -4.02641 -1.10768 0
M  V30 49577 N 4842.26 -0.554584 -1.4752 0
M  V30 49578 C 4843.5 -0.029594 -2.02778 0
M  V30 49579 C 4843.83 1.31577 -1.42832 0
M  V30 49580 O 4843.11 1.85559 -0.582938 0
M  V30 49581 C 4843.39 0.0662791 -3.60039 0
M  V30 49582 C 4843.25 -1.306 -4.30423 0
M  V30 49583 C 4844.56 0.78101 -4.33115 0
M  V30 49584 H 4841.68 -0.0122286 -0.736899 0
M  V30 49585 H 4844.33 -0.716367 -1.75978 0
M  V30 49586 H 4842.48 0.651172 -3.83004 0
M  V30 49587 H 4844.15 -1.93389 -4.18806 0
M  V30 49588 H 4842.39 -1.88138 -3.90879 0
M  V30 49589 H 4843.06 -1.19166 -5.38984 0
M  V30 49590 H 4845.54 0.284419 -4.15127 0
M  V30 49591 H 4844.41 0.817046 -5.42785 0
M  V30 49592 H 4844.67 1.83658 -4.02147 0
M  V30 49593 N 4843.73 1.54892 -0.290906 0
M  V30 49594 C 4845.01 1.91993 0.373922 0
M  V30 49595 C 4845.39 1.217 1.72488 0
M  V30 49596 O 4844.74 0.349249 2.25815 0
M  V30 49597 C 4844.95 3.4542 0.498581 0
M  V30 49598 C 4846.3 4.17483 0.774152 0
M  V30 49599 O 4847.32 3.514 0.582784 0
M  V30 49600 O 4846.18 5.34454 1.14111 0
M  V30 49601 H 4843.27 0.800601 0.207287 0
M  V30 49602 H 4845.82 1.66295 -0.338222 0
M  V30 49603 H 4844.59 3.88686 -0.451529 0
M  V30 49604 H 4844.21 3.77121 1.25958 0
M  V30 49605 N 4845.21 0.018448 1.57589 0
M  V30 49606 C 4846.46 -0.657745 1.92471 0
M  V30 49607 C 4846.81 -1.70346 0.894434 0
M  V30 49608 O 4846.11 -1.91384 -0.0909716 0
M  V30 49609 C 4846.3 -1.32665 3.31866 0
M  V30 49610 C 4846.13 -0.347246 4.48357 0
M  V30 49611 C 4844.9 0.0490429 5.05276 0
M  V30 49612 C 4847.1 0.394111 5.12788 0
M  V30 49613 N 4845.08 1.02473 6.05287 0
M  V30 49614 C 4846.45 1.22389 6.078 0
M  V30 49615 C 4848.5 0.455964 4.95808 0
M  V30 49616 C 4847.21 2.10991 6.87659 0
M  V30 49617 C 4849.23 1.32928 5.76267 0
M  V30 49618 C 4848.6 2.14686 6.70887 0
M  V30 49619 H 4844.69 -0.213324 0.752341 0
M  V30 49620 H 4847.28 0.083123 1.94522 0
M  V30 49621 H 4845.45 -2.03771 3.30654 0
M  V30 49622 H 4847.18 -1.95901 3.54126 0
M  V30 49623 H 4843.94 -0.32319 4.72496 0
M  V30 49624 H 4844.36 1.50849 6.5998 0
M  V30 49625 H 4849 -0.161868 4.2249 0
M  V30 49626 H 4846.72 2.73833 7.6029 0
M  V30 49627 H 4850.31 1.38129 5.65165 0
M  V30 49628 H 4849.19 2.81169 7.32061 0
M  V30 49629 N 4846.69 -1.5553 -0.254567 0
M  V30 49630 C 4847.94 -1.77265 -0.985131 0
M  V30 49631 C 4848.27 -0.582351 -1.85263 0
M  V30 49632 O 4847.54 0.419599 -1.8992 0
M  V30 49633 C 4847.83 -3.08817 -1.85214 0
M  V30 49634 C 4847.68 -4.38237 -1.01334 0
M  V30 49635 C 4849 -3.3654 -2.836 0
M  V30 49636 H 4846.12 -0.644919 -0.356719 0
M  V30 49637 H 4848.76 -1.88265 -0.256169 0
M  V30 49638 H 4846.91 -2.9957 -2.47366 0
M  V30 49639 H 4848.58 -4.59464 -0.411108 0
M  V30 49640 H 4846.82 -4.32637 -0.317422 0
M  V30 49641 H 4847.5 -5.2665 -1.6536 0
M  V30 49642 H 4849.97 -3.45699 -2.31584 0
M  V30 49643 H 4848.85 -4.29817 -3.41392 0
M  V30 49644 H 4849.11 -2.57077 -3.59672 0
M  V30 49645 N 4848.17 0.519898 -1.48778 0
M  V30 49646 C 4849.39 1.30441 -1.61245 0
M  V30 49647 C 4849.82 1.86054 -0.276656 0
M  V30 49648 O 4849.18 1.64917 0.753125 0
M  V30 49649 C 4849.22 2.42397 -2.66976 0
M  V30 49650 O 4848.33 3.4572 -2.24836 0
M  V30 49651 H 4847.67 0.385905 -0.540345 0
M  V30 49652 H 4850.2 0.624504 -1.94836 0
M  V30 49653 H 4850.21 2.88437 -2.88562 0
M  V30 49654 H 4848.88 2.01282 -3.63949 0
M  V30 49655 H 4847.46 3.05729 -2.13505 0
M  V30 49656 N 4849.65 1.37535 0.769539 0
M  V30 49657 C 4851.06 1.18383 1.07041 0
M  V30 49658 C 4851.26 0.021502 2.01489 0
M  V30 49659 O 4850.32 -0.637723 2.44314 0
M  V30 49660 C 4851.63 2.50344 1.66579 0
M  V30 49661 C 4853.18 2.56886 1.78826 0
M  V30 49662 C 4853.65 3.88983 2.41778 0
M  V30 49663 N 4855.15 3.90436 2.49226 0
M  V30 49664 C 4855.88 4.89399 2.98792 0
M  V30 49665 N 4855.38 5.98757 3.48514 0
M  V30 49666 N 4857.17 4.76801 2.97686 0
M  V30 49667 H 4849.32 2.11922 0.142467 0
M  V30 49668 H 4851.58 0.939612 0.12583 0
M  V30 49669 H 4851.29 3.3577 1.04648 0
M  V30 49670 H 4851.16 2.67592 2.65846 0
M  V30 49671 H 4853.55 1.71865 2.39889 0
M  V30 49672 H 4853.63 2.43519 0.78308 0
M  V30 49673 H 4853.28 4.74419 1.81354 0
M  V30 49674 H 4853.21 3.99654 3.42906 0
M  V30 49675 H 4855.7 3.1144 2.14041 0
M  V30 49676 H 4856.01 6.70218 3.84743 0
M  V30 49677 H 4854.35 6.02399 3.46613 0
M  V30 49678 H 4857.55 3.90487 2.58143 0
M  V30 49679 H 4857.72 5.5408 3.36004 0
M  V30 49680 N 4851.12 -0.995956 1.22141 0
M  V30 49681 C 4852.07 -2.08548 0.98876 0
M  V30 49682 C 4853.04 -1.65864 -0.0884438 0
M  V30 49683 O 4854.23 -1.90704 0.0605259 0
M  V30 49684 C 4851.37 -3.40372 0.569311 0
M  V30 49685 C 4850.48 -3.96415 1.71695 0
M  V30 49686 C 4849.61 -5.16385 1.24578 0
M  V30 49687 C 4848.65 -5.64558 2.36517 0
M  V30 49688 N 4847.79 -6.75771 1.90469 0
M  V30 49689 H 4852.63 -2.27783 1.92143 0
M  V30 49690 H 4850.17 -1.11677 0.957427 0
M  V30 49691 H 4852.13 -4.16067 0.307313 0
M  V30 49692 H 4850.76 -3.21146 -0.326349 0
M  V30 49693 H 4849.81 -3.17621 2.09335 0
M  V30 49694 H 4851.12 -4.28151 2.55906 0
M  V30 49695 H 4850.27 -5.99358 0.940985 0
M  V30 49696 H 4849.01 -4.86265 0.373833 0
M  V30 49697 H 4848.02 -4.80176 2.67789 0
M  V30 49698 H 4849.24 -5.96705 3.24223 0
M  V30 49699 H 4847.19 -6.4744 1.05631 0
M  V30 49700 H 4847.11 -7.06809 2.68248 0
M  V30 49701 H 4848.37 -7.62257 1.63049 0
M  V30 49702 N 4852.6 -1.03061 -1.19231 0
M  V30 49703 C 4853.53 -0.633576 -2.2474 0
M  V30 49704 C 4854.51 0.358276 -1.66284 0
M  V30 49705 O 4855.7 0.240608 -1.92704 0
M  V30 49706 C 4852.83 0.0146427 -3.47297 0
M  V30 49707 C 4851.78 -0.899674 -4.18437 0
M  V30 49708 C 4851.11 -0.116469 -5.34573 0
M  V30 49709 C 4852.41 -2.2142 -4.73044 0
M  V30 49710 H 4854.1 -1.51559 -2.58206 0
M  V30 49711 H 4851.65 -0.730183 -1.24114 0
M  V30 49712 H 4853.6 0.304055 -4.20302 0
M  V30 49713 H 4852.33 0.931467 -3.13036 0
M  V30 49714 H 4850.98 -1.17331 -3.47317 0
M  V30 49715 H 4850.63 0.802444 -4.96558 0
M  V30 49716 H 4850.33 -0.725498 -5.83104 0
M  V30 49717 H 4851.86 0.166161 -6.10374 0
M  V30 49718 H 4853.27 -1.9862 -5.37795 0
M  V30 49719 H 4851.67 -2.77531 -5.32068 0
M  V30 49720 H 4852.74 -2.86766 -3.91016 0
M  V30 49721 N 4854.08 1.35269 -0.80871 0
M  V30 49722 C 4855.31 2.02651 -0.402024 0
M  V30 49723 C 4855.72 1.61084 0.992406 0
M  V30 49724 O 4855.06 0.805042 1.6512 0
M  V30 49725 C 4855.12 3.57173 -0.408372 0
M  V30 49726 C 4854.79 4.22013 -1.75368 0
M  V30 49727 C 4855.78 4.43542 -2.71231 0
M  V30 49728 C 4853.47 4.59086 -2.03827 0
M  V30 49729 C 4855.46 5.0125 -3.93735 0
M  V30 49730 C 4853.15 5.16507 -3.26594 0
M  V30 49731 C 4854.15 5.37532 -4.21365 0
M  V30 49732 O 4853.84 5.93742 -5.41965 0
M  V30 49733 H 4853.57 0.656489 -0.161239 0
M  V30 49734 H 4856.12 1.73825 -1.09426 0
M  V30 49735 H 4854.35 3.85198 0.340473 0
M  V30 49736 H 4856.04 4.05893 -0.023705 0
M  V30 49737 H 4856.81 4.15279 -2.50536 0
M  V30 49738 H 4852.69 4.42034 -1.3087 0
M  V30 49739 H 4856.23 5.17576 -4.67719 0
M  V30 49740 H 4852.13 5.44198 -3.47158 0
M  V30 49741 H 4852.9 6.12191 -5.43291 0
M  V30 49742 N 4855.56 0.5624 1.47224 0
M  V30 49743 C 4856.8 0.0486008 2.03342 0
M  V30 49744 C 4857.16 -1.28893 1.42844 0
M  V30 49745 O 4856.45 -1.82717 0.576628 0
M  V30 49746 C 4856.65 -0.0968561 3.57269 0
M  V30 49747 C 4856.48 1.22503 4.32693 0
M  V30 49748 C 4855.25 1.79373 4.72391 0
M  V30 49749 C 4857.44 2.14348 4.67503 0
M  V30 49750 N 4855.43 3.05512 5.32481 0
M  V30 49751 C 4856.8 3.25068 5.2795 0
M  V30 49752 C 4858.85 2.14278 4.49432 0
M  V30 49753 C 4857.55 4.35824 5.72233 0
M  V30 49754 C 4859.58 3.2405 4.94718 0
M  V30 49755 C 4858.94 4.33489 5.55217 0
M  V30 49756 H 4855.04 0.0600738 0.779689 0
M  V30 49757 H 4857.63 0.750832 1.7964 0
M  V30 49758 H 4855.8 -0.768219 3.80727 0
M  V30 49759 H 4857.53 -0.613192 4.00028 0
M  V30 49760 H 4854.28 1.33109 4.5451 0
M  V30 49761 H 4854.71 3.6982 5.67064 0
M  V30 49762 H 4859.35 1.30949 4.0201 0
M  V30 49763 H 4857.07 5.1991 6.18643 0
M  V30 49764 H 4860.65 3.2509 4.82502 0
M  V30 49765 H 4859.53 5.17028 5.8962 0
M  V30 49766 N 4857.04 -1.54735 0.299116 0
M  V30 49767 C 4857.97 -2.26411 -0.571005 0
M  V30 49768 C 4858.95 -1.26294 -1.13947 0
M  V30 49769 O 4860.13 -1.55063 -1.16915 0
M  V30 49770 C 4857.26 -3.00345 -1.74386 0
M  V30 49771 C 4856.22 -4.07593 -1.30584 0
M  V30 49772 C 4855.54 -4.69231 -2.56371 0
M  V30 49773 C 4856.84 -5.20456 -0.438462 0
M  V30 49774 H 4858.54 -2.99388 0.0268043 0
M  V30 49775 H 4856.08 -1.43993 0.0143318 0
M  V30 49776 H 4858.04 -3.49207 -2.35866 0
M  V30 49777 H 4856.76 -2.24942 -2.36788 0
M  V30 49778 H 4855.42 -3.59577 -0.714114 0
M  V30 49779 H 4855.07 -3.90471 -3.17083 0
M  V30 49780 H 4854.77 -5.41661 -2.27765 0
M  V30 49781 H 4856.29 -5.20855 -3.18657 0
M  V30 49782 H 4857.7 -5.65224 -0.958887 0
M  V30 49783 H 4856.1 -5.99595 -0.246255 0
M  V30 49784 H 4857.17 -4.81918 0.536907 0
M  V30 49785 N 4858.51 -0.0268051 -1.57577 0
M  V30 49786 C 4859.79 0.690862 -1.82993 0
M  V30 49787 C 4860.17 1.90468 -0.910231 0
M  V30 49788 O 4859.52 2.28474 0.0347182 0
M  V30 49789 C 4859.73 1.07127 -3.32152 0
M  V30 49790 C 4861.08 1.46388 -3.98567 0
M  V30 49791 O 4862.1 1.16431 -3.36634 0
M  V30 49792 O 4860.96 2.02196 -5.0772 0
M  V30 49793 H 4858.05 0.338721 -0.754452 0
M  V30 49794 H 4860.6 -0.0543102 -1.69613 0
M  V30 49795 H 4859.37 0.207256 -3.90751 0
M  V30 49796 H 4859 1.87468 -3.5063 0
M  V30 49797 N 4859.99 1.55663 0.246315 0
M  V30 49798 C 4860.96 1.89563 1.28836 0
M  V30 49799 C 4861.96 0.772132 1.41049 0
M  V30 49800 O 4863.15 1.04012 1.39739 0
M  V30 49801 C 4860.28 2.12458 2.66598 0
M  V30 49802 H 4861.47 2.82739 0.999943 0
M  V30 49803 H 4859.02 1.48564 0.485632 0
M  V30 49804 H 4859.76 1.21752 3.00578 0
M  V30 49805 H 4859.54 2.94282 2.59115 0
M  V30 49806 H 4861.03 2.39866 3.41839 0
M  V30 49807 N 4861.47 -0.512001 1.49051 0
M  V30 49808 C 4862.89 -0.842192 1.3557 0
M  V30 49809 C 4863.09 -1.97877 0.380389 0
M  V30 49810 O 4862.14 -2.5177 -0.191921 0
M  V30 49811 C 4863.46 -1.19276 2.76032 0
M  V30 49812 C 4865 -1.30161 2.84652 0
M  V30 49813 C 4865.48 -1.68553 4.25857 0
M  V30 49814 N 4866.97 -1.75623 4.28615 0
M  V30 49815 C 4867.7 -2.0675 5.34829 0
M  V30 49816 N 4867.2 -2.36178 6.513 0
M  V30 49817 N 4868.99 -2.07909 5.22236 0
M  V30 49818 H 4861.14 0.237648 2.11066 0
M  V30 49819 H 4863.41 0.0437079 0.946992 0
M  V30 49820 H 4863.11 -0.431076 3.49048 0
M  V30 49821 H 4862.99 -2.13878 3.10702 0
M  V30 49822 H 4865.37 -2.05404 2.1188 0
M  V30 49823 H 4865.46 -0.336367 2.53579 0
M  V30 49824 H 4865.1 -0.938648 4.99151 0
M  V30 49825 H 4865.03 -2.66159 4.54387 0
M  V30 49826 H 4867.52 -1.55085 3.44611 0
M  V30 49827 H 4867.83 -2.59087 7.28075 0
M  V30 49828 H 4866.18 -2.33658 6.54545 0
M  V30 49829 H 4869.37 -1.84388 4.30254 0
M  V30 49830 H 4869.54 -2.31835 6.05109 0
M  V30 49831 N 4862.95 -1.37941 -0.762235 0
M  V30 49832 C 4863.88 -1.37183 -1.88953 0
M  V30 49833 C 4864.86 -0.239004 -1.68413 0
M  V30 49834 O 4866.04 -0.440793 -1.89131 0
M  V30 49835 C 4863.17 -1.18754 -3.26366 0
M  V30 49836 C 4862.13 -2.29149 -3.6149 0
M  V30 49837 C 4861.45 -1.95833 -4.97547 0
M  V30 49838 C 4862.75 -3.71376 -3.67257 0
M  V30 49839 H 4864.45 -2.31516 -1.89844 0
M  V30 49840 H 4861.99 -1.11441 -0.911965 0
M  V30 49841 H 4863.95 -1.16851 -4.04875 0
M  V30 49842 H 4862.67 -0.208798 -3.25932 0
M  V30 49843 H 4861.33 -2.30223 -2.85294 0
M  V30 49844 H 4860.98 -0.964648 -4.93663 0
M  V30 49845 H 4860.68 -2.69763 -5.22017 0
M  V30 49846 H 4862.2 -1.95534 -5.78445 0
M  V30 49847 H 4863.62 -3.72379 -4.35898 0
M  V30 49848 H 4862.01 -4.44439 -4.0323 0
M  V30 49849 H 4863.08 -4.04315 -2.67689 0
M  V30 49850 N 4864.43 0.989464 -1.22668 0
M  V30 49851 C 4865.7 1.70323 -0.961748 0
M  V30 49852 C 4866.08 2.04539 0.522207 0
M  V30 49853 O 4865.43 1.73141 1.49112 0
M  V30 49854 C 4865.64 2.95129 -1.86279 0
M  V30 49855 C 4866.99 3.67835 -2.12091 0
M  V30 49856 O 4868.01 3.05143 -1.83755 0
M  V30 49857 O 4866.87 4.80635 -2.601 0
M  V30 49858 H 4863.97 0.743576 -0.361972 0
M  V30 49859 H 4866.51 1.0455 -1.33669 0
M  V30 49860 H 4865.29 2.66372 -2.86639 0
M  V30 49861 H 4864.91 3.6864 -1.48965 0
M  V30 49862 N 4865.91 1.03692 1.18683 0
M  V30 49863 C 4867.15 0.736638 1.88197 0
M  V30 49864 C 4867.47 -0.737602 1.80512 0
M  V30 49865 O 4866.74 -1.53199 1.22093 0
M  V30 49866 H 4865.32 0.269491 0.696695 0
M  V30 49867 H 4867.99 1.31287 1.44047 0
M  V30 49868 H 4867.08 1.03813 2.94329 0
M  V30 49869 N 4867.38 -1.34838 0.815872 0
M  V30 49870 C 4868.31 -2.32186 0.24738 0
M  V30 49871 C 4869.29 -1.57912 -0.632289 0
M  V30 49872 O 4870.48 -1.85932 -0.560633 0
M  V30 49873 C 4867.61 -3.42124 -0.597346 0
M  V30 49874 C 4866.56 -4.27602 0.184597 0
M  V30 49875 C 4865.89 -5.28944 -0.782423 0
M  V30 49876 C 4867.19 -5.03497 1.38883 0
M  V30 49877 H 4868.88 -2.79981 1.06071 0
M  V30 49878 H 4866.43 -1.34609 0.511509 0
M  V30 49879 H 4868.38 -4.09236 -1.00518 0
M  V30 49880 H 4867.11 -2.92961 -1.44366 0
M  V30 49881 H 4865.77 -3.62083 0.57372 0
M  V30 49882 H 4865.41 -4.76045 -1.62449 0
M  V30 49883 H 4865.11 -5.87009 -0.263489 0
M  V30 49884 H 4866.64 -5.98926 -1.18827 0
M  V30 49885 H 4868.05 -5.63502 1.05537 0
M  V30 49886 H 4866.45 -5.71102 1.8429 0
M  V30 49887 H 4867.52 -4.336 2.17069 0
M  V30 49888 N 4868.86 -0.570199 -1.46923 0
M  V30 49889 C 4870.11 -0.0510241 -2.02436 0
M  V30 49890 C 4870.44 1.304 -1.44312 0
M  V30 49891 O 4869.69 1.86491 -0.593264 0
M  V30 49892 C 4869.99 0.0779079 -3.57315 0
M  V30 49893 C 4869.66 -1.2079 -4.3442 0
M  V30 49894 C 4868.32 -1.5602 -4.55204 0
M  V30 49895 C 4870.67 -2.05937 -4.78789 0
M  V30 49896 C 4868 -2.7622 -5.1761 0
M  V30 49897 C 4870.35 -3.25351 -5.42522 0
M  V30 49898 C 4869.01 -3.60878 -5.61536 0
M  V30 49899 H 4868.28 -0.018671 -0.740765 0
M  V30 49900 H 4870.93 -0.744324 -1.76443 0
M  V30 49901 H 4869.24 0.85426 -3.82374 0
M  V30 49902 H 4870.93 0.495172 -3.97931 0
M  V30 49903 H 4867.52 -0.923616 -4.1853 0
M  V30 49904 H 4871.71 -1.80025 -4.62498 0
M  V30 49905 H 4866.96 -3.03898 -5.30524 0
M  V30 49906 H 4871.14 -3.91606 -5.75863 0
M  V30 49907 H 4868.76 -4.5411 -6.09663 0
M  V30 49908 N 4870.34 1.54575 -0.307318 0
M  V30 49909 C 4871.59 2.00561 0.300542 0
M  V30 49910 C 4871.92 1.19535 1.53052 0
M  V30 49911 O 4871.19 0.273438 1.92568 0
M  V30 49912 C 4871.48 3.54169 0.650863 0
M  V30 49913 C 4871.33 4.45931 -0.588696 0
M  V30 49914 C 4872.65 4.1465 1.47491 0
M  V30 49915 H 4869.77 0.729079 0.107763 0
M  V30 49916 H 4872.41 1.85285 -0.420671 0
M  V30 49917 H 4870.56 3.67317 1.26531 0
M  V30 49918 H 4872.23 4.44679 -1.22712 0
M  V30 49919 H 4870.47 4.1627 -1.22073 0
M  V30 49920 H 4871.15 5.51188 -0.299347 0
M  V30 49921 H 4873.62 4.04977 0.955678 0
M  V30 49922 H 4872.5 5.22274 1.6888 0
M  V30 49923 H 4872.76 3.66929 2.46607 0
M  V30 49924 N 4871.82 0.0351614 1.57561 0
M  V30 49925 C 4873.04 -0.655733 1.96761 0
M  V30 49926 C 4873.47 -1.64519 0.911866 0
M  V30 49927 O 4872.83 -1.80857 -0.12661 0
M  V30 49928 C 4872.87 -1.33314 3.35052 0
M  V30 49929 O 4871.98 -2.44855 3.31843 0
M  V30 49930 H 4871.32 -0.171784 0.641394 0
M  V30 49931 H 4873.85 0.0988087 2.04361 0
M  V30 49932 H 4873.86 -1.68854 3.71419 0
M  V30 49933 H 4872.53 -0.607888 4.11434 0
M  V30 49934 H 4871.11 -2.11382 3.07201 0
M  V30 49935 N 4873.3 -1.55792 -0.238056 0
M  V30 49936 C 4874.57 -1.68802 -0.988201 0
M  V30 49937 C 4874.95 -0.577633 -2.03043 0
M  V30 49938 O 4874.3 0.417701 -2.2465 0
M  V30 49939 C 4874.51 -3.09459 -1.61356 0
M  V30 49940 C 4875.86 -3.68343 -2.11208 0
M  V30 49941 O 4876.88 -3.12316 -1.71281 0
M  V30 49942 O 4875.74 -4.6658 -2.84544 0
M  V30 49943 H 4872.84 -0.686897 -0.460544 0
M  V30 49944 H 4875.38 -1.68118 -0.231143 0
M  V30 49945 H 4874.15 -3.81729 -0.860161 0
M  V30 49946 H 4873.78 -3.14191 -2.43659 0
M  V30 49947 N 4874.77 0.504089 -1.49321 0
M  V30 49948 C 4875.7 1.61467 -1.68673 0
M  V30 49949 C 4876.68 1.61453 -0.535435 0
M  V30 49950 O 4877.87 1.78242 -0.77093 0
M  V30 49951 C 4875 2.99965 -1.75038 0
M  V30 49952 C 4873.95 3.14843 -2.89927 0
M  V30 49953 C 4873.28 4.54661 -2.81403 0
M  V30 49954 C 4874.58 2.95161 -4.30903 0
M  V30 49955 H 4876.27 1.45526 -2.61653 0
M  V30 49956 H 4873.82 0.698667 -1.25915 0
M  V30 49957 H 4875.77 3.77555 -1.87163 0
M  V30 49958 H 4874.5 3.16987 -0.786552 0
M  V30 49959 H 4873.16 2.39677 -2.77399 0
M  V30 49960 H 4872.8 4.68555 -1.82934 0
M  V30 49961 H 4872.5 4.65557 -3.58511 0
M  V30 49962 H 4874.03 5.34316 -2.95531 0
M  V30 49963 H 4875.44 3.62523 -4.44129 0
M  V30 49964 H 4873.84 3.17531 -5.09209 0
M  V30 49965 H 4874.91 1.91316 -4.45563 0
M  V30 49966 N 4876.25 1.38343 0.754909 0
M  V30 49967 C 4877.2 1.3558 1.89 0
M  V30 49968 C 4878.19 0.241883 1.67664 0
M  V30 49969 O 4879.4 0.410846 1.75249 0
M  V30 49970 H 4875.77 0.42292 0.621806 0
M  V30 49971 H 4877.75 2.31366 1.88447 0
M  V30 49972 C 4876.49 1.19643 3.26467 0
M  V30 49973 H 4875.82 2.04617 3.4347 0
M  V30 49974 H 4877.26 1.21763 4.0614 0
M  V30 49975 C 4875.72 -0.0967521 3.36761 0
M  V30 49976 O 4876.25 -1.07426 3.87069 0
M  V30 49977 N 4874.45 -0.15314 2.90196 0
M  V30 49978 H 4874 0.642996 2.49446 0
M  V30 49979 H 4873.96 -1.01797 2.97464 0
M  V30 49980 N 4877.73 -0.982945 1.23191 0
M  V30 49981 C 4878.98 -1.72048 1.06037 0
M  V30 49982 C 4879.3 -1.9077 -0.403952 0
M  V30 49983 O 4878.57 -1.47451 -1.28977 0
M  V30 49984 H 4877.15 -0.637485 0.389386 0
M  V30 49985 H 4879.81 -1.18333 1.54866 0
M  V30 49986 H 4878.91 -2.71104 1.54625 0
M  V30 49987 N 4879.21 -1.0432 -1.18132 0
M  V30 49988 C 4880.46 -0.746608 -1.87804 0
M  V30 49989 C 4880.78 0.728018 -1.809 0
M  V30 49990 O 4880.05 1.5255 -1.22904 0
M  V30 49991 H 4878.63 -0.273182 -0.695256 0
M  V30 49992 H 4881.29 -1.32049 -1.43349 0
M  V30 49993 H 4880.39 -1.05372 -2.93774 0
M  V30 49994 N 4880.69 1.34403 -0.823012 0
M  V30 49995 C 4881.64 2.26962 -0.217288 0
M  V30 49996 C 4882.62 1.48538 0.618493 0
M  V30 49997 O 4883.81 1.70561 0.473058 0
M  V30 49998 C 4880.94 3.37658 0.619854 0
M  V30 49999 C 4880.03 4.23494 -0.226559 0
M  V30 50000 N 4880.42 4.88872 -1.29761 0
M  V30 50001 C 4878.72 4.45999 -0.0109122 0
M  V30 50002 C 4879.42 5.52636 -1.81573 0
M  V30 50003 N 4878.39 5.31945 -1.11961 0
M  V30 50004 H 4882.2 2.75014 -1.03656 0
M  V30 50005 H 4879.71 1.48123 -0.665829 0
M  V30 50006 H 4881.71 4.02936 1.06997 0
M  V30 50007 H 4880.37 2.91156 1.43729 0
M  V30 50008 H 4881.38 4.8988 -1.68041 0
M  V30 50009 H 4878.05 4.10256 0.77435 0
M  V30 50010 H 4879.44 6.14746 -2.71178 0
M  V30 50011 N 4882.16 0.577983 1.46619 0
M  V30 50012 C 4883.58 0.239297 1.57796 0
M  V30 50013 C 4883.78 -1.25838 1.57376 0
M  V30 50014 O 4882.84 -2.03982 1.4882 0
M  V30 50015 C 4884.15 0.884328 2.87402 0
M  V30 50016 C 4885.7 0.857479 3.01025 0
M  V30 50017 C 4886.17 1.48196 4.33361 0
M  V30 50018 N 4887.66 1.44609 4.40048 0
M  V30 50019 C 4888.4 1.89871 5.41051 0
M  V30 50020 N 4887.89 2.43085 6.48754 0
M  V30 50021 N 4889.69 1.80816 5.32224 0
M  V30 50022 H 4881.84 1.55078 1.45136 0
M  V30 50023 H 4884.1 0.647928 0.692021 0
M  V30 50024 H 4883.81 1.93769 2.93507 0
M  V30 50025 H 4883.68 0.389717 3.75181 0
M  V30 50026 H 4886.07 -0.187254 2.94505 0
M  V30 50027 H 4886.15 1.39006 2.14735 0
M  V30 50028 H 4885.79 2.52587 4.40638 0
M  V30 50029 H 4885.72 0.924646 5.18419 0
M  V30 50030 H 4888.21 1.05706 3.62815 0
M  V30 50031 H 4888.53 2.75492 7.22028 0
M  V30 50032 H 4886.87 2.47108 6.49587 0
M  V30 50033 H 4890.06 1.39005 4.46985 0
M  V30 50034 H 4890.24 2.16407 6.10796 0
M  V30 50035 N 4883.64 -1.54409 0.315511 0
M  V30 50036 C 4885.06 -1.59556 -0.0374079 0
M  V30 50037 C 4885.26 -1.33222 -1.51175 0
M  V30 50038 O 4884.31 -1.11272 -2.2666 0
M  V30 50039 C 4885.63 -2.9837 0.373582 0
M  V30 50040 C 4887.18 -3.11323 0.323562 0
M  V30 50041 C 4887.65 -4.5247 0.709592 0
M  V30 50042 N 4889.14 -4.58435 0.662685 0
M  V30 50043 C 4889.88 -5.65747 0.933673 0
M  V30 50044 N 4889.37 -6.81034 1.27138 0
M  V30 50045 N 4891.17 -5.55486 0.859769 0
M  V30 50046 H 4883.32 -1.69785 1.2762 0
M  V30 50047 H 4885.58 -0.793714 0.518384 0
M  V30 50048 H 4885.29 -3.22613 1.40049 0
M  V30 50049 H 4885.16 -3.76265 -0.265483 0
M  V30 50050 H 4887.55 -2.8682 -0.694122 0
M  V30 50051 H 4887.63 -2.35552 0.99745 0
M  V30 50052 H 4887.27 -4.77704 1.72515 0
M  V30 50053 H 4887.2 -5.26598 0.0134775 0
M  V30 50054 H 4889.69 -3.75634 0.413197 0
M  V30 50055 H 4890.01 -7.58811 1.46375 0
M  V30 50056 H 4888.35 -6.82551 1.30956 0
M  V30 50057 H 4891.54 -4.64297 0.595487 0
M  V30 50058 H 4891.71 -6.39032 1.07432 0
M  V30 50059 N 4885.12 -0.0435168 -1.5754 0
M  V30 50060 C 4886.05 0.968657 -2.06621 0
M  V30 50061 C 4887.03 1.30865 -0.965046 0
M  V30 50062 O 4888.22 1.42284 -1.23643 0
M  V30 50063 C 4885.34 2.28477 -2.50032 0
M  V30 50064 C 4884.39 2.09838 -3.71309 0
M  V30 50065 S 4885.22 1.38383 -5.17311 0
M  V30 50066 C 4886.38 2.71334 -5.64029 0
M  V30 50067 H 4886.61 0.550918 -2.92151 0
M  V30 50068 H 4884.14 0.168553 -1.53477 0
M  V30 50069 H 4886.1 3.04133 -2.75706 0
M  V30 50070 H 4884.76 2.67381 -1.64821 0
M  V30 50071 H 4883.96 3.0717 -3.99578 0
M  V30 50072 H 4883.56 1.42323 -3.45861 0
M  V30 50073 H 4885.85 3.67529 -5.69147 0
M  V30 50074 H 4886.79 2.47711 -6.63359 0
M  V30 50075 H 4887.2 2.77242 -4.91729 0
M  V30 50076 N 4886.6 1.55916 0.229791 0
M  V30 50077 C 4887.53 1.94758 1.28808 0
M  V30 50078 C 4888.51 0.814709 1.4932 0
M  V30 50079 O 4889.69 1.07636 1.61642 0
M  V30 50080 C 4886.82 2.25714 2.63951 0
M  V30 50081 C 4885.78 3.41415 2.58108 0
M  V30 50082 C 4885.1 3.57955 3.97206 0
M  V30 50083 C 4886.4 4.76623 2.13606 0
M  V30 50084 H 4888.1 2.83407 0.965448 0
M  V30 50085 H 4885.64 1.36354 0.46298 0
M  V30 50086 H 4887.6 2.51478 3.38137 0
M  V30 50087 H 4886.32 1.3391 2.97885 0
M  V30 50088 H 4884.98 3.15687 1.8638 0
M  V30 50089 H 4884.63 2.63541 4.28433 0
M  V30 50090 H 4884.33 4.3577 3.9418 0
M  V30 50091 H 4885.85 3.86059 4.73066 0
M  V30 50092 H 4887.27 5.01647 2.77531 0
M  V30 50093 H 4885.66 5.57663 2.21657 0
M  V30 50094 H 4886.73 4.72534 1.08812 0
M  V30 50095 N 4888.08 -0.496163 1.49586 0
M  V30 50096 C 4889.04 -1.57946 1.6609 0
M  V30 50097 C 4890.04 -1.51727 0.532493 0
M  V30 50098 O 4891.23 -1.54793 0.799045 0
M  V30 50099 C 4888.36 -2.97598 1.66278 0
M  V30 50100 H 4889.55 -1.4464 2.62715 0
M  V30 50101 H 4887.11 -0.720751 1.3869 0
M  V30 50102 H 4887.84 -3.16375 0.712543 0
M  V30 50103 H 4887.63 -3.0352 2.4823 0
M  V30 50104 H 4889.12 -3.76294 1.81087 0
M  V30 50105 N 4889.55 -1.38742 -0.747561 0
M  V30 50106 C 4890.49 -1.32348 -1.87128 0
M  V30 50107 C 4891.5 -0.234559 -1.61101 0
M  V30 50108 O 4892.69 -0.492576 -1.71569 0
M  V30 50109 C 4889.79 -1.02926 -3.22892 0
M  V30 50110 C 4888.96 -2.22847 -3.76375 0
M  V30 50111 C 4888.02 -1.90076 -4.9067 0
M  V30 50112 O 4887.05 -2.62633 -5.04988 0
M  V30 50113 N 4888.25 -0.859343 -5.74104 0
M  V30 50114 H 4891.01 -2.29182 -1.93121 0
M  V30 50115 H 4888.57 -1.32681 -0.927758 0
M  V30 50116 H 4890.57 -0.790449 -3.96906 0
M  V30 50117 H 4889.14 -0.148682 -3.12246 0
M  V30 50118 H 4888.36 -2.62757 -2.93858 0
M  V30 50119 H 4889.64 -3.02865 -4.0884 0
M  V30 50120 H 4889.04 -0.257762 -5.65112 0
M  V30 50121 H 4887.6 -0.680417 -6.48239 0
M  V30 50122 N 4891.03 0.976398 -1.2371 0
M  V30 50123 C 4891.98 2.05437 -0.988923 0
M  V30 50124 C 4892.97 1.60762 0.0665336 0
M  V30 50125 O 4894.16 1.76396 -0.146102 0
M  V30 50126 C 4891.29 3.38256 -0.586342 0
M  V30 50127 C 4890.37 3.89517 -1.67741 0
M  V30 50128 N 4890.76 4.13812 -2.90849 0
M  V30 50129 C 4889.06 4.18091 -1.55292 0
M  V30 50130 C 4889.76 4.55719 -3.61518 0
M  V30 50131 N 4888.74 4.60384 -2.89046 0
M  V30 50132 H 4892.54 2.22184 -1.92383 0
M  V30 50133 H 4890.06 1.1595 -1.13708 0
M  V30 50134 H 4892.05 4.15074 -0.389804 0
M  V30 50135 H 4890.71 3.22899 0.34148 0
M  V30 50136 H 4891.72 4.01518 -3.27115 0
M  V30 50137 H 4888.4 4.11717 -0.692495 0
M  V30 50138 H 4889.79 4.83001 -4.67076 0
M  V30 50139 N 4892.51 1.04945 1.17577 0
M  V30 50140 C 4893.75 0.767062 1.89461 0
M  V30 50141 C 4894.11 -0.69306 1.79055 0
M  V30 50142 O 4895.32 -1.08944 2.45733 0
M  V30 50143 C 4893.59 1.2312 3.35524 0
M  V30 50144 S 4895.15 1.0758 4.25408 0
M  V30 50145 H 4891.96 0.278639 0.654126 0
M  V30 50146 H 4894.57 1.34357 1.42016 0
M  V30 50147 H 4893.27 2.28908 3.40631 0
M  V30 50148 H 4892.8 0.64886 3.88012 0
M  V30 50149 H 4894.82 -0.00152023 4.962 0
M  V30 50150 N 4893.99 -1.33965 0.830128 0
M  V30 50151 C 4895.24 -1.98355 0.422261 0
M  V30 50152 C 4895.57 -1.65636 -1.01382 0
M  V30 50153 O 4894.84 -0.931708 -1.70732 0
M  V30 50154 C 4895.13 -3.5449 0.633168 0
M  V30 50155 C 4894.98 -3.96926 2.11588 0
M  V30 50156 C 4896.3 -4.40038 0.0737131 0
M  V30 50157 H 4893.42 -0.720539 0.154896 0
M  V30 50158 H 4896.06 -1.58745 1.04403 0
M  V30 50159 H 4894.21 -3.88361 0.103911 0
M  V30 50160 H 4895.88 -3.73354 2.70933 0
M  V30 50161 H 4894.12 -3.46975 2.60366 0
M  V30 50162 H 4894.8 -5.05644 2.21424 0
M  V30 50163 H 4897.27 -4.12762 0.525996 0
M  V30 50164 H 4896.15 -5.48326 0.251034 0
M  V30 50165 H 4896.41 -4.30128 -1.02187 0
M  V30 50166 N 4895.47 -0.585751 -1.4631 0
M  V30 50167 C 4896.74 -0.00548907 -1.95599 0
M  V30 50168 C 4897.12 1.45614 -1.52839 0
M  V30 50169 O 4896.47 2.14756 -0.780521 0
M  V30 50170 C 4896.68 -0.180723 -3.48532 0
M  V30 50171 C 4898.03 -0.0501283 -4.2457 0
M  V30 50172 O 4899.05 -0.109715 -3.56031 0
M  V30 50173 O 4897.91 0.0830305 -5.46437 0
M  V30 50174 H 4895.01 0.048099 -0.8256 0
M  V30 50175 H 4897.55 -0.654282 -1.5658 0
M  V30 50176 H 4896.33 -1.1967 -3.72552 0
M  V30 50177 H 4895.95 0.50436 -3.94388 0
M  V30 50178 N 4896.95 1.5424 -0.323695 0
M  V30 50179 C 4897.91 2.22999 0.529523 0
M  V30 50180 C 4898.91 1.22349 1.04343 0
M  V30 50181 O 4900.1 1.46928 0.935837 0
M  V30 50182 C 4897.23 2.93415 1.73552 0
M  V30 50183 H 4898.42 2.99815 -0.0715572 0
M  V30 50184 H 4895.98 1.56121 -0.0747807 0
M  V30 50185 H 4896.71 2.20737 2.37583 0
M  V30 50186 H 4896.5 3.67222 1.37443 0
M  V30 50187 H 4897.99 3.45803 2.34116 0
M  V30 50188 N 4898.42 0.0518709 1.57515 0
M  V30 50189 C 4899.37 -0.94012 2.12755 0
M  V30 50190 C 4900.37 -1.32176 1.05952 0
M  V30 50191 O 4901.57 -1.30133 1.2436 0
M  V30 50192 H 4897.95 -0.321042 0.680027 0
M  V30 50193 H 4899.92 -0.449113 2.95001 0
M  V30 50194 C 4898.67 -2.2054 2.68807 0
M  V30 50195 H 4897.99 -1.92054 3.5065 0
M  V30 50196 H 4899.43 -2.88108 3.11078 0
M  V30 50197 C 4897.89 -2.95055 1.62616 0
M  V30 50198 O 4898.42 -3.88021 1.03935 0
M  V30 50199 N 4896.62 -2.57799 1.3412 0
M  V30 50200 H 4896.17 -1.82275 1.82026 0
M  V30 50201 H 4896.13 -3.07962 0.632981 0
M  V30 50202 N 4899.9 -1.56035 -0.221519 0
M  V30 50203 C 4900.85 -1.93274 -1.29414 0
M  V30 50204 C 4901.84 -0.814779 -1.48518 0
M  V30 50205 O 4903.05 -0.999612 -1.49692 0
M  V30 50206 H 4899.42 -0.614203 -0.433888 0
M  V30 50207 H 4901.4 -2.82777 -0.952887 0
M  V30 50208 C 4900.14 -2.26582 -2.63734 0
M  V30 50209 H 4899.47 -3.1212 -2.49842 0
M  V30 50210 H 4900.91 -2.56522 -3.37598 0
M  V30 50211 C 4899.37 -1.09097 -3.18747 0
M  V30 50212 O 4899.9 -0.352126 -4.00154 0
M  V30 50213 N 4898.1 -0.87479 -2.77121 0
M  V30 50214 H 4897.65 -1.47734 -2.11027 0
M  V30 50215 H 4897.61 -0.0904454 -3.1427 0
M  V30 50216 N 4901.38 0.488223 -1.49847 0
M  V30 50217 C 4902.61 1.26522 -1.63707 0
M  V30 50218 C 4903.02 1.86179 -0.313512 0
M  V30 50219 O 4902.38 1.68435 0.702565 0
M  V30 50220 C 4902.43 2.38631 -2.71547 0
M  V30 50221 O 4902.15 1.81423 -3.9877 0
M  V30 50222 C 4903.65 3.29795 -2.96227 0
M  V30 50223 H 4900.87 0.383276 -0.550764 0
M  V30 50224 H 4903.42 0.58471 -1.95963 0
M  V30 50225 H 4901.57 3.02488 -2.42033 0
M  V30 50226 H 4901.99 2.55118 -4.58274 0
M  V30 50227 H 4903.46 4.04709 -3.75386 0
M  V30 50228 H 4903.94 3.87556 -2.06632 0
M  V30 50229 H 4904.54 2.71692 -3.27206 0
M  V30 50230 N 4902.86 1.39136 0.740193 0
M  V30 50231 C 4904.1 1.36077 1.49965 0
M  V30 50232 C 4904.43 -0.0449562 1.94448 0
M  V30 50233 O 4903.69 -1.02476 1.66725 0
M  V30 50234 C 4903.99 2.27466 2.7567 0
M  V30 50235 C 4903.65 3.75194 2.5008 0
M  V30 50236 C 4902.31 4.15447 2.42811 0
M  V30 50237 C 4904.67 4.68651 2.2807 0
M  V30 50238 C 4901.99 5.47227 2.11565 0
M  V30 50239 C 4904.35 6.00702 1.98341 0
M  V30 50240 C 4903.01 6.40025 1.89537 0
M  V30 50241 H 4902.28 0.49794 0.548759 0
M  V30 50242 H 4904.93 1.71602 0.85001 0
M  V30 50243 H 4903.23 1.85042 3.4535 0
M  V30 50244 H 4904.93 2.22395 3.33678 0
M  V30 50245 H 4901.52 3.43288 2.56615 0
M  V30 50246 H 4905.7 4.38389 2.32657 0
M  V30 50247 H 4900.96 5.76622 2.03267 0
M  V30 50248 H 4905.13 6.7265 1.80317 0
M  V30 50249 H 4902.76 7.42057 1.65091 0
M  V30 50250 N 4904.34 -0.969824 1.24226 0
M  V30 50251 C 4905.58 -1.7275 1.09256 0
M  V30 50252 C 4905.94 -1.88543 -0.362721 0
M  V30 50253 O 4907.14 -2.61219 -0.633877 0
M  V30 50254 C 4905.41 -3.08197 1.80968 0
M  V30 50255 S 4906.97 -3.99412 1.81702 0
M  V30 50256 H 4903.79 -0.593968 0.390798 0
M  V30 50257 H 4906.39 -1.15786 1.57524 0
M  V30 50258 H 4905.09 -2.94362 2.85971 0
M  V30 50259 H 4904.63 -3.70227 1.33025 0
M  V30 50260 H 4906.64 -4.88277 0.883172 0
M  V30 50261 N 4905.81 -1.05567 -1.17018 0
M  V30 50262 C 4907.06 -0.768002 -1.87371 0
M  V30 50263 C 4907.39 0.705161 -1.81267 0
M  V30 50264 O 4906.64 1.53176 -1.21802 0
M  V30 50265 C 4906.94 -1.19861 -3.36702 0
M  V30 50266 C 4906.61 -2.67463 -3.63008 0
M  V30 50267 C 4905.27 -3.07783 -3.69896 0
M  V30 50268 C 4907.62 -3.62825 -3.74176 0
M  V30 50269 C 4904.95 -4.4232 -3.85447 0
M  V30 50270 C 4907.3 -4.971 -3.91247 0
M  V30 50271 C 4905.97 -5.37069 -3.96375 0
M  V30 50272 H 4905.24 -0.281032 -0.68564 0
M  V30 50273 H 4907.88 -1.32344 -1.3841 0
M  V30 50274 H 4906.19 -0.562232 -3.87745 0
M  V30 50275 H 4907.89 -0.953175 -3.89507 0
M  V30 50276 H 4904.48 -2.3524 -3.58274 0
M  V30 50277 H 4908.66 -3.32811 -3.68172 0
M  V30 50278 H 4903.92 -4.72783 -3.87668 0
M  V30 50279 H 4908.09 -5.70883 -3.9883 0
M  V30 50280 H 4905.72 -6.41323 -4.08178 0
M  V30 50281 N 4907.29 1.33523 -0.837221 0
M  V30 50282 C 4908.57 1.92368 -0.354132 0
M  V30 50283 C 4908.95 1.76352 1.16031 0
M  V30 50284 O 4908.3 1.1509 1.97399 0
M  V30 50285 C 4908.51 3.39726 -0.79922 0
M  V30 50286 C 4909.85 4.16874 -0.806286 0
M  V30 50287 O 4910.88 3.48371 -0.74272 0
M  V30 50288 O 4909.74 5.39162 -0.892535 0
M  V30 50289 H 4906.83 0.820948 -0.0998667 0
M  V30 50290 H 4909.38 1.42406 -0.922963 0
M  V30 50291 H 4908.15 3.45247 -1.84174 0
M  V30 50292 H 4907.77 3.97061 -0.20687 0
M  V30 50293 N 4908.77 0.593501 1.45998 0
M  V30 50294 C 4909.72 -0.146187 2.3214 0
M  V30 50295 C 4910.71 -0.873692 1.45131 0
M  V30 50296 O 4911.92 -0.790855 1.61696 0
M  V30 50297 H 4908.29 -0.0660086 0.749097 0
M  V30 50298 H 4910.26 0.598997 2.92326 0
M  V30 50299 C 4909.01 -1.13949 3.28498 0
M  V30 50300 H 4908.34 -0.589113 3.95436 0
M  V30 50301 H 4909.78 -1.62724 3.91531 0
M  V30 50302 C 4908.24 -2.20595 2.54636 0
M  V30 50303 O 4908.77 -3.2812 2.31733 0
M  V30 50304 N 4906.97 -1.95495 2.15012 0
M  V30 50305 H 4906.52 -1.08062 2.33838 0
M  V30 50306 H 4906.48 -2.67059 1.65913 0
M  V30 50307 N 4910.25 -1.54066 0.33187 0
M  V30 50308 C 4911.66 -1.8606 -0.154475 0
M  V30 50309 C 4912.01 -1.25336 -1.50948 0
M  V30 50310 O 4911.14 -0.562515 -2.08961 0
M  V30 50311 C 4911.73 -3.37582 -0.287073 0
M  V30 50312 C 4910.29 -3.69495 -0.717643 0
M  V30 50313 C 4909.44 -2.76863 0.155666 0
M  V30 50314 H 4912.39 -1.48795 0.551873 0
M  V30 50315 H 4912.41 -3.63748 -1.11658 0
M  V30 50316 H 4911.92 -3.81748 0.699265 0
M  V30 50317 H 4910.02 -3.30866 -1.71343 0
M  V30 50318 H 4910.13 -4.76317 -0.515633 0
M  V30 50319 H 4908.5 -2.51996 -0.370124 0
M  V30 50320 H 4909.28 -3.23857 1.13892 0
M  V30 50321 N 4911.73 -0.0602235 -1.57485 0
M  V30 50322 C 4913.14 0.296367 -1.56824 0
M  V30 50323 C 4913.34 1.70827 -1.06866 0
M  V30 50324 O 4912.4 2.41738 -0.72933 0
M  V30 50325 C 4913.71 0.116576 -3.00474 0
M  V30 50326 C 4915.26 0.186993 -3.12441 0
M  V30 50327 C 4915.73 0.035622 -4.57986 0
M  V30 50328 N 4917.23 0.0916048 -4.63109 0
M  V30 50329 C 4917.96 -0.00127409 -5.734 0
M  V30 50330 N 4917.46 -0.147016 -6.92644 0
M  V30 50331 N 4919.25 0.0549601 -5.62073 0
M  V30 50332 H 4911.4 -0.983121 -1.88278 0
M  V30 50333 H 4913.66 -0.382417 -0.867445 0
M  V30 50334 H 4913.37 -0.85724 -3.41093 0
M  V30 50335 H 4913.24 0.8738 -3.66939 0
M  V30 50336 H 4915.63 1.15129 -2.71716 0
M  V30 50337 H 4915.71 -0.601139 -2.48636 0
M  V30 50338 H 4915.36 -0.925388 -4.99399 0
M  V30 50339 H 4915.29 0.843013 -5.19808 0
M  V30 50340 H 4917.78 0.203128 -3.77354 0
M  V30 50341 H 4918.09 -0.210347 -7.72514 0
M  V30 50342 H 4916.43 -0.182223 -6.94761 0
M  V30 50343 H 4919.63 0.16744 -4.678 0
M  V30 50344 H 4919.8 -0.0208798 -6.47997 0
M  V30 50345 N 4913.2 1.56151 0.213241 0
M  V30 50346 C 4914.45 1.79194 0.934549 0
M  V30 50347 C 4914.77 0.630177 1.84537 0
M  V30 50348 O 4914.04 -0.352502 1.92702 0
M  V30 50349 H 4912.62 0.660949 0.348074 0
M  V30 50350 H 4915.29 1.93619 0.223102 0
M  V30 50351 H 4914.38 2.71661 1.53644 0
M  V30 50352 N 4914.68 -0.48027 1.50104 0
M  V30 50353 C 4915.61 -1.58763 1.71221 0
M  V30 50354 C 4916.59 -1.60581 0.561053 0
M  V30 50355 O 4917.78 -1.76993 0.79919 0
M  V30 50356 C 4914.91 -2.97142 1.79789 0
M  V30 50357 C 4913.86 -3.10191 2.94899 0
M  V30 50358 C 4913.19 -4.50127 2.886 0
M  V30 50359 C 4914.49 -2.88268 4.35544 0
M  V30 50360 H 4916.18 -1.41345 2.63935 0
M  V30 50361 H 4913.73 -0.678546 1.27011 0
M  V30 50362 H 4915.68 -3.7453 1.93146 0
M  V30 50363 H 4914.41 -3.15696 0.836883 0
M  V30 50364 H 4913.06 -2.35234 2.81177 0
M  V30 50365 H 4912.71 -4.65586 1.90365 0
M  V30 50366 H 4912.41 -4.59795 3.65872 0
M  V30 50367 H 4913.94 -5.29547 3.03994 0
M  V30 50368 H 4915.35 -3.55411 4.4984 0
M  V30 50369 H 4913.75 -3.0939 5.14197 0
M  V30 50370 H 4914.82 -1.84203 4.4855 0
M  V30 50371 N 4916.16 -1.39527 -0.732804 0
M  V30 50372 C 4917.12 -1.38195 -1.82852 0
M  V30 50373 C 4918.12 -0.278679 -1.58367 0
M  V30 50374 O 4919.31 -0.536697 -1.65726 0
M  V30 50375 C 4916.45 -1.15672 -3.20675 0
M  V30 50376 H 4917.64 -2.35698 -1.85435 0
M  V30 50377 H 4915.19 -1.25124 -0.936684 0
M  V30 50378 H 4915.93 -0.188596 -3.23751 0
M  V30 50379 H 4915.71 -1.95571 -3.39845 0
M  V30 50380 H 4917.2 -1.17486 -4.00733 0
M  V30 50381 N 4917.64 0.963222 -1.24739 0
M  V30 50382 C 4918.57 2.07624 -1.06839 0
M  V30 50383 C 4919.55 1.70088 0.0199968 0
M  V30 50384 O 4920.73 1.93636 -0.147922 0
M  V30 50385 C 4917.86 3.40634 -0.677189 0
M  V30 50386 C 4916.82 3.92144 -1.71485 0
M  V30 50387 C 4916.14 5.21549 -1.17858 0
M  V30 50388 C 4917.44 4.19482 -3.11179 0
M  V30 50389 H 4919.14 2.22857 -1.99938 0
M  V30 50390 H 4916.68 1.07089 -0.962698 0
M  V30 50391 H 4918.64 4.17939 -0.538939 0
M  V30 50392 H 4917.36 3.25314 0.289497 0
M  V30 50393 H 4916.02 3.16999 -1.84139 0
M  V30 50394 H 4915.67 5.02593 -0.202372 0
M  V30 50395 H 4915.37 5.56981 -1.87205 0
M  V30 50396 H 4916.89 6.0146 -1.05254 0
M  V30 50397 H 4918.31 4.87476 -3.01728 0
M  V30 50398 H 4916.7 4.66152 -3.77919 0
M  V30 50399 H 4917.77 3.26085 -3.58883 0
M  V30 50400 N 4919.12 1.06186 1.16457 0
M  V30 50401 C 4920.07 0.641696 2.18784 0
M  V30 50402 C 4921.05 -0.327067 1.57541 0
M  V30 50403 O 4922.24 -0.142684 1.76424 0
M  V30 50404 C 4919.37 0.0284941 3.43288 0
M  V30 50405 C 4918.46 1.02169 4.1161 0
M  V30 50406 N 4918.85 2.19687 4.556 0
M  V30 50407 C 4917.15 0.852383 4.37779 0
M  V30 50408 C 4917.85 2.82601 5.0844 0
M  V30 50409 N 4916.82 2.10335 5.01258 0
M  V30 50410 H 4920.63 1.53693 2.50511 0
M  V30 50411 H 4918.14 0.933396 1.32896 0
M  V30 50412 H 4920.14 -0.290343 4.15888 0
M  V30 50413 H 4918.8 -0.862008 3.13049 0
M  V30 50414 H 4919.81 2.57469 4.49366 0
M  V30 50415 H 4916.48 0.0137781 4.17498 0
M  V30 50416 H 4917.87 3.82317 5.52524 0
M  V30 50417 N 4920.59 -1.33077 0.84429 0
M  V30 50418 C 4922.01 -1.79918 0.498629 0
M  V30 50419 C 4922.36 -1.69812 -0.982775 0
M  V30 50420 O 4921.48 -1.25058 -1.76606 0
M  V30 50421 C 4922.08 -3.26674 0.898318 0
M  V30 50422 C 4920.64 -3.71511 0.604714 0
M  V30 50423 C 4919.78 -2.54389 1.10371 0
M  V30 50424 H 4922.73 -1.20522 1.03248 0
M  V30 50425 H 4922.75 -3.79917 0.210524 0
M  V30 50426 H 4922.27 -3.33998 1.97654 0
M  V30 50427 H 4920.37 -3.69709 -0.46322 0
M  V30 50428 H 4920.48 -4.64751 1.16374 0
M  V30 50429 H 4918.84 -2.49244 0.52436 0
M  V30 50430 H 4919.63 -2.64472 2.18882 0
M  V30 50431 N 4922.07 -0.601236 -1.45681 0
M  V30 50432 C 4923 0.159365 -2.28645 0
M  V30 50433 C 4924.02 0.837833 -1.39586 0
M  V30 50434 O 4925.21 0.704287 -1.64018 0
M  V30 50435 C 4922.31 1.2463 -3.15152 0
M  V30 50436 C 4921.48 0.656182 -4.3245 0
M  V30 50437 C 4920.54 1.63319 -5.00213 0
M  V30 50438 O 4919.56 1.16198 -5.57213 0
M  V30 50439 N 4920.77 2.96755 -4.98916 0
M  V30 50440 H 4923.53 -0.552504 -2.94563 0
M  V30 50441 H 4921.09 -0.440278 -1.55798 0
M  V30 50442 H 4923.08 1.89958 -3.57349 0
M  V30 50443 H 4921.65 1.86078 -2.51185 0
M  V30 50444 H 4920.87 -0.175018 -3.93811 0
M  V30 50445 H 4922.16 0.242032 -5.08224 0
M  V30 50446 H 4921.56 3.37646 -4.53885 0
M  V30 50447 H 4920.12 3.57522 -5.44997 0
M  V30 50448 N 4923.55 1.53888 -0.340036 0
M  V30 50449 C 4924.78 2.04974 0.258666 0
M  V30 50450 C 4925.19 1.2149 1.45041 0
M  V30 50451 O 4924.53 0.242264 1.82096 0
M  V30 50452 C 4924.59 3.51786 0.74073 0
M  V30 50453 C 4924.26 4.558 -0.330894 0
M  V30 50454 C 4925.26 5.06508 -1.17244 0
M  V30 50455 C 4922.94 4.99965 -0.483813 0
M  V30 50456 C 4924.93 5.99956 -2.15248 0
M  V30 50457 C 4922.62 5.93224 -1.46725 0
M  V30 50458 C 4923.62 6.43107 -2.30004 0
M  V30 50459 O 4923.31 7.34533 -3.26675 0
M  V30 50460 H 4923.04 0.673809 0.05438 0
M  V30 50461 H 4925.59 1.9949 -0.489177 0
M  V30 50462 H 4923.82 3.54723 1.53976 0
M  V30 50463 H 4925.51 3.85861 1.25959 0
M  V30 50464 H 4926.28 4.73154 -1.06537 0
M  V30 50465 H 4922.16 4.60741 0.154548 0
M  V30 50466 H 4925.7 6.38815 -2.80288 0
M  V30 50467 H 4921.6 6.25993 -1.5749 0
M  V30 50468 H 4922.37 7.52456 -3.22105 0
M  V30 50469 N 4925.03 0.0685745 1.57451 0
M  V30 50470 C 4926.28 -0.600093 1.92985 0
M  V30 50471 C 4926.6 -1.70345 0.949088 0
M  V30 50472 O 4925.87 -1.959 -0.0032876 0
M  V30 50473 H 4924.45 -0.224657 0.712417 0
M  V30 50474 H 4927.11 0.125673 1.94494 0
M  V30 50475 H 4926.21 -1.02749 2.94702 0
M  V30 50476 N 4926.51 -1.56262 -0.204957 0
M  V30 50477 C 4927.74 -1.83877 -0.941954 0
M  V30 50478 C 4928.15 -0.647657 -1.7777 0
M  V30 50479 O 4927.49 0.393035 -1.79446 0
M  V30 50480 C 4927.55 -3.0546 -1.89564 0
M  V30 50481 C 4927.21 -4.39776 -1.24281 0
M  V30 50482 C 4928.21 -5.16135 -0.624542 0
M  V30 50483 C 4925.9 -4.86508 -1.24961 0
M  V30 50484 C 4927.89 -6.37396 -0.0217876 0
M  V30 50485 C 4925.58 -6.07708 -0.643018 0
M  V30 50486 C 4926.58 -6.82993 -0.0301762 0
M  V30 50487 O 4926.26 -8.01898 0.566936 0
M  V30 50488 H 4926 -0.614906 -0.280832 0
M  V30 50489 H 4928.55 -2.04216 -0.220213 0
M  V30 50490 H 4926.78 -2.80981 -2.65681 0
M  V30 50491 H 4928.47 -3.19805 -2.49959 0
M  V30 50492 H 4929.23 -4.8113 -0.611496 0
M  V30 50493 H 4925.11 -4.27871 -1.71601 0
M  V30 50494 H 4928.66 -6.961 0.457171 0
M  V30 50495 H 4924.55 -6.42183 -0.653533 0
M  V30 50496 H 4925.32 -8.1719 0.462875 0
M  V30 50497 N 4927.99 0.472303 -1.50356 0
M  V30 50498 C 4928.92 1.57853 -1.7206 0
M  V30 50499 C 4929.9 1.60281 -0.569561 0
M  V30 50500 O 4931.08 1.76567 -0.808565 0
M  V30 50501 C 4928.21 2.96184 -1.81362 0
M  V30 50502 C 4927.17 3.08623 -2.9654 0
M  V30 50503 C 4926.49 4.4859 -2.90983 0
M  V30 50504 C 4927.79 2.85954 -4.37067 0
M  V30 50505 H 4929.49 1.39943 -2.64681 0
M  V30 50506 H 4927.03 0.671801 -1.27369 0
M  V30 50507 H 4928.98 3.735 -1.9513 0
M  V30 50508 H 4927.71 3.15248 -0.853613 0
M  V30 50509 H 4926.37 2.33739 -2.82421 0
M  V30 50510 H 4926.02 4.6457 -1.92831 0
M  V30 50511 H 4925.72 4.57848 -3.68305 0
M  V30 50512 H 4927.24 5.27927 -3.06798 0
M  V30 50513 H 4928.65 3.53021 -4.51718 0
M  V30 50514 H 4927.05 3.06658 -5.1583 0
M  V30 50515 H 4928.12 1.81822 -4.49521 0
M  V30 50516 N 4929.46 1.39914 0.725394 0
M  V30 50517 C 4930.69 1.4075 1.51239 0
M  V30 50518 C 4931.1 0.00282054 1.892 0
M  V30 50519 O 4930.44 -0.981245 1.55297 0
M  V30 50520 C 4930.51 2.22537 2.82343 0
M  V30 50521 C 4930.17 3.71063 2.66761 0
M  V30 50522 C 4931.17 4.63925 2.3467 0
M  V30 50523 C 4928.85 4.14763 2.83332 0
M  V30 50524 C 4930.85 5.9847 2.19345 0
M  V30 50525 C 4928.53 5.49382 2.67625 0
M  V30 50526 C 4929.53 6.4105 2.35678 0
M  V30 50527 O 4929.22 7.73188 2.2008 0
M  V30 50528 H 4928.95 0.482331 0.473638 0
M  V30 50529 H 4931.51 1.84475 0.903219 0
M  V30 50530 H 4929.74 1.73575 3.45556 0
M  V30 50531 H 4931.42 2.15433 3.44011 0
M  V30 50532 H 4932.19 4.31461 2.2151 0
M  V30 50533 H 4928.07 3.43739 3.07188 0
M  V30 50534 H 4931.61 6.69986 1.94331 0
M  V30 50535 H 4927.51 5.81433 2.80367 0
M  V30 50536 H 4928.28 7.84016 2.35076 0
M  V30 50537 N 4930.94 -0.956593 1.25248 0
M  V30 50538 C 4932.19 -1.70409 1.1105 0
M  V30 50539 C 4932.54 -1.89276 -0.34531 0
M  V30 50540 O 4931.84 -1.45121 -1.25102 0
M  V30 50541 C 4932.03 -3.08989 1.79612 0
M  V30 50542 C 4931.86 -3.03642 3.3171 0
M  V30 50543 C 4930.63 -3.07507 4.00958 0
M  V30 50544 C 4932.83 -2.8496 4.28138 0
M  V30 50545 N 4930.81 -2.92297 5.39848 0
M  V30 50546 C 4932.18 -2.7816 5.541 0
M  V30 50547 C 4934.23 -2.69625 4.18577 0
M  V30 50548 C 4932.94 -2.57593 6.71594 0
M  V30 50549 C 4934.96 -2.50428 5.35761 0
M  V30 50550 C 4934.33 -2.44347 6.60662 0
M  V30 50551 H 4930.42 -0.631625 0.461057 0
M  V30 50552 H 4933.01 -1.13325 1.58321 0
M  V30 50553 H 4931.18 -3.64243 1.34839 0
M  V30 50554 H 4932.91 -3.72509 1.58174 0
M  V30 50555 H 4929.67 -3.16622 3.52203 0
M  V30 50556 H 4930.09 -2.87901 6.12733 0
M  V30 50557 H 4934.73 -2.73102 3.22762 0
M  V30 50558 H 4932.45 -2.52858 7.67521 0
M  V30 50559 H 4936.04 -2.3949 5.30222 0
M  V30 50560 H 4934.92 -2.29685 7.4981 0
M  V30 50561 N 4932.42 -1.06802 -1.15892 0
M  V30 50562 C 4933.38 -0.687405 -2.18649 0
M  V30 50563 C 4934.38 0.269504 -1.58525 0
M  V30 50564 O 4935.57 0.0512015 -1.74125 0
M  V30 50565 C 4932.7 -0.0122841 -3.40898 0
M  V30 50566 H 4933.9 -1.5971 -2.53836 0
M  V30 50567 H 4931.45 -0.863874 -1.30257 0
M  V30 50568 H 4932.19 0.909915 -3.11273 0
M  V30 50569 H 4931.97 -0.700445 -3.85793 0
M  V30 50570 H 4933.46 0.239557 -4.16912 0
M  V30 50571 N 4933.9 1.32627 -0.851335 0
M  V30 50572 C 4935.17 1.91981 -0.374516 0
M  V30 50573 C 4935.55 1.77572 1.14154 0
M  V30 50574 O 4934.9 1.17177 1.96168 0
M  V30 50575 C 4935.11 3.38859 -0.835208 0
M  V30 50576 C 4936.46 4.15996 -0.850456 0
M  V30 50577 O 4937.48 3.47563 -0.779627 0
M  V30 50578 O 4936.34 5.38185 -0.94967 0
M  V30 50579 H 4933.44 0.819843 -0.108568 0
M  V30 50580 H 4935.98 1.41419 -0.938016 0
M  V30 50581 H 4934.76 3.43274 -1.87826 0
M  V30 50582 H 4934.38 3.9682 -0.248972 0
M  V30 50583 N 4935.38 0.608953 1.4536 0
M  V30 50584 C 4936.62 0.113268 2.03084 0
M  V30 50585 C 4936.98 -1.24283 1.46872 0
M  V30 50586 O 4936.27 -1.8079 0.634466 0
M  V30 50587 C 4936.46 0.0168552 3.57396 0
M  V30 50588 C 4936.29 1.36206 4.28577 0
M  V30 50589 C 4935.06 1.94311 4.66445 0
M  V30 50590 C 4937.26 2.29113 4.60447 0
M  V30 50591 N 4935.24 3.22298 5.22491 0
M  V30 50592 C 4936.61 3.417 5.17341 0
M  V30 50593 C 4938.67 2.28468 4.42387 0
M  V30 50594 C 4937.37 4.53808 5.58078 0
M  V30 50595 C 4939.4 3.39625 4.84158 0
M  V30 50596 C 4938.76 4.50934 5.41145 0
M  V30 50597 H 4934.86 0.0848486 0.777383 0
M  V30 50598 H 4937.44 0.807603 1.77161 0
M  V30 50599 H 4935.61 -0.646705 3.82978 0
M  V30 50600 H 4937.35 -0.485616 4.01776 0
M  V30 50601 H 4934.1 1.47502 4.50045 0
M  V30 50602 H 4934.52 3.87674 5.55012 0
M  V30 50603 H 4939.17 1.43672 3.97641 0
M  V30 50604 H 4936.88 5.39328 6.01789 0
M  V30 50605 H 4940.47 3.40276 4.71915 0
M  V30 50606 H 4939.35 5.35525 5.72872 0
M  V30 50607 N 4936.85 -1.53705 0.348193 0
M  V30 50608 C 4938.1 -2.00592 -0.246407 0
M  V30 50609 C 4938.42 -1.23759 -1.50694 0
M  V30 50610 O 4937.69 -0.346032 -1.9282 0
M  V30 50611 H 4936.27 -0.741057 -0.0940418 0
M  V30 50612 H 4938.93 -1.89138 0.470421 0
M  V30 50613 H 4938.03 -3.08299 -0.485605 0
M  V30 50614 N 4938.33 -0.0769235 -1.57412 0
M  V30 50615 C 4939.28 0.898722 -2.0954 0
M  V30 50616 C 4940.27 1.25553 -1.00624 0
M  V30 50617 O 4941.46 1.23365 -1.26926 0
M  V30 50618 C 4938.59 2.16444 -2.66471 0
M  V30 50619 C 4937.67 1.83388 -3.824 0
M  V30 50620 N 4938.06 1.20805 -4.91162 0
M  V30 50621 C 4936.36 2.13108 -3.91792 0
M  V30 50622 C 4937.06 1.05956 -5.71969 0
M  V30 50623 N 4936.04 1.57095 -5.20406 0
M  V30 50624 H 4939.84 0.410616 -2.91017 0
M  V30 50625 H 4937.36 0.126821 -1.61904 0
M  V30 50626 H 4939.35 2.87263 -3.02135 0
M  V30 50627 H 4938.01 2.65837 -1.86442 0
M  V30 50628 H 4939.02 0.87707 -5.10419 0
M  V30 50629 H 4935.7 2.64842 -3.22746 0
M  V30 50630 H 4937.09 0.571574 -6.69464 0
M  V30 50631 N 4939.81 1.56368 0.196667 0
M  V30 50632 C 4941.23 1.49918 0.547437 0
M  V30 50633 C 4941.43 0.776656 1.85931 0
M  V30 50634 O 4940.48 0.326528 2.5038 0
M  V30 50635 C 4941.8 2.94579 0.60363 0
M  V30 50636 C 4943.34 3.05242 0.69257 0
M  V30 50637 C 4943.82 4.51311 0.779887 0
M  V30 50638 N 4945.31 4.55456 0.843456 0
M  V30 50639 C 4946.04 5.65789 0.931159 0
M  V30 50640 N 4945.54 6.85816 0.981261 0
M  V30 50641 N 4947.33 5.53698 0.968226 0
M  V30 50642 H 4939.48 2.01758 -0.663874 0
M  V30 50643 H 4941.75 0.918085 -0.23627 0
M  V30 50644 H 4941.45 3.50493 -0.291173 0
M  V30 50645 H 4941.33 3.47847 1.45886 0
M  V30 50646 H 4943.71 2.49378 1.57781 0
M  V30 50647 H 4943.8 2.55102 -0.188826 0
M  V30 50648 H 4943.44 5.078 -0.10099 0
M  V30 50649 H 4943.37 4.99181 1.67706 0
M  V30 50650 H 4945.86 3.69028 0.814046 0
M  V30 50651 H 4946.17 7.65652 1.04865 0
M  V30 50652 H 4944.52 6.88477 0.949966 0
M  V30 50653 H 4947.71 4.58851 0.92591 0
M  V30 50654 H 4947.88 6.39711 1.03312 0
M  V30 50655 N 4941.29 -0.464322 1.50605 0
M  V30 50656 C 4942.25 -1.54387 1.69402 0
M  V30 50657 C 4943.25 -1.50564 0.564557 0
M  V30 50658 O 4944.44 -1.53063 0.831699 0
M  V30 50659 C 4941.57 -2.94004 1.72553 0
M  V30 50660 H 4942.77 -1.39035 2.65724 0
M  V30 50661 H 4940.32 -0.691171 1.40187 0
M  V30 50662 H 4941.05 -3.14793 0.779491 0
M  V30 50663 H 4940.84 -2.98186 2.54613 0
M  V30 50664 H 4942.33 -3.72369 1.89028 0
M  V30 50665 N 4942.77 -1.40296 -0.717964 0
M  V30 50666 C 4944 -1.4155 -1.5049 0
M  V30 50667 C 4944.4 -0.0128542 -1.89196 0
M  V30 50668 O 4943.75 0.972995 -1.55816 0
M  V30 50669 C 4943.81 -2.24031 -2.81159 0
M  V30 50670 C 4943.47 -3.72472 -2.6479 0
M  V30 50671 C 4944.47 -4.65163 -2.32206 0
M  V30 50672 C 4942.16 -4.1626 -2.81128 0
M  V30 50673 C 4944.15 -5.99625 -2.16168 0
M  V30 50674 C 4941.84 -5.50793 -2.64708 0
M  V30 50675 C 4942.83 -6.42291 -2.32275 0
M  V30 50676 O 4942.52 -7.74345 -2.15976 0
M  V30 50677 H 4942.25 -0.484836 -0.471074 0
M  V30 50678 H 4944.81 -1.84952 -0.893423 0
M  V30 50679 H 4943.04 -1.75405 -3.4463 0
M  V30 50680 H 4944.73 -2.17255 -3.42863 0
M  V30 50681 H 4945.49 -4.3263 -2.19218 0
M  V30 50682 H 4941.37 -3.45363 -3.05361 0
M  V30 50683 H 4944.92 -6.71007 -1.90775 0
M  V30 50684 H 4940.81 -5.82912 -2.77279 0
M  V30 50685 H 4941.58 -7.85252 -2.30915 0
M  V30 50686 N 4944.24 0.949938 -1.25754 0
M  V30 50687 C 4945.49 1.68952 -1.10173 0
M  V30 50688 C 4945.81 1.92329 0.356241 0
M  V30 50689 O 4947.01 2.64028 0.632564 0
M  V30 50690 C 4945.47 3.04189 -1.92347 0
M  V30 50691 C 4945.08 2.88591 -3.42665 0
M  V30 50692 C 4946.82 3.81897 -1.8535 0
M  V30 50693 C 4944.73 4.19247 -4.17116 0
M  V30 50694 H 4943.66 0.633631 -0.40869 0
M  V30 50695 H 4946.31 1.05714 -1.49989 0
M  V30 50696 H 4944.69 3.68358 -1.45357 0
M  V30 50697 H 4945.86 2.33326 -3.97361 0
M  V30 50698 H 4944.18 2.24333 -3.50804 0
M  V30 50699 H 4946.78 4.78679 -2.38265 0
M  V30 50700 H 4947.12 4.08097 -0.822369 0
M  V30 50701 H 4947.65 3.24487 -2.30115 0
M  V30 50702 H 4944.39 3.98235 -5.20662 0
M  V30 50703 H 4943.91 4.7426 -3.67203 0
M  V30 50704 H 4945.59 4.8776 -4.25088 0
M  V30 50705 N 4945.72 1.07416 1.15324 0
M  V30 50706 C 4946.97 0.796139 1.85758 0
M  V30 50707 C 4947.29 -0.6798 1.82767 0
M  V30 50708 O 4946.56 -1.49237 1.26906 0
M  V30 50709 H 4945.14 0.291519 0.687769 0
M  V30 50710 H 4947.8 1.35804 1.39798 0
M  V30 50711 H 4946.9 1.13124 2.90877 0
M  V30 50712 N 4947.2 -1.32174 0.858357 0
M  V30 50713 C 4948.62 -1.49871 0.548708 0
M  V30 50714 C 4948.82 -1.79281 -0.919811 0
M  V30 50715 O 4947.87 -1.86457 -1.70265 0
M  V30 50716 C 4949.19 -2.64038 1.4389 0
M  V30 50717 C 4950.73 -2.77923 1.43971 0
M  V30 50718 C 4951.21 -3.95174 2.3152 0
M  V30 50719 N 4952.7 -4.02442 2.29336 0
M  V30 50720 C 4953.43 -4.9241 2.93803 0
M  V30 50721 N 4952.93 -5.8736 3.67397 0
M  V30 50722 N 4954.72 -4.85562 2.83172 0
M  V30 50723 H 4946.87 -1.11351 1.80872 0
M  V30 50724 H 4949.14 -0.549148 0.772748 0
M  V30 50725 H 4948.84 -2.49046 2.48332 0
M  V30 50726 H 4948.72 -3.59908 1.12897 0
M  V30 50727 H 4951.1 -2.92336 0.402915 0
M  V30 50728 H 4951.19 -1.82756 1.78981 0
M  V30 50729 H 4950.83 -3.81519 3.35269 0
M  V30 50730 H 4950.76 -4.89626 1.93841 0
M  V30 50731 H 4953.25 -3.34501 1.75833 0
M  V30 50732 H 4953.56 -6.52713 4.13745 0
M  V30 50733 H 4951.91 -5.87375 3.71505 0
M  V30 50734 H 4955.1 -4.10355 2.25225 0
M  V30 50735 H 4955.27 -5.55474 3.33695 0
M  V30 50736 N 4948.68 -0.616653 -1.45035 0
M  V30 50737 C 4949.92 -0.115573 -2.0247 0
M  V30 50738 C 4950.26 1.25401 -1.48284 0
M  V30 50739 O 4949.53 1.82919 -0.661115 0
M  V30 50740 C 4949.82 -0.0864854 -3.59996 0
M  V30 50741 C 4949.67 -1.48738 -4.24496 0
M  V30 50742 C 4950.99 0.596608 -4.36037 0
M  V30 50743 H 4948.11 -0.043472 -0.735717 0
M  V30 50744 H 4950.75 -0.790361 -1.72781 0
M  V30 50745 H 4948.9 0.488141 -3.85421 0
M  V30 50746 H 4950.57 -2.10978 -4.10227 0
M  V30 50747 H 4948.81 -2.04548 -3.82548 0
M  V30 50748 H 4949.48 -1.41919 -5.33445 0
M  V30 50749 H 4951.96 0.108093 -4.1596 0
M  V30 50750 H 4950.84 0.586097 -5.45762 0
M  V30 50751 H 4951.1 1.66436 -4.09575 0
M  V30 50752 N 4950.16 1.53519 -0.356339 0
M  V30 50753 C 4951.4 2.0072 0.235766 0
M  V30 50754 C 4951.73 1.24556 1.50036 0
M  V30 50755 O 4951 0.356253 1.92633 0
M  V30 50756 H 4949.58 0.741545 0.0901105 0
M  V30 50757 H 4952.24 1.88886 -0.480445 0
M  V30 50758 H 4951.33 3.08552 0.469249 0
M  V30 50759 N 4951.63 0.0852704 1.57369 0
M  V30 50760 C 4952.57 -0.913534 2.09117 0
M  V30 50761 C 4953.55 -1.2826 0.999403 0
M  V30 50762 O 4954.73 -1.38956 1.27371 0
M  V30 50763 C 4951.86 -2.21768 2.56001 0
M  V30 50764 C 4950.9 -1.99919 3.76742 0
M  V30 50765 S 4951.74 -1.24619 5.20798 0
M  V30 50766 C 4952.89 -2.56284 5.71025 0
M  V30 50767 H 4953.12 -0.473266 2.93509 0
M  V30 50768 H 4950.66 -0.127802 1.5387 0
M  V30 50769 H 4952.62 -2.96716 2.83672 0
M  V30 50770 H 4951.28 -2.62917 1.71853 0
M  V30 50771 H 4950.47 -2.96468 4.07582 0
M  V30 50772 H 4950.07 -1.33103 3.49513 0
M  V30 50773 H 4952.36 -3.5231 5.78692 0
M  V30 50774 H 4953.31 -2.30036 6.69693 0
M  V30 50775 H 4953.71 -2.64107 4.98907 0
M  V30 50776 N 4953.11 -1.5647 -0.188372 0
M  V30 50777 C 4954.39 -1.7186 -0.933998 0
M  V30 50778 C 4954.77 -0.641937 -2.01103 0
M  V30 50779 O 4954.12 0.346019 -2.25865 0
M  V30 50780 C 4954.33 -3.14436 -1.51429 0
M  V30 50781 C 4955.68 -3.74876 -1.99382 0
M  V30 50782 O 4956.7 -3.17607 -1.61258 0
M  V30 50783 O 4955.56 -4.75396 -2.69556 0
M  V30 50784 H 4952.65 -0.701202 -0.438458 0
M  V30 50785 H 4955.2 -1.68769 -0.17754 0
M  V30 50786 H 4953.97 -3.84272 -0.738281 0
M  V30 50787 H 4953.59 -3.21784 -2.3354 0
M  V30 50788 N 4954.59 0.456329 -1.50849 0
M  V30 50789 C 4955.84 1.20491 -1.62254 0
M  V30 50790 C 4956.16 1.92155 -0.331906 0
M  V30 50791 O 4955.43 1.84754 0.651378 0
M  V30 50792 H 4954.01 0.447754 -0.597934 0
M  V30 50793 H 4956.67 0.525033 -1.87695 0
M  V30 50794 H 4955.77 1.94483 -2.44096 0
M  V30 50795 N 4956.07 1.40675 0.710514 0
M  V30 50796 C 4957.3 1.42552 1.49955 0
M  V30 50797 C 4957.71 0.0266148 1.88781 0
M  V30 50798 O 4957.07 -0.950639 1.55785 0
M  V30 50799 C 4957.12 2.32081 2.77165 0
M  V30 50800 O 4956.84 3.66527 2.39979 0
M  V30 50801 C 4958.34 2.42604 3.71023 0
M  V30 50802 H 4955.56 0.486042 0.462606 0
M  V30 50803 H 4958.11 1.84786 0.876037 0
M  V30 50804 H 4956.26 1.93196 3.35789 0
M  V30 50805 H 4956.68 4.14126 3.21869 0
M  V30 50806 H 4958.15 3.09445 4.57108 0
M  V30 50807 H 4958.63 1.45265 4.14481 0
M  V30 50808 H 4959.23 2.82062 3.18309 0
M  V30 50809 N 4957.55 -0.943255 1.26256 0
M  V30 50810 C 4958.5 -2.06299 1.07442 0
M  V30 50811 C 4959.49 -1.694 0.00195426 0
M  V30 50812 O 4960.7 -1.79301 0.158471 0
M  V30 50813 H 4957.07 -0.675442 0.330579 0
M  V30 50814 H 4959.04 -2.19319 2.0234 0
M  V30 50815 C 4957.79 -3.40123 0.721937 0
M  V30 50816 H 4957.11 -3.6899 1.53903 0
M  V30 50817 H 4958.55 -4.19292 0.630069 0
M  V30 50818 C 4957.01 -3.31995 -0.572785 0
M  V30 50819 O 4957.54 -3.6795 -1.61169 0
M  V30 50820 N 4955.75 -2.85101 -0.562648 0
M  V30 50821 H 4955.3 -2.56039 0.283182 0
M  V30 50822 H 4955.25 -2.80046 -1.42905 0
M  V30 50823 N 4959.03 -1.08026 -1.14753 0
M  V30 50824 C 4959.97 -0.706734 -2.19713 0
M  V30 50825 C 4960.94 0.305192 -1.63272 0
M  V30 50826 O 4962.13 0.190084 -1.89851 0
M  V30 50827 C 4959.27 -0.118036 -3.44898 0
M  V30 50828 C 4958.38 -1.18227 -4.15507 0
M  V30 50829 C 4957.52 -0.557845 -5.28263 0
M  V30 50830 C 4956.55 -1.60439 -5.90699 0
M  V30 50831 N 4955.69 -1.00204 -6.94913 0
M  V30 50832 H 4960.53 -1.60612 -2.51013 0
M  V30 50833 H 4958.07 -0.802707 -1.23268 0
M  V30 50834 H 4960.03 0.240966 -4.16504 0
M  V30 50835 H 4958.66 0.744678 -3.14093 0
M  V30 50836 H 4957.71 -1.65875 -3.4233 0
M  V30 50837 H 4959.02 -1.97549 -4.58013 0
M  V30 50838 H 4958.17 -0.146868 -6.06522 0
M  V30 50839 H 4956.91 0.267077 -4.86968 0
M  V30 50840 H 4955.92 -2.02507 -5.11147 0
M  V30 50841 H 4957.14 -2.43172 -6.3407 0
M  V30 50842 H 4955.09 -0.198147 -6.55701 0
M  V30 50843 H 4955.01 -1.73242 -7.35883 0
M  V30 50844 H 4956.27 -0.616796 -7.77056 0
M  V30 50845 N 4960.5 1.31717 -0.865354 0
M  V30 50846 C 4961.73 2.0159 -0.487486 0
M  V30 50847 C 4962.15 1.64554 0.911249 0
M  V30 50848 O 4961.51 0.851745 1.60047 0
M  V30 50849 C 4961.56 3.54757 -0.646525 0
M  V30 50850 O 4960.66 4.11186 0.316139 0
M  V30 50851 H 4960 0.634877 -0.194491 0
M  V30 50852 H 4962.53 1.6802 -1.1675 0
M  V30 50853 H 4962.54 4.04436 -0.538074 0
M  V30 50854 H 4961.22 3.81054 -1.66646 0
M  V30 50855 H 4959.8 3.72543 0.163031 0
M  V30 50856 N 4961.98 0.624336 1.44706 0
M  V30 50857 C 4963.23 0.126308 2.02406 0
M  V30 50858 C 4963.56 -1.24613 1.48947 0
M  V30 50859 O 4962.84 -1.82566 0.670806 0
M  V30 50860 C 4963.12 0.105576 3.59945 0
M  V30 50861 C 4962.97 1.50987 4.23702 0
M  V30 50862 C 4964.29 -0.573476 4.36348 0
M  V30 50863 H 4961.41 0.0473731 0.735476 0
M  V30 50864 H 4964.05 0.799512 1.7236 0
M  V30 50865 H 4962.2 -0.467695 3.85675 0
M  V30 50866 H 4963.87 2.13151 4.09102 0
M  V30 50867 H 4962.12 2.06573 3.81458 0
M  V30 50868 H 4962.79 1.44746 5.32684 0
M  V30 50869 H 4965.26 -0.0860325 4.16011 0
M  V30 50870 H 4964.14 -0.557146 5.46065 0
M  V30 50871 H 4964.4 -1.64262 4.10451 0
M  V30 50872 N 4963.46 -1.53328 0.364476 0
M  V30 50873 C 4964.71 -2.00422 -0.226677 0
M  V30 50874 C 4965.02 -1.25586 -1.49958 0
M  V30 50875 O 4966.23 -1.63263 -2.16927 0
M  V30 50876 C 4964.68 -3.57019 -0.454492 0
M  V30 50877 C 4964.29 -4.40732 0.803723 0
M  V30 50878 C 4966.04 -4.12472 -1.00336 0
M  V30 50879 C 4963.94 -5.88878 0.545552 0
M  V30 50880 H 4962.87 -0.74879 -0.0884819 0
M  V30 50881 H 4965.52 -1.77028 0.483045 0
M  V30 50882 H 4963.91 -3.76562 -1.22545 0
M  V30 50883 H 4965.08 -4.32961 1.57738 0
M  V30 50884 H 4963.39 -3.96376 1.27573 0
M  V30 50885 H 4965.99 -5.20787 -1.21182 0
M  V30 50886 H 4966.33 -3.66997 -1.96517 0
M  V30 50887 H 4966.87 -3.96722 -0.2926 0
M  V30 50888 H 4963.61 -6.38628 1.47766 0
M  V30 50889 H 4963.13 -5.995 -0.189631 0
M  V30 50890 H 4964.81 -6.46775 0.170652 0
M  V30 50891 N 4964.94 -0.0936148 -1.57322 0
M  V30 50892 C 4966.19 0.570123 -1.93475 0
M  V30 50893 C 4966.5 1.6943 -0.977378 0
M  V30 50894 O 4967.71 2.41909 -1.23257 0
M  V30 50895 C 4966.16 1.06552 -3.43765 0
M  V30 50896 C 4965.77 -0.0288298 -4.47991 0
M  V30 50897 C 4967.51 1.70208 -3.88883 0
M  V30 50898 C 4965.42 0.481839 -5.89434 0
M  V30 50899 H 4964.35 0.216738 -0.722178 0
M  V30 50900 H 4967 -0.169377 -1.82717 0
M  V30 50901 H 4965.38 1.85866 -3.49671 0
M  V30 50902 H 4966.56 -0.804265 -4.53727 0
M  V30 50903 H 4964.87 -0.570481 -4.12474 0
M  V30 50904 H 4967.47 2.09484 -4.91956 0
M  V30 50905 H 4967.81 2.57067 -3.27448 0
M  V30 50906 H 4968.35 0.974784 -3.85672 0
M  V30 50907 H 4965.08 -0.350102 -6.54564 0
M  V30 50908 H 4964.6 1.22431 -5.87172 0
M  V30 50909 H 4966.28 0.951283 -6.39968 0
M  V30 50910 N 4966.42 1.56568 0.180071 0
M  V30 50911 C 4967.64 1.85978 0.917975 0
M  V30 50912 C 4968.07 0.67895 1.75419 0
M  V30 50913 O 4967.42 -0.372106 1.7744 0
M  V30 50914 C 4967.47 3.13737 1.77768 0
M  V30 50915 O 4966.58 2.95345 2.87828 0
M  V30 50916 H 4965.92 0.61197 0.257661 0
M  V30 50917 H 4968.45 2.03799 0.180852 0
M  V30 50918 H 4968.46 3.44918 2.17935 0
M  V30 50919 H 4967.13 3.99297 1.16338 0
M  V30 50920 H 4965.71 2.75499 2.51307 0
M  V30 50921 N 4967.89 -0.448323 1.51089 0
M  V30 50922 C 4969.12 -1.22137 1.67004 0
M  V30 50923 C 4969.54 -1.85282 0.362764 0
M  V30 50924 O 4968.89 -1.70238 -0.65766 0
M  V30 50925 C 4968.95 -2.31347 2.77778 0
M  V30 50926 O 4968.67 -1.70787 4.0344 0
M  V30 50927 C 4970.17 -3.21825 3.04866 0
M  V30 50928 H 4967.39 -0.368539 0.560732 0
M  V30 50929 H 4969.93 -0.532549 1.97444 0
M  V30 50930 H 4968.09 -2.95964 2.49968 0
M  V30 50931 H 4968.5 -2.42878 4.64877 0
M  V30 50932 H 4969.97 -3.94614 3.85985 0
M  V30 50933 H 4970.45 -3.81941 2.16835 0
M  V30 50934 H 4971.06 -2.62921 3.34294 0
M  V30 50935 N 4969.37 -1.4105 -0.703043 0
M  V30 50936 C 4970.32 -1.42308 -1.81706 0
M  V30 50937 C 4971.29 -0.278393 -1.6375 0
M  V30 50938 O 4972.47 -0.478331 -1.84707 0
M  V30 50939 C 4969.61 -1.30373 -3.19526 0
M  V30 50940 C 4968.73 -2.5465 -3.48966 0
M  V30 50941 C 4967.86 -2.35064 -4.7636 0
M  V30 50942 C 4966.9 -3.54854 -4.98743 0
M  V30 50943 N 4966.04 -3.34385 -6.17358 0
M  V30 50944 H 4970.88 -2.37522 -1.79965 0
M  V30 50945 H 4968.42 -1.17954 -0.878941 0
M  V30 50946 H 4970.37 -1.21457 -3.99129 0
M  V30 50947 H 4969 -0.387715 -3.20463 0
M  V30 50948 H 4968.06 -2.74046 -2.63824 0
M  V30 50949 H 4969.37 -3.43779 -3.61411 0
M  V30 50950 H 4968.52 -2.23572 -5.64004 0
M  V30 50951 H 4967.26 -1.4338 -4.66148 0
M  V30 50952 H 4966.27 -3.66809 -4.0955 0
M  V30 50953 H 4967.49 -4.47482 -5.1082 0
M  V30 50954 H 4965.44 -2.45394 -6.08373 0
M  V30 50955 H 4965.35 -4.17085 -6.30536 0
M  V30 50956 H 4966.62 -3.26651 -7.07757 0
M  V30 50957 N 4970.85 0.936546 -1.26754 0
M  V30 50958 C 4971.78 2.05311 -1.11219 0
M  V30 50959 C 4972.76 1.70092 -0.016086 0
M  V30 50960 O 4973.95 1.93278 -0.188962 0
M  V30 50961 C 4971.08 3.39121 -0.74929 0
M  V30 50962 C 4970.03 3.88418 -1.79764 0
M  V30 50963 C 4969.36 5.18932 -1.28894 0
M  V30 50964 C 4970.66 4.12787 -3.20007 0
M  V30 50965 H 4972.35 2.18566 -2.0462 0
M  V30 50966 H 4969.9 1.05023 -0.985196 0
M  V30 50967 H 4971.85 4.16702 -0.627469 0
M  V30 50968 H 4970.57 3.25855 0.220428 0
M  V30 50969 H 4969.23 3.13022 -1.90822 0
M  V30 50970 H 4968.88 5.0205 -0.308934 0
M  V30 50971 H 4968.58 5.52885 -1.98977 0
M  V30 50972 H 4970.1 5.99092 -1.17989 0
M  V30 50973 H 4971.52 4.80966 -3.12 0
M  V30 50974 H 4969.92 4.58031 -3.87722 0
M  V30 50975 H 4970.99 3.18399 -3.65719 0
M  V30 50976 N 4972.33 1.08633 1.14178 0
M  V30 50977 C 4973.24 0.730204 2.22947 0
M  V30 50978 C 4974.25 -0.2643 1.71981 0
M  V30 50979 O 4975.43 -0.107671 2.01112 0
M  V30 50980 C 4972.5 0.147349 3.46387 0
M  V30 50981 C 4971.56 1.19676 4.12282 0
M  V30 50982 C 4970.79 0.641623 5.29829 0
M  V30 50983 O 4971.01 -0.538151 5.67856 0
M  V30 50984 O 4969.95 1.39278 5.85564 0
M  V30 50985 H 4973.77 1.63762 2.55765 0
M  V30 50986 H 4971.36 0.860161 1.22154 0
M  V30 50987 H 4973.24 -0.174775 4.21037 0
M  V30 50988 H 4971.91 -0.733193 3.15287 0
M  V30 50989 H 4970.82 1.57145 3.39494 0
M  V30 50990 H 4972.15 2.04966 4.47493 0
M  V30 50991 N 4973.81 -1.31256 0.872327 0
M  V30 50992 C 4975.05 -1.97298 0.494483 0
M  V30 50993 C 4975.41 -1.67687 -0.943331 0
M  V30 50994 O 4974.7 -0.964244 -1.65568 0
M  V30 50995 C 4974.89 -3.50656 0.691012 0
M  V30 50996 C 4974.72 -3.95172 2.14638 0
M  V30 50997 C 4973.49 -4.21395 2.78845 0
M  V30 50998 C 4975.69 -4.08937 3.1189 0
M  V30 50999 N 4973.67 -4.52281 4.15109 0
M  V30 51000 C 4975.04 -4.43561 4.3319 0
M  V30 51001 C 4977.1 -3.91323 3.07848 0
M  V30 51002 C 4975.8 -4.6241 5.50972 0
M  V30 51003 C 4977.83 -4.11366 4.24891 0
M  V30 51004 C 4977.19 -4.46324 5.44954 0
M  V30 51005 H 4973.29 -0.747403 0.230028 0
M  V30 51006 H 4975.87 -1.58737 1.12742 0
M  V30 51007 H 4974.04 -3.88301 0.0876527 0
M  V30 51008 H 4975.78 -4.03721 0.281321 0
M  V30 51009 H 4972.53 -4.14122 2.29781 0
M  V30 51010 H 4972.96 -4.71879 4.85447 0
M  V30 51011 H 4977.6 -3.63383 2.16131 0
M  V30 51012 H 4975.32 -4.89197 6.43204 0
M  V30 51013 H 4978.9 -3.9922 4.23219 0
M  V30 51014 H 4977.78 -4.61517 6.34012 0
M  V30 51015 N 4975.28 -0.632002 -1.44373 0
M  V30 51016 C 4976.7 -0.219101 -1.8541 0
M  V30 51017 C 4977.05 1.22968 -1.52883 0
M  V30 51018 O 4976.17 1.93576 -0.967334 0
M  V30 51019 C 4976.77 -0.390868 -3.36538 0
M  V30 51020 C 4975.33 -0.0324674 -3.76386 0
M  V30 51021 C 4974.47 -0.703838 -2.68219 0
M  V30 51022 H 4977.42 -0.837103 -1.34827 0
M  V30 51023 H 4977.44 0.369923 -3.78698 0
M  V30 51024 H 4976.96 -1.4454 -3.6018 0
M  V30 51025 H 4975.06 1.02029 -3.58358 0
M  V30 51026 H 4975.17 -0.443136 -4.77046 0
M  V30 51027 H 4973.53 -0.139063 -2.5432 0
M  V30 51028 H 4974.32 -1.76098 -2.94694 0
M  V30 51029 N 4976.76 1.53132 -0.372602 0
M  V30 51030 C 4977.71 2.27475 0.485601 0
M  V30 51031 C 4978.7 1.30723 1.0774 0
M  V30 51032 O 4979.91 1.48324 1.0198 0
M  V30 51033 H 4976.29 0.731275 0.17533 0
M  V30 51034 H 4978.26 2.97954 -0.16309 0
M  V30 51035 C 4977.01 3.08196 1.60967 0
M  V30 51036 H 4976.33 3.82493 1.16359 0
M  V30 51037 H 4977.77 3.63381 2.18473 0
M  V30 51038 C 4976.23 2.1947 2.55607 0
M  V30 51039 O 4976.76 1.81021 3.58601 0
M  V30 51040 N 4974.96 1.83962 2.24958 0
M  V30 51041 H 4974.51 2.15428 1.41239 0
M  V30 51042 H 4974.47 1.24884 2.88533 0
M  V30 51043 N 4978.24 0.101957 1.5727 0
M  V30 51044 C 4979.49 -0.559023 1.94215 0
M  V30 51045 C 4979.81 -1.68293 0.985007 0
M  V30 51046 O 4979.08 -1.95863 0.0382664 0
M  V30 51047 H 4977.66 -0.209495 0.717022 0
M  V30 51048 H 4980.32 0.1669 1.94184 0
M  V30 51049 H 4979.42 -0.964745 2.96815 0
M  V30 51050 N 4979.72 -1.56661 -0.171765 0
M  V30 51051 C 4980.97 -1.81161 -0.886767 0
M  V30 51052 C 4981.28 -0.679137 -1.83431 0
M  V30 51053 O 4982.49 -0.809056 -2.59165 0
M  V30 51054 C 4980.94 -3.21005 -1.62739 0
M  V30 51055 C 4980.55 -4.42119 -0.723497 0
M  V30 51056 C 4982.29 -3.54798 -2.33064 0
M  V30 51057 C 4980.2 -5.72985 -1.46432 0
M  V30 51058 H 4979.13 -0.675555 -0.334875 0
M  V30 51059 H 4981.78 -1.82967 -0.139701 0
M  V30 51060 H 4980.16 -3.13514 -2.41919 0
M  V30 51061 H 4981.34 -4.60789 0.0313105 0
M  V30 51062 H 4979.65 -4.16197 -0.129917 0
M  V30 51063 H 4982.25 -4.49816 -2.89084 0
M  V30 51064 H 4982.59 -2.79656 -3.0838 0
M  V30 51065 H 4983.13 -3.6384 -1.60828 0
M  V30 51066 H 4979.87 -6.51155 -0.7535 0
M  V30 51067 H 4979.39 -5.58293 -2.19247 0
M  V30 51068 H 4981.06 -6.14923 -2.01192 0
M  V30 51069 N 4981.2 0.440304 -1.51324 0
M  V30 51070 C 4982.42 1.21249 -1.67649 0
M  V30 51071 C 4982.84 1.85087 -0.372585 0
M  V30 51072 O 4982.2 1.70585 0.648623 0
M  V30 51073 C 4982.25 2.29871 -2.79001 0
M  V30 51074 O 4981.97 1.68645 -4.0434 0
M  V30 51075 C 4983.47 3.20204 -3.06569 0
M  V30 51076 H 4980.69 0.36556 -0.562678 0
M  V30 51077 H 4983.23 0.52207 -1.97724 0
M  V30 51078 H 4981.39 2.94634 -2.51534 0
M  V30 51079 H 4981.8 2.4041 -4.66158 0
M  V30 51080 H 4983.28 3.92561 -3.88072 0
M  V30 51081 H 4983.75 3.80786 -2.18857 0
M  V30 51082 H 4984.36 2.61144 -3.35684 0
M  V30 51083 N 4982.68 1.41421 0.695553 0
M  V30 51084 C 4983.92 1.40078 1.45125 0
M  V30 51085 C 4984.24 0.0131126 1.95596 0
M  V30 51086 O 4985.44 -0.122937 2.71222 0
M  V30 51087 C 4983.9 2.46295 2.62424 0
M  V30 51088 C 4983.51 3.90969 2.1874 0
M  V30 51089 C 4985.25 2.54089 3.40057 0
M  V30 51090 C 4983.16 4.8874 3.32998 0
M  V30 51091 H 4982.09 0.520923 0.54512 0
M  V30 51092 H 4984.74 1.67244 0.755091 0
M  V30 51093 H 4983.12 2.1226 3.34308 0
M  V30 51094 H 4984.3 4.34253 1.54145 0
M  V30 51095 H 4982.61 3.86836 1.541 0
M  V30 51096 H 4985.21 3.24318 4.25114 0
M  V30 51097 H 4985.55 1.57773 3.85244 0
M  V30 51098 H 4986.08 2.87216 2.75231 0
M  V30 51099 H 4982.82 5.8646 2.92823 0
M  V30 51100 H 4982.34 4.50105 3.96442 0
M  V30 51101 H 4984.02 5.09497 3.98775 0
M  V30 51102 N 4984.15 -0.929811 1.27249 0
M  V30 51103 C 4985.43 -1.6554 1.04192 0
M  V30 51104 C 4985.81 -2.06798 -0.424024 0
M  V30 51105 O 4985.16 -1.80058 -1.40681 0
M  V30 51106 C 4985.37 -2.85905 2.00148 0
M  V30 51107 C 4986.72 -3.57297 2.29399 0
M  V30 51108 O 4987.74 -2.96029 1.98105 0
M  V30 51109 O 4986.6 -4.67678 2.82736 0
M  V30 51110 H 4983.69 -0.725459 0.397037 0
M  V30 51111 H 4986.24 -0.980534 1.38505 0
M  V30 51112 H 4985.01 -2.52392 2.99021 0
M  V30 51113 H 4984.63 -3.61112 1.66384 0
M  V30 51114 N 4985.63 -1.09237 -1.13601 0
M  V30 51115 C 4986.86 -0.847743 -1.88406 0
M  V30 51116 C 4987.27 0.604461 -1.79284 0
M  V30 51117 O 4986.61 1.42769 -1.15597 0
M  V30 51118 C 4986.67 -1.20165 -3.38822 0
M  V30 51119 C 4986.34 -2.65837 -3.71726 0
M  V30 51120 C 4987.34 -3.64086 -3.7113 0
M  V30 51121 C 4985.02 -3.01908 -4.01443 0
M  V30 51122 C 4987.01 -4.96434 -3.99791 0
M  V30 51123 C 4984.7 -4.34448 -4.29765 0
M  V30 51124 C 4985.7 -5.3152 -4.28924 0
M  V30 51125 O 4985.39 -6.61676 -4.56553 0
M  V30 51126 H 4985.12 -0.304834 -0.603367 0
M  V30 51127 H 4987.67 -1.45735 -1.44742 0
M  V30 51128 H 4985.9 -0.535081 -3.8298 0
M  V30 51129 H 4987.59 -0.936488 -3.94949 0
M  V30 51130 H 4988.36 -3.37562 -3.48249 0
M  V30 51131 H 4984.24 -2.26985 -4.01247 0
M  V30 51132 H 4987.78 -5.72194 -3.99049 0
M  V30 51133 H 4983.68 -4.60716 -4.52118 0
M  V30 51134 H 4984.45 -6.67119 -4.74231 0
M  V30 51135 N 4987.11 1.30792 -0.879276 0
M  V30 51136 C 4988.34 2.00526 -0.509619 0
M  V30 51137 C 4988.75 1.65947 0.900392 0
M  V30 51138 O 4988.11 0.893581 1.59127 0
M  V30 51139 C 4988.16 3.55273 -0.668068 0
M  V30 51140 O 4987.88 3.88618 -2.02256 0
M  V30 51141 C 4989.38 4.42279 -0.300649 0
M  V30 51142 H 4986.6 0.641254 -0.197571 0
M  V30 51143 H 4989.15 1.66809 -1.18301 0
M  V30 51144 H 4987.3 3.87377 -0.0421205 0
M  V30 51145 H 4987.72 4.83326 -2.03705 0
M  V30 51146 H 4989.19 5.5006 -0.462435 0
M  V30 51147 H 4989.67 4.32558 0.760908 0
M  V30 51148 H 4990.27 4.1561 -0.902683 0
M  V30 51149 N 4988.59 0.639649 1.44036 0
M  V30 51150 C 4989.54 -0.0722592 2.32488 0
M  V30 51151 C 4990.53 -0.827077 1.47837 0
M  V30 51152 O 4991.74 -0.739012 1.6413 0
M  V30 51153 H 4988.11 -0.0421432 0.750818 0
M  V30 51154 H 4990.08 0.691695 2.90273 0
M  V30 51155 C 4988.83 -1.0344 3.31957 0
M  V30 51156 H 4988.15 -0.46301 3.9711 0
M  V30 51157 H 4989.59 -1.50186 3.9651 0
M  V30 51158 C 4988.05 -2.12382 2.61525 0
M  V30 51159 O 4988.58 -3.20581 2.42055 0
M  V30 51160 N 4986.79 -1.88556 2.21123 0
M  V30 51161 H 4986.34 -1.00568 2.37158 0
M  V30 51162 H 4986.29 -2.61645 1.74325 0
M  V30 51163 N 4990.07 -1.52932 0.380717 0
M  V30 51164 C 4991.34 -1.93846 -0.261348 0
M  V30 51165 C 4991.72 -1.3155 -1.65099 0
M  V30 51166 O 4991.07 -0.480312 -2.23395 0
M  V30 51167 C 4991.28 -3.4774 -0.296343 0
M  V30 51168 C 4992.63 -4.21286 -0.52943 0
M  V30 51169 O 4993.65 -3.542 -0.376917 0
M  V30 51170 O 4992.51 -5.40198 -0.827563 0
M  V30 51171 H 4989.61 -0.811324 -0.160257 0
M  V30 51172 H 4992.15 -1.64041 0.434602 0
M  V30 51173 H 4990.92 -3.85392 0.677376 0
M  V30 51174 H 4990.55 -3.83823 -1.03757 0
M  V30 51175 N 4991.54 -0.110296 -1.57214 0
M  V30 51176 C 4992.47 0.839925 -2.1787 0
M  V30 51177 C 4993.45 1.28348 -1.11628 0
M  V30 51178 O 4994.64 1.34765 -1.39829 0
M  V30 51179 C 4991.77 2.09339 -2.77118 0
M  V30 51180 C 4990.72 1.78793 -3.88866 0
M  V30 51181 C 4990.05 3.11096 -4.34883 0
M  V30 51182 C 4991.35 1.06302 -5.11368 0
M  V30 51183 H 4993.04 0.334503 -2.97526 0
M  V30 51184 H 4990.59 0.159452 -1.43114 0
M  V30 51185 H 4992.54 2.76264 -3.18208 0
M  V30 51186 H 4991.27 2.62191 -1.9474 0
M  V30 51187 H 4989.93 1.14261 -3.48339 0
M  V30 51188 H 4989.57 3.61865 -3.49375 0
M  V30 51189 H 4989.27 2.91435 -5.10234 0
M  V30 51190 H 4990.8 3.79154 -4.78617 0
M  V30 51191 H 4992.21 1.63364 -5.49532 0
M  V30 51192 H 4990.61 0.967668 -5.92247 0
M  V30 51193 H 4991.68 0.0482865 -4.84876 0
M  V30 51194 N 4993.02 1.5675 0.163455 0
M  V30 51195 C 4993.95 2.00046 1.20431 0
M  V30 51196 C 4994.93 0.877308 1.4573 0
M  V30 51197 O 4996.12 1.14395 1.56931 0
M  V30 51198 C 4993.25 2.36706 2.54141 0
M  V30 51199 C 4992.2 3.52055 2.43396 0
M  V30 51200 C 4991.53 3.7448 3.81666 0
M  V30 51201 C 4992.83 4.85254 1.93199 0
M  V30 51202 H 4994.52 2.87247 0.844376 0
M  V30 51203 H 4992.07 1.38195 0.404731 0
M  V30 51204 H 4994.02 2.65594 3.27167 0
M  V30 51205 H 4992.74 1.46424 2.91938 0
M  V30 51206 H 4991.4 3.23307 1.72823 0
M  V30 51207 H 4991.05 2.81475 4.1687 0
M  V30 51208 H 4990.75 4.52097 3.75343 0
M  V30 51209 H 4992.28 4.05776 4.56266 0
M  V30 51210 H 4993.69 5.12966 2.56005 0
M  V30 51211 H 4992.09 5.66562 1.97805 0
M  V30 51212 H 4993.16 4.76723 0.886722 0
M  V30 51213 N 4994.5 -0.432272 1.51556 0
M  V30 51214 C 4995.73 -1.20184 1.68046 0
M  V30 51215 C 4996.14 -1.85355 0.379499 0
M  V30 51216 O 4995.48 -1.71726 -0.652367 0
M  V30 51217 C 4995.54 -2.32378 2.74301 0
M  V30 51218 C 4995.21 -1.87533 4.1675 0
M  V30 51219 C 4996.2 -1.37594 5.01362 0
M  V30 51220 C 4993.89 -1.95071 4.62874 0
M  V30 51221 C 4995.88 -0.957847 6.30162 0
M  V30 51222 C 4993.57 -1.52873 5.9167 0
M  V30 51223 C 4994.57 -1.03312 6.75141 0
M  V30 51224 O 4994.26 -0.617153 8.01528 0
M  V30 51225 H 4993.99 -0.368112 0.566983 0
M  V30 51226 H 4996.54 -0.517805 1.98766 0
M  V30 51227 H 4994.77 -3.04074 2.38906 0
M  V30 51228 H 4996.46 -2.94225 2.79619 0
M  V30 51229 H 4997.23 -1.31161 4.66928 0
M  V30 51230 H 4993.11 -2.32592 3.98023 0
M  V30 51231 H 4996.65 -0.570317 6.95265 0
M  V30 51232 H 4992.55 -1.58977 6.25617 0
M  V30 51233 H 4993.31 -0.742548 8.15125 0
M  V30 51234 N 4995.98 -1.41788 -0.688044 0
M  V30 51235 C 4997.22 -1.42759 -1.44885 0
M  V30 51236 C 4997.58 -0.0384911 -1.92361 0
M  V30 51237 O 4996.87 0.937007 -1.67125 0
M  V30 51238 C 4997.07 -2.37541 -2.67037 0
M  V30 51239 C 4996.89 -3.85529 -2.31511 0
M  V30 51240 C 4995.66 -4.5416 -2.21511 0
M  V30 51241 C 4997.86 -4.76306 -1.94003 0
M  V30 51242 N 4995.84 -5.8724 -1.78949 0
M  V30 51243 C 4997.22 -5.98392 -1.62258 0
M  V30 51244 C 4999.27 -4.63883 -1.80879 0
M  V30 51245 C 4997.97 -7.09437 -1.18707 0
M  V30 51246 C 5000 -5.74898 -1.38732 0
M  V30 51247 C 4999.36 -6.96086 -1.07903 0
M  V30 51248 H 4995.46 -0.577594 -0.527171 0
M  V30 51249 H 4998.04 -1.77716 -0.795312 0
M  V30 51250 H 4996.22 -2.04667 -3.301 0
M  V30 51251 H 4997.95 -2.29181 -3.33554 0
M  V30 51252 H 4994.7 -4.08196 -2.40151 0
M  V30 51253 H 4995.13 -6.5779 -1.60128 0
M  V30 51254 H 4999.77 -3.70679 -2.03365 0
M  V30 51255 H 4997.49 -8.02501 -0.949655 0
M  V30 51256 H 5001.07 -5.67292 -1.29117 0
M  V30 51257 H 4999.95 -7.8053 -0.757836 0
M  V30 51258 N 4997.46 0.92305 -1.2774 0
M  V30 51259 C 4998.42 2.00583 -1.10901 0
M  V30 51260 C 4999.42 1.60717 -0.0515492 0
M  V30 51261 O 5000.61 1.71657 -0.296541 0
M  V30 51262 C 4997.74 3.33827 -0.690834 0
M  V30 51263 H 4998.93 2.16952 -2.07056 0
M  V30 51264 H 4996.49 1.10447 -1.10594 0
M  V30 51265 H 4997.22 3.23158 0.271887 0
M  V30 51266 H 4997.01 3.6412 -1.45461 0
M  V30 51267 H 4998.5 4.13334 -0.595397 0
M  V30 51268 N 4998.93 1.09838 1.1302 0
M  V30 51269 C 5000.21 0.749289 1.80679 0
M  V30 51270 C 5000.59 -0.765102 1.96747 0
M  V30 51271 O 4999.94 -1.68907 1.53892 0
M  V30 51272 C 5000.15 1.49322 3.15443 0
M  V30 51273 C 5001.5 1.66176 3.90731 0
M  V30 51274 O 5002.52 1.45608 3.25079 0
M  V30 51275 O 5001.38 2.00229 5.08498 0
M  V30 51276 H 4998.47 0.269641 0.781807 0
M  V30 51277 H 5001.02 1.20083 1.19909 0
M  V30 51278 H 4999.79 2.52417 2.99 0
M  V30 51279 H 4999.42 1.03413 3.83916 0
M  V30 51280 N 5000.41 -1.30324 0.8862 0
M  V30 51281 C 5001.38 -2.26375 0.358766 0
M  V30 51282 C 5002.38 -1.52847 -0.499444 0
M  V30 51283 O 5003.57 -1.71484 -0.306425 0
M  V30 51284 C 5000.7 -3.3738 -0.488607 0
M  V30 51285 H 5001.89 -2.74543 1.20691 0
M  V30 51286 H 4999.44 -1.41534 0.663163 0
M  V30 51287 H 5000.18 -2.94531 -1.35729 0
M  V30 51288 H 4999.96 -3.91897 0.126141 0
M  V30 51289 H 5001.45 -4.08871 -0.849376 0
M  V30 51290 N 5001.89 -0.647279 -1.43694 0
M  V30 51291 C 5002.84 0.070139 -2.27892 0
M  V30 51292 C 5003.82 0.800552 -1.39571 0
M  V30 51293 O 5005.02 0.683997 -1.6325 0
M  V30 51294 C 5002.15 1.03997 -3.27169 0
M  V30 51295 C 5001.23 0.308335 -4.22978 0
M  V30 51296 N 5001.62 -0.671898 -5.01317 0
M  V30 51297 C 4999.92 0.550595 -4.42588 0
M  V30 51298 C 5000.62 -1.10563 -5.71096 0
M  V30 51299 N 4999.6 -0.441094 -5.41807 0
M  V30 51300 H 5003.4 -0.682131 -2.85874 0
M  V30 51301 H 5000.91 -0.474076 -1.55326 0
M  V30 51302 H 5002.91 1.56867 -3.86262 0
M  V30 51303 H 5001.57 1.79236 -2.70748 0
M  V30 51304 H 5002.58 -1.05038 -5.07136 0
M  V30 51305 H 4999.26 1.28462 -3.97245 0
M  V30 51306 H 5000.65 -1.91637 -6.43991 0
M  V30 51307 N 5003.37 1.52728 -0.388822 0
M  V30 51308 C 5004.3 2.29355 0.43803 0
M  V30 51309 C 5005.28 1.32723 1.06389 0
M  V30 51310 O 5006.46 1.61616 1.07676 0
M  V30 51311 C 5003.59 3.10001 1.56578 0
M  V30 51312 C 5002.55 4.14513 1.06598 0
M  V30 51313 C 5001.87 4.8338 2.28577 0
M  V30 51314 C 5003.17 5.22127 0.134275 0
M  V30 51315 H 5004.87 2.98722 -0.201311 0
M  V30 51316 H 5002.41 1.43664 -0.0982594 0
M  V30 51317 H 5004.37 3.62364 2.15105 0
M  V30 51318 H 5003.09 2.38365 2.2327 0
M  V30 51319 H 5001.75 3.63129 0.503255 0
M  V30 51320 H 5001.4 4.08293 2.93778 0
M  V30 51321 H 5001.1 5.54019 1.95797 0
M  V30 51322 H 5002.62 5.38548 2.87747 0
M  V30 51323 H 5004.04 5.69853 0.627714 0
M  V30 51324 H 5002.43 6.0001 -0.103745 0
M  V30 51325 H 5003.5 4.77968 -0.816966 0
M  V30 51326 N 5004.85 0.118632 1.57153 0
M  V30 51327 C 5006.09 -0.538392 1.94797 0
M  V30 51328 C 5006.42 -1.67239 1.0028 0
M  V30 51329 O 5005.69 -1.95811 0.0590381 0
M  V30 51330 H 5004.27 -0.201878 0.719204 0
M  V30 51331 H 5006.93 0.187486 1.93996 0
M  V30 51332 H 5006.02 -0.93321 2.97821 0
M  V30 51333 N 5006.32 -1.56835 -0.15514 0
M  V30 51334 C 5007.55 -1.86781 -0.882978 0
M  V30 51335 C 5007.96 -0.703885 -1.75619 0
M  V30 51336 O 5007.31 0.335747 -1.80606 0
M  V30 51337 C 5007.37 -3.11336 -1.7975 0
M  V30 51338 C 5007.03 -4.43508 -1.10227 0
M  V30 51339 C 5008.03 -5.17861 -0.460022 0
M  V30 51340 C 5005.71 -4.90237 -1.0942 0
M  V30 51341 C 5007.71 -6.37143 0.181006 0
M  V30 51342 C 5005.39 -6.09446 -0.449355 0
M  V30 51343 C 5006.39 -6.82744 0.187128 0
M  V30 51344 O 5006.08 -7.99689 0.821767 0
M  V30 51345 H 5005.81 -0.623529 -0.261127 0
M  V30 51346 H 5008.37 -2.04813 -0.155132 0
M  V30 51347 H 5006.6 -2.89291 -2.56608 0
M  V30 51348 H 5008.29 -3.27596 -2.39658 0
M  V30 51349 H 5009.05 -4.82832 -0.458119 0
M  V30 51350 H 5004.93 -4.33114 -1.57902 0
M  V30 51351 H 5008.47 -6.94294 0.678398 0
M  V30 51352 H 5004.37 -6.43937 -0.448896 0
M  V30 51353 H 5005.14 -8.15304 0.722623 0
M  V30 51354 N 5007.8 0.424229 -1.51783 0
M  V30 51355 C 5009.05 1.16955 -1.6433 0
M  V30 51356 C 5009.36 1.92034 -0.371816 0
M  V30 51357 O 5010.57 2.68872 -0.376854 0
M  V30 51358 C 5009.03 2.12772 -2.90269 0
M  V30 51359 C 5008.63 1.43281 -4.2447 0
M  V30 51360 C 5010.38 2.87656 -3.12177 0
M  V30 51361 C 5008.29 2.37657 -5.41547 0
M  V30 51362 H 5007.22 0.440272 -0.612109 0
M  V30 51363 H 5009.87 0.435368 -1.7826 0
M  V30 51364 H 5008.25 2.8968 -2.70003 0
M  V30 51365 H 5009.42 0.718404 -4.55165 0
M  V30 51366 H 5007.74 0.804974 -4.08545 0
M  V30 51367 H 5010.33 3.58381 -3.96821 0
M  V30 51368 H 5010.68 3.49751 -2.25788 0
M  V30 51369 H 5011.21 2.17852 -3.32845 0
M  V30 51370 H 5007.95 1.80233 -6.30235 0
M  V30 51371 H 5007.47 3.07113 -5.1521 0
M  V30 51372 H 5009.15 2.98508 -5.74022 0
M  V30 51373 N 5009.28 1.4215 0.680515 0
M  V30 51374 C 5010.19 1.47571 1.82373 0
M  V30 51375 C 5011.21 0.36495 1.7013 0
M  V30 51376 O 5012.38 0.614983 1.91781 0
M  V30 51377 C 5009.45 1.37024 3.18474 0
M  V30 51378 C 5008.51 2.58544 3.42715 0
M  V30 51379 C 5007.74 2.4849 4.72322 0
M  V30 51380 O 5007.96 1.51764 5.4984 0
M  V30 51381 O 5006.9 3.38521 4.97682 0
M  V30 51382 H 5010.72 2.44052 1.80755 0
M  V30 51383 H 5008.31 1.23852 0.835526 0
M  V30 51384 H 5010.19 1.33482 3.997 0
M  V30 51385 H 5008.87 0.436664 3.20741 0
M  V30 51386 H 5007.77 2.67661 2.61359 0
M  V30 51387 H 5009.11 3.50781 3.45273 0
M  V30 51388 N 5010.76 -0.916262 1.28228 0
M  V30 51389 C 5011.99 -1.6965 1.17908 0
M  V30 51390 C 5012.4 -1.87332 -0.265202 0
M  V30 51391 O 5011.74 -1.39833 -1.19132 0
M  V30 51392 C 5011.8 -3.11018 1.803 0
M  V30 51393 C 5011.47 -3.16631 3.29536 0
M  V30 51394 C 5012.46 -2.98017 4.26007 0
M  V30 51395 C 5010.15 -3.39225 3.70448 0
M  V30 51396 C 5012.14 -3.01904 5.61367 0
M  V30 51397 C 5009.83 -3.42744 5.05934 0
M  V30 51398 C 5010.83 -3.24104 6.01204 0
M  V30 51399 O 5010.51 -3.2738 7.34219 0
M  V30 51400 H 5010.25 -0.537183 0.410379 0
M  V30 51401 H 5012.8 -1.15541 1.69821 0
M  V30 51402 H 5011.03 -3.66658 1.22878 0
M  V30 51403 H 5012.72 -3.71057 1.64533 0
M  V30 51404 H 5013.49 -2.80391 3.95735 0
M  V30 51405 H 5009.36 -3.5278 2.96761 0
M  V30 51406 H 5012.91 -2.87272 6.35705 0
M  V30 51407 H 5008.81 -3.59897 5.35858 0
M  V30 51408 H 5009.57 -3.43758 7.42814 0
M  V30 51409 N 5012.24 -1.10435 -1.12436 0
M  V30 51410 C 5013.46 -0.869155 -1.88309 0
M  V30 51411 C 5013.89 0.574849 -1.79101 0
M  V30 51412 O 5013.25 1.40492 -1.14594 0
M  V30 51413 C 5013.29 -1.3222 -3.35485 0
M  V30 51414 O 5012.4 -0.487236 -4.09512 0
M  V30 51415 H 5011.74 -0.313914 -0.58511 0
M  V30 51416 H 5014.27 -1.47116 -1.4219 0
M  V30 51417 H 5014.28 -1.31214 -3.86325 0
M  V30 51418 H 5012.95 -2.37376 -3.41504 0
M  V30 51419 H 5011.53 -0.562501 -3.68633 0
M  V30 51420 N 5013.72 1.29852 -0.893099 0
M  V30 51421 C 5014.99 1.90692 -0.435403 0
M  V30 51422 C 5015.37 1.81114 1.08447 0
M  V30 51423 O 5014.72 1.23359 1.9234 0
M  V30 51424 C 5014.93 3.3603 -0.94259 0
M  V30 51425 C 5016.28 4.13079 -0.982371 0
M  V30 51426 O 5017.3 3.44907 -0.889807 0
M  V30 51427 O 5016.16 5.34892 -1.12041 0
M  V30 51428 H 5013.26 0.815974 -0.134596 0
M  V30 51429 H 5015.8 1.38363 -0.982532 0
M  V30 51430 H 5014.57 3.37125 -1.98652 0
M  V30 51431 H 5014.2 3.95827 -0.375091 0
M  V30 51432 N 5015.19 0.65489 1.43349 0
M  V30 51433 C 5016.12 -0.0220988 2.3349 0
M  V30 51434 C 5017.1 -0.81022 1.49564 0
M  V30 51435 O 5018.29 -0.771363 1.78224 0
M  V30 51436 C 5015.42 -0.988 3.3295 0
M  V30 51437 C 5014.37 -0.309876 4.26877 0
M  V30 51438 C 5013.7 -1.38734 5.16388 0
M  V30 51439 C 5015 0.79877 5.16156 0
M  V30 51440 H 5016.69 0.730673 2.90347 0
M  V30 51441 H 5014.24 0.352822 1.39611 0
M  V30 51442 H 5016.19 -1.47053 3.94909 0
M  V30 51443 H 5014.92 -1.77195 2.74353 0
M  V30 51444 H 5013.58 0.152226 3.66284 0
M  V30 51445 H 5013.22 -2.16277 4.54129 0
M  V30 51446 H 5012.92 -0.938847 5.80051 0
M  V30 51447 H 5014.45 -1.8712 5.81221 0
M  V30 51448 H 5015.86 0.398327 5.71915 0
M  V30 51449 H 5014.26 1.17183 5.88547 0
M  V30 51450 H 5015.33 1.65604 4.55745 0
M  V30 51451 N 5016.67 -1.5252 0.396917 0
M  V30 51452 C 5017.58 -2.30404 -0.441699 0
M  V30 51453 C 5018.6 -1.37628 -1.06463 0
M  V30 51454 O 5019.77 -1.707 -1.0688 0
M  V30 51455 C 5016.84 -3.10135 -1.54975 0
M  V30 51456 C 5015.9 -4.18631 -0.951132 0
M  V30 51457 C 5015.13 -4.94551 -2.00638 0
M  V30 51458 O 5015.36 -4.7064 -3.22264 0
M  V30 51459 O 5014.29 -5.79705 -1.61942 0
M  V30 51460 H 5018.12 -3.03086 0.192999 0
M  V30 51461 H 5015.7 -1.48536 0.160433 0
M  V30 51462 H 5017.58 -3.59824 -2.19328 0
M  V30 51463 H 5016.26 -2.40259 -2.16927 0
M  V30 51464 H 5015.16 -3.7312 -0.270642 0
M  V30 51465 H 5016.5 -4.90764 -0.375714 0
M  V30 51466 N 5018.15 -0.126964 -1.57088 0
M  V30 51467 C 5019.4 0.528054 -1.95079 0
M  V30 51468 C 5019.72 1.66705 -1.01166 0
M  V30 51469 O 5018.99 1.95777 -0.0694216 0
M  V30 51470 H 5017.57 0.198061 -0.720264 0
M  V30 51471 H 5020.23 -0.197772 -1.93894 0
M  V30 51472 H 5019.33 0.917403 -2.98312 0
M  V30 51473 N 5019.63 1.56915 0.14682 0
M  V30 51474 C 5020.58 1.94697 1.18647 0
M  V30 51475 C 5021.56 0.818258 1.3854 0
M  V30 51476 O 5022.75 1.08172 1.40099 0
M  V30 51477 C 5019.88 2.33126 2.52006 0
M  V30 51478 C 5018.97 3.52568 2.35704 0
M  V30 51479 N 5019.36 4.69098 1.89158 0
M  V30 51480 C 5017.66 3.57656 2.66455 0
M  V30 51481 C 5018.36 5.51194 1.85905 0
M  V30 51482 N 5017.33 4.92907 2.29224 0
M  V30 51483 H 5021.14 2.82267 0.81869 0
M  V30 51484 H 5018.65 1.58475 0.354873 0
M  V30 51485 H 5020.65 2.58399 3.27163 0
M  V30 51486 H 5019.31 1.46908 2.89566 0
M  V30 51487 H 5020.32 4.9285 1.59122 0
M  V30 51488 H 5017 2.81978 3.07888 0
M  V30 51489 H 5018.39 6.54618 1.51408 0
M  V30 51490 N 5021.11 -0.416173 1.52006 0
M  V30 51491 C 5022.06 -1.50552 1.71225 0
M  V30 51492 C 5023.04 -1.50611 0.566143 0
M  V30 51493 O 5024.23 -1.56706 0.822929 0
M  V30 51494 C 5021.36 -2.8855 1.85994 0
M  V30 51495 C 5020.45 -2.93166 3.06455 0
M  V30 51496 N 5020.84 -2.6749 4.29282 0
M  V30 51497 C 5019.14 -3.24333 3.06144 0
M  V30 51498 C 5019.84 -2.78493 5.10702 0
M  V30 51499 N 5018.81 -3.11072 4.45798 0
M  V30 51500 H 5022.61 -1.29485 2.63839 0
M  V30 51501 H 5020.13 -0.623788 1.49942 0
M  V30 51502 H 5022.13 -3.66947 1.97878 0
M  V30 51503 H 5020.79 -3.10621 0.945764 0
M  V30 51504 H 5021.8 -2.42017 4.57874 0
M  V30 51505 H 5018.47 -3.52043 2.24437 0
M  V30 51506 H 5019.86 -2.62417 6.18536 0
M  V30 51507 N 5022.58 -1.42509 -0.672966 0
M  V30 51508 C 5024 -1.25475 -0.986311 0
M  V30 51509 C 5024.2 -0.160252 -2.00862 0
M  V30 51510 O 5023.26 0.467905 -2.48127 0
M  V30 51511 C 5024.57 -2.61224 -1.48937 0
M  V30 51512 C 5026.12 -2.68594 -1.60705 0
M  V30 51513 C 5026.59 -4.04714 -2.14407 0
M  V30 51514 N 5028.08 -4.06678 -2.21738 0
M  V30 51515 C 5028.82 -5.08819 -2.64368 0
M  V30 51516 N 5028.31 -6.21343 -3.06439 0
M  V30 51517 N 5030.11 -4.96175 -2.64133 0
M  V30 51518 H 5022.26 -2.124 0.00385999 0
M  V30 51519 H 5024.52 -0.946048 -0.0608034 0
M  V30 51520 H 5024.23 -3.42182 -0.812692 0
M  V30 51521 H 5024.1 -2.8527 -2.46781 0
M  V30 51522 H 5026.49 -1.87982 -2.27479 0
M  V30 51523 H 5026.57 -2.48335 -0.613465 0
M  V30 51524 H 5026.21 -4.85785 -1.48241 0
M  V30 51525 H 5026.14 -4.22326 -3.1456 0
M  V30 51526 H 5028.63 -3.25445 -1.92078 0
M  V30 51527 H 5028.95 -6.9513 -3.37659 0
M  V30 51528 H 5027.29 -6.24845 -3.04291 0
M  V30 51529 H 5030.48 -4.07342 -2.3063 0
M  V30 51530 H 5030.66 -5.75911 -2.97037 0
M  V30 51531 N 5024.06 0.909449 -1.28712 0
M  V30 51532 C 5025.01 1.99906 -1.09643 0
M  V30 51533 C 5026 1.60889 -0.0187766 0
M  V30 51534 O 5027.19 1.75374 -0.2394 0
M  V30 51535 C 5024.32 3.34672 -0.76482 0
M  V30 51536 C 5023.4 3.80078 -1.88153 0
M  V30 51537 N 5023.79 3.97813 -3.12375 0
M  V30 51538 C 5022.09 4.09272 -1.77236 0
M  V30 51539 C 5022.79 4.35915 -3.85166 0
M  V30 51540 N 5021.77 4.44415 -3.13044 0
M  V30 51541 H 5025.57 2.11674 -2.0389 0
M  V30 51542 H 5023.08 1.09759 -1.19694 0
M  V30 51543 H 5025.08 4.12424 -0.609277 0
M  V30 51544 H 5023.74 3.24256 0.169838 0
M  V30 51545 H 5024.75 3.83614 -3.47938 0
M  V30 51546 H 5021.43 4.07467 -0.909764 0
M  V30 51547 H 5022.82 4.57563 -4.92022 0
M  V30 51548 N 5025.54 1.1103 1.11848 0
M  V30 51549 C 5026.77 0.878884 1.87305 0
M  V30 51550 C 5027.18 -0.571047 1.79957 0
M  V30 51551 O 5026.54 -1.39405 1.17782 0
M  V30 51552 C 5026.59 1.32652 3.36282 0
M  V30 51553 O 5026.31 2.7196 3.43467 0
M  V30 51554 C 5027.81 1.12989 4.28659 0
M  V30 51555 H 5025.03 0.315036 0.592447 0
M  V30 51556 H 5027.58 1.47654 1.41487 0
M  V30 51557 H 5025.73 0.772402 3.79622 0
M  V30 51558 H 5026.15 2.91256 4.362 0
M  V30 51559 H 5027.62 1.49217 5.31449 0
M  V30 51560 H 5028.1 0.0690671 4.39146 0
M  V30 51561 H 5028.7 1.67078 3.91107 0
M  V30 51562 N 5027.02 -1.29376 0.899973 0
M  V30 51563 C 5028.26 -1.95838 0.526811 0
M  V30 51564 C 5028.6 -1.70777 -0.924591 0
M  V30 51565 O 5027.87 -1.0209 -1.65553 0
M  V30 51566 C 5028.16 -3.50635 0.820185 0
M  V30 51567 C 5028.01 -3.85152 2.32331 0
M  V30 51568 C 5029.33 -4.39029 0.306864 0
M  V30 51569 H 5026.45 -0.711315 0.192873 0
M  V30 51570 H 5029.09 -1.52988 1.1267 0
M  V30 51571 H 5027.24 -3.87264 0.309627 0
M  V30 51572 H 5028.91 -3.58467 2.90343 0
M  V30 51573 H 5027.15 -3.32686 2.78393 0
M  V30 51574 H 5027.82 -4.93196 2.47915 0
M  V30 51575 H 5030.3 -4.09394 0.744052 0
M  V30 51576 H 5029.18 -5.46224 0.541336 0
M  V30 51577 H 5029.44 -4.3494 -0.792435 0
M  V30 51578 N 5028.5 -0.662483 -1.43 0
M  V30 51579 C 5029.73 -0.187415 -2.05748 0
M  V30 51580 C 5030.13 1.15577 -1.49795 0
M  V30 51581 O 5029.48 1.72649 -0.627548 0
M  V30 51582 C 5029.54 -0.0317756 -3.59486 0
M  V30 51583 C 5029.2 -1.30172 -4.38069 0
M  V30 51584 C 5030.2 -2.2325 -4.69527 0
M  V30 51585 C 5027.89 -1.54588 -4.7792 0
M  V30 51586 C 5029.88 -3.39031 -5.39756 0
M  V30 51587 C 5027.57 -2.70661 -5.47892 0
M  V30 51588 C 5028.56 -3.62707 -5.78734 0
M  V30 51589 O 5028.25 -4.76751 -6.47274 0
M  V30 51590 H 5027.98 -0.091545 -0.669773 0
M  V30 51591 H 5030.54 -0.906047 -1.84337 0
M  V30 51592 H 5028.77 0.742317 -3.79508 0
M  V30 51593 H 5030.46 0.401835 -4.03906 0
M  V30 51594 H 5031.22 -2.05632 -4.3925 0
M  V30 51595 H 5027.1 -0.838199 -4.53316 0
M  V30 51596 H 5030.65 -4.10897 -5.63746 0
M  V30 51597 H 5026.54 -2.88209 -5.77586 0
M  V30 51598 H 5027.31 -4.76136 -6.6576 0
M  V30 51599 N 5029.97 1.52307 -0.404999 0
M  V30 51600 C 5031.25 1.94237 0.230476 0
M  V30 51601 C 5031.63 1.3416 1.62986 0
M  V30 51602 O 5030.98 0.515791 2.22602 0
M  V30 51603 C 5031.19 3.48167 0.240984 0
M  V30 51604 C 5032.54 4.22075 0.46234 0
M  V30 51605 O 5033.56 3.54755 0.320519 0
M  V30 51606 O 5032.42 5.41446 0.741518 0
M  V30 51607 H 5029.51 0.813771 0.147329 0
M  V30 51608 H 5032.06 1.63328 -0.460644 0
M  V30 51609 H 5030.83 3.84266 -0.738602 0
M  V30 51610 H 5030.46 3.85425 0.976375 0
M  V30 51611 N 5031.45 0.135293 1.57018 0
M  V30 51612 C 5032.7 -0.517701 1.95357 0
M  V30 51613 C 5033.02 -1.66166 1.02048 0
M  V30 51614 O 5032.29 -1.95737 0.0798031 0
M  V30 51615 H 5030.87 -0.194239 0.721305 0
M  V30 51616 H 5033.53 0.208052 1.93786 0
M  V30 51617 H 5032.63 -0.901569 2.98794 0
M  V30 51618 N 5032.93 -1.5699 -0.138497 0
M  V30 51619 C 5033.89 -1.97988 -1.15471 0
M  V30 51620 C 5034.89 -0.867463 -1.35395 0
M  V30 51621 O 5036.08 -1.13391 -1.32242 0
M  V30 51622 C 5033.22 -2.30319 -2.51329 0
M  V30 51623 H 5034.41 -2.88955 -0.802795 0
M  V30 51624 H 5031.96 -1.51557 -0.382135 0
M  V30 51625 H 5032.7 -1.42169 -2.91476 0
M  V30 51626 H 5032.48 -3.11433 -2.38226 0
M  V30 51627 H 5033.97 -2.62845 -3.24503 0
M  V30 51628 N 5034.41 0.408106 -1.52224 0
M  V30 51629 C 5035.34 1.50413 -1.786 0
M  V30 51630 C 5036.32 1.57721 -0.637029 0
M  V30 51631 O 5037.5 1.72979 -0.882725 0
M  V30 51632 C 5034.63 2.88226 -1.93761 0
M  V30 51633 C 5033.59 2.95768 -3.09363 0
M  V30 51634 C 5032.91 4.35844 -3.09748 0
M  V30 51635 C 5034.21 2.67159 -4.48802 0
M  V30 51636 H 5035.91 1.28591 -2.70379 0
M  V30 51637 H 5033.45 0.617175 -1.30104 0
M  V30 51638 H 5035.41 3.64888 -2.10796 0
M  V30 51639 H 5034.13 3.11343 -0.986552 0
M  V30 51640 H 5032.79 2.21551 -2.9208 0
M  V30 51641 H 5032.44 4.55973 -2.12362 0
M  V30 51642 H 5032.14 4.41815 -3.87393 0
M  V30 51643 H 5033.66 5.1444 -3.28913 0
M  V30 51644 H 5035.08 3.33544 -4.66285 0
M  V30 51645 H 5033.47 2.84504 -5.28372 0
M  V30 51646 H 5034.54 1.62592 -4.56828 0
M  V30 51647 N 5035.89 1.42864 0.665399 0
M  V30 51648 C 5037.3 1.39015 1.24627 0
M  V30 51649 C 5037.65 0.0880974 1.96002 0
M  V30 51650 O 5036.77 -0.812877 2.00552 0
M  V30 51651 C 5037.37 2.51813 2.26661 0
M  V30 51652 C 5035.93 2.51267 2.80253 0
M  V30 51653 C 5035.07 2.30129 1.54712 0
M  V30 51654 H 5038.03 1.51942 0.458183 0
M  V30 51655 H 5038.05 2.22604 3.0859 0
M  V30 51656 H 5037.56 3.46564 1.74685 0
M  V30 51657 H 5035.66 1.60361 3.36326 0
M  V30 51658 H 5035.77 3.48626 3.28629 0
M  V30 51659 H 5034.14 1.78566 1.81621 0
M  V30 51660 H 5034.92 3.26949 1.04687 0
M  V30 51661 N 5037.36 -0.902611 1.29192 0
M  V30 51662 C 5038.31 -1.99322 1.10702 0
M  V30 51663 C 5039.3 -1.60877 0.0273086 0
M  V30 51664 O 5040.49 -1.75244 0.248697 0
M  V30 51665 C 5037.62 -3.34262 0.782557 0
M  V30 51666 C 5036.71 -3.79075 1.90166 0
M  V30 51667 N 5037.1 -3.96151 3.1448 0
M  V30 51668 C 5035.39 -4.08326 1.79404 0
M  V30 51669 C 5036.1 -4.33866 3.87473 0
M  V30 51670 N 5035.07 -4.42748 3.15396 0
M  V30 51671 H 5038.87 -2.1059 2.0501 0
M  V30 51672 H 5036.39 -1.09123 1.20275 0
M  V30 51673 H 5038.38 -4.12095 0.63114 0
M  V30 51674 H 5037.04 -3.24341 -0.15264 0
M  V30 51675 H 5038.06 -3.81763 3.49968 0
M  V30 51676 H 5034.73 -4.06979 0.93136 0
M  V30 51677 H 5036.12 -4.54948 4.94441 0
M  V30 51678 N 5038.84 -1.11622 -1.11258 0
M  V30 51679 C 5040.25 -0.882 -1.64553 0
M  V30 51680 C 5040.6 0.585376 -1.87264 0
M  V30 51681 O 5039.73 1.44789 -1.60826 0
M  V30 51682 C 5040.32 -1.59457 -2.9893 0
M  V30 51683 C 5038.88 -1.40673 -3.49125 0
M  V30 51684 C 5038.03 -1.636 -2.23898 0
M  V30 51685 H 5040.98 -1.2722 -0.948725 0
M  V30 51686 H 5041 -1.04067 -3.65992 0
M  V30 51687 H 5040.51 -2.66251 -2.82368 0
M  V30 51688 H 5038.62 -0.360965 -3.70847 0
M  V30 51689 H 5038.73 -2.15708 -4.27793 0
M  V30 51690 H 5037.09 -1.05952 -2.31617 0
M  V30 51691 H 5037.88 -2.71674 -2.09877 0
M  V30 51692 N 5040.32 1.28897 -0.906821 0
M  V30 51693 C 5041.57 1.95267 -0.536395 0
M  V30 51694 C 5041.9 1.71438 0.918651 0
M  V30 51695 O 5041.15 1.02437 1.66749 0
M  V30 51696 C 5041.45 3.48701 -0.78374 0
M  V30 51697 C 5041.12 3.92618 -2.21725 0
M  V30 51698 C 5039.78 4.0432 -2.6092 0
M  V30 51699 C 5042.13 4.15207 -3.15044 0
M  V30 51700 C 5039.46 4.35984 -3.926 0
M  V30 51701 C 5041.81 4.48349 -4.4628 0
M  V30 51702 C 5040.47 4.58261 -4.85338 0
M  V30 51703 H 5039.74 0.714531 -0.196281 0
M  V30 51704 H 5042.39 1.53362 -1.14683 0
M  V30 51705 H 5040.7 3.91696 -0.0904425 0
M  V30 51706 H 5042.39 3.9816 -0.476407 0
M  V30 51707 H 5038.98 3.84032 -1.90309 0
M  V30 51708 H 5043.17 4.05626 -2.85974 0
M  V30 51709 H 5038.42 4.41863 -4.22572 0
M  V30 51710 H 5042.6 4.64777 -5.18609 0
M  V30 51711 H 5040.22 4.82552 -5.87408 0
M  V30 51712 N 5041.8 0.670057 1.42646 0
M  V30 51713 C 5042.76 -0.00196602 2.292 0
M  V30 51714 C 5043.76 -0.733766 1.43082 0
M  V30 51715 O 5044.95 -0.572482 1.64524 0
M  V30 51716 C 5042.08 -1.01348 3.25486 0
M  V30 51717 H 5043.28 0.759798 2.90116 0
M  V30 51718 H 5040.83 0.432158 1.50207 0
M  V30 51719 H 5041.57 -1.8039 2.695 0
M  V30 51720 H 5041.35 -0.492187 3.88999 0
M  V30 51721 H 5042.84 -1.48226 3.90409 0
M  V30 51722 N 5043.28 -1.5209 0.413071 0
M  V30 51723 C 5044.53 -2.01042 -0.162799 0
M  V30 51724 C 5044.84 -1.30293 -1.45887 0
M  V30 51725 O 5046.05 -1.70082 -2.11623 0
M  V30 51726 C 5044.5 -3.58284 -0.34068 0
M  V30 51727 C 5044.11 -4.37951 0.943531 0
M  V30 51728 C 5045.85 -4.15455 -0.871628 0
M  V30 51729 C 5043.76 -5.86845 0.732623 0
M  V30 51730 H 5042.69 -0.751226 -0.0646149 0
M  V30 51731 H 5045.34 -1.75402 0.539121 0
M  V30 51732 H 5043.72 -3.8027 -1.10503 0
M  V30 51733 H 5044.9 -4.27723 1.71433 0
M  V30 51734 H 5043.21 -3.92117 1.40119 0
M  V30 51735 H 5045.81 -5.24379 -1.04552 0
M  V30 51736 H 5046.15 -3.73063 -1.84742 0
M  V30 51737 H 5046.69 -3.97453 -0.166238 0
M  V30 51738 H 5043.42 -6.33603 1.68009 0
M  V30 51739 H 5042.94 -5.998 0.00119092 0
M  V30 51740 H 5044.62 -6.45905 0.376332 0
M  V30 51741 N 5044.76 -0.143618 -1.56944 0
M  V30 51742 C 5045.98 0.515376 -2.00378 0
M  V30 51743 C 5046.4 1.58639 -1.02367 0
M  V30 51744 O 5045.76 1.82489 -0.020168 0
M  V30 51745 C 5045.81 1.11911 -3.43741 0
M  V30 51746 O 5045.53 0.0908779 -4.38006 0
M  V30 51747 C 5047.03 1.85904 -4.02436 0
M  V30 51748 H 5044.25 0.134455 -0.657391 0
M  V30 51749 H 5046.79 -0.237206 -2.0312 0
M  V30 51750 H 5044.95 1.82233 -3.41862 0
M  V30 51751 H 5045.36 0.532733 -5.21788 0
M  V30 51752 H 5046.84 2.23442 -5.04755 0
M  V30 51753 H 5047.31 2.74367 -3.42956 0
M  V30 51754 H 5047.92 1.20288 -4.07935 0
M  V30 51755 N 5046.23 1.57062 0.130169 0
M  V30 51756 C 5047.48 1.83448 0.838424 0
M  V30 51757 C 5047.8 0.727532 1.81566 0
M  V30 51758 O 5049 0.877484 2.56929 0
M  V30 51759 C 5047.46 3.25207 1.54171 0
M  V30 51760 C 5047.07 4.43882 0.606022 0
M  V30 51761 C 5048.81 3.60852 2.23575 0
M  V30 51762 C 5046.72 5.76666 1.31189 0
M  V30 51763 H 5045.65 0.684196 0.316847 0
M  V30 51764 H 5048.3 1.83274 0.0911414 0
M  V30 51765 H 5046.68 3.19818 2.33522 0
M  V30 51766 H 5047.85 4.60544 -0.15347 0
M  V30 51767 H 5046.17 4.16395 0.0195241 0
M  V30 51768 H 5048.77 4.57323 2.77056 0
M  V30 51769 H 5049.11 2.87734 3.00857 0
M  V30 51770 H 5049.64 3.67976 1.51124 0
M  V30 51771 H 5046.38 6.52924 0.580593 0
M  V30 51772 H 5045.9 5.6391 2.04367 0
M  V30 51773 H 5047.58 6.20041 1.84818 0
M  V30 51774 N 5047.71 -0.400028 1.52439 0
M  V30 51775 C 5048.96 -1.14613 1.66944 0
M  V30 51776 C 5049.29 -1.90261 0.403864 0
M  V30 51777 O 5048.54 -1.85837 -0.613444 0
M  V30 51778 C 5048.84 -2.15904 2.84816 0
M  V30 51779 C 5048.51 -1.56996 4.22686 0
M  V30 51780 C 5047.17 -1.40655 4.60184 0
M  V30 51781 C 5049.52 -1.14063 5.08566 0
M  V30 51782 C 5046.85 -0.799131 5.81232 0
M  V30 51783 C 5049.2 -0.547352 6.30228 0
M  V30 51784 C 5047.86 -0.371155 6.66467 0
M  V30 51785 H 5047.13 -0.419398 0.61089 0
M  V30 51786 H 5049.78 -0.432161 1.8656 0
M  V30 51787 H 5048.09 -2.93479 2.59571 0
M  V30 51788 H 5049.78 -2.73523 2.93234 0
M  V30 51789 H 5046.37 -1.70699 3.93141 0
M  V30 51790 H 5050.56 -1.25493 4.80172 0
M  V30 51791 H 5045.81 -0.650716 6.07927 0
M  V30 51792 H 5049.99 -0.20633 6.96094 0
M  V30 51793 H 5047.61 0.101617 7.60132 0
M  V30 51794 N 5049.19 -1.43215 -0.657814 0
M  V30 51795 C 5050.1 -1.50454 -1.80002 0
M  V30 51796 C 5051.12 -0.39197 -1.69528 0
M  V30 51797 O 5052.29 -0.645416 -1.90778 0
M  V30 51798 C 5049.36 -1.42073 -3.16253 0
M  V30 51799 C 5048.42 -2.63963 -3.38558 0
M  V30 51800 C 5047.65 -2.55973 -4.68309 0
M  V30 51801 O 5047.87 -1.60493 -5.47356 0
M  V30 51802 O 5046.81 -3.46396 -4.92233 0
M  V30 51803 H 5050.63 -2.46896 -1.7685 0
M  V30 51804 H 5048.22 -1.25166 -0.815716 0
M  V30 51805 H 5050.1 -1.39824 -3.97526 0
M  V30 51806 H 5048.78 -0.487636 -3.20006 0
M  V30 51807 H 5047.68 -2.71785 -2.57067 0
M  V30 51808 H 5049.02 -3.56229 -3.39649 0
M  V30 51809 N 5050.67 0.895746 -1.29669 0
M  V30 51810 C 5051.94 1.62719 -1.08544 0
M  V30 51811 C 5052.32 2.07849 0.369046 0
M  V30 51812 O 5051.67 1.83725 1.35858 0
M  V30 51813 C 5051.88 2.80498 -2.07658 0
M  V30 51814 C 5053.23 3.51089 -2.38792 0
M  V30 51815 O 5054.25 2.90672 -2.05884 0
M  V30 51816 O 5053.11 4.60017 -2.95036 0
M  V30 51817 H 5050.21 0.714677 -0.416131 0
M  V30 51818 H 5052.75 0.943467 -1.41056 0
M  V30 51819 H 5051.53 2.44376 -3.05608 0
M  V30 51820 H 5051.15 3.56574 -1.75899 0
M  V30 51821 N 5052.15 1.1221 1.10665 0
M  V30 51822 C 5053.37 0.898701 1.86363 0
M  V30 51823 C 5053.79 -0.551928 1.80552 0
M  V30 51824 O 5053.15 -1.38147 1.19254 0
M  V30 51825 C 5053.2 1.36211 3.34856 0
M  V30 51826 O 5052.92 2.75588 3.40563 0
M  V30 51827 C 5054.42 1.1753 4.27436 0
M  V30 51828 H 5051.64 0.321302 0.589072 0
M  V30 51829 H 5054.18 1.49147 1.39913 0
M  V30 51830 H 5052.34 0.812623 3.78781 0
M  V30 51831 H 5052.75 2.95866 4.33086 0
M  V30 51832 H 5054.23 1.54845 5.29837 0
M  V30 51833 H 5054.7 0.11564 4.39048 0
M  V30 51834 H 5055.31 1.71217 3.89313 0
M  V30 51835 N 5053.62 -1.28415 0.913644 0
M  V30 51836 C 5054.87 -1.94263 0.54264 0
M  V30 51837 C 5055.19 -1.72712 -0.918146 0
M  V30 51838 O 5056.39 -2.32783 -1.3973 0
M  V30 51839 C 5054.85 -3.47952 0.919629 0
M  V30 51840 C 5054.46 -3.78282 2.40014 0
M  V30 51841 C 5056.2 -4.1996 0.619205 0
M  V30 51842 C 5054.11 -5.2528 2.71726 0
M  V30 51843 H 5053.04 -0.727206 0.199218 0
M  V30 51844 H 5055.69 -1.45927 1.11255 0
M  V30 51845 H 5054.07 -3.95019 0.278511 0
M  V30 51846 H 5055.24 -3.42024 3.08798 0
M  V30 51847 H 5053.56 -3.19447 2.67101 0
M  V30 51848 H 5056.16 -5.28175 0.832808 0
M  V30 51849 H 5056.5 -4.13936 -0.442981 0
M  V30 51850 H 5057.03 -3.78669 1.21878 0
M  V30 51851 H 5053.77 -5.36381 3.76797 0
M  V30 51852 H 5053.29 -5.62735 2.07578 0
M  V30 51853 H 5054.97 -5.93018 2.58724 0
M  V30 51854 N 5055.1 -0.677613 -1.42289 0
M  V30 51855 C 5056.33 -0.209227 -2.05538 0
M  V30 51856 C 5056.74 1.13982 -1.51013 0
M  V30 51857 O 5056.08 1.71973 -0.645824 0
M  V30 51858 C 5056.14 -0.0699021 -3.59432 0
M  V30 51859 C 5055.81 -1.34811 -4.36664 0
M  V30 51860 C 5056.81 -2.28217 -4.67133 0
M  V30 51861 C 5054.49 -1.59649 -4.76254 0
M  V30 51862 C 5056.48 -3.44737 -5.3613 0
M  V30 51863 C 5054.17 -2.76457 -5.44991 0
M  V30 51864 C 5055.17 -3.68825 -5.74854 0
M  V30 51865 O 5054.86 -4.8359 -6.42181 0
M  V30 51866 H 5054.59 -0.0986437 -0.668764 0
M  V30 51867 H 5057.14 -0.925547 -1.83365 0
M  V30 51868 H 5055.37 0.702024 -3.80274 0
M  V30 51869 H 5057.06 0.358973 -4.0431 0
M  V30 51870 H 5057.83 -2.10279 -4.37044 0
M  V30 51871 H 5053.71 -0.886232 -4.52401 0
M  V30 51872 H 5057.25 -4.16853 -5.59356 0
M  V30 51873 H 5053.15 -2.94319 -5.74497 0
M  V30 51874 H 5053.92 -4.8317 -6.60673 0
M  V30 51875 N 5056.58 1.51869 -0.421131 0
M  V30 51876 C 5057.83 2.02895 0.143275 0
M  V30 51877 C 5058.18 1.30059 1.41783 0
M  V30 51878 O 5057.47 0.401841 1.87339 0
M  V30 51879 C 5057.67 3.54765 0.433167 0
M  V30 51880 C 5057.5 4.42313 -0.81174 0
M  V30 51881 C 5056.27 4.87195 -1.3405 0
M  V30 51882 C 5058.47 4.85625 -1.6933 0
M  V30 51883 N 5056.45 5.58906 -2.53963 0
M  V30 51884 C 5057.82 5.56238 -2.73859 0
M  V30 51885 C 5059.87 4.67628 -1.70964 0
M  V30 51886 C 5058.58 6.10763 -3.79948 0
M  V30 51887 C 5060.6 5.23058 -2.75978 0
M  V30 51888 C 5059.96 5.93604 -3.79228 0
M  V30 51889 H 5056.06 0.78188 0.0136829 0
M  V30 51890 H 5058.65 1.85917 -0.578171 0
M  V30 51891 H 5056.82 3.71791 1.12365 0
M  V30 51892 H 5058.55 3.92467 0.987506 0
M  V30 51893 H 5055.31 4.65032 -0.896769 0
M  V30 51894 H 5055.73 5.99397 -3.14725 0
M  V30 51895 H 5060.37 4.12563 -0.924745 0
M  V30 51896 H 5058.09 6.64893 -4.59285 0
M  V30 51897 H 5061.68 5.10995 -2.78165 0
M  V30 51898 H 5060.56 6.35727 -4.59152 0
M  V30 51899 N 5058.06 0.151939 1.56866 0
M  V30 51900 C 5059.29 -0.504743 2.00649 0
M  V30 51901 C 5059.7 -1.58094 1.03207 0
M  V30 51902 O 5059.06 -1.82476 0.0298456 0
M  V30 51903 C 5059.11 -1.10087 3.4433 0
M  V30 51904 O 5058.83 -0.0676481 4.38048 0
M  V30 51905 C 5060.33 -1.83767 4.03416 0
M  V30 51906 H 5057.55 -0.130966 0.658095 0
M  V30 51907 H 5060.1 0.247975 2.02991 0
M  V30 51908 H 5058.25 -1.80418 3.42824 0
M  V30 51909 H 5058.66 -0.505054 5.22063 0
M  V30 51910 H 5060.14 -2.20762 5.05933 0
M  V30 51911 H 5060.62 -2.72545 3.44407 0
M  V30 51912 H 5061.22 -1.18123 4.08567 0
M  V30 51913 N 5059.54 -1.57128 -0.121838 0
M  V30 51914 C 5060.81 -1.75667 -0.860266 0
M  V30 51915 C 5061.19 -0.726654 -1.98199 0
M  V30 51916 O 5060.54 0.24991 -2.27129 0
M  V30 51917 C 5060.75 -3.20576 -1.37957 0
M  V30 51918 C 5062.1 -3.82995 -1.83303 0
M  V30 51919 O 5063.12 -3.24161 -1.47642 0
M  V30 51920 O 5061.98 -4.86401 -2.49151 0
M  V30 51921 H 5059.08 -0.719167 -0.408323 0
M  V30 51922 H 5061.62 -1.6937 -0.1058 0
M  V30 51923 H 5060.39 -3.87058 -0.574634 0
M  V30 51924 H 5060.02 -3.31399 -2.19682 0
M  V30 51925 N 5061.01 0.391938 -1.52649 0
M  V30 51926 C 5062.26 1.13557 -1.68749 0
M  V30 51927 C 5062.62 1.87743 -0.420751 0
M  V30 51928 O 5061.91 1.82436 0.585465 0
M  V30 51929 C 5062.1 2.14391 -2.85957 0
M  V30 51930 C 5061.93 1.50109 -4.23907 0
M  V30 51931 C 5060.7 1.26642 -4.89173 0
M  V30 51932 C 5062.9 0.952756 -5.05398 0
M  V30 51933 N 5060.88 0.58434 -6.11113 0
M  V30 51934 C 5062.25 0.398566 -6.18718 0
M  V30 51935 C 5064.31 0.848881 -4.9061 0
M  V30 51936 C 5063.01 -0.249337 -7.18868 0
M  V30 51937 C 5065.04 0.214804 -5.9101 0
M  V30 51938 C 5064.4 -0.32863 -7.03633 0
M  V30 51939 H 5060.5 0.401604 -0.670998 0
M  V30 51940 H 5063.08 0.425519 -1.89993 0
M  V30 51941 H 5061.25 2.82736 -2.66298 0
M  V30 51942 H 5062.98 2.8124 -2.91009 0
M  V30 51943 H 5059.74 1.54062 -4.47841 0
M  V30 51944 H 5060.16 0.259425 -6.76503 0
M  V30 51945 H 5064.81 1.25483 -4.0375 0
M  V30 51946 H 5062.52 -0.667302 -8.0534 0
M  V30 51947 H 5066.11 0.135717 -5.81642 0
M  V30 51948 H 5064.99 -0.811531 -7.7999 0
M  V30 51949 N 5062.49 1.43562 0.650209 0
M  V30 51950 C 5063.44 1.49226 1.78422 0
M  V30 51951 C 5064.43 0.365586 1.65408 0
M  V30 51952 O 5065.64 0.539709 1.71718 0
M  V30 51953 H 5062.02 0.467879 0.588722 0
M  V30 51954 H 5063.99 2.44707 1.70766 0
M  V30 51955 C 5062.74 1.4353 3.16693 0
M  V30 51956 H 5062.06 2.29531 3.27346 0
M  V30 51957 H 5063.5 1.51554 3.95989 0
M  V30 51958 C 5061.96 0.153316 3.36551 0
M  V30 51959 O 5062.49 -0.784178 3.93971 0
M  V30 51960 N 5060.69 0.0625423 2.90533 0
M  V30 51961 H 5060.24 0.826257 2.43989 0
M  V30 51962 H 5060.2 -0.794509 3.04196 0
M  V30 51963 N 5063.97 -0.888857 1.30143 0
M  V30 51964 C 5065.2 -1.67354 1.21656 0
M  V30 51965 C 5065.61 -1.875 -0.22118 0
M  V30 51966 O 5064.97 -1.41974 -1.14672 0
M  V30 51967 C 5065.02 -3.05207 1.9373 0
M  V30 51968 O 5064.74 -2.85972 3.31891 0
M  V30 51969 C 5066.24 -3.99634 1.91854 0
M  V30 51970 H 5063.46 -0.52235 0.421179 0
M  V30 51971 H 5066.01 -1.1108 1.71702 0
M  V30 51972 H 5064.16 -3.58224 1.47493 0
M  V30 51973 H 5064.58 -3.73398 3.6834 0
M  V30 51974 H 5066.05 -4.93741 2.46828 0
M  V30 51975 H 5066.53 -4.29952 0.89656 0
M  V30 51976 H 5067.13 -3.5255 2.37884 0
M  V30 51977 N 5065.45 -1.12795 -1.10068 0
M  V30 51978 C 5066.86 -0.864792 -1.3414 0
M  V30 51979 C 5067.06 0.503133 -1.95117 0
M  V30 51980 O 5066.12 1.25104 -2.19329 0
M  V30 51981 C 5067.43 -1.98421 -2.25942 0
M  V30 51982 C 5068.98 -2.01553 -2.39469 0
M  V30 51983 C 5069.46 -3.12738 -3.34602 0
M  V30 51984 N 5070.95 -3.12206 -3.42172 0
M  V30 51985 C 5071.68 -3.94876 -4.15765 0
M  V30 51986 N 5071.18 -4.87545 -4.92211 0
M  V30 51987 N 5072.97 -3.82999 -4.11422 0
M  V30 51988 H 5065.12 -2.00928 -0.688589 0
M  V30 51989 H 5067.39 -0.874577 -0.365813 0
M  V30 51990 H 5067.09 -2.97012 -1.88353 0
M  V30 51991 H 5066.97 -1.89265 -3.2628 0
M  V30 51992 H 5069.35 -1.03579 -2.76325 0
M  V30 51993 H 5069.43 -2.14782 -1.38933 0
M  V30 51994 H 5069.08 -4.10947 -2.98471 0
M  V30 51995 H 5069.01 -2.96748 -4.35027 0
M  V30 51996 H 5071.5 -2.45075 -2.87657 0
M  V30 51997 H 5071.81 -5.47128 -5.45775 0
M  V30 51998 H 5070.16 -4.91556 -4.91322 0
M  V30 51999 H 5073.35 -3.09936 -3.50796 0
M  V30 52000 H 5073.52 -4.47658 -4.68515 0
M  V30 52001 N 5066.93 1.27928 -0.920441 0
M  V30 52002 C 5068.15 1.98803 -0.573157 0
M  V30 52003 C 5068.57 1.68727 0.847141 0
M  V30 52004 O 5067.93 0.943753 1.56204 0
M  V30 52005 C 5067.98 3.52968 -0.780757 0
M  V30 52006 O 5067.7 3.81987 -2.14517 0
M  V30 52007 C 5069.2 4.41099 -0.441205 0
M  V30 52008 H 5066.42 0.634644 -0.217872 0
M  V30 52009 H 5068.96 1.62961 -1.23548 0
M  V30 52010 H 5067.12 3.87047 -0.16534 0
M  V30 52011 H 5067.53 4.76601 -2.18979 0
M  V30 52012 H 5069.01 5.4831 -0.637199 0
M  V30 52013 H 5069.48 4.3476 0.622907 0
M  V30 52014 H 5070.09 4.12528 -1.03445 0
M  V30 52015 N 5068.4 0.685149 1.41928 0
M  V30 52016 C 5069.65 0.212042 2.01688 0
M  V30 52017 C 5069.98 -1.18183 1.54098 0
M  V30 52018 O 5069.26 -1.79557 0.747635 0
M  V30 52019 C 5069.54 0.258146 3.59174 0
M  V30 52020 C 5069.39 1.68822 4.16916 0
M  V30 52021 C 5070.71 -0.38789 4.38387 0
M  V30 52022 H 5067.83 0.0785245 0.732805 0
M  V30 52023 H 5070.47 0.871897 1.68813 0
M  V30 52024 H 5068.62 -0.303696 3.87311 0
M  V30 52025 H 5070.3 2.3031 3.99693 0
M  V30 52026 H 5068.54 2.22566 3.72353 0
M  V30 52027 H 5069.21 1.67208 5.26066 0
M  V30 52028 H 5071.69 0.0904895 4.16002 0
M  V30 52029 H 5070.56 -0.32504 5.47937 0
M  V30 52030 H 5070.82 -1.46706 4.17049 0
M  V30 52031 N 5069.88 -1.51644 0.429179 0
M  V30 52032 C 5070.79 -2.31289 -0.392727 0
M  V30 52033 C 5071.81 -1.39856 -1.0352 0
M  V30 52034 O 5072.98 -1.72929 -1.03235 0
M  V30 52035 C 5070.05 -3.13353 -1.48361 0
M  V30 52036 C 5069.11 -4.20554 -0.86212 0
M  V30 52037 C 5068.34 -4.98695 -1.90102 0
M  V30 52038 O 5068.57 -4.7737 -3.12209 0
M  V30 52039 O 5067.5 -5.8301 -1.49609 0
M  V30 52040 H 5071.33 -3.02609 0.257244 0
M  V30 52041 H 5068.91 -1.48162 0.191903 0
M  V30 52042 H 5070.79 -3.64395 -2.11647 0
M  V30 52043 H 5069.47 -2.44806 -2.11782 0
M  V30 52044 H 5068.38 -3.7361 -0.191437 0
M  V30 52045 H 5069.71 -4.9145 -0.271531 0
M  V30 52046 N 5071.36 -0.160256 -1.56783 0
M  V30 52047 C 5072.31 0.77434 -2.17423 0
M  V30 52048 C 5073.28 1.23479 -1.11096 0
M  V30 52049 O 5074.46 1.30494 -1.39197 0
M  V30 52050 C 5071.6 2.00273 -2.81042 0
M  V30 52051 C 5070.72 1.58687 -4.01799 0
M  V30 52052 C 5069.85 2.76808 -4.53377 0
M  V30 52053 C 5068.89 2.31659 -5.66569 0
M  V30 52054 N 5068.03 3.42834 -6.12706 0
M  V30 52055 H 5072.87 0.250437 -2.96946 0
M  V30 52056 H 5070.4 0.111892 -1.46674 0
M  V30 52057 H 5072.36 2.72305 -3.16079 0
M  V30 52058 H 5070.99 2.50052 -2.04141 0
M  V30 52059 H 5070.04 0.763709 -3.72655 0
M  V30 52060 H 5071.36 1.21538 -4.83766 0
M  V30 52061 H 5070.51 3.57012 -4.90538 0
M  V30 52062 H 5069.25 3.1721 -3.70444 0
M  V30 52063 H 5068.25 1.49899 -5.28971 0
M  V30 52064 H 5069.48 1.92327 -6.51296 0
M  V30 52065 H 5067.43 3.82833 -5.32705 0
M  V30 52066 H 5067.34 3.09742 -6.89634 0
M  V30 52067 H 5068.61 4.23356 -6.54515 0
M  V30 52068 N 5072.84 1.57191 0.113503 0
M  V30 52069 C 5074.09 1.84775 0.818696 0
M  V30 52070 C 5074.41 0.74626 1.80155 0
M  V30 52071 O 5073.68 -0.229237 1.94554 0
M  V30 52072 H 5072.26 0.681747 0.305335 0
M  V30 52073 H 5074.92 1.94646 0.099516 0
M  V30 52074 H 5074.02 2.80882 1.36057 0
M  V30 52075 N 5074.32 -0.383837 1.52854 0
M  V30 52076 C 5075.27 -1.48958 1.78645 0
M  V30 52077 C 5076.26 -1.5624 0.654632 0
M  V30 52078 O 5077.47 -1.59345 0.837216 0
M  V30 52079 H 5073.84 -0.495872 0.565345 0
M  V30 52080 H 5075.81 -1.24401 2.71232 0
M  V30 52081 C 5074.56 -2.86029 1.97693 0
M  V30 52082 H 5073.88 -2.81178 2.84216 0
M  V30 52083 H 5075.32 -3.62624 2.19726 0
M  V30 52084 C 5073.78 -3.28425 0.750891 0
M  V30 52085 O 5074.31 -4.0164 -0.0692079 0
M  V30 52086 N 5072.52 -2.84763 0.579527 0
M  V30 52087 H 5072.07 -2.25349 1.24802 0
M  V30 52088 H 5072.02 -3.13487 -0.239434 0
M  V30 52089 N 5075.8 -1.43905 -0.642587 0
M  V30 52090 C 5076.74 -1.49887 -1.75506 0
M  V30 52091 C 5077.71 -0.347595 -1.62422 0
M  V30 52092 O 5078.9 -0.556241 -1.82512 0
M  V30 52093 C 5076.04 -1.43808 -3.13709 0
M  V30 52094 C 5075.15 -2.69222 -3.37851 0
M  V30 52095 C 5074.29 -2.55056 -4.65961 0
M  V30 52096 C 5073.32 -3.75688 -4.83244 0
M  V30 52097 N 5072.46 -3.60268 -6.0262 0
M  V30 52098 H 5077.3 -2.44941 -1.69729 0
M  V30 52099 H 5074.84 -1.21575 -0.828122 0
M  V30 52100 H 5076.8 -1.38276 -3.93619 0
M  V30 52101 H 5075.43 -0.523285 -3.1853 0
M  V30 52102 H 5074.48 -2.84989 -2.51963 0
M  V30 52103 H 5075.79 -3.58798 -3.46504 0
M  V30 52104 H 5074.94 -2.47292 -5.54014 0
M  V30 52105 H 5073.68 -1.63022 -4.59647 0
M  V30 52106 H 5072.69 -3.83849 -3.93624 0
M  V30 52107 H 5073.91 -4.68745 -4.91381 0
M  V30 52108 H 5071.86 -2.70976 -5.97418 0
M  V30 52109 H 5071.78 -4.43453 -6.12279 0
M  V30 52110 H 5073.04 -3.56375 -6.93265 0
M  V30 52111 N 5077.27 0.881943 -1.30612 0
M  V30 52112 C 5078.5 1.66465 -1.22365 0
M  V30 52113 C 5078.91 1.87969 0.215441 0
M  V30 52114 O 5078.25 1.42942 1.15383 0
M  V30 52115 C 5078.32 3.06128 -1.88483 0
M  V30 52116 C 5077.98 3.07783 -3.37815 0
M  V30 52117 C 5078.98 2.86617 -4.33759 0
M  V30 52118 C 5076.66 3.29284 -3.79312 0
M  V30 52119 C 5078.66 2.86914 -5.69174 0
M  V30 52120 C 5076.34 3.2921 -5.14844 0
M  V30 52121 C 5077.34 3.0805 -6.09585 0
M  V30 52122 O 5077.03 3.07798 -7.42641 0
M  V30 52123 H 5076.76 0.526114 -0.424477 0
M  V30 52124 H 5079.32 1.10998 -1.72825 0
M  V30 52125 H 5077.55 3.63271 -1.32556 0
M  V30 52126 H 5079.23 3.66565 -1.74314 0
M  V30 52127 H 5080 2.698 -4.0303 0
M  V30 52128 H 5075.88 3.44788 -3.0601 0
M  V30 52129 H 5079.42 2.70317 -6.43098 0
M  V30 52130 H 5075.32 3.45564 -5.45212 0
M  V30 52131 H 5076.09 3.23943 -7.51667 0
M  V30 52132 N 5078.75 1.13378 1.09468 0
M  V30 52133 C 5080.03 0.806391 1.78204 0
M  V30 52134 C 5080.41 -0.702121 1.99082 0
M  V30 52135 O 5079.76 -1.63926 1.59188 0
M  V30 52136 C 5079.97 1.59282 3.10532 0
M  V30 52137 C 5081.31 1.78522 3.85247 0
M  V30 52138 O 5082.34 1.55877 3.20282 0
M  V30 52139 O 5081.2 2.16305 5.01871 0
M  V30 52140 H 5078.29 0.294378 0.772833 0
M  V30 52141 H 5080.84 1.23837 1.16028 0
M  V30 52142 H 5079.61 2.61802 2.90818 0
M  V30 52143 H 5079.23 1.15575 3.80432 0
M  V30 52144 N 5080.23 -1.27438 0.927213 0
M  V30 52145 C 5081.48 -1.94005 0.566271 0
M  V30 52146 C 5081.8 -1.73233 -0.895284 0
M  V30 52147 O 5081.07 -1.07978 -1.63455 0
M  V30 52148 H 5079.65 -0.717909 0.206435 0
M  V30 52149 H 5082.31 -1.55157 1.1795 0
M  V30 52150 H 5081.41 -3.02398 0.772135 0
M  V30 52151 N 5081.71 -0.692666 -1.41562 0
M  V30 52152 C 5082.93 -0.229849 -2.06122 0
M  V30 52153 C 5083.36 1.11114 -1.51774 0
M  V30 52154 O 5082.72 1.69495 -0.643504 0
M  V30 52155 C 5082.76 -0.194817 -3.60073 0
M  V30 52156 O 5081.87 0.831224 -4.03936 0
M  V30 52157 H 5081.21 -0.113025 -0.65431 0
M  V30 52158 H 5083.74 -0.946709 -1.8138 0
M  V30 52159 H 5083.75 -0.0246921 -4.07993 0
M  V30 52160 H 5082.42 -1.17353 -3.99 0
M  V30 52161 H 5081 0.63069 -3.67528 0
M  V30 52162 N 5083.19 1.51414 -0.437215 0
M  V30 52163 C 5084.13 2.29329 0.388684 0
M  V30 52164 C 5085.13 1.35175 1.02099 0
M  V30 52165 O 5086.33 1.52516 0.95597 0
M  V30 52166 H 5082.71 0.738053 0.144157 0
M  V30 52167 H 5084.68 2.96994 -0.289316 0
M  V30 52168 C 5083.43 3.14746 1.4775 0
M  V30 52169 H 5082.75 3.87084 1.00032 0
M  V30 52170 H 5084.19 3.7232 2.02864 0
M  V30 52171 C 5082.65 2.30113 2.46068 0
M  V30 52172 O 5083.18 1.96067 3.506 0
M  V30 52173 N 5081.39 1.93338 2.16953 0
M  V30 52174 H 5080.93 2.21224 1.31975 0
M  V30 52175 H 5080.89 1.37009 2.82977 0
M  V30 52176 N 5084.66 0.168568 1.56696 0
M  V30 52177 C 5086.08 -0.18763 1.58493 0
M  V30 52178 C 5086.28 -1.63059 1.1838 0
M  V30 52179 O 5085.34 -2.36139 0.894125 0
M  V30 52180 C 5086.65 0.0906914 3.00563 0
M  V30 52181 C 5088.2 0.0286851 3.12987 0
M  V30 52182 C 5088.67 0.27996 4.57144 0
M  V30 52183 N 5090.16 0.227639 4.6264 0
M  V30 52184 C 5090.9 0.396274 5.72029 0
M  V30 52185 N 5090.39 0.623815 6.89986 0
M  V30 52186 N 5092.19 0.332371 5.61116 0
M  V30 52187 H 5084.34 1.11049 1.81058 0
M  V30 52188 H 5086.6 0.441265 0.839041 0
M  V30 52189 H 5086.31 1.09018 3.34377 0
M  V30 52190 H 5086.18 -0.618947 3.72087 0
M  V30 52191 H 5088.57 -0.961373 2.79001 0
M  V30 52192 H 5088.65 0.770991 2.43904 0
M  V30 52193 H 5088.29 1.26721 4.91837 0
M  V30 52194 H 5088.22 -0.482925 5.24381 0
M  V30 52195 H 5090.71 0.0573051 3.77857 0
M  V30 52196 H 5091.03 0.742016 7.69229 0
M  V30 52197 H 5089.37 0.660397 6.91855 0
M  V30 52198 H 5092.56 0.155215 4.67843 0
M  V30 52199 H 5092.74 0.467221 6.46313 0
M  V30 52200 N 5086.14 -1.57249 -0.105165 0
M  V30 52201 C 5087.07 -1.98012 -1.15429 0
M  V30 52202 C 5088.09 -0.881284 -1.36884 0
M  V30 52203 O 5089.28 -1.15948 -1.35714 0
M  V30 52204 C 5086.38 -2.27518 -2.51175 0
M  V30 52205 C 5085.55 -3.5882 -2.50134 0
M  V30 52206 C 5084.61 -3.76378 -3.67731 0
M  V30 52207 O 5083.63 -4.48342 -3.50683 0
M  V30 52208 N 5084.84 -3.16192 -4.8683 0
M  V30 52209 H 5087.6 -2.88619 -0.807418 0
M  V30 52210 H 5085.16 -1.59203 -0.294274 0
M  V30 52211 H 5087.15 -2.36466 -3.28429 0
M  V30 52212 H 5085.72 -1.42969 -2.7799 0
M  V30 52213 H 5084.94 -3.60933 -1.58497 0
M  V30 52214 H 5086.23 -4.45097 -2.46508 0
M  V30 52215 H 5085.63 -2.57718 -5.03585 0
M  V30 52216 H 5084.19 -3.3064 -5.61712 0
M  V30 52217 N 5087.62 0.375726 -1.53056 0
M  V30 52218 C 5088.85 1.1403 -1.72641 0
M  V30 52219 C 5089.26 1.8334 -0.450751 0
M  V30 52220 O 5088.62 1.73182 0.575688 0
M  V30 52221 C 5088.67 2.17831 -2.885 0
M  V30 52222 O 5088.39 1.51343 -4.11129 0
M  V30 52223 C 5089.89 3.06913 -3.19874 0
M  V30 52224 H 5087.11 0.341366 -0.577677 0
M  V30 52225 H 5089.66 0.437739 -1.9976 0
M  V30 52226 H 5087.81 2.83701 -2.63804 0
M  V30 52227 H 5088.23 2.20422 -4.75935 0
M  V30 52228 H 5089.7 3.75748 -4.04373 0
M  V30 52229 H 5090.18 3.71161 -2.34811 0
M  V30 52230 H 5090.78 2.46672 -3.46458 0
M  V30 52231 N 5089.1 1.44244 0.634946 0
M  V30 52232 C 5090.03 1.53638 1.75834 0
M  V30 52233 C 5091.01 0.389661 1.65577 0
M  V30 52234 O 5092.19 0.609284 1.84395 0
M  V30 52235 C 5089.32 1.47655 3.14349 0
M  V30 52236 C 5088.28 2.60764 3.39391 0
M  V30 52237 C 5087.6 2.39834 4.77895 0
M  V30 52238 C 5088.9 4.02933 3.32329 0
M  V30 52239 H 5090.6 2.47668 1.68229 0
M  V30 52240 H 5088.14 1.192 0.807927 0
M  V30 52241 H 5090.1 1.52829 3.9271 0
M  V30 52242 H 5088.82 0.501398 3.22728 0
M  V30 52243 H 5087.48 2.54974 2.63408 0
M  V30 52244 H 5087.13 1.40519 4.82973 0
M  V30 52245 H 5086.83 3.15667 4.95609 0
M  V30 52246 H 5088.35 2.46819 5.58491 0
M  V30 52247 H 5089.77 4.10112 4.00601 0
M  V30 52248 H 5088.16 4.78938 3.61578 0
M  V30 52249 H 5089.23 4.26774 2.302 0
M  V30 52250 N 5090.58 -0.875004 1.31078 0
M  V30 52251 C 5091.82 -1.63005 1.20653 0
M  V30 52252 C 5092.16 -1.92761 -0.235978 0
M  V30 52253 O 5091.43 -1.55564 -1.16749 0
M  V30 52254 C 5091.71 -2.9635 2.0457 0
M  V30 52255 C 5091.57 -2.73504 3.57093 0
M  V30 52256 C 5092.89 -3.97393 1.89121 0
M  V30 52257 H 5090 -0.591503 0.439652 0
M  V30 52258 H 5092.65 -1.01184 1.60816 0
M  V30 52259 H 5090.8 -3.49113 1.70447 0
M  V30 52260 H 5092.47 -2.27451 4.01327 0
M  V30 52261 H 5090.71 -2.07826 3.80776 0
M  V30 52262 H 5091.38 -3.68363 4.11112 0
M  V30 52263 H 5093.86 -3.53822 2.18973 0
M  V30 52264 H 5092.73 -4.88587 2.50147 0
M  V30 52265 H 5093 -4.33791 0.853112 0
M  V30 52266 N 5092.05 -1.13957 -1.08865 0
M  V30 52267 C 5093 -0.817741 -2.17752 0
M  V30 52268 C 5094 0.202384 -1.68187 0
M  V30 52269 O 5095.2 0.0589527 -1.79903 0
M  V30 52270 H 5091.58 -0.246696 -0.710384 0
M  V30 52271 H 5093.55 -1.7441 -2.42124 0
M  V30 52272 C 5092.3 -0.306422 -3.46347 0
M  V30 52273 H 5091.62 -1.08273 -3.8486 0
M  V30 52274 H 5093.06 -0.119733 -4.23831 0
M  V30 52275 C 5091.52 0.969045 -3.22663 0
M  V30 52276 O 5092.05 2.04374 -3.45824 0
M  V30 52277 N 5090.26 0.902419 -2.76233 0
M  V30 52278 H 5089.8 0.0277104 -2.57585 0
M  V30 52279 H 5089.76 1.7564 -2.60764 0
M  V30 52280 N 5093.53 1.26945 -0.933958 0
M  V30 52281 C 5094.76 1.98184 -0.59421 0
M  V30 52282 C 5095.18 1.69616 0.829198 0
M  V30 52283 O 5094.53 0.960268 1.55194 0
M  V30 52284 C 5094.58 3.5212 -0.81815 0
M  V30 52285 O 5094.3 3.7969 -2.18557 0
M  V30 52286 C 5095.81 4.40606 -0.487965 0
M  V30 52287 H 5093.03 0.632297 -0.224591 0
M  V30 52288 H 5095.57 1.61641 -1.25269 0
M  V30 52289 H 5093.72 3.8685 -0.206382 0
M  V30 52290 H 5094.14 4.74252 -2.24021 0
M  V30 52291 H 5095.61 5.47603 -0.695318 0
M  V30 52292 H 5096.09 4.35397 0.57676 0
M  V30 52293 H 5096.7 4.11407 -1.07814 0
M  V30 52294 N 5095.01 0.700164 1.41193 0
M  V30 52295 C 5096.24 0.242251 2.05477 0
M  V30 52296 C 5096.65 -1.11024 1.52706 0
M  V30 52297 O 5096.01 -1.69471 0.677187 0
M  V30 52298 C 5096.06 0.196398 3.60966 0
M  V30 52299 O 5095.78 1.49546 4.11786 0
M  V30 52300 C 5097.28 -0.281947 4.42402 0
M  V30 52301 H 5094.5 0.111772 0.661625 0
M  V30 52302 H 5097.05 0.954039 1.80882 0
M  V30 52303 H 5095.2 -0.466245 3.84584 0
M  V30 52304 H 5095.62 1.38563 5.05866 0
M  V30 52305 H 5097.09 -0.262899 5.51374 0
M  V30 52306 H 5097.57 -1.32159 4.18844 0
M  V30 52307 H 5098.17 0.349861 4.23859 0
M  V30 52308 N 5096.49 -1.5118 0.445239 0
M  V30 52309 C 5097.44 -2.24806 -0.380315 0
M  V30 52310 C 5098.42 -1.27347 -0.983437 0
M  V30 52311 O 5099.61 -1.52395 -0.900268 0
M  V30 52312 C 5096.74 -3.09927 -1.47649 0
M  V30 52313 C 5095.83 -4.14819 -0.882371 0
M  V30 52314 N 5096.22 -5.05797 -0.01815 0
M  V30 52315 C 5094.52 -4.30942 -1.14912 0
M  V30 52316 C 5095.22 -5.80839 0.316356 0
M  V30 52317 N 5094.2 -5.4276 -0.302023 0
M  V30 52318 H 5098 -2.92507 0.28584 0
M  V30 52319 H 5095.51 -1.60341 0.257789 0
M  V30 52320 H 5097.51 -3.61256 -2.08085 0
M  V30 52321 H 5096.17 -2.43771 -2.1449 0
M  V30 52322 H 5097.18 -5.16724 0.34886 0
M  V30 52323 H 5093.86 -3.76011 -1.81443 0
M  V30 52324 H 5095.25 -6.64111 1.02009 0
M  V30 52325 N 5097.97 -0.176876 -1.56604 0
M  V30 52326 C 5099.38 0.179222 -1.58591 0
M  V30 52327 C 5099.58 1.62429 -1.19244 0
M  V30 52328 O 5098.64 2.35662 -0.906635 0
M  V30 52329 C 5099.95 -0.10663 -3.00511 0
M  V30 52330 C 5101.5 -0.0452831 -3.12967 0
M  V30 52331 C 5101.97 -0.304199 -4.56989 0
M  V30 52332 N 5103.47 -0.252171 -4.62513 0
M  V30 52333 C 5104.2 -0.426605 -5.71811 0
M  V30 52334 N 5103.7 -0.660398 -6.89645 0
M  V30 52335 N 5105.49 -0.362123 -5.60932 0
M  V30 52336 H 5097.64 -1.12007 -1.80466 0
M  V30 52337 H 5099.9 -0.445708 -0.836689 0
M  V30 52338 H 5099.61 -1.10789 -3.33794 0
M  V30 52339 H 5099.48 0.599206 -3.7241 0
M  V30 52340 H 5101.87 0.946564 -2.79507 0
M  V30 52341 H 5101.95 -0.783915 -2.43492 0
M  V30 52342 H 5101.6 -1.29328 -4.91159 0
M  V30 52343 H 5101.53 0.455109 -5.2463 0
M  V30 52344 H 5104.02 -0.077343 -3.77821 0
M  V30 52345 H 5104.33 -0.782799 -7.68825 0
M  V30 52346 H 5102.67 -0.697078 -6.91495 0
M  V30 52347 H 5105.87 -0.180024 -4.67754 0
M  V30 52348 H 5106.04 -0.50149 -6.46057 0
M  V30 52349 N 5099.44 1.57302 0.0968247 0
M  V30 52350 C 5100.86 1.74963 0.651534 0
M  V30 52351 C 5101.21 0.798809 1.79202 0
M  V30 52352 O 5100.33 -0.0231098 2.16388 0
M  V30 52353 C 5100.93 3.17263 1.18867 0
M  V30 52354 C 5099.49 3.36354 1.68946 0
M  V30 52355 C 5098.63 2.70768 0.598318 0
M  V30 52356 H 5101.58 1.58173 -0.129236 0
M  V30 52357 H 5101.6 3.2004 2.05803 0
M  V30 52358 H 5101.12 3.86442 0.358387 0
M  V30 52359 H 5099.22 2.72252 2.54381 0
M  V30 52360 H 5099.33 4.4466 1.78364 0
M  V30 52361 H 5097.69 2.32618 1.03735 0
M  V30 52362 H 5098.48 3.42586 -0.221358 0
M  V30 52363 N 5100.92 -0.367603 1.53253 0
M  V30 52364 C 5102.17 -1.11046 1.69337 0
M  V30 52365 C 5102.5 -1.89361 0.44413 0
M  V30 52366 O 5101.75 -1.87096 -0.573888 0
M  V30 52367 C 5102.05 -2.09814 2.89331 0
M  V30 52368 C 5101.72 -1.47995 4.25921 0
M  V30 52369 C 5100.38 -1.30863 4.63064 0
M  V30 52370 C 5102.73 -1.0325 5.10871 0
M  V30 52371 C 5100.06 -0.675663 5.82796 0
M  V30 52372 C 5102.41 -0.413548 6.31247 0
M  V30 52373 C 5101.08 -0.229704 6.67105 0
M  V30 52374 H 5100.35 -0.406346 0.619648 0
M  V30 52375 H 5102.99 -0.392492 1.87435 0
M  V30 52376 H 5101.3 -2.87907 2.65738 0
M  V30 52377 H 5103 -2.67241 2.9897 0
M  V30 52378 H 5099.59 -1.62322 3.96673 0
M  V30 52379 H 5103.77 -1.1528 4.82726 0
M  V30 52380 H 5099.03 -0.521619 6.09171 0
M  V30 52381 H 5103.2 -0.058632 6.96375 0
M  V30 52382 H 5100.83 0.262829 7.59746 0
M  V30 52383 N 5102.4 -1.44578 -0.627288 0
M  V30 52384 C 5103.68 -1.38038 -1.38582 0
M  V30 52385 C 5104.06 -0.041021 -2.1106 0
M  V30 52386 O 5103.41 0.976509 -2.06583 0
M  V30 52387 C 5103.62 -2.5811 -2.34904 0
M  V30 52388 C 5104.96 -3.02342 -2.98118 0
M  V30 52389 O 5105.99 -2.58343 -2.45229 0
M  V30 52390 O 5104.85 -3.78642 -3.94071 0
M  V30 52391 H 5101.94 -0.546822 -0.620415 0
M  V30 52392 H 5104.49 -1.56674 -0.652022 0
M  V30 52393 H 5103.26 -3.47196 -1.80473 0
M  V30 52394 H 5102.88 -2.41707 -3.15695 0
M  V30 52395 N 5103.88 0.86804 -1.3154 0
M  V30 52396 C 5105.13 1.61603 -1.20695 0
M  V30 52397 C 5105.44 1.94205 0.233206 0
M  V30 52398 O 5106.65 2.67517 0.463371 0
M  V30 52399 C 5105.1 2.9134 -2.11302 0
M  V30 52400 C 5104.71 2.66215 -3.60325 0
M  V30 52401 C 5106.46 3.69337 -2.09262 0
M  V30 52402 C 5104.36 3.91871 -4.42934 0
M  V30 52403 H 5103.29 0.606357 -0.44816 0
M  V30 52404 H 5105.94 0.959611 -1.56409 0
M  V30 52405 H 5104.33 3.58368 -1.68489 0
M  V30 52406 H 5105.5 2.07583 -4.11395 0
M  V30 52407 H 5103.81 2.01569 -3.64361 0
M  V30 52408 H 5106.41 4.62557 -2.68225 0
M  V30 52409 H 5106.75 4.0204 -1.08024 0
M  V30 52410 H 5107.29 3.09196 -2.50285 0
M  V30 52411 H 5104.03 3.64317 -5.44934 0
M  V30 52412 H 5103.55 4.49947 -3.9662 0
M  V30 52413 H 5105.23 4.59738 -4.55247 0
M  V30 52414 N 5105.36 1.14532 1.0826 0
M  V30 52415 C 5106.31 0.802216 2.13421 0
M  V30 52416 C 5107.29 -0.209306 1.59533 0
M  V30 52417 O 5108.48 -0.0114237 1.76996 0
M  V30 52418 C 5105.61 0.283058 3.42131 0
M  V30 52419 C 5104.7 1.32419 4.02897 0
M  V30 52420 N 5105.09 2.52877 4.38049 0
M  V30 52421 C 5103.39 1.17477 4.3025 0
M  V30 52422 C 5104.09 3.19537 4.86077 0
M  V30 52423 N 5103.06 2.46938 4.84275 0
M  V30 52424 H 5106.87 1.71852 2.3842 0
M  V30 52425 H 5104.38 1.0294 1.25607 0
M  V30 52426 H 5106.38 0.0189518 4.16896 0
M  V30 52427 H 5105.04 -0.627421 3.1858 0
M  V30 52428 H 5106.05 2.90093 4.2903 0
M  V30 52429 H 5102.73 0.32343 4.16245 0
M  V30 52430 H 5104.12 4.22249 5.22643 0
M  V30 52431 N 5106.84 -1.26448 0.940677 0
M  V30 52432 C 5108.08 -1.94063 0.588849 0
M  V30 52433 C 5108.41 -1.73633 -0.869792 0
M  V30 52434 O 5107.69 -1.07305 -1.62222 0
M  V30 52435 C 5107.97 -3.47848 0.931322 0
M  V30 52436 C 5107.83 -3.77566 2.44467 0
M  V30 52437 C 5109.14 -4.3783 0.446383 0
M  V30 52438 H 5106.26 -0.704819 0.215405 0
M  V30 52439 H 5108.91 -1.49326 1.17481 0
M  V30 52440 H 5107.06 -3.86083 0.432675 0
M  V30 52441 H 5108.73 -3.49049 3.016 0
M  V30 52442 H 5106.97 -3.23661 2.88836 0
M  V30 52443 H 5107.64 -4.85059 2.63481 0
M  V30 52444 H 5110.12 -4.06819 0.873921 0
M  V30 52445 H 5108.99 -5.44225 0.714839 0
M  V30 52446 H 5109.25 -4.37241 -0.653661 0
M  V30 52447 N 5108.31 -0.707642 -1.4082 0
M  V30 52448 C 5109.54 -0.252778 -2.05048 0
M  V30 52449 C 5109.95 1.10753 -1.53396 0
M  V30 52450 O 5109.29 1.70565 -0.682157 0
M  V30 52451 C 5109.36 -0.146127 -3.59203 0
M  V30 52452 C 5109.02 -1.44043 -4.33706 0
M  V30 52453 C 5110.02 -2.38075 -4.62187 0
M  V30 52454 C 5107.7 -1.69715 -4.7276 0
M  V30 52455 C 5109.7 -3.56031 -5.28697 0
M  V30 52456 C 5107.38 -2.87955 -5.39004 0
M  V30 52457 C 5108.38 -3.80935 -5.66901 0
M  V30 52458 O 5108.07 -4.97102 -6.31779 0
M  V30 52459 H 5107.8 -0.112807 -0.666521 0
M  V30 52460 H 5110.36 -0.964234 -1.81361 0
M  V30 52461 H 5108.59 0.621204 -3.81678 0
M  V30 52462 H 5110.27 0.273132 -4.0498 0
M  V30 52463 H 5111.04 -2.19502 -4.32486 0
M  V30 52464 H 5106.92 -0.981994 -4.5042 0
M  V30 52465 H 5110.46 -4.28624 -5.50388 0
M  V30 52466 H 5106.36 -3.06439 -5.68124 0
M  V30 52467 H 5107.13 -4.97076 -6.50275 0
M  V30 52468 N 5109.79 1.50942 -0.45325 0
M  V30 52469 C 5110.74 2.25004 0.368388 0
M  V30 52470 C 5111.73 1.27867 0.976669 0
M  V30 52471 O 5112.92 1.5287 0.892174 0
M  V30 52472 C 5110.05 3.10706 1.46003 0
M  V30 52473 C 5109.13 4.15281 0.86036 0
M  V30 52474 N 5109.52 5.05799 -0.00867392 0
M  V30 52475 C 5107.82 4.31546 1.12624 0
M  V30 52476 C 5108.52 5.80663 -0.347155 0
M  V30 52477 N 5107.5 5.42913 0.273235 0
M  V30 52478 H 5111.3 2.92351 -0.301349 0
M  V30 52479 H 5108.81 1.60202 -0.266289 0
M  V30 52480 H 5110.81 3.62355 2.06166 0
M  V30 52481 H 5109.47 2.44905 2.13194 0
M  V30 52482 H 5110.48 5.16531 -0.376259 0
M  V30 52483 H 5107.16 3.76968 1.79447 0
M  V30 52484 H 5108.55 6.63561 -1.0553 0
M  V30 52485 N 5111.27 0.185179 1.56508 0
M  V30 52486 C 5112.68 -0.329157 1.83776 0
M  V30 52487 C 5113.03 -1.62089 1.10551 0
M  V30 52488 O 5112.16 -2.13333 0.363055 0
M  V30 52489 C 5112.75 -0.603981 3.33373 0
M  V30 52490 C 5111.31 -1.06271 3.61086 0
M  V30 52491 C 5110.46 -0.105983 2.77097 0
M  V30 52492 H 5113.41 0.40917 1.53335 0
M  V30 52493 H 5113.43 -1.45446 3.51605 0
M  V30 52494 H 5112.94 0.336337 3.8664 0
M  V30 52495 H 5111.04 -2.01766 3.13243 0
M  V30 52496 H 5111.16 -0.962288 4.69337 0
M  V30 52497 H 5109.52 -0.605995 2.47386 0
M  V30 52498 H 5110.3 0.828603 3.3315 0
M  V30 52499 N 5112.75 -1.57351 -0.0884812 0
M  V30 52500 C 5113.98 -1.90358 -0.802963 0
M  V30 52501 C 5114.39 -0.777738 -1.72476 0
M  V30 52502 O 5113.73 0.258844 -1.81867 0
M  V30 52503 C 5113.79 -3.1868 -1.66383 0
M  V30 52504 C 5113.45 -4.47784 -0.91317 0
M  V30 52505 C 5114.45 -5.19346 -0.239965 0
M  V30 52506 C 5112.14 -4.94437 -0.885289 0
M  V30 52507 C 5114.13 -6.35802 0.451077 0
M  V30 52508 C 5111.82 -6.10803 -0.190464 0
M  V30 52509 C 5112.82 -6.81336 0.476535 0
M  V30 52510 O 5112.5 -7.95484 1.1602 0
M  V30 52511 H 5112.24 -0.634043 -0.234446 0
M  V30 52512 H 5114.79 -2.05287 -0.0681237 0
M  V30 52513 H 5113.02 -2.99914 -2.44107 0
M  V30 52514 H 5114.71 -3.37466 -2.25548 0
M  V30 52515 H 5115.47 -4.8434 -0.252922 0
M  V30 52516 H 5111.35 -4.39422 -1.3939 0
M  V30 52517 H 5114.9 -6.90791 0.972261 0
M  V30 52518 H 5110.79 -6.45262 -0.175377 0
M  V30 52519 H 5111.56 -8.11505 1.06777 0
M  V30 52520 N 5114.23 0.359471 -1.53446 0
M  V30 52521 C 5115.64 0.701548 -1.43354 0
M  V30 52522 C 5115.84 1.93047 -0.577507 0
M  V30 52523 O 5114.9 2.52423 -0.0623112 0
M  V30 52524 C 5116.21 0.909049 -2.8663 0
M  V30 52525 C 5117.76 1.00867 -2.96302 0
M  V30 52526 C 5118.23 1.2486 -4.40652 0
M  V30 52527 N 5119.72 1.31617 -4.44107 0
M  V30 52528 C 5120.46 1.51902 -5.52913 0
M  V30 52529 N 5119.96 1.69465 -6.71754 0
M  V30 52530 N 5121.75 1.54322 -5.40501 0
M  V30 52531 H 5113.9 -0.448758 -2.07605 0
M  V30 52532 H 5116.16 -0.138746 -0.937792 0
M  V30 52533 H 5115.87 0.0777761 -3.51614 0
M  V30 52534 H 5115.74 1.81539 -3.30641 0
M  V30 52535 H 5118.13 1.83048 -2.31468 0
M  V30 52536 H 5118.21 0.0795822 -2.55676 0
M  V30 52537 H 5117.85 0.431783 -5.06061 0
M  V30 52538 H 5117.78 2.19101 -4.78855 0
M  V30 52539 H 5120.28 1.19634 -3.58464 0
M  V30 52540 H 5120.59 1.84534 -7.50444 0
M  V30 52541 H 5118.93 1.66632 -6.74729 0
M  V30 52542 H 5122.12 1.40173 -4.4662 0
M  V30 52543 H 5122.3 1.6979 -6.2536 0
M  V30 52544 N 5115.7 1.44909 0.619611 0
M  V30 52545 C 5116.64 1.48658 1.74452 0
M  V30 52546 C 5117.65 0.378651 1.58335 0
M  V30 52547 O 5118.84 0.645045 1.66437 0
M  V30 52548 C 5115.94 1.31579 3.12314 0
M  V30 52549 C 5115.11 2.55828 3.54783 0
M  V30 52550 C 5114.17 2.33481 4.71564 0
M  V30 52551 O 5113.2 3.07032 4.79291 0
M  V30 52552 N 5114.4 1.37274 5.64036 0
M  V30 52553 H 5117.16 2.45638 1.71703 0
M  V30 52554 H 5114.72 1.40495 0.804533 0
M  V30 52555 H 5116.72 1.14459 3.88177 0
M  V30 52556 H 5115.29 0.429204 3.09639 0
M  V30 52557 H 5114.51 2.88147 2.69008 0
M  V30 52558 H 5115.79 3.38444 3.79912 0
M  V30 52559 H 5115.19 0.765506 5.60497 0
M  V30 52560 H 5113.75 1.26129 6.3948 0
M  V30 52561 N 5117.18 -0.861052 1.31999 0
M  V30 52562 C 5118.59 -1.43061 1.1996 0
M  V30 52563 C 5118.94 -1.95274 -0.19042 0
M  V30 52564 O 5118.07 -1.87016 -1.08876 0
M  V30 52565 C 5118.66 -2.60044 2.17169 0
M  V30 52566 C 5117.22 -3.13019 2.09037 0
M  V30 52567 C 5116.37 -1.85749 2.05895 0
M  V30 52568 H 5119.32 -0.668783 1.4392 0
M  V30 52569 H 5119.34 -3.3701 1.76649 0
M  V30 52570 H 5118.85 -2.22013 3.18327 0
M  V30 52571 H 5116.96 -3.55649 1.11105 0
M  V30 52572 H 5117.07 -3.74697 2.98562 0
M  V30 52573 H 5115.43 -2.05083 1.5104 0
M  V30 52574 H 5116.22 -1.49943 3.08824 0
M  V30 52575 N 5118.66 -1.15105 -1.07651 0
M  V30 52576 C 5119.91 -0.918592 -1.79568 0
M  V30 52577 C 5120.22 0.555856 -1.87536 0
M  V30 52578 O 5121.43 0.905803 -2.55944 0
M  V30 52579 C 5119.88 -1.59406 -3.22673 0
M  V30 52580 C 5119.49 -3.10531 -3.22916 0
M  V30 52581 C 5121.24 -1.44303 -3.9922 0
M  V30 52582 C 5119.14 -3.70878 -4.60655 0
M  V30 52583 H 5118.07 -0.34003 -0.672975 0
M  V30 52584 H 5120.72 -1.38084 -1.20852 0
M  V30 52585 H 5119.11 -1.0595 -3.81563 0
M  V30 52586 H 5120.28 -3.70718 -2.73687 0
M  V30 52587 H 5118.6 -3.2536 -2.59865 0
M  V30 52588 H 5121.19 -1.86783 -5.01015 0
M  V30 52589 H 5121.54 -0.390121 -4.14468 0
M  V30 52590 H 5122.07 -1.94839 -3.46818 0
M  V30 52591 H 5118.81 -4.76056 -4.50612 0
M  V30 52592 H 5118.33 -3.15474 -5.10134 0
M  V30 52593 H 5120.01 -3.71625 -5.29626 0
M  V30 52594 N 5120.14 1.25947 -0.94737 0
M  V30 52595 C 5121.38 1.93748 -0.599132 0
M  V30 52596 C 5121.72 1.74091 0.860571 0
M  V30 52597 O 5120.99 1.08164 1.6165 0
M  V30 52598 C 5121.28 3.47349 -0.949756 0
M  V30 52599 C 5121.13 3.76264 -2.46466 0
M  V30 52600 C 5122.45 4.37587 -0.469595 0
M  V30 52601 H 5119.57 0.703667 -0.21914 0
M  V30 52602 H 5122.21 1.48701 -1.18271 0
M  V30 52603 H 5120.36 3.85848 -0.453144 0
M  V30 52604 H 5122.03 3.47444 -3.03447 0
M  V30 52605 H 5120.27 3.22124 -2.90548 0
M  V30 52606 H 5120.94 4.83655 -2.66049 0
M  V30 52607 H 5123.42 4.0635 -0.895483 0
M  V30 52608 H 5122.3 5.43839 -0.743691 0
M  V30 52609 H 5122.56 4.37581 0.630464 0
M  V30 52610 N 5121.62 0.7151 1.40442 0
M  V30 52611 C 5122.84 0.262612 2.05731 0
M  V30 52612 C 5123.27 -1.08685 1.53522 0
M  V30 52613 O 5122.62 -1.6845 0.670387 0
M  V30 52614 C 5122.67 0.252077 3.59718 0
M  V30 52615 O 5121.78 -0.766856 4.05207 0
M  V30 52616 H 5121.12 0.123421 0.652429 0
M  V30 52617 H 5123.65 0.975445 1.79851 0
M  V30 52618 H 5123.66 0.0895971 4.07902 0
M  V30 52619 H 5122.33 1.23686 3.97083 0
M  V30 52620 H 5120.91 -0.572139 3.68485 0
M  V30 52621 N 5123.09 -1.50699 0.461248 0
M  V30 52622 C 5124.04 -2.29919 -0.35215 0
M  V30 52623 C 5125.04 -1.36782 -0.999355 0
M  V30 52624 O 5126.24 -1.54018 -0.931585 0
M  V30 52625 H 5122.62 -0.740253 -0.132397 0
M  V30 52626 H 5124.59 -2.96496 0.336529 0
M  V30 52627 C 5123.34 -3.17057 -1.42724 0
M  V30 52628 H 5122.66 -3.88626 -0.93861 0
M  V30 52629 H 5124.1 -3.755 -1.96915 0
M  V30 52630 C 5122.56 -2.33999 -2.42376 0
M  V30 52631 O 5123.09 -2.0162 -3.47437 0
M  V30 52632 N 5121.3 -1.96765 -2.1385 0
M  V30 52633 H 5120.84 -2.23296 -1.28439 0
M  V30 52634 H 5120.8 -1.41494 -2.80761 0
M  V30 52635 N 5124.57 -0.193476 -1.56408 0
M  V30 52636 C 5125.98 0.319406 -1.83948 0
M  V30 52637 C 5126.33 1.61501 -1.11409 0
M  V30 52638 O 5125.46 2.13137 -0.374364 0
M  V30 52639 C 5126.05 0.586293 -3.33689 0
M  V30 52640 C 5124.61 1.04355 -3.61645 0
M  V30 52641 C 5123.76 0.091286 -2.7715 0
M  V30 52642 H 5126.71 -0.417295 -1.53115 0
M  V30 52643 H 5126.73 1.43579 -3.52371 0
M  V30 52644 H 5126.24 -0.356836 -3.86456 0
M  V30 52645 H 5124.35 2.00102 -3.14309 0
M  V30 52646 H 5124.46 0.937384 -4.6984 0
M  V30 52647 H 5122.82 0.592867 -2.47704 0
M  V30 52648 H 5123.61 -0.846259 -3.32706 0
M  V30 52649 N 5126.05 1.57396 0.0801353 0
M  V30 52650 C 5127.29 1.88671 0.786301 0
M  V30 52651 C 5127.65 0.786277 1.75162 0
M  V30 52652 O 5128.86 0.981857 2.50226 0
M  V30 52653 C 5127.13 3.25181 1.48297 0
M  V30 52654 S 5128.69 3.78184 2.22535 0
M  V30 52655 H 5125.5 0.661103 0.261656 0
M  V30 52656 H 5128.11 1.95453 0.0427509 0
M  V30 52657 H 5126.81 4.03179 0.766488 0
M  V30 52658 H 5126.34 3.21575 2.26612 0
M  V30 52659 H 5128.36 3.52801 3.48921 0
M  V30 52660 N 5127.53 -0.351328 1.53634 0
M  V30 52661 C 5128.78 -1.09028 1.70169 0
M  V30 52662 C 5129.1 -1.89412 0.463489 0
M  V30 52663 O 5128.37 -1.88802 -0.522558 0
M  V30 52664 H 5126.95 -0.4055 0.627358 0
M  V30 52665 H 5129.61 -0.394487 1.90866 0
M  V30 52666 H 5128.71 -1.77206 2.56913 0
M  V30 52667 N 5129.01 -1.45235 -0.611918 0
M  V30 52668 C 5130.23 -1.52544 -1.39778 0
M  V30 52669 C 5130.65 -0.156599 -1.88149 0
M  V30 52670 O 5130.01 0.841063 -1.61964 0
M  V30 52671 C 5130.06 -2.50623 -2.60519 0
M  V30 52672 O 5129.78 -3.82187 -2.1416 0
M  V30 52673 C 5131.28 -2.67587 -3.53429 0
M  V30 52674 H 5128.5 -0.516755 -0.428025 0
M  V30 52675 H 5131.04 -1.90382 -0.746661 0
M  V30 52676 H 5129.2 -2.15869 -3.21682 0
M  V30 52677 H 5129.61 -4.35315 -2.92576 0
M  V30 52678 H 5131.09 -3.40199 -4.34705 0
M  V30 52679 H 5131.56 -1.73473 -4.0349 0
M  V30 52680 H 5132.17 -3.0332 -2.98122 0
M  V30 52681 N 5130.49 0.85404 -1.32453 0
M  V30 52682 C 5131.43 1.98407 -1.21398 0
M  V30 52683 C 5132.43 1.68984 -0.118646 0
M  V30 52684 O 5133.63 1.77783 -0.281611 0
M  V30 52685 H 5130.01 0.651064 -0.376324 0
M  V30 52686 H 5131.98 2.04859 -2.16968 0
M  V30 52687 C 5130.73 3.34341 -0.954525 0
M  V30 52688 H 5130.05 3.57512 -1.78956 0
M  V30 52689 H 5131.49 4.13956 -0.917414 0
M  V30 52690 C 5129.95 3.35152 0.34272 0
M  V30 52691 O 5130.48 3.78179 1.35439 0
M  V30 52692 N 5128.69 2.883 0.364911 0
M  V30 52693 H 5128.23 2.5348 -0.458889 0
M  V30 52694 H 5128.19 2.89225 1.23274 0
M  V30 52695 N 5131.96 1.15674 1.07039 0
M  V30 52696 C 5132.91 0.85228 2.16423 0
M  V30 52697 C 5133.91 -0.175602 1.68487 0
M  V30 52698 O 5135.11 -0.0303242 1.79974 0
M  V30 52699 H 5131.49 0.257967 0.706369 0
M  V30 52700 H 5133.46 1.7824 2.39318 0
M  V30 52701 C 5132.21 0.361484 3.45816 0
M  V30 52702 H 5131.53 1.14382 3.83088 0
M  V30 52703 H 5132.97 0.187146 4.23587 0
M  V30 52704 C 5131.43 -0.917589 3.24163 0
M  V30 52705 O 5131.96 -1.98846 3.49032 0
M  V30 52706 N 5130.16 -0.858358 2.77634 0
M  V30 52707 H 5129.71 0.0132726 2.57597 0
M  V30 52708 H 5129.67 -1.71469 2.63526 0
M  V30 52709 N 5133.44 -1.25443 0.954036 0
M  V30 52710 C 5134.69 -1.9276 0.607295 0
M  V30 52711 C 5135.01 -1.75093 -0.858337 0
M  V30 52712 O 5134.28 -1.11421 -1.61128 0
M  V30 52713 H 5132.86 -0.713369 0.221616 0
M  V30 52714 H 5135.52 -1.5262 1.21215 0
M  V30 52715 H 5134.62 -3.00692 0.836104 0
M  V30 52716 N 5134.92 -0.722538 -1.40061 0
M  V30 52717 C 5136.17 -0.264526 -2.00361 0
M  V30 52718 C 5136.49 1.14841 -1.57596 0
M  V30 52719 O 5135.76 1.7798 -0.818539 0
M  V30 52720 H 5134.34 -0.0948106 -0.740959 0
M  V30 52721 H 5137 -0.929719 -1.71296 0
M  V30 52722 H 5136.1 -0.303086 -3.10625 0
M  V30 52723 N 5136.4 1.50453 -0.469234 0
M  V30 52724 C 5137.64 2.04222 0.0851663 0
M  V30 52725 C 5138 1.34362 1.37153 0
M  V30 52726 O 5139.2 1.78676 2.00819 0
M  V30 52727 C 5137.47 3.56404 0.266653 0
M  V30 52728 S 5139.03 4.31814 0.779876 0
M  V30 52729 H 5135.85 0.710801 0.0168339 0
M  V30 52730 H 5138.45 1.84867 -0.635948 0
M  V30 52731 H 5137.16 4.04804 -0.675393 0
M  V30 52732 H 5136.69 3.80109 1.01393 0
M  V30 52733 H 5138.7 4.51713 2.05352 0
M  V30 52734 N 5137.88 0.201768 1.56303 0
M  V30 52735 C 5139.1 -0.443743 2.02597 0
M  V30 52736 C 5139.53 -1.53941 1.08091 0
M  V30 52737 O 5138.88 -1.81181 0.0655693 0
M  V30 52738 C 5138.93 -0.970943 3.47282 0
M  V30 52739 O 5138.04 -2.08348 3.559 0
M  V30 52740 H 5137.38 -0.102917 0.655976 0
M  V30 52741 H 5139.91 0.314604 2.02167 0
M  V30 52742 H 5139.92 -1.28584 3.87208 0
M  V30 52743 H 5138.59 -0.168901 4.15557 0
M  V30 52744 H 5137.17 -1.77671 3.27853 0
M  V30 52745 N 5139.35 -1.57436 -0.071787 0
M  V30 52746 C 5140.3 -2.00136 -1.09222 0
M  V30 52747 C 5141.29 -0.883426 -1.34478 0
M  V30 52748 O 5142.48 -1.14733 -1.34779 0
M  V30 52749 C 5139.61 -2.44884 -2.40596 0
M  V30 52750 C 5138.69 -3.63412 -2.18614 0
M  V30 52751 N 5139.09 -4.77589 -1.66562 0
M  V30 52752 C 5137.38 -3.69962 -2.49087 0
M  V30 52753 C 5138.08 -5.59436 -1.59395 0
M  V30 52754 N 5137.06 -5.03282 -2.05446 0
M  V30 52755 H 5140.86 -2.85852 -0.683085 0
M  V30 52756 H 5138.38 -1.59988 -0.278858 0
M  V30 52757 H 5140.37 -2.73714 -3.14462 0
M  V30 52758 H 5139.03 -1.60556 -2.82227 0
M  V30 52759 H 5140.04 -4.9988 -1.35426 0
M  V30 52760 H 5136.72 -2.96346 -2.94084 0
M  V30 52761 H 5138.11 -6.61097 -1.20003 0
M  V30 52762 N 5140.83 0.343176 -1.53818 0
M  V30 52763 C 5141.76 1.42703 -1.84819 0
M  V30 52764 C 5142.74 1.54877 -0.703351 0
M  V30 52765 O 5143.93 1.69079 -0.955297 0
M  V30 52766 C 5141.06 2.79748 -2.05811 0
M  V30 52767 C 5140.01 2.82381 -3.21629 0
M  V30 52768 C 5139.34 4.22315 -3.27955 0
M  V30 52769 C 5140.64 2.47884 -4.59729 0
M  V30 52770 H 5142.33 1.17008 -2.75589 0
M  V30 52771 H 5139.88 0.561438 -1.32604 0
M  V30 52772 H 5141.83 3.55619 -2.26082 0
M  V30 52773 H 5140.55 3.06879 -1.11772 0
M  V30 52774 H 5139.21 2.08963 -3.01214 0
M  V30 52775 H 5138.86 4.46556 -2.3151 0
M  V30 52776 H 5138.56 4.24987 -4.05783 0
M  V30 52777 H 5140.09 5.00027 -3.50437 0
M  V30 52778 H 5141.5 3.13467 -4.80012 0
M  V30 52779 H 5139.9 2.61838 -5.39964 0
M  V30 52780 H 5140.97 1.43071 -4.63313 0
M  V30 52781 N 5142.31 1.45558 0.604207 0
M  V30 52782 C 5143.55 1.51293 1.3744 0
M  V30 52783 C 5143.91 0.152179 1.91396 0
M  V30 52784 O 5145.11 0.0842364 2.68668 0
M  V30 52785 C 5143.39 2.56468 2.48915 0
M  V30 52786 S 5144.94 2.81454 3.36644 0
M  V30 52787 H 5141.76 0.53479 0.46853 0
M  V30 52788 H 5144.36 1.82659 0.696837 0
M  V30 52789 H 5143.07 3.54002 2.07631 0
M  V30 52790 H 5142.6 2.26764 3.21468 0
M  V30 52791 H 5144.61 2.15089 4.47159 0
M  V30 52792 N 5143.79 -0.847003 1.32905 0
M  V30 52793 C 5144.72 -1.97161 1.25098 0
M  V30 52794 C 5145.7 -1.69578 0.133221 0
M  V30 52795 O 5146.88 -1.91518 0.321658 0
M  V30 52796 C 5144.01 -3.33154 0.981123 0
M  V30 52797 C 5142.97 -3.75112 2.06095 0
M  V30 52798 C 5142.29 -5.0882 1.64336 0
M  V30 52799 C 5143.59 -3.89762 3.47683 0
M  V30 52800 H 5145.29 -2.0395 2.19191 0
M  V30 52801 H 5142.83 -0.97987 1.0552 0
M  V30 52802 H 5144.79 -4.1139 0.913036 0
M  V30 52803 H 5143.51 -3.266 0.0045704 0
M  V30 52804 H 5142.17 -2.99133 2.11932 0
M  V30 52805 H 5141.82 -4.9873 0.654052 0
M  V30 52806 H 5141.52 -5.37865 2.36591 0
M  V30 52807 H 5143.04 -5.89541 1.58978 0
M  V30 52808 H 5144.46 -4.58331 3.44392 0
M  V30 52809 H 5142.85 -4.30233 4.18353 0
M  V30 52810 H 5143.92 -2.92449 3.86784 0
M  V30 52811 N 5145.27 -1.1624 -1.06424 0
M  V30 52812 C 5146.52 -0.937586 -1.78584 0
M  V30 52813 C 5146.83 0.535934 -1.88115 0
M  V30 52814 O 5148.03 0.878606 -2.56891 0
M  V30 52815 C 5146.49 -1.62819 -3.20964 0
M  V30 52816 C 5146.1 -3.13938 -3.19604 0
M  V30 52817 C 5147.84 -1.48529 -3.97667 0
M  V30 52818 C 5145.75 -3.75743 -4.56696 0
M  V30 52819 H 5144.68 -0.347148 -0.669331 0
M  V30 52820 H 5147.33 -1.39358 -1.1938 0
M  V30 52821 H 5145.71 -1.09991 -3.80418 0
M  V30 52822 H 5146.89 -3.736 -2.6974 0
M  V30 52823 H 5145.2 -3.28098 -2.56399 0
M  V30 52824 H 5147.8 -1.92087 -4.99006 0
M  V30 52825 H 5148.14 -0.434059 -4.14031 0
M  V30 52826 H 5148.67 -1.98506 -3.44732 0
M  V30 52827 H 5145.41 -4.80809 -4.45537 0
M  V30 52828 H 5144.93 -3.20867 -5.06759 0
M  V30 52829 H 5146.61 -3.77222 -5.25655 0
M  V30 52830 N 5146.74 1.24935 -0.960675 0
M  V30 52831 C 5147.69 2.25657 -0.484538 0
M  V30 52832 C 5148.66 1.59424 0.466186 0
M  V30 52833 O 5149.85 1.87016 0.378104 0
M  V30 52834 C 5146.99 3.4436 0.225837 0
M  V30 52835 C 5146.1 4.25212 -0.762831 0
M  V30 52836 C 5145.23 5.31192 -0.0292798 0
M  V30 52837 C 5144.27 6.03735 -1.00848 0
M  V30 52838 N 5143.41 7.01435 -0.305402 0
M  V30 52839 H 5148.25 2.65753 -1.3483 0
M  V30 52840 H 5145.79 1.30646 -0.676029 0
M  V30 52841 H 5147.75 4.12037 0.654327 0
M  V30 52842 H 5146.38 3.05121 1.05361 0
M  V30 52843 H 5145.43 3.5714 -1.30978 0
M  V30 52844 H 5146.74 4.75401 -1.50981 0
M  V30 52845 H 5145.89 6.04972 0.457551 0
M  V30 52846 H 5144.63 4.81892 0.750444 0
M  V30 52847 H 5143.64 5.28765 -1.50625 0
M  V30 52848 H 5144.86 6.55125 -1.78853 0
M  V30 52849 H 5142.81 6.54417 0.455474 0
M  V30 52850 H 5142.73 7.49472 -0.991368 0
M  V30 52851 H 5143.99 7.79336 0.159692 0
M  V30 52852 N 5148.22 0.729956 1.39676 0
M  V30 52853 C 5149.63 0.346306 1.8346 0
M  V30 52854 C 5149.98 -1.12144 1.60991 0
M  V30 52855 O 5149.11 -1.86452 1.09839 0
M  V30 52856 C 5149.7 0.621773 3.33046 0
M  V30 52857 C 5148.26 0.291675 3.75268 0
M  V30 52858 C 5147.41 0.886937 2.62733 0
M  V30 52859 H 5150.36 0.927994 1.2874 0
M  V30 52860 H 5150.38 -0.108168 3.80346 0
M  V30 52861 H 5149.89 1.69009 3.49368 0
M  V30 52862 H 5148 -0.771005 3.64536 0
M  V30 52863 H 5148.11 0.770711 4.7286 0
M  V30 52864 H 5146.47 0.313928 2.52758 0
M  V30 52865 H 5147.26 1.95981 2.81863 0
M  V30 52866 N 5149.7 -1.50202 0.477206 0
M  V30 52867 C 5150.95 -2.01959 -0.0755179 0
M  V30 52868 C 5151.27 -1.36085 -1.39664 0
M  V30 52869 O 5150.54 -0.508203 -1.89193 0
M  V30 52870 H 5149.12 -0.746361 -0.0308985 0
M  V30 52871 H 5151.78 -1.8447 0.629023 0
M  V30 52872 H 5150.88 -3.11305 -0.222573 0
M  V30 52873 N 5151.18 -0.210054 -1.56194 0
M  V30 52874 C 5152.43 0.423904 -1.97604 0
M  V30 52875 C 5152.75 1.61108 -1.0986 0
M  V30 52876 O 5152.02 1.95134 -0.173101 0
M  V30 52877 H 5150.6 0.159603 -0.72975 0
M  V30 52878 H 5153.26 -0.300273 -1.92573 0
M  V30 52879 H 5152.36 0.757984 -3.02756 0
M  V30 52880 N 5152.66 1.57472 0.0634368 0
M  V30 52881 C 5153.6 2.04262 1.0745 0
M  V30 52882 C 5154.57 0.924852 1.3797 0
M  V30 52883 O 5155.76 1.1931 1.48895 0
M  V30 52884 C 5152.9 2.49841 2.38062 0
M  V30 52885 C 5152.01 3.7527 2.14001 0
M  V30 52886 C 5151.15 4.09597 3.38236 0
M  V30 52887 C 5150.19 5.28043 3.09576 0
M  V30 52888 N 5149.32 5.57968 4.26165 0
M  V30 52889 H 5154.16 2.90404 0.668524 0
M  V30 52890 H 5151.7 1.4361 0.318521 0
M  V30 52891 H 5153.66 2.74321 3.14331 0
M  V30 52892 H 5152.29 1.66664 2.76447 0
M  V30 52893 H 5151.34 3.5808 1.28386 0
M  V30 52894 H 5152.65 4.61673 1.88836 0
M  V30 52895 H 5151.81 4.35023 4.22895 0
M  V30 52896 H 5150.54 3.21778 3.66484 0
M  V30 52897 H 5149.55 5.02405 2.23314 0
M  V30 52898 H 5150.77 6.17487 2.82642 0
M  V30 52899 H 5148.72 4.73107 4.54429 0
M  V30 52900 H 5148.64 6.38807 4.04303 0
M  V30 52901 H 5149.91 5.87949 5.11797 0
M  V30 52902 N 5154.13 -0.335013 1.53998 0
M  V30 52903 C 5155.38 -1.07217 1.71315 0
M  V30 52904 C 5155.7 -1.88909 0.483552 0
M  V30 52905 O 5154.97 -1.89345 -0.502504 0
M  V30 52906 H 5153.55 -0.398823 0.631624 0
M  V30 52907 H 5156.22 -0.374221 1.91274 0
M  V30 52908 H 5155.31 -1.74471 2.58779 0
M  V30 52909 N 5155.61 -1.45876 -0.596479 0
M  V30 52910 C 5156.86 -1.50472 -1.35516 0
M  V30 52911 C 5157.19 -0.15087 -1.93914 0
M  V30 52912 O 5156.44 0.851851 -1.76187 0
M  V30 52913 C 5156.74 -2.54043 -2.5139 0
M  V30 52914 C 5156.41 -3.98447 -2.1107 0
M  V30 52915 C 5155.07 -4.37765 -1.99789 0
M  V30 52916 C 5157.42 -4.89216 -1.79771 0
M  V30 52917 C 5154.75 -5.65733 -1.55445 0
M  V30 52918 C 5157.1 -6.17607 -1.3691 0
M  V30 52919 C 5155.77 -6.55844 -1.24195 0
M  V30 52920 H 5155.04 -0.550615 -0.495887 0
M  V30 52921 H 5157.68 -1.79282 -0.673082 0
M  V30 52922 H 5155.99 -2.18843 -3.24985 0
M  V30 52923 H 5157.68 -2.54833 -3.09615 0
M  V30 52924 H 5154.27 -3.6736 -2.20781 0
M  V30 52925 H 5158.46 -4.59568 -1.87379 0
M  V30 52926 H 5153.71 -5.94144 -1.44232 0
M  V30 52927 H 5157.89 -6.87377 -1.1174 0
M  V30 52928 H 5155.52 -7.549 -0.896088 0
M  V30 52929 N 5157.09 0.839943 -1.33352 0
M  V30 52930 C 5158.32 1.62723 -1.27784 0
M  V30 52931 C 5158.73 1.88192 0.151439 0
M  V30 52932 O 5158.09 1.46132 1.09324 0
M  V30 52933 C 5158.14 2.97806 -2.04924 0
M  V30 52934 O 5157.86 2.73457 -3.42276 0
M  V30 52935 C 5159.36 3.92238 -2.06554 0
M  V30 52936 H 5156.58 0.506358 -0.440275 0
M  V30 52937 H 5159.13 1.04631 -1.75706 0
M  V30 52938 H 5157.28 3.52503 -1.60686 0
M  V30 52939 H 5157.7 3.5947 -3.81945 0
M  V30 52940 H 5159.17 4.8424 -2.64983 0
M  V30 52941 H 5159.65 4.26328 -1.05552 0
M  V30 52942 H 5160.25 3.43478 -2.50805 0
M  V30 52943 N 5158.57 1.16803 1.05806 0
M  V30 52944 C 5159.81 0.963328 1.80276 0
M  V30 52945 C 5160.17 -0.499606 1.85386 0
M  V30 52946 O 5161.37 -0.823174 2.55885 0
M  V30 52947 C 5159.64 1.57949 3.20604 0
M  V30 52948 S 5161.2 1.52012 4.11628 0
M  V30 52949 H 5158.02 0.346324 0.620952 0
M  V30 52950 H 5160.62 1.48637 1.26994 0
M  V30 52951 H 5159.33 2.63683 3.14483 0
M  V30 52952 H 5158.86 1.05599 3.78962 0
M  V30 52953 H 5160.87 0.523798 4.93428 0
M  V30 52954 N 5160.05 -1.24424 0.967287 0
M  V30 52955 C 5160.96 -2.29107 0.504673 0
M  V30 52956 C 5161.97 -1.68496 -0.434165 0
M  V30 52957 O 5163.15 -1.99042 -0.307309 0
M  V30 52958 C 5160.21 -3.46133 -0.198151 0
M  V30 52959 C 5159.28 -4.22146 0.780462 0
M  V30 52960 C 5158.51 -5.33584 0.111083 0
M  V30 52961 O 5158.73 -5.5968 -1.10068 0
M  V30 52962 O 5157.67 -5.96519 0.803033 0
M  V30 52963 H 5161.49 -2.70795 1.37492 0
M  V30 52964 H 5159.08 -1.30109 0.734306 0
M  V30 52965 H 5160.96 -4.17207 -0.592978 0
M  V30 52966 H 5159.63 -3.06424 -1.04337 0
M  V30 52967 H 5158.54 -3.53449 1.22574 0
M  V30 52968 H 5159.87 -4.65671 1.59408 0
M  V30 52969 N 5161.53 -0.737353 -1.39287 0
M  V30 52970 C 5162.77 -0.291037 -2.02317 0
M  V30 52971 C 5163.13 1.10168 -1.57248 0
M  V30 52972 O 5164.33 1.64621 -2.12493 0
M  V30 52973 C 5162.6 -0.391892 -3.55245 0
M  V30 52974 S 5164.16 -0.0257646 -4.38792 0
M  V30 52975 H 5160.98 -0.113887 -0.70182 0
M  V30 52976 H 5163.58 -0.964388 -1.70058 0
M  V30 52977 H 5162.28 -1.40676 -3.85537 0
M  V30 52978 H 5161.82 0.2992 -3.92261 0
M  V30 52979 H 5163.83 1.18974 -4.81726 0
M  V30 52980 N 5163 1.49946 -0.485165 0
M  V30 52981 C 5164.41 1.8667 -0.0334697 0
M  V30 52982 C 5164.77 1.39885 1.37574 0
M  V30 52983 O 5163.89 0.769859 2.02243 0
M  V30 52984 C 5164.49 3.38757 -0.0539617 0
M  V30 52985 C 5163.04 3.7484 0.342321 0
M  V30 52986 C 5162.19 2.73893 -0.433377 0
M  V30 52987 H 5165.14 1.42489 -0.698749 0
M  V30 52988 H 5165.16 3.73135 0.745015 0
M  V30 52989 H 5164.68 3.72778 -1.07973 0
M  V30 52990 H 5162.78 3.46424 1.37191 0
M  V30 52991 H 5162.89 4.79088 0.0338818 0
M  V30 52992 H 5161.25 2.54441 0.11476 0
M  V30 52993 H 5162.04 3.10758 -1.45892 0
M  V30 52994 N 5164.48 0.218335 1.5608 0
M  V30 52995 C 5165.76 -0.463076 1.90039 0
M  V30 52996 C 5166.14 -1.77978 1.13522 0
M  V30 52997 O 5165.49 -2.27199 0.24353 0
M  V30 52998 C 5165.7 -0.659171 3.42718 0
M  V30 52999 C 5167.04 -0.968058 4.13417 0
M  V30 53000 O 5168.07 -0.746072 3.48299 0
M  V30 53001 O 5166.93 -1.38918 5.28549 0
M  V30 53002 H 5164.02 -0.244408 0.790059 0
M  V30 53003 H 5166.57 0.26028 1.67692 0
M  V30 53004 H 5165.34 0.269721 3.90369 0
M  V30 53005 H 5164.96 -1.43413 3.70835 0
M  V30 53006 N 5165.96 -1.57504 -0.0550848 0
M  V30 53007 C 5167.24 -1.79157 -0.784985 0
M  V30 53008 C 5167.62 -0.810063 -1.94939 0
M  V30 53009 O 5166.96 0.153352 -2.27985 0
M  V30 53010 C 5167.17 -3.26139 -1.24236 0
M  V30 53011 C 5168.52 -3.90425 -1.66894 0
M  V30 53012 O 5169.55 -3.30131 -1.33761 0
M  V30 53013 O 5168.41 -4.96531 -2.28296 0
M  V30 53014 H 5165.5 -0.735838 -0.377453 0
M  V30 53015 H 5168.05 -1.69666 -0.0338688 0
M  V30 53016 H 5166.82 -3.89147 -0.409952 0
M  V30 53017 H 5166.44 -3.40419 -2.05429 0
M  V30 53018 N 5167.44 0.326842 -1.54174 0
M  V30 53019 C 5168.68 1.06517 -1.72222 0
M  V30 53020 C 5169.01 1.88117 -0.49418 0
M  V30 53021 O 5168.27 1.88552 0.524081 0
M  V30 53022 C 5168.57 2.0207 -2.94793 0
M  V30 53023 C 5168.23 1.3665 -4.29695 0
M  V30 53024 C 5166.89 1.18539 -4.66371 0
M  V30 53025 C 5169.25 0.896687 -5.13429 0
M  V30 53026 C 5166.57 0.520907 -5.84383 0
M  V30 53027 C 5168.93 0.246039 -6.32121 0
M  V30 53028 C 5167.59 0.0527523 -6.67479 0
M  V30 53029 H 5166.86 0.389774 -0.630204 0
M  V30 53030 H 5169.51 0.342659 -1.88409 0
M  V30 53031 H 5167.81 2.80761 -2.73278 0
M  V30 53032 H 5169.51 2.59221 -3.0595 0
M  V30 53033 H 5166.1 1.51748 -4.00837 0
M  V30 53034 H 5170.28 1.02441 -4.85613 0
M  V30 53035 H 5165.54 0.359925 -6.1034 0
M  V30 53036 H 5169.71 -0.12602 -6.96286 0
M  V30 53037 H 5167.34 -0.46417 -7.58782 0
M  V30 53038 N 5168.92 1.46191 0.588735 0
M  V30 53039 C 5170.33 1.31012 0.911478 0
M  V30 53040 C 5170.53 0.277088 1.99586 0
M  V30 53041 O 5169.59 -0.322444 2.50433 0
M  V30 53042 C 5170.9 2.69463 1.33454 0
M  V30 53043 C 5172.45 2.77507 1.44772 0
M  V30 53044 C 5172.92 4.16526 1.90447 0
M  V30 53045 N 5174.41 4.18914 1.9765 0
M  V30 53046 C 5175.15 5.23367 2.34253 0
M  V30 53047 N 5174.65 6.38152 2.69691 0
M  V30 53048 N 5176.44 5.10731 2.34756 0
M  V30 53049 H 5168.59 2.12016 -0.127689 0
M  V30 53050 H 5170.85 0.947984 0.00554267 0
M  V30 53051 H 5170.56 3.46338 0.611807 0
M  V30 53052 H 5170.43 2.99173 2.29729 0
M  V30 53053 H 5172.82 2.00925 2.16133 0
M  V30 53054 H 5172.9 2.51489 0.467635 0
M  V30 53055 H 5172.54 4.93601 1.19667 0
M  V30 53056 H 5172.47 4.39948 2.89402 0
M  V30 53057 H 5174.97 3.3609 1.72777 0
M  V30 53058 H 5175.28 7.13634 2.96557 0
M  V30 53059 H 5173.62 6.41524 2.67343 0
M  V30 53060 H 5176.81 4.20095 2.06488 0
M  V30 53061 H 5176.99 5.92249 2.62954 0
M  V30 53062 N 5170.39 -0.832859 1.33795 0
M  V30 53063 C 5171.62 -1.62043 1.28645 0
M  V30 53064 C 5172.04 -1.88269 -0.141456 0
M  V30 53065 O 5171.39 -1.46709 -1.08548 0
M  V30 53066 C 5171.44 -2.96715 2.065 0
M  V30 53067 O 5171.17 -2.71638 3.43721 0
M  V30 53068 C 5172.67 -3.91137 2.08631 0
M  V30 53069 H 5169.89 -0.504016 0.442954 0
M  V30 53070 H 5172.43 -1.03697 1.76259 0
M  V30 53071 H 5170.59 -3.51646 1.62554 0
M  V30 53072 H 5171 -3.57439 3.83846 0
M  V30 53073 H 5172.47 -4.82827 2.67548 0
M  V30 53074 H 5172.95 -4.25762 1.07811 0
M  V30 53075 H 5173.56 -3.42143 2.52623 0
M  V30 53076 N 5171.87 -1.17362 -1.05185 0
M  V30 53077 C 5172.8 -0.913725 -2.1488 0
M  V30 53078 C 5173.78 0.144305 -1.69487 0
M  V30 53079 O 5174.97 -0.00594688 -1.94199 0
M  V30 53080 C 5172.1 -0.426317 -3.44674 0
M  V30 53081 C 5171.05 -1.42354 -4.03633 0
M  V30 53082 C 5170.38 -0.794088 -5.28771 0
M  V30 53083 C 5171.68 -2.79675 -4.41111 0
M  V30 53084 H 5173.37 -1.83109 -2.36879 0
M  V30 53085 H 5170.92 -0.881821 -1.13842 0
M  V30 53086 H 5172.87 -0.231915 -4.20761 0
M  V30 53087 H 5171.59 0.52658 -3.22327 0
M  V30 53088 H 5170.25 -1.60468 -3.29614 0
M  V30 53089 H 5169.9 0.165647 -5.02727 0
M  V30 53090 H 5169.6 -1.45979 -5.69178 0
M  V30 53091 H 5171.13 -0.609961 -6.07546 0
M  V30 53092 H 5172.54 -2.65278 -5.08233 0
M  V30 53093 H 5170.94 -3.42824 -4.92536 0
M  V30 53094 H 5172.01 -3.3408 -3.51452 0
M  V30 53095 N 5173.35 1.23909 -0.973872 0
M  V30 53096 C 5174.28 2.24395 -0.466842 0
M  V30 53097 C 5175.29 1.57079 0.427773 0
M  V30 53098 O 5176.48 1.76973 0.232957 0
M  V30 53099 C 5173.58 3.37143 0.344679 0
M  V30 53100 C 5172.76 4.34035 -0.541502 0
M  V30 53101 C 5171.82 5.2576 0.215058 0
M  V30 53102 O 5170.84 5.67841 -0.39311 0
M  V30 53103 N 5172.04 5.60708 1.5029 0
M  V30 53104 H 5174.81 2.68531 -1.33083 0
M  V30 53105 H 5172.37 1.38014 -0.846394 0
M  V30 53106 H 5174.36 3.95479 0.858994 0
M  V30 53107 H 5172.93 2.92243 1.10963 0
M  V30 53108 H 5172.15 3.74298 -1.23672 0
M  V30 53109 H 5173.44 4.95734 -1.14567 0
M  V30 53110 H 5172.84 5.28458 2.01864 0
M  V30 53111 H 5171.39 6.21545 1.96279 0
M  V30 53112 N 5174.83 0.744729 1.38894 0
M  V30 53113 C 5175.76 0.126437 2.33157 0
M  V30 53114 C 5176.74 -0.713462 1.54414 0
M  V30 53115 O 5177.92 -0.656458 1.82768 0
M  V30 53116 C 5175.05 -0.774256 3.3856 0
M  V30 53117 C 5174.01 -0.0377709 4.27983 0
M  V30 53118 C 5173.33 -1.05613 5.24166 0
M  V30 53119 C 5174.63 1.12541 5.10031 0
M  V30 53120 H 5176.33 0.913844 2.85113 0
M  V30 53121 H 5173.87 0.440895 1.37084 0
M  V30 53122 H 5175.83 -1.21641 4.03462 0
M  V30 53123 H 5174.55 -1.59389 2.85066 0
M  V30 53124 H 5173.21 0.384861 3.64574 0
M  V30 53125 H 5172.86 -1.86958 4.66964 0
M  V30 53126 H 5172.56 -0.568056 5.84848 0
M  V30 53127 H 5174.08 -1.49778 5.91945 0
M  V30 53128 H 5175.5 0.761237 5.68224 0
M  V30 53129 H 5173.89 1.54375 5.79904 0
M  V30 53130 H 5174.96 1.94252 4.4429 0
M  V30 53131 N 5176.31 -1.49687 0.49311 0
M  V30 53132 C 5177.53 -2.07331 -0.0534385 0
M  V30 53133 C 5177.96 -1.352 -1.30777 0
M  V30 53134 O 5177.31 -0.406308 -1.76689 0
M  V30 53135 C 5177.36 -3.59366 -0.298124 0
M  V30 53136 O 5176.47 -3.88824 -1.3744 0
M  V30 53137 H 5175.81 -0.663611 0.0227251 0
M  V30 53138 H 5178.34 -1.92597 0.69047 0
M  V30 53139 H 5178.35 -4.04516 -0.532017 0
M  V30 53140 H 5177.02 -4.11278 0.618352 0
M  V30 53141 H 5175.6 -3.55491 -1.12608 0
M  V30 53142 N 5177.78 -0.226609 -1.55962 0
M  V30 53143 C 5179.03 0.402922 -1.98043 0
M  V30 53144 C 5179.35 1.59934 -1.11563 0
M  V30 53145 O 5178.62 1.94939 -0.193788 0
M  V30 53146 H 5177.2 0.151854 -0.731402 0
M  V30 53147 H 5179.87 -0.320681 -1.92244 0
M  V30 53148 H 5178.96 0.72583 -3.03543 0
M  V30 53149 N 5179.26 1.57531 0.0467312 0
M  V30 53150 C 5180.49 1.93089 0.757055 0
M  V30 53151 C 5180.91 0.825176 1.69034 0
M  V30 53152 O 5180.27 -0.220385 1.79956 0
M  V30 53153 C 5180.32 3.27674 1.50539 0
M  V30 53154 O 5179.42 3.18676 2.61762 0
M  V30 53155 H 5178.76 0.631605 0.20487 0
M  V30 53156 H 5181.29 2.04599 0.00748039 0
M  V30 53157 H 5181.3 3.62147 1.87919 0
M  V30 53158 H 5179.98 4.0772 0.820787 0
M  V30 53159 H 5178.56 2.95806 2.27054 0
M  V30 53160 N 5180.74 -0.318661 1.54345 0
M  V30 53161 C 5181.97 -1.07544 1.76754 0
M  V30 53162 C 5182.38 -1.81541 0.518486 0
M  V30 53163 O 5181.74 -1.752 -0.511016 0
M  V30 53164 C 5181.79 -2.06973 2.96386 0
M  V30 53165 O 5181.51 -1.3598 4.16462 0
M  V30 53166 C 5183.01 -2.9483 3.31044 0
M  V30 53167 H 5180.23 -0.31969 0.589948 0
M  V30 53168 H 5182.78 -0.363298 2.01247 0
M  V30 53169 H 5180.93 -2.73714 2.74152 0
M  V30 53170 H 5181.35 -2.02606 4.83788 0
M  V30 53171 H 5182.82 -3.60481 4.1804 0
M  V30 53172 H 5183.3 -3.6219 2.48425 0
M  V30 53173 H 5183.9 -2.33643 3.55374 0
M  V30 53174 N 5182.22 -1.46501 -0.580974 0
M  V30 53175 C 5183.45 -1.55249 -1.36313 0
M  V30 53176 C 5183.86 -0.193125 -1.88212 0
M  V30 53177 O 5183.2 0.820052 -1.6438 0
M  V30 53178 C 5183.26 -2.49809 -2.58526 0
M  V30 53179 C 5182.93 -3.96015 -2.28082 0
M  V30 53180 C 5183.92 -4.85177 -1.86813 0
M  V30 53181 C 5181.61 -4.4116 -2.40173 0
M  V30 53182 C 5183.6 -6.17499 -1.58031 0
M  V30 53183 C 5181.29 -5.73516 -2.11004 0
M  V30 53184 C 5182.29 -6.61506 -1.69998 0
M  V30 53185 O 5181.97 -7.91405 -1.41187 0
M  V30 53186 H 5181.71 -0.527528 -0.422717 0
M  V30 53187 H 5184.26 -1.92625 -0.713071 0
M  V30 53188 H 5182.49 -2.07454 -3.26343 0
M  V30 53189 H 5184.18 -2.48945 -3.20595 0
M  V30 53190 H 5184.95 -4.51554 -1.76985 0
M  V30 53191 H 5180.82 -3.72896 -2.71053 0
M  V30 53192 H 5184.37 -6.86136 -1.2595 0
M  V30 53193 H 5180.27 -6.06687 -2.20457 0
M  V30 53194 H 5181.03 -8.03686 -1.55018 0
M  V30 53195 N 5183.7 0.825752 -1.34235 0
M  V30 53196 C 5184.94 1.59537 -1.27778 0
M  V30 53197 C 5185.3 1.91406 0.15093 0
M  V30 53198 O 5186.5 2.66646 0.339635 0
M  V30 53199 C 5184.77 2.86175 -2.14099 0
M  V30 53200 S 5186.33 3.76743 -2.24966 0
M  V30 53201 H 5183.15 0.546855 -0.45439 0
M  V30 53202 H 5185.75 0.975617 -1.69417 0
M  V30 53203 H 5184.46 2.60756 -3.16914 0
M  V30 53204 H 5183.99 3.53149 -1.73347 0
M  V30 53205 H 5186 4.75437 -1.42037 0
M  V30 53206 N 5185.17 1.17918 1.04561 0
M  V30 53207 C 5186.11 0.845096 2.11975 0
M  V30 53208 C 5187.09 -0.190833 1.61476 0
M  V30 53209 O 5188.27 -0.0709243 1.88367 0
M  V30 53210 C 5185.4 0.261776 3.37687 0
M  V30 53211 C 5184.44 1.2741 4.07025 0
M  V30 53212 S 5185.28 2.82799 4.54736 0
M  V30 53213 C 5186.43 2.25965 5.83687 0
M  V30 53214 H 5186.66 1.75481 2.39987 0
M  V30 53215 H 5184.2 1.00452 1.17255 0
M  V30 53216 H 5186.16 -0.0682814 4.10443 0
M  V30 53217 H 5184.82 -0.625973 3.07799 0
M  V30 53218 H 5184.01 0.814731 4.97371 0
M  V30 53219 H 5183.61 1.55014 3.40363 0
M  V30 53220 H 5185.9 1.63915 6.57372 0
M  V30 53221 H 5186.85 3.14592 6.3438 0
M  V30 53222 H 5187.25 1.69174 5.38554 0
M  V30 53223 N 5186.65 -1.23391 0.980429 0
M  V30 53224 C 5188.06 -1.73628 0.6863 0
M  V30 53225 C 5188.41 -1.79262 -0.797478 0
M  V30 53226 O 5187.54 -1.43051 -1.62374 0
M  V30 53227 C 5188.13 -3.15328 1.23911 0
M  V30 53228 C 5186.69 -3.63021 0.994621 0
M  V30 53229 C 5185.84 -2.41275 1.36682 0
M  V30 53230 H 5188.79 -1.08914 1.15427 0
M  V30 53231 H 5188.81 -3.75553 0.611546 0
M  V30 53232 H 5188.32 -3.11196 2.31903 0
M  V30 53233 H 5186.43 -3.72536 -0.0692182 0
M  V30 53234 H 5186.54 -4.49819 1.64922 0
M  V30 53235 H 5184.9 -2.42292 0.78528 0
M  V30 53236 H 5185.69 -2.39814 2.45651 0
M  V30 53237 N 5188.13 -0.752084 -1.38497 0
M  V30 53238 C 5189.06 -0.0718213 -2.28087 0
M  V30 53239 C 5190.04 0.729894 -1.45297 0
M  V30 53240 O 5191.23 0.708841 -1.74665 0
M  V30 53241 C 5188.35 0.905123 -3.26382 0
M  V30 53242 C 5187.4 0.189823 -4.26077 0
M  V30 53243 S 5188.23 -1.10833 -5.23905 0
M  V30 53244 C 5189.39 -0.134422 -6.25756 0
M  V30 53245 H 5189.62 -0.831538 -2.85434 0
M  V30 53246 H 5187.15 -0.544602 -1.44476 0
M  V30 53247 H 5189.11 1.46344 -3.83528 0
M  V30 53248 H 5187.77 1.6378 -2.6802 0
M  V30 53249 H 5186.97 0.929676 -4.95351 0
M  V30 53250 H 5186.57 -0.296936 -3.72819 0
M  V30 53251 H 5188.86 0.700108 -6.73873 0
M  V30 53252 H 5189.8 -0.79478 -7.03626 0
M  V30 53253 H 5190.21 0.245603 -5.63965 0
M  V30 53254 N 5189.61 1.49423 -0.501041 0
M  V30 53255 C 5190.85 2.04357 0.0418286 0
M  V30 53256 C 5191.21 1.37241 1.34272 0
M  V30 53257 O 5192.41 1.82896 1.96984 0
M  V30 53258 C 5190.69 3.56889 0.190995 0
M  V30 53259 S 5192.24 4.33371 0.688107 0
M  V30 53260 H 5189.06 0.710998 0.00175297 0
M  V30 53261 H 5191.66 1.83477 -0.675018 0
M  V30 53262 H 5190.37 4.03281 -0.761106 0
M  V30 53263 H 5189.9 3.82174 0.93308 0
M  V30 53264 H 5191.91 4.55968 1.95724 0
M  V30 53265 N 5191.09 0.234877 1.5584 0
M  V30 53266 C 5192.31 -0.40067 2.03493 0
M  V30 53267 C 5192.74 -1.51614 1.11332 0
M  V30 53268 O 5192.1 -1.81002 0.103986 0
M  V30 53269 C 5192.14 -0.897061 3.49264 0
M  V30 53270 O 5191.25 -2.00751 3.6024 0
M  V30 53271 H 5190.59 -0.0889792 0.658011 0
M  V30 53272 H 5193.12 0.357416 2.01454 0
M  V30 53273 H 5193.13 -1.20342 3.89848 0
M  V30 53274 H 5191.8 -0.0807177 4.15822 0
M  V30 53275 H 5190.38 -1.70677 3.31547 0
M  V30 53276 N 5192.57 -1.57553 -0.0383763 0
M  V30 53277 C 5193.79 -1.93488 -0.746804 0
M  V30 53278 C 5194.22 -0.834128 -1.68594 0
M  V30 53279 O 5193.57 0.210839 -1.8007 0
M  V30 53280 C 5193.62 -3.28468 -1.48799 0
M  V30 53281 O 5192.73 -3.2006 -2.60068 0
M  V30 53282 H 5192.07 -0.632682 -0.201517 0
M  V30 53283 H 5194.6 -2.046 0.00337007 0
M  V30 53284 H 5194.61 -3.63138 -1.85996 0
M  V30 53285 H 5193.28 -4.0815 -0.799153 0
M  V30 53286 H 5191.86 -2.97006 -2.25482 0
M  V30 53287 N 5194.04 0.310471 -1.54512 0
M  V30 53288 C 5195.27 1.06605 -1.77322 0
M  V30 53289 C 5195.69 1.81264 -0.528107 0
M  V30 53290 O 5195.04 1.75468 0.501718 0
M  V30 53291 C 5195.09 2.05398 -2.97479 0
M  V30 53292 O 5194.82 1.3377 -4.17178 0
M  V30 53293 C 5196.32 2.9307 -3.32603 0
M  V30 53294 H 5193.54 0.316557 -0.591635 0
M  V30 53295 H 5196.08 0.35262 -2.01437 0
M  V30 53296 H 5194.24 2.72257 -2.75599 0
M  V30 53297 H 5194.65 2.00038 -4.84856 0
M  V30 53298 H 5196.12 3.58259 -4.19945 0
M  V30 53299 H 5196.6 3.60868 -2.50342 0
M  V30 53300 H 5197.21 2.31755 -3.56608 0
M  V30 53301 N 5195.52 1.46807 0.573196 0
M  V30 53302 C 5196.45 1.54133 1.69634 0
M  V30 53303 C 5197.47 0.428833 1.57051 0
M  V30 53304 O 5198.66 0.697669 1.64301 0
M  V30 53305 C 5195.76 1.41449 3.0797 0
M  V30 53306 C 5194.93 2.66986 3.46464 0
M  V30 53307 C 5193.99 2.48366 4.63898 0
M  V30 53308 O 5193.01 3.22125 4.6928 0
M  V30 53309 N 5194.22 1.55149 5.59383 0
M  V30 53310 H 5196.98 2.50977 1.63801 0
M  V30 53311 H 5194.54 1.42984 0.759428 0
M  V30 53312 H 5196.53 1.2675 3.84339 0
M  V30 53313 H 5195.1 0.527496 3.08117 0
M  V30 53314 H 5194.32 2.96559 2.59704 0
M  V30 53315 H 5195.61 3.5036 3.68952 0
M  V30 53316 H 5195.01 0.943436 5.57778 0
M  V30 53317 H 5193.57 1.46409 6.35144 0
M  V30 53318 N 5197 -0.818622 1.34671 0
M  V30 53319 C 5198.25 -1.57508 1.2727 0
M  V30 53320 C 5198.57 -1.93872 -0.156185 0
M  V30 53321 O 5197.83 -1.60586 -1.11851 0
M  V30 53322 C 5198.13 -2.88238 2.11314 0
M  V30 53323 C 5197.79 -2.71147 3.60264 0
M  V30 53324 C 5196.46 -2.66193 4.00867 0
M  V30 53325 C 5198.81 -2.54522 4.54828 0
M  V30 53326 C 5196.14 -2.42541 5.3422 0
M  V30 53327 C 5198.49 -2.32401 5.88364 0
M  V30 53328 C 5197.15 -2.25862 6.28126 0
M  V30 53329 H 5196.42 -0.576362 0.465712 0
M  V30 53330 H 5199.07 -0.946842 1.66455 0
M  V30 53331 H 5197.37 -3.55376 1.64971 0
M  V30 53332 H 5199.07 -3.45861 2.02931 0
M  V30 53333 H 5195.66 -2.75844 3.28037 0
M  V30 53334 H 5199.85 -2.57369 4.24352 0
M  V30 53335 H 5195.1 -2.3594 5.64041 0
M  V30 53336 H 5199.28 -2.18525 6.61226 0
M  V30 53337 H 5196.9 -2.07296 7.31391 0
M  V30 53338 N 5198.48 -1.18471 -1.03934 0
M  V30 53339 C 5199.41 -0.936465 -2.13899 0
M  V30 53340 C 5200.39 0.126321 -1.6963 0
M  V30 53341 O 5201.57 -0.026544 -1.94182 0
M  V30 53342 C 5198.7 -0.462851 -3.44202 0
M  V30 53343 C 5197.66 -1.46627 -4.021 0
M  V30 53344 C 5196.98 -0.850126 -5.27899 0
M  V30 53345 C 5198.28 -2.84338 -4.3812 0
M  V30 53346 H 5199.98 -1.85611 -2.34924 0
M  V30 53347 H 5197.52 -0.893846 -1.129 0
M  V30 53348 H 5199.48 -0.276529 -4.20492 0
M  V30 53349 H 5198.2 0.492363 -3.22867 0
M  V30 53350 H 5196.86 -1.63955 -3.27894 0
M  V30 53351 H 5196.51 0.112317 -5.02875 0
M  V30 53352 H 5196.21 -1.52008 -5.67598 0
M  V30 53353 H 5197.73 -0.674365 -6.06865 0
M  V30 53354 H 5199.15 -2.70654 -5.0539 0
M  V30 53355 H 5197.54 -3.48029 -4.88872 0
M  V30 53356 H 5198.61 -3.37789 -3.47889 0
M  V30 53357 N 5199.96 1.22869 -0.986959 0
M  V30 53358 C 5201.2 1.9319 -0.667611 0
M  V30 53359 C 5201.56 1.75213 0.785134 0
M  V30 53360 O 5202.76 2.39742 1.21562 0
M  V30 53361 C 5201.03 3.41466 -1.05525 0
M  V30 53362 S 5202.59 4.30422 -0.853369 0
M  V30 53363 H 5199.41 0.667717 -0.244285 0
M  V30 53364 H 5202.01 1.48803 -1.26799 0
M  V30 53365 H 5200.71 3.52062 -2.10905 0
M  V30 53366 H 5200.25 3.90859 -0.446431 0
M  V30 53367 H 5202.26 4.95522 0.25927 0
M  V30 53368 N 5201.43 0.759419 1.38096 0
M  V30 53369 C 5202.4 0.143801 2.28748 0
M  V30 53370 C 5203.4 -0.641286 1.47459 0
M  V30 53371 O 5204.59 -0.466692 1.67832 0
M  V30 53372 C 5201.72 -0.804428 3.31273 0
M  V30 53373 H 5202.91 0.942763 2.84696 0
M  V30 53374 H 5200.46 0.526809 1.47154 0
M  V30 53375 H 5201.2 -1.62885 2.80426 0
M  V30 53376 H 5200.98 -0.243802 3.91341 0
M  V30 53377 H 5202.47 -1.23097 3.99045 0
M  V30 53378 N 5202.91 -1.49156 0.508959 0
M  V30 53379 C 5203.86 -2.30923 -0.278825 0
M  V30 53380 C 5204.85 -1.39892 -0.955333 0
M  V30 53381 O 5206.06 -1.56904 -0.882114 0
M  V30 53382 H 5202.43 -0.744091 -0.108779 0
M  V30 53383 H 5204.41 -2.95276 0.430686 0
M  V30 53384 C 5203.15 -3.21437 -1.32565 0
M  V30 53385 H 5202.48 -3.91415 -0.814497 0
M  V30 53386 H 5203.92 -3.81575 -1.84869 0
M  V30 53387 C 5202.38 -2.41591 -2.34809 0
M  V30 53388 O 5202.91 -2.12572 -3.40846 0
M  V30 53389 N 5201.11 -2.03469 -2.07482 0
M  V30 53390 H 5200.66 -2.27269 -1.2127 0
M  V30 53391 H 5200.62 -1.50354 -2.76118 0
M  V30 53392 N 5204.39 -0.243138 -1.55713 0
M  V30 53393 C 5205.34 0.674271 -2.22613 0
M  V30 53394 C 5206.33 1.18302 -1.21247 0
M  V30 53395 O 5207.54 1.14035 -1.39269 0
M  V30 53396 H 5203.91 0.235916 -0.714036 0
M  V30 53397 H 5205.88 0.0868398 -2.98274 0
M  V30 53398 C 5204.63 1.86195 -2.93644 0
M  V30 53399 H 5203.96 1.47962 -3.71413 0
M  V30 53400 H 5205.4 2.48118 -3.43822 0
M  V30 53401 C 5203.86 2.73077 -1.97308 0
M  V30 53402 O 5204.39 3.72492 -1.50374 0
M  V30 53403 N 5202.59 2.39565 -1.6449 0
M  V30 53404 H 5202.14 1.58773 -2.02852 0
M  V30 53405 H 5202.1 2.97972 -1.00298 0
M  V30 53406 N 5205.87 1.57571 0.0300203 0
M  V30 53407 C 5206.78 2.09895 1.04791 0
M  V30 53408 C 5207.79 1.03737 1.39695 0
M  V30 53409 O 5208.97 1.35466 1.49033 0
M  V30 53410 C 5206.04 2.56716 2.33019 0
M  V30 53411 C 5205.1 3.77352 2.04705 0
M  V30 53412 C 5204.33 4.2193 3.2682 0
M  V30 53413 O 5204.55 3.66041 4.37459 0
M  V30 53414 O 5203.49 5.14373 3.12576 0
M  V30 53415 H 5207.31 2.97025 0.63324 0
M  V30 53416 H 5204.9 1.47345 0.24694 0
M  V30 53417 H 5206.78 2.87164 3.08406 0
M  V30 53418 H 5205.45 1.72698 2.73783 0
M  V30 53419 H 5204.36 3.51923 1.26889 0
M  V30 53420 H 5205.69 4.62351 1.68797 0
M  V30 53421 N 5207.35 -0.302273 1.54674 0
M  V30 53422 C 5208.29 -1.37275 1.85537 0
M  V30 53423 C 5209.26 -1.50434 0.704182 0
M  V30 53424 O 5210.45 -1.65314 0.952685 0
M  V30 53425 C 5207.59 -2.73301 2.10714 0
M  V30 53426 C 5206.7 -2.68602 3.38344 0
M  V30 53427 C 5205.84 -3.96614 3.53371 0
M  V30 53428 C 5204.88 -3.86307 4.74798 0
M  V30 53429 N 5204.01 -5.06092 4.86637 0
M  V30 53430 H 5208.85 -1.10256 2.76853 0
M  V30 53431 H 5206.39 -0.533298 1.37092 0
M  V30 53432 H 5208.35 -3.52406 2.23306 0
M  V30 53433 H 5206.98 -2.98585 1.22666 0
M  V30 53434 H 5206.03 -1.81369 3.34379 0
M  V30 53435 H 5207.34 -2.56876 4.2757 0
M  V30 53436 H 5206.5 -4.84155 3.65621 0
M  V30 53437 H 5205.23 -4.11172 2.62276 0
M  V30 53438 H 5204.24 -2.97149 4.62582 0
M  V30 53439 H 5205.46 -3.73295 5.67299 0
M  V30 53440 H 5203.41 -5.21116 3.98465 0
M  V30 53441 H 5203.33 -4.96784 5.69861 0
M  V30 53442 H 5204.6 -5.95288 5.03242 0
M  V30 53443 N 5208.82 -1.47109 -0.565403 0
M  V30 53444 C 5210.06 -1.54884 -1.3338 0
M  V30 53445 C 5210.43 -0.202871 -1.90925 0
M  V30 53446 O 5211.63 -0.155439 -2.6835 0
M  V30 53447 C 5209.9 -2.62978 -2.42028 0
M  V30 53448 S 5211.46 -2.9028 -3.29064 0
M  V30 53449 H 5208.28 -0.547024 -0.454186 0
M  V30 53450 H 5210.88 -1.84443 -0.648163 0
M  V30 53451 H 5209.58 -3.59382 -1.98173 0
M  V30 53452 H 5209.11 -2.35208 -3.15342 0
M  V30 53453 H 5211.13 -2.26869 -4.41299 0
M  V30 53454 N 5210.3 0.811468 -1.35103 0
M  V30 53455 C 5211.55 1.56339 -1.27441 0
M  V30 53456 C 5211.86 1.95019 0.150628 0
M  V30 53457 O 5213.07 2.69241 0.349491 0
M  V30 53458 C 5211.53 2.82116 -2.23469 0
M  V30 53459 C 5211.13 2.50692 -3.71291 0
M  V30 53460 C 5212.88 3.60129 -2.24738 0
M  V30 53461 C 5210.79 3.72732 -4.59156 0
M  V30 53462 H 5209.72 0.586804 -0.473474 0
M  V30 53463 H 5212.37 0.892409 -1.60338 0
M  V30 53464 H 5210.75 3.50899 -1.83537 0
M  V30 53465 H 5211.92 1.89947 -4.19829 0
M  V30 53466 H 5210.24 1.85934 -3.72582 0
M  V30 53467 H 5212.83 4.50765 -2.87602 0
M  V30 53468 H 5213.18 3.97097 -1.24979 0
M  V30 53469 H 5213.71 2.98302 -2.63174 0
M  V30 53470 H 5210.45 3.40877 -5.59896 0
M  V30 53471 H 5209.97 4.3272 -4.15347 0
M  V30 53472 H 5211.65 4.40016 -4.74336 0
M  V30 53473 N 5211.78 1.19021 1.03304 0
M  V30 53474 C 5213.19 0.993262 1.58086 0
M  V30 53475 C 5213.54 -0.454983 1.90852 0
M  V30 53476 O 5212.67 -1.33366 1.70419 0
M  V30 53477 C 5213.26 1.79671 2.87235 0
M  V30 53478 C 5211.82 1.64389 3.38605 0
M  V30 53479 C 5210.97 1.78636 2.12096 0
M  V30 53480 H 5213.92 1.33453 0.858832 0
M  V30 53481 H 5213.94 1.29032 3.57954 0
M  V30 53482 H 5213.45 2.85071 2.63356 0
M  V30 53483 H 5211.55 0.615577 3.6748 0
M  V30 53484 H 5211.67 2.44665 4.11917 0
M  V30 53485 H 5210.03 1.21656 2.23767 0
M  V30 53486 H 5210.81 2.85486 1.90663 0
M  V30 53487 N 5213.26 -1.22344 0.993461 0
M  V30 53488 C 5214.51 -1.90419 0.665086 0
M  V30 53489 C 5214.82 -1.78201 -0.806449 0
M  V30 53490 O 5216.03 -2.41198 -1.24643 0
M  V30 53491 C 5214.48 -3.41399 1.13905 0
M  V30 53492 C 5214.09 -3.62253 2.63585 0
M  V30 53493 C 5215.83 -4.15172 0.88503 0
M  V30 53494 C 5213.74 -5.06936 3.04582 0
M  V30 53495 H 5212.67 -0.713064 0.245062 0
M  V30 53496 H 5215.32 -1.38556 1.2031 0
M  V30 53497 H 5213.7 -3.92449 0.529165 0
M  V30 53498 H 5214.88 -3.21694 3.29924 0
M  V30 53499 H 5213.19 -3.01814 2.86875 0
M  V30 53500 H 5215.79 -5.21809 1.16702 0
M  V30 53501 H 5216.13 -4.15916 -0.178836 0
M  V30 53502 H 5216.67 -3.70152 1.45714 0
M  V30 53503 H 5213.41 -5.11332 4.10146 0
M  V30 53504 H 5212.93 -5.48395 2.42946 0
M  V30 53505 H 5214.6 -5.75364 2.95914 0
M  V30 53506 N 5214.74 -0.766732 -1.37692 0
M  V30 53507 C 5215.98 -0.338271 -2.00567 0
M  V30 53508 C 5216.34 1.0719 -1.59775 0
M  V30 53509 O 5215.63 1.72619 -0.831463 0
M  V30 53510 C 5215.82 -0.413956 -3.54995 0
M  V30 53511 C 5215.65 -1.82994 -4.10784 0
M  V30 53512 C 5214.42 -2.44947 -4.4196 0
M  V30 53513 C 5216.62 -2.78867 -4.32132 0
M  V30 53514 N 5214.6 -3.7837 -4.83435 0
M  V30 53515 C 5215.97 -3.97079 -4.7616 0
M  V30 53516 C 5218.03 -2.76219 -4.14255 0
M  V30 53517 C 5216.73 -5.13021 -5.04185 0
M  V30 53518 C 5218.76 -3.9133 -4.43413 0
M  V30 53519 C 5218.12 -5.08282 -4.87677 0
M  V30 53520 H 5214.22 -0.17072 -0.763137 0
M  V30 53521 H 5216.8 -0.999494 -1.67087 0
M  V30 53522 H 5214.97 0.217062 -3.87793 0
M  V30 53523 H 5216.71 0.0360797 -4.04684 0
M  V30 53524 H 5213.46 -1.96605 -4.30864 0
M  V30 53525 H 5213.89 -4.46955 -5.08488 0
M  V30 53526 H 5218.53 -1.86975 -3.7921 0
M  V30 53527 H 5216.25 -6.02869 -5.38121 0
M  V30 53528 H 5219.83 -3.90616 -4.31174 0
M  V30 53529 H 5218.71 -5.95876 -5.09806 0
M  V30 53530 N 5216.21 1.48884 -0.516862 0
M  V30 53531 C 5217.46 2.03395 0.013951 0
M  V30 53532 C 5217.82 1.38813 1.33225 0
M  V30 53533 O 5217.11 0.520168 1.84404 0
M  V30 53534 C 5217.3 3.56802 0.206673 0
M  V30 53535 C 5217.13 4.36255 -1.09139 0
M  V30 53536 C 5215.9 4.77684 -1.64762 0
M  V30 53537 C 5218.1 4.73874 -1.99871 0
M  V30 53538 N 5216.08 5.41623 -2.88994 0
M  V30 53539 C 5217.45 5.37696 -3.08679 0
M  V30 53540 C 5219.51 4.55809 -2.00357 0
M  V30 53541 C 5218.21 5.85364 -4.18021 0
M  V30 53542 C 5220.24 5.04448 -3.08684 0
M  V30 53543 C 5219.6 5.68285 -4.16211 0
M  V30 53544 H 5215.7 0.781168 -0.0360695 0
M  V30 53545 H 5218.28 1.81864 -0.695237 0
M  V30 53546 H 5216.45 3.78185 0.884931 0
M  V30 53547 H 5218.18 3.97953 0.735913 0
M  V30 53548 H 5214.94 4.58388 -1.1907 0
M  V30 53549 H 5215.36 5.78168 -3.52208 0
M  V30 53550 H 5220.01 4.05847 -1.18525 0
M  V30 53551 H 5217.72 6.34338 -5.0064 0
M  V30 53552 H 5221.31 4.9227 -3.10099 0
M  V30 53553 H 5220.19 6.0524 -4.98653 0
M  V30 53554 N 5217.69 0.251393 1.55582 0
M  V30 53555 C 5218.64 -0.646259 2.21567 0
M  V30 53556 C 5219.61 -1.16791 1.18106 0
M  V30 53557 O 5220.79 -1.22157 1.46569 0
M  V30 53558 C 5217.93 -1.83547 2.92241 0
M  V30 53559 C 5217.05 -1.34991 4.10367 0
M  V30 53560 C 5216.18 -2.49904 4.68745 0
M  V30 53561 C 5215.22 -1.98232 5.79112 0
M  V30 53562 N 5214.36 -3.06528 6.31652 0
M  V30 53563 H 5219.2 -0.0768833 2.97901 0
M  V30 53564 H 5216.74 -0.0261863 1.47077 0
M  V30 53565 H 5218.69 -2.53414 3.31417 0
M  V30 53566 H 5217.32 -2.37725 2.18373 0
M  V30 53567 H 5216.38 -0.545142 3.76474 0
M  V30 53568 H 5217.69 -0.931263 4.9003 0
M  V30 53569 H 5216.84 -3.27805 5.10518 0
M  V30 53570 H 5215.58 -2.95073 3.88308 0
M  V30 53571 H 5214.59 -1.18803 5.36811 0
M  V30 53572 H 5215.81 -1.54028 6.61402 0
M  V30 53573 H 5213.76 -3.51123 5.54119 0
M  V30 53574 H 5213.67 -2.69008 7.0652 0
M  V30 53575 H 5214.94 -3.84475 6.78085 0
M  V30 53576 N 5219.17 -1.57585 -0.0216635 0
M  V30 53577 C 5220.41 -1.91459 -0.715735 0
M  V30 53578 C 5220.78 -0.850746 -1.72123 0
M  V30 53579 O 5221.98 -1.07405 -2.46409 0
M  V30 53580 C 5220.25 -3.30461 -1.36126 0
M  V30 53581 S 5221.81 -3.86183 -2.08346 0
M  V30 53582 H 5218.62 -0.670359 -0.236939 0
M  V30 53583 H 5221.23 -1.95477 0.0298198 0
M  V30 53584 H 5219.93 -4.05746 -0.616322 0
M  V30 53585 H 5219.46 -3.29764 -2.14521 0
M  V30 53586 H 5221.48 -3.65508 -3.35587 0
M  V30 53587 N 5220.65 0.294066 -1.54832 0
M  V30 53588 C 5221.93 1.04841 -1.65129 0
M  V30 53589 C 5222.31 2.04994 -0.504058 0
M  V30 53590 O 5221.65 2.22998 0.498418 0
M  V30 53591 C 5221.86 1.72408 -3.03441 0
M  V30 53592 C 5223.21 2.2435 -3.60489 0
M  V30 53593 O 5224.24 1.82429 -3.05938 0
M  V30 53594 O 5223.1 3.0118 -4.56019 0
M  V30 53595 H 5220.19 0.485008 -0.669848 0
M  V30 53596 H 5222.74 0.291601 -1.67176 0
M  V30 53597 H 5221.51 0.997218 -3.7838 0
M  V30 53598 H 5221.13 2.54828 -3.05202 0
M  V30 53599 N 5222.13 1.47406 0.557593 0
M  V30 53600 C 5223.38 1.53708 1.31219 0
M  V30 53601 C 5223.7 0.200811 1.93963 0
M  V30 53602 O 5222.97 -0.77519 1.7991 0
M  V30 53603 H 5221.55 0.566188 0.487279 0
M  V30 53604 H 5224.21 1.83702 0.651131 0
M  V30 53605 H 5223.3 2.30343 2.10591 0
M  V30 53606 N 5223.61 -0.804292 1.35532 0
M  V30 53607 C 5224.54 -1.9244 1.24497 0
M  V30 53608 C 5225.55 -1.61934 0.167742 0
M  V30 53609 O 5226.74 -1.73459 0.421211 0
M  V30 53610 C 5223.84 -3.26872 0.894866 0
M  V30 53611 C 5223.01 -3.85268 2.07093 0
M  V30 53612 C 5222.07 -4.9811 1.69625 0
M  V30 53613 O 5221.1 -5.15416 2.41527 0
M  V30 53614 N 5222.3 -5.77167 0.621214 0
M  V30 53615 H 5225.06 -2.02433 2.21 0
M  V30 53616 H 5222.63 -0.981829 1.28731 0
M  V30 53617 H 5224.62 -3.99835 0.625652 0
M  V30 53618 H 5223.19 -3.12594 0.0194405 0
M  V30 53619 H 5222.41 -3.04472 2.50381 0
M  V30 53620 H 5223.7 -4.21014 2.857 0
M  V30 53621 H 5223.09 -5.65695 0.0238668 0
M  V30 53622 H 5221.65 -6.50498 0.411787 0
M  V30 53623 N 5225.08 -1.19567 -1.02672 0
M  V30 53624 C 5226.03 -0.935366 -2.10997 0
M  V30 53625 C 5227 0.130627 -1.65586 0
M  V30 53626 O 5228.19 -0.0119732 -1.90796 0
M  V30 53627 C 5225.33 -0.482504 -3.4171 0
M  V30 53628 C 5224.44 -1.61551 -4.00656 0
M  V30 53629 C 5223.57 -1.11396 -5.19388 0
M  V30 53630 C 5222.61 -2.22072 -5.70395 0
M  V30 53631 N 5221.75 -1.73209 -6.80399 0
M  V30 53632 H 5226.59 -1.86283 -2.32599 0
M  V30 53633 H 5224.13 -0.928696 -1.14077 0
M  V30 53634 H 5226.08 -0.201326 -4.16714 0
M  V30 53635 H 5224.71 0.407973 -3.20212 0
M  V30 53636 H 5223.77 -2.01184 -3.22845 0
M  V30 53637 H 5225.08 -2.44927 -4.34525 0
M  V30 53638 H 5224.23 -0.788147 -6.01559 0
M  V30 53639 H 5222.97 -0.24996 -4.87059 0
M  V30 53640 H 5221.98 -2.55482 -4.86836 0
M  V30 53641 H 5223.2 -3.08932 -6.04763 0
M  V30 53642 H 5221.15 -0.891202 -6.49918 0
M  V30 53643 H 5221.06 -2.50173 -7.13407 0
M  V30 53644 H 5222.33 -1.43597 -7.66159 0
M  V30 53645 N 5226.56 1.21816 -0.999936 0
M  V30 53646 C 5227.84 1.86316 -0.59545 0
M  V30 53647 C 5228.22 1.89654 0.927076 0
M  V30 53648 O 5227.57 1.39216 1.81194 0
M  V30 53649 C 5227.78 3.26833 -1.22399 0
M  V30 53650 C 5229.12 4.03268 -1.32892 0
M  V30 53651 O 5230.15 3.36125 -1.17892 0
M  V30 53652 O 5229.01 5.23472 -1.5697 0
M  V30 53653 H 5226.1 0.801631 -0.203266 0
M  V30 53654 H 5228.65 1.29538 -1.09626 0
M  V30 53655 H 5227.42 3.19076 -2.26508 0
M  V30 53656 H 5227.04 3.91224 -0.709207 0
M  V30 53657 N 5228.04 0.774023 1.37283 0
M  V30 53658 C 5229.28 0.344576 2.01475 0
M  V30 53659 C 5229.64 -1.0596 1.60114 0
M  V30 53660 O 5230.84 -1.58929 2.16783 0
M  V30 53661 C 5229.12 0.485941 3.54081 0
M  V30 53662 S 5230.67 0.142094 4.3857 0
M  V30 53663 H 5227.49 0.132454 0.698553 0
M  V30 53664 H 5230.09 1.00914 1.67442 0
M  V30 53665 H 5228.8 1.50848 3.81671 0
M  V30 53666 H 5228.33 -0.195094 3.92916 0
M  V30 53667 H 5230.34 -1.0616 4.84711 0
M  V30 53668 N 5229.52 -1.48607 0.52475 0
M  V30 53669 C 5230.74 -2.07398 -0.00944848 0
M  V30 53670 C 5231.17 -1.37944 -1.27879 0
M  V30 53671 O 5230.53 -0.443694 -1.75787 0
M  V30 53672 C 5230.57 -3.59917 -0.22183 0
M  V30 53673 O 5229.68 -3.91652 -1.29162 0
M  V30 53674 H 5229.02 -0.66298 0.0367962 0
M  V30 53675 H 5231.55 -1.91089 0.731167 0
M  V30 53676 H 5231.56 -4.05554 -0.446094 0
M  V30 53677 H 5230.23 -4.09873 0.705451 0
M  V30 53678 H 5228.81 -3.578 -1.05042 0
M  V30 53679 N 5231 -0.25964 -1.55447 0
M  V30 53680 C 5232.27 0.412528 -1.912 0
M  V30 53681 C 5232.65 1.74905 -1.182 0
M  V30 53682 O 5232 2.26473 -0.303682 0
M  V30 53683 C 5232.21 0.568074 -3.44346 0
M  V30 53684 C 5233.56 0.858107 -4.15839 0
M  V30 53685 O 5234.58 0.653465 -3.50155 0
M  V30 53686 O 5233.44 1.24855 -5.32046 0
M  V30 53687 H 5230.54 0.223375 -0.796262 0
M  V30 53688 H 5233.08 -0.304649 -1.66943 0
M  V30 53689 H 5231.85 -0.373126 -3.89517 0
M  V30 53690 H 5231.48 1.33531 -3.74507 0
M  V30 53691 N 5232.47 1.57594 0.0133061 0
M  V30 53692 C 5233.72 1.89607 0.699529 0
M  V30 53693 C 5234.04 0.859321 1.75045 0
M  V30 53694 O 5233.31 -0.105044 1.95618 0
M  V30 53695 H 5231.89 0.699786 0.26136 0
M  V30 53696 H 5234.55 1.94885 -0.0244729 0
M  V30 53697 H 5233.65 2.88967 1.17918 0
M  V30 53698 N 5233.95 -0.28585 1.54986 0
M  V30 53699 C 5235.18 -1.042 1.79324 0
M  V30 53700 C 5235.6 -1.7962 0.558406 0
M  V30 53701 O 5234.96 -1.74508 -0.4916 0
M  V30 53702 C 5235.01 -1.98638 3.00957 0
M  V30 53703 O 5234.11 -3.07197 2.75143 0
M  V30 53704 H 5233.45 -0.298575 0.593084 0
M  V30 53705 H 5235.98 -0.318665 2.02103 0
M  V30 53706 H 5235.99 -2.40828 3.29342 0
M  V30 53707 H 5234.67 -1.43153 3.90487 0
M  V30 53708 H 5233.25 -2.69414 2.57819 0
M  V30 53709 N 5235.43 -1.477 -0.549768 0
M  V30 53710 C 5236.71 -1.4519 -1.3107 0
M  V30 53711 C 5237.09 -0.152842 -2.10546 0
M  V30 53712 O 5236.44 0.865631 -2.11469 0
M  V30 53713 C 5236.65 -2.70199 -2.20892 0
M  V30 53714 C 5237.99 -3.1772 -2.81672 0
M  V30 53715 O 5239.02 -2.70979 -2.3119 0
M  V30 53716 O 5237.88 -3.98999 -3.73446 0
M  V30 53717 H 5234.97 -0.57894 -0.590557 0
M  V30 53718 H 5237.52 -1.5991 -0.568056 0
M  V30 53719 H 5236.29 -3.56274 -1.61815 0
M  V30 53720 H 5235.91 -2.58102 -3.02439 0
M  V30 53721 N 5236.91 0.797093 -1.35957 0
M  V30 53722 C 5237.82 1.94083 -1.31791 0
M  V30 53723 C 5238.83 1.72587 -0.221288 0
M  V30 53724 O 5240.01 1.96255 -0.452324 0
M  V30 53725 C 5237.08 3.28824 -1.0989 0
M  V30 53726 C 5236.14 3.6315 -2.28955 0
M  V30 53727 C 5235.37 4.91462 -2.08089 0
M  V30 53728 O 5235.59 5.60612 -1.05216 0
M  V30 53729 O 5234.53 5.24267 -2.95682 0
M  V30 53730 H 5238.35 2.00546 -2.28068 0
M  V30 53731 H 5235.94 0.936247 -1.16425 0
M  V30 53732 H 5237.82 4.09469 -0.995629 0
M  V30 53733 H 5236.49 3.2327 -0.166704 0
M  V30 53734 H 5235.4 2.82843 -2.44849 0
M  V30 53735 H 5236.73 3.73419 -3.20654 0
M  V30 53736 N 5238.39 1.2011 1.02036 0
M  V30 53737 C 5239.32 0.970375 2.12382 0
M  V30 53738 C 5240.3 -0.0993183 1.6981 0
M  V30 53739 O 5241.48 0.0574332 1.94115 0
M  V30 53740 C 5238.61 0.517551 3.43422 0
M  V30 53741 C 5237.57 1.53006 3.99717 0
M  V30 53742 C 5236.89 0.934003 5.26479 0
M  V30 53743 C 5238.19 2.91272 4.33541 0
M  V30 53744 H 5239.89 1.89325 2.31941 0
M  V30 53745 H 5237.43 0.911694 1.11464 0
M  V30 53746 H 5239.39 0.343391 4.19999 0
M  V30 53747 H 5238.11 -0.440936 3.2361 0
M  V30 53748 H 5236.77 1.69151 3.25244 0
M  V30 53749 H 5236.42 -0.0322995 5.0299 0
M  V30 53750 H 5236.12 1.61019 5.65108 0
M  V30 53751 H 5237.64 0.770827 6.05715 0
M  V30 53752 H 5239.05 2.7866 5.01021 0
M  V30 53753 H 5237.45 3.55762 4.83273 0
M  V30 53754 H 5238.52 3.43281 3.42471 0
M  V30 53755 N 5239.86 -1.21284 1.00638 0
M  V30 53756 C 5240.83 -2.21925 0.572899 0
M  V30 53757 C 5241.83 -1.56911 -0.351486 0
M  V30 53758 O 5243.02 -1.73624 -0.141582 0
M  V30 53759 C 5240.15 -3.40501 -0.164812 0
M  V30 53760 H 5241.34 -2.6179 1.46309 0
M  V30 53761 H 5238.9 -1.34569 0.795045 0
M  V30 53762 H 5239.63 -3.06126 -1.07038 0
M  V30 53763 H 5239.42 -3.88911 0.499099 0
M  V30 53764 H 5240.91 -4.15105 -0.455799 0
M  V30 53765 N 5241.34 -0.781292 -1.36871 0
M  V30 53766 C 5242.27 -0.18821 -2.3274 0
M  V30 53767 C 5243.25 0.672271 -1.56251 0
M  V30 53768 O 5244.44 0.60777 -1.84445 0
M  V30 53769 C 5241.57 0.684221 -3.40493 0
M  V30 53770 C 5240.52 -0.0757146 -4.27933 0
M  V30 53771 C 5239.85 0.916783 -5.26782 0
M  V30 53772 C 5241.15 -1.26024 -5.06868 0
M  V30 53773 H 5242.84 -0.989116 -2.8259 0
M  V30 53774 H 5240.39 -0.477086 -1.35867 0
M  V30 53775 H 5242.34 1.10901 -4.06545 0
M  V30 53776 H 5241.07 1.51775 -2.89192 0
M  V30 53777 H 5239.72 -0.481386 -3.63426 0
M  V30 53778 H 5239.37 1.74512 -4.71757 0
M  V30 53779 H 5239.07 0.412794 -5.86148 0
M  V30 53780 H 5240.6 1.34031 -5.95708 0
M  V30 53781 H 5242.01 -0.911624 -5.66006 0
M  V30 53782 H 5240.41 -1.69696 -5.75607 0
M  V30 53783 H 5241.48 -2.05964 -4.38984 0
M  V30 53784 N 5242.82 1.48327 -0.532624 0
M  V30 53785 C 5244.06 2.044 -0.00152804 0
M  V30 53786 C 5244.42 1.40058 1.31331 0
M  V30 53787 O 5245.63 1.87033 1.9306 0
M  V30 53788 C 5243.9 3.57214 0.11525 0
M  V30 53789 S 5245.46 4.34733 0.596027 0
M  V30 53790 H 5242.27 0.710875 -0.0133287 0
M  V30 53791 H 5244.88 1.82004 -0.713784 0
M  V30 53792 H 5243.58 4.01576 -0.846476 0
M  V30 53793 H 5243.11 3.84068 0.851805 0
M  V30 53794 H 5245.13 4.60017 1.86009 0
M  V30 53795 N 5244.3 0.26788 1.55307 0
M  V30 53796 C 5245.71 -0.231278 1.85262 0
M  V30 53797 C 5246.06 -1.56001 1.18987 0
M  V30 53798 O 5245.19 -2.11108 0.475628 0
M  V30 53799 C 5245.78 -0.426418 3.36106 0
M  V30 53800 C 5244.34 -0.869816 3.66212 0
M  V30 53801 C 5243.49 0.0410497 2.7727 0
M  V30 53802 H 5246.44 0.489874 1.5095 0
M  V30 53803 H 5246.46 -1.26603 3.5882 0
M  V30 53804 H 5245.97 0.540813 3.84313 0
M  V30 53805 H 5244.07 -1.84878 3.23498 0
M  V30 53806 H 5244.18 -0.71215 4.73778 0
M  V30 53807 H 5242.55 -0.474009 2.5025 0
M  V30 53808 H 5243.33 1.00403 3.2829 0
M  V30 53809 N 5245.78 -1.57599 -0.00494828 0
M  V30 53810 C 5246.71 -2.04952 -1.02602 0
M  V30 53811 C 5247.72 -0.966553 -1.31002 0
M  V30 53812 O 5248.91 -1.24344 -1.28065 0
M  V30 53813 C 5246.01 -2.43031 -2.36197 0
M  V30 53814 C 5245.18 -3.74001 -2.26808 0
M  V30 53815 C 5244.24 -3.99002 -3.43051 0
M  V30 53816 O 5243.27 -4.69736 -3.2146 0
M  V30 53817 N 5244.47 -3.46512 -4.65736 0
M  V30 53818 H 5247.24 -2.93169 -0.622233 0
M  V30 53819 H 5244.8 -1.60752 -0.192431 0
M  V30 53820 H 5246.79 -2.56874 -3.12726 0
M  V30 53821 H 5245.36 -1.60359 -2.68335 0
M  V30 53822 H 5244.58 -3.70282 -1.35222 0
M  V30 53823 H 5245.87 -4.59873 -2.17703 0
M  V30 53824 H 5245.26 -2.89223 -4.86176 0
M  V30 53825 H 5243.82 -3.65694 -5.39547 0
M  V30 53826 N 5247.25 0.277627 -1.55135 0
M  V30 53827 C 5248.67 0.624573 -1.46872 0
M  V30 53828 C 5248.87 1.89714 -0.679025 0
M  V30 53829 O 5247.93 2.51738 -0.196028 0
M  V30 53830 C 5249.24 0.755835 -2.91046 0
M  V30 53831 C 5250.79 0.850193 -3.01232 0
M  V30 53832 C 5251.26 1.01327 -4.46651 0
M  V30 53833 N 5252.75 1.0789 -4.5046 0
M  V30 53834 C 5253.49 1.2238 -5.60188 0
M  V30 53835 N 5252.98 1.33618 -6.79793 0
M  V30 53836 N 5254.78 1.25454 -5.47921 0
M  V30 53837 H 5246.93 -0.558174 -2.04935 0
M  V30 53838 H 5249.19 -0.188261 -0.929119 0
M  V30 53839 H 5248.9 -0.108716 -3.51532 0
M  V30 53840 H 5248.77 1.63758 -3.39799 0
M  V30 53841 H 5251.16 1.70522 -2.40845 0
M  V30 53842 H 5251.24 -0.0560581 -2.55739 0
M  V30 53843 H 5250.88 0.162924 -5.07639 0
M  V30 53844 H 5250.81 1.9341 -4.89796 0
M  V30 53845 H 5253.3 1.00464 -3.64301 0
M  V30 53846 H 5253.62 1.44495 -7.59171 0
M  V30 53847 H 5251.96 1.30631 -6.82613 0
M  V30 53848 H 5255.15 1.16301 -4.53422 0
M  V30 53849 H 5255.33 1.36402 -6.33481 0
M  V30 53850 N 5248.73 1.4799 0.541927 0
M  V30 53851 C 5249.98 1.55398 1.29838 0
M  V30 53852 C 5250.31 0.222736 1.9322 0
M  V30 53853 O 5249.56 -0.785873 1.79228 0
M  V30 53854 C 5249.86 2.63198 2.41788 0
M  V30 53855 C 5249.53 4.06006 1.96137 0
M  V30 53856 C 5248.19 4.44878 1.83404 0
M  V30 53857 C 5250.54 4.95551 1.6149 0
M  V30 53858 C 5247.87 5.71112 1.34341 0
M  V30 53859 C 5250.22 6.22263 1.13893 0
M  V30 53860 C 5248.89 6.60002 0.997679 0
M  V30 53861 H 5248.16 0.56864 0.47511 0
M  V30 53862 H 5250.8 1.81656 0.606079 0
M  V30 53863 H 5249.11 2.30754 3.16638 0
M  V30 53864 H 5250.81 2.66148 2.99944 0
M  V30 53865 H 5247.4 3.75301 2.06995 0
M  V30 53866 H 5251.58 4.66206 1.70193 0
M  V30 53867 H 5246.84 5.99088 1.22082 0
M  V30 53868 H 5251.01 6.91051 0.861512 0
M  V30 53869 H 5248.64 7.57706 0.615294 0
M  V30 53870 N 5250.21 -0.789872 1.36377 0
M  V30 53871 C 5251.45 -1.56093 1.31963 0
M  V30 53872 C 5251.82 -1.91739 -0.10013 0
M  V30 53873 O 5253.02 -2.67452 -0.268819 0
M  V30 53874 C 5251.29 -2.80398 2.21611 0
M  V30 53875 S 5252.85 -3.70646 2.34876 0
M  V30 53876 H 5249.66 -0.534616 0.468729 0
M  V30 53877 H 5252.27 -0.930357 1.71944 0
M  V30 53878 H 5250.97 -2.52262 3.23716 0
M  V30 53879 H 5250.5 -3.48429 1.82649 0
M  V30 53880 H 5252.52 -4.71504 1.54592 0
M  V30 53881 N 5251.69 -1.20649 -1.01398 0
M  V30 53882 C 5253.11 -0.961911 -1.27356 0
M  V30 53883 C 5253.31 0.357013 -1.98312 0
M  V30 53884 O 5252.36 1.0849 -2.28005 0
M  V30 53885 C 5253.67 -2.14634 -2.10601 0
M  V30 53886 C 5255.22 -2.18761 -2.23859 0
M  V30 53887 C 5255.7 -3.36697 -3.10482 0
M  V30 53888 N 5257.19 -3.36727 -3.18071 0
M  V30 53889 C 5257.92 -4.24629 -3.85328 0
M  V30 53890 N 5257.42 -5.22713 -4.5469 0
M  V30 53891 N 5259.21 -4.12463 -3.81878 0
M  V30 53892 H 5251.36 -2.05483 -0.537649 0
M  V30 53893 H 5253.63 -0.899303 -0.299931 0
M  V30 53894 H 5253.33 -3.10165 -1.65803 0
M  V30 53895 H 5253.21 -2.12946 -3.11342 0
M  V30 53896 H 5255.59 -1.23791 -2.6788 0
M  V30 53897 H 5255.67 -2.24496 -1.22618 0
M  V30 53898 H 5255.32 -4.31955 -2.67166 0
M  V30 53899 H 5255.25 -3.28199 -4.11816 0
M  V30 53900 H 5257.74 -2.65738 -2.68686 0
M  V30 53901 H 5258.05 -5.86105 -5.03687 0
M  V30 53902 H 5256.4 -5.26647 -4.53506 0
M  V30 53903 H 5259.59 -3.35103 -3.26839 0
M  V30 53904 H 5259.76 -4.81178 -4.34018 0
M  V30 53905 N 5253.17 1.20748 -1.0128 0
M  V30 53906 C 5254.1 2.25656 -0.600144 0
M  V30 53907 C 5255.08 1.65734 0.382922 0
M  V30 53908 O 5256.26 1.92325 0.269188 0
M  V30 53909 C 5253.39 3.47237 0.0661977 0
M  V30 53910 C 5252.35 4.19727 -0.837457 0
M  V30 53911 C 5251.67 5.34687 -0.0370982 0
M  V30 53912 C 5252.97 4.76279 -2.14374 0
M  V30 53913 H 5254.67 2.60427 -1.47709 0
M  V30 53914 H 5252.21 1.25184 -0.711678 0
M  V30 53915 H 5254.17 4.19804 0.366415 0
M  V30 53916 H 5252.89 3.11618 0.977834 0
M  V30 53917 H 5251.55 3.4902 -1.12162 0
M  V30 53918 H 5251.2 4.95312 0.87607 0
M  V30 53919 H 5250.9 5.84117 -0.638855 0
M  V30 53920 H 5252.42 6.1006 0.256754 0
M  V30 53921 H 5253.84 5.40684 -1.90614 0
M  V30 53922 H 5252.23 5.3613 -2.69602 0
M  V30 53923 H 5253.3 3.9523 -2.8093 0
M  V30 53924 N 5254.65 0.78854 1.36454 0
M  V30 53925 C 5255.89 0.359819 1.98871 0
M  V30 53926 C 5256.21 -1.07192 1.62896 0
M  V30 53927 O 5255.48 -1.73872 0.902524 0
M  V30 53928 H 5254.06 0.130055 0.735591 0
M  V30 53929 H 5256.73 1.01039 1.66665 0
M  V30 53930 H 5255.82 0.450944 3.08825 0
M  V30 53931 N 5256.12 -1.48042 0.540482 0
M  V30 53932 C 5257.06 -2.27791 -0.253774 0
M  V30 53933 C 5258.07 -1.36002 -0.894836 0
M  V30 53934 O 5259.26 -1.60966 -0.771506 0
M  V30 53935 C 5256.36 -3.09729 -1.37555 0
M  V30 53936 C 5255.53 -4.29367 -0.834439 0
M  V30 53937 C 5254.59 -4.93032 -1.83863 0
M  V30 53938 O 5253.62 -5.51932 -1.39139 0
M  V30 53939 N 5254.82 -4.86218 -3.17131 0
M  V30 53940 H 5257.58 -2.96596 0.430229 0
M  V30 53941 H 5255.14 -1.57486 0.375478 0
M  V30 53942 H 5257.14 -3.49188 -2.04572 0
M  V30 53943 H 5255.71 -2.43276 -1.96305 0
M  V30 53944 H 5254.93 -3.94198 0.0120264 0
M  V30 53945 H 5256.21 -5.06789 -0.451977 0
M  V30 53946 H 5255.61 -4.39535 -3.56126 0
M  V30 53947 H 5254.17 -5.29747 -3.79752 0
M  V30 53948 N 5257.6 -0.276112 -1.55162 0
M  V30 53949 C 5258.85 0.340384 -1.99619 0
M  V30 53950 C 5259.18 1.55786 -1.16451 0
M  V30 53951 O 5258.43 1.94432 -0.222427 0
M  V30 53952 C 5258.73 0.765621 -3.49103 0
M  V30 53953 C 5258.4 -0.347332 -4.4956 0
M  V30 53954 C 5257.06 -0.652927 -4.7675 0
M  V30 53955 C 5259.41 -1.09723 -5.0952 0
M  V30 53956 C 5256.74 -1.71198 -5.61167 0
M  V30 53957 C 5259.09 -2.14602 -5.95087 0
M  V30 53958 C 5257.75 -2.45795 -6.20597 0
M  V30 53959 H 5257.02 0.124555 -0.730457 0
M  V30 53960 H 5259.67 -0.390032 -1.87486 0
M  V30 53961 H 5257.98 1.57573 -3.58717 0
M  V30 53962 H 5259.67 1.25339 -3.80908 0
M  V30 53963 H 5256.26 -0.0990285 -4.28486 0
M  V30 53964 H 5260.45 -0.874395 -4.88537 0
M  V30 53965 H 5255.7 -1.95867 -5.79177 0
M  V30 53966 H 5259.88 -2.73183 -6.40581 0
M  V30 53967 H 5257.5 -3.27994 -6.85802 0
M  V30 53968 N 5259.08 1.576 -0.00340966 0
M  V30 53969 C 5260.01 2.05493 1.01514 0
M  V30 53970 C 5261.02 0.973487 1.30488 0
M  V30 53971 O 5262.21 1.25022 1.27404 0
M  V30 53972 C 5259.31 2.4428 2.34905 0
M  V30 53973 C 5258.49 3.75199 2.24822 0
M  V30 53974 C 5257.55 4.00816 3.4093 0
M  V30 53975 O 5256.57 4.71434 3.18965 0
M  V30 53976 N 5257.77 3.48977 4.63891 0
M  V30 53977 H 5260.54 2.93495 0.606676 0
M  V30 53978 H 5258.1 1.60852 0.183904 0
M  V30 53979 H 5260.09 2.58529 3.11359 0
M  V30 53980 H 5258.66 1.61779 2.67481 0
M  V30 53981 H 5257.88 3.70994 1.33256 0
M  V30 53982 H 5259.17 4.61021 2.15261 0
M  V30 53983 H 5258.57 2.91797 4.84635 0
M  V30 53984 H 5257.12 3.6855 5.376 0
M  V30 53985 N 5260.56 -0.269396 1.5528 0
M  V30 53986 C 5261.8 -1.00813 1.77809 0
M  V30 53987 C 5262.16 -1.83367 0.569262 0
M  V30 53988 O 5263.36 -2.60242 0.672874 0
M  V30 53989 C 5261.63 -1.86437 3.0492 0
M  V30 53990 S 5263.19 -2.66526 3.48582 0
M  V30 53991 H 5260.01 -0.339486 0.624716 0
M  V30 53992 H 5262.61 -0.278188 1.93511 0
M  V30 53993 H 5261.32 -1.24719 3.9099 0
M  V30 53994 H 5260.85 -2.63745 2.91894 0
M  V30 53995 H 5262.86 -3.88927 3.0814 0
M  V30 53996 N 5262.04 -1.48275 -0.534071 0
M  V30 53997 C 5263.26 -1.59993 -1.31974 0
M  V30 53998 C 5263.69 -0.25889 -1.8631 0
M  V30 53999 O 5263.04 0.768827 -1.64191 0
M  V30 54000 C 5263.09 -2.64651 -2.44933 0
M  V30 54001 O 5262.2 -2.21527 -3.4785 0
M  V30 54002 H 5261.54 -0.536638 -0.391044 0
M  V30 54003 H 5264.07 -1.94231 -0.643067 0
M  V30 54004 H 5264.08 -2.85797 -2.91177 0
M  V30 54005 H 5262.75 -3.62011 -2.04745 0
M  V30 54006 H 5261.33 -2.10577 -3.07752 0
M  V30 54007 N 5263.51 0.782628 -1.36794 0
M  V30 54008 C 5264.79 1.52935 -1.21944 0
M  V30 54009 C 5265.17 2.10229 0.191565 0
M  V30 54010 O 5264.52 1.94578 1.19798 0
M  V30 54011 C 5264.73 2.6189 -2.30683 0
M  V30 54012 C 5266.08 3.29588 -2.67688 0
M  V30 54013 O 5267.1 2.72178 -2.29778 0
M  V30 54014 O 5265.96 4.33358 -3.32961 0
M  V30 54015 H 5263.05 0.676839 -0.475203 0
M  V30 54016 H 5265.6 0.820527 -1.48544 0
M  V30 54017 H 5264.37 2.17596 -3.25219 0
M  V30 54018 H 5264 3.40384 -2.05486 0
M  V30 54019 N 5264.99 1.21185 1.00757 0
M  V30 54020 C 5266.24 1.02549 1.7415 0
M  V30 54021 C 5266.56 -0.442306 1.89917 0
M  V30 54022 O 5265.83 -1.31921 1.44822 0
M  V30 54023 H 5264.41 0.376463 0.645201 0
M  V30 54024 H 5267.07 1.5245 1.21429 0
M  V30 54025 H 5266.17 1.49131 2.74165 0
M  V30 54026 N 5266.47 -1.20209 1.01919 0
M  V30 54027 C 5267.42 -2.25123 0.585015 0
M  V30 54028 C 5268.41 -1.65139 -0.377543 0
M  V30 54029 O 5269.62 -1.78295 -0.247182 0
M  V30 54030 H 5265.99 -0.732327 0.170884 0
M  V30 54031 H 5267.96 -2.5907 1.48073 0
M  V30 54032 C 5266.71 -3.47651 -0.0582667 0
M  V30 54033 H 5266.04 -3.94088 0.673402 0
M  V30 54034 H 5267.48 -4.22752 -0.325137 0
M  V30 54035 C 5265.94 -3.10729 -1.30189 0
M  V30 54036 O 5266.47 -3.22499 -2.39493 0
M  V30 54037 N 5264.67 -2.65254 -1.18696 0
M  V30 54038 H 5264.22 -2.55876 -0.297528 0
M  V30 54039 H 5264.18 -2.4092 -2.02003 0
M  V30 54040 N 5267.95 -0.795765 -1.36034 0
M  V30 54041 C 5269.19 -0.376585 -2.00901 0
M  V30 54042 C 5269.55 1.03399 -1.61779 0
M  V30 54043 O 5270.75 1.5546 -2.19284 0
M  V30 54044 C 5269.02 -0.542211 -3.53263 0
M  V30 54045 S 5270.58 -0.211848 -4.38288 0
M  V30 54046 H 5267.4 -0.143551 -0.696358 0
M  V30 54047 H 5270 -1.03565 -1.65815 0
M  V30 54048 H 5268.71 -1.56901 -3.79223 0
M  V30 54049 H 5268.24 0.132559 -3.93177 0
M  V30 54050 H 5270.25 0.984349 -4.86338 0
M  V30 54051 N 5269.43 1.47754 -0.548326 0
M  V30 54052 C 5270.65 2.06884 -0.02556 0
M  V30 54053 C 5271.07 1.40229 1.26417 0
M  V30 54054 O 5270.43 0.495837 1.75635 0
M  V30 54055 C 5270.48 3.61036 0.183007 0
M  V30 54056 O 5270.2 4.25191 -1.05564 0
M  V30 54057 C 5271.7 4.37011 0.744068 0
M  V30 54058 H 5268.92 0.669696 -0.0418125 0
M  V30 54059 H 5271.46 1.89885 -0.759205 0
M  V30 54060 H 5269.62 3.77579 0.866753 0
M  V30 54061 H 5270.03 5.17603 -0.847811 0
M  V30 54062 H 5271.51 5.45581 0.839337 0
M  V30 54063 H 5271.98 4.02686 1.75329 0
M  V30 54064 H 5272.59 4.25191 0.0963047 0
M  V30 54065 N 5270.9 0.284337 1.55014 0
M  V30 54066 C 5272.13 -0.335727 2.04665 0
M  V30 54067 C 5272.55 -1.47995 1.16099 0
M  V30 54068 O 5271.91 -1.80579 0.161517 0
M  V30 54069 C 5271.96 -0.785492 3.51941 0
M  V30 54070 O 5271.06 -1.89189 3.66444 0
M  V30 54071 H 5270.41 -0.068 0.660509 0
M  V30 54072 H 5272.94 0.421326 2.00215 0
M  V30 54073 H 5272.95 -1.07878 3.9348 0
M  V30 54074 H 5271.62 0.0516137 4.15868 0
M  V30 54075 H 5270.2 -1.60043 3.3681 0
M  V30 54076 N 5272.38 -1.57596 0.0117675 0
M  V30 54077 C 5273.79 -1.79035 -0.529458 0
M  V30 54078 C 5274.14 -0.92036 -1.73274 0
M  V30 54079 O 5273.27 -0.12601 -2.16033 0
M  V30 54080 C 5273.86 -3.24698 -0.967291 0
M  V30 54081 C 5272.42 -3.47193 -1.45374 0
M  V30 54082 C 5271.57 -2.74247 -0.41037 0
M  V30 54083 H 5274.52 -1.56907 0.237891 0
M  V30 54084 H 5274.54 -3.33457 -1.83267 0
M  V30 54085 H 5274.05 -3.87993 -0.0913241 0
M  V30 54086 H 5272.16 -2.89129 -2.35021 0
M  V30 54087 H 5272.27 -4.55891 -1.47309 0
M  V30 54088 H 5270.63 -2.39212 -0.874636 0
M  V30 54089 H 5271.42 -3.40247 0.456832 0
M  V30 54090 N 5273.86 0.261157 -1.55421 0
M  V30 54091 C 5274.79 1.34564 -1.8554 0
M  V30 54092 C 5275.81 1.44976 -0.740663 0
M  V30 54093 O 5276.99 1.46581 -1.01864 0
M  V30 54094 C 5274.09 2.72573 -2.01388 0
M  V30 54095 C 5273.27 2.84607 -3.32141 0
M  V30 54096 C 5272.33 4.03367 -3.37907 0
M  V30 54097 O 5271.35 3.93566 -4.11211 0
M  V30 54098 N 5272.55 5.15884 -2.66166 0
M  V30 54099 H 5275.32 1.09068 -2.79149 0
M  V30 54100 H 5272.88 0.451272 -1.55484 0
M  V30 54101 H 5274.87 3.50335 -2.02603 0
M  V30 54102 H 5273.44 2.9084 -1.1459 0
M  V30 54103 H 5272.66 1.93634 -3.43365 0
M  V30 54104 H 5273.95 2.89586 -4.18351 0
M  V30 54105 H 5273.35 5.26736 -2.06315 0
M  V30 54106 H 5271.91 5.91832 -2.7309 0
M  V30 54107 N 5275.34 1.48556 0.526201 0
M  V30 54108 C 5276.57 1.60434 1.30647 0
M  V30 54109 C 5276.98 0.266029 1.86916 0
M  V30 54110 O 5276.34 -0.745203 1.66592 0
M  V30 54111 C 5276.39 2.65386 2.45464 0
M  V30 54112 O 5276.11 3.94023 1.91513 0
M  V30 54113 C 5277.61 2.87738 3.37227 0
M  V30 54114 H 5274.83 0.540831 0.397168 0
M  V30 54115 H 5277.38 1.94411 0.634392 0
M  V30 54116 H 5275.53 2.34257 3.08549 0
M  V30 54117 H 5275.94 4.51633 2.66699 0
M  V30 54118 H 5277.42 3.64965 4.14131 0
M  V30 54119 H 5277.9 1.96702 3.92689 0
M  V30 54120 H 5278.5 3.20186 2.79931 0
M  V30 54121 N 5276.82 -0.775363 1.37207 0
M  V30 54122 C 5277.75 -1.90253 1.35374 0
M  V30 54123 C 5278.73 -1.68633 0.222923 0
M  V30 54124 O 5279.91 -1.89543 0.422726 0
M  V30 54125 C 5277.04 -3.27484 1.15634 0
M  V30 54126 C 5276 -3.6366 2.25689 0
M  V30 54127 C 5275.32 -4.99393 1.91077 0
M  V30 54128 C 5276.62 -3.70784 3.67854 0
M  V30 54129 H 5278.32 -1.92045 2.29693 0
M  V30 54130 H 5275.86 -0.922558 1.10566 0
M  V30 54131 H 5277.82 -4.05972 1.12982 0
M  V30 54132 H 5276.54 -3.26116 0.177687 0
M  V30 54133 H 5275.2 -2.87478 2.2749 0
M  V30 54134 H 5274.85 -4.94561 0.917498 0
M  V30 54135 H 5274.55 -5.24567 2.6477 0
M  V30 54136 H 5276.07 -5.80285 1.90005 0
M  V30 54137 H 5277.48 -4.39431 3.68203 0
M  V30 54138 H 5275.88 -4.07452 4.40571 0
M  V30 54139 H 5276.95 -2.71535 4.01742 0
M  V30 54140 N 5278.3 -1.21718 -1.00112 0
M  V30 54141 C 5279.54 -1.04824 -1.75474 0
M  V30 54142 C 5279.9 0.410587 -1.87558 0
M  V30 54143 O 5281.1 0.70015 -2.59521 0
M  V30 54144 C 5279.37 -1.73066 -3.12703 0
M  V30 54145 S 5280.93 -1.71478 -4.03907 0
M  V30 54146 H 5277.75 -0.375556 -0.603721 0
M  V30 54147 H 5280.35 -1.54526 -1.19757 0
M  V30 54148 H 5279.05 -2.78387 -3.01544 0
M  V30 54149 H 5278.59 -1.23559 -3.73492 0
M  V30 54150 H 5280.6 -0.758623 -4.90367 0
M  V30 54151 N 5279.77 1.19667 -1.02555 0
M  V30 54152 C 5280.72 2.2481 -0.596946 0
M  V30 54153 C 5281.72 1.65337 0.36878 0
M  V30 54154 O 5282.92 1.78423 0.237723 0
M  V30 54155 H 5279.3 0.73141 -0.174765 0
M  V30 54156 H 5281.27 2.58281 -1.49444 0
M  V30 54157 C 5280.02 3.47677 0.0398291 0
M  V30 54158 H 5279.34 3.93725 -0.694292 0
M  V30 54159 H 5280.78 4.22918 0.302713 0
M  V30 54160 C 5279.24 3.11415 1.28539 0
M  V30 54161 O 5279.77 3.23765 2.3778 0
M  V30 54162 N 5277.97 2.65879 1.17288 0
M  V30 54163 H 5277.52 2.5603 0.283955 0
M  V30 54164 H 5277.48 2.41988 2.00722 0
M  V30 54165 N 5281.25 0.802969 1.3561 0
M  V30 54166 C 5282.21 0.216502 2.28175 0
M  V30 54167 C 5283.21 -0.594049 1.49425 0
M  V30 54168 O 5284.4 -0.413061 1.69232 0
M  V30 54169 C 5281.54 -0.698629 3.33664 0
M  V30 54170 H 5282.73 1.03286 2.81553 0
M  V30 54171 H 5280.28 0.573358 1.45404 0
M  V30 54172 H 5281.02 -1.53881 2.85466 0
M  V30 54173 H 5280.8 -0.119176 3.91919 0
M  V30 54174 H 5282.29 -1.1034 4.02759 0
M  V30 54175 N 5282.73 -1.47461 0.556154 0
M  V30 54176 C 5283.68 -2.27007 -0.212512 0
M  V30 54177 C 5284.66 -1.34291 -0.886264 0
M  V30 54178 O 5285.86 -1.58653 -0.784745 0
M  V30 54179 C 5282.98 -3.20025 -1.24252 0
M  V30 54180 C 5282.07 -4.20222 -0.572237 0
M  V30 54181 N 5282.46 -5.04538 0.357088 0
M  V30 54182 C 5280.76 -4.38279 -0.826287 0
M  V30 54183 C 5281.46 -5.76892 0.746337 0
M  V30 54184 N 5280.44 -5.43505 0.101416 0
M  V30 54185 H 5284.24 -2.89581 0.502027 0
M  V30 54186 H 5281.75 -1.57987 0.376016 0
M  V30 54187 H 5283.75 -3.75696 -1.80715 0
M  V30 54188 H 5282.41 -2.5901 -1.95816 0
M  V30 54189 H 5283.42 -5.12712 0.731192 0
M  V30 54190 H 5280.1 -3.88435 -1.53052 0
M  V30 54191 H 5281.49 -6.54715 1.5099 0
M  V30 54192 N 5284.21 -0.292554 -1.54861 0
M  V30 54193 C 5285.14 0.620811 -2.20632 0
M  V30 54194 C 5286.15 1.10408 -1.19641 0
M  V30 54195 O 5287.34 1.02299 -1.46278 0
M  V30 54196 C 5284.44 1.8609 -2.83238 0
M  V30 54197 C 5283.61 1.52153 -4.10083 0
M  V30 54198 C 5282.67 2.61589 -4.56572 0
M  V30 54199 O 5281.7 2.27038 -5.2196 0
M  V30 54200 N 5282.9 3.91975 -4.28177 0
M  V30 54201 H 5285.67 0.0577975 -2.99644 0
M  V30 54202 H 5283.23 -0.11439 -1.61495 0
M  V30 54203 H 5285.22 2.58631 -3.11275 0
M  V30 54204 H 5283.79 2.33252 -2.08116 0
M  V30 54205 H 5283.01 0.629147 -3.89147 0
M  V30 54206 H 5284.3 1.27006 -4.92694 0
M  V30 54207 H 5283.7 4.22859 -3.75775 0
M  V30 54208 H 5282.25 4.60841 -4.60944 0
M  V30 54209 N 5285.69 1.57587 -0.020125 0
M  V30 54210 C 5286.63 2.10817 0.982794 0
M  V30 54211 C 5287.63 1.03268 1.34284 0
M  V30 54212 O 5288.83 1.21713 1.32612 0
M  V30 54213 H 5285.21 0.67342 0.334678 0
M  V30 54214 H 5287.18 2.94036 0.508457 0
M  V30 54215 C 5285.93 2.64309 2.25911 0
M  V30 54216 H 5285.25 3.4671 1.99079 0
M  V30 54217 H 5286.69 3.05211 2.94317 0
M  V30 54218 C 5285.15 1.56638 2.98272 0
M  V30 54219 O 5285.68 0.960962 3.90036 0
M  V30 54220 N 5283.89 1.28898 2.60449 0
M  V30 54221 H 5283.43 1.78317 1.85905 0
M  V30 54222 H 5283.39 0.570805 3.09175 0
M  V30 54223 N 5287.16 -0.252911 1.55557 0
M  V30 54224 C 5288.4 -0.989213 1.78868 0
M  V30 54225 C 5288.77 -1.82753 0.588679 0
M  V30 54226 O 5289.97 -2.59514 0.700438 0
M  V30 54227 C 5288.24 -1.83192 3.0688 0
M  V30 54228 S 5289.8 -2.62814 3.51389 0
M  V30 54229 H 5286.62 -0.332841 0.628282 0
M  V30 54230 H 5289.22 -0.257648 1.93795 0
M  V30 54231 H 5287.92 -1.20565 3.92291 0
M  V30 54232 H 5287.45 -2.60634 2.94675 0
M  V30 54233 H 5289.47 -3.85637 3.12247 0
M  V30 54234 N 5288.64 -1.48833 -0.518315 0
M  V30 54235 C 5290.05 -1.50846 -1.10011 0
M  V30 54236 C 5290.4 -0.284812 -1.94122 0
M  V30 54237 O 5289.53 0.607014 -2.07712 0
M  V30 54238 C 5290.12 -2.73336 -2.00181 0
M  V30 54239 C 5288.68 -2.78183 -2.53557 0
M  V30 54240 C 5287.83 -2.44525 -1.30778 0
M  V30 54241 H 5290.78 -1.5578 -0.303018 0
M  V30 54242 H 5290.8 -2.52516 -2.84633 0
M  V30 54243 H 5290.31 -3.62378 -1.38937 0
M  V30 54244 H 5288.41 -1.93379 -3.18489 0
M  V30 54245 H 5288.53 -3.79915 -2.91893 0
M  V30 54246 H 5286.89 -1.9593 -1.62738 0
M  V30 54247 H 5287.67 -3.35821 -0.712679 0
M  V30 54248 N 5290.12 0.768075 -1.37617 0
M  V30 54249 C 5291.4 1.51633 -1.23559 0
M  V30 54250 C 5291.78 2.1042 0.169257 0
M  V30 54251 O 5291.12 1.95838 1.17728 0
M  V30 54252 C 5291.33 2.59428 -2.33448 0
M  V30 54253 C 5292.68 3.26731 -2.71168 0
M  V30 54254 O 5293.71 2.69725 -2.32652 0
M  V30 54255 O 5292.57 4.29802 -3.37539 0
M  V30 54256 H 5289.66 0.671761 -0.482355 0
M  V30 54257 H 5292.21 0.804726 -1.49406 0
M  V30 54258 H 5290.98 2.14134 -3.27509 0
M  V30 54259 H 5290.6 3.38185 -2.09085 0
M  V30 54260 N 5291.6 1.22247 0.994655 0
M  V30 54261 C 5292.85 1.0439 1.73052 0
M  V30 54262 C 5293.17 -0.422138 1.90376 0
M  V30 54263 O 5292.44 -1.30378 1.46213 0
M  V30 54264 H 5291.02 0.383285 0.641172 0
M  V30 54265 H 5293.68 1.5373 1.19805 0
M  V30 54266 H 5292.77 1.52031 2.72567 0
M  V30 54267 N 5293.08 -1.19122 1.03188 0
M  V30 54268 C 5294.3 -1.93376 0.749696 0
M  V30 54269 C 5294.73 -1.75156 -0.685723 0
M  V30 54270 O 5294.08 -1.05584 -1.47383 0
M  V30 54271 C 5294.13 -3.43097 1.10982 0
M  V30 54272 O 5293.24 -4.11757 0.230197 0
M  V30 54273 H 5292.58 -0.603595 0.27671 0
M  V30 54274 H 5295.11 -1.51112 1.37936 0
M  V30 54275 H 5295.12 -3.93774 1.06799 0
M  V30 54276 H 5293.79 -3.5568 2.15556 0
M  V30 54277 H 5292.37 -3.71429 0.330878 0
M  V30 54278 N 5294.55 -0.810149 -1.35183 0
M  V30 54279 C 5295.83 -0.315303 -1.93042 0
M  V30 54280 C 5296.21 1.19561 -1.73978 0
M  V30 54281 O 5295.56 1.99678 -1.1109 0
M  V30 54282 C 5295.77 -0.730611 -3.41267 0
M  V30 54283 C 5297.12 -0.722132 -4.18414 0
M  V30 54284 O 5298.14 -0.672381 -3.49796 0
M  V30 54285 O 5297 -0.783726 -5.40851 0
M  V30 54286 H 5294.09 -0.0833063 -0.822793 0
M  V30 54287 H 5296.64 -0.894085 -1.44237 0
M  V30 54288 H 5295.41 -1.77181 -3.48888 0
M  V30 54289 H 5295.04 -0.12683 -3.97398 0
M  V30 54290 N 5296.03 1.47164 -0.563966 0
M  V30 54291 C 5296.94 2.33886 0.182895 0
M  V30 54292 C 5297.96 1.48608 0.90508 0
M  V30 54293 O 5299.13 1.81521 0.872463 0
M  V30 54294 C 5296.2 3.25437 1.19547 0
M  V30 54295 C 5295.26 4.26608 0.479979 0
M  V30 54296 C 5294.49 5.13785 1.44431 0
M  V30 54297 O 5294.72 5.0354 2.67961 0
M  V30 54298 O 5293.65 5.94112 0.965112 0
M  V30 54299 H 5297.48 2.99064 -0.528649 0
M  V30 54300 H 5295.06 1.45833 -0.32452 0
M  V30 54301 H 5296.94 3.8197 1.77979 0
M  V30 54302 H 5295.62 2.6288 1.88881 0
M  V30 54303 H 5294.53 3.73816 -0.145715 0
M  V30 54304 H 5295.86 4.91899 -0.172041 0
M  V30 54305 N 5297.51 0.300763 1.54704 0
M  V30 54306 C 5298.79 -0.361689 1.92227 0
M  V30 54307 C 5299.17 -1.7171 1.22796 0
M  V30 54308 O 5298.52 -2.25588 0.363621 0
M  V30 54309 C 5298.73 -0.476577 3.45731 0
M  V30 54310 C 5300.07 -0.747553 4.17967 0
M  V30 54311 O 5301.1 -0.560398 3.51764 0
M  V30 54312 O 5299.96 -1.10705 5.3517 0
M  V30 54313 H 5297.05 -0.202185 0.801904 0
M  V30 54314 H 5299.6 0.348804 1.66077 0
M  V30 54315 H 5298.37 0.476269 3.88391 0
M  V30 54316 H 5297.99 -1.23555 3.77915 0
M  V30 54317 N 5298.99 -1.57574 0.028482 0
M  V30 54318 C 5300.4 -1.56195 -0.327903 0
M  V30 54319 C 5300.6 -1.03403 -1.72945 0
M  V30 54320 O 5299.66 -0.680477 -2.43158 0
M  V30 54321 C 5300.97 -3.00178 -0.17709 0
M  V30 54322 C 5302.52 -3.12001 -0.249904 0
M  V30 54323 C 5303 -4.57821 -0.127888 0
M  V30 54324 N 5304.49 -4.62831 -0.184891 0
M  V30 54325 C 5305.22 -5.73286 -0.114252 0
M  V30 54326 N 5304.72 -6.928 0.0074358 0
M  V30 54327 N 5306.51 -5.61848 -0.168193 0
M  V30 54328 H 5298.66 -1.9022 0.944988 0
M  V30 54329 H 5300.93 -0.874974 0.364862 0
M  V30 54330 H 5300.63 -3.42751 0.788344 0
M  V30 54331 H 5300.51 -3.65105 -0.947552 0
M  V30 54332 H 5302.89 -2.69341 -1.2058 0
M  V30 54333 H 5302.97 -2.49797 0.550923 0
M  V30 54334 H 5302.62 -5.01162 0.824583 0
M  V30 54335 H 5302.55 -5.18004 -0.947571 0
M  V30 54336 H 5305.04 -3.76868 -0.279115 0
M  V30 54337 H 5305.35 -7.72781 0.054662 0
M  V30 54338 H 5303.7 -6.94987 0.0422092 0
M  V30 54339 H 5306.89 -4.67368 -0.261656 0
M  V30 54340 H 5307.06 -6.47907 -0.10968 0
M  V30 54341 N 5300.47 0.244658 -1.55689 0
M  V30 54342 C 5301.4 1.3066 -1.9352 0
M  V30 54343 C 5302.38 1.50091 -0.800423 0
M  V30 54344 O 5303.56 1.62661 -1.06089 0
M  V30 54345 C 5300.69 2.66093 -2.23185 0
M  V30 54346 C 5299.65 2.61355 -3.38936 0
M  V30 54347 C 5298.97 4.00603 -3.54148 0
M  V30 54348 C 5300.27 2.18145 -4.74563 0
M  V30 54349 H 5301.97 0.992447 -2.82473 0
M  V30 54350 H 5299.51 0.47597 -1.35906 0
M  V30 54351 H 5301.47 3.40521 -2.4824 0
M  V30 54352 H 5300.19 2.99149 -1.31062 0
M  V30 54353 H 5298.85 1.89384 -3.13894 0
M  V30 54354 H 5298.5 4.30929 -2.59441 0
M  V30 54355 H 5298.2 3.9832 -4.31989 0
M  V30 54356 H 5299.72 4.76728 -3.81527 0
M  V30 54357 H 5301.13 2.82306 -4.98975 0
M  V30 54358 H 5299.53 2.26969 -5.55523 0
M  V30 54359 H 5300.6 1.13316 -4.71474 0
M  V30 54360 N 5301.94 1.49106 0.510415 0
M  V30 54361 C 5302.87 1.67987 1.62181 0
M  V30 54362 C 5303.86 0.528586 1.61679 0
M  V30 54363 O 5305.04 0.763368 1.78567 0
M  V30 54364 C 5302.17 1.73765 3.00704 0
M  V30 54365 C 5301.12 2.8859 3.1607 0
M  V30 54366 C 5300.45 2.79473 4.5585 0
M  V30 54367 C 5301.75 4.29648 2.96985 0
M  V30 54368 H 5303.44 2.61034 1.46634 0
M  V30 54369 H 5300.99 1.25618 0.703998 0
M  V30 54370 H 5302.94 1.85561 3.78345 0
M  V30 54371 H 5301.67 0.773108 3.17318 0
M  V30 54372 H 5300.33 2.76381 2.40851 0
M  V30 54373 H 5299.97 1.80946 4.69327 0
M  V30 54374 H 5299.67 3.56534 4.67073 0
M  V30 54375 H 5301.2 2.93263 5.35564 0
M  V30 54376 H 5302.61 4.42588 3.64402 0
M  V30 54377 H 5301.01 5.07859 3.19687 0
M  V30 54378 H 5302.08 4.44748 1.93203 0
M  V30 54379 N 5303.42 -0.760766 1.38022 0
M  V30 54380 C 5304.66 -1.53259 1.35245 0
M  V30 54381 C 5305.03 -1.91908 -0.0594364 0
M  V30 54382 O 5306.23 -2.67962 -0.212028 0
M  V30 54383 C 5304.5 -2.75635 2.27509 0
M  V30 54384 S 5306.06 -3.65581 2.42685 0
M  V30 54385 H 5302.88 -0.524553 0.479964 0
M  V30 54386 H 5305.48 -0.893675 1.73878 0
M  V30 54387 H 5304.18 -2.45338 3.28994 0
M  V30 54388 H 5303.71 -3.44476 1.89999 0
M  V30 54389 H 5305.73 -4.68119 1.64558 0
M  V30 54390 N 5304.9 -1.22773 -0.988158 0
M  V30 54391 C 5305.81 -1.01852 -2.11337 0
M  V30 54392 C 5306.83 0.0346325 -1.73966 0
M  V30 54393 O 5308 -0.159131 -2.0077 0
M  V30 54394 C 5305.07 -0.603957 -3.41399 0
M  V30 54395 C 5304.13 -1.73127 -3.92843 0
M  V30 54396 C 5303.36 -1.33639 -5.16697 0
M  V30 54397 O 5303.58 -0.217241 -5.69986 0
M  V30 54398 O 5302.52 -2.15463 -5.62014 0
M  V30 54399 H 5306.34 -1.96135 -2.31872 0
M  V30 54400 H 5303.93 -1.01409 -1.09711 0
M  V30 54401 H 5305.81 -0.383343 -4.19653 0
M  V30 54402 H 5304.49 0.309969 -3.22212 0
M  V30 54403 H 5303.39 -2.00645 -3.15741 0
M  V30 54404 H 5304.73 -2.62323 -4.1647 0
M  V30 54405 N 5306.38 1.18573 -1.03818 0
M  V30 54406 C 5307.33 2.24164 -0.620756 0
M  V30 54407 C 5308.32 1.65719 0.351223 0
M  V30 54408 O 5309.53 1.78665 0.218785 0
M  V30 54409 H 5305.9 0.729516 -0.182513 0
M  V30 54410 H 5307.87 2.56681 -1.52175 0
M  V30 54411 C 5306.62 3.477 0.00295108 0
M  V30 54412 H 5305.94 3.92967 -0.736013 0
M  V30 54413 H 5307.39 4.23215 0.257839 0
M  V30 54414 C 5305.84 3.12761 1.25229 0
M  V30 54415 O 5306.37 3.26269 2.34332 0
M  V30 54416 N 5304.58 2.67108 1.14461 0
M  V30 54417 H 5304.13 2.56317 0.256783 0
M  V30 54418 H 5304.09 2.44103 1.98144 0
M  V30 54419 N 5307.86 0.817307 1.34751 0
M  V30 54420 C 5308.81 0.207665 2.27052 0
M  V30 54421 C 5309.79 -0.624784 1.48274 0
M  V30 54422 O 5310.98 -0.480284 1.70359 0
M  V30 54423 C 5308.11 -0.634162 3.37392 0
M  V30 54424 C 5307.2 0.208605 4.23587 0
M  V30 54425 N 5307.59 1.27687 4.89418 0
M  V30 54426 C 5305.89 -0.00799417 4.45999 0
M  V30 54427 C 5306.59 1.79229 5.534 0
M  V30 54428 N 5305.56 1.09705 5.32415 0
M  V30 54429 H 5309.37 1.0249 2.75451 0
M  V30 54430 H 5306.88 0.659544 1.48404 0
M  V30 54431 H 5308.88 -1.08704 4.02479 0
M  V30 54432 H 5307.54 -1.44962 2.90545 0
M  V30 54433 H 5308.55 1.65963 4.90588 0
M  V30 54434 H 5305.23 -0.791734 4.09924 0
M  V30 54435 H 5306.62 2.6857 6.1589 0
M  V30 54436 N 5309.34 -1.46863 0.571763 0
M  V30 54437 C 5310.29 -2.2722 -0.188423 0
M  V30 54438 C 5311.27 -1.35224 -0.871971 0
M  V30 54439 O 5312.46 -1.59476 -0.767874 0
M  V30 54440 C 5309.59 -3.21325 -1.20851 0
M  V30 54441 C 5308.68 -4.20805 -0.527635 0
M  V30 54442 N 5309.07 -5.04131 0.410581 0
M  V30 54443 C 5307.37 -4.39131 -0.779755 0
M  V30 54444 C 5308.07 -5.76068 0.807482 0
M  V30 54445 N 5307.04 -5.43367 0.159056 0
M  V30 54446 H 5310.84 -2.89032 0.532713 0
M  V30 54447 H 5308.36 -1.57579 0.392752 0
M  V30 54448 H 5310.36 -3.77592 -1.7672 0
M  V30 54449 H 5309.02 -2.61072 -1.93058 0
M  V30 54450 H 5310.03 -5.11908 0.785531 0
M  V30 54451 H 5306.7 -3.90036 -1.48923 0
M  V30 54452 H 5308.09 -6.53077 1.57926 0
M  V30 54453 N 5310.81 -0.308963 -1.54542 0
M  V30 54454 C 5312.05 0.29874 -2.02205 0
M  V30 54455 C 5312.42 1.5048 -1.19247 0
M  V30 54456 O 5313.62 2.18439 -1.56645 0
M  V30 54457 C 5311.89 0.638726 -3.51646 0
M  V30 54458 S 5313.45 1.22816 -4.21262 0
M  V30 54459 H 5310.27 0.091239 -0.705122 0
M  V30 54460 H 5312.87 -0.438689 -1.90514 0
M  V30 54461 H 5311.57 -0.247404 -4.09654 0
M  V30 54462 H 5311.1 1.40674 -3.67389 0
M  V30 54463 H 5313.12 2.51564 -4.27703 0
M  V30 54464 N 5312.29 1.57557 -0.0368381 0
M  V30 54465 C 5313.57 1.83429 0.679196 0
M  V30 54466 C 5313.95 0.92234 1.89884 0
M  V30 54467 O 5313.3 -0.0201697 2.28491 0
M  V30 54468 C 5313.51 3.32827 1.0501 0
M  V30 54469 C 5314.85 3.99491 1.43847 0
M  V30 54470 O 5315.88 3.37368 1.14286 0
M  V30 54471 O 5314.74 5.08997 1.98959 0
M  V30 54472 H 5311.83 0.756593 0.33391 0
M  V30 54473 H 5314.38 1.69575 -0.065109 0
M  V30 54474 H 5313.15 3.90875 0.182371 0
M  V30 54475 H 5312.77 3.51817 1.85232 0
M  V30 54476 N 5313.77 -0.236398 1.55817 0
M  V30 54477 C 5314.99 -0.984426 1.82548 0
M  V30 54478 C 5315.42 -1.77753 0.615268 0
M  V30 54479 O 5314.78 -1.75983 -0.435833 0
M  V30 54480 C 5314.83 -1.88963 3.07125 0
M  V30 54481 O 5313.93 -2.98288 2.84777 0
M  V30 54482 H 5313.27 -0.279556 0.602283 0
M  V30 54483 H 5315.8 -0.254206 2.03015 0
M  V30 54484 H 5315.81 -2.30228 3.36837 0
M  V30 54485 H 5314.49 -1.30657 3.94844 0
M  V30 54486 H 5313.06 -2.61075 2.6626 0
M  V30 54487 N 5315.25 -1.49374 -0.5025 0
M  V30 54488 C 5316.2 -1.66417 -1.62506 0
M  V30 54489 C 5317.19 -0.530118 -1.60892 0
M  V30 54490 O 5318.4 -0.709706 -1.65418 0
M  V30 54491 H 5314.77 -0.524726 -0.538671 0
M  V30 54492 H 5316.74 -2.60644 -1.45284 0
M  V30 54493 C 5315.49 -1.74658 -3.00649 0
M  V30 54494 H 5314.81 -2.61295 -3.02597 0
M  V30 54495 H 5316.25 -1.90618 -3.78736 0
M  V30 54496 C 5314.71 -0.49108 -3.33302 0
M  V30 54497 O 5315.24 0.383898 -3.99861 0
M  V30 54498 N 5313.45 -0.354477 -2.8843 0
M  V30 54499 H 5313 -1.0675 -2.3444 0
M  V30 54500 H 5312.95 0.484484 -3.10645 0
M  V30 54501 N 5316.73 0.753436 -1.38424 0
M  V30 54502 C 5317.64 1.89792 -1.37899 0
M  V30 54503 C 5318.65 1.71796 -0.276083 0
M  V30 54504 O 5319.83 1.94717 -0.514532 0
M  V30 54505 C 5316.89 3.25161 -1.20296 0
M  V30 54506 C 5315.95 3.55682 -2.40392 0
M  V30 54507 C 5315.19 4.84593 -2.23619 0
M  V30 54508 O 5315.41 5.56981 -1.22998 0
M  V30 54509 O 5314.34 5.14594 -3.12212 0
M  V30 54510 H 5318.17 1.93189 -2.34333 0
M  V30 54511 H 5315.75 0.898733 -1.19345 0
M  V30 54512 H 5317.64 4.06095 -1.12539 0
M  V30 54513 H 5316.31 3.22576 -0.269465 0
M  V30 54514 H 5315.22 2.7491 -2.53723 0
M  V30 54515 H 5316.55 3.63029 -3.32372 0
M  V30 54516 N 5318.2 1.23295 0.981634 0
M  V30 54517 C 5319.45 1.07595 1.72612 0
M  V30 54518 C 5319.8 -0.383375 1.88542 0
M  V30 54519 O 5319.1 -1.28001 1.42571 0
M  V30 54520 C 5319.29 1.7335 3.12545 0
M  V30 54521 C 5319.12 3.25525 3.10263 0
M  V30 54522 C 5317.89 3.94681 3.15523 0
M  V30 54523 C 5320.09 4.2231 2.93528 0
M  V30 54524 N 5318.07 5.33849 3.03114 0
M  V30 54525 C 5319.44 5.48383 2.89268 0
M  V30 54526 C 5321.5 4.1306 2.78004 0
M  V30 54527 C 5320.2 6.66268 2.71071 0
M  V30 54528 C 5322.23 5.30607 2.61171 0
M  V30 54529 C 5321.59 6.55605 2.57608 0
M  V30 54530 H 5317.69 0.448238 0.640786 0
M  V30 54531 H 5320.27 1.56005 1.16492 0
M  V30 54532 H 5318.44 1.27473 3.66886 0
M  V30 54533 H 5320.17 1.50637 3.7562 0
M  V30 54534 H 5316.93 3.45753 3.23654 0
M  V30 54535 H 5317.35 6.06808 3.00188 0
M  V30 54536 H 5321.99 3.17194 2.79549 0
M  V30 54537 H 5319.71 7.62271 2.6827 0
M  V30 54538 H 5323.3 5.2529 2.50124 0
M  V30 54539 H 5322.18 7.4503 2.44745 0
M  V30 54540 N 5319.68 -1.1802 1.04446 0
M  V30 54541 C 5320.61 -2.21292 0.596877 0
M  V30 54542 C 5321.63 -1.59306 -0.335464 0
M  V30 54543 O 5322.82 -1.7803 -0.12938 0
M  V30 54544 C 5319.92 -3.38579 -0.147529 0
M  V30 54545 C 5319.09 -4.3014 0.793636 0
M  V30 54546 C 5318.15 -5.2612 0.0918411 0
M  V30 54547 O 5317.17 -5.64583 0.723509 0
M  V30 54548 N 5318.38 -5.68516 -1.17344 0
M  V30 54549 H 5321.14 -2.60315 1.48513 0
M  V30 54550 H 5318.7 -1.32844 0.92542 0
M  V30 54551 H 5320.69 -3.99814 -0.626957 0
M  V30 54552 H 5319.26 -2.98215 -0.937361 0
M  V30 54553 H 5318.48 -3.66451 1.45285 0
M  V30 54554 H 5319.77 -4.88211 1.43275 0
M  V30 54555 H 5319.17 -5.39328 -1.7071 0
M  V30 54556 H 5317.73 -6.31931 -1.59707 0
M  V30 54557 N 5321.16 -0.824441 -1.34316 0
M  V30 54558 C 5322.4 -0.419114 -2.00057 0
M  V30 54559 C 5322.76 0.999446 -1.63936 0
M  V30 54560 O 5323.97 1.50774 -2.22533 0
M  V30 54561 C 5322.24 -0.617021 -3.52034 0
M  V30 54562 S 5323.8 -0.304768 -4.3774 0
M  V30 54563 H 5320.61 -0.15829 -0.693156 0
M  V30 54564 H 5323.22 -1.07059 -1.63581 0
M  V30 54565 H 5321.92 -1.6491 -3.7581 0
M  V30 54566 H 5321.45 0.049131 -3.93369 0
M  V30 54567 H 5323.47 0.880968 -4.88317 0
M  V30 54568 N 5322.64 1.46557 -0.579543 0
M  V30 54569 C 5323.6 2.28739 0.145291 0
M  V30 54570 C 5324.6 1.38214 0.821806 0
M  V30 54571 O 5325.79 1.60622 0.674246 0
M  V30 54572 C 5322.92 3.18512 1.21503 0
M  V30 54573 H 5324.12 2.94299 -0.57689 0
M  V30 54574 H 5321.67 1.52615 -0.337381 0
M  V30 54575 H 5322.4 2.57692 1.96889 0
M  V30 54576 H 5322.19 3.85159 0.73448 0
M  V30 54577 H 5323.68 3.80375 1.7235 0
M  V30 54578 N 5324.12 0.317154 1.54376 0
M  V30 54579 C 5325.06 -0.567292 2.25576 0
M  V30 54580 C 5326.06 -1.12383 1.26753 0
M  V30 54581 O 5327.26 -1.07261 1.44552 0
M  V30 54582 H 5323.64 -0.201579 0.724479 0
M  V30 54583 H 5325.61 0.0555693 2.98348 0
M  V30 54584 C 5324.36 -1.71973 3.02193 0
M  V30 54585 H 5323.68 -1.30073 3.78049 0
M  V30 54586 H 5325.12 -2.31431 3.55269 0
M  V30 54587 C 5323.58 -2.63353 2.10112 0
M  V30 54588 O 5324.11 -3.64893 1.67975 0
M  V30 54589 N 5322.32 -2.31444 1.75733 0
M  V30 54590 H 5321.86 -1.48914 2.10196 0
M  V30 54591 H 5321.82 -2.92848 1.14401 0
M  V30 54592 N 5325.59 -1.57535 0.0451932 0
M  V30 54593 C 5326.54 -2.11179 -0.931239 0
M  V30 54594 C 5327.51 -1.0177 -1.31271 0
M  V30 54595 O 5328.7 -1.29284 -1.40323 0
M  V30 54596 C 5325.84 -2.65647 -2.20286 0
M  V30 54597 C 5324.95 -3.89121 -1.87641 0
M  V30 54598 C 5324.08 -4.31924 -3.09216 0
M  V30 54599 C 5323.12 -5.48115 -2.72464 0
M  V30 54600 N 5322.26 -5.86 -3.86715 0
M  V30 54601 H 5327.1 -2.9432 -0.466883 0
M  V30 54602 H 5324.64 -1.45463 -0.218835 0
M  V30 54603 H 5326.6 -2.95323 -2.94687 0
M  V30 54604 H 5325.23 -1.85312 -2.64309 0
M  V30 54605 H 5324.28 -3.66073 -1.03414 0
M  V30 54606 H 5325.59 -4.73585 -1.56584 0
M  V30 54607 H 5324.74 -4.63122 -3.91922 0
M  V30 54608 H 5323.48 -3.46259 -3.43447 0
M  V30 54609 H 5322.49 -5.16595 -1.88174 0
M  V30 54610 H 5323.71 -6.35491 -2.39433 0
M  V30 54611 H 5321.66 -5.03288 -4.20758 0
M  V30 54612 H 5321.58 -6.65141 -3.59337 0
M  V30 54613 H 5322.84 -6.21809 -4.70078 0
M  V30 54614 N 5327.07 0.228132 -1.5594 0
M  V30 54615 C 5328.49 0.577531 -1.48784 0
M  V30 54616 C 5328.69 1.87458 -0.739037 0
M  V30 54617 O 5327.74 2.50987 -0.276017 0
M  V30 54618 C 5329.06 0.662858 -2.93303 0
M  V30 54619 C 5330.61 0.753928 -3.03784 0
M  V30 54620 C 5331.08 0.870657 -4.49648 0
M  V30 54621 N 5332.57 0.935048 -4.53664 0
M  V30 54622 C 5333.31 1.04496 -5.63798 0
M  V30 54623 N 5332.8 1.11924 -6.83699 0
M  V30 54624 N 5334.6 1.07959 -5.51635 0
M  V30 54625 H 5326.75 -0.62309 -2.03055 0
M  V30 54626 H 5329.01 -0.217725 -0.922659 0
M  V30 54627 H 5328.72 -0.220498 -3.51008 0
M  V30 54628 H 5328.59 1.52864 -3.44837 0
M  V30 54629 H 5330.98 1.62773 -2.46148 0
M  V30 54630 H 5331.06 -0.137391 -2.55431 0
M  V30 54631 H 5330.7 0.00134004 -5.079 0
M  V30 54632 H 5330.63 1.7773 -4.95701 0
M  V30 54633 H 5333.12 0.888231 -3.67313 0
M  V30 54634 H 5333.44 1.2027 -7.63384 0
M  V30 54635 H 5331.78 1.08848 -6.86423 0
M  V30 54636 H 5334.97 1.01817 -4.56893 0
M  V30 54637 H 5335.14 1.16179 -6.375 0
M  V30 54638 N 5328.55 1.49639 0.494571 0
M  V30 54639 C 5329.79 1.61072 1.25838 0
M  V30 54640 C 5330.15 0.293733 1.8974 0
M  V30 54641 O 5331.36 0.283296 2.67303 0
M  V30 54642 C 5329.63 2.74226 2.29205 0
M  V30 54643 S 5331.19 3.0565 3.14839 0
M  V30 54644 H 5328 0.568071 0.42757 0
M  V30 54645 H 5330.61 1.87325 0.559425 0
M  V30 54646 H 5329.31 3.68428 1.808 0
M  V30 54647 H 5328.84 2.49985 3.03761 0
M  V30 54648 H 5330.86 2.47666 4.29972 0
M  V30 54649 N 5330.03 -0.746085 1.38821 0
M  V30 54650 C 5331.28 -1.5008 1.34755 0
M  V30 54651 C 5331.59 -1.95516 -0.0574099 0
M  V30 54652 O 5332.8 -2.70602 -0.220635 0
M  V30 54653 C 5331.25 -2.71133 2.36675 0
M  V30 54654 C 5330.86 -2.32692 3.82829 0
M  V30 54655 C 5332.6 -3.48996 2.41665 0
M  V30 54656 C 5330.51 -3.50401 4.76417 0
M  V30 54657 H 5329.44 -0.563545 0.500932 0
M  V30 54658 H 5332.09 -0.814893 1.64413 0
M  V30 54659 H 5330.47 -3.41743 2.0007 0
M  V30 54660 H 5331.65 -1.697 4.28414 0
M  V30 54661 H 5329.96 -1.67946 3.81029 0
M  V30 54662 H 5332.56 -4.3653 3.08781 0
M  V30 54663 H 5332.9 -3.90682 1.43782 0
M  V30 54664 H 5333.44 -2.85406 2.77107 0
M  V30 54665 H 5330.18 -3.13775 5.75522 0
M  V30 54666 H 5329.7 -4.12411 4.3552 0
M  V30 54667 H 5331.37 -4.16884 4.9479 0
M  V30 54668 N 5331.51 -1.23814 -0.975081 0
M  V30 54669 C 5332.92 -1.06756 -1.53167 0
M  V30 54670 C 5333.27 0.363407 -1.92805 0
M  V30 54671 O 5332.39 1.25083 -1.76587 0
M  V30 54672 C 5332.99 -1.9317 -2.78335 0
M  V30 54673 C 5331.55 -1.80357 -3.30376 0
M  V30 54674 C 5330.69 -1.88552 -2.03331 0
M  V30 54675 H 5333.65 -1.37399 -0.794182 0
M  V30 54676 H 5333.67 -1.45963 -3.5139 0
M  V30 54677 H 5333.18 -2.97311 -2.49455 0
M  V30 54678 H 5331.28 -0.790205 -3.64124 0
M  V30 54679 H 5331.39 -2.6404 -3.99775 0
M  V30 54680 H 5329.76 -1.32194 -2.17708 0
M  V30 54681 H 5330.54 -2.94258 -1.76825 0
M  V30 54682 N 5332.98 1.17465 -1.0507 0
M  V30 54683 C 5333.89 2.25087 -0.661301 0
M  V30 54684 C 5334.91 1.71087 0.31706 0
M  V30 54685 O 5336.09 2.00686 0.169463 0
M  V30 54686 C 5333.15 3.46676 -0.0407633 0
M  V30 54687 C 5332.21 4.15767 -1.06942 0
M  V30 54688 C 5331.45 5.31552 -0.478394 0
M  V30 54689 O 5331.67 5.65932 0.712515 0
M  V30 54690 O 5330.6 5.8957 -1.21205 0
M  V30 54691 H 5334.43 2.6068 -1.55819 0
M  V30 54692 H 5332.01 1.24741 -0.822191 0
M  V30 54693 H 5333.9 4.20301 0.304164 0
M  V30 54694 H 5332.57 3.12883 0.829799 0
M  V30 54695 H 5331.48 3.44166 -1.46631 0
M  V30 54696 H 5332.81 4.53584 -1.91108 0
M  V30 54697 N 5334.46 0.831553 1.33877 0
M  V30 54698 C 5335.69 0.436025 2.02765 0
M  V30 54699 C 5336.11 -0.952832 1.62181 0
M  V30 54700 O 5335.47 -1.62163 0.810738 0
M  V30 54701 C 5335.52 0.556032 3.56287 0
M  V30 54702 O 5334.62 -0.420682 4.10249 0
M  V30 54703 H 5333.96 0.17827 0.639622 0
M  V30 54704 H 5336.49 1.12436 1.70937 0
M  V30 54705 H 5336.5 0.434973 4.05675 0
M  V30 54706 H 5335.18 1.56894 3.85171 0
M  V30 54707 H 5333.76 -0.257788 3.72008 0
M  V30 54708 N 5335.94 -1.46248 0.587307 0
M  V30 54709 C 5337.19 -2.0323 0.0831073 0
M  V30 54710 C 5337.54 -1.45011 -1.2645 0
M  V30 54711 O 5336.84 -0.607558 -1.81712 0
M  V30 54712 C 5337.03 -3.57382 -0.0362024 0
M  V30 54713 C 5336.86 -4.30551 1.29829 0
M  V30 54714 C 5335.63 -4.69279 1.87365 0
M  V30 54715 C 5337.83 -4.63798 2.22252 0
M  V30 54716 N 5335.81 -5.27218 3.14506 0
M  V30 54717 C 5337.18 -5.22356 3.33982 0
M  V30 54718 C 5339.23 -4.4573 2.21876 0
M  V30 54719 C 5337.94 -5.64753 4.45474 0
M  V30 54720 C 5339.96 -4.89146 3.324 0
M  V30 54721 C 5339.33 -5.4778 4.42851 0
M  V30 54722 H 5335.42 -0.778557 0.0732989 0
M  V30 54723 H 5338.01 -1.7834 0.781215 0
M  V30 54724 H 5336.18 -3.81976 -0.703487 0
M  V30 54725 H 5337.91 -4.01011 -0.545207 0
M  V30 54726 H 5334.67 -4.52185 1.40804 0
M  V30 54727 H 5335.09 -5.60706 3.79392 0
M  V30 54728 H 5339.73 -3.9973 1.37753 0
M  V30 54729 H 5337.45 -6.09729 5.30335 0
M  V30 54730 H 5341.04 -4.76914 3.33233 0
M  V30 54731 H 5339.92 -5.80759 5.26962 0
M  V30 54732 N 5337.42 -0.325336 -1.54205 0
M  V30 54733 C 5338.35 0.573872 -2.21899 0
M  V30 54734 C 5339.36 1.07845 -1.21956 0
M  V30 54735 O 5340.55 0.991729 -1.48415 0
M  V30 54736 C 5337.65 1.8004 -2.87122 0
M  V30 54737 C 5336.83 1.43421 -4.13218 0
M  V30 54738 C 5335.89 2.51846 -4.62018 0
M  V30 54739 O 5334.91 2.15915 -5.26659 0
M  V30 54740 N 5336.11 3.82805 -4.36395 0
M  V30 54741 H 5338.88 -0.00577454 -2.99699 0
M  V30 54742 H 5336.44 -0.14862 -1.61216 0
M  V30 54743 H 5338.43 2.5197 -3.16691 0
M  V30 54744 H 5337 2.28785 -2.13017 0
M  V30 54745 H 5336.22 0.546461 -3.90394 0
M  V30 54746 H 5337.51 1.16527 -4.95277 0
M  V30 54747 H 5336.91 4.14793 -3.8466 0
M  V30 54748 H 5335.46 4.5096 -4.70615 0
M  V30 54749 N 5338.9 1.57509 -0.0535471 0
M  V30 54750 C 5340.14 1.94656 0.623573 0
M  V30 54751 C 5340.5 0.931899 1.67868 0
M  V30 54752 O 5341.7 1.19039 2.41004 0
M  V30 54753 C 5339.97 3.36579 1.20204 0
M  V30 54754 S 5341.53 3.95684 1.89683 0
M  V30 54755 H 5338.35 0.6809 0.204686 0
M  V30 54756 H 5340.95 1.95112 -0.123051 0
M  V30 54757 H 5339.66 4.08224 0.422034 0
M  V30 54758 H 5339.19 3.39624 1.98543 0
M  V30 54759 H 5341.2 3.81103 3.17766 0
M  V30 54760 N 5340.38 -0.219858 1.56059 0
M  V30 54761 C 5341.65 -0.968434 1.69943 0
M  V30 54762 C 5342.03 -2.02355 0.60129 0
M  V30 54763 O 5341.38 -2.25122 -0.391455 0
M  V30 54764 C 5341.59 -1.57734 3.11321 0
M  V30 54765 C 5342.94 -2.06895 3.70783 0
M  V30 54766 O 5343.96 -1.67625 3.14294 0
M  V30 54767 O 5342.82 -2.7908 4.69869 0
M  V30 54768 H 5339.92 -0.452497 0.692225 0
M  V30 54769 H 5342.46 -0.211507 1.68377 0
M  V30 54770 H 5341.23 -0.815553 3.82707 0
M  V30 54771 H 5340.86 -2.39976 3.17013 0
M  V30 54772 N 5341.85 -1.49899 -0.486629 0
M  V30 54773 C 5343.08 -1.63841 -1.26347 0
M  V30 54774 C 5343.5 -0.315493 -1.86145 0
M  V30 54775 O 5342.85 0.700772 -1.68509 0
M  V30 54776 C 5342.9 -2.71801 -2.38342 0
M  V30 54777 O 5342.63 -3.98963 -1.80999 0
M  V30 54778 C 5344.13 -2.96577 -3.29479 0
M  V30 54779 H 5341.35 -0.551171 -0.38269 0
M  V30 54780 H 5343.89 -1.96025 -0.582625 0
M  V30 54781 H 5342.05 -2.42355 -3.0223 0
M  V30 54782 H 5342.46 -4.58545 -2.54631 0
M  V30 54783 H 5343.93 -3.75817 -4.04309 0
M  V30 54784 H 5344.41 -2.07045 -3.87336 0
M  V30 54785 H 5345.02 -3.27495 -2.71343 0
M  V30 54786 N 5343.33 0.738712 -1.39215 0
M  V30 54787 C 5344.58 1.4982 -1.36236 0
M  V30 54788 C 5344.91 1.94453 0.0428869 0
M  V30 54789 O 5344.16 1.66834 1.02298 0
M  V30 54790 C 5344.46 2.75427 -2.2776 0
M  V30 54791 C 5344.13 2.49681 -3.7546 0
M  V30 54792 C 5342.79 2.42369 -4.15705 0
M  V30 54793 C 5345.14 2.27571 -4.68893 0
M  V30 54794 C 5342.47 2.10982 -5.47452 0
M  V30 54795 C 5344.82 1.97702 -6.00913 0
M  V30 54796 C 5343.48 1.88856 -6.40226 0
M  V30 54797 H 5342.75 0.548229 -0.498524 0
M  V30 54798 H 5345.4 0.848183 -1.71692 0
M  V30 54799 H 5343.71 3.45153 -1.8541 0
M  V30 54800 H 5345.4 3.33442 -2.2275 0
M  V30 54801 H 5341.99 2.56249 -3.43561 0
M  V30 54802 H 5346.18 2.3219 -4.38636 0
M  V30 54803 H 5341.43 2.02653 -5.76838 0
M  V30 54804 H 5345.61 1.79601 -6.72842 0
M  V30 54805 H 5343.23 1.64301 -7.42233 0
M  V30 54806 N 5344.81 1.24329 0.968501 0
M  V30 54807 C 5345.76 1.03263 2.08421 0
M  V30 54808 C 5346.75 -0.032176 1.69369 0
M  V30 54809 O 5347.96 0.122314 1.79584 0
M  V30 54810 H 5344.33 0.316904 0.681965 0
M  V30 54811 H 5346.3 1.97881 2.23351 0
M  V30 54812 C 5345.05 0.653264 3.41508 0
M  V30 54813 H 5344.38 1.46438 3.72016 0
M  V30 54814 H 5345.82 0.545464 4.20477 0
M  V30 54815 C 5344.27 -0.639558 3.30774 0
M  V30 54816 O 5344.8 -1.6855 3.64628 0
M  V30 54817 N 5343.01 -0.619974 2.8391 0
M  V30 54818 H 5342.56 0.231539 2.56557 0
M  V30 54819 H 5342.52 -1.48518 2.7711 0
M  V30 54820 N 5346.29 -1.16906 1.05692 0
M  V30 54821 C 5347.56 -1.83263 0.683665 0
M  V30 54822 C 5347.94 -1.93861 -0.835534 0
M  V30 54823 O 5347.29 -1.47703 -1.74345 0
M  V30 54824 C 5347.5 -3.20621 1.37853 0
M  V30 54825 C 5348.85 -3.96468 1.51981 0
M  V30 54826 O 5349.87 -3.30117 1.33794 0
M  V30 54827 O 5348.73 -5.15386 1.81767 0
M  V30 54828 H 5345.83 -0.79102 0.241281 0
M  V30 54829 H 5348.37 -1.24161 1.15682 0
M  V30 54830 H 5347.15 -3.07906 2.41474 0
M  V30 54831 H 5346.77 -3.87394 0.895057 0
M  V30 54832 N 5347.77 -0.838641 -1.33434 0
M  V30 54833 C 5349.01 -0.440309 -1.99601 0
M  V30 54834 C 5349.37 0.982003 -1.64987 0
M  V30 54835 O 5350.57 1.48405 -2.24119 0
M  V30 54836 C 5348.84 -0.654324 -3.51359 0
M  V30 54837 S 5350.4 -0.351179 -4.37392 0
M  V30 54838 H 5347.22 -0.165633 -0.691438 0
M  V30 54839 H 5349.82 -1.08788 -1.62436 0
M  V30 54840 H 5348.52 -1.68886 -3.7404 0
M  V30 54841 H 5348.06 0.00740619 -3.93399 0
M  V30 54842 H 5350.07 0.829126 -4.89224 0
M  V30 54843 N 5349.24 1.45934 -0.595055 0
M  V30 54844 C 5350.15 2.34221 0.133243 0
M  V30 54845 C 5351.17 1.50494 0.873354 0
M  V30 54846 O 5352.35 1.83331 0.833764 0
M  V30 54847 C 5349.41 3.279 1.12617 0
M  V30 54848 C 5348.47 4.2753 0.389381 0
M  V30 54849 C 5347.7 5.16733 1.335 0
M  V30 54850 O 5347.93 5.09111 2.5722 0
M  V30 54851 O 5346.86 5.96026 0.838875 0
M  V30 54852 H 5350.69 2.97875 -0.591966 0
M  V30 54853 H 5348.27 1.45112 -0.35538 0
M  V30 54854 H 5350.15 3.8566 1.69837 0
M  V30 54855 H 5348.83 2.66827 1.83262 0
M  V30 54856 H 5347.74 3.73423 -0.224974 0
M  V30 54857 H 5349.07 4.91424 -0.276342 0
M  V30 54858 N 5350.72 0.33351 1.54031 0
M  V30 54859 C 5352 -0.320834 1.92951 0
M  V30 54860 C 5352.38 -1.69067 1.26411 0
M  V30 54861 O 5351.73 -2.24766 0.41139 0
M  V30 54862 C 5351.94 -0.403135 3.46664 0
M  V30 54863 C 5353.29 -0.658728 4.19459 0
M  V30 54864 O 5354.31 -0.485657 3.52874 0
M  V30 54865 O 5353.17 -0.993286 5.37398 0
M  V30 54866 H 5350.26 -0.18513 0.806012 0
M  V30 54867 H 5352.81 0.383953 1.65299 0
M  V30 54868 H 5351.58 0.558545 3.87293 0
M  V30 54869 H 5351.2 -1.15511 3.80451 0
M  V30 54870 N 5352.2 -1.57478 0.0618994 0
M  V30 54871 C 5353.15 -2.13349 -0.926554 0
M  V30 54872 C 5354.14 -1.06792 -1.31499 0
M  V30 54873 O 5355.35 -1.25186 -1.29339 0
M  V30 54874 H 5351.72 -0.682057 -0.316705 0
M  V30 54875 H 5353.69 -2.95281 -0.43032 0
M  V30 54876 C 5352.44 -2.70206 -2.18824 0
M  V30 54877 H 5351.77 -3.51866 -1.89817 0
M  V30 54878 H 5353.21 -3.12907 -2.86121 0
M  V30 54879 C 5351.67 -1.64491 -2.94014 0
M  V30 54880 O 5352.2 -1.06404 -3.87351 0
M  V30 54881 N 5350.4 -1.35758 -2.5694 0
M  V30 54882 H 5349.95 -1.83183 -1.81112 0
M  V30 54883 H 5349.91 -0.652577 -3.07553 0
M  V30 54884 N 5353.68 0.211579 -1.56173 0
M  V30 54885 C 5354.9 0.955259 -1.84091 0
M  V30 54886 C 5355.33 1.76751 -0.643469 0
M  V30 54887 O 5354.69 1.76655 0.40778 0
M  V30 54888 C 5354.73 1.84053 -3.10092 0
M  V30 54889 O 5353.84 2.9372 -2.89486 0
M  V30 54890 H 5353.18 0.269939 -0.606654 0
M  V30 54891 H 5355.71 0.221876 -2.03393 0
M  V30 54892 H 5355.72 2.2484 -3.40457 0
M  V30 54893 H 5354.39 1.24359 -3.96872 0
M  V30 54894 H 5352.97 2.56806 -2.70379 0
M  V30 54895 N 5355.16 1.50155 0.478672 0
M  V30 54896 C 5356.43 1.51278 1.23993 0
M  V30 54897 C 5356.81 0.253122 2.09577 0
M  V30 54898 O 5356.16 -0.763751 2.15358 0
M  V30 54899 C 5356.37 2.80431 2.07749 0
M  V30 54900 C 5357.72 3.30797 2.66193 0
M  V30 54901 O 5358.74 2.817 2.17998 0
M  V30 54902 O 5357.6 4.16362 3.53984 0
M  V30 54903 H 5354.7 0.606457 0.562262 0
M  V30 54904 H 5357.24 1.62438 0.491113 0
M  V30 54905 H 5356.01 3.63589 1.44633 0
M  V30 54906 H 5355.64 2.72238 2.8978 0
M  V30 54907 N 5356.63 -0.731319 1.39605 0
M  V30 54908 C 5357.54 -1.87574 1.40901 0
M  V30 54909 C 5358.56 -1.71335 0.303379 0
M  V30 54910 O 5359.74 -1.93873 0.545445 0
M  V30 54911 C 5356.8 -3.23206 1.25453 0
M  V30 54912 C 5355.86 -3.51813 2.46021 0
M  V30 54913 C 5355.1 -4.80974 2.31301 0
M  V30 54914 O 5355.32 -5.54954 1.31844 0
M  V30 54915 O 5354.25 -5.09562 3.20359 0
M  V30 54916 H 5358.08 -1.89436 2.37377 0
M  V30 54917 H 5355.66 -0.879632 1.20759 0
M  V30 54918 H 5357.55 -4.04253 1.18986 0
M  V30 54919 H 5356.22 -3.22107 0.32075 0
M  V30 54920 H 5355.13 -2.70838 2.58065 0
M  V30 54921 H 5356.46 -3.57695 3.38105 0
M  V30 54922 N 5358.11 -1.24841 -0.961894 0
M  V30 54923 C 5359.39 -0.999449 -1.68138 0
M  V30 54924 C 5359.77 0.476515 -2.05652 0
M  V30 54925 O 5359.12 1.45218 -1.7642 0
M  V30 54926 C 5359.33 -1.92807 -2.90906 0
M  V30 54927 C 5360.68 -2.20232 -3.63019 0
M  V30 54928 O 5361.7 -1.90507 -3.00974 0
M  V30 54929 O 5360.56 -2.70742 -4.74722 0
M  V30 54930 H 5357.65 -0.378445 -0.735329 0
M  V30 54931 H 5360.2 -1.35965 -1.01547 0
M  V30 54932 H 5358.97 -2.92501 -2.59921 0
M  V30 54933 H 5358.59 -1.5714 -3.6523 0
M  V30 54934 N 5359.59 1.16344 -1.0631 0
M  V30 54935 C 5360.82 1.9132 -0.800703 0
M  V30 54936 C 5361.24 1.76912 0.639043 0
M  V30 54937 O 5360.6 1.09455 1.44532 0
M  V30 54938 C 5360.65 3.40034 -1.20039 0
M  V30 54939 O 5359.75 4.11002 -0.339287 0
M  V30 54940 H 5359.09 0.596047 -0.292616 0
M  V30 54941 H 5361.62 1.47401 -1.41894 0
M  V30 54942 H 5361.63 3.90804 -1.17202 0
M  V30 54943 H 5360.31 3.4984 -2.2491 0
M  V30 54944 H 5358.88 3.70421 -0.42924 0
M  V30 54945 N 5361.07 0.845705 1.32987 0
M  V30 54946 C 5362.29 0.457506 2.02291 0
M  V30 54947 C 5362.72 -0.935577 1.63183 0
M  V30 54948 O 5362.08 -1.61294 0.827892 0
M  V30 54949 C 5362.12 0.59379 3.55678 0
M  V30 54950 O 5361.23 -0.377146 4.10672 0
M  V30 54951 H 5360.57 0.185044 0.637695 0
M  V30 54952 H 5363.1 1.14243 1.69734 0
M  V30 54953 H 5363.11 0.477976 4.05191 0
M  V30 54954 H 5361.78 1.6097 3.83486 0
M  V30 54955 H 5360.36 -0.218317 3.7226 0
M  V30 54956 N 5362.55 -1.45617 0.602786 0
M  V30 54957 C 5363.5 -2.27569 -0.140184 0
M  V30 54958 C 5364.48 -1.37043 -0.843092 0
M  V30 54959 O 5365.67 -1.61069 -0.733874 0
M  V30 54960 C 5362.8 -3.23816 -1.14008 0
M  V30 54961 C 5361.89 -4.21829 -0.438257 0
M  V30 54962 N 5362.28 -5.03146 0.517422 0
M  V30 54963 C 5360.58 -4.40686 -0.686433 0
M  V30 54964 C 5361.28 -5.74226 0.929493 0
M  V30 54965 N 5360.25 -5.42908 0.274276 0
M  V30 54966 H 5364.06 -2.87837 0.593901 0
M  V30 54967 H 5361.57 -1.56711 0.426088 0
M  V30 54968 H 5363.57 -3.81256 -1.68671 0
M  V30 54969 H 5362.23 -2.65108 -1.87477 0
M  V30 54970 H 5363.24 -5.10127 0.893938 0
M  V30 54971 H 5359.91 -3.93107 -1.40617 0
M  V30 54972 H 5361.3 -6.4958 1.71743 0
M  V30 54973 N 5364.02 -0.341674 -1.53852 0
M  V30 54974 C 5365.26 0.255782 -2.02793 0
M  V30 54975 C 5365.63 1.47917 -1.22412 0
M  V30 54976 O 5366.83 2.15068 -1.61243 0
M  V30 54977 C 5365.1 0.563993 -3.52922 0
M  V30 54978 S 5366.66 1.13853 -4.23772 0
M  V30 54979 H 5363.48 0.0762618 -0.706898 0
M  V30 54980 H 5366.08 -0.479001 -1.89541 0
M  V30 54981 H 5364.78 -0.334242 -4.09037 0
M  V30 54982 H 5364.31 1.32849 -3.7029 0
M  V30 54983 H 5366.33 2.42436 -4.32943 0
M  V30 54984 N 5365.5 1.57443 -0.07025 0
M  V30 54985 C 5366.47 2.11515 0.882848 0
M  V30 54986 C 5367.47 1.03883 1.22739 0
M  V30 54987 O 5368.66 1.29878 1.16092 0
M  V30 54988 C 5365.79 2.61521 2.18676 0
M  V30 54989 H 5366.98 2.97032 0.413769 0
M  V30 54990 H 5364.53 1.55278 0.178434 0
M  V30 54991 H 5365.27 1.79453 2.70124 0
M  V30 54992 H 5365.05 3.40192 1.94966 0
M  V30 54993 H 5366.54 3.03436 2.86909 0
M  V30 54994 N 5366.98 -0.203294 1.56283 0
M  V30 54995 C 5368.21 -0.945483 1.84595 0
M  V30 54996 C 5368.63 -1.76408 0.652834 0
M  V30 54997 O 5367.99 -1.76868 -0.398406 0
M  V30 54998 C 5368.04 -1.82405 3.11064 0
M  V30 54999 O 5367.14 -2.92181 2.9104 0
M  V30 55000 H 5366.48 -0.266718 0.608077 0
M  V30 55001 H 5369.01 -0.211086 2.03508 0
M  V30 55002 H 5369.02 -2.23032 3.41644 0
M  V30 55003 H 5367.7 -1.22253 3.97526 0
M  V30 55004 H 5366.27 -2.55369 2.71737 0
M  V30 55005 N 5368.46 -1.50407 -0.470702 0
M  V30 55006 C 5369.88 -1.37841 -0.804486 0
M  V30 55007 C 5370.08 -0.434813 -1.96753 0
M  V30 55008 O 5369.13 0.122418 -2.52203 0
M  V30 55009 C 5370.44 -2.79216 -1.11619 0
M  V30 55010 C 5371.99 -2.88134 -1.22262 0
M  V30 55011 C 5372.47 -4.30343 -1.56745 0
M  V30 55012 N 5373.96 -4.33295 -1.63736 0
M  V30 55013 C 5374.69 -5.40327 -1.91923 0
M  V30 55014 N 5374.19 -6.57565 -2.18127 0
M  V30 55015 N 5375.98 -5.27771 -1.93428 0
M  V30 55016 H 5368.13 -2.10331 0.295763 0
M  V30 55017 H 5370.4 -0.945426 0.0698065 0
M  V30 55018 H 5370.1 -3.50104 -0.334655 0
M  V30 55019 H 5369.98 -3.16482 -2.05229 0
M  V30 55020 H 5372.36 -2.17464 -1.99483 0
M  V30 55021 H 5372.44 -2.5441 -0.26631 0
M  V30 55022 H 5372.09 -5.0155 -0.800641 0
M  V30 55023 H 5372.02 -4.61554 -2.53527 0
M  V30 55024 H 5374.51 -3.48757 -1.45523 0
M  V30 55025 H 5374.82 -7.34943 -2.3891 0
M  V30 55026 H 5373.17 -6.60739 -2.15519 0
M  V30 55027 H 5376.36 -4.35176 -1.72453 0
M  V30 55028 H 5376.53 -6.11272 -2.15059 0
M  V30 55029 N 5369.94 0.723905 -1.39991 0
M  V30 55030 C 5371.17 1.51308 -1.41115 0
M  V30 55031 C 5371.58 1.88798 -0.0085997 0
M  V30 55032 O 5370.94 1.54871 0.965461 0
M  V30 55033 C 5370.99 2.79367 -2.29426 0
M  V30 55034 O 5370.71 2.43466 -3.6422 0
M  V30 55035 C 5372.21 3.73321 -2.39053 0
M  V30 55036 H 5369.43 0.467223 -0.481605 0
M  V30 55037 H 5371.97 0.89363 -1.83942 0
M  V30 55038 H 5370.13 3.37617 -1.89983 0
M  V30 55039 H 5370.54 3.25806 -4.11036 0
M  V30 55040 H 5372.02 4.6004 -3.05069 0
M  V30 55041 H 5372.49 4.15849 -1.41303 0
M  V30 55042 H 5373.1 3.20986 -2.79012 0
M  V30 55043 N 5371.42 1.2535 0.95526 0
M  V30 55044 C 5372.66 1.11265 1.71463 0
M  V30 55045 C 5373.02 -0.340693 1.88953 0
M  V30 55046 O 5374.22 -0.603348 2.61941 0
M  V30 55047 C 5372.49 1.84552 3.06064 0
M  V30 55048 S 5374.05 1.86351 3.97264 0
M  V30 55049 H 5370.87 0.397704 0.589366 0
M  V30 55050 H 5373.47 1.58865 1.1394 0
M  V30 55051 H 5372.17 2.89387 2.91004 0
M  V30 55052 H 5371.71 1.37336 3.68649 0
M  V30 55053 H 5373.72 0.940096 4.87213 0
M  V30 55054 N 5372.89 -1.15778 1.06926 0
M  V30 55055 C 5374.31 -1.38451 0.793945 0
M  V30 55056 C 5374.51 -1.92241 -0.603807 0
M  V30 55057 O 5373.57 -2.12535 -1.36328 0
M  V30 55058 C 5374.88 -2.35944 1.86416 0
M  V30 55059 C 5376.43 -2.49615 1.88842 0
M  V30 55060 C 5376.9 -3.50396 2.94935 0
M  V30 55061 N 5378.39 -3.57928 2.9401 0
M  V30 55062 C 5379.13 -4.35715 3.72746 0
M  V30 55063 N 5378.62 -5.16872 4.61319 0
M  V30 55064 N 5380.42 -4.30761 3.61111 0
M  V30 55065 H 5372.57 -0.792032 1.9708 0
M  V30 55066 H 5374.83 -0.410749 0.854394 0
M  V30 55067 H 5374.54 -2.03527 2.86827 0
M  V30 55068 H 5374.41 -3.35671 1.72061 0
M  V30 55069 H 5376.8 -2.81332 0.890858 0
M  V30 55070 H 5376.88 -1.49902 2.07275 0
M  V30 55071 H 5376.52 -3.19415 3.94888 0
M  V30 55072 H 5376.45 -4.49854 2.7375 0
M  V30 55073 H 5378.94 -2.99999 2.29802 0
M  V30 55074 H 5379.26 -5.73459 5.18039 0
M  V30 55075 H 5377.6 -5.16193 4.65371 0
M  V30 55076 H 5380.79 -3.66422 2.91295 0
M  V30 55077 H 5380.97 -4.91136 4.22716 0
M  V30 55078 N 5374.37 -0.852746 -1.32537 0
M  V30 55079 C 5375.78 -0.510075 -1.79597 0
M  V30 55080 C 5376.13 0.971942 -1.70434 0
M  V30 55081 O 5375.26 1.75806 -1.26179 0
M  V30 55082 C 5375.85 -0.919101 -3.26095 0
M  V30 55083 C 5374.41 -0.628357 -3.71118 0
M  V30 55084 C 5373.56 -1.11988 -2.53681 0
M  V30 55085 H 5376.51 -1.04013 -1.19862 0
M  V30 55086 H 5376.53 -0.23471 -3.79775 0
M  V30 55087 H 5376.04 -1.99777 -3.32732 0
M  V30 55088 H 5374.14 0.43967 -3.69997 0
M  V30 55089 H 5374.26 -1.19331 -4.64001 0
M  V30 55090 H 5372.62 -0.54022 -2.48905 0
M  V30 55091 H 5373.4 -2.20562 -2.63073 0
M  V30 55092 N 5375.85 1.45295 -0.6105 0
M  V30 55093 C 5377.1 2.01819 -0.106619 0
M  V30 55094 C 5377.42 1.48107 1.26844 0
M  V30 55095 O 5376.69 0.676476 1.83849 0
M  V30 55096 H 5375.27 0.746111 -0.0364244 0
M  V30 55097 H 5377.93 1.78058 -0.792554 0
M  V30 55098 H 5377.03 3.12045 -0.0586097 0
M  V30 55099 N 5377.33 0.349828 1.53668 0
M  V30 55100 C 5378.26 -0.538497 2.22784 0
M  V30 55101 C 5379.27 -1.05892 1.23656 0
M  V30 55102 O 5380.46 -0.967992 1.49974 0
M  V30 55103 C 5377.56 -1.75449 2.8995 0
M  V30 55104 C 5376.73 -1.36829 4.15448 0
M  V30 55105 C 5375.79 -2.44463 4.65966 0
M  V30 55106 O 5374.82 -2.07509 5.30027 0
M  V30 55107 N 5376.02 -3.75814 4.4243 0
M  V30 55108 H 5378.79 0.0534534 2.99652 0
M  V30 55109 H 5376.35 0.174249 1.6096 0
M  V30 55110 H 5378.34 -2.469 3.20659 0
M  V30 55111 H 5376.91 -2.25367 2.1663 0
M  V30 55112 H 5376.13 -0.484284 3.91214 0
M  V30 55113 H 5377.42 -1.08632 4.97068 0
M  V30 55114 H 5376.82 -4.08621 3.9121 0
M  V30 55115 H 5375.37 -4.43416 4.7773 0
M  V30 55116 N 5378.81 -1.57404 0.0785986 0
M  V30 55117 C 5380.05 -1.93746 -0.588956 0
M  V30 55118 C 5380.38 -0.959147 -1.69206 0
M  V30 55119 O 5379.64 0.0240916 -1.95685 0
M  V30 55120 C 5379.93 -3.36689 -1.19898 0
M  V30 55121 C 5379.6 -4.50356 -0.221335 0
M  V30 55122 C 5378.26 -4.81176 0.0476039 0
M  V30 55123 C 5380.61 -5.19279 0.447124 0
M  V30 55124 C 5377.94 -5.78253 0.991974 0
M  V30 55125 C 5380.29 -6.17368 1.37986 0
M  V30 55126 C 5378.96 -6.46601 1.6572 0
M  V30 55127 H 5378.23 -0.708967 -0.215514 0
M  V30 55128 H 5380.88 -1.90904 0.150923 0
M  V30 55129 H 5379.18 -3.36029 -2.01474 0
M  V30 55130 H 5380.88 -3.62101 -1.7229 0
M  V30 55131 H 5377.47 -4.26324 -0.441134 0
M  V30 55132 H 5381.65 -4.95657 0.252472 0
M  V30 55133 H 5376.91 -5.99226 1.21402 0
M  V30 55134 H 5381.08 -6.69874 1.90374 0
M  V30 55135 H 5378.71 -7.21634 2.39056 0
M  V30 55136 N 5380.28 0.195003 -1.56389 0
M  V30 55137 C 5381.7 0.545842 -1.49976 0
M  V30 55138 C 5381.9 1.85848 -0.778634 0
M  V30 55139 O 5380.96 2.50345 -0.329193 0
M  V30 55140 C 5382.27 0.600495 -2.94643 0
M  V30 55141 C 5383.82 0.689321 -3.05315 0
M  V30 55142 C 5384.29 0.775084 -4.51394 0
M  V30 55143 N 5385.78 0.838609 -4.55545 0
M  V30 55144 C 5386.52 0.925138 -5.65888 0
M  V30 55145 N 5386.01 0.973963 -6.8592 0
M  V30 55146 N 5387.81 0.962333 -5.53801 0
M  V30 55147 H 5379.96 -0.66602 -2.01688 0
M  V30 55148 H 5382.22 -0.237247 -0.917833 0
M  V30 55149 H 5381.93 -0.294903 -3.50461 0
M  V30 55150 H 5381.8 1.45515 -3.48002 0
M  V30 55151 H 5384.19 1.57515 -2.49546 0
M  V30 55152 H 5384.27 -0.191541 -2.55082 0
M  V30 55153 H 5383.91 -0.106393 -5.07789 0
M  V30 55154 H 5383.84 1.67175 -4.9936 0
M  V30 55155 H 5386.33 0.810119 -3.69114 0
M  V30 55156 H 5386.65 1.0405 -7.65763 0
M  V30 55157 H 5384.99 0.942639 -6.88578 0
M  V30 55158 H 5388.18 0.921027 -4.5895 0
M  V30 55159 H 5388.36 1.02631 -6.39821 0
M  V30 55160 N 5381.76 1.50654 0.462719 0
M  V30 55161 C 5383 1.63705 1.22393 0
M  V30 55162 C 5383.37 0.333913 1.89074 0
M  V30 55163 O 5384.57 0.339931 2.66642 0
M  V30 55164 C 5382.84 2.79026 2.23337 0
M  V30 55165 S 5384.4 3.12259 3.08285 0
M  V30 55166 H 5381.22 0.577013 0.415424 0
M  V30 55167 H 5383.82 1.8847 0.519565 0
M  V30 55168 H 5382.52 3.7218 1.72945 0
M  V30 55169 H 5382.05 2.56372 2.9839 0
M  V30 55170 H 5384.07 2.5673 4.24622 0
M  V30 55171 N 5383.24 -0.716471 1.40373 0
M  V30 55172 C 5384.2 -1.81227 1.4032 0
M  V30 55173 C 5385.2 -1.58031 0.297142 0
M  V30 55174 O 5386.39 -1.65089 0.556002 0
M  V30 55175 C 5383.53 -3.19304 1.19407 0
M  V30 55176 H 5384.72 -1.82672 2.37846 0
M  V30 55177 H 5382.27 -0.922018 1.26208 0
M  V30 55178 H 5383.01 -3.23509 0.226366 0
M  V30 55179 H 5382.79 -3.37539 1.99523 0
M  V30 55180 H 5384.28 -3.99334 1.22155 0
M  V30 55181 N 5384.72 -1.25855 -0.948599 0
M  V30 55182 C 5385.67 -1.06566 -2.06752 0
M  V30 55183 C 5386.66 0.00522676 -1.69399 0
M  V30 55184 O 5387.87 -0.150869 -1.79367 0
M  V30 55185 H 5384.24 -0.327713 -0.676837 0
M  V30 55186 H 5386.21 -2.01409 -2.20175 0
M  V30 55187 C 5384.96 -0.707512 -3.40426 0
M  V30 55188 H 5384.28 -1.52337 -3.69639 0
M  V30 55189 H 5385.72 -0.612289 -4.19556 0
M  V30 55190 C 5384.18 0.586854 -3.31749 0
M  V30 55191 O 5384.71 1.62728 -3.67264 0
M  V30 55192 N 5382.92 0.574728 -2.8486 0
M  V30 55193 H 5382.47 -0.272326 -2.56156 0
M  V30 55194 H 5382.42 1.44091 -2.79437 0
M  V30 55195 N 5386.2 1.1521 -1.07538 0
M  V30 55196 C 5387.44 1.85673 -0.798115 0
M  V30 55197 C 5387.77 1.82839 0.677854 0
M  V30 55198 O 5387.04 1.27064 1.49102 0
M  V30 55199 H 5385.62 0.687458 -0.292251 0
M  V30 55200 H 5388.28 1.39653 -1.35952 0
M  V30 55201 H 5387.37 2.90756 -1.13433 0
M  V30 55202 N 5387.67 0.859763 1.32083 0
M  V30 55203 C 5389.09 0.550303 1.49813 0
M  V30 55204 C 5389.29 -0.917903 1.79379 0
M  V30 55205 O 5388.35 -1.70066 1.86638 0
M  V30 55206 C 5389.66 1.4417 2.63885 0
M  V30 55207 C 5391.21 1.44267 2.7777 0
M  V30 55208 C 5391.68 2.3194 3.94928 0
M  V30 55209 N 5393.17 2.29764 4.02198 0
M  V30 55210 C 5393.91 2.94327 4.92097 0
M  V30 55211 N 5393.4 3.68022 5.86968 0
M  V30 55212 N 5395.2 2.83688 4.8526 0
M  V30 55213 H 5387.35 1.80991 1.11158 0
M  V30 55214 H 5389.61 0.773332 0.548326 0
M  V30 55215 H 5389.32 2.48597 2.48782 0
M  V30 55216 H 5389.19 1.1328 3.59788 0
M  V30 55217 H 5391.58 0.406026 2.92293 0
M  V30 55218 H 5391.66 1.79175 1.82565 0
M  V30 55219 H 5391.3 3.35675 3.81162 0
M  V30 55220 H 5391.23 1.94362 4.89419 0
M  V30 55221 H 5393.72 1.76189 3.34314 0
M  V30 55222 H 5394.04 4.1444 6.52273 0
M  V30 55223 H 5392.38 3.7213 5.86979 0
M  V30 55224 H 5395.57 2.25662 4.10115 0
M  V30 55225 H 5395.75 3.34286 5.55119 0
M  V30 55226 N 5389.15 -1.44969 0.618196 0
M  V30 55227 C 5390.39 -2.04043 0.120696 0
M  V30 55228 C 5390.76 -1.47477 -1.22942 0
M  V30 55229 O 5391.96 -1.97971 -1.81827 0
M  V30 55230 C 5390.23 -3.57278 0.0932119 0
M  V30 55231 S 5391.79 -4.37469 -0.341552 0
M  V30 55232 H 5388.61 -0.708889 0.0547521 0
M  V30 55233 H 5391.21 -1.77533 0.818683 0
M  V30 55234 H 5389.91 -3.95957 1.07917 0
M  V30 55235 H 5389.44 -3.8838 -0.626433 0
M  V30 55236 H 5391.46 -4.70079 -1.58872 0
M  V30 55237 N 5390.63 -0.357973 -1.53481 0
M  V30 55238 C 5391.88 0.235171 -2.00324 0
M  V30 55239 C 5392.19 1.50489 -1.24949 0
M  V30 55240 O 5393.4 2.17617 -1.62342 0
M  V30 55241 C 5391.85 0.469623 -3.56823 0
M  V30 55242 C 5391.46 -0.785032 -4.41068 0
M  V30 55243 C 5393.21 1.02084 -4.12043 0
M  V30 55244 C 5391.11 -0.520584 -5.89104 0
M  V30 55245 H 5390.04 0.0916553 -0.748409 0
M  V30 55246 H 5392.69 -0.475536 -1.77231 0
M  V30 55247 H 5391.08 1.2414 -3.76039 0
M  V30 55248 H 5392.25 -1.55902 -4.33626 0
M  V30 55249 H 5390.57 -1.25892 -3.96913 0
M  V30 55250 H 5393.16 1.23388 -5.20269 0
M  V30 55251 H 5393.51 1.98071 -3.66161 0
M  V30 55252 H 5394.04 0.309415 -3.96595 0
M  V30 55253 H 5390.78 -1.45057 -6.39248 0
M  V30 55254 H 5390.3 0.215043 -5.99414 0
M  V30 55255 H 5391.98 -0.143233 -6.46841 0
M  V30 55256 N 5392.11 1.5736 -0.086945 0
M  V30 55257 C 5393.52 1.81358 0.443435 0
M  V30 55258 C 5393.87 1.00198 1.68685 0
M  V30 55259 O 5393 0.228939 2.15186 0
M  V30 55260 C 5393.59 3.28944 0.811271 0
M  V30 55261 C 5392.15 3.53734 1.28644 0
M  V30 55262 C 5391.3 2.75892 0.279056 0
M  V30 55263 H 5394.25 1.55593 -0.312482 0
M  V30 55264 H 5394.27 3.41821 1.67148 0
M  V30 55265 H 5393.78 3.87986 -0.0938962 0
M  V30 55266 H 5391.88 3.00013 2.20959 0
M  V30 55267 H 5391.99 4.624 1.2539 0
M  V30 55268 H 5390.36 2.43112 0.759509 0
M  V30 55269 H 5391.14 3.3768 -0.618648 0
M  V30 55270 N 5393.59 -0.186707 1.5649 0
M  V30 55271 C 5394.52 -1.25559 1.91749 0
M  V30 55272 C 5395.53 -1.41277 0.80899 0
M  V30 55273 O 5396.72 -1.41554 1.08742 0
M  V30 55274 C 5393.82 -2.62654 2.14163 0
M  V30 55275 C 5392.99 -2.68436 3.45342 0
M  V30 55276 C 5392.05 -3.86786 3.56768 0
M  V30 55277 O 5391.08 -3.73499 4.2952 0
M  V30 55278 N 5392.28 -5.02597 2.90476 0
M  V30 55279 H 5395.05 -0.956251 2.84035 0
M  V30 55280 H 5392.61 -0.376575 1.5746 0
M  V30 55281 H 5394.6 -3.40269 2.19087 0
M  V30 55282 H 5393.17 -2.85042 1.28336 0
M  V30 55283 H 5392.39 -1.77032 3.52212 0
M  V30 55284 H 5393.68 -2.69296 4.31691 0
M  V30 55285 H 5393.07 -5.16292 2.31212 0
M  V30 55286 H 5391.63 -5.78129 3.01016 0
M  V30 55287 N 5395.07 -1.50897 -0.454723 0
M  V30 55288 C 5396.03 -1.70382 -1.53306 0
M  V30 55289 C 5397.03 -0.574132 -1.50201 0
M  V30 55290 O 5398.22 -0.841428 -1.52531 0
M  V30 55291 C 5395.35 -1.74422 -2.92899 0
M  V30 55292 H 5396.54 -2.66604 -1.3734 0
M  V30 55293 H 5394.1 -1.40625 -0.68223 0
M  V30 55294 H 5394.83 -0.799519 -3.1429 0
M  V30 55295 H 5394.62 -2.56506 -2.96559 0
M  V30 55296 H 5396.11 -1.91395 -3.71157 0
M  V30 55297 N 5396.54 0.709016 -1.40751 0
M  V30 55298 C 5397.79 1.46988 -1.40592 0
M  V30 55299 C 5398.14 1.92397 -0.00993064 0
M  V30 55300 O 5397.44 1.65715 0.961714 0
M  V30 55301 C 5397.63 2.70534 -2.33551 0
M  V30 55302 C 5397.46 2.37209 -3.8205 0
M  V30 55303 C 5396.23 2.28228 -4.50821 0
M  V30 55304 C 5398.43 2.01052 -4.73374 0
M  V30 55305 N 5396.41 1.87647 -5.84519 0
M  V30 55306 C 5397.78 1.71123 -5.95917 0
M  V30 55307 C 5399.84 1.87745 -4.61147 0
M  V30 55308 C 5398.54 1.29225 -7.07597 0
M  V30 55309 C 5400.57 1.47251 -5.72775 0
M  V30 55310 C 5399.93 1.18224 -6.94408 0
M  V30 55311 H 5396.03 0.535688 -0.569704 0
M  V30 55312 H 5398.61 0.821607 -1.76515 0
M  V30 55313 H 5396.78 3.33102 -1.99744 0
M  V30 55314 H 5398.51 3.36919 -2.24204 0
M  V30 55315 H 5395.27 2.46185 -4.04586 0
M  V30 55316 H 5395.69 1.69876 -6.55341 0
M  V30 55317 H 5400.33 2.08845 -3.67619 0
M  V30 55318 H 5398.05 1.06868 -8.01002 0
M  V30 55319 H 5401.64 1.37524 -5.65313 0
M  V30 55320 H 5400.52 0.873623 -7.79319 0
M  V30 55321 N 5398.02 1.26356 0.941911 0
M  V30 55322 C 5398.97 1.07849 2.04052 0
M  V30 55323 C 5399.94 -0.016248 1.66092 0
M  V30 55324 O 5401.12 0.14338 1.90261 0
M  V30 55325 C 5398.26 0.716755 3.37575 0
M  V30 55326 C 5397.38 1.88767 3.88575 0
M  V30 55327 C 5396.51 1.46911 5.10481 0
M  V30 55328 C 5395.55 2.60838 5.53742 0
M  V30 55329 N 5394.69 2.19669 6.66851 0
M  V30 55330 H 5399.53 2.01864 2.19214 0
M  V30 55331 H 5397.06 1.00508 1.07409 0
M  V30 55332 H 5399.02 0.487914 4.14337 0
M  V30 55333 H 5397.65 -0.186417 3.22261 0
M  V30 55334 H 5396.7 2.22947 3.08219 0
M  V30 55335 H 5398.02 2.74279 4.1662 0
M  V30 55336 H 5397.17 1.20068 5.947 0
M  V30 55337 H 5395.91 0.584891 4.8418 0
M  V30 55338 H 5394.91 2.88412 4.68079 0
M  V30 55339 H 5396.14 3.49859 5.82044 0
M  V30 55340 H 5394.09 1.3368 6.42235 0
M  V30 55341 H 5394 2.98724 6.94478 0
M  V30 55342 H 5395.27 1.96035 7.54447 0
M  V30 55343 N 5399.5 -1.14638 1.08148 0
M  V30 55344 C 5400.74 -1.87274 0.819018 0
M  V30 55345 C 5401.1 -1.80898 -0.643418 0
M  V30 55346 O 5402.3 -2.48644 -1.02126 0
M  V30 55347 C 5400.58 -3.32001 1.32326 0
M  V30 55348 S 5402.13 -4.22279 1.19271 0
M  V30 55349 H 5398.95 -0.646193 0.296572 0
M  V30 55350 H 5401.55 -1.38257 1.38222 0
M  V30 55351 H 5400.26 -3.34189 2.38214 0
M  V30 55352 H 5399.79 -3.86075 0.755616 0
M  V30 55353 H 5401.8 -4.96015 0.135317 0
M  V30 55354 N 5400.98 -0.866756 -1.31625 0
M  V30 55355 C 5402.25 -0.396895 -1.91531 0
M  V30 55356 C 5402.63 1.12074 -1.78893 0
M  V30 55357 O 5401.98 1.94787 -1.19459 0
M  V30 55358 C 5402.19 -0.874697 -3.37861 0
M  V30 55359 C 5403.54 -0.898946 -4.14975 0
M  V30 55360 O 5404.56 -0.820136 -3.4663 0
M  V30 55361 O 5403.42 -1.01241 -5.3704 0
M  V30 55362 H 5400.52 -0.118129 -0.81852 0
M  V30 55363 H 5403.06 -0.954456 -1.40315 0
M  V30 55364 H 5401.84 -1.91819 -3.41059 0
M  V30 55365 H 5401.46 -0.295266 -3.96502 0
M  V30 55366 N 5402.46 1.44639 -0.625876 0
M  V30 55367 C 5403.7 2.02393 -0.128462 0
M  V30 55368 C 5404.03 1.4908 1.24454 0
M  V30 55369 O 5403.31 0.672749 1.82495 0
M  V30 55370 C 5403.59 3.59934 -0.109406 0
M  V30 55371 C 5403.45 4.23541 -1.51438 0
M  V30 55372 C 5404.76 4.36408 0.568832 0
M  V30 55373 H 5401.88 0.735425 -0.0481557 0
M  V30 55374 H 5404.53 1.72274 -0.801346 0
M  V30 55375 H 5402.68 3.85724 0.46359 0
M  V30 55376 H 5404.35 4.08875 -2.13586 0
M  V30 55377 H 5402.59 3.81237 -2.06979 0
M  V30 55378 H 5403.26 5.3253 -1.45313 0
M  V30 55379 H 5405.74 4.1602 0.0816053 0
M  V30 55380 H 5404.61 5.46124 0.551335 0
M  V30 55381 H 5404.87 4.10626 1.63825 0
M  V30 55382 N 5403.93 0.366107 1.53289 0
M  V30 55383 C 5405.21 -0.279834 1.93588 0
M  V30 55384 C 5405.59 -1.66347 1.29969 0
M  V30 55385 O 5404.94 -2.23843 0.458973 0
M  V30 55386 C 5405.15 -0.329512 3.47441 0
M  V30 55387 C 5406.5 -0.569606 4.20762 0
M  V30 55388 O 5407.52 -0.410698 3.53824 0
M  V30 55389 O 5406.38 -0.879073 5.39384 0
M  V30 55390 H 5403.47 -0.167991 0.809758 0
M  V30 55391 H 5406.02 0.418929 1.64448 0
M  V30 55392 H 5404.79 0.64057 3.86021 0
M  V30 55393 H 5404.41 -1.07415 3.82816 0
M  V30 55394 N 5405.41 -1.57312 0.095289 0
M  V30 55395 C 5406.36 -2.15266 -0.881091 0
M  V30 55396 C 5407.35 -1.09557 -1.29204 0
M  V30 55397 O 5408.56 -1.27901 -1.26654 0
M  V30 55398 H 5404.93 -0.688621 -0.302167 0
M  V30 55399 H 5406.91 -2.96127 -0.36759 0
M  V30 55400 C 5405.65 -2.74787 -2.13044 0
M  V30 55401 H 5404.98 -3.55813 -1.82311 0
M  V30 55402 H 5406.42 -3.18905 -2.7942 0
M  V30 55403 C 5404.88 -1.70691 -2.90459 0
M  V30 55404 O 5405.41 -1.14596 -3.85007 0
M  V30 55405 N 5403.61 -1.41178 -2.54002 0
M  V30 55406 H 5403.16 -1.86984 -1.77186 0
M  V30 55407 H 5403.12 -0.717667 -3.061 0
M  V30 55408 N 5406.89 0.178405 -1.56587 0
M  V30 55409 C 5408.17 0.923036 -1.72451 0
M  V30 55410 C 5408.55 2.0069 -0.654729 0
M  V30 55411 O 5407.89 2.26081 0.33163 0
M  V30 55412 C 5408.1 1.49424 -3.15394 0
M  V30 55413 C 5409.45 1.96991 -3.76138 0
M  V30 55414 O 5410.48 1.59233 -3.18627 0
M  V30 55415 O 5409.34 2.66524 -4.77103 0
M  V30 55416 H 5406.43 0.433984 -0.703979 0
M  V30 55417 H 5408.98 0.16679 -1.68878 0
M  V30 55418 H 5407.75 0.713798 -3.84734 0
M  V30 55419 H 5407.37 2.31487 -3.23264 0
M  V30 55420 N 5408.37 1.51136 0.446714 0
M  V30 55421 C 5409.61 1.64994 1.2065 0
M  V30 55422 C 5409.97 0.353948 1.88709 0
M  V30 55423 O 5411.17 0.368193 2.66266 0
M  V30 55424 C 5409.44 2.81379 2.20365 0
M  V30 55425 S 5411 3.15511 3.04956 0
M  V30 55426 H 5407.82 0.581386 0.409281 0
M  V30 55427 H 5410.42 1.8901 0.499546 0
M  V30 55428 H 5409.13 3.73994 1.68988 0
M  V30 55429 H 5408.66 2.59523 2.95654 0
M  V30 55430 H 5410.67 2.6122 4.21875 0
M  V30 55431 N 5409.85 -0.701542 1.41125 0
M  V30 55432 C 5411.09 -1.45866 1.39884 0
M  V30 55433 C 5411.42 -1.94999 0.00675624 0
M  V30 55434 O 5410.69 -1.71301 -0.95041 0
M  V30 55435 H 5409.27 -0.541213 0.514876 0
M  V30 55436 H 5411.93 -0.830741 1.76309 0
M  V30 55437 H 5411.02 -2.32472 2.08238 0
M  V30 55438 N 5411.32 -1.26854 -0.935197 0
M  V30 55439 C 5412.6 -1.03489 -1.6598 0
M  V30 55440 C 5412.98 0.432786 -2.06616 0
M  V30 55441 O 5412.33 1.41443 -1.7946 0
M  V30 55442 C 5412.54 -1.98934 -2.86751 0
M  V30 55443 C 5413.89 -2.27883 -3.58266 0
M  V30 55444 O 5414.91 -1.96848 -2.96866 0
M  V30 55445 O 5413.77 -2.80751 -4.68872 0
M  V30 55446 H 5410.86 -0.393958 -0.727136 0
M  V30 55447 H 5413.41 -1.38088 -0.986397 0
M  V30 55448 H 5412.18 -2.97949 -2.53658 0
M  V30 55449 H 5411.81 -1.64851 -3.61815 0
M  V30 55450 N 5412.8 1.14063 -1.08754 0
M  V30 55451 C 5413.75 2.173 -0.690271 0
M  V30 55452 C 5414.74 1.5823 0.291893 0
M  V30 55453 O 5415.93 1.76698 0.103349 0
M  V30 55454 C 5413.06 3.4314 -0.104956 0
M  V30 55455 C 5412.14 4.09232 -1.11312 0
M  V30 55456 N 5412.53 4.50593 -2.29781 0
M  V30 55457 C 5410.83 4.35772 -0.949688 0
M  V30 55458 C 5411.53 5.02019 -2.93857 0
M  V30 55459 N 5410.51 4.96449 -2.21449 0
M  V30 55460 H 5414.31 2.47025 -1.59235 0
M  V30 55461 H 5411.83 1.30784 -0.962768 0
M  V30 55462 H 5413.82 4.16431 0.197631 0
M  V30 55463 H 5412.48 3.14891 0.792061 0
M  V30 55464 H 5413.49 4.4352 -2.67415 0
M  V30 55465 H 5410.17 4.17363 -0.106774 0
M  V30 55466 H 5411.56 5.43871 -3.9453 0
M  V30 55467 N 5414.28 0.873724 1.31163 0
M  V30 55468 C 5415.51 0.500312 2.01275 0
M  V30 55469 C 5415.93 -0.900753 1.6513 0
M  V30 55470 O 5415.29 -1.59501 0.861918 0
M  V30 55471 C 5415.34 0.669101 3.54338 0
M  V30 55472 O 5414.44 -0.289951 4.11379 0
M  V30 55473 H 5413.78 0.198529 0.633626 0
M  V30 55474 H 5416.31 1.17817 1.67273 0
M  V30 55475 H 5416.32 0.563816 4.04086 0
M  V30 55476 H 5415 1.69069 3.79985 0
M  V30 55477 H 5413.57 -0.139306 3.7264 0
M  V30 55478 N 5415.76 -1.44305 0.633538 0
M  V30 55479 C 5417.04 -1.95475 0.0697949 0
M  V30 55480 C 5417.42 -1.57544 -1.4051 0
M  V30 55481 O 5416.76 -0.850706 -2.12074 0
M  V30 55482 C 5416.97 -3.47749 0.295215 0
M  V30 55483 C 5418.32 -4.24176 0.189691 0
M  V30 55484 O 5419.35 -3.55478 0.226711 0
M  V30 55485 O 5418.2 -5.46414 0.0966711 0
M  V30 55486 H 5415.3 -0.826735 -0.0209291 0
M  V30 55487 H 5417.84 -1.54344 0.705409 0
M  V30 55488 H 5416.62 -3.68416 1.31854 0
M  V30 55489 H 5416.24 -3.95833 -0.374421 0
M  V30 55490 N 5417.24 -0.374231 -1.53092 0
M  V30 55491 C 5418.15 0.475854 -2.29723 0
M  V30 55492 C 5419.16 1.08495 -1.36033 0
M  V30 55493 O 5420.34 1.09402 -1.69095 0
M  V30 55494 C 5417.4 1.59562 -3.078 0
M  V30 55495 C 5416.46 1.01317 -4.17173 0
M  V30 55496 C 5415.7 2.07957 -4.91518 0
M  V30 55497 O 5415.92 3.29215 -4.65804 0
M  V30 55498 O 5414.85 1.7053 -5.77238 0
M  V30 55499 H 5418.68 -0.147984 -3.03339 0
M  V30 55500 H 5416.27 -0.138365 -1.48758 0
M  V30 55501 H 5418.15 2.24646 -3.56528 0
M  V30 55502 H 5416.82 2.2047 -2.37012 0
M  V30 55503 H 5415.73 0.326002 -3.72677 0
M  V30 55504 H 5417.06 0.448527 -4.90152 0
M  V30 55505 N 5418.71 1.57259 -0.10363 0
M  V30 55506 C 5420.13 1.81818 0.424175 0
M  V30 55507 C 5420.48 1.01982 1.67613 0
M  V30 55508 O 5419.6 0.251749 2.14931 0
M  V30 55509 C 5420.2 3.29785 0.776337 0
M  V30 55510 C 5418.76 3.55079 1.24885 0
M  V30 55511 C 5417.9 2.76173 0.249778 0
M  V30 55512 H 5420.85 1.55253 -0.328967 0
M  V30 55513 H 5420.87 3.43575 1.63513 0
M  V30 55514 H 5420.39 3.87865 -0.135042 0
M  V30 55515 H 5418.49 3.0234 2.17765 0
M  V30 55516 H 5418.6 4.63704 1.20479 0
M  V30 55517 H 5416.96 2.43904 0.733681 0
M  V30 55518 H 5417.75 3.37005 -0.654429 0
M  V30 55519 N 5420.19 -0.170098 1.56679 0
M  V30 55520 C 5421.44 -0.884839 1.81255 0
M  V30 55521 C 5421.75 -1.83359 0.681089 0
M  V30 55522 O 5422.96 -2.59079 0.811813 0
M  V30 55523 C 5421.42 -1.62397 3.21178 0
M  V30 55524 C 5421.02 -0.718791 4.42196 0
M  V30 55525 C 5422.77 -2.32686 3.55046 0
M  V30 55526 C 5420.68 -1.45822 5.7314 0
M  V30 55527 H 5419.61 -0.334156 0.675911 0
M  V30 55528 H 5422.26 -0.137754 1.82982 0
M  V30 55529 H 5420.64 -2.41585 3.13772 0
M  V30 55530 H 5421.81 0.0362141 4.60786 0
M  V30 55531 H 5420.13 -0.125488 4.16211 0
M  V30 55532 H 5422.72 -2.88605 4.50124 0
M  V30 55533 H 5423.07 -3.08082 2.79984 0
M  V30 55534 H 5423.6 -1.6044 3.64011 0
M  V30 55535 H 5420.34 -0.74657 6.51235 0
M  V30 55536 H 5419.86 -2.18652 5.58526 0
M  V30 55537 H 5421.54 -2.00538 6.15137 0
M  V30 55538 N 5421.67 -1.51371 -0.438693 0
M  V30 55539 C 5422.58 -1.75429 -1.55762 0
M  V30 55540 C 5423.6 -0.638466 -1.61863 0
M  V30 55541 O 5424.77 -0.920563 -1.7913 0
M  V30 55542 C 5421.84 -1.87298 -2.91754 0
M  V30 55543 C 5420.9 -3.11147 -2.9578 0
M  V30 55544 C 5420.13 -3.2244 -4.25286 0
M  V30 55545 O 5420.35 -2.39706 -5.17588 0
M  V30 55546 O 5419.29 -4.15408 -4.35568 0
M  V30 55547 H 5423.11 -2.70344 -1.38376 0
M  V30 55548 H 5420.7 -1.35856 -0.621562 0
M  V30 55549 H 5422.58 -1.97098 -3.72465 0
M  V30 55550 H 5421.26 -0.955707 -3.0927 0
M  V30 55551 H 5420.16 -3.06826 -2.14029 0
M  V30 55552 H 5421.5 -4.02559 -2.83208 0
M  V30 55553 N 5423.15 0.694048 -1.41495 0
M  V30 55554 C 5424.06 1.83773 -1.45824 0
M  V30 55555 C 5425.07 1.7047 -0.348699 0
M  V30 55556 O 5426.25 1.92359 -0.596655 0
M  V30 55557 C 5423.32 3.19767 -1.33979 0
M  V30 55558 C 5422.38 3.45167 -2.55262 0
M  V30 55559 C 5421.61 4.74672 -2.43971 0
M  V30 55560 O 5421.83 5.51263 -1.46511 0
M  V30 55561 O 5420.77 5.00889 -3.33757 0
M  V30 55562 H 5424.59 1.83076 -2.42316 0
M  V30 55563 H 5422.18 0.847306 -1.23049 0
M  V30 55564 H 5424.06 4.00956 -1.29662 0
M  V30 55565 H 5422.73 3.21143 -0.406039 0
M  V30 55566 H 5421.64 2.63901 -2.65155 0
M  V30 55567 H 5422.97 3.48605 -3.4747 0
M  V30 55568 N 5424.63 1.27348 0.928456 0
M  V30 55569 C 5425.87 1.14877 1.69064 0
M  V30 55570 C 5426.23 -0.300536 1.89633 0
M  V30 55571 O 5427.43 -0.547651 2.63162 0
M  V30 55572 C 5425.7 1.91003 3.02081 0
M  V30 55573 S 5427.26 1.94735 3.93222 0
M  V30 55574 H 5424.08 0.410115 0.580798 0
M  V30 55575 H 5426.68 1.61246 1.10544 0
M  V30 55576 H 5425.39 2.95494 2.848 0
M  V30 55577 H 5424.92 1.45125 3.65653 0
M  V30 55578 H 5426.93 1.04323 4.85109 0
M  V30 55579 N 5426.11 -1.13484 1.09357 0
M  V30 55580 C 5427.04 -2.17948 0.676297 0
M  V30 55581 C 5428.02 -1.59483 -0.31685 0
M  V30 55582 O 5429.2 -1.87231 -0.218393 0
M  V30 55583 C 5426.33 -3.387 -0.00379117 0
M  V30 55584 C 5425.37 -4.15761 0.951053 0
M  V30 55585 S 5426.21 -4.75509 2.46276 0
M  V30 55586 C 5427.36 -5.99607 1.79506 0
M  V30 55587 H 5427.6 -2.53007 1.56124 0
M  V30 55588 H 5425.13 -1.2477 0.909491 0
M  V30 55589 H 5427.09 -4.08644 -0.389876 0
M  V30 55590 H 5425.75 -3.01944 -0.865374 0
M  V30 55591 H 5424.94 -5.02228 0.422263 0
M  V30 55592 H 5424.54 -3.51469 1.2785 0
M  V30 55593 H 5426.83 -6.682 1.11869 0
M  V30 55594 H 5427.78 -6.57092 2.63885 0
M  V30 55595 H 5428.19 -5.5016 1.26428 0
M  V30 55596 N 5427.58 -0.880667 -1.30698 0
M  V30 55597 C 5428.81 -0.510979 -2.01007 0
M  V30 55598 C 5429.23 0.891983 -1.65606 0
M  V30 55599 O 5428.59 1.59042 -0.870365 0
M  V30 55600 C 5428.64 -0.687883 -3.53978 0
M  V30 55601 O 5427.74 0.268131 -4.11527 0
M  V30 55602 H 5427.08 -0.201887 -0.632564 0
M  V30 55603 H 5429.61 -1.18703 -1.66646 0
M  V30 55604 H 5429.62 -0.585237 -4.03781 0
M  V30 55605 H 5428.3 -1.71081 -3.79083 0
M  V30 55606 H 5426.88 0.119542 -3.72708 0
M  V30 55607 N 5429.06 1.43967 -0.641182 0
M  V30 55608 C 5430.29 2.06817 -0.15539 0
M  V30 55609 C 5430.71 1.47669 1.16513 0
M  V30 55610 O 5430.07 0.581981 1.71705 0
M  V30 55611 C 5430.12 3.60542 -0.0648804 0
M  V30 55612 O 5429.22 4.00677 0.976306 0
M  V30 55613 H 5428.56 0.657959 -0.0893636 0
M  V30 55614 H 5431.09 1.84675 -0.880704 0
M  V30 55615 H 5431.1 4.07816 0.122409 0
M  V30 55616 H 5429.78 4.02971 -1.02893 0
M  V30 55617 H 5428.35 3.65015 0.762777 0
M  V30 55618 N 5430.54 0.382345 1.52892 0
M  V30 55619 C 5431.5 -0.444001 2.24858 0
M  V30 55620 C 5432.5 -0.99596 1.26243 0
M  V30 55621 O 5433.69 -0.879061 1.50393 0
M  V30 55622 C 5430.82 -1.62223 2.99827 0
M  V30 55623 H 5432.02 0.185968 2.99323 0
M  V30 55624 H 5429.57 0.13433 1.55722 0
M  V30 55625 H 5430.31 -2.28982 2.29646 0
M  V30 55626 H 5430.09 -1.23323 3.72201 0
M  V30 55627 H 5431.58 -2.20743 3.54489 0
M  V30 55628 N 5432.02 -1.57202 0.111969 0
M  V30 55629 C 5432.97 -2.1149 -0.851823 0
M  V30 55630 C 5433.95 -1.03396 -1.2328 0
M  V30 55631 O 5435.14 -1.29642 -1.20507 0
M  V30 55632 C 5432.27 -2.71227 -2.10454 0
M  V30 55633 C 5431.36 -3.8639 -1.74824 0
M  V30 55634 N 5431.75 -4.93731 -1.09835 0
M  V30 55635 C 5430.05 -3.96442 -2.04327 0
M  V30 55636 C 5430.75 -5.74187 -0.931888 0
M  V30 55637 N 5429.72 -5.23776 -1.45464 0
M  V30 55638 H 5433.53 -2.9186 -0.345688 0
M  V30 55639 H 5431.04 -1.62146 -0.0907246 0
M  V30 55640 H 5433.04 -3.08459 -2.80462 0
M  V30 55641 H 5431.7 -1.92318 -2.61618 0
M  V30 55642 H 5432.71 -5.12246 -0.763154 0
M  V30 55643 H 5429.39 -3.28565 -2.57587 0
M  V30 55644 H 5430.78 -6.70572 -0.422306 0
M  V30 55645 N 5433.5 0.161787 -1.56767 0
M  V30 55646 C 5434.43 1.20218 -2.00174 0
M  V30 55647 C 5435.41 1.45637 -0.878858 0
M  V30 55648 O 5436.59 1.56809 -1.14562 0
M  V30 55649 C 5433.72 2.53888 -2.36977 0
M  V30 55650 C 5432.68 2.43021 -3.52314 0
M  V30 55651 C 5432 3.81267 -3.74886 0
M  V30 55652 C 5433.3 1.92683 -4.85459 0
M  V30 55653 H 5435 0.841319 -2.87336 0
M  V30 55654 H 5432.54 0.40326 -1.38238 0
M  V30 55655 H 5434.49 3.26884 -2.65942 0
M  V30 55656 H 5433.22 2.91782 -1.46735 0
M  V30 55657 H 5431.88 1.72479 -3.23491 0
M  V30 55658 H 5431.53 4.1657 -2.81919 0
M  V30 55659 H 5431.23 3.74861 -4.52496 0
M  V30 55660 H 5432.75 4.55834 -4.06261 0
M  V30 55661 H 5434.16 2.55459 -5.13238 0
M  V30 55662 H 5432.56 1.97202 -5.66773 0
M  V30 55663 H 5433.63 0.881649 -4.76818 0
M  V30 55664 N 5434.97 1.51602 0.430659 0
M  V30 55665 C 5436.21 1.66264 1.18894 0
M  V30 55666 C 5436.58 0.373943 1.88323 0
M  V30 55667 O 5437.78 0.396413 2.65861 0
M  V30 55668 C 5436.05 2.837 2.17368 0
M  V30 55669 S 5437.61 3.18728 3.01592 0
M  V30 55670 H 5434.43 0.585695 0.403091 0
M  V30 55671 H 5437.03 1.89529 0.479471 0
M  V30 55672 H 5435.73 3.75765 1.65011 0
M  V30 55673 H 5435.26 2.62644 2.92885 0
M  V30 55674 H 5437.28 2.6568 4.19081 0
M  V30 55675 N 5436.45 -0.686534 1.41861 0
M  V30 55676 C 5437.73 -1.44171 1.3219 0
M  V30 55677 C 5438.11 -2.11049 -0.0462878 0
M  V30 55678 O 5437.46 -2.02368 -1.0611 0
M  V30 55679 C 5437.67 -2.45376 2.48176 0
M  V30 55680 C 5439.01 -3.10365 2.89756 0
M  V30 55681 O 5440.04 -2.55702 2.47982 0
M  V30 55682 O 5438.9 -4.09391 3.62023 0
M  V30 55683 H 5435.99 -0.642495 0.5207 0
M  V30 55684 H 5438.54 -0.716249 1.53844 0
M  V30 55685 H 5437.31 -1.94675 3.39437 0
M  V30 55686 H 5436.93 -3.2542 2.28447 0
M  V30 55687 N 5437.93 -1.27838 -0.92169 0
M  V30 55688 C 5438.88 -1.10928 -2.04445 0
M  V30 55689 C 5439.87 -0.0307065 -1.69372 0
M  V30 55690 O 5441.08 -0.188881 -1.79006 0
M  V30 55691 H 5437.45 -0.341996 -0.669733 0
M  V30 55692 H 5439.42 -2.06034 -2.15853 0
M  V30 55693 C 5438.17 -0.779562 -3.38848 0
M  V30 55694 H 5437.5 -1.60144 -3.66325 0
M  V30 55695 H 5438.94 -0.701146 -4.18163 0
M  V30 55696 C 5437.39 0.516353 -3.3292 0
M  V30 55697 O 5437.92 1.54901 -3.70633 0
M  V30 55698 N 5436.13 0.514176 -2.86015 0
M  V30 55699 H 5435.68 -0.326599 -2.55521 0
M  V30 55700 H 5435.64 1.38131 -2.82431 0
M  V30 55701 N 5439.41 1.12903 -1.09958 0
M  V30 55702 C 5440.66 1.84303 -0.838977 0
M  V30 55703 C 5440.98 1.83827 0.635443 0
M  V30 55704 O 5440.24 1.27561 1.48414 0
M  V30 55705 C 5440.54 3.3188 -1.32628 0
M  V30 55706 C 5440.2 3.52532 -2.81126 0
M  V30 55707 C 5438.87 3.57876 -3.2168 0
M  V30 55708 C 5441.22 3.60052 -3.76845 0
M  V30 55709 C 5438.55 3.68279 -4.56713 0
M  V30 55710 C 5440.9 3.71983 -5.11675 0
M  V30 55711 C 5439.56 3.75582 -5.5181 0
M  V30 55712 H 5438.83 0.674411 -0.307003 0
M  V30 55713 H 5441.48 1.33257 -1.37532 0
M  V30 55714 H 5439.78 3.85316 -0.709855 0
M  V30 55715 H 5441.48 3.85584 -1.10119 0
M  V30 55716 H 5438.07 3.49031 -2.48747 0
M  V30 55717 H 5442.25 3.55197 -3.46625 0
M  V30 55718 H 5437.51 3.69335 -4.87239 0
M  V30 55719 H 5441.68 3.76745 -5.85693 0
M  V30 55720 H 5439.31 3.83396 -6.56439 0
M  V30 55721 N 5440.89 0.887586 1.30229 0
M  V30 55722 C 5442.11 0.522377 2.00197 0
M  V30 55723 C 5442.53 -0.889807 1.66517 0
M  V30 55724 O 5441.89 -1.58555 0.903695 0
M  V30 55725 C 5441.94 0.690676 3.54841 0
M  V30 55726 O 5441.66 2.04726 3.87322 0
M  V30 55727 C 5443.16 0.328805 4.42079 0
M  V30 55728 H 5440.38 0.20165 0.639983 0
M  V30 55729 H 5442.92 1.1936 1.66052 0
M  V30 55730 H 5441.08 0.0667855 3.87342 0
M  V30 55731 H 5441.49 2.06779 4.8202 0
M  V30 55732 H 5442.97 0.49745 5.49754 0
M  V30 55733 H 5443.44 -0.73335 4.33034 0
M  V30 55734 H 5444.05 0.929128 4.15027 0
M  V30 55735 N 5442.36 -1.43625 0.648807 0
M  V30 55736 C 5443.27 -2.34554 -0.0462212 0
M  V30 55737 C 5444.29 -1.53632 -0.816898 0
M  V30 55738 O 5445.47 -1.86299 -0.765147 0
M  V30 55739 C 5442.53 -3.31854 -1.00369 0
M  V30 55740 C 5441.59 -4.28681 -0.230438 0
M  V30 55741 C 5440.83 -5.21332 -1.1423 0
M  V30 55742 O 5441.05 -5.18307 -2.38148 0
M  V30 55743 O 5439.98 -5.98728 -0.617086 0
M  V30 55744 H 5443.81 -2.95473 0.702112 0
M  V30 55745 H 5441.39 -1.43693 0.408992 0
M  V30 55746 H 5443.28 -3.91697 -1.55407 0
M  V30 55747 H 5441.95 -2.73445 -1.73233 0
M  V30 55748 H 5440.86 -3.72331 0.363413 0
M  V30 55749 H 5442.19 -4.90059 0.45854 0
M  V30 55750 N 5443.84 -0.390448 -1.52687 0
M  V30 55751 C 5445.09 0.191374 -2.01594 0
M  V30 55752 C 5445.42 1.46719 -1.27686 0
M  V30 55753 O 5444.67 1.92246 -0.366039 0
M  V30 55754 C 5444.97 0.504555 -3.53821 0
M  V30 55755 C 5444.64 -0.679848 -4.45745 0
M  V30 55756 C 5443.3 -1.00477 -4.70593 0
M  V30 55757 C 5445.65 -1.47216 -4.99977 0
M  V30 55758 C 5442.98 -2.12353 -5.46922 0
M  V30 55759 C 5445.33 -2.58153 -5.77529 0
M  V30 55760 C 5444 -2.91152 -6.00655 0
M  V30 55761 H 5443.27 0.0700288 -0.737684 0
M  V30 55762 H 5445.91 -0.52803 -1.84076 0
M  V30 55763 H 5444.22 1.3053 -3.69417 0
M  V30 55764 H 5445.91 0.967387 -3.89156 0
M  V30 55765 H 5442.5 -0.416596 -4.26571 0
M  V30 55766 H 5446.69 -1.23437 -4.80705 0
M  V30 55767 H 5441.94 -2.38289 -5.63053 0
M  V30 55768 H 5446.12 -3.19947 -6.18552 0
M  V30 55769 H 5443.75 -3.77961 -6.59583 0
M  V30 55770 N 5445.32 1.5714 -0.120304 0
M  V30 55771 C 5446.55 2.00019 0.548384 0
M  V30 55772 C 5446.97 0.999489 1.59348 0
M  V30 55773 O 5446.33 -0.0286341 1.81277 0
M  V30 55774 C 5446.38 3.4177 1.15003 0
M  V30 55775 O 5445.48 3.44597 2.26554 0
M  V30 55776 H 5444.82 0.649744 0.136852 0
M  V30 55777 H 5447.35 2.03528 -0.209163 0
M  V30 55778 H 5447.36 3.80006 1.48524 0
M  V30 55779 H 5446.04 4.14119 0.384535 0
M  V30 55780 H 5444.61 3.18181 1.94462 0
M  V30 55781 N 5446.8 -0.153471 1.56851 0
M  V30 55782 C 5448.04 -0.873457 1.84797 0
M  V30 55783 C 5448.4 -1.78639 0.703711 0
M  V30 55784 O 5449.6 -2.54534 0.864062 0
M  V30 55785 C 5447.87 -1.63305 3.17909 0
M  V30 55786 S 5449.43 -2.39935 3.67392 0
M  V30 55787 H 5446.25 -0.29221 0.648177 0
M  V30 55788 H 5448.85 -0.13388 1.95041 0
M  V30 55789 H 5447.56 -0.953729 3.99164 0
M  V30 55790 H 5447.09 -2.41366 3.10654 0
M  V30 55791 H 5449.1 -3.64999 3.3614 0
M  V30 55792 N 5448.28 -1.51828 -0.422613 0
M  V30 55793 C 5449.22 -1.74203 -1.514 0
M  V30 55794 C 5450.19 -0.584068 -1.55492 0
M  V30 55795 O 5451.38 -0.820139 -1.72274 0
M  V30 55796 C 5448.52 -1.88637 -2.88981 0
M  V30 55797 C 5447.63 -3.16243 -2.94303 0
M  V30 55798 C 5446.77 -3.21187 -4.23099 0
M  V30 55799 C 5445.81 -4.43048 -4.22344 0
M  V30 55800 N 5444.94 -4.45459 -5.42688 0
M  V30 55801 H 5449.78 -2.67356 -1.31623 0
M  V30 55802 H 5447.32 -1.32489 -0.639143 0
M  V30 55803 H 5449.28 -1.94988 -3.6883 0
M  V30 55804 H 5447.91 -0.988781 -3.07283 0
M  V30 55805 H 5446.96 -3.1913 -2.07027 0
M  V30 55806 H 5448.27 -4.06114 -2.89608 0
M  V30 55807 H 5447.43 -3.26535 -5.11331 0
M  V30 55808 H 5446.16 -2.29231 -4.3047 0
M  V30 55809 H 5445.17 -4.3786 -3.32503 0
M  V30 55810 H 5446.39 -5.36285 -4.16624 0
M  V30 55811 H 5444.34 -3.5638 -5.50753 0
M  V30 55812 H 5444.26 -5.29157 -5.39934 0
M  V30 55813 H 5445.53 -4.5502 -6.32912 0
M  V30 55814 N 5449.75 0.679002 -1.42223 0
M  V30 55815 C 5450.98 1.46742 -1.45857 0
M  V30 55816 C 5451.4 1.88675 -0.06866 0
M  V30 55817 O 5450.75 1.57864 0.915701 0
M  V30 55818 C 5450.81 2.71927 -2.38198 0
M  V30 55819 O 5450.53 2.31755 -3.71781 0
M  V30 55820 C 5452.03 3.65527 -2.50809 0
M  V30 55821 H 5449.25 0.451665 -0.496226 0
M  V30 55822 H 5451.79 0.834658 -1.86692 0
M  V30 55823 H 5449.95 3.31402 -2.00628 0
M  V30 55824 H 5450.36 3.12565 -4.21193 0
M  V30 55825 H 5451.83 4.50101 -3.19551 0
M  V30 55826 H 5452.31 4.11143 -1.54462 0
M  V30 55827 H 5452.92 3.11947 -2.89083 0
M  V30 55828 N 5451.23 1.28325 0.914897 0
M  V30 55829 C 5452.18 1.1201 2.03854 0
M  V30 55830 C 5453.17 0.0396883 1.69354 0
M  V30 55831 O 5454.38 0.198372 1.78904 0
M  V30 55832 H 5450.76 0.345543 0.66791 0
M  V30 55833 H 5452.73 2.07176 2.14758 0
M  V30 55834 C 5451.48 0.797521 3.3843 0
M  V30 55835 H 5450.8 1.62084 3.65471 0
M  V30 55836 H 5452.24 0.723312 4.17785 0
M  V30 55837 C 5450.7 -0.49869 3.33189 0
M  V30 55838 O 5451.23 -1.52933 3.71449 0
M  V30 55839 N 5449.43 -0.499001 2.86284 0
M  V30 55840 H 5448.98 0.340146 2.55344 0
M  V30 55841 H 5448.94 -1.36631 2.83159 0
M  V30 55842 N 5452.71 -1.12318 1.10555 0
M  V30 55843 C 5453.94 -1.87404 0.869673 0
M  V30 55844 C 5454.35 -1.79978 -0.583497 0
M  V30 55845 O 5453.69 -1.17255 -1.41411 0
M  V30 55846 C 5453.75 -3.37397 1.24111 0
M  V30 55847 C 5453.42 -3.68598 2.70157 0
M  V30 55848 C 5454.41 -3.66856 3.68392 0
M  V30 55849 C 5452.1 -3.97892 3.06573 0
M  V30 55850 C 5454.09 -3.9397 5.01065 0
M  V30 55851 C 5451.78 -4.24666 4.39434 0
M  V30 55852 C 5452.78 -4.22691 5.3649 0
M  V30 55853 O 5452.47 -4.488 6.66959 0
M  V30 55854 H 5452.2 -0.599769 0.311855 0
M  V30 55855 H 5454.75 -1.43032 1.47415 0
M  V30 55856 H 5452.98 -3.8233 0.57974 0
M  V30 55857 H 5454.67 -3.93829 0.982517 0
M  V30 55858 H 5455.44 -3.44285 3.41603 0
M  V30 55859 H 5451.32 -3.9857 2.31652 0
M  V30 55860 H 5454.86 -3.92344 5.76812 0
M  V30 55861 H 5450.76 -4.46711 4.65961 0
M  V30 55862 H 5451.53 -4.66413 6.72608 0
M  V30 55863 N 5454.19 -0.89448 -1.29757 0
M  V30 55864 C 5455.61 -0.58983 -1.48301 0
M  V30 55865 C 5455.81 0.870021 -1.8175 0
M  V30 55866 O 5454.86 1.65058 -1.91081 0
M  V30 55867 C 5456.17 -1.51116 -2.5997 0
M  V30 55868 C 5457.72 -1.51581 -2.73847 0
M  V30 55869 C 5458.2 -2.42329 -3.88639 0
M  V30 55870 N 5459.69 -2.40347 -3.95964 0
M  V30 55871 C 5460.42 -3.07271 -4.8412 0
M  V30 55872 N 5459.92 -3.83455 -5.77005 0
M  V30 55873 N 5461.71 -2.96454 -4.77568 0
M  V30 55874 H 5453.86 -1.83874 -1.0632 0
M  V30 55875 H 5456.13 -0.787598 -0.527629 0
M  V30 55876 H 5455.83 -2.55106 -2.42103 0
M  V30 55877 H 5455.71 -1.2278 -3.56658 0
M  V30 55878 H 5458.09 -0.48338 -2.91114 0
M  V30 55879 H 5458.17 -1.83952 -1.7775 0
M  V30 55880 H 5457.82 -3.45663 -3.72129 0
M  V30 55881 H 5457.75 -2.07269 -4.84094 0
M  V30 55882 H 5460.24 -1.84991 -3.29525 0
M  V30 55883 H 5460.55 -4.31588 -6.41055 0
M  V30 55884 H 5458.9 -3.87562 -5.76906 0
M  V30 55885 H 5462.09 -2.36456 -4.03988 0
M  V30 55886 H 5462.26 -3.48887 -5.46061 0
M  V30 55887 N 5455.67 1.43279 -0.656415 0
M  V30 55888 C 5456.91 2.03652 -0.174753 0
M  V30 55889 C 5457.27 1.50684 1.18988 0
M  V30 55890 O 5458.47 2.02722 1.76514 0
M  V30 55891 C 5456.74 3.56906 -0.187905 0
M  V30 55892 S 5458.3 4.3822 0.225445 0
M  V30 55893 H 5455.12 0.707188 -0.0735278 0
M  V30 55894 H 5457.72 1.753 -0.865465 0
M  V30 55895 H 5456.43 3.92957 -1.18377 0
M  V30 55896 H 5455.96 3.89905 0.523241 0
M  V30 55897 H 5457.97 4.74126 1.46353 0
M  V30 55898 N 5457.15 0.398539 1.52478 0
M  V30 55899 C 5458.39 -0.181976 2.00877 0
M  V30 55900 C 5458.71 -1.47124 1.28895 0
M  V30 55901 O 5459.91 -2.13236 1.68055 0
M  V30 55902 C 5458.37 -0.374852 3.57943 0
M  V30 55903 C 5457.98 0.901698 4.38832 0
M  V30 55904 C 5459.72 -0.911232 4.14604 0
M  V30 55905 C 5457.63 0.676592 5.87517 0
M  V30 55906 H 5456.56 -0.0717804 0.750575 0
M  V30 55907 H 5459.21 0.522359 1.75908 0
M  V30 55908 H 5457.59 -1.14126 3.79198 0
M  V30 55909 H 5458.77 1.67344 4.2934 0
M  V30 55910 H 5457.08 1.36371 3.93436 0
M  V30 55911 H 5459.68 -1.09551 5.23357 0
M  V30 55912 H 5460.02 -1.88293 3.71284 0
M  V30 55913 H 5460.55 -0.204156 3.97276 0
M  V30 55914 H 5457.29 1.61955 6.35178 0
M  V30 55915 H 5456.81 -0.0560434 5.99774 0
M  V30 55916 H 5458.49 0.314681 6.46234 0
M  V30 55917 N 5458.62 -1.57074 0.128636 0
M  V30 55918 C 5460.03 -1.82469 -0.395195 0
M  V30 55919 C 5460.39 -1.04635 -1.65969 0
M  V30 55920 O 5459.51 -0.285911 -2.14503 0
M  V30 55921 C 5460.11 -3.30979 -0.723773 0
M  V30 55922 C 5458.66 -3.5702 -1.1922 0
M  V30 55923 C 5457.81 -2.76535 -0.20581 0
M  V30 55924 H 5460.76 -1.5471 0.353625 0
M  V30 55925 H 5460.78 -3.46133 -1.58027 0
M  V30 55926 H 5460.3 -3.87601 0.196731 0
M  V30 55927 H 5458.4 -3.05766 -2.12927 0
M  V30 55928 H 5458.51 -4.65562 -1.13086 0
M  V30 55929 H 5456.87 -2.4504 -0.694785 0
M  V30 55930 H 5457.66 -3.35921 0.707961 0
M  V30 55931 N 5460.1 0.14515 -1.5693 0
M  V30 55932 C 5461.05 1.17916 -1.98405 0
M  V30 55933 C 5462.02 1.42588 -0.851935 0
M  V30 55934 O 5463.2 1.54892 -1.11414 0
M  V30 55935 C 5460.34 2.50719 -2.37137 0
M  V30 55936 C 5459.46 2.33205 -3.63647 0
M  V30 55937 C 5458.59 3.59056 -3.91474 0
M  V30 55938 C 5457.63 3.36587 -5.11249 0
M  V30 55939 N 5456.77 4.54573 -5.35077 0
M  V30 55940 H 5461.61 0.818473 -2.8654 0
M  V30 55941 H 5459.14 0.39269 -1.41762 0
M  V30 55942 H 5461.1 3.28156 -2.57623 0
M  V30 55943 H 5459.73 2.84731 -1.52079 0
M  V30 55944 H 5458.78 1.46813 -3.50927 0
M  V30 55945 H 5460.1 2.12563 -4.51241 0
M  V30 55946 H 5459.25 4.44921 -4.12468 0
M  V30 55947 H 5457.99 3.82704 -3.02306 0
M  V30 55948 H 5456.99 2.4911 -4.90127 0
M  V30 55949 H 5458.22 3.14336 -6.01972 0
M  V30 55950 H 5456.17 4.78391 -4.48863 0
M  V30 55951 H 5456.08 4.36941 -6.16943 0
M  V30 55952 H 5457.35 5.41647 -5.6057 0
M  V30 55953 N 5461.58 1.5205 0.414556 0
M  V30 55954 C 5462.83 1.67045 1.1605 0
M  V30 55955 C 5463.18 0.392834 1.88347 0
M  V30 55956 O 5462.47 -0.612483 1.81547 0
M  V30 55957 C 5462.67 2.82743 2.18612 0
M  V30 55958 C 5462.5 4.21632 1.56385 0
M  V30 55959 C 5461.27 4.87239 1.3389 0
M  V30 55960 C 5463.46 5.03928 1.02768 0
M  V30 55961 N 5461.45 6.10178 0.674996 0
M  V30 55962 C 5462.82 6.18058 0.490371 0
M  V30 55963 C 5464.87 4.89296 0.921619 0
M  V30 55964 C 5463.58 7.19159 -0.142593 0
M  V30 55965 C 5465.6 5.90626 0.302516 0
M  V30 55966 C 5464.96 7.04043 -0.224139 0
M  V30 55967 H 5461.06 0.664962 0.411521 0
M  V30 55968 H 5463.65 1.89341 0.453676 0
M  V30 55969 H 5461.82 2.62072 2.86658 0
M  V30 55970 H 5463.55 2.86802 2.85529 0
M  V30 55971 H 5460.3 4.45505 1.60693 0
M  V30 55972 H 5460.73 6.76043 0.359824 0
M  V30 55973 H 5465.37 4.01843 1.31463 0
M  V30 55974 H 5463.09 8.06242 -0.547675 0
M  V30 55975 H 5466.67 5.81376 0.222047 0
M  V30 55976 H 5465.55 7.81108 -0.695651 0
M  V30 55977 N 5463.06 -0.67145 1.42581 0
M  V30 55978 C 5464.02 -1.76671 1.46014 0
M  V30 55979 C 5465.02 -1.57005 0.347268 0
M  V30 55980 O 5466.21 -1.63236 0.608242 0
M  V30 55981 C 5463.34 -3.15343 1.29505 0
M  V30 55982 H 5464.54 -1.75013 2.43538 0
M  V30 55983 H 5462.09 -0.881399 1.29078 0
M  V30 55984 H 5462.82 -3.22625 0.329173 0
M  V30 55985 H 5462.61 -3.31021 2.10161 0
M  V30 55986 H 5464.1 -3.95246 1.34798 0
M  V30 55987 N 5464.54 -1.28809 -0.908079 0
M  V30 55988 C 5465.78 -1.16466 -1.66023 0
M  V30 55989 C 5466.11 0.284958 -1.92098 0
M  V30 55990 O 5465.39 1.2067 -1.52542 0
M  V30 55991 C 5465.67 -1.96962 -3.0146 0
M  V30 55992 C 5465.53 -3.50017 -2.82503 0
M  V30 55993 C 5466.84 -1.78947 -4.02077 0
M  V30 55994 H 5463.96 -0.424456 -0.6025 0
M  V30 55995 H 5466.61 -1.58189 -1.05244 0
M  V30 55996 H 5464.76 -1.61507 -3.53338 0
M  V30 55997 H 5466.43 -3.95409 -2.37591 0
M  V30 55998 H 5464.67 -3.75364 -2.1745 0
M  V30 55999 H 5465.34 -4.01604 -3.78706 0
M  V30 56000 H 5467.82 -2.09898 -3.5928 0
M  V30 56001 H 5466.69 -2.37632 -4.94795 0
M  V30 56002 H 5466.95 -0.742439 -4.35821 0
M  V30 56003 N 5466.01 1.1173 -1.11149 0
M  V30 56004 C 5467.25 1.85036 -0.868383 0
M  V30 56005 C 5467.62 1.8254 0.59523 0
M  V30 56006 O 5468.82 2.51264 0.954982 0
M  V30 56007 C 5467.09 3.28376 -1.41082 0
M  V30 56008 S 5468.65 4.18969 -1.30425 0
M  V30 56009 H 5465.47 0.638103 -0.313601 0
M  V30 56010 H 5468.07 1.34543 -1.41839 0
M  V30 56011 H 5466.77 3.27755 -2.46991 0
M  V30 56012 H 5466.3 3.83936 -0.857711 0
M  V30 56013 H 5468.32 4.95482 -0.26678 0
M  V30 56014 N 5467.49 0.901349 1.29281 0
M  V30 56015 C 5468.44 0.370222 2.29635 0
M  V30 56016 C 5469.43 -0.531514 1.60846 0
M  V30 56017 O 5470.64 -0.414132 1.75171 0
M  V30 56018 H 5467.01 0.101098 0.745173 0
M  V30 56019 H 5468.99 1.22995 2.71873 0
M  V30 56020 C 5467.73 -0.385684 3.45554 0
M  V30 56021 H 5467.06 0.298958 3.98681 0
M  V30 56022 H 5468.5 -0.722152 4.17805 0
M  V30 56023 C 5466.96 -1.58897 2.97075 0
M  V30 56024 O 5467.49 -2.68824 2.9849 0
M  V30 56025 N 5465.69 -1.43169 2.52885 0
M  V30 56026 H 5465.24 -0.537379 2.51933 0
M  V30 56027 H 5465.2 -2.23811 2.20808 0
M  V30 56028 N 5468.97 -1.42929 0.664004 0
M  V30 56029 C 5470.22 -2.01284 0.18145 0
M  V30 56030 C 5470.54 -1.52712 -1.2126 0
M  V30 56031 O 5469.81 -0.744245 -1.81212 0
M  V30 56032 H 5468.39 -0.744246 0.0640907 0
M  V30 56033 H 5471.05 -1.74994 0.858093 0
M  V30 56034 H 5470.15 -3.11612 0.174383 0
M  V30 56035 N 5470.45 -0.40662 -1.52264 0
M  V30 56036 C 5471.69 0.170234 -2.02084 0
M  V30 56037 C 5472.03 1.45003 -1.29181 0
M  V30 56038 O 5471.3 1.90397 -0.397377 0
M  V30 56039 C 5471.59 0.420501 -3.57636 0
M  V30 56040 C 5471.44 -0.875795 -4.41191 0
M  V30 56041 C 5472.76 1.20372 -4.23319 0
M  V30 56042 H 5469.88 0.0603961 -0.734521 0
M  V30 56043 H 5472.52 -0.539593 -1.82177 0
M  V30 56044 H 5470.67 1.02517 -3.7473 0
M  V30 56045 H 5472.34 -1.51208 -4.35814 0
M  V30 56046 H 5470.58 -1.48733 -4.07506 0
M  V30 56047 H 5471.25 -0.655109 -5.48099 0
M  V30 56048 H 5473.73 0.691828 -4.10308 0
M  V30 56049 H 5472.61 1.34758 -5.32101 0
M  V30 56050 H 5472.87 2.22366 -3.82107 0
M  V30 56051 N 5471.93 1.57004 -0.136964 0
M  V30 56052 C 5473.2 1.87377 0.561167 0
M  V30 56053 C 5473.58 1.04123 1.83634 0
M  V30 56054 O 5472.93 0.125183 2.28157 0
M  V30 56055 C 5473.14 3.38832 0.836307 0
M  V30 56056 C 5474.49 4.07831 1.1815 0
M  V30 56057 O 5475.51 3.43953 0.925989 0
M  V30 56058 O 5474.37 5.20619 1.66186 0
M  V30 56059 H 5471.47 0.776297 0.285117 0
M  V30 56060 H 5474.01 1.68818 -0.172821 0
M  V30 56061 H 5472.78 3.91243 -0.0665795 0
M  V30 56062 H 5472.41 3.62884 1.62483 0
M  V30 56063 N 5473.4 -0.136826 1.57005 0
M  V30 56064 C 5474.68 -0.876989 1.74838 0
M  V30 56065 C 5475.06 -1.98884 0.707708 0
M  V30 56066 O 5474.41 -2.2688 -0.271572 0
M  V30 56067 C 5474.62 -1.4101 3.19245 0
M  V30 56068 C 5475.97 -1.8695 3.81228 0
M  V30 56069 O 5476.99 -1.50729 3.22737 0
M  V30 56070 O 5475.85 -2.53781 4.84002 0
M  V30 56071 H 5472.94 -0.415167 0.715238 0
M  V30 56072 H 5475.49 -0.121956 1.69261 0
M  V30 56073 H 5474.26 -0.611542 3.86492 0
M  V30 56074 H 5473.89 -2.22835 3.29288 0
M  V30 56075 N 5474.88 -1.52268 -0.406486 0
M  V30 56076 C 5476.12 -1.68134 -1.16233 0
M  V30 56077 C 5476.49 -0.403857 -1.87705 0
M  V30 56078 O 5477.69 -0.438659 -2.65197 0
M  V30 56079 C 5475.96 -2.87123 -2.12827 0
M  V30 56080 S 5477.52 -3.23486 -2.96483 0
M  V30 56081 H 5474.34 -0.592033 -0.393722 0
M  V30 56082 H 5476.94 -1.90268 -0.449258 0
M  V30 56083 H 5475.64 -3.78343 -1.59012 0
M  V30 56084 H 5475.17 -2.6727 -2.8867 0
M  V30 56085 H 5477.19 -2.72313 -4.14801 0
M  V30 56086 N 5476.36 0.663879 -1.42935 0
M  V30 56087 C 5477.78 0.978302 -1.26101 0
M  V30 56088 C 5477.98 2.00756 -0.173039 0
M  V30 56089 O 5477.03 2.4842 0.452097 0
M  V30 56090 C 5478.35 1.47271 -2.62167 0
M  V30 56091 C 5479.89 1.58992 -2.69612 0
M  V30 56092 C 5480.37 2.11826 -4.06071 0
M  V30 56093 N 5481.86 2.19144 -4.08081 0
M  V30 56094 C 5482.59 2.61123 -5.10492 0
M  V30 56095 N 5482.09 3.02476 -6.23282 0
M  V30 56096 N 5483.88 2.60969 -4.97847 0
M  V30 56097 H 5476.03 -0.0173842 -2.12393 0
M  V30 56098 H 5478.3 0.0547783 -0.946416 0
M  V30 56099 H 5478 0.790887 -3.42692 0
M  V30 56100 H 5477.88 2.44959 -2.86836 0
M  V30 56101 H 5480.26 2.26278 -1.89426 0
M  V30 56102 H 5480.35 0.59764 -2.48721 0
M  V30 56103 H 5479.99 1.45145 -4.86719 0
M  V30 56104 H 5479.92 3.11865 -4.24321 0
M  V30 56105 H 5482.41 1.90002 -3.26662 0
M  V30 56106 H 5482.72 3.33226 -6.97266 0
M  V30 56107 H 5481.07 3.00306 -6.2677 0
M  V30 56108 H 5484.26 2.28032 -4.08802 0
M  V30 56109 H 5484.43 2.93364 -5.7779 0
M  V30 56110 N 5477.84 1.29288 0.901235 0
M  V30 56111 C 5479.12 1.07853 1.63178 0
M  V30 56112 C 5479.5 -0.377854 2.07691 0
M  V30 56113 O 5478.84 -1.36636 1.83147 0
M  V30 56114 C 5479.05 2.06467 2.81376 0
M  V30 56115 C 5480.4 2.37301 3.52098 0
M  V30 56116 O 5481.43 2.0465 2.91542 0
M  V30 56117 O 5480.28 2.93083 4.61264 0
M  V30 56118 H 5477.38 0.413098 0.716435 0
M  V30 56119 H 5479.92 1.40655 0.949438 0
M  V30 56120 H 5478.7 3.04569 2.45669 0
M  V30 56121 H 5478.32 1.74386 3.57317 0
M  V30 56122 N 5479.32 -1.11139 1.1174 0
M  V30 56123 C 5480.26 -2.19355 0.773703 0
M  V30 56124 C 5481.26 -1.67745 -0.236229 0
M  V30 56125 O 5482.46 -1.79748 -0.0951868 0
M  V30 56126 H 5478.84 -0.71521 0.232334 0
M  V30 56127 H 5480.81 -2.45588 1.69496 0
M  V30 56128 C 5479.56 -3.46894 0.236579 0
M  V30 56129 H 5478.88 -3.86963 1.00497 0
M  V30 56130 H 5480.32 -4.23986 0.0343171 0
M  V30 56131 C 5478.78 -3.20645 -1.03386 0
M  V30 56132 O 5479.31 -3.41636 -2.113 0
M  V30 56133 N 5477.52 -2.74359 -0.95789 0
M  V30 56134 H 5477.06 -2.57477 -0.0796018 0
M  V30 56135 H 5477.02 -2.57173 -1.80858 0
M  V30 56136 N 5480.79 -0.908192 -1.28801 0
M  V30 56137 C 5482.02 -0.553501 -1.99878 0
M  V30 56138 C 5482.44 0.856655 -1.67461 0
M  V30 56139 O 5481.8 1.5716 -0.903904 0
M  V30 56140 C 5481.85 -0.762812 -3.52439 0
M  V30 56141 O 5480.95 0.180779 -4.12004 0
M  V30 56142 H 5480.3 -0.215259 -0.62814 0
M  V30 56143 H 5482.83 -1.22211 -1.6409 0
M  V30 56144 H 5482.84 -0.670753 -4.02449 0
M  V30 56145 H 5481.51 -1.79084 -3.75369 0
M  V30 56146 H 5480.09 0.0404586 -3.72878 0
M  V30 56147 N 5482.27 1.42575 -0.671575 0
M  V30 56148 C 5483.55 1.95222 -0.121597 0
M  V30 56149 C 5483.93 1.61214 1.36284 0
M  V30 56150 O 5483.28 0.906635 2.09744 0
M  V30 56151 C 5483.49 3.46844 -0.387311 0
M  V30 56152 C 5484.84 4.23524 -0.302087 0
M  V30 56153 O 5485.86 3.54752 -0.32088 0
M  V30 56154 O 5484.72 5.45966 -0.241509 0
M  V30 56155 H 5481.81 0.826999 -0.000997688 0
M  V30 56156 H 5484.36 1.5242 -0.746082 0
M  V30 56157 H 5483.13 3.6479 -1.41575 0
M  V30 56158 H 5482.75 3.96687 0.269341 0
M  V30 56159 N 5483.75 0.414689 1.52046 0
M  V30 56160 C 5484.66 -0.41478 2.30904 0
M  V30 56161 C 5485.68 -1.0485 1.38861 0
M  V30 56162 O 5486.85 -1.0488 1.71936 0
M  V30 56163 C 5483.92 -1.51345 3.11923 0
M  V30 56164 C 5482.98 -0.902211 4.19713 0
M  V30 56165 C 5482.21 -1.94852 4.96858 0
M  V30 56166 O 5482.44 -3.1675 4.74369 0
M  V30 56167 O 5481.37 -1.55166 5.81556 0
M  V30 56168 H 5485.2 0.228357 3.0284 0
M  V30 56169 H 5482.78 0.177756 1.48339 0
M  V30 56170 H 5484.66 -2.15114 3.62359 0
M  V30 56171 H 5483.34 -2.14108 2.42774 0
M  V30 56172 H 5482.24 -0.227078 3.7341 0
M  V30 56173 H 5483.58 -0.318414 4.91169 0
M  V30 56174 N 5485.23 -1.56929 0.145288 0
M  V30 56175 C 5486.16 -2.13799 -0.826003 0
M  V30 56176 C 5487.17 -1.08702 -1.21193 0
M  V30 56177 O 5488.36 -1.35985 -1.15631 0
M  V30 56178 C 5485.46 -2.64437 -2.11958 0
M  V30 56179 C 5484.64 -3.93916 -1.90128 0
M  V30 56180 C 5483.7 -4.29883 -3.03458 0
M  V30 56181 O 5482.72 -4.98237 -2.75224 0
M  V30 56182 N 5483.92 -3.89326 -4.30588 0
M  V30 56183 H 5486.69 -2.97766 -0.339968 0
M  V30 56184 H 5484.25 -1.61855 -0.0383359 0
M  V30 56185 H 5486.24 -2.85512 -2.86819 0
M  V30 56186 H 5484.81 -1.85205 -2.51829 0
M  V30 56187 H 5484.03 -3.81485 -0.993134 0
M  V30 56188 H 5485.32 -4.78529 -1.72879 0
M  V30 56189 H 5484.72 -3.34245 -4.56395 0
M  V30 56190 H 5483.27 -4.15455 -5.02235 0
M  V30 56191 N 5486.71 0.128498 -1.57075 0
M  V30 56192 C 5487.96 0.83629 -1.83985 0
M  V30 56193 C 5488.28 1.80859 -0.729035 0
M  V30 56194 O 5487.55 1.94327 0.247791 0
M  V30 56195 H 5486.13 0.311827 -0.678803 0
M  V30 56196 H 5488.79 0.118085 -1.94542 0
M  V30 56197 H 5487.88 1.38731 -2.79571 0
M  V30 56198 N 5488.19 1.52481 0.398405 0
M  V30 56199 C 5489.43 1.68748 1.1534 0
M  V30 56200 C 5489.79 0.413805 1.87488 0
M  V30 56201 O 5490.99 0.452717 2.6496 0
M  V30 56202 C 5489.26 2.88247 2.11301 0
M  V30 56203 S 5490.82 3.25053 2.94764 0
M  V30 56204 H 5487.64 0.594113 0.390577 0
M  V30 56205 H 5490.24 1.90504 0.439161 0
M  V30 56206 H 5488.94 3.79181 1.57004 0
M  V30 56207 H 5488.48 2.68797 2.87248 0
M  V30 56208 H 5490.49 2.74509 4.13351 0
M  V30 56209 N 5489.66 -0.656289 1.43285 0
M  V30 56210 C 5490.57 -1.79842 1.50646 0
M  V30 56211 C 5491.59 -1.69486 0.393774 0
M  V30 56212 O 5492.77 -1.90709 0.647446 0
M  V30 56213 C 5489.83 -3.16102 1.4241 0
M  V30 56214 C 5488.89 -3.38277 2.64324 0
M  V30 56215 C 5488.12 -4.68037 2.56471 0
M  V30 56216 O 5488.35 -5.47185 1.61075 0
M  V30 56217 O 5487.28 -4.91864 3.46919 0
M  V30 56218 H 5491.11 -1.76587 2.47085 0
M  V30 56219 H 5488.69 -0.814384 1.25252 0
M  V30 56220 H 5490.57 -3.97377 1.40247 0
M  V30 56221 H 5489.25 -3.19954 0.491041 0
M  V30 56222 H 5488.16 -2.56778 2.72058 0
M  V30 56223 H 5489.49 -3.3927 3.56591 0
M  V30 56224 N 5491.14 -1.29765 -0.894366 0
M  V30 56225 C 5492.05 -1.17248 -2.032 0
M  V30 56226 C 5493.07 -0.0945063 -1.73743 0
M  V30 56227 O 5494.24 -0.307619 -1.99037 0
M  V30 56228 C 5491.31 -0.855535 -3.35978 0
M  V30 56229 C 5490.37 -2.0179 -3.78919 0
M  V30 56230 C 5489.6 -1.71598 -5.05361 0
M  V30 56231 O 5489.83 -0.639444 -5.66804 0
M  V30 56232 O 5488.76 -2.56558 -5.44483 0
M  V30 56233 H 5492.59 -2.12794 -2.16685 0
M  V30 56234 H 5490.17 -1.09268 -1.01887 0
M  V30 56235 H 5492.05 -0.693575 -4.15653 0
M  V30 56236 H 5490.73 0.0701057 -3.23624 0
M  V30 56237 H 5489.63 -2.23513 -2.99988 0
M  V30 56238 H 5490.97 -2.92493 -3.95865 0
M  V30 56239 N 5492.62 1.10545 -1.12328 0
M  V30 56240 C 5494.04 1.34505 -0.859098 0
M  V30 56241 C 5494.24 1.94902 0.511399 0
M  V30 56242 O 5493.29 2.18797 1.26032 0
M  V30 56243 C 5494.6 2.26781 -1.97461 0
M  V30 56244 C 5496.15 2.40321 -2.00536 0
M  V30 56245 C 5496.63 3.35925 -3.11317 0
M  V30 56246 N 5498.12 3.43493 -3.10752 0
M  V30 56247 C 5498.85 4.17435 -3.9311 0
M  V30 56248 N 5498.35 4.94273 -4.85454 0
M  V30 56249 N 5500.14 4.13042 -3.81252 0
M  V30 56250 H 5492.29 0.697101 -2.00635 0
M  V30 56251 H 5494.56 0.369517 -0.873018 0
M  V30 56252 H 5494.26 1.89611 -2.96211 0
M  V30 56253 H 5494.14 3.27079 -1.8788 0
M  V30 56254 H 5496.52 2.76761 -1.02407 0
M  V30 56255 H 5496.6 1.39842 -2.14191 0
M  V30 56256 H 5496.25 3.0021 -4.09678 0
M  V30 56257 H 5496.18 4.36281 -2.94901 0
M  V30 56258 H 5498.67 2.88693 -2.43853 0
M  V30 56259 H 5498.98 5.4809 -5.4481 0
M  V30 56260 H 5497.33 4.93402 -4.89469 0
M  V30 56261 H 5500.52 3.52106 -3.08446 0
M  V30 56262 H 5500.69 4.70409 -4.45668 0
M  V30 56263 N 5494.1 0.91501 1.28317 0
M  V30 56264 C 5495.33 0.564724 1.99044 0
M  V30 56265 C 5495.74 -0.854286 1.68367 0
M  V30 56266 O 5495.1 -1.56602 0.937123 0
M  V30 56267 C 5495.15 0.765788 3.53296 0
M  V30 56268 O 5494.87 2.12896 3.82893 0
M  V30 56269 C 5496.37 0.422502 4.41282 0
M  V30 56270 H 5493.59 0.21518 0.635562 0
M  V30 56271 H 5496.13 1.22856 1.63483 0
M  V30 56272 H 5494.29 0.148932 3.87114 0
M  V30 56273 H 5494.7 2.16956 4.77525 0
M  V30 56274 H 5496.18 0.61395 5.48575 0
M  V30 56275 H 5496.65 -0.641332 4.34492 0
M  V30 56276 H 5497.26 1.01695 4.12963 0
M  V30 56277 N 5495.58 -1.42217 0.679127 0
M  V30 56278 C 5496.82 -2.03348 0.20713 0
M  V30 56279 C 5497.18 -1.52558 -1.16576 0
M  V30 56280 O 5498.38 -2.05505 -1.73267 0
M  V30 56281 C 5496.65 -3.56562 0.244662 0
M  V30 56282 S 5498.21 -4.38524 -0.155699 0
M  V30 56283 H 5495.03 -0.705929 0.0847692 0
M  V30 56284 H 5497.63 -1.73901 0.893244 0
M  V30 56285 H 5496.33 -3.91024 1.24613 0
M  V30 56286 H 5495.87 -3.90688 -0.461144 0
M  V30 56287 H 5497.88 -4.76394 -1.38791 0
M  V30 56288 N 5497.05 -0.422747 -1.51824 0
M  V30 56289 C 5498 0.413646 -2.24216 0
M  V30 56290 C 5498.99 1.00223 -1.25873 0
M  V30 56291 O 5500.18 0.922792 -1.51042 0
M  V30 56292 C 5497.31 1.52233 -3.07701 0
M  V30 56293 C 5496.39 0.943854 -4.13464 0
M  V30 56294 N 5496.79 0.0932339 -5.05714 0
M  V30 56295 C 5495.08 1.21296 -4.29189 0
M  V30 56296 C 5495.78 -0.230095 -5.81245 0
M  V30 56297 N 5494.76 0.382563 -5.42252 0
M  V30 56298 H 5498.56 -0.242386 -2.92899 0
M  V30 56299 H 5496.08 -0.233958 -1.60706 0
M  V30 56300 H 5498.07 2.13425 -3.58128 0
M  V30 56301 H 5496.73 2.18085 -2.4056 0
M  V30 56302 H 5497.74 -0.272114 -5.17185 0
M  V30 56303 H 5494.42 1.87005 -3.73276 0
M  V30 56304 H 5495.81 -0.921393 -6.65552 0
M  V30 56305 N 5498.53 1.5685 -0.153609 0
M  V30 56306 C 5499.94 1.83075 0.366116 0
M  V30 56307 C 5500.29 1.07263 1.64284 0
M  V30 56308 O 5499.42 0.32 2.14021 0
M  V30 56309 C 5500.01 3.32088 0.671025 0
M  V30 56310 C 5498.57 3.58872 1.13525 0
M  V30 56311 C 5497.72 2.76828 0.161789 0
M  V30 56312 H 5500.67 1.54128 -0.378193 0
M  V30 56313 H 5500.69 3.48603 1.525 0
M  V30 56314 H 5500.2 3.87239 -0.25837 0
M  V30 56315 H 5498.31 3.09115 2.08036 0
M  V30 56316 H 5498.42 4.67303 1.05665 0
M  V30 56317 H 5496.78 2.46115 0.655714 0
M  V30 56318 H 5497.57 3.34752 -0.761313 0
M  V30 56319 N 5500.01 -0.120166 1.57141 0
M  V30 56320 C 5501.26 -0.829384 1.85065 0
M  V30 56321 C 5501.59 -1.79582 0.739179 0
M  V30 56322 O 5500.86 -1.9282 -0.255079 0
M  V30 56323 C 5501.15 -1.58031 3.23571 0
M  V30 56324 C 5501 -0.63355 4.45316 0
M  V30 56325 C 5502.32 -2.53675 3.59634 0
M  V30 56326 H 5499.44 -0.300063 0.67315 0
M  V30 56327 H 5502.08 -0.0936726 1.89769 0
M  V30 56328 H 5500.23 -2.20747 3.19692 0
M  V30 56329 H 5501.9 -0.0153214 4.61297 0
M  V30 56330 H 5500.15 0.0549985 4.33765 0
M  V30 56331 H 5500.82 -1.19558 5.38897 0
M  V30 56332 H 5503.29 -2.01065 3.64297 0
M  V30 56333 H 5502.17 -3.03249 4.57527 0
M  V30 56334 H 5502.43 -3.36286 2.86992 0
M  V30 56335 N 5501.49 -1.5269 -0.390313 0
M  V30 56336 C 5502.74 -1.67339 -1.13323 0
M  V30 56337 C 5503.06 -0.415135 -1.9053 0
M  V30 56338 O 5502.33 0.570438 -1.87411 0
M  V30 56339 H 5500.91 -0.616836 -0.421335 0
M  V30 56340 H 5503.57 -1.898 -0.442933 0
M  V30 56341 H 5502.67 -2.5232 -1.83687 0
M  V30 56342 N 5502.97 0.648681 -1.43631 0
M  V30 56343 C 5504.24 1.40616 -1.35966 0
M  V30 56344 C 5504.62 2.11098 -0.00968444 0
M  V30 56345 O 5503.97 2.05111 1.00707 0
M  V30 56346 C 5504.18 2.3871 -2.54595 0
M  V30 56347 C 5505.53 3.02573 -2.97883 0
M  V30 56348 O 5506.55 2.49037 -2.54674 0
M  V30 56349 O 5505.41 3.99649 -3.7275 0
M  V30 56350 H 5502.51 0.628464 -0.537552 0
M  V30 56351 H 5505.05 0.675208 -1.55689 0
M  V30 56352 H 5503.82 1.85607 -3.44479 0
M  V30 56353 H 5503.45 3.19248 -2.36994 0
M  V30 56354 N 5504.44 1.30237 0.887472 0
M  V30 56355 C 5505.69 1.18916 1.63906 0
M  V30 56356 C 5506.02 -0.256682 1.92799 0
M  V30 56357 O 5505.27 -1.20042 1.54559 0
M  V30 56358 C 5505.57 1.96056 2.98826 0
M  V30 56359 C 5505.24 3.45693 2.89495 0
M  V30 56360 C 5503.9 3.86499 2.86657 0
M  V30 56361 C 5506.25 4.40992 2.77804 0
M  V30 56362 C 5503.58 5.209 2.69964 0
M  V30 56363 C 5505.93 5.75498 2.6265 0
M  V30 56364 C 5504.6 6.15546 2.58185 0
M  V30 56365 H 5503.87 0.435144 0.599775 0
M  V30 56366 H 5506.51 1.61312 1.03203 0
M  V30 56367 H 5504.82 1.46288 3.63465 0
M  V30 56368 H 5506.52 1.84691 3.55936 0
M  V30 56369 H 5503.11 3.13265 2.92512 0
M  V30 56370 H 5507.29 4.1041 2.79064 0
M  V30 56371 H 5502.55 5.51024 2.6492 0
M  V30 56372 H 5506.72 6.48982 2.52577 0
M  V30 56373 H 5504.35 7.19635 2.45008 0
M  V30 56374 N 5505.92 -1.09948 1.12913 0
M  V30 56375 C 5507.34 -1.34048 0.866219 0
M  V30 56376 C 5507.54 -1.95171 -0.501056 0
M  V30 56377 O 5506.59 -2.19462 -1.2487 0
M  V30 56378 C 5507.91 -2.25731 1.98661 0
M  V30 56379 C 5509.46 -2.39254 2.01808 0
M  V30 56380 C 5509.93 -3.34269 3.13094 0
M  V30 56381 N 5511.42 -3.4184 3.1257 0
M  V30 56382 C 5512.16 -4.15344 3.95319 0
M  V30 56383 N 5511.65 -4.91692 4.88069 0
M  V30 56384 N 5513.45 -4.11014 3.83437 0
M  V30 56385 H 5505.6 -0.686451 2.01002 0
M  V30 56386 H 5507.86 -0.364882 0.874966 0
M  V30 56387 H 5507.57 -1.88037 2.97212 0
M  V30 56388 H 5507.44 -3.26078 1.89612 0
M  V30 56389 H 5509.83 -2.76214 1.03873 0
M  V30 56390 H 5509.91 -1.38704 2.1493 0
M  V30 56391 H 5509.55 -2.98034 4.11264 0
M  V30 56392 H 5509.48 -4.34711 2.9721 0
M  V30 56393 H 5511.97 -2.87396 2.45381 0
M  V30 56394 H 5512.29 -5.45193 5.47709 0
M  V30 56395 H 5510.63 -4.90799 4.92079 0
M  V30 56396 H 5513.82 -3.50466 3.10309 0
M  V30 56397 H 5513.99 -4.68039 4.48156 0
M  V30 56398 N 5507.4 -0.921802 -1.2783 0
M  V30 56399 C 5508.64 -0.566357 -1.96397 0
M  V30 56400 C 5509 0.875089 -1.70898 0
M  V30 56401 O 5510.21 1.33851 -2.33104 0
M  V30 56402 C 5508.48 -0.876451 -3.46487 0
M  V30 56403 S 5510.04 -0.628634 -4.34274 0
M  V30 56404 H 5506.85 -0.20927 -0.679505 0
M  V30 56405 H 5509.46 -1.18898 -1.55189 0
M  V30 56406 H 5508.16 -1.92332 -3.62542 0
M  V30 56407 H 5507.69 -0.242796 -3.9265 0
M  V30 56408 H 5509.71 0.516319 -4.93506 0
M  V30 56409 N 5508.88 1.41855 -0.686659 0
M  V30 56410 C 5509.83 2.30795 -0.0157241 0
M  V30 56411 C 5510.8 1.46619 0.780518 0
M  V30 56412 O 5511.98 1.75426 0.750362 0
M  V30 56413 C 5509.12 3.3258 0.921112 0
M  V30 56414 C 5508.23 4.3184 0.117434 0
M  V30 56415 C 5507.37 5.20697 1.0511 0
M  V30 56416 C 5506.41 6.1163 0.239803 0
M  V30 56417 N 5505.54 6.92999 1.1268 0
M  V30 56418 H 5510.38 2.87612 -0.779952 0
M  V30 56419 H 5507.92 1.4166 -0.396348 0
M  V30 56420 H 5509.88 3.90134 1.47822 0
M  V30 56421 H 5508.51 2.77334 1.65184 0
M  V30 56422 H 5507.56 3.76308 -0.556472 0
M  V30 56423 H 5508.87 4.96166 -0.511928 0
M  V30 56424 H 5508.03 5.83041 1.67774 0
M  V30 56425 H 5506.77 4.56576 1.71433 0
M  V30 56426 H 5505.77 5.48343 -0.399972 0
M  V30 56427 H 5507 6.77803 -0.419504 0
M  V30 56428 H 5504.94 6.31496 1.77621 0
M  V30 56429 H 5504.86 7.53976 0.5528 0
M  V30 56430 H 5506.13 7.59819 1.74054 0
M  V30 56431 N 5510.36 0.430792 1.51598 0
M  V30 56432 C 5511.3 -0.398402 2.29163 0
M  V30 56433 C 5512.3 -1.02671 1.34741 0
M  V30 56434 O 5513.5 -0.962427 1.5211 0
M  V30 56435 H 5509.88 -0.147284 0.737436 0
M  V30 56436 H 5511.85 0.276724 2.97114 0
M  V30 56437 C 5510.6 -1.49083 3.14117 0
M  V30 56438 H 5509.92 -1.01672 3.86656 0
M  V30 56439 H 5511.36 -2.0444 3.71457 0
M  V30 56440 C 5509.82 -2.47041 2.29068 0
M  V30 56441 O 5510.35 -3.51428 1.94579 0
M  V30 56442 N 5508.56 -2.17771 1.92417 0
M  V30 56443 H 5508.1 -1.32912 2.20663 0
M  V30 56444 H 5508.06 -2.83555 1.35808 0
M  V30 56445 N 5511.83 -1.56766 0.161924 0
M  V30 56446 C 5512.78 -2.14093 -0.784108 0
M  V30 56447 C 5513.77 -1.07266 -1.19928 0
M  V30 56448 O 5514.96 -1.3341 -1.16321 0
M  V30 56449 C 5512.09 -2.77785 -2.01719 0
M  V30 56450 C 5511.18 -3.91756 -1.62443 0
M  V30 56451 N 5511.57 -4.96975 -0.940713 0
M  V30 56452 C 5509.86 -4.02742 -1.91612 0
M  V30 56453 C 5510.57 -5.76861 -0.748743 0
M  V30 56454 N 5509.54 -5.28139 -1.28726 0
M  V30 56455 H 5513.34 -2.92812 -0.25266 0
M  V30 56456 H 5510.86 -1.62353 -0.0390931 0
M  V30 56457 H 5512.85 -3.17225 -2.70506 0
M  V30 56458 H 5511.51 -2.00544 -2.55367 0
M  V30 56459 H 5512.53 -5.14415 -0.5998 0
M  V30 56460 H 5509.2 -3.36594 -2.47004 0
M  V30 56461 H 5510.59 -6.71576 -0.208755 0
M  V30 56462 N 5513.31 0.11183 -1.57203 0
M  V30 56463 C 5514.26 1.1428 -1.97292 0
M  V30 56464 C 5515.25 1.36683 -0.848916 0
M  V30 56465 O 5516.44 1.37655 -1.11266 0
M  V30 56466 C 5513.57 2.46751 -2.38682 0
M  V30 56467 C 5512.65 2.27792 -3.57731 0
M  V30 56468 N 5513.05 1.78662 -4.73195 0
M  V30 56469 C 5511.34 2.58422 -3.63503 0
M  V30 56470 C 5512.04 1.73581 -5.55198 0
M  V30 56471 N 5511.02 2.18188 -4.97891 0
M  V30 56472 H 5514.82 0.755611 -2.84021 0
M  V30 56473 H 5512.34 0.319484 -1.59226 0
M  V30 56474 H 5514.33 3.21326 -2.65622 0
M  V30 56475 H 5512.99 2.86221 -1.53321 0
M  V30 56476 H 5514 1.48104 -4.96272 0
M  V30 56477 H 5510.68 3.0153 -2.88766 0
M  V30 56478 H 5512.07 1.36789 -6.57829 0
M  V30 56479 N 5514.79 1.52895 0.38221 0
M  V30 56480 C 5516.03 1.69962 1.13544 0
M  V30 56481 C 5516.4 0.433668 1.87038 0
M  V30 56482 O 5517.6 0.480794 2.64465 0
M  V30 56483 C 5515.87 2.90472 2.08232 0
M  V30 56484 S 5517.43 3.28162 2.913 0
M  V30 56485 H 5514.24 0.598222 0.384254 0
M  V30 56486 H 5516.85 1.90959 0.418931 0
M  V30 56487 H 5515.55 3.80825 1.52973 0
M  V30 56488 H 5515.08 2.71829 2.84381 0
M  V30 56489 H 5517.1 2.78878 4.10416 0
M  V30 56490 N 5516.27 -0.641055 1.43973 0
M  V30 56491 C 5517.52 -1.39671 1.45516 0
M  V30 56492 C 5517.83 -1.95403 0.0877771 0
M  V30 56493 O 5519.04 -2.71493 -0.0193011 0
M  V30 56494 C 5517.49 -2.5283 2.56135 0
M  V30 56495 C 5517.1 -2.03654 3.99035 0
M  V30 56496 C 5518.85 -3.30109 2.66887 0
M  V30 56497 C 5516.75 -3.14096 5.01096 0
M  V30 56498 H 5515.68 -0.524835 0.541354 0
M  V30 56499 H 5518.33 -0.690691 1.70005 0
M  V30 56500 H 5516.72 -3.2596 2.24868 0
M  V30 56501 H 5517.89 -1.37454 4.39822 0
M  V30 56502 H 5516.2 -1.39219 3.92437 0
M  V30 56503 H 5518.8 -4.12422 3.40311 0
M  V30 56504 H 5519.14 -3.7894 1.72366 0
M  V30 56505 H 5519.68 -2.64065 2.97514 0
M  V30 56506 H 5516.42 -2.7022 5.97211 0
M  V30 56507 H 5515.94 -3.78969 4.64912 0
M  V30 56508 H 5517.62 -3.79033 5.2435 0
M  V30 56509 N 5517.75 -1.30706 -0.880552 0
M  V30 56510 C 5519.16 -1.17823 -1.44826 0
M  V30 56511 C 5519.51 0.219388 -1.9497 0
M  V30 56512 O 5518.63 1.1164 -1.85379 0
M  V30 56513 C 5519.23 -2.13285 -2.6324 0
M  V30 56514 C 5517.79 -2.04367 -3.16087 0
M  V30 56515 C 5516.94 -2.03115 -1.88785 0
M  V30 56516 H 5519.89 -1.42911 -0.690075 0
M  V30 56517 H 5519.91 -1.71626 -3.39595 0
M  V30 56518 H 5519.42 -3.14996 -2.26714 0
M  V30 56519 H 5517.52 -1.05813 -3.5726 0
M  V30 56520 H 5517.63 -2.92967 -3.79087 0
M  V30 56521 H 5516 -1.47979 -2.07303 0
M  V30 56522 H 5516.78 -3.06564 -1.54511 0
M  V30 56523 N 5519.23 1.09347 -1.13494 0
M  V30 56524 C 5520.16 2.18034 -0.835665 0
M  V30 56525 C 5521.14 1.68856 0.205313 0
M  V30 56526 O 5522.32 1.94094 0.0640675 0
M  V30 56527 C 5519.45 3.45986 -0.301782 0
M  V30 56528 C 5518.41 4.08502 -1.2771 0
M  V30 56529 C 5517.73 5.3129 -0.602945 0
M  V30 56530 C 5519.03 4.50907 -2.63591 0
M  V30 56531 H 5520.73 2.43326 -1.7445 0
M  V30 56532 H 5518.27 1.16947 -0.840207 0
M  V30 56533 H 5520.22 4.21324 -0.0800761 0
M  V30 56534 H 5518.95 3.20219 0.64244 0
M  V30 56535 H 5517.61 3.35185 -1.48481 0
M  V30 56536 H 5517.26 5.01803 0.346777 0
M  V30 56537 H 5516.96 5.74071 -1.25365 0
M  V30 56538 H 5518.48 6.0935 -0.390539 0
M  V30 56539 H 5519.89 5.17466 -2.46783 0
M  V30 56540 H 5518.29 5.04575 -3.24845 0
M  V30 56541 H 5519.36 3.63268 -3.21193 0
M  V30 56542 N 5520.7 0.928568 1.2734 0
M  V30 56543 C 5522.12 0.628942 1.46685 0
M  V30 56544 C 5522.32 -0.821527 1.83992 0
M  V30 56545 O 5521.38 -1.59934 1.95391 0
M  V30 56546 C 5522.69 1.57956 2.55872 0
M  V30 56547 C 5524.24 1.58788 2.69732 0
M  V30 56548 C 5524.71 2.52548 3.82078 0
M  V30 56549 N 5526.2 2.5076 3.89453 0
M  V30 56550 C 5526.94 3.19998 4.75803 0
M  V30 56551 N 5526.43 3.98618 5.66635 0
M  V30 56552 N 5528.23 3.09012 4.6954 0
M  V30 56553 H 5520.38 1.86629 1.01408 0
M  V30 56554 H 5522.64 0.801311 0.506562 0
M  V30 56555 H 5522.35 2.61435 2.35254 0
M  V30 56556 H 5522.22 1.32193 3.53277 0
M  V30 56557 H 5524.61 0.560394 2.8973 0
M  V30 56558 H 5524.69 1.886 1.72811 0
M  V30 56559 H 5524.33 3.55408 3.62833 0
M  V30 56560 H 5524.26 2.20031 4.78428 0
M  V30 56561 H 5526.75 1.93663 3.24504 0
M  V30 56562 H 5527.07 4.48432 6.29387 0
M  V30 56563 H 5525.41 4.02721 5.66428 0
M  V30 56564 H 5528.6 2.47084 3.97577 0
M  V30 56565 H 5528.78 3.63242 5.36618 0
M  V30 56566 N 5522.18 -1.41489 0.694172 0
M  V30 56567 C 5523.43 -2.02054 0.23363 0
M  V30 56568 C 5523.78 -1.53991 -1.15345 0
M  V30 56569 O 5523.08 -0.740673 -1.76705 0
M  V30 56570 C 5523.27 -3.56666 0.228994 0
M  V30 56571 C 5523.1 -4.19735 1.61409 0
M  V30 56572 C 5521.87 -4.54087 2.21659 0
M  V30 56573 C 5524.07 -4.46034 2.56043 0
M  V30 56574 N 5522.05 -5.02437 3.52747 0
M  V30 56575 C 5523.42 -4.96143 3.71809 0
M  V30 56576 C 5525.47 -4.28044 2.54328 0
M  V30 56577 C 5524.18 -5.30153 4.86138 0
M  V30 56578 C 5526.2 -4.63142 3.67768 0
M  V30 56579 C 5525.57 -5.13421 4.82264 0
M  V30 56580 H 5521.66 -0.770975 0.130848 0
M  V30 56581 H 5524.25 -1.72054 0.911351 0
M  V30 56582 H 5522.42 -3.86142 -0.418208 0
M  V30 56583 H 5524.15 -4.0395 -0.246245 0
M  V30 56584 H 5520.91 -4.40495 1.73958 0
M  V30 56585 H 5521.33 -5.31019 4.19938 0
M  V30 56586 H 5525.97 -3.8841 1.67025 0
M  V30 56587 H 5523.69 -5.68711 5.74103 0
M  V30 56588 H 5527.28 -4.50882 3.67691 0
M  V30 56589 H 5526.16 -5.4007 5.68589 0
M  V30 56590 N 5523.66 -0.438826 -1.51367 0
M  V30 56591 C 5524.59 0.407691 -2.25545 0
M  V30 56592 C 5525.6 0.98502 -1.29619 0
M  V30 56593 O 5526.79 0.878907 -1.55362 0
M  V30 56594 C 5523.89 1.58246 -2.99685 0
M  V30 56595 C 5523.07 1.12374 -4.22718 0
M  V30 56596 C 5522.13 2.1688 -4.79426 0
M  V30 56597 O 5521.15 1.76254 -5.41224 0
M  V30 56598 N 5522.35 3.49379 -4.63588 0
M  V30 56599 H 5525.12 -0.228068 -2.98831 0
M  V30 56600 H 5522.68 -0.267797 -1.5967 0
M  V30 56601 H 5524.67 2.27785 -3.34509 0
M  V30 56602 H 5523.24 2.12354 -2.29401 0
M  V30 56603 H 5522.46 0.255371 -3.93372 0
M  V30 56604 H 5523.75 0.794671 -5.02556 0
M  V30 56605 H 5523.15 3.85117 -4.14368 0
M  V30 56606 H 5521.7 4.14808 -5.0277 0
M  V30 56607 N 5525.14 1.56678 -0.170236 0
M  V30 56608 C 5526.38 1.98745 0.477464 0
M  V30 56609 C 5526.74 1.05385 1.60493 0
M  V30 56610 O 5527.94 1.36588 2.3151 0
M  V30 56611 C 5526.21 3.44569 0.949065 0
M  V30 56612 S 5527.77 4.08664 1.5981 0
M  V30 56613 H 5524.59 0.694207 0.153614 0
M  V30 56614 H 5527.19 1.93662 -0.267441 0
M  V30 56615 H 5525.9 4.1023 0.118061 0
M  V30 56616 H 5525.43 3.53415 1.72804 0
M  V30 56617 H 5527.44 4.03624 2.88621 0
M  V30 56618 N 5526.62 -0.103492 1.5726 0
M  V30 56619 C 5527.89 -0.839706 1.76659 0
M  V30 56620 C 5528.27 -1.97338 0.749735 0
M  V30 56621 O 5527.62 -2.27405 -0.223386 0
M  V30 56622 C 5527.83 -1.34206 3.22164 0
M  V30 56623 C 5529.18 -1.78821 3.85108 0
M  V30 56624 O 5530.2 -1.43849 3.25862 0
M  V30 56625 O 5529.06 -2.43457 4.89276 0
M  V30 56626 H 5526.16 -0.399902 0.723883 0
M  V30 56627 H 5528.7 -0.0860262 1.69482 0
M  V30 56628 H 5527.47 -0.529423 3.87702 0
M  V30 56629 H 5527.1 -2.158 3.3394 0
M  V30 56630 N 5528.09 -1.53096 -0.374097 0
M  V30 56631 C 5529.34 -1.68531 -1.11542 0
M  V30 56632 C 5529.66 -0.435319 -1.90079 0
M  V30 56633 O 5528.93 0.550528 -1.88005 0
M  V30 56634 H 5527.51 -0.62127 -0.414769 0
M  V30 56635 H 5530.18 -1.90259 -0.422778 0
M  V30 56636 H 5529.27 -2.54255 -1.81 0
M  V30 56637 N 5529.57 0.633411 -1.44311 0
M  V30 56638 C 5530.5 1.75863 -1.46986 0
M  V30 56639 C 5531.52 1.58689 -0.363525 0
M  V30 56640 O 5532.71 1.67045 -0.629134 0
M  V30 56641 C 5529.81 3.13555 -1.28593 0
M  V30 56642 C 5528.98 3.57208 -2.52431 0
M  V30 56643 C 5528.04 4.73771 -2.28971 0
M  V30 56644 O 5527.06 4.82199 -3.02445 0
M  V30 56645 N 5528.27 5.6532 -1.31885 0
M  V30 56646 H 5531.03 1.74039 -2.43989 0
M  V30 56647 H 5528.59 0.817903 -1.39721 0
M  V30 56648 H 5530.58 3.89251 -1.10749 0
M  V30 56649 H 5529.15 3.10035 -0.399638 0
M  V30 56650 H 5528.37 2.71745 -2.85567 0
M  V30 56651 H 5529.66 3.83124 -3.34804 0
M  V30 56652 H 5529.06 5.61202 -0.711987 0
M  V30 56653 H 5527.62 6.40655 -1.20021 0
M  V30 56654 N 5531.05 1.31171 0.873608 0
M  V30 56655 C 5532 1.18439 2.00187 0
M  V30 56656 C 5532.99 0.0935467 1.69142 0
M  V30 56657 O 5534.2 0.255188 1.78182 0
M  V30 56658 H 5530.57 0.366617 0.656579 0
M  V30 56659 H 5532.54 2.13903 2.08058 0
M  V30 56660 C 5531.29 0.904786 3.35721 0
M  V30 56661 H 5530.62 1.73629 3.60129 0
M  V30 56662 H 5532.06 0.855861 4.15272 0
M  V30 56663 C 5530.52 -0.392436 3.34607 0
M  V30 56664 O 5531.05 -1.41038 3.76126 0
M  V30 56665 N 5529.25 -0.407669 2.87726 0
M  V30 56666 H 5528.8 0.421209 2.54133 0
M  V30 56667 H 5528.76 -1.27554 2.87363 0
M  V30 56668 N 5532.53 -1.08744 1.14072 0
M  V30 56669 C 5533.81 -1.77687 0.817722 0
M  V30 56670 C 5534.19 -1.99525 -0.689431 0
M  V30 56671 O 5533.53 -1.60228 -1.62909 0
M  V30 56672 C 5533.74 -3.09512 1.61256 0
M  V30 56673 C 5535.09 -3.84102 1.80972 0
M  V30 56674 O 5536.12 -3.19283 1.57913 0
M  V30 56675 O 5534.97 -5.00483 2.19496 0
M  V30 56676 H 5532.07 -0.770943 0.299293 0
M  V30 56677 H 5534.61 -1.15237 1.24573 0
M  V30 56678 H 5533.39 -2.89146 2.63648 0
M  V30 56679 H 5533.01 -3.79688 1.17995 0
M  V30 56680 N 5534.01 -0.935308 -1.26845 0
M  V30 56681 C 5535.25 -0.587156 -1.95785 0
M  V30 56682 C 5535.61 0.856914 -1.71817 0
M  V30 56683 O 5536.81 1.31371 -2.3451 0
M  V30 56684 C 5535.08 -0.913151 -3.45538 0
M  V30 56685 S 5536.64 -0.674659 -4.33583 0
M  V30 56686 H 5533.46 -0.216465 -0.677247 0
M  V30 56687 H 5536.06 -1.20537 -1.53919 0
M  V30 56688 H 5534.77 -1.96166 -3.60481 0
M  V30 56689 H 5534.3 -0.284428 -3.9237 0
M  V30 56690 H 5536.31 0.463947 -4.94026 0
M  V30 56691 N 5535.48 1.41118 -0.701666 0
M  V30 56692 C 5536.73 2.00732 -0.234753 0
M  V30 56693 C 5537.05 1.55874 1.17168 0
M  V30 56694 O 5536.32 0.792028 1.79175 0
M  V30 56695 H 5534.9 0.742285 -0.0838006 0
M  V30 56696 H 5537.57 1.72657 -0.904188 0
M  V30 56697 H 5536.66 3.11041 -0.25694 0
M  V30 56698 N 5536.96 0.446847 1.51133 0
M  V30 56699 C 5538.24 -0.176824 1.94799 0
M  V30 56700 C 5538.62 -1.59224 1.38604 0
M  V30 56701 O 5537.97 -2.21095 0.576982 0
M  V30 56702 C 5538.18 -0.144878 3.48699 0
M  V30 56703 C 5539.53 -0.345768 4.2319 0
M  V30 56704 O 5540.55 -0.222566 3.55504 0
M  V30 56705 O 5539.41 -0.591921 5.43285 0
M  V30 56706 H 5536.5 -0.124832 0.817524 0
M  V30 56707 H 5539.05 0.50551 1.61996 0
M  V30 56708 H 5537.82 0.844291 3.82083 0
M  V30 56709 H 5537.44 -0.869715 3.87971 0
M  V30 56710 N 5538.44 -1.56585 0.178542 0
M  V30 56711 C 5539.39 -2.19634 -0.765745 0
M  V30 56712 C 5540.38 -1.16252 -1.23215 0
M  V30 56713 O 5541.59 -1.34435 -1.19697 0
M  V30 56714 H 5537.96 -0.70367 -0.265239 0
M  V30 56715 H 5539.93 -2.97659 -0.210102 0
M  V30 56716 C 5538.68 -2.85693 -1.98178 0
M  V30 56717 H 5538.01 -3.64977 -1.63193 0
M  V30 56718 H 5539.45 -3.33268 -2.62123 0
M  V30 56719 C 5537.91 -1.85847 -2.81002 0
M  V30 56720 O 5538.44 -1.34843 -3.78392 0
M  V30 56721 N 5536.64 -1.54444 -2.46162 0
M  V30 56722 H 5536.19 -1.96113 -1.67025 0
M  V30 56723 H 5536.15 -0.878914 -3.01865 0
M  V30 56724 N 5539.92 0.0951507 -1.57313 0
M  V30 56725 C 5541.14 0.816073 -1.9067 0
M  V30 56726 C 5541.57 1.71491 -0.772806 0
M  V30 56727 O 5540.93 1.79193 0.275619 0
M  V30 56728 C 5540.97 1.60544 -3.2289 0
M  V30 56729 O 5540.08 2.71437 -3.10476 0
M  V30 56730 H 5539.42 0.224195 -0.625006 0
M  V30 56731 H 5541.95 0.0703921 -2.04479 0
M  V30 56732 H 5541.96 1.98967 -3.56197 0
M  V30 56733 H 5540.63 0.945775 -4.05004 0
M  V30 56734 H 5539.21 2.36043 -2.88684 0
M  V30 56735 N 5541.4 1.53292 0.365972 0
M  V30 56736 C 5542.67 1.60059 1.1243 0
M  V30 56737 C 5543.05 0.407884 2.07122 0
M  V30 56738 O 5542.4 -0.6019 2.2043 0
M  V30 56739 C 5542.61 2.95068 1.86375 0
M  V30 56740 C 5543.96 3.49631 2.40922 0
M  V30 56741 O 5544.98 2.97095 1.96502 0
M  V30 56742 O 5543.84 4.41473 3.22124 0
M  V30 56743 H 5540.94 0.646494 0.515727 0
M  V30 56744 H 5543.48 1.65634 0.369268 0
M  V30 56745 H 5542.25 3.73316 1.17264 0
M  V30 56746 H 5541.88 2.92983 2.68788 0
M  V30 56747 N 5542.88 -0.625749 1.44645 0
M  V30 56748 C 5543.79 -1.76606 1.54426 0
M  V30 56749 C 5544.8 -1.68612 0.429636 0
M  V30 56750 O 5545.98 -1.89293 0.687753 0
M  V30 56751 C 5543.04 -3.1301 1.49082 0
M  V30 56752 C 5542.1 -3.32595 2.71439 0
M  V30 56753 C 5541.34 -4.62491 2.66341 0
M  V30 56754 O 5541.56 -5.43645 1.72645 0
M  V30 56755 O 5540.49 -4.84395 3.57275 0
M  V30 56756 H 5544.32 -1.71306 2.50775 0
M  V30 56757 H 5541.9 -0.787633 1.26952 0
M  V30 56758 H 5543.79 -3.94313 1.48645 0
M  V30 56759 H 5542.46 -3.1884 0.558798 0
M  V30 56760 H 5541.37 -2.5095 2.77444 0
M  V30 56761 H 5542.7 -3.3163 3.63707 0
M  V30 56762 N 5544.35 -1.31632 -0.86664 0
M  V30 56763 C 5545.26 -1.21531 -2.00667 0
M  V30 56764 C 5546.28 -0.131338 -1.73504 0
M  V30 56765 O 5547.46 -0.349769 -1.9834 0
M  V30 56766 C 5544.52 -0.926608 -3.34088 0
M  V30 56767 C 5543.58 -2.09782 -3.74553 0
M  V30 56768 C 5542.81 -1.82279 -5.01607 0
M  V30 56769 O 5543.04 -0.759528 -5.65321 0
M  V30 56770 O 5541.97 -2.6805 -5.38918 0
M  V30 56771 H 5545.8 -2.17343 -2.12122 0
M  V30 56772 H 5543.38 -1.11404 -0.99546 0
M  V30 56773 H 5545.26 -0.781586 -4.14088 0
M  V30 56774 H 5543.94 0.0014445 -3.237 0
M  V30 56775 H 5542.85 -2.29826 -2.95179 0
M  V30 56776 H 5544.18 -3.00824 -3.89571 0
M  V30 56777 N 5545.83 1.08138 -1.14647 0
M  V30 56778 C 5546.78 2.17226 -0.831589 0
M  V30 56779 C 5547.77 1.68312 0.191671 0
M  V30 56780 O 5548.98 1.79937 0.0474963 0
M  V30 56781 H 5545.35 0.708798 -0.251215 0
M  V30 56782 H 5547.33 2.41008 -1.75948 0
M  V30 56783 C 5546.07 3.46145 -0.328469 0
M  V30 56784 H 5545.4 3.84162 -1.10721 0
M  V30 56785 H 5546.84 4.23746 -0.146717 0
M  V30 56786 C 5545.3 3.23273 0.94848 0
M  V30 56787 O 5545.83 3.47118 2.02167 0
M  V30 56788 N 5544.03 2.76802 0.884812 0
M  V30 56789 H 5543.58 2.57598 0.0113084 0
M  V30 56790 H 5543.54 2.61878 1.73976 0
M  V30 56791 N 5547.31 0.942022 1.26348 0
M  V30 56792 C 5548.55 0.59753 1.95471 0
M  V30 56793 C 5548.91 -0.84779 1.72269 0
M  V30 56794 O 5550.11 -1.30126 2.35204 0
M  V30 56795 C 5548.39 0.931463 3.45049 0
M  V30 56796 S 5549.94 0.697643 4.33219 0
M  V30 56797 H 5546.76 0.220054 0.67609 0
M  V30 56798 H 5549.36 1.21352 1.53278 0
M  V30 56799 H 5548.07 1.98075 3.59436 0
M  V30 56800 H 5547.6 0.305233 3.92214 0
M  V30 56801 H 5549.61 -0.437741 4.94265 0
M  V30 56802 N 5548.79 -1.40744 0.70914 0
M  V30 56803 C 5549.75 -2.29118 0.0612412 0
M  V30 56804 C 5550.75 -1.45051 -0.69403 0
M  V30 56805 O 5551.94 -1.66041 -0.526893 0
M  V30 56806 C 5549.07 -3.28158 -0.923332 0
M  V30 56807 H 5550.27 -2.8791 0.839515 0
M  V30 56808 H 5547.82 -1.48958 0.473416 0
M  V30 56809 H 5548.55 -2.74372 -1.72889 0
M  V30 56810 H 5548.34 -3.90208 -0.384725 0
M  V30 56811 H 5549.83 -3.94348 -1.37403 0
M  V30 56812 N 5550.27 -0.454856 -1.50893 0
M  V30 56813 C 5551.68 0.00414649 -1.867 0
M  V30 56814 C 5552.03 1.40365 -1.37084 0
M  V30 56815 O 5551.15 2.03753 -0.728956 0
M  V30 56816 C 5551.75 0.0143005 -3.38797 0
M  V30 56817 C 5550.31 0.417773 -3.74074 0
M  V30 56818 C 5549.45 -0.378107 -2.7471 0
M  V30 56819 H 5552.4 -0.669899 -1.43868 0
M  V30 56820 H 5552.43 0.820041 -3.71558 0
M  V30 56821 H 5551.94 -1.0044 -3.74878 0
M  V30 56822 H 5550.04 1.44143 -3.43589 0
M  V30 56823 H 5550.15 0.130399 -4.78923 0
M  V30 56824 H 5548.52 0.166 -2.54158 0
M  V30 56825 H 5549.3 -1.39601 -3.13634 0
M  V30 56826 N 5551.74 1.56489 -0.186844 0
M  V30 56827 C 5553.16 1.58701 0.169121 0
M  V30 56828 C 5553.36 1.20275 1.61667 0
M  V30 56829 O 5552.42 0.921622 2.35079 0
M  V30 56830 C 5553.73 3.00437 -0.125762 0
M  V30 56831 C 5555.28 3.12932 -0.06521 0
M  V30 56832 C 5555.75 4.56786 -0.333291 0
M  V30 56833 N 5557.24 4.62343 -0.281616 0
M  V30 56834 C 5557.98 5.71528 -0.463005 0
M  V30 56835 N 5557.47 6.89211 -0.704297 0
M  V30 56836 N 5559.27 5.6069 -0.397833 0
M  V30 56837 H 5551.42 1.7975 -1.13154 0
M  V30 56838 H 5553.68 0.833834 -0.451027 0
M  V30 56839 H 5553.39 3.33082 -1.12912 0
M  V30 56840 H 5553.26 3.72784 0.575481 0
M  V30 56841 H 5555.65 2.80104 0.928747 0
M  V30 56842 H 5555.73 2.42988 -0.799403 0
M  V30 56843 H 5555.37 4.90325 -1.32453 0
M  V30 56844 H 5555.3 5.24909 0.421695 0
M  V30 56845 H 5557.79 3.77764 -0.101399 0
M  V30 56846 H 5558.11 7.68311 -0.831738 0
M  V30 56847 H 5556.45 6.91037 -0.741094 0
M  V30 56848 H 5559.64 4.6763 -0.209804 0
M  V30 56849 H 5559.82 6.45724 -0.542617 0
M  V30 56850 N 5553.22 -0.0868067 1.57361 0
M  V30 56851 C 5554.13 -1.1229 2.05981 0
M  V30 56852 C 5555.15 -1.43344 0.986335 0
M  V30 56853 O 5556.32 -1.5382 1.30005 0
M  V30 56854 C 5553.39 -2.42123 2.48148 0
M  V30 56855 C 5552.45 -2.18176 3.69727 0
M  V30 56856 C 5551.68 -3.41818 4.09873 0
M  V30 56857 O 5551.91 -4.50371 3.50032 0
M  V30 56858 O 5550.84 -3.30916 5.0277 0
M  V30 56859 H 5554.67 -0.739908 2.94549 0
M  V30 56860 H 5552.25 -0.299898 1.46359 0
M  V30 56861 H 5554.13 -3.18558 2.75859 0
M  V30 56862 H 5552.81 -2.79831 1.62715 0
M  V30 56863 H 5551.71 -1.39493 3.4712 0
M  V30 56864 H 5553.05 -1.85356 4.55965 0
M  V30 56865 N 5554.7 -1.53484 -0.357838 0
M  V30 56866 C 5555.94 -1.71747 -1.10825 0
M  V30 56867 C 5556.3 -0.463369 -1.86325 0
M  V30 56868 O 5557.5 -0.522807 -2.63667 0
M  V30 56869 C 5555.78 -2.93748 -2.03585 0
M  V30 56870 S 5557.33 -3.32754 -2.86042 0
M  V30 56871 H 5554.15 -0.60426 -0.374688 0
M  V30 56872 H 5556.75 -1.91601 -0.388498 0
M  V30 56873 H 5555.46 -3.8321 -1.46895 0
M  V30 56874 H 5554.99 -2.76319 -2.80021 0
M  V30 56875 H 5557 -2.85372 -4.05928 0
M  V30 56876 N 5556.18 0.618069 -1.44975 0
M  V30 56877 C 5557.41 1.40424 -1.5195 0
M  V30 56878 C 5557.82 1.88214 -0.148622 0
M  V30 56879 O 5557.18 1.61606 0.847922 0
M  V30 56880 C 5557.23 2.61579 -2.49517 0
M  V30 56881 O 5556.95 2.15778 -3.81276 0
M  V30 56882 C 5558.45 3.5456 -2.66086 0
M  V30 56883 H 5555.67 0.430212 -0.514936 0
M  V30 56884 H 5558.21 0.754724 -1.90064 0
M  V30 56885 H 5556.37 3.22594 -2.14503 0
M  V30 56886 H 5556.78 2.94419 -4.34071 0
M  V30 56887 H 5558.26 4.36143 -3.38354 0
M  V30 56888 H 5558.73 4.04221 -1.71761 0
M  V30 56889 H 5559.34 2.99406 -3.02054 0
M  V30 56890 N 5557.66 1.3209 0.859647 0
M  V30 56891 C 5558.57 1.22594 2.0002 0
M  V30 56892 C 5559.58 0.140538 1.73432 0
M  V30 56893 O 5560.76 0.360282 1.98151 0
M  V30 56894 C 5557.82 0.944313 3.33592 0
M  V30 56895 C 5556.88 2.11765 3.73435 0
M  V30 56896 C 5556.12 1.84937 5.00634 0
M  V30 56897 O 5556.34 0.789498 5.6491 0
M  V30 56898 O 5555.27 2.70904 5.37489 0
M  V30 56899 H 5559.1 2.18465 2.10967 0
M  V30 56900 H 5556.69 1.11931 0.989538 0
M  V30 56901 H 5558.57 0.803535 4.13668 0
M  V30 56902 H 5557.24 0.0157221 3.23696 0
M  V30 56903 H 5556.15 2.31388 2.93956 0
M  V30 56904 H 5557.48 3.02886 3.8797 0
M  V30 56905 N 5559.13 -1.07528 1.15219 0
M  V30 56906 C 5560.36 -1.84353 0.950204 0
M  V30 56907 C 5560.78 -1.81431 -0.496438 0
M  V30 56908 O 5560.14 -1.20594 -1.35377 0
M  V30 56909 C 5560.19 -3.29419 1.46681 0
M  V30 56910 O 5559.29 -4.07006 0.664817 0
M  V30 56911 H 5558.64 -0.570909 0.339056 0
M  V30 56912 H 5561.17 -1.3566 1.53159 0
M  V30 56913 H 5561.18 -3.80255 1.47886 0
M  V30 56914 H 5559.85 -3.30861 2.51999 0
M  V30 56915 H 5558.43 -3.65839 0.722238 0
M  V30 56916 N 5560.61 -0.948709 -1.25846 0
M  V30 56917 C 5561.52 -0.470606 -2.29831 0
M  V30 56918 C 5562.54 0.459131 -1.67833 0
M  V30 56919 O 5563.71 0.336823 -1.98564 0
M  V30 56920 C 5560.78 0.249513 -3.45801 0
M  V30 56921 C 5559.84 -0.717708 -4.23258 0
M  V30 56922 C 5559.07 -0.03186 -5.3369 0
M  V30 56923 O 5559.3 1.18365 -5.57984 0
M  V30 56924 O 5558.23 -0.71439 -5.97645 0
M  V30 56925 H 5562.06 -1.33456 -2.72806 0
M  V30 56926 H 5559.64 -0.714911 -1.31185 0
M  V30 56927 H 5561.52 0.654847 -4.16281 0
M  V30 56928 H 5560.2 1.08874 -3.04841 0
M  V30 56929 H 5559.11 -1.17313 -3.5523 0
M  V30 56930 H 5560.44 -1.52477 -4.67987 0
M  V30 56931 N 5562.09 1.40366 -0.716594 0
M  V30 56932 C 5563.34 2.00868 -0.256536 0
M  V30 56933 C 5563.67 1.5682 1.15056 0
M  V30 56934 O 5562.92 0.77976 1.79494 0
M  V30 56935 C 5563.22 3.56256 -0.285708 0
M  V30 56936 C 5562.89 4.19891 -1.64324 0
M  V30 56937 C 5561.55 4.36987 -2.01484 0
M  V30 56938 C 5563.9 4.55376 -2.5354 0
M  V30 56939 C 5561.23 4.86851 -3.27404 0
M  V30 56940 C 5563.58 5.06639 -3.78813 0
M  V30 56941 C 5562.24 5.21944 -4.16089 0
M  V30 56942 H 5561.51 0.73503 -0.0938733 0
M  V30 56943 H 5564.16 1.67963 -0.919824 0
M  V30 56944 H 5562.47 3.89077 0.461151 0
M  V30 56945 H 5564.16 4.00903 0.0881086 0
M  V30 56946 H 5560.75 4.06973 -1.34427 0
M  V30 56947 H 5564.94 4.41803 -2.26105 0
M  V30 56948 H 5560.19 4.96885 -3.56252 0
M  V30 56949 H 5564.37 5.33073 -4.48114 0
M  V30 56950 H 5561.99 5.60344 -5.1373 0
M  V30 56951 N 5563.57 0.462852 1.5065 0
M  V30 56952 C 5564.98 0.116536 1.59174 0
M  V30 56953 C 5565.18 -1.37633 1.47172 0
M  V30 56954 O 5564.24 -2.14882 1.32598 0
M  V30 56955 C 5565.55 0.659392 2.93381 0
M  V30 56956 C 5567.1 0.622088 3.06756 0
M  V30 56957 C 5567.58 1.14235 4.43525 0
M  V30 56958 N 5569.07 1.10141 4.49915 0
M  V30 56959 C 5569.8 1.47456 5.54116 0
M  V30 56960 N 5569.3 1.9218 6.65612 0
M  V30 56961 N 5571.09 1.39111 5.44614 0
M  V30 56962 H 5563.24 1.43388 1.56696 0
M  V30 56963 H 5565.51 0.592464 0.740061 0
M  V30 56964 H 5565.21 1.70488 3.07615 0
M  V30 56965 H 5565.09 0.0983714 3.77072 0
M  V30 56966 H 5567.47 -0.414473 2.92175 0
M  V30 56967 H 5567.55 1.21982 2.24842 0
M  V30 56968 H 5567.2 2.1775 4.58854 0
M  V30 56969 H 5567.13 0.520914 5.24017 0
M  V30 56970 H 5569.62 0.773284 3.69904 0
M  V30 56971 H 5569.93 2.18822 7.41172 0
M  V30 56972 H 5568.28 1.96126 6.66753 0
M  V30 56973 H 5571.47 1.04017 4.56397 0
M  V30 56974 H 5571.64 1.68518 6.25704 0
M  V30 56975 N 5565.05 -1.56387 0.19514 0
M  V30 56976 C 5566.29 -1.9948 -0.445785 0
M  V30 56977 C 5566.65 -1.07925 -1.58796 0
M  V30 56978 O 5567.85 -1.40254 -2.29308 0
M  V30 56979 C 5566.12 -3.46035 -0.894127 0
M  V30 56980 S 5567.68 -4.11155 -1.53288 0
M  V30 56981 H 5564.5 -0.696563 -0.142551 0
M  V30 56982 H 5567.1 -1.93212 0.298217 0
M  V30 56983 H 5565.81 -4.10366 -0.0527815 0
M  V30 56984 H 5565.34 -3.5612 -1.67159 0
M  V30 56985 H 5567.35 -4.08165 -2.82163 0
M  V30 56986 N 5566.52 0.0784603 -1.57405 0
M  V30 56987 C 5567.77 0.780026 -1.87199 0
M  V30 56988 C 5568.1 1.77559 -0.786532 0
M  V30 56989 O 5567.38 1.93429 0.203867 0
M  V30 56990 C 5567.66 1.49396 -3.27647 0
M  V30 56991 C 5567.51 0.515259 -4.46839 0
M  V30 56992 C 5568.83 2.44051 -3.66234 0
M  V30 56993 H 5565.95 0.28211 -0.680869 0
M  V30 56994 H 5568.59 0.0433258 -1.89951 0
M  V30 56995 H 5566.74 2.12193 -3.25432 0
M  V30 56996 H 5568.42 -0.106989 -4.61176 0
M  V30 56997 H 5566.66 -0.169984 -4.33467 0
M  V30 56998 H 5567.33 1.05228 -5.41877 0
M  V30 56999 H 5569.81 1.91336 -3.69499 0
M  V30 57000 H 5568.68 2.91012 -4.65406 0
M  V30 57001 H 5568.94 3.28558 -2.95807 0
M  V30 57002 N 5568 1.53671 0.349693 0
M  V30 57003 C 5568.95 1.81919 1.44942 0
M  V30 57004 C 5569.94 0.689273 1.54743 0
M  V30 57005 O 5571.15 0.872503 1.5744 0
M  V30 57006 H 5567.53 0.576251 0.483156 0
M  V30 57007 H 5569.5 2.73936 1.18329 0
M  V30 57008 C 5568.25 2.04015 2.81555 0
M  V30 57009 H 5567.57 2.90409 2.74778 0
M  V30 57010 H 5569.01 2.27749 3.5764 0
M  V30 57011 C 5567.47 0.823863 3.26671 0
M  V30 57012 O 5568 0.0202763 4.01695 0
M  V30 57013 N 5566.2 0.642815 2.83401 0
M  V30 57014 H 5565.75 1.29791 2.22513 0
M  V30 57015 H 5565.71 -0.169544 3.13943 0
M  V30 57016 N 5569.48 -0.610372 1.453 0
M  V30 57017 C 5570.41 -1.73502 1.49766 0
M  V30 57018 C 5571.43 -1.58091 0.388725 0
M  V30 57019 O 5572.61 -1.66023 0.65563 0
M  V30 57020 C 5569.71 -3.1147 1.33565 0
M  V30 57021 C 5568.89 -3.53147 2.58082 0
M  V30 57022 C 5567.95 -4.70068 2.36479 0
M  V30 57023 O 5566.97 -4.77326 3.10078 0
M  V30 57024 N 5568.17 -5.6315 1.40862 0
M  V30 57025 H 5570.94 -1.70136 2.46727 0
M  V30 57026 H 5568.5 -0.795571 1.41005 0
M  V30 57027 H 5570.49 -3.8744 1.16928 0
M  V30 57028 H 5569.06 -3.0936 0.448912 0
M  V30 57029 H 5568.28 -2.67167 2.89854 0
M  V30 57030 H 5569.57 -3.77749 3.40856 0
M  V30 57031 H 5568.97 -5.59998 0.801179 0
M  V30 57032 H 5567.53 -6.38664 1.30198 0
M  V30 57033 N 5570.96 -1.32544 -0.85263 0
M  V30 57034 C 5571.89 -1.17478 -1.96803 0
M  V30 57035 C 5572.9 -0.109255 -1.62433 0
M  V30 57036 O 5574.09 -0.358403 -1.74865 0
M  V30 57037 C 5571.19 -0.776444 -3.29886 0
M  V30 57038 C 5570.37 -1.93069 -3.92483 0
M  V30 57039 C 5569.42 -1.51557 -5.03902 0
M  V30 57040 O 5568.45 -2.22789 -5.23788 0
M  V30 57041 N 5569.65 -0.412737 -5.79031 0
M  V30 57042 H 5572.42 -2.13558 -2.10269 0
M  V30 57043 H 5569.98 -1.25108 -1.0276 0
M  V30 57044 H 5571.97 -0.481101 -4.0183 0
M  V30 57045 H 5570.54 0.0932651 -3.12461 0
M  V30 57046 H 5569.76 -2.39242 -3.133 0
M  V30 57047 H 5571.05 -2.70337 -4.3104 0
M  V30 57048 H 5570.45 0.180087 -5.65413 0
M  V30 57049 H 5569 -0.177009 -6.5156 0
M  V30 57050 N 5572.44 1.06915 -1.15788 0
M  V30 57051 C 5573.68 1.81187 -0.946082 0
M  V30 57052 C 5574.04 1.84901 0.517273 0
M  V30 57053 O 5575.24 2.55088 0.847553 0
M  V30 57054 C 5573.51 3.22097 -1.54883 0
M  V30 57055 S 5575.07 4.1306 -1.48077 0
M  V30 57056 H 5571.89 0.624228 -0.340383 0
M  V30 57057 H 5574.49 1.28406 -1.47418 0
M  V30 57058 H 5573.2 3.16985 -2.6067 0
M  V30 57059 H 5572.73 3.79953 -1.01978 0
M  V30 57060 H 5574.74 4.93905 -0.476691 0
M  V30 57061 N 5573.92 0.95537 1.25341 0
M  V30 57062 C 5575.16 0.606216 1.92374 0
M  V30 57063 C 5575.48 -0.860865 1.75637 0
M  V30 57064 O 5576.68 -1.32001 2.37251 0
M  V30 57065 C 5575.14 1.03353 3.44741 0
M  V30 57066 C 5574.75 2.52321 3.70187 0
M  V30 57067 C 5576.49 0.756944 4.17697 0
M  V30 57068 C 5574.4 2.88849 5.16062 0
M  V30 57069 H 5573.33 0.223019 0.720263 0
M  V30 57070 H 5575.98 1.15992 1.4219 0
M  V30 57071 H 5574.36 0.408234 3.9389 0
M  V30 57072 H 5575.54 3.19876 3.31687 0
M  V30 57073 H 5573.85 2.77459 3.10492 0
M  V30 57074 H 5576.45 1.00601 5.25151 0
M  V30 57075 H 5576.79 -0.306648 4.15169 0
M  V30 57076 H 5577.32 1.34262 3.74458 0
M  V30 57077 H 5574.06 3.94229 5.23702 0
M  V30 57078 H 5573.58 2.25968 5.55607 0
M  V30 57079 H 5575.26 2.78082 5.84191 0
M  V30 57080 N 5575.39 -1.39984 0.724028 0
M  V30 57081 C 5576.8 -1.83605 0.338526 0
M  V30 57082 C 5577.16 -1.60514 -1.12826 0
M  V30 57083 O 5576.28 -1.09047 -1.86916 0
M  V30 57084 C 5576.88 -3.33306 0.60765 0
M  V30 57085 C 5575.43 -3.75388 0.275764 0
M  V30 57086 C 5574.58 -2.63107 0.875791 0
M  V30 57087 H 5577.53 -1.29132 0.922528 0
M  V30 57088 H 5577.55 -3.80297 -0.12429 0
M  V30 57089 H 5577.07 -3.50081 1.67526 0
M  V30 57090 H 5575.17 -3.64206 -0.786451 0
M  V30 57091 H 5575.28 -4.73183 0.750659 0
M  V30 57092 H 5573.64 -2.52889 0.303211 0
M  V30 57093 H 5574.43 -2.82691 1.94784 0
M  V30 57094 N 5576.87 -0.470835 -1.50402 0
M  V30 57095 C 5578.1 0.0842111 -2.07229 0
M  V30 57096 C 5578.52 1.32769 -1.33244 0
M  V30 57097 O 5577.88 1.77272 -0.380033 0
M  V30 57098 C 5577.93 0.351439 -3.58883 0
M  V30 57099 O 5577.03 1.43197 -3.86741 0
M  V30 57100 H 5576.37 -0.0128712 -0.663875 0
M  V30 57101 H 5578.9 -0.661803 -1.93601 0
M  V30 57102 H 5578.91 0.592009 -4.03682 0
M  V30 57103 H 5577.59 -0.557229 -4.1215 0
M  V30 57104 H 5576.16 1.17873 -3.5378 0
M  V30 57105 N 5578.35 1.56282 -0.203431 0
M  V30 57106 C 5579.77 1.58872 0.152279 0
M  V30 57107 C 5579.97 1.21983 1.60382 0
M  V30 57108 O 5579.02 0.946504 2.34089 0
M  V30 57109 C 5580.33 3.00287 -0.157621 0
M  V30 57110 C 5581.88 3.12845 -0.098397 0
M  V30 57111 C 5582.36 4.56406 -0.381721 0
M  V30 57112 N 5583.85 4.62018 -0.330638 0
M  V30 57113 C 5584.58 5.71004 -0.523598 0
M  V30 57114 N 5584.08 6.88425 -0.777357 0
M  V30 57115 N 5585.87 5.60237 -0.457279 0
M  V30 57116 H 5578.02 1.78539 -1.15054 0
M  V30 57117 H 5580.29 0.829003 -0.459845 0
M  V30 57118 H 5579.99 3.31866 -1.16439 0
M  V30 57119 H 5579.87 3.73374 0.53591 0
M  V30 57120 H 5582.25 2.81073 0.898986 0
M  V30 57121 H 5582.33 2.42126 -0.825131 0
M  V30 57122 H 5581.98 4.88893 -1.37646 0
M  V30 57123 H 5581.91 5.25327 0.365998 0
M  V30 57124 H 5584.4 3.77635 -0.14146 0
M  V30 57125 H 5584.71 7.67386 -0.913181 0
M  V30 57126 H 5583.06 6.90213 -0.814346 0
M  V30 57127 H 5586.25 4.67381 -0.259391 0
M  V30 57128 H 5586.42 6.45112 -0.611074 0
M  V30 57129 N 5579.83 -0.0701116 1.57444 0
M  V30 57130 C 5581.07 -0.764833 1.88472 0
M  V30 57131 C 5581.43 -1.75101 0.797325 0
M  V30 57132 O 5580.72 -1.90571 -0.198344 0
M  V30 57133 C 5580.92 -1.51099 3.23889 0
M  V30 57134 C 5580.74 -0.598576 4.45699 0
M  V30 57135 C 5579.51 -0.234889 5.04754 0
M  V30 57136 C 5581.71 0.105415 5.14192 0
M  V30 57137 N 5579.69 0.68307 6.10088 0
M  V30 57138 C 5581.07 0.880502 6.13716 0
M  V30 57139 C 5583.12 0.176709 4.97586 0
M  V30 57140 C 5581.82 1.72026 6.98426 0
M  V30 57141 C 5583.85 1.00345 5.82825 0
M  V30 57142 C 5583.21 1.76658 6.81888 0
M  V30 57143 H 5579.31 -0.255252 0.739169 0
M  V30 57144 H 5581.89 -0.0262871 1.94682 0
M  V30 57145 H 5580.07 -2.22025 3.18684 0
M  V30 57146 H 5581.8 -2.15486 3.42561 0
M  V30 57147 H 5578.55 -0.588118 4.69934 0
M  V30 57148 H 5578.98 1.13534 6.67412 0
M  V30 57149 H 5583.62 -0.398959 4.20913 0
M  V30 57150 H 5581.34 2.30689 7.74473 0
M  V30 57151 H 5584.92 1.06161 5.72032 0
M  V30 57152 H 5583.8 2.39599 7.46701 0
M  V30 57153 N 5581.31 -1.53855 -0.341539 0
M  V30 57154 C 5582.55 -1.70413 -1.07899 0
M  V30 57155 C 5582.87 -0.475106 -1.89742 0
M  V30 57156 O 5584.07 -0.521683 -2.66441 0
M  V30 57157 C 5582.53 -3.01349 -1.96766 0
M  V30 57158 C 5582.14 -4.31596 -1.2012 0
M  V30 57159 C 5583.88 -3.27274 -2.70356 0
M  V30 57160 C 5581.79 -5.53605 -2.08028 0
M  V30 57161 H 5580.72 -0.635019 -0.40653 0
M  V30 57162 H 5583.37 -1.80354 -0.338345 0
M  V30 57163 H 5581.75 -2.85271 -2.74657 0
M  V30 57164 H 5582.93 -4.58384 -0.471243 0
M  V30 57165 H 5581.24 -4.123 -0.582894 0
M  V30 57166 H 5583.84 -4.15618 -3.36401 0
M  V30 57167 H 5584.18 -2.44369 -3.3703 0
M  V30 57168 H 5584.71 -3.44137 -1.99536 0
M  V30 57169 H 5581.45 -6.39059 -1.45892 0
M  V30 57170 H 5580.97 -5.31062 -2.78807 0
M  V30 57171 H 5582.65 -5.89323 -2.67034 0
M  V30 57172 N 5582.78 0.602658 -1.45622 0
M  V30 57173 C 5584.02 1.37279 -1.5144 0
M  V30 57174 C 5584.39 1.9138 -0.154216 0
M  V30 57175 O 5585.59 2.68659 -0.0870954 0
M  V30 57176 C 5583.86 2.48642 -2.56733 0
M  V30 57177 S 5585.42 3.36345 -2.81812 0
M  V30 57178 H 5582.24 0.467961 -0.535288 0
M  V30 57179 H 5584.84 0.694893 -1.82733 0
M  V30 57180 H 5583.54 2.07255 -3.54223 0
M  V30 57181 H 5583.07 3.21226 -2.27106 0
M  V30 57182 H 5585.09 4.4693 -2.15565 0
M  V30 57183 N 5584.26 1.32995 0.845589 0
M  V30 57184 C 5585.54 1.14677 1.58457 0
M  V30 57185 C 5585.92 -0.289425 2.09107 0
M  V30 57186 O 5585.27 -1.28745 1.88778 0
M  V30 57187 C 5585.48 2.18215 2.72366 0
M  V30 57188 C 5586.82 2.52022 3.41717 0
M  V30 57189 O 5587.85 2.16831 2.826 0
M  V30 57190 O 5586.71 3.12383 4.48418 0
M  V30 57191 H 5583.8 0.443113 0.698269 0
M  V30 57192 H 5586.35 1.44555 0.888928 0
M  V30 57193 H 5585.12 3.14715 2.3253 0
M  V30 57194 H 5584.74 1.89384 3.49599 0
M  V30 57195 N 5585.74 -1.063 1.16353 0
M  V30 57196 C 5586.69 -2.12029 0.838325 0
M  V30 57197 C 5587.67 -1.59865 -0.182198 0
M  V30 57198 O 5588.87 -1.7699 0.0186199 0
M  V30 57199 C 5585.99 -3.41601 0.341088 0
M  V30 57200 C 5585.08 -4.00591 1.39239 0
M  V30 57201 N 5585.47 -4.33694 2.60275 0
M  V30 57202 C 5583.77 -4.28194 1.24763 0
M  V30 57203 C 5584.47 -4.80583 3.27742 0
M  V30 57204 N 5583.45 -4.80014 2.55122 0
M  V30 57205 H 5587.25 -2.35469 1.75874 0
M  V30 57206 H 5584.76 -1.23841 1.05058 0
M  V30 57207 H 5586.76 -4.16803 0.0897095 0
M  V30 57208 H 5585.42 -3.196 -0.573257 0
M  V30 57209 H 5586.43 -4.24044 2.97333 0
M  V30 57210 H 5583.11 -4.15636 0.394033 0
M  V30 57211 H 5584.5 -5.15401 4.31059 0
M  V30 57212 N 5587.22 -0.962004 -1.24833 0
M  V30 57213 C 5588.45 -0.637283 -1.96525 0
M  V30 57214 C 5588.86 0.79632 -1.71626 0
M  V30 57215 O 5588.2 1.54521 -0.993426 0
M  V30 57216 C 5588.26 -0.825095 -3.49903 0
M  V30 57217 C 5587.93 -2.23725 -3.98492 0
M  V30 57218 C 5588.92 -3.21454 -4.08612 0
M  V30 57219 C 5586.61 -2.56342 -4.31965 0
M  V30 57220 C 5588.6 -4.49888 -4.5153 0
M  V30 57221 C 5586.29 -3.85004 -4.74568 0
M  V30 57222 C 5587.29 -4.81589 -4.84315 0
M  V30 57223 O 5586.97 -6.07957 -5.2597 0
M  V30 57224 H 5586.71 -0.237236 -0.633005 0
M  V30 57225 H 5589.26 -1.29086 -1.59768 0
M  V30 57226 H 5587.49 -0.114355 -3.86531 0
M  V30 57227 H 5589.18 -0.50032 -4.02805 0
M  V30 57228 H 5589.95 -2.97582 -3.82975 0
M  V30 57229 H 5585.82 -1.81887 -4.23601 0
M  V30 57230 H 5589.37 -5.25278 -4.59053 0
M  V30 57231 H 5585.27 -4.08678 -4.99652 0
M  V30 57232 H 5586.03 -6.1144 -5.44135 0
M  V30 57233 N 5588.7 1.39598 -0.731441 0
M  V30 57234 C 5589.64 2.32468 -0.0782145 0
M  V30 57235 C 5590.64 1.52875 0.729757 0
M  V30 57236 O 5591.84 1.68565 0.631343 0
M  V30 57237 H 5588.22 0.751972 -0.00649159 0
M  V30 57238 H 5590.19 2.85193 -0.877933 0
M  V30 57239 C 5588.94 3.37951 0.817598 0
M  V30 57240 H 5588.26 3.99273 0.205277 0
M  V30 57241 H 5589.7 4.05391 1.24234 0
M  V30 57242 C 5588.16 2.7471 1.95028 0
M  V30 57243 O 5588.69 2.62277 3.0426 0
M  V30 57244 N 5586.9 2.32851 1.73864 0
M  V30 57245 H 5586.44 2.43164 0.850235 0
M  V30 57246 H 5586.4 1.90878 2.49826 0
M  V30 57247 N 5590.17 0.478804 1.50151 0
M  V30 57248 C 5591.45 -0.135464 1.9513 0
M  V30 57249 C 5591.83 -1.56248 1.4195 0
M  V30 57250 O 5591.18 -2.19822 0.62375 0
M  V30 57251 C 5591.39 -0.070881 3.48928 0
M  V30 57252 C 5592.74 -0.255926 4.23828 0
M  V30 57253 O 5593.76 -0.147108 3.55896 0
M  V30 57254 O 5592.62 -0.476549 5.44418 0
M  V30 57255 H 5589.71 -0.107463 0.819988 0
M  V30 57256 H 5592.26 0.539758 1.60887 0
M  V30 57257 H 5591.03 0.925146 3.80206 0
M  V30 57258 H 5590.66 -0.787225 3.89729 0
M  V30 57259 N 5591.65 -1.56171 0.211716 0
M  V30 57260 C 5592.89 -1.99941 -0.424602 0
M  V30 57261 C 5593.26 -1.09603 -1.57642 0
M  V30 57262 O 5594.46 -1.42678 -2.27808 0
M  V30 57263 C 5592.73 -3.46964 -0.857375 0
M  V30 57264 S 5594.29 -4.12757 -1.48919 0
M  V30 57265 H 5591.11 -0.698036 -0.135155 0
M  V30 57266 H 5593.71 -1.92885 0.318693 0
M  V30 57267 H 5592.41 -4.10399 -0.00925372 0
M  V30 57268 H 5591.94 -3.57873 -1.63373 0
M  V30 57269 H 5593.96 -4.11134 -2.77818 0
M  V30 57270 N 5593.13 0.061761 -1.57479 0
M  V30 57271 C 5594.38 0.757503 -1.87367 0
M  V30 57272 C 5594.7 1.77604 -0.805087 0
M  V30 57273 O 5593.97 1.95203 0.165148 0
M  V30 57274 H 5592.55 0.282756 -0.691418 0
M  V30 57275 H 5595.21 0.0354669 -1.94868 0
M  V30 57276 H 5594.31 1.26748 -2.85204 0
M  V30 57277 N 5594.61 1.54034 0.333374 0
M  V30 57278 C 5595.89 1.62408 1.0901 0
M  V30 57279 C 5596.27 0.451725 2.0621 0
M  V30 57280 O 5595.61 -0.555008 2.21657 0
M  V30 57281 C 5595.82 2.98955 1.80074 0
M  V30 57282 C 5597.17 3.54663 2.33451 0
M  V30 57283 O 5598.2 3.01196 1.90156 0
M  V30 57284 O 5597.05 4.48206 3.12688 0
M  V30 57285 H 5594.15 0.657288 0.501898 0
M  V30 57286 H 5596.69 1.6638 0.334051 0
M  V30 57287 H 5595.47 3.75719 1.09319 0
M  V30 57288 H 5595.09 2.98618 2.62513 0
M  V30 57289 N 5596.09 -0.594927 1.4594 0
M  V30 57290 C 5597.03 -1.72595 1.55929 0
M  V30 57291 C 5598.03 -1.63892 0.428468 0
M  V30 57292 O 5599.23 -1.69533 0.604874 0
M  V30 57293 H 5595.61 -0.57043 0.490014 0
M  V30 57294 H 5597.58 -1.61299 2.51048 0
M  V30 57295 C 5596.33 -3.10983 1.55516 0
M  V30 57296 H 5595.65 -3.18344 2.41861 0
M  V30 57297 H 5597.09 -3.89915 1.66561 0
M  V30 57298 C 5595.55 -3.3572 0.281691 0
M  V30 57299 O 5596.08 -3.96678 -0.633197 0
M  V30 57300 N 5594.29 -2.90082 0.173416 0
M  V30 57301 H 5593.83 -2.40657 0.918805 0
M  V30 57302 H 5593.79 -3.07007 -0.677795 0
M  V30 57303 N 5597.56 -1.33441 -0.838524 0
M  V30 57304 C 5598.79 -1.28103 -1.63108 0
M  V30 57305 C 5599.21 0.145131 -1.87539 0
M  V30 57306 O 5598.57 1.10186 -1.43974 0
M  V30 57307 C 5598.62 -2.06211 -2.9582 0
M  V30 57308 O 5597.72 -1.42095 -3.87147 0
M  V30 57309 H 5597.07 -0.440703 -0.496666 0
M  V30 57310 H 5599.6 -1.76008 -1.04319 0
M  V30 57311 H 5599.61 -2.16989 -3.45514 0
M  V30 57312 H 5598.28 -3.0991 -2.7736 0
M  V30 57313 H 5596.86 -1.39965 -3.45636 0
M  V30 57314 N 5599.04 1.05681 -1.16915 0
M  V30 57315 C 5600.32 1.75456 -0.864545 0
M  V30 57316 C 5600.7 2.01282 0.636288 0
M  V30 57317 O 5600.05 1.64491 1.58603 0
M  V30 57318 C 5600.26 3.05128 -1.69405 0
M  V30 57319 C 5601.61 3.79169 -1.91092 0
M  V30 57320 O 5602.63 3.14984 -1.66323 0
M  V30 57321 O 5601.49 4.94488 -2.32688 0
M  V30 57322 H 5598.58 0.762737 -0.319627 0
M  V30 57323 H 5601.13 1.11894 -1.27584 0
M  V30 57324 H 5599.9 2.82054 -2.71222 0
M  V30 57325 H 5599.52 3.76426 -1.2802 0
M  V30 57326 N 5600.52 0.96861 1.24321 0
M  V30 57327 C 5601.43 0.507111 2.29054 0
M  V30 57328 C 5602.45 -0.432372 1.68542 0
M  V30 57329 O 5603.62 -0.30519 1.99074 0
M  V30 57330 C 5600.69 -0.194468 3.46154 0
M  V30 57331 C 5599.75 0.784954 4.22063 0
M  V30 57332 C 5598.98 0.116761 5.33572 0
M  V30 57333 O 5599.2 -1.09472 5.59796 0
M  V30 57334 O 5598.14 0.80938 5.96433 0
M  V30 57335 H 5601.96 1.3778 2.70648 0
M  V30 57336 H 5599.55 0.73569 1.30031 0
M  V30 57337 H 5601.43 -0.588538 4.1727 0
M  V30 57338 H 5600.11 -1.04011 3.06535 0
M  V30 57339 H 5599.01 1.2295 3.53319 0
M  V30 57340 H 5600.35 1.59903 4.65502 0
M  V30 57341 N 5602 -1.39208 0.738834 0
M  V30 57342 C 5603.42 -1.54115 0.414827 0
M  V30 57343 C 5603.62 -1.70501 -1.07386 0
M  V30 57344 O 5602.67 -1.70767 -1.85997 0
M  V30 57345 C 5603.98 -2.75666 1.2012 0
M  V30 57346 C 5605.53 -2.89504 1.1898 0
M  V30 57347 C 5606.01 -4.13998 1.95882 0
M  V30 57348 N 5607.5 -4.21045 1.93068 0
M  V30 57349 C 5608.23 -5.16332 2.49376 0
M  V30 57350 N 5607.73 -6.17385 3.14338 0
M  V30 57351 N 5609.52 -5.08576 2.39388 0
M  V30 57352 H 5601.67 -1.26821 1.70383 0
M  V30 57353 H 5603.94 -0.614957 0.721479 0
M  V30 57354 H 5603.64 -2.69914 2.25476 0
M  V30 57355 H 5603.52 -3.6844 0.808195 0
M  V30 57356 H 5605.9 -2.94747 0.144352 0
M  V30 57357 H 5605.98 -1.97783 1.62221 0
M  V30 57358 H 5605.63 -4.09517 3.0043 0
M  V30 57359 H 5605.56 -5.04771 1.50045 0
M  V30 57360 H 5608.05 -3.48664 1.45745 0
M  V30 57361 H 5608.36 -6.8656 3.54761 0
M  V30 57362 H 5606.71 -6.17761 3.18428 0
M  V30 57363 H 5609.9 -4.28567 1.88277 0
M  V30 57364 H 5610.07 -5.8266 2.83569 0
M  V30 57365 N 5603.48 -0.48676 -1.49895 0
M  V30 57366 C 5604.75 0.125114 -1.95199 0
M  V30 57367 C 5605.13 1.55493 -1.42776 0
M  V30 57368 O 5604.48 2.19488 -0.635399 0
M  V30 57369 C 5604.69 0.0523755 -3.48961 0
M  V30 57370 C 5606.04 0.233446 -4.23958 0
M  V30 57371 O 5607.06 0.128232 -3.55969 0
M  V30 57372 O 5605.92 0.447671 -5.44663 0
M  V30 57373 H 5603.02 0.103112 -0.820547 0
M  V30 57374 H 5605.56 -0.548283 -1.60599 0
M  V30 57375 H 5604.34 -0.945296 -3.7971 0
M  V30 57376 H 5603.96 0.766545 -3.90141 0
M  V30 57377 N 5604.96 1.56057 -0.219996 0
M  V30 57378 C 5606.2 2.00164 0.413993 0
M  V30 57379 C 5606.56 1.10438 1.57059 0
M  V30 57380 O 5607.76 1.43885 2.27048 0
M  V30 57381 C 5606.03 3.47414 0.838962 0
M  V30 57382 S 5607.59 4.13541 1.46728 0
M  V30 57383 H 5604.41 0.698743 0.131451 0
M  V30 57384 H 5607.01 1.92713 -0.328918 0
M  V30 57385 H 5605.71 4.10398 -0.0125109 0
M  V30 57386 H 5605.25 3.58734 1.61472 0
M  V30 57387 H 5607.26 4.12602 2.75634 0
M  V30 57388 N 5606.43 -0.0534086 1.57509 0
M  V30 57389 C 5607.34 -1.07895 2.08317 0
M  V30 57390 C 5608.36 -1.41219 1.01652 0
M  V30 57391 O 5609.54 -1.51028 1.33239 0
M  V30 57392 C 5606.6 -2.36805 2.53228 0
M  V30 57393 C 5605.66 -2.10284 3.74271 0
M  V30 57394 C 5604.89 -3.33047 4.17032 0
M  V30 57395 O 5605.12 -4.42845 3.59506 0
M  V30 57396 O 5604.05 -3.20177 5.09676 0
M  V30 57397 H 5607.88 -0.677264 2.96052 0
M  V30 57398 H 5605.46 -0.268786 1.46962 0
M  V30 57399 H 5607.34 -3.12635 2.82555 0
M  V30 57400 H 5606.02 -2.76317 1.68614 0
M  V30 57401 H 5604.93 -1.32099 3.50001 0
M  V30 57402 H 5606.26 -1.75642 4.59794 0
M  V30 57403 N 5607.91 -1.54208 -0.325201 0
M  V30 57404 C 5608.84 -1.78323 -1.42395 0
M  V30 57405 C 5609.82 -0.63313 -1.49767 0
M  V30 57406 O 5611.01 -0.870383 -1.67202 0
M  V30 57407 C 5608.13 -1.89832 -2.80502 0
M  V30 57408 C 5607.18 -3.12112 -2.90669 0
M  V30 57409 S 5608.01 -4.70755 -2.55246 0
M  V30 57410 C 5609.17 -4.85168 -3.95427 0
M  V30 57411 H 5609.4 -2.71238 -1.21726 0
M  V30 57412 H 5606.93 -1.4531 -0.521942 0
M  V30 57413 H 5608.89 -1.97149 -3.60059 0
M  V30 57414 H 5607.55 -0.978977 -2.98454 0
M  V30 57415 H 5606.75 -3.16895 -3.9191 0
M  V30 57416 H 5606.35 -3.03117 -2.19081 0
M  V30 57417 H 5608.64 -4.67705 -4.90162 0
M  V30 57418 H 5609.58 -5.87268 -3.95628 0
M  V30 57419 H 5609.99 -4.13485 -3.84305 0
M  V30 57420 N 5609.39 0.587179 -1.46253 0
M  V30 57421 C 5610.81 0.910083 -1.31109 0
M  V30 57422 C 5611.01 1.99556 -0.279211 0
M  V30 57423 O 5610.06 2.50467 0.319779 0
M  V30 57424 C 5611.37 1.33167 -2.69605 0
M  V30 57425 C 5612.92 1.44477 -2.77661 0
M  V30 57426 C 5613.4 1.90003 -4.16729 0
M  V30 57427 N 5614.89 1.97204 -4.19124 0
M  V30 57428 C 5615.62 2.33696 -5.23616 0
M  V30 57429 N 5615.12 2.69012 -6.38439 0
M  V30 57430 N 5616.91 2.34212 -5.10981 0
M  V30 57431 H 5609.06 -0.129945 -2.12002 0
M  V30 57432 H 5611.33 0.00453385 -0.947989 0
M  V30 57433 H 5611.03 0.608122 -3.46403 0
M  V30 57434 H 5610.91 2.29411 -2.99417 0
M  V30 57435 H 5613.29 2.15919 -2.01155 0
M  V30 57436 H 5613.37 0.464959 -2.51539 0
M  V30 57437 H 5613.02 1.19141 -4.93728 0
M  V30 57438 H 5612.95 2.88934 -4.40255 0
M  V30 57439 H 5615.44 1.72419 -3.36274 0
M  V30 57440 H 5615.75 2.95797 -7.13949 0
M  V30 57441 H 5614.1 2.66661 -6.41808 0
M  V30 57442 H 5617.29 2.06041 -4.20315 0
M  V30 57443 H 5617.46 2.62324 -5.92529 0
M  V30 57444 N 5610.87 1.33884 0.831435 0
M  V30 57445 C 5612.1 1.28817 1.61906 0
M  V30 57446 C 5612.51 -0.139453 1.88284 0
M  V30 57447 O 5611.87 -1.08391 1.46825 0
M  V30 57448 C 5611.92 2.06816 2.96495 0
M  V30 57449 O 5611.64 3.4401 2.71272 0
M  V30 57450 C 5613.14 2.09047 3.90915 0
M  V30 57451 H 5610.36 0.44349 0.503545 0
M  V30 57452 H 5612.9 1.76369 1.0351 0
M  V30 57453 H 5611.06 1.62928 3.51473 0
M  V30 57454 H 5611.47 3.84226 3.5703 0
M  V30 57455 H 5612.95 2.68061 4.82542 0
M  V30 57456 H 5613.42 1.08264 4.25647 0
M  V30 57457 H 5614.03 2.52987 3.41874 0
M  V30 57458 N 5612.35 -1.0506 1.17474 0
M  V30 57459 C 5613.59 -1.79659 0.974787 0
M  V30 57460 C 5613.95 -1.857 -0.487791 0
M  V30 57461 O 5615.15 -2.56404 -0.806864 0
M  V30 57462 C 5613.42 -3.19592 1.59987 0
M  V30 57463 S 5614.98 -4.10652 1.5463 0
M  V30 57464 H 5611.8 -0.618734 0.350271 0
M  V30 57465 H 5614.4 -1.26045 1.49442 0
M  V30 57466 H 5613.1 -3.12798 2.6568 0
M  V30 57467 H 5612.64 -3.78282 1.0801 0
M  V30 57468 H 5614.65 -4.93084 0.555206 0
M  V30 57469 N 5613.82 -0.97519 -1.23806 0
M  V30 57470 C 5614.77 -0.482383 -2.22839 0
M  V30 57471 C 5615.76 0.439732 -1.54775 0
M  V30 57472 O 5616.95 0.269435 -1.74937 0
M  V30 57473 C 5614.08 0.218936 -3.42601 0
M  V30 57474 C 5613.16 -0.722446 -4.17901 0
M  V30 57475 N 5613.56 -1.86288 -4.70245 0
M  V30 57476 C 5611.85 -0.534726 -4.42783 0
M  V30 57477 C 5612.55 -2.45231 -5.27481 0
M  V30 57478 N 5611.53 -1.7367 -5.15111 0
M  V30 57479 H 5615.33 -1.35243 -2.60934 0
M  V30 57480 H 5612.85 -0.835211 -1.39277 0
M  V30 57481 H 5614.84 0.589256 -4.12715 0
M  V30 57482 H 5613.5 1.08533 -3.06024 0
M  V30 57483 H 5614.51 -2.24421 -4.6675 0
M  V30 57484 H 5611.19 0.287085 -4.16512 0
M  V30 57485 H 5612.58 -3.41511 -5.78636 0
M  V30 57486 N 5615.3 1.38815 -0.746207 0
M  V30 57487 C 5616.71 1.83043 -0.367693 0
M  V30 57488 C 5617.06 1.62289 1.10258 0
M  V30 57489 O 5616.19 1.12007 1.85158 0
M  V30 57490 C 5616.78 3.32297 -0.660599 0
M  V30 57491 C 5615.34 3.74902 -0.33545 0
M  V30 57492 C 5614.49 2.6168 -0.917538 0
M  V30 57493 H 5617.44 1.27648 -0.942955 0
M  V30 57494 H 5617.46 3.80447 0.0637723 0
M  V30 57495 H 5616.97 3.47371 -1.73074 0
M  V30 57496 H 5615.07 3.65411 0.72841 0
M  V30 57497 H 5615.19 4.71929 -0.825843 0
M  V30 57498 H 5613.55 2.52374 -0.343405 0
M  V30 57499 H 5614.33 2.79556 -1.99257 0
M  V30 57500 N 5616.78 0.494703 1.49634 0
M  V30 57501 C 5617.69 -0.291799 2.32778 0
M  V30 57502 C 5618.71 -0.973418 1.44224 0
M  V30 57503 O 5619.88 -0.95619 1.77254 0
M  V30 57504 C 5616.95 -1.34598 3.19506 0
M  V30 57505 C 5616.01 -0.678462 4.23905 0
M  V30 57506 C 5615.24 -1.68241 5.06489 0
M  V30 57507 O 5615.46 -2.91159 4.90492 0
M  V30 57508 O 5614.4 -1.2412 5.88963 0
M  V30 57509 H 5618.22 0.388565 3.01204 0
M  V30 57510 H 5615.81 0.256138 1.47188 0
M  V30 57511 H 5617.69 -1.95604 3.73252 0
M  V30 57512 H 5616.37 -2.00938 2.53782 0
M  V30 57513 H 5615.27 -0.0288226 3.74089 0
M  V30 57514 H 5616.61 -0.0576087 4.92166 0
M  V30 57515 N 5618.26 -1.55938 0.228269 0
M  V30 57516 C 5619.49 -2.02578 -0.405688 0
M  V30 57517 C 5619.9 -1.10723 -1.53418 0
M  V30 57518 O 5619.24 -0.110425 -1.83368 0
M  V30 57519 C 5619.3 -3.45534 -0.992283 0
M  V30 57520 C 5618.97 -4.57 0.0016074 0
M  V30 57521 C 5619.96 -5.13639 0.804429 0
M  V30 57522 C 5617.65 -5.02151 0.122307 0
M  V30 57523 C 5619.64 -6.13906 1.71459 0
M  V30 57524 C 5617.33 -6.02254 1.03599 0
M  V30 57525 C 5618.33 -6.58009 1.83067 0
M  V30 57526 O 5618.01 -7.56162 2.72899 0
M  V30 57527 H 5617.75 -0.668139 -0.10279 0
M  V30 57528 H 5620.3 -2.02496 0.344163 0
M  V30 57529 H 5618.53 -3.42706 -1.79135 0
M  V30 57530 H 5620.22 -3.75782 -1.53435 0
M  V30 57531 H 5620.99 -4.79601 0.721666 0
M  V30 57532 H 5616.86 -4.5843 -0.486133 0
M  V30 57533 H 5620.41 -6.57351 2.33529 0
M  V30 57534 H 5616.31 -6.35714 1.11975 0
M  V30 57535 H 5617.07 -7.7371 2.6705 0
M  V30 57536 N 5619.74 0.0450548 -1.57536 0
M  V30 57537 C 5620.98 0.739048 -1.88532 0
M  V30 57538 C 5621.31 1.76205 -0.823529 0
M  V30 57539 O 5620.57 1.94894 0.177443 0
M  V30 57540 C 5620.87 1.45927 -3.26252 0
M  V30 57541 C 5620.53 0.573752 -4.47235 0
M  V30 57542 C 5619.19 0.329806 -4.80068 0
M  V30 57543 C 5621.55 -0.0386104 -5.21186 0
M  V30 57544 C 5618.87 -0.535545 -5.84251 0
M  V30 57545 C 5621.23 -0.891569 -6.26286 0
M  V30 57546 C 5619.89 -1.14513 -6.57604 0
M  V30 57547 H 5619.16 0.270437 -0.689888 0
M  V30 57548 H 5621.81 -0.000781424 -1.915 0
M  V30 57549 H 5620.11 2.272 -3.19198 0
M  V30 57550 H 5621.81 2.0015 -3.47478 0
M  V30 57551 H 5618.4 0.774033 -4.21553 0
M  V30 57552 H 5622.58 0.136921 -4.96111 0
M  V30 57553 H 5617.84 -0.740467 -6.069 0
M  V30 57554 H 5622.01 -1.37267 -6.82738 0
M  V30 57555 H 5619.64 -1.81741 -7.38156 0
M  V30 57556 N 5621.21 1.54379 0.317018 0
M  V30 57557 C 5622.15 1.80568 1.41166 0
M  V30 57558 C 5623.16 0.687917 1.47552 0
M  V30 57559 O 5624.35 0.965137 1.50158 0
M  V30 57560 C 5621.45 1.9143 2.79656 0
M  V30 57561 C 5620.62 3.21665 2.96396 0
M  V30 57562 C 5619.68 3.23146 4.15287 0
M  V30 57563 O 5618.71 3.96755 4.08135 0
M  V30 57564 N 5619.91 2.47395 5.25144 0
M  V30 57565 H 5622.67 2.75036 1.19061 0
M  V30 57566 H 5620.23 1.53756 0.507032 0
M  V30 57567 H 5622.23 1.89841 3.57411 0
M  V30 57568 H 5620.8 1.0403 2.94782 0
M  V30 57569 H 5620.02 3.36161 2.05887 0
M  V30 57570 H 5621.3 4.07639 3.04479 0
M  V30 57571 H 5620.7 1.87192 5.33831 0
M  V30 57572 H 5619.26 2.51576 6.01292 0
M  V30 57573 N 5622.69 -0.579414 1.46562 0
M  V30 57574 C 5623.93 -1.34852 1.53604 0
M  V30 57575 C 5624.3 -1.9111 0.184643 0
M  V30 57576 O 5625.5 -2.68486 0.129826 0
M  V30 57577 C 5623.77 -2.44526 2.60656 0
M  V30 57578 S 5625.33 -3.31819 2.87127 0
M  V30 57579 H 5622.15 -0.459386 0.542666 0
M  V30 57580 H 5624.75 -0.665734 1.83816 0
M  V30 57581 H 5623.45 -2.01593 3.57475 0
M  V30 57582 H 5622.98 -3.17572 2.32188 0
M  V30 57583 H 5625 -4.43444 2.22648 0
M  V30 57584 N 5624.17 -1.34323 -0.824323 0
M  V30 57585 C 5625.4 -1.29674 -1.61221 0
M  V30 57586 C 5625.81 0.129465 -1.88356 0
M  V30 57587 O 5625.17 1.07611 -1.47398 0
M  V30 57588 C 5625.22 -2.08385 -2.95394 0
M  V30 57589 O 5624.94 -3.45444 -2.69444 0
M  V30 57590 C 5626.44 -2.11117 -3.89801 0
M  V30 57591 H 5623.66 -0.446155 -0.501186 0
M  V30 57592 H 5626.21 -1.76915 -1.02573 0
M  V30 57593 H 5624.36 -1.64789 -3.50604 0
M  V30 57594 H 5624.78 -3.86114 -3.54988 0
M  V30 57595 H 5626.25 -2.70616 -4.81114 0
M  V30 57596 H 5626.73 -1.1052 -4.25067 0
M  V30 57597 H 5627.33 -2.54796 -3.40528 0
M  V30 57598 N 5625.65 1.04435 -1.1803 0
M  V30 57599 C 5626.87 1.81768 -0.998748 0
M  V30 57600 C 5627.3 1.82683 0.448161 0
M  V30 57601 O 5626.66 1.24141 1.32132 0
M  V30 57602 C 5626.7 3.25415 -1.55363 0
M  V30 57603 O 5625.81 4.051 -0.772494 0
M  V30 57604 H 5625.15 0.561719 -0.354073 0
M  V30 57605 H 5627.68 1.31551 -1.56702 0
M  V30 57606 H 5627.69 3.762 -1.57916 0
M  V30 57607 H 5626.36 3.24064 -2.60683 0
M  V30 57608 H 5624.94 3.63795 -0.81898 0
M  V30 57609 N 5627.13 0.981742 1.23287 0
M  V30 57610 C 5628.37 0.650082 1.91359 0
M  V30 57611 C 5628.7 -0.819122 1.76962 0
M  V30 57612 O 5627.97 -1.58606 1.14983 0
M  V30 57613 H 5626.55 0.237452 0.708255 0
M  V30 57614 H 5629.21 1.24584 1.49882 0
M  V30 57615 H 5628.3 0.902877 2.98755 0
M  V30 57616 N 5628.6 -1.38417 0.753558 0
M  V30 57617 C 5629.55 -2.27774 0.101523 0
M  V30 57618 C 5630.54 -1.45198 -0.693271 0
M  V30 57619 O 5631.73 -1.67933 -0.559231 0
M  V30 57620 C 5628.86 -3.34066 -0.790859 0
M  V30 57621 C 5627.95 -4.24099 0.0107821 0
M  V30 57622 N 5628.34 -4.94841 1.04718 0
M  V30 57623 C 5626.63 -4.45476 -0.216037 0
M  V30 57624 C 5627.34 -5.61159 1.53218 0
M  V30 57625 N 5626.31 -5.36953 0.847493 0
M  V30 57626 H 5630.11 -2.79932 0.895286 0
M  V30 57627 H 5627.63 -1.51319 0.589598 0
M  V30 57628 H 5629.62 -3.9697 -1.27361 0
M  V30 57629 H 5628.28 -2.83466 -1.58357 0
M  V30 57630 H 5629.3 -4.97796 1.42897 0
M  V30 57631 H 5625.97 -4.05785 -0.982095 0
M  V30 57632 H 5627.36 -6.27747 2.39547 0
M  V30 57633 N 5630.08 -0.502631 -1.4937 0
M  V30 57634 C 5631.32 0.0396538 -2.04362 0
M  V30 57635 C 5631.69 1.34126 -1.37383 0
M  V30 57636 O 5632.89 1.96789 -1.83105 0
M  V30 57637 C 5631.16 0.187197 -3.56909 0
M  V30 57638 S 5632.72 0.683495 -4.33444 0
M  V30 57639 H 5629.54 0.000996346 -0.710999 0
M  V30 57640 H 5632.14 -0.67697 -1.83405 0
M  V30 57641 H 5630.84 -0.765397 -4.03199 0
M  V30 57642 H 5630.37 0.929012 -3.82273 0
M  V30 57643 H 5632.39 1.95239 -4.56176 0
M  V30 57644 N 5631.56 1.55815 -0.236535 0
M  V30 57645 C 5632.81 1.98982 0.391655 0
M  V30 57646 C 5633.14 1.12434 1.58342 0
M  V30 57647 O 5632.42 0.185371 1.93615 0
M  V30 57648 C 5632.7 3.50834 0.811635 0
M  V30 57649 C 5632.55 4.48151 -0.384805 0
M  V30 57650 C 5633.87 4.07495 1.6624 0
M  V30 57651 H 5630.99 0.723409 0.140886 0
M  V30 57652 H 5633.63 1.8701 -0.335772 0
M  V30 57653 H 5631.78 3.61168 1.43144 0
M  V30 57654 H 5633.45 4.49811 -1.02314 0
M  V30 57655 H 5631.7 4.21402 -1.0297 0
M  V30 57656 H 5632.37 5.51979 -0.047775 0
M  V30 57657 H 5634.84 4.00199 1.13929 0
M  V30 57658 H 5633.72 5.14033 1.92513 0
M  V30 57659 H 5633.98 3.55306 2.63078 0
M  V30 57660 N 5633.04 -0.0366996 1.57557 0
M  V30 57661 C 5633.99 -1.04737 2.0252 0
M  V30 57662 C 5634.97 -1.32477 0.913162 0
M  V30 57663 O 5636.17 -1.3219 1.17707 0
M  V30 57664 C 5633.29 -2.35082 2.50183 0
M  V30 57665 C 5632.38 -2.10465 3.68192 0
M  V30 57666 N 5632.77 -1.55882 4.8118 0
M  V30 57667 C 5631.07 -2.40784 3.75418 0
M  V30 57668 C 5631.77 -1.46894 5.62847 0
M  V30 57669 N 5630.75 -1.94184 5.07734 0
M  V30 57670 H 5634.55 -0.619241 2.87302 0
M  V30 57671 H 5632.06 -0.243151 1.60569 0
M  V30 57672 H 5634.06 -3.08287 2.80651 0
M  V30 57673 H 5632.72 -2.7858 1.66803 0
M  V30 57674 H 5633.73 -1.24257 5.02773 0
M  V30 57675 H 5630.41 -2.87409 3.02824 0
M  V30 57676 H 5631.8 -1.05247 6.63606 0
M  V30 57677 N 5634.52 -1.54545 -0.308827 0
M  V30 57678 C 5635.74 -1.77757 -1.06851 0
M  V30 57679 C 5636.17 -0.53168 -1.80429 0
M  V30 57680 O 5635.53 0.517452 -1.73759 0
M  V30 57681 C 5635.57 -2.97975 -2.03084 0
M  V30 57682 O 5634.68 -2.70552 -3.11248 0
M  V30 57683 H 5634.02 -0.588586 -0.307347 0
M  V30 57684 H 5636.55 -2.01608 -0.348632 0
M  V30 57685 H 5636.56 -3.2573 -2.45691 0
M  V30 57686 H 5635.23 -3.88319 -1.48934 0
M  V30 57687 H 5633.81 -2.53791 -2.73212 0
M  V30 57688 N 5636 0.571634 -1.46868 0
M  V30 57689 C 5636.91 1.70753 -1.60875 0
M  V30 57690 C 5637.92 1.66902 -0.491919 0
M  V30 57691 O 5639.1 1.8661 -0.757534 0
M  V30 57692 C 5636.16 3.07261 -1.60597 0
M  V30 57693 C 5635.22 3.22291 -2.83596 0
M  V30 57694 C 5634.46 4.52288 -2.83322 0
M  V30 57695 O 5634.68 5.36863 -1.92704 0
M  V30 57696 O 5633.61 4.70801 -3.75006 0
M  V30 57697 H 5637.44 1.61881 -2.5696 0
M  V30 57698 H 5635.02 0.739973 -1.29787 0
M  V30 57699 H 5636.91 3.88525 -1.63177 0
M  V30 57700 H 5635.58 3.16547 -0.676748 0
M  V30 57701 H 5634.49 2.4048 -2.86567 0
M  V30 57702 H 5635.82 3.17902 -3.75764 0
M  V30 57703 N 5637.47 1.34758 0.817188 0
M  V30 57704 C 5638.4 1.29459 1.94326 0
M  V30 57705 C 5639.38 0.170962 1.69239 0
M  V30 57706 O 5640.57 0.36424 1.90754 0
M  V30 57707 C 5637.7 1.05509 3.30885 0
M  V30 57708 C 5636.65 2.14399 3.70428 0
M  V30 57709 C 5635.98 1.7563 5.05033 0
M  V30 57710 C 5637.28 3.56278 3.8192 0
M  V30 57711 H 5638.97 2.23679 1.99017 0
M  V30 57712 H 5636.52 1.07677 0.956121 0
M  V30 57713 H 5638.47 1.00445 4.09254 0
M  V30 57714 H 5637.2 0.0773206 3.26508 0
M  V30 57715 H 5635.86 2.18543 2.94338 0
M  V30 57716 H 5635.5 0.764983 4.97149 0
M  V30 57717 H 5635.2 2.48514 5.32461 0
M  V30 57718 H 5636.73 1.72071 5.85853 0
M  V30 57719 H 5638.14 3.54516 4.50546 0
M  V30 57720 H 5636.54 4.27833 4.20807 0
M  V30 57721 H 5637.61 3.93202 2.83761 0
M  V30 57722 N 5638.95 -1.03808 1.18582 0
M  V30 57723 C 5639.9 -2.1188 0.915189 0
M  V30 57724 C 5640.87 -1.65453 -0.146421 0
M  V30 57725 O 5642.05 -1.90799 -0.00623351 0
M  V30 57726 C 5639.19 -3.42155 0.449875 0
M  V30 57727 C 5638.31 -4.02179 1.5772 0
M  V30 57728 C 5637.44 -5.20428 1.06435 0
M  V30 57729 C 5636.48 -5.72488 2.16619 0
M  V30 57730 N 5635.62 -6.82021 1.66709 0
M  V30 57731 H 5640.46 -2.34366 1.84055 0
M  V30 57732 H 5637.99 -1.14958 0.917768 0
M  V30 57733 H 5639.95 -4.16887 0.161553 0
M  V30 57734 H 5638.58 -3.19808 -0.43851 0
M  V30 57735 H 5637.63 -3.2475 1.98095 0
M  V30 57736 H 5638.95 -4.36842 2.4077 0
M  V30 57737 H 5638.1 -6.02284 0.730709 0
M  V30 57738 H 5636.84 -4.87275 0.203473 0
M  V30 57739 H 5635.84 -4.89251 2.50825 0
M  V30 57740 H 5637.07 -6.07683 3.03147 0
M  V30 57741 H 5635.02 -6.50739 0.829145 0
M  V30 57742 H 5634.93 -7.15762 2.43354 0
M  V30 57743 H 5636.2 -7.67495 1.3628 0
M  V30 57744 N 5640.43 -0.988266 -1.22764 0
M  V30 57745 C 5641.67 -0.669667 -1.93119 0
M  V30 57746 C 5642.03 0.783269 -1.75297 0
M  V30 57747 O 5643.23 1.21307 -2.39871 0
M  V30 57748 C 5641.51 -1.05888 -3.41354 0
M  V30 57749 S 5643.06 -0.857949 -4.30331 0
M  V30 57750 H 5639.88 -0.244995 -0.667457 0
M  V30 57751 H 5642.48 -1.26957 -1.48668 0
M  V30 57752 H 5641.19 -2.11279 -3.51837 0
M  V30 57753 H 5640.72 -0.45059 -3.90811 0
M  V30 57754 H 5642.73 0.253997 -4.95549 0
M  V30 57755 N 5641.91 1.38015 -0.760888 0
M  V30 57756 C 5643.18 1.94053 -0.245505 0
M  V30 57757 C 5643.56 1.69555 1.25755 0
M  V30 57758 O 5642.91 1.03819 2.03553 0
M  V30 57759 C 5643.12 3.43679 -0.607107 0
M  V30 57760 C 5644.47 4.20746 -0.570821 0
M  V30 57761 O 5645.49 3.51993 -0.545839 0
M  V30 57762 O 5644.35 5.43325 -0.588234 0
M  V30 57763 H 5641.45 0.825262 -0.0535897 0
M  V30 57764 H 5643.99 1.47366 -0.841505 0
M  V30 57765 H 5642.77 3.55048 -1.64488 0
M  V30 57766 H 5642.39 3.97597 0.0165178 0
M  V30 57767 N 5643.39 0.510546 1.49101 0
M  V30 57768 C 5644.63 -0.030512 2.02077 0
M  V30 57769 C 5644.95 -1.36598 1.39162 0
M  V30 57770 O 5644.22 -1.88014 0.55022 0
M  V30 57771 H 5642.8 -0.0142654 0.746864 0
M  V30 57772 H 5645.47 0.669959 1.83023 0
M  V30 57773 H 5644.56 -0.153173 3.11724 0
M  V30 57774 N 5644.86 -1.55687 0.244795 0
M  V30 57775 C 5646.09 -2.03744 -0.387704 0
M  V30 57776 C 5646.51 -1.12295 -1.50902 0
M  V30 57777 O 5645.87 -0.115509 -1.80932 0
M  V30 57778 C 5645.92 -3.49828 -0.874804 0
M  V30 57779 O 5645.02 -3.61511 -1.98454 0
M  V30 57780 H 5644.36 -0.658564 -0.0847876 0
M  V30 57781 H 5646.89 -2.01222 0.370236 0
M  V30 57782 H 5646.9 -3.90607 -1.17857 0
M  V30 57783 H 5645.58 -4.15865 -0.054239 0
M  V30 57784 H 5644.16 -3.32627 -1.68563 0
M  V30 57785 N 5646.34 0.0283435 -1.57575 0
M  V30 57786 C 5647.31 1.01339 -2.0558 0
M  V30 57787 C 5648.31 1.28995 -0.960046 0
M  V30 57788 O 5649.5 1.23987 -1.22364 0
M  V30 57789 C 5646.63 2.34602 -2.47335 0
M  V30 57790 H 5647.82 0.598705 -2.93863 0
M  V30 57791 H 5645.37 0.275186 -1.53858 0
M  V30 57792 H 5646.11 2.80818 -1.6221 0
M  V30 57793 H 5645.89 2.15858 -3.27334 0
M  V30 57794 H 5647.38 3.05322 -2.849 0
M  V30 57795 N 5647.82 1.54706 0.300627 0
M  V30 57796 C 5649.1 1.64683 1.0554 0
M  V30 57797 C 5649.48 0.495364 2.05206 0
M  V30 57798 O 5648.83 -0.507866 2.22785 0
M  V30 57799 C 5649.04 3.02708 1.73692 0
M  V30 57800 C 5650.38 3.59535 2.25876 0
M  V30 57801 O 5651.41 3.05162 1.83724 0
M  V30 57802 O 5650.27 4.54738 3.0311 0
M  V30 57803 H 5647.36 0.667786 0.487843 0
M  V30 57804 H 5649.91 1.67051 0.298685 0
M  V30 57805 H 5648.68 3.77954 1.01325 0
M  V30 57806 H 5648.3 3.04119 2.56119 0
M  V30 57807 N 5649.3 -0.563837 1.47169 0
M  V30 57808 C 5650.54 -1.33215 1.55026 0
M  V30 57809 C 5650.9 -1.90904 0.204902 0
M  V30 57810 O 5652.1 -2.68333 0.158295 0
M  V30 57811 C 5650.37 -2.41748 2.63235 0
M  V30 57812 S 5651.93 -3.28755 2.9063 0
M  V30 57813 H 5648.75 -0.453604 0.547507 0
M  V30 57814 H 5651.35 -0.6462 1.84512 0
M  V30 57815 H 5650.06 -1.9779 3.59593 0
M  V30 57816 H 5649.59 -3.15092 2.35543 0
M  V30 57817 H 5651.6 -4.41057 2.27339 0
M  V30 57818 N 5650.78 -1.3519 -0.81003 0
M  V30 57819 C 5651.71 -1.30488 -1.93637 0
M  V30 57820 C 5652.69 -0.179935 -1.69146 0
M  V30 57821 O 5653.87 -0.374351 -1.90558 0
M  V30 57822 C 5651 -1.07262 -3.30321 0
M  V30 57823 C 5649.96 -2.16361 -3.69286 0
M  V30 57824 C 5649.28 -1.78305 -5.04095 0
M  V30 57825 C 5650.58 -3.58299 -3.80025 0
M  V30 57826 H 5652.28 -2.24732 -1.97828 0
M  V30 57827 H 5649.82 -1.08182 -0.950397 0
M  V30 57828 H 5651.78 -1.02614 -4.08716 0
M  V30 57829 H 5650.5 -0.0946351 -3.26463 0
M  V30 57830 H 5649.16 -2.201 -2.93175 0
M  V30 57831 H 5648.81 -0.791338 -4.96736 0
M  V30 57832 H 5648.51 -2.51334 -5.31136 0
M  V30 57833 H 5650.03 -1.75176 -5.84932 0
M  V30 57834 H 5651.44 -3.569 -4.48659 0
M  V30 57835 H 5649.84 -4.30059 -4.18533 0
M  V30 57836 H 5650.91 -3.94701 -2.81671 0
M  V30 57837 N 5652.25 1.03178 -1.19131 0
M  V30 57838 C 5653.53 1.73583 -0.901568 0
M  V30 57839 C 5653.91 2.02587 0.59345 0
M  V30 57840 O 5653.26 1.67818 1.55078 0
M  V30 57841 C 5653.47 3.01466 -1.75839 0
M  V30 57842 C 5654.82 3.7503 -1.99092 0
M  V30 57843 O 5655.84 3.11386 -1.72967 0
M  V30 57844 O 5654.7 4.89441 -2.43125 0
M  V30 57845 H 5651.79 0.755785 -0.335734 0
M  V30 57846 H 5654.34 1.09163 -1.29929 0
M  V30 57847 H 5653.11 2.76237 -2.77144 0
M  V30 57848 H 5652.74 3.73626 -1.35976 0
M  V30 57849 N 5653.73 0.994763 1.22238 0
M  V30 57850 C 5654.7 0.551697 2.22461 0
M  V30 57851 C 5655.7 -0.366443 1.56569 0
M  V30 57852 O 5656.89 -0.158143 1.73481 0
M  V30 57853 C 5654.02 -0.197296 3.40329 0
M  V30 57854 H 5655.21 1.43804 2.63174 0
M  V30 57855 H 5652.76 0.782168 1.35321 0
M  V30 57856 H 5653.5 -1.09954 3.05091 0
M  V30 57857 H 5653.28 0.461965 3.89369 0
M  V30 57858 H 5654.77 -0.495388 4.14651 0
M  V30 57859 N 5655.21 -1.3761 0.768196 0
M  V30 57860 C 5656.44 -2.04578 0.340964 0
M  V30 57861 C 5656.86 -1.5756 -1.02745 0
M  V30 57862 O 5656.22 -0.734209 -1.65768 0
M  V30 57863 C 5656.27 -3.58493 0.389225 0
M  V30 57864 O 5655.37 -4.0784 -0.611598 0
M  V30 57865 H 5654.71 -0.647241 0.148239 0
M  V30 57866 H 5657.24 -1.75995 1.0434 0
M  V30 57867 H 5657.25 -4.07262 0.245259 0
M  V30 57868 H 5655.93 -3.92071 1.38756 0
M  V30 57869 H 5654.5 -3.704 -0.431043 0
M  V30 57870 N 5656.69 -0.518446 -1.48828 0
M  V30 57871 C 5657.97 0.0836811 -1.95421 0
M  V30 57872 C 5658.35 1.5243 -1.46042 0
M  V30 57873 O 5657.69 2.18091 -0.681813 0
M  V30 57874 C 5657.9 -0.021656 -3.48993 0
M  V30 57875 C 5659.25 0.143465 -4.24358 0
M  V30 57876 O 5660.28 0.0526971 -3.56161 0
M  V30 57877 O 5659.13 0.332039 -5.4549 0
M  V30 57878 H 5656.23 0.0856843 -0.822549 0
M  V30 57879 H 5658.77 -0.582225 -1.594 0
M  V30 57880 H 5657.55 -1.02563 -3.7762 0
M  V30 57881 H 5657.17 0.683618 -3.91679 0
M  V30 57882 N 5658.17 1.55555 -0.253048 0
M  V30 57883 C 5659.08 2.25285 0.654502 0
M  V30 57884 C 5660.09 1.27107 1.18826 0
M  V30 57885 O 5661.27 1.59997 1.22323 0
M  V30 57886 C 5658.33 2.94342 1.83203 0
M  V30 57887 C 5657.39 4.07945 1.33714 0
M  V30 57888 C 5656.63 4.737 2.45854 0
M  V30 57889 O 5656.85 4.38558 3.64723 0
M  V30 57890 O 5655.78 5.6209 2.15263 0
M  V30 57891 H 5659.61 3.03566 0.0903024 0
M  V30 57892 H 5657.2 1.49385 -0.021306 0
M  V30 57893 H 5659.08 3.37817 2.51908 0
M  V30 57894 H 5657.75 2.18997 2.38374 0
M  V30 57895 H 5656.66 3.68974 0.617193 0
M  V30 57896 H 5657.99 4.85127 0.831447 0
M  V30 57897 N 5659.64 -0.0199865 1.57587 0
M  V30 57898 C 5660.61 -1.00247 2.06114 0
M  V30 57899 C 5661.61 -1.28484 0.966874 0
M  V30 57900 O 5662.8 -1.23336 1.2302 0
M  V30 57901 C 5659.93 -2.33288 2.48575 0
M  V30 57902 H 5661.12 -0.583113 2.94176 0
M  V30 57903 H 5658.68 -0.267023 1.54002 0
M  V30 57904 H 5659.41 -2.79953 1.63697 0
M  V30 57905 H 5659.2 -2.14119 3.28474 0
M  V30 57906 H 5660.69 -3.03807 2.86515 0
M  V30 57907 N 5661.12 -1.54863 -0.292418 0
M  V30 57908 C 5662.4 -1.65241 -1.04666 0
M  V30 57909 C 5662.78 -0.50624 -2.0494 0
M  V30 57910 O 5662.13 0.496044 -2.23051 0
M  V30 57911 C 5662.34 -3.03625 -1.72085 0
M  V30 57912 C 5663.69 -3.60728 -2.23966 0
M  V30 57913 O 5664.71 -3.06132 -1.82103 0
M  V30 57914 O 5663.57 -4.56339 -3.00694 0
M  V30 57915 H 5660.66 -0.670364 -0.484295 0
M  V30 57916 H 5663.21 -1.67207 -0.289821 0
M  V30 57917 H 5661.98 -3.78486 -0.993191 0
M  V30 57918 H 5661.6 -3.05473 -2.54503 0
M  V30 57919 N 5662.6 0.556024 -1.47466 0
M  V30 57920 C 5663.84 1.32391 -1.5573 0
M  V30 57921 C 5664.21 1.90792 -0.215024 0
M  V30 57922 O 5665.41 2.68246 -0.172523 0
M  V30 57923 C 5663.68 2.40348 -2.64514 0
M  V30 57924 S 5665.24 3.27209 -2.92369 0
M  V30 57925 H 5662.05 0.450694 -0.549905 0
M  V30 57926 H 5664.66 0.636406 -1.84852 0
M  V30 57927 H 5663.36 1.9588 -3.60637 0
M  V30 57928 H 5662.89 3.13838 -2.37211 0
M  V30 57929 H 5664.91 4.39845 -2.29675 0
M  V30 57930 N 5664.08 1.35617 0.802849 0
M  V30 57931 C 5665.49 1.26066 1.3771 0
M  V30 57932 C 5665.84 -0.105342 1.95917 0
M  V30 57933 O 5664.97 -1.00642 1.91573 0
M  V30 57934 C 5665.56 2.28269 2.50357 0
M  V30 57935 C 5664.12 2.22448 3.03634 0
M  V30 57936 C 5663.27 2.13776 1.76621 0
M  V30 57937 H 5666.22 1.46692 0.605579 0
M  V30 57938 H 5666.24 1.91134 3.29011 0
M  V30 57939 H 5665.75 3.27678 2.07963 0
M  V30 57940 H 5663.85 1.26462 3.50483 0
M  V30 57941 H 5663.97 3.1457 3.61362 0
M  V30 57942 H 5662.33 1.59813 1.98322 0
M  V30 57943 H 5663.11 3.15051 1.36374 0
M  V30 57944 N 5665.56 -1.02544 1.19676 0
M  V30 57945 C 5666.79 -1.7962 1.02686 0
M  V30 57946 C 5667.2 -1.83971 -0.42428 0
M  V30 57947 O 5666.56 -1.28625 -1.29467 0
M  V30 57948 C 5666.61 -3.24508 1.593 0
M  V30 57949 O 5666.33 -3.20451 2.98735 0
M  V30 57950 C 5667.83 -4.18168 1.47141 0
M  V30 57951 H 5665.05 -0.565155 0.36172 0
M  V30 57952 H 5667.59 -1.29137 1.58568 0
M  V30 57953 H 5665.75 -3.72169 1.07559 0
M  V30 57954 H 5666.16 -4.1133 3.25436 0
M  V30 57955 H 5667.64 -5.17707 1.91528 0
M  V30 57956 H 5668.11 -4.37163 0.422469 0
M  V30 57957 H 5668.72 -3.76383 1.9803 0
M  V30 57958 N 5667.04 -1.00123 -1.21709 0
M  V30 57959 C 5668.45 -0.713393 -1.42769 0
M  V30 57960 C 5668.65 0.712857 -1.88469 0
M  V30 57961 O 5667.71 1.4827 -2.04383 0
M  V30 57962 C 5669.02 -1.72605 -2.46227 0
M  V30 57963 C 5670.57 -1.74244 -2.60015 0
M  V30 57964 C 5671.04 -2.74395 -3.66704 0
M  V30 57965 N 5672.53 -2.7304 -3.7417 0
M  V30 57966 C 5673.27 -3.47195 -4.56337 0
M  V30 57967 N 5672.77 -4.30977 -5.42431 0
M  V30 57968 N 5674.56 -3.35862 -4.50725 0
M  V30 57969 H 5666.71 -1.92223 -0.903543 0
M  V30 57970 H 5668.97 -0.829482 -0.458982 0
M  V30 57971 H 5668.68 -2.74706 -2.19612 0
M  V30 57972 H 5668.55 -1.52565 -3.44969 0
M  V30 57973 H 5670.94 -0.728361 -2.8597 0
M  V30 57974 H 5671.02 -1.98355 -1.61521 0
M  V30 57975 H 5670.66 -3.75957 -3.41495 0
M  V30 57976 H 5670.59 -2.47551 -4.64786 0
M  V30 57977 H 5673.09 -2.12253 -3.12661 0
M  V30 57978 H 5673.4 -4.84365 -6.02172 0
M  V30 57979 H 5671.74 -4.35061 -5.41985 0
M  V30 57980 H 5674.93 -2.69843 -3.82495 0
M  V30 57981 H 5675.11 -3.9391 -5.14528 0
M  V30 57982 N 5668.51 1.37201 -0.775483 0
M  V30 57983 C 5669.76 1.996 -0.341501 0
M  V30 57984 C 5670.09 1.61559 1.08301 0
M  V30 57985 O 5669.34 0.855188 1.76026 0
M  V30 57986 C 5669.64 3.54724 -0.436551 0
M  V30 57987 C 5669.31 4.12544 -1.81985 0
M  V30 57988 C 5667.97 4.28048 -2.19837 0
M  V30 57989 C 5670.32 4.44213 -2.72625 0
M  V30 57990 C 5667.65 4.72526 -3.47758 0
M  V30 57991 C 5670 4.90117 -3.9996 0
M  V30 57992 C 5668.67 5.03827 -4.37852 0
M  V30 57993 H 5667.94 0.730387 -0.124964 0
M  V30 57994 H 5670.58 1.6391 -0.990235 0
M  V30 57995 H 5668.89 3.90682 0.295715 0
M  V30 57996 H 5670.59 4.00916 -0.0820074 0
M  V30 57997 H 5667.18 4.00906 -1.51567 0
M  V30 57998 H 5671.36 4.31816 -2.4464 0
M  V30 57999 H 5666.62 4.81328 -3.77006 0
M  V30 58000 H 5670.79 5.13587 -4.7032 0
M  V30 58001 H 5668.42 5.38051 -5.37034 0
M  V30 58002 N 5669.99 0.526331 1.48551 0
M  V30 58003 C 5671.4 0.084935 1.86507 0
M  V30 58004 C 5671.75 -1.33665 1.43625 0
M  V30 58005 O 5670.88 -2.00043 0.825339 0
M  V30 58006 C 5671.47 0.14736 3.38479 0
M  V30 58007 C 5670.03 -0.238822 3.75642 0
M  V30 58008 C 5669.18 0.508744 2.72593 0
M  V30 58009 H 5672.13 0.737778 1.40508 0
M  V30 58010 H 5672.15 -0.641832 3.75048 0
M  V30 58011 H 5671.66 1.18212 3.69659 0
M  V30 58012 H 5669.76 -1.27586 3.50075 0
M  V30 58013 H 5669.88 0.0982492 4.78999 0
M  V30 58014 H 5668.24 -0.0445486 2.54661 0
M  V30 58015 H 5669.02 1.54406 3.06616 0
M  V30 58016 N 5671.47 -1.55419 0.261294 0
M  V30 58017 C 5672.75 -1.91244 -0.410493 0
M  V30 58018 C 5673.13 -1.18387 -1.74779 0
M  V30 58019 O 5672.47 -0.306092 -2.26441 0
M  V30 58020 C 5672.68 -3.44406 -0.564409 0
M  V30 58021 C 5674.03 -4.1593 -0.853681 0
M  V30 58022 O 5675.06 -3.50224 -0.649738 0
M  V30 58023 O 5673.92 -5.32179 -1.24289 0
M  V30 58024 H 5671.01 -0.796499 -0.222527 0
M  V30 58025 H 5673.56 -1.66911 0.306425 0
M  V30 58026 H 5672.33 -3.89477 0.377271 0
M  V30 58027 H 5671.95 -3.74649 -1.33132 0
M  V30 58028 N 5672.95 0.011629 -1.57596 0
M  V30 58029 C 5674.2 0.697511 -1.89682 0
M  V30 58030 C 5674.52 1.74953 -0.861183 0
M  V30 58031 O 5673.79 1.95629 0.102962 0
M  V30 58032 H 5672.37 0.260616 -0.700063 0
M  V30 58033 H 5675.03 -0.0265468 -1.94882 0
M  V30 58034 H 5674.12 1.17611 -2.89092 0
M  V30 58035 N 5674.43 1.55016 0.284201 0
M  V30 58036 C 5675.39 1.86365 1.3342 0
M  V30 58037 C 5676.39 0.737507 1.4289 0
M  V30 58038 O 5677.58 1.00574 1.42234 0
M  V30 58039 C 5674.71 2.05894 2.717 0
M  V30 58040 H 5675.9 2.80216 1.06859 0
M  V30 58041 H 5673.46 1.47336 0.521716 0
M  V30 58042 H 5674.19 1.14386 3.03457 0
M  V30 58043 H 5673.98 2.87876 2.66214 0
M  V30 58044 H 5675.47 2.31459 3.47587 0
M  V30 58045 N 5675.9 -0.548196 1.47758 0
M  V30 58046 C 5677.13 -1.32821 1.58247 0
M  V30 58047 C 5677.54 -1.87735 0.235002 0
M  V30 58048 O 5676.89 -1.66166 -0.783232 0
M  V30 58049 C 5676.95 -2.52897 2.55506 0
M  V30 58050 C 5676.61 -2.19204 4.00997 0
M  V30 58051 C 5677.61 -1.75959 4.89218 0
M  V30 58052 C 5675.29 -2.30287 4.464 0
M  V30 58053 C 5677.29 -1.44237 6.20866 0
M  V30 58054 C 5674.97 -1.98177 5.78074 0
M  V30 58055 C 5675.97 -1.55221 6.65128 0
M  V30 58056 O 5675.66 -1.23523 7.94353 0
M  V30 58057 H 5675.39 -0.410862 0.536814 0
M  V30 58058 H 5677.95 -0.669986 1.94166 0
M  V30 58059 H 5676.18 -3.21641 2.14672 0
M  V30 58060 H 5677.87 -3.1497 2.56025 0
M  V30 58061 H 5678.63 -1.66882 4.55385 0
M  V30 58062 H 5674.51 -2.62679 3.78841 0
M  V30 58063 H 5678.05 -1.10635 6.88771 0
M  V30 58064 H 5673.95 -2.06888 6.11447 0
M  V30 58065 H 5674.72 -1.37077 8.0694 0
M  V30 58066 N 5677.38 -1.36041 -0.795646 0
M  V30 58067 C 5678.62 -1.313 -1.56651 0
M  V30 58068 C 5678.99 0.108257 -1.91695 0
M  V30 58069 O 5680.19 0.280154 -2.67336 0
M  V30 58070 C 5678.46 -2.20421 -2.81335 0
M  V30 58071 S 5680.02 -2.33302 -3.71639 0
M  V30 58072 H 5676.84 -0.466459 -0.536598 0
M  V30 58073 H 5679.44 -1.71548 -0.937637 0
M  V30 58074 H 5678.14 -3.22644 -2.53632 0
M  V30 58075 H 5677.67 -1.8117 -3.492 0
M  V30 58076 H 5679.69 -1.52592 -4.72155 0
M  V30 58077 N 5678.86 1.01908 -1.20218 0
M  V30 58078 C 5679.79 2.1051 -0.90655 0
M  V30 58079 C 5680.81 1.62463 0.104701 0
M  V30 58080 O 5681.99 1.78055 -0.125992 0
M  V30 58081 C 5679.09 3.37219 -0.337131 0
M  V30 58082 C 5678.27 4.14413 -1.39932 0
M  V30 58083 C 5677.33 5.19425 -0.841671 0
M  V30 58084 O 5676.35 5.48481 -1.52176 0
M  V30 58085 N 5677.55 5.79443 0.350161 0
M  V30 58086 H 5680.32 2.36458 -1.8414 0
M  V30 58087 H 5677.88 1.18279 -1.10552 0
M  V30 58088 H 5679.87 4.04669 0.0500085 0
M  V30 58089 H 5678.44 3.08539 0.502217 0
M  V30 58090 H 5677.66 3.41968 -1.9609 0
M  V30 58091 H 5678.95 4.62769 -2.11476 0
M  V30 58092 H 5678.35 5.58169 0.920007 0
M  V30 58093 H 5676.91 6.48254 0.678967 0
M  V30 58094 N 5680.34 1.00767 1.21176 0
M  V30 58095 C 5681.3 0.575261 2.21863 0
M  V30 58096 C 5682.3 -0.349816 1.56949 0
M  V30 58097 O 5683.49 -0.139734 1.73639 0
M  V30 58098 C 5680.62 -0.161189 3.40519 0
M  V30 58099 H 5681.82 1.46587 2.61634 0
M  V30 58100 H 5679.37 0.796477 1.34484 0
M  V30 58101 H 5680.1 -1.06712 3.0624 0
M  V30 58102 H 5679.89 0.503237 3.88857 0
M  V30 58103 H 5681.38 -0.451381 4.15153 0
M  V30 58104 N 5681.82 -1.36787 0.782749 0
M  V30 58105 C 5683.04 -2.03676 0.363806 0
M  V30 58106 C 5683.46 -1.59028 -1.01762 0
M  V30 58107 O 5682.82 -0.776599 -1.65152 0
M  V30 58108 C 5682.87 -3.59164 0.410339 0
M  V30 58109 O 5682.59 -4.02182 1.73728 0
M  V30 58110 C 5684.09 -4.43296 -0.0188162 0
M  V30 58111 H 5681.31 -0.653823 0.150852 0
M  V30 58112 H 5683.85 -1.74899 1.05974 0
M  V30 58113 H 5682.01 -3.86674 -0.237113 0
M  V30 58114 H 5682.42 -4.96748 1.6835 0
M  V30 58115 H 5683.9 -5.51962 0.0648884 0
M  V30 58116 H 5684.37 -4.25951 -1.07061 0
M  V30 58117 H 5684.98 -4.21034 0.600869 0
M  V30 58118 N 5683.29 -0.534202 -1.4827 0
M  V30 58119 C 5684.23 0.27361 -2.26554 0
M  V30 58120 C 5685.21 0.941038 -1.32602 0
M  V30 58121 O 5686.39 0.964597 -1.6195 0
M  V30 58122 C 5683.52 1.38785 -3.0896 0
M  V30 58123 C 5682.56 0.831386 -4.18318 0
M  V30 58124 S 5683.4 -0.304063 -5.34636 0
M  V30 58125 C 5684.55 0.812548 -6.20603 0
M  V30 58126 H 5684.78 -0.390743 -2.94721 0
M  V30 58127 H 5682.32 -0.320067 -1.51046 0
M  V30 58128 H 5684.28 2.0261 -3.57015 0
M  V30 58129 H 5682.94 2.02394 -2.40199 0
M  V30 58130 H 5682.13 1.66741 -4.75619 0
M  V30 58131 H 5681.73 0.26975 -3.73026 0
M  V30 58132 H 5684.02 1.7102 -6.5556 0
M  V30 58133 H 5684.97 0.277421 -7.07556 0
M  V30 58134 H 5685.37 1.09485 -5.53781 0
M  V30 58135 N 5684.77 1.55278 -0.269533 0
M  V30 58136 C 5686.02 1.99473 0.348843 0
M  V30 58137 C 5686.35 1.1579 1.56278 0
M  V30 58138 O 5685.6 0.214183 1.94524 0
M  V30 58139 C 5685.9 3.48775 0.780413 0
M  V30 58140 C 5685.57 4.49703 -0.328271 0
M  V30 58141 C 5684.23 4.77022 -0.632712 0
M  V30 58142 C 5686.58 5.0998 -1.07562 0
M  V30 58143 C 5683.91 5.61887 -1.68818 0
M  V30 58144 C 5686.26 5.95991 -2.12078 0
M  V30 58145 C 5684.93 6.21634 -2.43162 0
M  V30 58146 H 5684.2 0.729922 0.127651 0
M  V30 58147 H 5686.84 1.8765 -0.382081 0
M  V30 58148 H 5685.15 3.58046 1.59092 0
M  V30 58149 H 5686.84 3.80374 1.26952 0
M  V30 58150 H 5683.43 4.28524 -0.0808637 0
M  V30 58151 H 5687.62 4.88903 -0.853678 0
M  V30 58152 H 5682.87 5.80002 -1.9341 0
M  V30 58153 H 5687.05 6.41733 -2.70465 0
M  V30 58154 H 5684.68 6.87186 -3.25083 0
M  V30 58155 N 5686.25 -0.00327115 1.576 0
M  V30 58156 C 5687.16 -1.01213 2.11644 0
M  V30 58157 C 5688.18 -1.37914 1.06093 0
M  V30 58158 O 5689.35 -1.46712 1.37976 0
M  V30 58159 C 5686.42 -2.28628 2.60634 0
M  V30 58160 C 5685.48 -1.98271 3.80772 0
M  V30 58161 C 5684.71 -3.19611 4.27416 0
M  V30 58162 O 5684.93 -4.31183 3.73413 0
M  V30 58163 O 5683.87 -3.038 5.19605 0
M  V30 58164 H 5687.69 -0.582734 2.98057 0
M  V30 58165 H 5685.28 -0.221895 1.47743 0
M  V30 58166 H 5687.16 -3.03488 2.92358 0
M  V30 58167 H 5685.84 -2.70812 1.7732 0
M  V30 58168 H 5684.74 -1.20897 3.54026 0
M  V30 58169 H 5686.08 -1.60925 4.65149 0
M  V30 58170 N 5687.73 -1.55165 -0.275976 0
M  V30 58171 C 5688.97 -1.7738 -1.01566 0
M  V30 58172 C 5689.33 -0.561484 -1.83607 0
M  V30 58173 O 5690.53 -0.661836 -2.60525 0
M  V30 58174 C 5688.8 -3.04127 -1.87728 0
M  V30 58175 S 5690.36 -3.47449 -2.68001 0
M  V30 58176 H 5687.18 -0.623272 -0.342131 0
M  V30 58177 H 5689.78 -1.93391 -0.286388 0
M  V30 58178 H 5688.49 -3.90458 -1.26376 0
M  V30 58179 H 5688.02 -2.90774 -2.6498 0
M  V30 58180 H 5690.03 -3.06488 -3.9023 0
M  V30 58181 N 5689.21 0.540352 -1.48047 0
M  V30 58182 C 5690.15 1.64592 -1.61797 0
M  V30 58183 C 5691.12 1.59593 -0.460357 0
M  V30 58184 O 5692.31 1.78174 -0.682544 0
M  V30 58185 C 5689.45 3.02881 -1.65399 0
M  V30 58186 C 5688.56 3.18192 -2.92195 0
M  V30 58187 C 5687.7 4.46979 -2.87025 0
M  V30 58188 C 5686.74 4.55781 -4.08571 0
M  V30 58189 N 5685.87 5.75944 -4.01539 0
M  V30 58190 H 5690.71 1.52179 -2.56214 0
M  V30 58191 H 5688.25 0.741053 -1.2707 0
M  V30 58192 H 5690.21 3.82982 -1.6547 0
M  V30 58193 H 5688.84 3.1409 -0.744814 0
M  V30 58194 H 5687.89 2.31411 -3.01916 0
M  V30 58195 H 5689.2 3.20558 -3.82157 0
M  V30 58196 H 5688.36 5.35359 -2.8544 0
M  V30 58197 H 5687.09 4.47118 -1.94774 0
M  V30 58198 H 5686.1 3.6581 -4.10443 0
M  V30 58199 H 5687.32 4.57389 -5.01969 0
M  V30 58200 H 5685.27 5.77 -3.12102 0
M  V30 58201 H 5685.19 5.7976 -4.85195 0
M  V30 58202 H 5686.46 6.66639 -4.03996 0
M  V30 58203 N 5690.69 1.36461 0.78842 0
M  V30 58204 C 5691.63 1.3093 1.9225 0
M  V30 58205 C 5692.63 0.200925 1.68204 0
M  V30 58206 O 5693.83 0.367989 1.76198 0
M  V30 58207 H 5690.21 0.407631 0.631934 0
M  V30 58208 H 5692.18 2.26702 1.94033 0
M  V30 58209 C 5690.93 1.11646 3.29288 0
M  V30 58210 H 5690.25 1.96181 3.48358 0
M  V30 58211 H 5691.69 1.11823 4.08989 0
M  V30 58212 C 5690.15 -0.178844 3.36425 0
M  V30 58213 O 5690.68 -1.16833 3.84335 0
M  V30 58214 N 5688.89 -0.223861 2.89736 0
M  V30 58215 H 5688.43 0.581976 2.5094 0
M  V30 58216 H 5688.39 -1.0902 2.94893 0
M  V30 58217 N 5692.16 -1.01269 1.20757 0
M  V30 58218 C 5693.11 -2.08282 0.927499 0
M  V30 58219 C 5694.1 -1.60494 -0.11423 0
M  V30 58220 O 5695.29 -1.76752 0.0936707 0
M  V30 58221 C 5692.42 -3.39847 0.485666 0
M  V30 58222 C 5691.5 -3.94325 1.56104 0
M  V30 58223 N 5691.9 -4.22264 2.78436 0
M  V30 58224 C 5690.19 -4.22517 1.42811 0
M  V30 58225 C 5690.89 -4.6625 3.4783 0
M  V30 58226 N 5689.87 -4.68762 2.75252 0
M  V30 58227 H 5693.67 -2.27798 1.85703 0
M  V30 58228 H 5691.19 -1.19274 1.10216 0
M  V30 58229 H 5693.18 -4.16048 0.266409 0
M  V30 58230 H 5691.84 -3.21743 -0.437188 0
M  V30 58231 H 5692.85 -4.11052 3.15051 0
M  V30 58232 H 5689.53 -4.13591 0.569964 0
M  V30 58233 H 5690.92 -4.96654 4.52531 0
M  V30 58234 N 5693.64 -1.01408 -1.2064 0
M  V30 58235 C 5694.89 -0.703016 -1.90225 0
M  V30 58236 C 5695.22 0.76518 -1.7849 0
M  V30 58237 O 5694.5 1.55565 -1.16746 0
M  V30 58238 C 5694.78 -1.13618 -3.41706 0
M  V30 58239 C 5694.63 -2.6645 -3.62387 0
M  V30 58240 C 5695.95 -0.705514 -4.34408 0
M  V30 58241 H 5693.07 -0.256867 -0.690788 0
M  V30 58242 H 5695.71 -1.26138 -1.42089 0
M  V30 58243 H 5693.86 -0.661111 -3.82834 0
M  V30 58244 H 5695.53 -3.2179 -3.30529 0
M  V30 58245 H 5693.78 -3.07541 -3.05943 0
M  V30 58246 H 5694.45 -2.91812 -4.68562 0
M  V30 58247 H 5696.92 -1.11389 -4.00914 0
M  V30 58248 H 5695.8 -1.03666 -5.39022 0
M  V30 58249 H 5696.06 0.392939 -4.4035 0
M  V30 58250 N 5695.12 1.3637 -0.789992 0
M  V30 58251 C 5696.36 2.01059 -0.368065 0
M  V30 58252 C 5696.72 1.6134 1.04084 0
M  V30 58253 O 5697.92 2.18623 1.56388 0
M  V30 58254 C 5696.2 3.5349 -0.527231 0
M  V30 58255 S 5697.75 4.38374 -0.193267 0
M  V30 58256 H 5694.57 0.69696 -0.140598 0
M  V30 58257 H 5697.17 1.66252 -1.02861 0
M  V30 58258 H 5695.88 3.79885 -1.55292 0
M  V30 58259 H 5695.41 3.93117 0.149225 0
M  V30 58260 H 5697.42 4.85917 1.00496 0
M  V30 58261 N 5696.6 0.542057 1.47985 0
M  V30 58262 C 5697.85 0.0103169 2.01697 0
M  V30 58263 C 5698.16 -1.34168 1.42331 0
M  V30 58264 O 5699.37 -1.96248 1.87614 0
M  V30 58265 C 5697.82 -0.0319767 3.59886 0
M  V30 58266 C 5697.43 1.31586 4.2824 0
M  V30 58267 C 5699.17 -0.511908 4.21402 0
M  V30 58268 C 5697.08 1.2335 5.78393 0
M  V30 58269 H 5696.01 8.67165e-05 0.754 0
M  V30 58270 H 5698.66 0.687646 1.70128 0
M  V30 58271 H 5697.04 -0.774637 3.8835 0
M  V30 58272 H 5698.22 2.07504 4.11435 0
M  V30 58273 H 5696.53 1.7325 3.78647 0
M  V30 58274 H 5699.13 -0.591688 5.31416 0
M  V30 58275 H 5699.47 -1.52047 3.8754 0
M  V30 58276 H 5700.01 0.175433 3.97413 0
M  V30 58277 H 5696.74 2.21759 6.16849 0
M  V30 58278 H 5696.26 0.51588 5.97577 0
M  V30 58279 H 5697.94 0.9292 6.40293 0
M  V30 58280 N 5698.08 -1.55133 0.277764 0
M  V30 58281 C 5699.49 -1.85405 -0.219477 0
M  V30 58282 C 5699.84 -1.19978 -1.55241 0
M  V30 58283 O 5698.96 -0.48906 -2.10801 0
M  V30 58284 C 5699.56 -3.36371 -0.405009 0
M  V30 58285 C 5698.12 -3.66758 -0.846481 0
M  V30 58286 C 5697.26 -2.77238 0.0587037 0
M  V30 58287 H 5700.21 -1.50635 0.499475 0
M  V30 58288 H 5700.24 -3.59619 -1.24316 0
M  V30 58289 H 5699.75 -3.83961 0.565273 0
M  V30 58290 H 5697.85 -3.24669 -1.82814 0
M  V30 58291 H 5697.96 -4.74221 -0.681968 0
M  V30 58292 H 5696.33 -2.50547 -0.458065 0
M  V30 58293 H 5697.11 -3.27644 1.02492 0
M  V30 58294 N 5699.55 -0.00508679 -1.57599 0
M  V30 58295 C 5700.96 0.537043 -1.78809 0
M  V30 58296 C 5701.32 1.73662 -0.913006 0
M  V30 58297 O 5700.44 2.16084 -0.116851 0
M  V30 58298 C 5701.04 0.981046 -3.24285 0
M  V30 58299 C 5699.59 1.46845 -3.46574 0
M  V30 58300 C 5698.74 0.421992 -2.7407 0
M  V30 58301 H 5701.69 -0.231237 -1.57006 0
M  V30 58302 H 5701.71 1.84679 -3.32677 0
M  V30 58303 H 5701.23 0.107771 -3.8795 0
M  V30 58304 H 5699.33 2.36245 -2.8813 0
M  V30 58305 H 5699.44 1.4924 -4.55263 0
M  V30 58306 H 5697.8 0.884769 -2.38839 0
M  V30 58307 H 5698.59 -0.442405 -3.40437 0
M  V30 58308 N 5701.03 1.55309 0.267743 0
M  V30 58309 C 5702.26 1.79933 1.01527 0
M  V30 58310 C 5702.67 0.575514 1.80235 0
M  V30 58311 O 5702.01 -0.465009 1.77717 0
M  V30 58312 C 5702.07 2.97575 2.01716 0
M  V30 58313 C 5701.74 4.34412 1.41897 0
M  V30 58314 C 5702.74 5.132 0.83197 0
M  V30 58315 C 5700.42 4.81079 1.4446 0
M  V30 58316 C 5702.41 6.36791 0.278557 0
M  V30 58317 C 5700.1 6.04624 0.887323 0
M  V30 58318 C 5701.1 6.82317 0.305309 0
M  V30 58319 O 5700.79 8.03531 -0.243416 0
M  V30 58320 H 5700.52 0.603093 0.305377 0
M  V30 58321 H 5703.07 2.03163 0.302306 0
M  V30 58322 H 5701.3 2.70049 2.76786 0
M  V30 58323 H 5702.99 3.09476 2.6264 0
M  V30 58324 H 5703.76 4.78275 0.804832 0
M  V30 58325 H 5699.64 4.20611 1.887 0
M  V30 58326 H 5703.18 6.97377 -0.176362 0
M  V30 58327 H 5699.08 6.39029 0.911718 0
M  V30 58328 H 5699.85 8.18391 -0.133279 0
M  V30 58329 N 5702.51 -0.532493 1.48332 0
M  V30 58330 C 5703.76 -1.2879 1.57432 0
M  V30 58331 C 5704.11 -1.90847 0.243952 0
M  V30 58332 O 5703.4 -1.76186 -0.752938 0
M  V30 58333 C 5703.6 -2.40108 2.64732 0
M  V30 58334 C 5703.43 -1.88961 4.08073 0
M  V30 58335 C 5702.2 -1.7168 4.75241 0
M  V30 58336 C 5704.39 -1.41961 4.94319 0
M  V30 58337 N 5702.38 -1.15132 6.03007 0
M  V30 58338 C 5703.75 -0.973446 6.1231 0
M  V30 58339 C 5705.8 -1.30241 4.80564 0
M  V30 58340 C 5704.51 -0.421697 7.18063 0
M  V30 58341 C 5706.53 -0.764661 5.86436 0
M  V30 58342 C 5705.89 -0.328552 7.03633 0
M  V30 58343 H 5701.99 -0.46239 0.63065 0
M  V30 58344 H 5704.58 -0.600731 1.85201 0
M  V30 58345 H 5702.75 -3.06323 2.3879 0
M  V30 58346 H 5704.48 -3.07137 2.63532 0
M  V30 58347 H 5701.23 -1.95128 4.31534 0
M  V30 58348 H 5701.66 -0.888763 6.71141 0
M  V30 58349 H 5706.3 -1.62564 3.90298 0
M  V30 58350 H 5704.02 -0.0861393 8.08054 0
M  V30 58351 H 5707.6 -0.677188 5.77845 0
M  V30 58352 H 5706.48 0.0810873 7.84158 0
M  V30 58353 N 5703.99 -1.36878 -0.781172 0
M  V30 58354 C 5704.93 -1.31876 -1.89413 0
M  V30 58355 C 5705.9 -0.185962 -1.65056 0
M  V30 58356 O 5707.09 -0.373811 -1.87102 0
M  V30 58357 C 5704.23 -1.12217 -3.26346 0
M  V30 58358 C 5703.34 -2.34644 -3.62721 0
M  V30 58359 C 5702.48 -2.07931 -4.88813 0
M  V30 58360 C 5701.52 -3.26276 -5.17891 0
M  V30 58361 N 5700.65 -2.99175 -6.35168 0
M  V30 58362 H 5705.49 -2.27037 -1.93024 0
M  V30 58363 H 5703.03 -1.1283 -0.943817 0
M  V30 58364 H 5704.99 -0.988425 -4.05322 0
M  V30 58365 H 5703.62 -0.207073 -3.22135 0
M  V30 58366 H 5702.67 -2.58792 -2.78803 0
M  V30 58367 H 5703.98 -3.22933 -3.80153 0
M  V30 58368 H 5703.14 -1.91534 -5.75673 0
M  V30 58369 H 5701.88 -1.16966 -4.73466 0
M  V30 58370 H 5700.88 -3.43222 -4.2951 0
M  V30 58371 H 5702.11 -4.18079 -5.35152 0
M  V30 58372 H 5700.05 -2.10829 -6.21198 0
M  V30 58373 H 5699.97 -3.81004 -6.52972 0
M  V30 58374 H 5701.24 -2.86375 -7.2499 0
M  V30 58375 N 5705.47 1.00628 -1.21292 0
M  V30 58376 C 5706.71 1.75917 -1.04079 0
M  V30 58377 C 5707.07 1.87383 0.418534 0
M  V30 58378 O 5708.27 2.59222 0.711145 0
M  V30 58379 C 5706.54 3.13434 -1.71738 0
M  V30 58380 S 5708.1 4.0463 -1.69764 0
M  V30 58381 H 5704.92 0.605307 -0.372993 0
M  V30 58382 H 5707.52 1.20411 -1.54017 0
M  V30 58383 H 5706.23 3.02722 -2.77106 0
M  V30 58384 H 5705.76 3.74013 -1.21975 0
M  V30 58385 H 5707.77 4.90684 -0.737829 0
M  V30 58386 N 5706.94 1.02047 1.20101 0
M  V30 58387 C 5708.22 0.626988 1.85279 0
M  V30 58388 C 5708.6 -0.894752 1.912 0
M  V30 58389 O 5707.95 -1.78805 1.42271 0
M  V30 58390 C 5708.16 1.27928 3.24708 0
M  V30 58391 C 5709.51 1.39718 4.00954 0
M  V30 58392 O 5710.53 1.2358 3.34076 0
M  V30 58393 O 5709.39 1.65832 5.20732 0
M  V30 58394 H 5706.48 0.216843 0.798065 0
M  V30 58395 H 5709.03 1.11809 1.27659 0
M  V30 58396 H 5707.8 2.31892 3.15186 0
M  V30 58397 H 5707.43 0.775508 3.89964 0
M  V30 58398 N 5708.42 -1.3595 0.797213 0
M  V30 58399 C 5709.67 -1.98638 0.372475 0
M  V30 58400 C 5709.99 -1.63575 -1.06152 0
M  V30 58401 O 5709.26 -0.913576 -1.73293 0
M  V30 58402 H 5707.84 -0.734748 0.134736 0
M  V30 58403 H 5710.5 -1.66018 1.02098 0
M  V30 58404 H 5709.6 -3.08532 0.470599 0
M  V30 58405 N 5709.9 -0.549898 -1.47695 0
M  V30 58406 C 5711.18 0.0422106 -1.95554 0
M  V30 58407 C 5711.56 1.49298 -1.49243 0
M  V30 58408 O 5710.91 2.16595 -0.72792 0
M  V30 58409 C 5711.12 -0.0956778 -3.48869 0
M  V30 58410 C 5712.46 0.0534206 -4.24566 0
M  V30 58411 O 5713.49 -0.0228617 -3.56193 0
M  V30 58412 O 5712.35 0.216258 -5.46072 0
M  V30 58413 H 5709.44 0.0682175 -0.824182 0
M  V30 58414 H 5711.99 -0.615905 -1.58129 0
M  V30 58415 H 5710.76 -1.10549 -3.75359 0
M  V30 58416 H 5710.38 0.600384 -3.93041 0
M  V30 58417 N 5711.38 1.54983 -0.285987 0
M  V30 58418 C 5712.66 1.91873 0.380015 0
M  V30 58419 C 5713.04 1.21152 1.72874 0
M  V30 58420 O 5712.38 0.342078 2.25925 0
M  V30 58421 C 5712.59 3.4526 0.509546 0
M  V30 58422 C 5713.94 4.17235 0.787402 0
M  V30 58423 O 5714.97 3.51213 0.593938 0
M  V30 58424 O 5713.82 5.34089 1.15807 0
M  V30 58425 H 5710.92 0.799938 0.209827 0
M  V30 58426 H 5713.46 1.66402 -0.332941 0
M  V30 58427 H 5712.24 3.88828 -0.439186 0
M  V30 58428 H 5711.86 3.76719 1.27155 0
M  V30 58429 N 5712.86 0.0134446 1.57594 0
M  V30 58430 C 5714.13 -0.706351 1.82401 0
M  V30 58431 C 5714.51 -1.91233 0.89405 0
M  V30 58432 O 5713.86 -2.28436 -0.0540872 0
M  V30 58433 C 5714.07 -1.09939 3.31232 0
M  V30 58434 C 5715.42 -1.49762 3.97312 0
M  V30 58435 O 5716.44 -1.19281 3.35634 0
M  V30 58436 O 5715.3 -2.06493 5.05987 0
M  V30 58437 H 5712.4 -0.345105 0.751553 0
M  V30 58438 H 5714.94 0.0399283 1.69653 0
M  V30 58439 H 5713.71 -0.240377 3.90561 0
M  V30 58440 H 5713.34 -1.90434 3.49028 0
M  V30 58441 N 5714.33 -1.55449 -0.259503 0
M  V30 58442 C 5715.57 -1.78448 -0.996787 0
M  V30 58443 C 5715.94 -0.580927 -1.83001 0
M  V30 58444 O 5717.14 -0.689431 -2.59808 0
M  V30 58445 C 5715.41 -3.06101 -1.84491 0
M  V30 58446 S 5716.97 -3.50272 -2.64301 0
M  V30 58447 H 5713.79 -0.626865 -0.335501 0
M  V30 58448 H 5716.39 -1.93684 -0.265861 0
M  V30 58449 H 5715.09 -3.91776 -1.22227 0
M  V30 58450 H 5714.62 -2.93568 -2.61881 0
M  V30 58451 H 5716.64 -3.1061 -3.86957 0
M  V30 58452 N 5715.81 0.524619 -1.48612 0
M  V30 58453 C 5717.06 1.27762 -1.56592 0
M  V30 58454 C 5717.38 1.93468 -0.243967 0
M  V30 58455 O 5716.65 1.81592 0.734922 0
M  V30 58456 H 5715.23 0.474546 -0.576902 0
M  V30 58457 H 5717.89 0.610049 -1.85106 0
M  V30 58458 H 5716.99 2.05408 -2.34976 0
M  V30 58459 N 5717.29 1.3729 0.773902 0
M  V30 58460 C 5718.57 1.22915 1.52155 0
M  V30 58461 C 5718.95 -0.178175 2.10347 0
M  V30 58462 O 5718.3 -1.18557 1.95337 0
M  V30 58463 C 5718.51 2.32346 2.60416 0
M  V30 58464 C 5719.85 2.69781 3.27877 0
M  V30 58465 O 5720.88 2.31506 2.70709 0
M  V30 58466 O 5719.74 3.35714 4.31229 0
M  V30 58467 H 5716.83 0.479503 0.673799 0
M  V30 58468 H 5719.38 1.49064 0.811052 0
M  V30 58469 H 5718.15 3.26598 2.15521 0
M  V30 58470 H 5717.77 2.0765 3.39068 0
M  V30 58471 N 5718.77 -0.999829 1.21824 0
M  V30 58472 C 5720.02 -1.73493 1.03656 0
M  V30 58473 C 5720.34 -1.90195 -0.430204 0
M  V30 58474 O 5719.61 -1.45659 -1.30997 0
M  V30 58475 H 5718.19 -0.642791 0.380564 0
M  V30 58476 H 5720.85 -1.20455 1.5322 0
M  V30 58477 H 5719.95 -2.73209 1.50874 0
M  V30 58478 N 5720.25 -1.02682 -1.19558 0
M  V30 58479 C 5721.47 -0.741492 -1.93692 0
M  V30 58480 C 5721.9 0.693142 -1.74863 0
M  V30 58481 O 5721.26 1.47829 -1.04958 0
M  V30 58482 C 5721.3 -1.09526 -3.43564 0
M  V30 58483 O 5720.41 -0.212741 -4.11851 0
M  V30 58484 H 5719.75 -0.274149 -0.604763 0
M  V30 58485 H 5722.28 -1.37295 -1.51695 0
M  V30 58486 H 5722.29 -1.05129 -3.94223 0
M  V30 58487 H 5720.96 -2.14046 -3.56591 0
M  V30 58488 H 5719.54 -0.31513 -3.71566 0
M  V30 58489 N 5721.73 1.35525 -0.804411 0
M  V30 58490 C 5723 1.93174 -0.307117 0
M  V30 58491 C 5723.38 1.7347 1.20297 0
M  V30 58492 O 5722.73 1.10242 2.00147 0
M  V30 58493 C 5722.94 3.41574 -0.716138 0
M  V30 58494 C 5724.29 4.18717 -0.704389 0
M  V30 58495 O 5725.31 3.50078 -0.657546 0
M  V30 58496 O 5724.17 5.41179 -0.760791 0
M  V30 58497 H 5721.27 0.823139 -0.0798177 0
M  V30 58498 H 5723.81 1.44614 -0.887962 0
M  V30 58499 H 5722.58 3.49636 -1.757 0
M  V30 58500 H 5722.21 3.97448 -0.109983 0
M  V30 58501 N 5723.2 0.557723 1.47402 0
M  V30 58502 C 5724.11 -0.192808 2.33806 0
M  V30 58503 C 5725.13 -0.911371 1.48223 0
M  V30 58504 O 5726.31 -0.88015 1.8115 0
M  V30 58505 C 5723.37 -1.20925 3.24928 0
M  V30 58506 C 5722.43 -0.498059 4.26401 0
M  V30 58507 C 5721.66 -1.46608 5.13168 0
M  V30 58508 O 5721.89 -2.70094 5.024 0
M  V30 58509 O 5720.82 -0.990288 5.93698 0
M  V30 58510 H 5724.65 0.515966 2.99285 0
M  V30 58511 H 5722.23 0.318335 1.45969 0
M  V30 58512 H 5724.11 -1.79597 3.81212 0
M  V30 58513 H 5722.79 -1.89994 2.62077 0
M  V30 58514 H 5721.7 0.129867 3.73875 0
M  V30 58515 H 5723.03 0.151188 4.91968 0
M  V30 58516 N 5724.68 -1.5483 0.294202 0
M  V30 58517 C 5725.59 -2.26941 -0.594542 0
M  V30 58518 C 5726.61 -1.30213 -1.15414 0
M  V30 58519 O 5727.78 -1.63184 -1.18038 0
M  V30 58520 C 5724.85 -2.99096 -1.75335 0
M  V30 58521 C 5723.91 -4.11347 -1.22851 0
M  V30 58522 C 5723.14 -4.80052 -2.33208 0
M  V30 58523 O 5723.37 -4.48074 -3.52967 0
M  V30 58524 O 5722.3 -5.676 -2.00284 0
M  V30 58525 H 5726.13 -3.03698 -0.00978559 0
M  V30 58526 H 5723.71 -1.49276 0.0609053 0
M  V30 58527 H 5725.59 -3.44377 -2.42863 0
M  V30 58528 H 5724.27 -2.2524 -2.32484 0
M  V30 58529 H 5723.17 -3.7048 -0.519149 0
M  V30 58530 H 5724.51 -4.8716 -0.702532 0
M  V30 58531 N 5726.16 -0.021802 -1.57585 0
M  V30 58532 C 5727.09 0.960994 -2.12808 0
M  V30 58533 C 5728.07 1.34416 -1.04242 0
M  V30 58534 O 5729.26 1.42407 -1.32037 0
M  V30 58535 C 5726.39 2.24577 -2.6492 0
M  V30 58536 C 5725.34 2.00357 -3.78208 0
M  V30 58537 C 5724.67 3.35036 -4.16719 0
M  V30 58538 C 5725.97 1.34862 -5.04589 0
M  V30 58539 H 5727.66 0.501119 -2.95176 0
M  V30 58540 H 5725.21 0.239599 -1.41993 0
M  V30 58541 H 5727.16 2.93704 -3.02185 0
M  V30 58542 H 5725.88 2.72717 -1.79703 0
M  V30 58543 H 5724.54 1.3365 -3.4137 0
M  V30 58544 H 5724.19 3.80921 -3.28494 0
M  V30 58545 H 5723.89 3.19639 -4.93056 0
M  V30 58546 H 5725.41 4.05443 -4.56561 0
M  V30 58547 H 5726.83 1.93978 -5.39486 0
M  V30 58548 H 5725.22 1.29885 -5.85875 0
M  V30 58549 H 5726.29 0.320604 -4.83839 0
M  V30 58550 N 5727.64 1.55584 0.251256 0
M  V30 58551 C 5728.59 1.86341 1.31381 0
M  V30 58552 C 5729.57 0.723937 1.43694 0
M  V30 58553 O 5730.76 0.985769 1.47009 0
M  V30 58554 C 5727.89 2.15781 2.67008 0
M  V30 58555 C 5726.98 3.36045 2.58717 0
M  V30 58556 N 5727.37 4.55422 2.20055 0
M  V30 58557 C 5725.67 3.39068 2.89739 0
M  V30 58558 C 5726.37 5.37552 2.2229 0
M  V30 58559 N 5725.34 4.76503 2.61621 0
M  V30 58560 H 5729.15 2.76171 1.00532 0
M  V30 58561 H 5726.66 1.55752 0.459886 0
M  V30 58562 H 5728.66 2.3598 3.43685 0
M  V30 58563 H 5727.32 1.27247 2.98728 0
M  V30 58564 H 5728.33 4.81126 1.91671 0
M  V30 58565 H 5725.01 2.60793 3.26027 0
M  V30 58566 H 5726.4 6.43049 1.94776 0
M  V30 58567 N 5729.12 -0.516731 1.48888 0
M  V30 58568 C 5730.05 -1.62891 1.67298 0
M  V30 58569 C 5731.03 -1.61901 0.521728 0
M  V30 58570 O 5732.21 -1.78889 0.755791 0
M  V30 58571 C 5729.34 -3.01438 1.72489 0
M  V30 58572 C 5728.3 -3.1729 2.87247 0
M  V30 58573 C 5727.62 -4.5703 2.77538 0
M  V30 58574 C 5728.92 -2.98803 4.28385 0
M  V30 58575 H 5730.62 -1.47739 2.6041 0
M  V30 58576 H 5728.16 -0.709317 1.25318 0
M  V30 58577 H 5730.11 -3.79128 1.83956 0
M  V30 58578 H 5728.84 -3.17643 0.759649 0
M  V30 58579 H 5727.5 -2.42021 2.75357 0
M  V30 58580 H 5727.15 -4.7009 1.78955 0
M  V30 58581 H 5726.85 -4.6858 3.54551 0
M  V30 58582 H 5728.37 -5.36802 2.90991 0
M  V30 58583 H 5729.78 -3.66275 4.41039 0
M  V30 58584 H 5728.18 -3.21837 5.06499 0
M  V30 58585 H 5729.25 -1.95087 4.43925 0
M  V30 58586 N 5730.59 -1.37698 -0.766611 0
M  V30 58587 C 5731.83 -1.34594 -1.53831 0
M  V30 58588 C 5732.2 0.067571 -1.91881 0
M  V30 58589 O 5733.4 0.223385 -2.6787 0
M  V30 58590 C 5731.67 -2.26339 -2.76596 0
M  V30 58591 S 5733.23 -2.41133 -3.66606 0
M  V30 58592 H 5730.05 -0.477736 -0.526583 0
M  V30 58593 H 5732.65 -1.73498 -0.901038 0
M  V30 58594 H 5731.35 -3.27951 -2.46731 0
M  V30 58595 H 5730.88 -1.88537 -3.45279 0
M  V30 58596 H 5732.9 -1.62573 -4.68812 0
M  V30 58597 N 5732.07 0.993354 -1.22353 0
M  V30 58598 C 5733 2.10167 -1.01744 0
M  V30 58599 C 5733.98 1.69989 0.0614678 0
M  V30 58600 O 5735.17 1.93939 -0.100659 0
M  V30 58601 C 5732.3 3.42184 -0.593922 0
M  V30 58602 C 5731.25 3.96209 -1.61871 0
M  V30 58603 C 5730.58 5.24268 -1.05105 0
M  V30 58604 C 5731.88 4.26945 -3.00857 0
M  V30 58605 H 5733.57 2.27666 -1.94444 0
M  V30 58606 H 5731.12 1.09405 -0.936297 0
M  V30 58607 H 5733.07 4.19129 -0.436862 0
M  V30 58608 H 5731.79 3.24512 0.368741 0
M  V30 58609 H 5730.45 3.21395 -1.76354 0
M  V30 58610 H 5730.1 5.02937 -0.0797515 0
M  V30 58611 H 5729.8 5.61381 -1.73567 0
M  V30 58612 H 5731.33 6.03848 -0.905561 0
M  V30 58613 H 5732.74 4.94689 -2.89751 0
M  V30 58614 H 5731.14 4.75229 -3.66439 0
M  V30 58615 H 5732.21 3.34739 -3.50824 0
M  V30 58616 N 5733.55 1.03315 1.19012 0
M  V30 58617 C 5734.83 0.646604 1.84603 0
M  V30 58618 C 5735.21 -0.874423 1.92138 0
M  V30 58619 O 5734.55 -1.77286 1.4416 0
M  V30 58620 C 5734.76 1.31365 3.23333 0
M  V30 58621 C 5736.11 1.43963 3.99449 0
M  V30 58622 O 5737.14 1.27116 3.32746 0
M  V30 58623 O 5736 1.71346 5.18944 0
M  V30 58624 H 5733.09 0.225295 0.79572 0
M  V30 58625 H 5735.64 1.13157 1.26466 0
M  V30 58626 H 5734.41 2.35221 3.12708 0
M  V30 58627 H 5734.03 0.816825 3.89119 0
M  V30 58628 N 5735.03 -1.35096 0.811587 0
M  V30 58629 C 5736.27 -1.98918 0.394885 0
M  V30 58630 C 5736.61 -1.64223 -1.03655 0
M  V30 58631 O 5735.88 -0.908091 -1.72 0
M  V30 58632 C 5736.17 -3.55329 0.584255 0
M  V30 58633 C 5736.02 -3.99804 2.06098 0
M  V30 58634 C 5737.34 -4.40098 0.0130643 0
M  V30 58635 H 5734.46 -0.722605 0.144952 0
M  V30 58636 H 5737.1 -1.60169 1.02205 0
M  V30 58637 H 5735.25 -3.88467 0.0503812 0
M  V30 58638 H 5736.92 -3.77052 2.65762 0
M  V30 58639 H 5735.16 -3.5053 2.5556 0
M  V30 58640 H 5735.83 -5.08647 2.14434 0
M  V30 58641 H 5738.31 -4.13448 0.469063 0
M  V30 58642 H 5737.19 -5.4862 0.175445 0
M  V30 58643 H 5737.45 -4.28679 -1.08105 0
M  V30 58644 N 5736.51 -0.565532 -1.47104 0
M  V30 58645 C 5737.92 -0.134354 -1.86216 0
M  V30 58646 C 5738.27 1.2981 -1.47119 0
M  V30 58647 O 5737.39 1.97784 -0.878086 0
M  V30 58648 C 5737.99 -0.23705 -3.3797 0
M  V30 58649 C 5736.55 0.139143 -3.76143 0
M  V30 58650 C 5735.69 -0.580838 -2.71149 0
M  V30 58651 H 5738.65 -0.774772 -1.38503 0
M  V30 58652 H 5738.67 0.542169 -3.76618 0
M  V30 58653 H 5738.18 -1.27971 -3.66395 0
M  V30 58654 H 5736.28 1.18259 -3.53335 0
M  V30 58655 H 5736.39 -0.225213 -4.7857 0
M  V30 58656 H 5734.76 -0.0229859 -2.5469 0
M  V30 58657 H 5735.54 -1.62481 -3.02415 0
M  V30 58658 N 5737.98 1.54671 -0.302409 0
M  V30 58659 C 5739.22 2.02077 0.307308 0
M  V30 58660 C 5739.59 1.18608 1.50984 0
M  V30 58661 O 5740.79 1.55718 2.19102 0
M  V30 58662 C 5739.06 3.51372 0.653626 0
M  V30 58663 S 5740.62 4.20738 1.246 0
M  V30 58664 H 5737.44 0.704728 0.0942273 0
M  V30 58665 H 5740.04 1.90699 -0.430609 0
M  V30 58666 H 5738.74 4.09755 -0.230036 0
M  V30 58667 H 5738.27 3.66789 1.4223 0
M  V30 58668 H 5740.29 4.26633 2.53375 0
M  V30 58669 N 5739.46 0.0301588 1.57571 0
M  V30 58670 C 5740.41 -0.969351 2.11439 0
M  V30 58671 C 5741.4 -1.33624 1.04121 0
M  V30 58672 O 5742.61 -1.31835 1.22554 0
M  V30 58673 H 5738.99 -0.330383 0.675538 0
M  V30 58674 H 5740.96 -0.489724 2.94354 0
M  V30 58675 C 5739.71 -2.24224 2.65742 0
M  V30 58676 H 5739.03 -1.96868 3.4797 0
M  V30 58677 H 5740.47 -2.92368 3.07078 0
M  V30 58678 C 5738.93 -2.97268 1.58534 0
M  V30 58679 O 5739.46 -3.89417 0.985778 0
M  V30 58680 N 5737.66 -2.59623 1.30554 0
M  V30 58681 H 5737.21 -1.84766 1.79497 0
M  V30 58682 H 5737.17 -3.08805 0.59048 0
M  V30 58683 N 5740.94 -1.55715 -0.243001 0
M  V30 58684 C 5742.17 -1.82129 -0.992155 0
M  V30 58685 C 5742.59 -0.607728 -1.78012 0
M  V30 58686 O 5741.95 0.443289 -1.75797 0
M  V30 58687 C 5742 -3.06321 -1.90263 0
M  V30 58688 O 5741.1 -2.8351 -2.99493 0
M  V30 58689 H 5740.44 -0.601092 -0.282106 0
M  V30 58690 H 5742.97 -2.02905 -0.262809 0
M  V30 58691 H 5742.98 -3.35858 -2.31654 0
M  V30 58692 H 5741.66 -3.94286 -1.3233 0
M  V30 58693 H 5740.23 -2.6515 -2.62202 0
M  V30 58694 N 5742.42 0.508828 -1.4916 0
M  V30 58695 C 5743.83 1.09048 -1.51543 0
M  V30 58696 C 5744.18 1.93936 -0.297167 0
M  V30 58697 O 5743.31 2.08094 0.593776 0
M  V30 58698 C 5743.9 1.98437 -2.74606 0
M  V30 58699 C 5742.46 2.5178 -2.79792 0
M  V30 58700 C 5741.61 1.29218 -2.45353 0
M  V30 58701 H 5744.56 0.293093 -1.5597 0
M  V30 58702 H 5744.58 2.83019 -2.54324 0
M  V30 58703 H 5744.09 1.36627 -3.63256 0
M  V30 58704 H 5742.19 3.17251 -1.95403 0
M  V30 58705 H 5742.3 2.89468 -3.81766 0
M  V30 58706 H 5740.67 1.61487 -1.96962 0
M  V30 58707 H 5741.45 0.691281 -3.36268 0
M  V30 58708 N 5743.9 1.38103 0.759297 0
M  V30 58709 C 5744.84 1.34979 1.89429 0
M  V30 58710 C 5745.84 0.236558 1.6774 0
M  V30 58711 O 5747.04 0.40528 1.75378 0
M  V30 58712 H 5743.42 0.420944 0.623146 0
M  V30 58713 H 5745.39 2.30767 1.89181 0
M  V30 58714 C 5744.14 1.18606 3.26846 0
M  V30 58715 H 5743.46 2.03526 3.44118 0
M  V30 58716 H 5744.9 1.20473 4.06525 0
M  V30 58717 C 5743.36 -0.107444 3.36729 0
M  V30 58718 O 5743.89 -1.08654 3.86726 0
M  V30 58719 N 5742.1 -0.162353 2.90146 0
M  V30 58720 H 5741.64 0.635073 2.49649 0
M  V30 58721 H 5741.6 -1.0274 2.97139 0
M  V30 58722 N 5745.37 -0.986851 1.22878 0
M  V30 58723 C 5746.79 -1.25181 0.990041 0
M  V30 58724 C 5746.99 -1.99058 -0.31275 0
M  V30 58725 O 5746.05 -2.30365 -1.03384 0
M  V30 58726 C 5747.36 -2.05768 2.19272 0
M  V30 58727 C 5748.91 -2.1893 2.23693 0
M  V30 58728 C 5749.38 -3.02905 3.43529 0
M  V30 58729 N 5750.87 -3.10491 3.43729 0
M  V30 58730 C 5751.61 -3.75774 4.33107 0
M  V30 58731 N 5751.1 -4.42933 5.32712 0
M  V30 58732 N 5752.9 -3.72596 4.20867 0
M  V30 58733 H 5745.05 -0.491743 2.06629 0
M  V30 58734 H 5747.31 -0.279825 0.905761 0
M  V30 58735 H 5747.02 -1.58853 3.13781 0
M  V30 58736 H 5746.89 -3.06521 2.19829 0
M  V30 58737 H 5749.28 -2.65056 1.29728 0
M  V30 58738 H 5749.36 -1.17587 2.27172 0
M  V30 58739 H 5749 -2.57478 4.37799 0
M  V30 58740 H 5748.93 -4.04403 3.37291 0
M  V30 58741 H 5751.42 -2.627 2.71657 0
M  V30 58742 H 5751.74 -4.90506 5.9718 0
M  V30 58743 H 5750.08 -4.41662 5.36618 0
M  V30 58744 H 5753.27 -3.19293 3.423 0
M  V30 58745 H 5753.45 -4.23192 4.90726 0
M  V30 58746 N 5746.85 -1.03945 -1.18462 0
M  V30 58747 C 5748.1 -0.742108 -1.88412 0
M  V30 58748 C 5748.43 0.730074 -1.80278 0
M  V30 58749 O 5747.68 1.5484 -1.19679 0
M  V30 58750 C 5747.98 -1.15209 -3.38322 0
M  V30 58751 C 5747.65 -2.62435 -3.66659 0
M  V30 58752 C 5746.31 -3.02656 -3.74103 0
M  V30 58753 C 5748.66 -3.57634 -3.79141 0
M  V30 58754 C 5745.99 -4.36966 -3.91506 0
M  V30 58755 C 5748.34 -4.91661 -3.9806 0
M  V30 58756 C 5747.01 -5.31555 -4.03739 0
M  V30 58757 H 5746.28 -0.271556 -0.689448 0
M  V30 58758 H 5748.92 -1.30424 -1.40221 0
M  V30 58759 H 5747.23 -0.508743 -3.88483 0
M  V30 58760 H 5748.92 -0.899407 -3.90783 0
M  V30 58761 H 5745.51 -2.30281 -3.61481 0
M  V30 58762 H 5749.7 -3.27706 -3.72723 0
M  V30 58763 H 5744.95 -4.67396 -3.94146 0
M  V30 58764 H 5749.13 -5.65332 -4.0666 0
M  V30 58765 H 5746.76 -6.35637 -4.16977 0
M  V30 58766 N 5748.33 1.34664 -0.81874 0
M  V30 58767 C 5749.75 1.51434 -0.503975 0
M  V30 58768 C 5749.95 1.76471 0.972628 0
M  V30 58769 O 5749 1.8132 1.75725 0
M  V30 58770 C 5750.32 2.68194 -1.35988 0
M  V30 58771 C 5751.86 2.82075 -1.35657 0
M  V30 58772 C 5752.34 4.01873 -2.19686 0
M  V30 58773 N 5753.83 4.09073 -2.17287 0
M  V30 58774 C 5754.56 5.00915 -2.79056 0
M  V30 58775 N 5754.06 5.98008 -3.49798 0
M  V30 58776 N 5755.85 4.93754 -2.68632 0
M  V30 58777 H 5748 1.16671 -1.77487 0
M  V30 58778 H 5750.27 0.571847 -0.756105 0
M  V30 58779 H 5749.97 2.56309 -2.40829 0
M  V30 58780 H 5749.85 3.63101 -1.02163 0
M  V30 58781 H 5752.23 2.93404 -0.315952 0
M  V30 58782 H 5752.32 1.87988 -1.73476 0
M  V30 58783 H 5751.96 3.91304 -3.23795 0
M  V30 58784 H 5751.89 4.95164 -1.7922 0
M  V30 58785 H 5754.38 3.39574 -1.65826 0
M  V30 58786 H 5754.69 6.64708 -3.94186 0
M  V30 58787 H 5753.04 5.98145 -3.53904 0
M  V30 58788 H 5756.23 4.1686 -2.12944 0
M  V30 58789 H 5756.4 5.65136 -3.17058 0
M  V30 58790 N 5749.81 0.573325 1.46802 0
M  V30 58791 C 5751.05 0.0578949 2.04318 0
M  V30 58792 C 5751.41 -1.27419 1.43626 0
M  V30 58793 O 5752.61 -1.87828 1.92286 0
M  V30 58794 C 5750.89 -0.0166974 3.57396 0
M  V30 58795 S 5752.44 -0.475914 4.36212 0
M  V30 58796 H 5749.26 0.0329275 0.710237 0
M  V30 58797 H 5751.86 0.763704 1.79966 0
M  V30 58798 H 5750.57 0.956897 3.99089 0
M  V30 58799 H 5750.1 -0.745566 3.8627 0
M  V30 58800 H 5752.11 -1.73252 4.64971 0
M  V30 58801 N 5751.29 -1.54509 0.310607 0
M  V30 58802 C 5752.56 -1.92453 -0.349442 0
M  V30 58803 C 5752.94 -1.23887 -1.70925 0
M  V30 58804 O 5752.29 -0.377978 -2.25352 0
M  V30 58805 C 5752.5 -3.46027 -0.454553 0
M  V30 58806 C 5753.85 -4.18435 -0.720924 0
M  V30 58807 O 5754.87 -3.52114 -0.537988 0
M  V30 58808 O 5753.73 -5.35864 -1.07295 0
M  V30 58809 H 5750.83 -0.803175 -0.197075 0
M  V30 58810 H 5753.37 -1.65851 0.359372 0
M  V30 58811 H 5752.15 -3.8808 0.500989 0
M  V30 58812 H 5751.77 -3.78694 -1.21146 0
M  V30 58813 N 5752.77 -0.0385148 -1.57553 0
M  V30 58814 C 5753.71 0.958124 -2.1195 0
M  V30 58815 C 5754.71 1.3307 -1.04828 0
M  V30 58816 O 5755.91 1.31183 -1.23252 0
M  V30 58817 H 5752.29 0.326796 -0.67728 0
M  V30 58818 H 5754.26 0.474107 -2.9461 0
M  V30 58819 C 5753.01 2.22811 -2.66928 0
M  V30 58820 H 5752.33 1.95019 -3.49009 0
M  V30 58821 H 5753.77 2.90735 -3.08625 0
M  V30 58822 C 5752.23 2.96424 -1.60108 0
M  V30 58823 O 5752.76 3.88888 -1.00642 0
M  V30 58824 N 5750.97 2.58927 -1.31929 0
M  V30 58825 H 5750.51 1.83812 -1.80474 0
M  V30 58826 H 5750.47 3.08488 -0.606849 0
M  V30 58827 N 5754.24 1.55842 0.23474 0
M  V30 58828 C 5755.19 1.92169 1.31048 0
M  V30 58829 C 5756.19 0.802158 1.49204 0
M  V30 58830 O 5757.39 0.986885 1.50534 0
M  V30 58831 H 5753.77 0.610502 0.43908 0
M  V30 58832 H 5755.74 2.81959 0.976827 0
M  V30 58833 C 5754.49 2.24338 2.65646 0
M  V30 58834 H 5753.81 3.09991 2.52479 0
M  V30 58835 H 5755.25 2.53651 3.39761 0
M  V30 58836 C 5753.71 1.06391 3.1966 0
M  V30 58837 O 5754.24 0.318188 4.00438 0
M  V30 58838 N 5752.44 0.851264 2.77852 0
M  V30 58839 H 5751.99 1.45939 2.12272 0
M  V30 58840 H 5751.95 0.063798 3.14335 0
M  V30 58841 N 5755.72 -0.50091 1.49428 0
M  V30 58842 C 5757.14 -0.832094 1.36192 0
M  V30 58843 C 5757.34 -1.97589 0.395083 0
M  V30 58844 O 5756.39 -2.51905 -0.173206 0
M  V30 58845 C 5757.71 -1.17222 2.76911 0
M  V30 58846 C 5759.25 -1.28042 2.85612 0
M  V30 58847 C 5759.73 -1.65384 4.27098 0
M  V30 58848 N 5761.22 -1.72432 4.29908 0
M  V30 58849 C 5761.96 -2.0277 5.3635 0
M  V30 58850 N 5761.45 -2.31332 6.53037 0
M  V30 58851 N 5763.24 -2.04022 5.23767 0
M  V30 58852 H 5755.4 0.253327 2.10884 0
M  V30 58853 H 5757.66 0.0507443 0.946641 0
M  V30 58854 H 5757.36 -0.405124 3.49359 0
M  V30 58855 H 5757.24 -2.11563 3.12283 0
M  V30 58856 H 5759.63 -2.03823 2.13401 0
M  V30 58857 H 5759.71 -0.317513 2.53822 0
M  V30 58858 H 5759.35 -0.901528 4.99835 0
M  V30 58859 H 5759.28 -2.62774 4.56352 0
M  V30 58860 H 5761.77 -1.5252 3.45754 0
M  V30 58861 H 5762.08 -2.53669 7.29981 0
M  V30 58862 H 5760.43 -2.28788 6.56263 0
M  V30 58863 H 5763.62 -1.81185 4.31613 0
M  V30 58864 H 5763.79 -2.27331 6.06815 0
M  V30 58865 N 5757.2 -1.38504 -0.751963 0
M  V30 58866 C 5758.44 -1.36218 -1.52395 0
M  V30 58867 C 5758.8 0.0472156 -1.91942 0
M  V30 58868 O 5760 0.194961 -2.68092 0
M  V30 58869 C 5758.28 -2.29259 -2.7418 0
M  V30 58870 S 5759.83 -2.45008 -3.64028 0
M  V30 58871 H 5756.65 -0.483294 -0.521486 0
M  V30 58872 H 5759.25 -1.74444 -0.882586 0
M  V30 58873 H 5757.96 -3.3055 -2.43239 0
M  V30 58874 H 5757.49 -1.92188 -3.4326 0
M  V30 58875 H 5759.5 -1.67536 -4.67061 0
M  V30 58876 N 5758.68 0.980321 -1.234 0
M  V30 58877 C 5759.93 1.71588 -1.06021 0
M  V30 58878 C 5760.24 1.91403 0.403036 0
M  V30 58879 O 5761.45 2.62407 0.69676 0
M  V30 58880 C 5759.9 3.08789 -1.84872 0
M  V30 58881 C 5759.51 2.96861 -3.35526 0
M  V30 58882 C 5761.25 3.86304 -1.75982 0
M  V30 58883 C 5759.16 4.29294 -4.06769 0
M  V30 58884 H 5758.09 0.643409 -0.393117 0
M  V30 58885 H 5760.74 1.0934 -1.47367 0
M  V30 58886 H 5759.12 3.71793 -1.36331 0
M  V30 58887 H 5760.3 2.42946 -3.91553 0
M  V30 58888 H 5758.61 2.32821 -3.45229 0
M  V30 58889 H 5761.21 4.84347 -2.26521 0
M  V30 58890 H 5761.55 4.09981 -0.722608 0
M  V30 58891 H 5762.09 3.30002 -2.22134 0
M  V30 58892 H 5758.82 4.10813 -5.10796 0
M  V30 58893 H 5758.34 4.83073 -3.55528 0
M  V30 58894 H 5760.02 4.97981 -4.13067 0
M  V30 58895 N 5760.16 1.04571 1.17909 0
M  V30 58896 C 5761.39 0.771152 1.91668 0
M  V30 58897 C 5761.79 -0.676199 1.76704 0
M  V30 58898 O 5761.14 -1.4731 1.09751 0
M  V30 58899 C 5761.2 1.06418 3.43388 0
M  V30 58900 C 5760.86 2.50645 3.82133 0
M  V30 58901 C 5761.86 3.48838 3.85497 0
M  V30 58902 C 5759.54 2.8549 4.1328 0
M  V30 58903 C 5761.54 4.79924 4.19466 0
M  V30 58904 C 5759.23 4.16781 4.46919 0
M  V30 58905 C 5760.22 5.13809 4.49989 0
M  V30 58906 O 5759.91 6.42745 4.82839 0
M  V30 58907 H 5759.64 0.280279 0.615158 0
M  V30 58908 H 5762.2 1.39786 1.50496 0
M  V30 58909 H 5760.43 0.380356 3.84825 0
M  V30 58910 H 5762.12 0.776615 3.98401 0
M  V30 58911 H 5762.88 3.23258 3.61565 0
M  V30 58912 H 5758.76 2.10636 4.10065 0
M  V30 58913 H 5762.31 5.55653 4.21777 0
M  V30 58914 H 5758.2 4.42128 4.70312 0
M  V30 58915 H 5758.97 6.47472 5.00722 0
M  V30 58916 N 5761.63 -1.34228 0.82587 0
M  V30 58917 C 5762.86 -2.02948 0.427426 0
M  V30 58918 C 5763.28 -1.61776 -0.959699 0
M  V30 58919 O 5762.64 -0.803856 -1.62505 0
M  V30 58920 C 5762.69 -3.5652 0.540924 0
M  V30 58921 O 5761.79 -4.10067 -0.438069 0
M  V30 58922 H 5761.13 -0.640371 0.175557 0
M  V30 58923 H 5763.66 -1.71412 1.1171 0
M  V30 58924 H 5763.67 -4.05855 0.417773 0
M  V30 58925 H 5762.35 -3.85833 1.5526 0
M  V30 58926 H 5760.93 -3.71895 -0.273556 0
M  V30 58927 N 5763.11 -0.581102 -1.46496 0
M  V30 58928 C 5764.06 0.173951 -2.27335 0
M  V30 58929 C 5765.05 0.863343 -1.35776 0
M  V30 58930 O 5766.24 0.757704 -1.59962 0
M  V30 58931 C 5763.37 1.18802 -3.22088 0
M  V30 58932 C 5762.45 0.50083 -4.21132 0
M  V30 58933 N 5762.84 -0.442672 -5.03859 0
M  V30 58934 C 5761.14 0.751778 -4.39618 0
M  V30 58935 C 5761.84 -0.844146 -5.75542 0
M  V30 58936 N 5760.82 -0.193651 -5.43255 0
M  V30 58937 H 5764.62 -0.551106 -2.88687 0
M  V30 58938 H 5762.13 -0.402777 -1.57326 0
M  V30 58939 H 5764.13 1.74312 -3.7871 0
M  V30 58940 H 5762.79 1.91392 -2.62296 0
M  V30 58941 H 5763.8 -0.818111 -5.11397 0
M  V30 58942 H 5760.48 1.46437 -3.90976 0
M  V30 58943 H 5761.87 -1.62081 -6.52058 0
M  V30 58944 N 5764.59 1.54342 -0.318797 0
M  V30 58945 C 5765.5 2.27858 0.558362 0
M  V30 58946 C 5766.52 1.32033 1.13328 0
M  V30 58947 O 5767.69 1.65041 1.15427 0
M  V30 58948 C 5764.76 3.01848 1.70554 0
M  V30 58949 C 5763.82 4.13249 1.16291 0
M  V30 58950 C 5763.05 4.83701 2.25542 0
M  V30 58951 O 5763.27 4.53633 3.45794 0
M  V30 58952 O 5762.21 5.70715 1.91229 0
M  V30 58953 H 5766.03 3.03676 -0.0385314 0
M  V30 58954 H 5763.62 1.4916 -0.084646 0
M  V30 58955 H 5765.5 3.48197 2.37353 0
M  V30 58956 H 5764.18 2.2891 2.28871 0
M  V30 58957 H 5763.08 3.71259 0.460143 0
M  V30 58958 H 5764.42 4.88216 0.62494 0
M  V30 58959 N 5766.07 0.0468696 1.5753 0
M  V30 58960 C 5767.31 -0.628801 1.92805 0
M  V30 58961 C 5767.65 -1.70748 0.925143 0
M  V30 58962 O 5766.92 -1.94437 -0.0495137 0
M  V30 58963 C 5767.21 -1.22887 3.38483 0
M  V30 58964 C 5767.06 -0.158549 4.4952 0
M  V30 58965 C 5768.38 -2.14177 3.84469 0
M  V30 58966 H 5765.5 -0.227112 0.701134 0
M  V30 58967 H 5768.14 0.107756 1.89694 0
M  V30 58968 H 5766.29 -1.85662 3.41265 0
M  V30 58969 H 5767.96 0.473125 4.58867 0
M  V30 58970 H 5766.2 0.513902 4.30745 0
M  V30 58971 H 5766.87 -0.618353 5.48526 0
M  V30 58972 H 5769.35 -1.61368 3.83535 0
M  V30 58973 H 5768.23 -2.53108 4.8706 0
M  V30 58974 H 5768.49 -3.04013 3.20981 0
M  V30 58975 N 5767.55 -1.55964 -0.226472 0
M  V30 58976 C 5768.79 -1.80522 -0.958711 0
M  V30 58977 C 5769.15 -0.619613 -1.81727 0
M  V30 58978 O 5770.35 -0.744385 -2.58287 0
M  V30 58979 C 5768.62 -3.09945 -1.77957 0
M  V30 58980 S 5770.18 -3.55799 -2.56812 0
M  V30 58981 H 5767 -0.633841 -0.322129 0
M  V30 58982 H 5769.6 -1.94204 -0.224718 0
M  V30 58983 H 5768.31 -3.94281 -1.13889 0
M  V30 58984 H 5767.84 -2.99056 -2.55595 0
M  V30 58985 H 5769.85 -3.18748 -3.80282 0
M  V30 58986 N 5769.02 0.492978 -1.49691 0
M  V30 58987 C 5769.97 1.61443 -1.67448 0
M  V30 58988 C 5770.97 1.60551 -0.540352 0
M  V30 58989 O 5772.17 1.64963 -0.720225 0
M  V30 58990 H 5768.55 0.535319 -0.528146 0
M  V30 58991 H 5770.52 1.43622 -2.61563 0
M  V30 58992 C 5769.27 2.99531 -1.76569 0
M  V30 58993 H 5768.59 3.00927 -2.63217 0
M  V30 58994 H 5770.03 3.77514 -1.93026 0
M  V30 58995 C 5768.49 3.32982 -0.512293 0
M  V30 58996 O 5769.02 4.00098 0.35843 0
M  V30 58997 N 5767.23 2.88198 -0.372835 0
M  V30 58998 H 5766.77 2.33756 -1.08241 0
M  V30 58999 H 5766.73 3.10947 0.464694 0
M  V30 59000 N 5770.5 1.38901 0.744607 0
M  V30 59001 C 5771.75 1.35332 1.50099 0
M  V30 59002 C 5772.07 -0.0532102 1.94927 0
M  V30 59003 O 5771.34 -1.00264 1.68297 0
M  V30 59004 H 5769.92 0.49799 0.55679 0
M  V30 59005 H 5772.58 1.73671 0.884564 0
M  V30 59006 H 5771.68 2.00991 2.38766 0
M  V30 59007 N 5771.98 -0.973763 1.23918 0
M  V30 59008 C 5773.23 -1.71849 1.07684 0
M  V30 59009 C 5773.56 -1.90358 -0.384359 0
M  V30 59010 O 5772.83 -1.46068 -1.28431 0
M  V30 59011 C 5773.12 -3.11284 1.81037 0
M  V30 59012 C 5772.97 -3.00303 3.3487 0
M  V30 59013 C 5774.29 -4.1083 1.57819 0
M  V30 59014 H 5771.41 -0.623735 0.392586 0
M  V30 59015 H 5774.05 -1.13319 1.52508 0
M  V30 59016 H 5772.2 -3.6125 1.42935 0
M  V30 59017 H 5773.87 -2.5781 3.82533 0
M  V30 59018 H 5772.12 -2.36654 3.63562 0
M  V30 59019 H 5772.79 -3.99056 3.8139 0
M  V30 59020 H 5775.26 -3.69698 1.90952 0
M  V30 59021 H 5774.14 -5.06471 2.11609 0
M  V30 59022 H 5774.4 -4.3909 0.515049 0
M  V30 59023 N 5773.46 -1.05195 -1.17353 0
M  V30 59024 C 5774.74 -0.675891 -1.83551 0
M  V30 59025 C 5775.12 0.843744 -1.93505 0
M  V30 59026 O 5774.46 1.7497 -1.46962 0
M  V30 59027 C 5774.67 -1.36492 -3.21202 0
M  V30 59028 C 5776.02 -1.50299 -3.97109 0
M  V30 59029 O 5777.05 -1.32394 -3.30682 0
M  V30 59030 O 5775.9 -1.7958 -5.16152 0
M  V30 59031 H 5773 -0.237926 -0.792036 0
M  V30 59032 H 5775.54 -1.15154 -1.2465 0
M  V30 59033 H 5774.32 -2.40167 -3.08927 0
M  V30 59034 H 5773.94 -0.878627 -3.8777 0
M  V30 59035 N 5774.94 1.33788 -0.832977 0
M  V30 59036 C 5776.21 1.92479 -0.348023 0
M  V30 59037 C 5776.59 1.75982 1.16591 0
M  V30 59038 O 5775.94 1.14463 1.97764 0
M  V30 59039 C 5776.15 3.39978 -0.78843 0
M  V30 59040 C 5777.5 4.17128 -0.793046 0
M  V30 59041 O 5778.52 3.48605 -0.731655 0
M  V30 59042 O 5777.38 5.39443 -0.875412 0
M  V30 59043 H 5774.48 0.821261 -0.0972597 0
M  V30 59044 H 5777.02 1.42698 -0.918437 0
M  V30 59045 H 5775.79 3.4583 -1.83077 0
M  V30 59046 H 5775.42 3.97125 -0.194263 0
M  V30 59047 N 5776.41 0.588863 1.46185 0
M  V30 59048 C 5777.65 0.0795623 2.04245 0
M  V30 59049 C 5778.02 -1.25888 1.4497 0
M  V30 59050 O 5779.22 -1.85778 1.94267 0
M  V30 59051 C 5777.49 0.0212102 3.57394 0
M  V30 59052 S 5779.05 -0.429622 4.36692 0
M  V30 59053 H 5775.87 0.0404586 0.709848 0
M  V30 59054 H 5778.47 0.782748 1.79146 0
M  V30 59055 H 5777.17 0.999172 3.98051 0
M  V30 59056 H 5776.7 -0.704555 3.8704 0
M  V30 59057 H 5778.72 -1.68311 4.66783 0
M  V30 59058 N 5777.89 -1.54171 0.326977 0
M  V30 59059 C 5779.14 -2.00234 -0.274028 0
M  V30 59060 C 5779.46 -1.2167 -1.52386 0
M  V30 59061 O 5778.73 -0.319427 -1.93278 0
M  V30 59062 H 5777.31 -0.73969 -0.104245 0
M  V30 59063 H 5779.97 -1.89768 0.444311 0
M  V30 59064 H 5779.07 -3.07601 -0.528046 0
M  V30 59065 N 5779.37 -0.0552232 -1.57503 0
M  V30 59066 C 5780.65 0.657743 -1.84209 0
M  V30 59067 C 5781.03 1.88795 -0.944438 0
M  V30 59068 O 5780.38 2.28499 -0.00649761 0
M  V30 59069 C 5780.59 1.01118 -3.3403 0
M  V30 59070 C 5781.93 1.39175 -4.01143 0
M  V30 59071 O 5782.96 1.10341 -3.38679 0
M  V30 59072 O 5781.82 1.93005 -5.11284 0
M  V30 59073 H 5778.91 0.325057 -0.760439 0
M  V30 59074 H 5781.46 -0.0848948 -1.69488 0
M  V30 59075 H 5780.23 0.136742 -3.91061 0
M  V30 59076 H 5779.85 1.81114 -3.53954 0
M  V30 59077 N 5780.85 1.56082 0.218198 0
M  V30 59078 C 5782.1 1.78897 0.940233 0
M  V30 59079 C 5782.42 0.624315 1.84736 0
M  V30 59080 O 5781.69 -0.358618 1.9259 0
M  V30 59081 H 5780.27 0.659841 0.35017 0
M  V30 59082 H 5782.93 1.93547 0.229248 0
M  V30 59083 H 5782.03 2.71172 1.54506 0
M  V30 59084 N 5782.33 -0.485033 1.49951 0
M  V30 59085 C 5783.56 -1.26173 1.63976 0
M  V30 59086 C 5783.97 -1.86112 0.317474 0
M  V30 59087 O 5783.33 -1.68584 -0.698978 0
M  V30 59088 C 5783.38 -2.38052 2.72054 0
M  V30 59089 O 5783.1 -1.80574 3.99155 0
M  V30 59090 C 5784.6 -3.29164 2.96928 0
M  V30 59091 H 5781.82 -0.382103 0.551578 0
M  V30 59092 H 5784.36 -0.580538 1.96087 0
M  V30 59093 H 5782.52 -3.01972 2.42676 0
M  V30 59094 H 5782.93 -2.54143 4.58816 0
M  V30 59095 H 5784.41 -4.03909 3.76247 0
M  V30 59096 H 5784.88 -3.87115 2.07457 0
M  V30 59097 H 5785.49 -2.70995 3.27783 0
M  V30 59098 N 5783.81 -1.39293 -0.73723 0
M  V30 59099 C 5785.08 -1.26906 -1.48843 0
M  V30 59100 C 5785.46 0.122343 -2.10745 0
M  V30 59101 O 5784.81 1.13336 -1.98412 0
M  V30 59102 C 5785.02 -2.39169 -2.54164 0
M  V30 59103 C 5786.37 -2.78379 -3.20609 0
M  V30 59104 O 5787.39 -2.38602 -2.64476 0
M  V30 59105 O 5786.25 -3.47029 -4.22176 0
M  V30 59106 H 5783.35 -0.497199 -0.660849 0
M  V30 59107 H 5785.89 -1.51162 -0.771246 0
M  V30 59108 H 5784.66 -3.32198 -2.06786 0
M  V30 59109 H 5784.29 -2.16566 -3.33444 0
M  V30 59110 N 5785.28 0.967178 -1.24432 0
M  V30 59111 C 5786.19 2.09578 -1.05424 0
M  V30 59112 C 5787.21 1.73999 0.0051001 0
M  V30 59113 O 5788.39 2.00471 -0.193185 0
M  V30 59114 C 5785.45 3.40325 -0.661816 0
M  V30 59115 C 5784.51 3.89848 -1.7977 0
M  V30 59116 C 5783.74 5.14355 -1.4239 0
M  V30 59117 O 5783.97 5.69535 -0.313954 0
M  V30 59118 O 5782.9 5.58275 -2.24971 0
M  V30 59119 H 5786.73 2.2851 -2.00042 0
M  V30 59120 H 5784.31 1.07974 -1.03257 0
M  V30 59121 H 5786.19 4.18942 -0.454516 0
M  V30 59122 H 5784.87 3.22692 0.255235 0
M  V30 59123 H 5783.78 3.1229 -2.05975 0
M  V30 59124 H 5785.11 4.11958 -2.69354 0
M  V30 59125 N 5786.76 1.05816 1.16794 0
M  V30 59126 C 5787.99 0.792587 1.91117 0
M  V30 59127 C 5788.4 -0.652487 1.77167 0
M  V30 59128 O 5787.76 -1.44629 1.11305 0
M  V30 59129 C 5787.81 1.17184 3.4198 0
M  V30 59130 O 5787.53 2.5602 3.55507 0
M  V30 59131 C 5789.03 0.933315 4.33364 0
M  V30 59132 H 5786.25 0.287701 0.606192 0
M  V30 59133 H 5788.8 1.41051 1.4807 0
M  V30 59134 H 5786.95 0.598548 3.82748 0
M  V30 59135 H 5787.37 2.71069 4.49023 0
M  V30 59136 H 5788.84 1.24836 5.37699 0
M  V30 59137 H 5789.32 -0.13119 4.39004 0
M  V30 59138 H 5789.92 1.49076 3.98317 0
M  V30 59139 N 5788.24 -1.33344 0.84006 0
M  V30 59140 C 5789.15 -2.32964 0.276609 0
M  V30 59141 C 5790.17 -1.63402 -0.59798 0
M  V30 59142 O 5791.34 -1.95048 -0.501819 0
M  V30 59143 C 5788.41 -3.425 -0.538039 0
M  V30 59144 C 5787.47 -4.2778 0.360965 0
M  V30 59145 C 5786.7 -5.32085 -0.414898 0
M  V30 59146 O 5786.92 -5.4612 -1.64647 0
M  V30 59147 O 5785.86 -6.01528 0.211714 0
M  V30 59148 H 5789.68 -2.83018 1.10157 0
M  V30 59149 H 5787.27 -1.36707 0.602614 0
M  V30 59150 H 5789.15 -4.0934 -1.00094 0
M  V30 59151 H 5787.83 -2.9466 -1.34004 0
M  V30 59152 H 5786.73 -3.63802 0.871726 0
M  V30 59153 H 5788.07 -4.79106 1.12777 0
M  V30 59154 N 5789.72 -0.596607 -1.45871 0
M  V30 59155 C 5790.63 0.13075 -2.34235 0
M  V30 59156 C 5791.64 0.871752 -1.50587 0
M  V30 59157 O 5792.82 0.831812 -1.8342 0
M  V30 59158 C 5789.88 1.12268 -3.2802 0
M  V30 59159 C 5788.95 0.384831 -4.27572 0
M  V30 59160 C 5788.18 1.3295 -5.16875 0
M  V30 59161 O 5788.4 2.56678 -5.09384 0
M  V30 59162 O 5787.34 0.832531 -5.96115 0
M  V30 59163 H 5791.16 -0.595135 -2.97812 0
M  V30 59164 H 5788.75 -0.356924 -1.45074 0
M  V30 59165 H 5790.63 1.69427 -3.8584 0
M  V30 59166 H 5789.3 1.82978 -2.67022 0
M  V30 59167 H 5788.21 -0.228948 -3.73399 0
M  V30 59168 H 5789.54 -0.281571 -4.91394 0
M  V30 59169 N 5791.2 1.53995 -0.335149 0
M  V30 59170 C 5792.15 2.21481 0.54131 0
M  V30 59171 C 5793.13 1.1993 1.07264 0
M  V30 59172 O 5794.32 1.45512 1.00774 0
M  V30 59173 C 5791.45 2.98483 1.69597 0
M  V30 59174 C 5790.54 4.07383 1.17898 0
M  V30 59175 N 5790.93 5.04351 0.382554 0
M  V30 59176 C 5789.23 4.21542 1.45664 0
M  V30 59177 C 5789.93 5.81609 0.102989 0
M  V30 59178 N 5788.9 5.39173 0.692323 0
M  V30 59179 H 5792.7 2.93806 -0.0743318 0
M  V30 59180 H 5790.22 1.61782 -0.141586 0
M  V30 59181 H 5792.22 3.45324 2.33575 0
M  V30 59182 H 5790.88 2.27682 2.31497 0
M  V30 59183 H 5791.89 5.17894 0.0243712 0
M  V30 59184 H 5788.56 3.6196 2.08065 0
M  V30 59185 H 5789.95 6.69735 -0.538917 0
M  V30 59186 N 5792.67 0.0635752 1.57472 0
M  V30 59187 C 5793.91 -0.611166 1.95049 0
M  V30 59188 C 5794.28 -1.67271 0.942569 0
M  V30 59189 O 5795.48 -2.40242 1.20571 0
M  V30 59190 C 5793.75 -1.18059 3.37338 0
M  V30 59191 S 5795.31 -1.8716 3.96884 0
M  V30 59192 H 5792.13 -0.200346 0.682189 0
M  V30 59193 H 5794.73 0.135472 1.9503 0
M  V30 59194 H 5793.43 -0.396032 4.08485 0
M  V30 59195 H 5792.96 -1.96376 3.40881 0
M  V30 59196 H 5794.98 -3.15333 3.83118 0
M  V30 59197 N 5794.15 -1.56196 -0.209917 0
M  V30 59198 C 5795.57 -1.49448 -0.560128 0
M  V30 59199 C 5795.77 -0.760864 -1.86583 0
M  V30 59200 O 5794.82 -0.305289 -2.50648 0
M  V30 59201 C 5796.14 -2.94057 -0.628583 0
M  V30 59202 C 5797.69 -3.04644 -0.718424 0
M  V30 59203 C 5798.16 -4.50634 -0.818122 0
M  V30 59204 N 5799.65 -4.54724 -0.88204 0
M  V30 59205 C 5800.39 -5.64979 -0.979094 0
M  V30 59206 N 5799.88 -6.84959 -1.03937 0
M  V30 59207 N 5801.68 -5.52858 -1.01513 0
M  V30 59208 H 5793.83 -2.02314 0.646745 0
M  V30 59209 H 5796.09 -0.920055 0.228478 0
M  V30 59210 H 5795.8 -3.50727 0.261448 0
M  V30 59211 H 5795.67 -3.46597 -1.48829 0
M  V30 59212 H 5798.06 -2.48031 -1.59889 0
M  V30 59213 H 5798.14 -2.55253 0.167191 0
M  V30 59214 H 5797.78 -5.07867 0.0579342 0
M  V30 59215 H 5797.71 -4.97742 -1.71932 0
M  V30 59216 H 5800.2 -3.68325 -0.845304 0
M  V30 59217 H 5800.52 -7.64736 -1.11353 0
M  V30 59218 H 5798.86 -6.87647 -1.0083 0
M  V30 59219 H 5802.05 -4.5805 -0.964779 0
M  V30 59220 H 5802.22 -6.38813 -1.08732 0
M  V30 59221 N 5795.63 0.477074 -1.50206 0
M  V30 59222 C 5796.58 1.57582 -1.68632 0
M  V30 59223 C 5797.55 1.57497 -0.527631 0
M  V30 59224 O 5798.73 1.75119 -0.7575 0
M  V30 59225 C 5795.87 2.95594 -1.78097 0
M  V30 59226 C 5794.99 3.05512 -3.05428 0
M  V30 59227 C 5794.12 4.34403 -3.05725 0
M  V30 59228 C 5793.16 4.38042 -4.27534 0
M  V30 59229 N 5792.3 5.58395 -4.25605 0
M  V30 59230 H 5797.14 1.41176 -2.62438 0
M  V30 59231 H 5794.67 0.686491 -1.30099 0
M  V30 59232 H 5796.63 3.75619 -1.81565 0
M  V30 59233 H 5795.26 3.10648 -0.87736 0
M  V30 59234 H 5794.31 2.18398 -3.11459 0
M  V30 59235 H 5795.63 3.04061 -3.95409 0
M  V30 59236 H 5794.78 5.22771 -3.07889 0
M  V30 59237 H 5793.52 4.38454 -2.13563 0
M  V30 59238 H 5792.52 3.48072 -4.25589 0
M  V30 59239 H 5793.75 4.35687 -5.20916 0
M  V30 59240 H 5791.69 5.63243 -3.36293 0
M  V30 59241 H 5791.61 5.5866 -5.09348 0
M  V30 59242 H 5792.88 6.48904 -4.31907 0
M  V30 59243 N 5797.11 1.39683 0.729833 0
M  V30 59244 C 5798.52 1.33189 1.30834 0
M  V30 59245 C 5798.87 -0.00134231 1.962 0
M  V30 59246 O 5798 -0.903454 1.96638 0
M  V30 59247 C 5798.59 2.41219 2.37905 0
M  V30 59248 C 5797.15 2.3823 2.91416 0
M  V30 59249 C 5796.3 2.22838 1.65041 0
M  V30 59250 H 5799.25 1.49695 0.52697 0
M  V30 59251 H 5799.27 2.08305 3.18417 0
M  V30 59252 H 5798.78 3.38241 1.90301 0
M  V30 59253 H 5796.88 1.44862 3.43287 0
M  V30 59254 H 5796.99 3.33283 3.44179 0
M  V30 59255 H 5795.36 1.70101 1.89572 0
M  V30 59256 H 5796.14 3.21837 1.19482 0
M  V30 59257 N 5798.59 -0.960565 1.24944 0
M  V30 59258 C 5799.81 -1.73924 1.12063 0
M  V30 59259 C 5800.23 -1.85961 -0.326165 0
M  V30 59260 O 5799.59 -1.35307 -1.22467 0
M  V30 59261 C 5799.64 -3.15608 1.76278 0
M  V30 59262 O 5799.36 -3.04166 3.15301 0
M  V30 59263 C 5800.86 -4.09781 1.691 0
M  V30 59264 H 5798.08 -0.545186 0.391169 0
M  V30 59265 H 5800.62 -1.2055 1.65191 0
M  V30 59266 H 5798.78 -3.65944 1.27135 0
M  V30 59267 H 5799.19 -3.93501 3.46782 0
M  V30 59268 H 5800.67 -5.06827 2.18701 0
M  V30 59269 H 5801.14 -4.34309 0.653606 0
M  V30 59270 H 5801.75 -3.65357 2.17703 0
M  V30 59271 N 5800.06 -1.06434 -1.16231 0
M  V30 59272 C 5801.48 -0.806071 -1.68402 0
M  V30 59273 C 5801.83 0.670132 -1.84401 0
M  V30 59274 O 5800.95 1.5197 -1.54059 0
M  V30 59275 C 5801.55 -1.45664 -3.05888 0
M  V30 59276 C 5800.11 -1.24612 -3.55174 0
M  V30 59277 C 5799.25 -1.53224 -2.31123 0
M  V30 59278 H 5802.2 -1.22763 -1.00573 0
M  V30 59279 H 5802.22 -0.872746 -3.70356 0
M  V30 59280 H 5801.74 -2.53103 -2.94212 0
M  V30 59281 H 5799.84 -0.191538 -3.72107 0
M  V30 59282 H 5799.95 -1.95983 -4.37181 0
M  V30 59283 H 5798.31 -0.952838 -2.36206 0
M  V30 59284 H 5799.1 -2.61824 -2.22043 0
M  V30 59285 N 5801.54 1.32897 -0.84712 0
M  V30 59286 C 5802.49 2.29043 -0.284279 0
M  V30 59287 C 5803.46 1.54708 0.604536 0
M  V30 59288 O 5804.64 1.82968 0.541052 0
M  V30 59289 C 5801.78 3.41042 0.527702 0
M  V30 59290 C 5800.9 4.30272 -0.386059 0
M  V30 59291 C 5800.03 5.29393 0.437823 0
M  V30 59292 C 5799.07 6.10263 -0.47381 0
M  V30 59293 N 5798.21 7.01404 0.312438 0
M  V30 59294 H 5803.05 2.76578 -1.10945 0
M  V30 59295 H 5800.59 1.36083 -0.558556 0
M  V30 59296 H 5802.54 4.04689 1.01403 0
M  V30 59297 H 5801.17 2.94677 1.31777 0
M  V30 59298 H 5800.23 3.67272 -0.990739 0
M  V30 59299 H 5801.54 4.86834 -1.08602 0
M  V30 59300 H 5800.69 5.98607 0.987632 0
M  V30 59301 H 5799.43 4.73428 1.17119 0
M  V30 59302 H 5798.44 5.39959 -1.03556 0
M  V30 59303 H 5799.66 6.68312 -1.20567 0
M  V30 59304 H 5797.61 6.47879 1.02903 0
M  V30 59305 H 5797.52 7.55285 -0.328642 0
M  V30 59306 H 5798.79 7.74915 0.844217 0
M  V30 59307 N 5803.02 0.604335 1.45553 0
M  V30 59308 C 5804.43 0.183679 1.85794 0
M  V30 59309 C 5804.78 -1.25863 1.50509 0
M  V30 59310 O 5803.91 -1.95387 0.930217 0
M  V30 59311 C 5804.5 0.326574 3.37222 0
M  V30 59312 C 5803.06 -0.0393664 3.76379 0
M  V30 59313 C 5802.21 0.652524 2.69513 0
M  V30 59314 H 5805.16 0.811221 1.364 0
M  V30 59315 H 5805.18 -0.442125 3.77923 0
M  V30 59316 H 5804.69 1.3764 3.62873 0
M  V30 59317 H 5802.79 -1.0885 3.56346 0
M  V30 59318 H 5802.91 0.352018 4.77805 0
M  V30 59319 H 5801.27 0.0905043 2.54539 0
M  V30 59320 H 5802.05 1.70442 2.98001 0
M  V30 59321 N 5804.5 -1.53815 0.343311 0
M  V30 59322 C 5805.74 -2.0282 -0.253623 0
M  V30 59323 C 5806.1 -1.22569 -1.47786 0
M  V30 59324 O 5807.3 -1.61472 -2.14896 0
M  V30 59325 C 5805.57 -3.52982 -0.560237 0
M  V30 59326 S 5807.13 -4.23893 -1.13402 0
M  V30 59327 H 5803.95 -0.706979 -0.0755095 0
M  V30 59328 H 5806.55 -1.8949 0.481018 0
M  V30 59329 H 5805.26 -4.09001 0.338595 0
M  V30 59330 H 5804.79 -3.70431 -1.32455 0
M  V30 59331 H 5806.8 -4.332 -2.41975 0
M  V30 59332 N 5805.98 -0.0719254 -1.57436 0
M  V30 59333 C 5807.2 0.606184 -1.97821 0
M  V30 59334 C 5807.62 1.63141 -0.95029 0
M  V30 59335 O 5806.98 1.82391 0.063041 0
M  V30 59336 C 5807.03 1.27464 -3.38283 0
M  V30 59337 O 5806.75 0.290449 -4.37136 0
M  V30 59338 C 5808.25 2.04056 -3.93543 0
M  V30 59339 H 5805.47 0.164282 -0.650578 0
M  V30 59340 H 5808.01 -0.144367 -2.0399 0
M  V30 59341 H 5806.17 1.97628 -3.332 0
M  V30 59342 H 5806.58 0.770037 -5.18817 0
M  V30 59343 H 5808.06 2.46219 -4.94045 0
M  V30 59344 H 5808.53 2.89716 -3.30093 0
M  V30 59345 H 5809.14 1.38759 -4.02027 0
M  V30 59346 N 5807.45 1.56305 0.201631 0
M  V30 59347 C 5808.36 1.9722 1.2705 0
M  V30 59348 C 5809.38 0.878887 1.50172 0
M  V30 59349 O 5810.56 1.18411 1.62914 0
M  V30 59350 C 5807.62 2.29781 2.59618 0
M  V30 59351 C 5806.68 3.52785 2.44625 0
M  V30 59352 C 5805.92 3.83784 3.70872 0
M  V30 59353 O 5806.14 3.16165 4.74758 0
M  V30 59354 O 5805.07 4.77229 3.66791 0
M  V30 59355 H 5808.9 2.88351 0.953291 0
M  V30 59356 H 5806.48 1.43775 0.406108 0
M  V30 59357 H 5808.37 2.51829 3.37876 0
M  V30 59358 H 5807.04 1.4182 2.90979 0
M  V30 59359 H 5805.95 3.35992 1.645 0
M  V30 59360 H 5807.28 4.41192 2.18198 0
M  V30 59361 N 5808.93 -0.469102 1.50457 0
M  V30 59362 C 5810.16 -1.24246 1.65065 0
M  V30 59363 C 5810.57 -1.86225 0.334186 0
M  V30 59364 O 5809.91 -1.70084 -0.69405 0
M  V30 59365 C 5809.98 -2.38998 2.68552 0
M  V30 59366 C 5809.64 -1.9764 4.12053 0
M  V30 59367 C 5810.64 -1.49779 4.97858 0
M  V30 59368 C 5808.32 -2.063 4.5798 0
M  V30 59369 C 5810.32 -1.11123 6.27639 0
M  V30 59370 C 5808 -1.67256 5.87766 0
M  V30 59371 C 5809 -1.19745 6.72421 0
M  V30 59372 O 5808.69 -0.812427 7.99784 0
M  V30 59373 H 5808.42 -0.381829 0.557838 0
M  V30 59374 H 5810.98 -0.566121 1.97444 0
M  V30 59375 H 5809.21 -3.09809 2.3142 0
M  V30 59376 H 5810.89 -3.00956 2.72361 0
M  V30 59377 H 5811.66 -1.42509 4.63591 0
M  V30 59378 H 5807.54 -2.42228 3.92233 0
M  V30 59379 H 5811.08 -0.739692 6.93667 0
M  V30 59380 H 5806.98 -1.74186 6.21554 0
M  V30 59381 H 5807.75 -0.941101 8.13072 0
M  V30 59382 N 5810.41 -1.40068 -0.722415 0
M  V30 59383 C 5811.32 -1.42092 -1.86673 0
M  V30 59384 C 5812.34 -0.314283 -1.71138 0
M  V30 59385 O 5813.51 -0.557779 -1.93522 0
M  V30 59386 C 5810.58 -1.27509 -3.22401 0
M  V30 59387 C 5809.64 -2.48256 -3.50239 0
M  V30 59388 C 5808.87 -2.34358 -4.79491 0
M  V30 59389 O 5809.1 -1.35375 -5.54103 0
M  V30 59390 O 5808.03 -3.23597 -5.07512 0
M  V30 59391 H 5811.86 -2.38578 -1.87921 0
M  V30 59392 H 5809.44 -1.21317 -0.871925 0
M  V30 59393 H 5811.32 -1.21557 -4.03487 0
M  V30 59394 H 5810 -0.341254 -3.21896 0
M  V30 59395 H 5808.9 -2.59784 -2.6919 0
M  V30 59396 H 5810.24 -3.40376 -3.55535 0
M  V30 59397 N 5811.89 0.953925 -1.25451 0
M  V30 59398 C 5813.12 1.73076 -1.1282 0
M  V30 59399 C 5813.53 1.86462 0.320698 0
M  V30 59400 O 5812.87 1.36234 1.23231 0
M  V30 59401 C 5812.93 3.16233 -1.70988 0
M  V30 59402 C 5812.6 3.26274 -3.19991 0
M  V30 59403 C 5813.59 3.10532 -4.16972 0
M  V30 59404 C 5811.28 3.50073 -3.60214 0
M  V30 59405 C 5813.27 3.18436 -5.52157 0
M  V30 59406 C 5810.96 3.57613 -4.95536 0
M  V30 59407 C 5811.96 3.41809 -5.91317 0
M  V30 59408 O 5811.65 3.49032 -7.24177 0
M  V30 59409 H 5811.38 0.549129 -0.39425 0
M  V30 59410 H 5813.93 1.20532 -1.66317 0
M  V30 59411 H 5812.16 3.70144 -1.11939 0
M  V30 59412 H 5813.85 3.75778 -1.53445 0
M  V30 59413 H 5814.62 2.92015 -3.87236 0
M  V30 59414 H 5810.5 3.61435 -2.86157 0
M  V30 59415 H 5814.04 3.06018 -6.26896 0
M  V30 59416 H 5809.94 3.75647 -5.24938 0
M  V30 59417 H 5810.7 3.65659 -7.32281 0
M  V30 59418 N 5813.37 1.07049 1.15665 0
M  V30 59419 C 5814.31 0.688081 2.20305 0
M  V30 59420 C 5815.28 -0.319024 1.63008 0
M  V30 59421 O 5816.47 -0.206172 1.89683 0
M  V30 59422 C 5813.61 0.0887905 3.44986 0
M  V30 59423 C 5812.72 1.147 4.16495 0
M  V30 59424 C 5811.86 0.513038 5.28717 0
M  V30 59425 C 5810.9 1.55425 5.92038 0
M  V30 59426 N 5810.03 0.943092 6.95737 0
M  V30 59427 H 5814.87 1.58478 2.52366 0
M  V30 59428 H 5812.41 0.792227 1.23944 0
M  V30 59429 H 5814.37 -0.276269 4.16284 0
M  V30 59430 H 5813 -0.77128 3.1345 0
M  V30 59431 H 5812.05 1.62967 3.43724 0
M  V30 59432 H 5813.36 1.93659 4.59671 0
M  V30 59433 H 5812.52 0.0954407 6.06625 0
M  V30 59434 H 5811.26 -0.308353 4.86724 0
M  V30 59435 H 5810.26 1.98166 5.12845 0
M  V30 59436 H 5811.49 2.37787 6.36109 0
M  V30 59437 H 5809.43 0.142549 6.55845 0
M  V30 59438 H 5809.35 1.66996 7.37325 0
M  V30 59439 H 5810.62 0.550894 7.77551 0
M  V30 59440 N 5814.85 -1.32446 0.854156 0
M  V30 59441 C 5816.09 -1.99074 0.463574 0
M  V30 59442 C 5816.45 -1.66122 -0.962681 0
M  V30 59443 O 5817.65 -2.25836 -1.45779 0
M  V30 59444 C 5815.92 -3.50572 0.695285 0
M  V30 59445 S 5817.48 -4.36953 0.402201 0
M  V30 59446 H 5814.3 -0.689458 0.173691 0
M  V30 59447 H 5816.9 -1.61155 1.10676 0
M  V30 59448 H 5815.6 -3.72043 1.7324 0
M  V30 59449 H 5815.14 -3.93381 0.0385057 0
M  V30 59450 H 5817.15 -4.90158 -0.771975 0
M  V30 59451 N 5816.32 -0.612045 -1.4523 0
M  V30 59452 C 5817.57 -0.108767 -2.01807 0
M  V30 59453 C 5817.89 1.26686 -1.48242 0
M  V30 59454 O 5817.16 1.83777 -0.678432 0
M  V30 59455 H 5815.74 -0.0372184 -0.746072 0
M  V30 59456 H 5818.4 -0.794448 -1.77973 0
M  V30 59457 H 5817.5 -0.0619304 -3.12039 0
M  V30 59458 N 5817.8 1.53631 -0.351463 0
M  V30 59459 C 5818.75 2.26784 0.516903 0
M  V30 59460 C 5819.74 1.29225 1.09532 0
M  V30 59461 O 5820.95 1.46905 1.04014 0
M  V30 59462 H 5817.32 0.728789 0.185391 0
M  V30 59463 H 5819.3 2.9815 -0.122014 0
M  V30 59464 C 5818.04 3.05949 1.65199 0
M  V30 59465 H 5817.37 3.80853 1.21619 0
M  V30 59466 H 5818.81 3.60336 2.2346 0
M  V30 59467 C 5817.27 2.15926 2.58607 0
M  V30 59468 O 5817.8 1.76062 3.61061 0
M  V30 59469 N 5816 1.80845 2.27472 0
M  V30 59470 H 5815.55 2.13461 1.44195 0
M  V30 59471 H 5815.51 1.20896 2.90227 0
M  V30 59472 N 5819.28 0.0802736 1.57395 0
M  V30 59473 C 5820.53 -0.585734 1.93426 0
M  V30 59474 C 5820.85 -1.69635 0.961721 0
M  V30 59475 O 5820.12 -1.95897 0.0112708 0
M  V30 59476 H 5818.7 -0.219357 0.714067 0
M  V30 59477 H 5821.36 0.140123 1.94396 0
M  V30 59478 H 5820.46 -1.00556 2.95457 0
M  V30 59479 N 5820.76 -1.5641 -0.193339 0
M  V30 59480 C 5821.71 -1.91089 -1.24374 0
M  V30 59481 C 5822.69 -0.77677 -1.40908 0
M  V30 59482 O 5823.88 -1.03965 -1.43249 0
M  V30 59483 C 5821.01 -2.25542 -2.58816 0
M  V30 59484 C 5820.1 -3.45415 -2.46067 0
M  V30 59485 N 5820.49 -4.63275 -2.03001 0
M  V30 59486 C 5818.79 -3.49588 -2.76955 0
M  V30 59487 C 5819.49 -5.45432 -2.02186 0
M  V30 59488 N 5818.46 -4.85885 -2.43756 0
M  V30 59489 H 5822.27 -2.79712 -0.902126 0
M  V30 59490 H 5819.78 -1.57352 -0.401763 0
M  V30 59491 H 5821.78 -2.48573 -3.3469 0
M  V30 59492 H 5820.44 -1.38247 -2.93799 0
M  V30 59493 H 5821.45 -4.87909 -1.73683 0
M  V30 59494 H 5818.13 -2.72713 -3.16123 0
M  V30 59495 H 5819.52 -6.49835 -1.70775 0
M  V30 59496 N 5822.24 0.461116 -1.50703 0
M  V30 59497 C 5823.48 1.22219 -1.63835 0
M  V30 59498 C 5823.84 1.89038 -0.335925 0
M  V30 59499 O 5825.04 2.66606 -0.342768 0
M  V30 59500 C 5823.31 2.2304 -2.79263 0
M  V30 59501 S 5824.87 3.07953 -3.12587 0
M  V30 59502 H 5821.69 0.41481 -0.577455 0
M  V30 59503 H 5824.29 0.517559 -1.88525 0
M  V30 59504 H 5822.99 1.72549 -3.72364 0
M  V30 59505 H 5822.53 2.98117 -2.5669 0
M  V30 59506 H 5824.54 4.24349 -2.57182 0
M  V30 59507 N 5823.71 1.40449 0.714977 0
M  V30 59508 C 5824.96 1.38064 1.47041 0
M  V30 59509 C 5825.28 -0.0138437 1.95595 0
M  V30 59510 O 5826.48 -0.160302 2.71026 0
M  V30 59511 C 5824.94 2.42656 2.65794 0
M  V30 59512 C 5824.55 3.87918 2.24107 0
M  V30 59513 C 5826.29 2.49379 3.43527 0
M  V30 59514 C 5824.2 4.84104 3.39702 0
M  V30 59515 H 5823.13 0.513361 0.552247 0
M  V30 59516 H 5825.78 1.66188 0.778067 0
M  V30 59517 H 5824.16 2.07633 3.37201 0
M  V30 59518 H 5825.33 4.32088 1.60115 0
M  V30 59519 H 5823.65 3.84676 1.59417 0
M  V30 59520 H 5826.25 3.18429 4.29543 0
M  V30 59521 H 5826.59 1.52449 3.87382 0
M  V30 59522 H 5827.12 2.83396 2.79163 0
M  V30 59523 H 5823.86 5.82369 3.00877 0
M  V30 59524 H 5823.38 4.44598 4.02607 0
M  V30 59525 H 5825.06 5.03953 4.05759 0
M  V30 59526 N 5825.19 -0.947259 1.25955 0
M  V30 59527 C 5826.6 -1.50751 1.10141 0
M  V30 59528 C 5826.95 -1.93567 -0.320369 0
M  V30 59529 O 5826.08 -1.7933 -1.21119 0
M  V30 59530 C 5826.67 -2.73963 1.99323 0
M  V30 59531 C 5825.23 -3.26276 1.87672 0
M  V30 59532 C 5824.38 -1.99081 1.93034 0
M  V30 59533 H 5827.33 -0.763379 1.39134 0
M  V30 59534 H 5827.35 -3.48051 1.53754 0
M  V30 59535 H 5826.86 -2.4277 3.02794 0
M  V30 59536 H 5824.97 -3.62274 0.871119 0
M  V30 59537 H 5825.08 -3.93794 2.72879 0
M  V30 59538 H 5823.44 -2.1471 1.37011 0
M  V30 59539 H 5824.23 -1.70227 2.98124 0
M  V30 59540 N 5826.67 -1.07661 -1.15095 0
M  V30 59541 C 5827.62 -0.669505 -2.17949 0
M  V30 59542 C 5828.6 0.306978 -1.57944 0
M  V30 59543 O 5829.8 0.120205 -1.76591 0
M  V30 59544 C 5826.93 -0.0722079 -3.43224 0
M  V30 59545 C 5826.01 -1.07402 -4.10275 0
M  V30 59546 N 5826.4 -2.25471 -4.52765 0
M  V30 59547 C 5824.7 -0.908063 -4.36658 0
M  V30 59548 C 5825.4 -2.89053 -5.048 0
M  V30 59549 N 5824.38 -2.16701 -4.98539 0
M  V30 59550 H 5828.18 -1.56871 -2.48533 0
M  V30 59551 H 5825.69 -0.950244 -1.31697 0
M  V30 59552 H 5827.69 0.237359 -4.16224 0
M  V30 59553 H 5826.35 0.822072 -3.14121 0
M  V30 59554 H 5827.36 -2.63171 -4.46051 0
M  V30 59555 H 5824.04 -0.0669434 -4.17446 0
M  V30 59556 H 5825.43 -3.89322 -5.47611 0
M  V30 59557 N 5828.15 1.31991 -0.861168 0
M  V30 59558 C 5829.43 1.91697 -0.388772 0
M  V30 59559 C 5829.81 1.78416 1.12832 0
M  V30 59560 O 5829.15 1.18632 1.95291 0
M  V30 59561 C 5829.36 3.38229 -0.860367 0
M  V30 59562 C 5830.71 4.15352 -0.881347 0
M  V30 59563 O 5831.74 3.46974 -0.805435 0
M  V30 59564 O 5830.59 5.37465 -0.989639 0
M  V30 59565 H 5827.69 0.819013 -0.114658 0
M  V30 59566 H 5830.23 1.40718 -0.948499 0
M  V30 59567 H 5829.01 3.41869 -1.90372 0
M  V30 59568 H 5828.63 3.96624 -0.278455 0
M  V30 59569 N 5829.63 0.619739 1.44903 0
M  V30 59570 C 5830.57 -0.104292 2.32366 0
M  V30 59571 C 5831.57 -0.847372 1.46683 0
M  V30 59572 O 5832.77 -0.761561 1.63096 0
M  V30 59573 H 5829.15 -0.0524862 0.750166 0
M  V30 59574 H 5831.12 0.651627 2.91198 0
M  V30 59575 C 5829.87 -1.08005 3.305 0
M  V30 59576 H 5829.19 -0.517692 3.96434 0
M  V30 59577 H 5830.63 -1.55636 3.94403 0
M  V30 59578 C 5829.09 -2.15966 2.58573 0
M  V30 59579 O 5829.62 -3.23887 2.37614 0
M  V30 59580 N 5827.83 -1.91585 2.18503 0
M  V30 59581 H 5827.37 -1.03827 2.35749 0
M  V30 59582 H 5827.33 -2.64022 1.70703 0
M  V30 59583 N 5831.1 -1.53442 0.359606 0
M  V30 59584 C 5832.35 -2.01465 -0.232295 0
M  V30 59585 C 5832.68 -1.24661 -1.48907 0
M  V30 59586 O 5831.96 -0.338641 -1.91529 0
M  V30 59587 C 5832.24 -3.56174 -0.530278 0
M  V30 59588 C 5832.09 -4.43676 0.739712 0
M  V30 59589 C 5833.41 -4.19417 -1.33332 0
M  V30 59590 H 5830.53 -0.732317 -0.0829545 0
M  V30 59591 H 5833.17 -1.8375 0.483317 0
M  V30 59592 H 5831.32 -3.714 -1.13991 0
M  V30 59593 H 5833 -4.40258 1.37735 0
M  V30 59594 H 5831.24 -4.11887 1.36131 0
M  V30 59595 H 5831.91 -5.49854 0.486255 0
M  V30 59596 H 5834.39 -4.07987 -0.817673 0
M  V30 59597 H 5833.26 -5.27706 -1.51056 0
M  V30 59598 H 5833.52 -3.75088 -2.34011 0
M  V30 59599 N 5832.58 -0.0886195 -1.57351 0
M  V30 59600 C 5833.82 0.580058 -1.95997 0
M  V30 59601 C 5834.19 1.6575 -0.969061 0
M  V30 59602 O 5835.39 2.38293 -1.24378 0
M  V30 59603 C 5833.66 1.12677 -3.39173 0
M  V30 59604 S 5835.22 1.80822 -3.99811 0
M  V30 59605 H 5832.04 0.189468 -0.68529 0
M  V30 59606 H 5834.64 -0.166482 -1.9479 0
M  V30 59607 H 5833.34 0.330996 -4.09063 0
M  V30 59608 H 5832.87 1.90929 -3.43962 0
M  V30 59609 H 5834.89 3.09198 -3.88087 0
M  V30 59610 N 5834.06 1.5651 0.185041 0
M  V30 59611 C 5835.34 1.72058 0.930338 0
M  V30 59612 C 5835.72 0.646216 2.00966 0
M  V30 59613 O 5835.07 -0.341211 2.25938 0
M  V30 59614 C 5835.28 3.14758 1.5076 0
M  V30 59615 C 5836.62 3.75299 1.98584 0
M  V30 59616 O 5837.65 3.17949 1.60582 0
M  V30 59617 O 5836.51 4.75969 2.68544 0
M  V30 59618 H 5833.6 0.702133 0.436965 0
M  V30 59619 H 5836.15 1.68806 0.173948 0
M  V30 59620 H 5834.92 3.84428 0.730101 0
M  V30 59621 H 5834.54 3.2228 2.32855 0
M  V30 59622 N 5835.54 -0.453117 1.50946 0
M  V30 59623 C 5836.82 -1.21408 1.53361 0
M  V30 59624 C 5837.2 -2.09117 0.288657 0
M  V30 59625 O 5836.54 -2.16623 -0.727088 0
M  V30 59626 C 5836.75 -2.02959 2.83916 0
M  V30 59627 C 5838.1 -2.6054 3.35267 0
M  V30 59628 O 5839.13 -2.13186 2.8536 0
M  V30 59629 O 5837.98 -3.46866 4.2231 0
M  V30 59630 H 5835.08 -0.551887 0.615913 0
M  V30 59631 H 5837.62 -0.463472 1.63248 0
M  V30 59632 H 5836.4 -1.38441 3.65992 0
M  V30 59633 H 5836.02 -2.85117 2.77117 0
M  V30 59634 N 5837.02 -1.40826 -0.707518 0
M  V30 59635 C 5837.98 -1.41471 -1.80329 0
M  V30 59636 C 5838.98 -0.307199 -1.57838 0
M  V30 59637 O 5840.17 -0.566502 -1.64731 0
M  V30 59638 C 5837.3 -1.21437 -3.18537 0
M  V30 59639 H 5838.49 -2.39005 -1.81154 0
M  V30 59640 H 5836.05 -1.26793 -0.913963 0
M  V30 59641 H 5836.78 -0.24696 -3.23358 0
M  V30 59642 H 5836.57 -2.01669 -3.36262 0
M  V30 59643 H 5838.06 -1.24695 -3.98548 0
M  V30 59644 N 5838.5 0.940566 -1.26456 0
M  V30 59645 C 5839.77 1.66417 -1.02784 0
M  V30 59646 C 5840.15 2.06431 0.441541 0
M  V30 59647 O 5839.5 1.78859 1.42203 0
M  V30 59648 C 5839.71 2.87592 -1.97717 0
M  V30 59649 C 5841.06 3.59229 -2.26362 0
M  V30 59650 O 5842.08 2.97698 -1.95588 0
M  V30 59651 O 5840.94 4.70058 -2.78761 0
M  V30 59652 H 5838.04 0.728799 -0.390872 0
M  V30 59653 H 5840.58 0.992242 -1.37669 0
M  V30 59654 H 5839.35 2.54918 -2.96871 0
M  V30 59655 H 5838.98 3.6251 -1.63316 0
M  V30 59656 N 5839.97 1.0827 1.14523 0
M  V30 59657 C 5841.25 0.724318 1.81695 0
M  V30 59658 C 5841.63 -0.792143 1.95674 0
M  V30 59659 O 5840.98 -1.71012 1.51549 0
M  V30 59660 C 5841.19 1.44961 3.1747 0
M  V30 59661 C 5842.54 1.60775 3.92984 0
M  V30 59662 O 5843.56 1.41115 3.27055 0
M  V30 59663 O 5842.42 1.93202 5.1121 0
M  V30 59664 H 5839.51 0.258842 0.785449 0
M  V30 59665 H 5842.06 1.18419 1.21553 0
M  V30 59666 H 5840.83 2.48273 3.0245 0
M  V30 59667 H 5840.45 0.981129 3.85305 0
M  V30 59668 N 5841.45 -1.31533 0.868156 0
M  V30 59669 C 5842.69 -1.98571 0.484662 0
M  V30 59670 C 5843.06 -1.67134 -0.945007 0
M  V30 59671 O 5844.26 -2.27369 -1.43376 0
M  V30 59672 C 5842.53 -3.49815 0.732428 0
M  V30 59673 S 5844.09 -4.36502 0.448523 0
M  V30 59674 H 5840.9 -0.687577 0.180993 0
M  V30 59675 H 5843.51 -1.59973 1.12379 0
M  V30 59676 H 5842.21 -3.70185 1.77176 0
M  V30 59677 H 5841.74 -3.93318 0.0802269 0
M  V30 59678 H 5843.76 -4.90949 -0.719944 0
M  V30 59679 N 5842.93 -0.627415 -1.44573 0
M  V30 59680 C 5844.18 -0.130165 -2.0168 0
M  V30 59681 C 5844.5 1.25107 -1.49577 0
M  V30 59682 O 5843.77 1.83047 -0.697886 0
M  V30 59683 H 5842.35 -0.0451294 -0.745636 0
M  V30 59684 H 5845.01 -0.81328 -1.77121 0
M  V30 59685 H 5844.11 -0.0950227 -3.11955 0
M  V30 59686 N 5844.41 1.5325 -0.367738 0
M  V30 59687 C 5845.68 1.93618 0.277774 0
M  V30 59688 C 5846.06 1.30145 1.66209 0
M  V30 59689 O 5845.41 0.461355 2.23794 0
M  V30 59690 C 5845.62 3.47476 0.325814 0
M  V30 59691 C 5846.97 4.20822 0.565128 0
M  V30 59692 O 5847.99 3.53868 0.406933 0
M  V30 59693 O 5846.85 5.39477 0.873332 0
M  V30 59694 H 5843.95 0.809936 0.167129 0
M  V30 59695 H 5846.49 1.64403 -0.420679 0
M  V30 59696 H 5845.27 3.85953 -0.644677 0
M  V30 59697 H 5844.89 3.8293 1.07007 0
M  V30 59698 N 5845.89 0.096963 1.57301 0
M  V30 59699 C 5847.13 -0.561006 1.9551 0
M  V30 59700 C 5847.49 -1.65676 0.978218 0
M  V30 59701 O 5846.78 -1.91599 0.00452163 0
M  V30 59702 C 5846.97 -1.15961 3.38065 0
M  V30 59703 C 5846.8 -0.123366 4.49531 0
M  V30 59704 C 5845.57 0.300797 5.04404 0
M  V30 59705 C 5847.77 0.64918 5.10186 0
M  V30 59706 N 5845.75 1.32511 5.99428 0
M  V30 59707 C 5847.12 1.52527 6.00945 0
M  V30 59708 C 5849.18 0.702493 4.92919 0
M  V30 59709 C 5847.88 2.44999 6.7629 0
M  V30 59710 C 5849.91 1.61483 5.68926 0
M  V30 59711 C 5849.27 2.47854 6.59354 0
M  V30 59712 H 5845.37 -0.175564 0.762038 0
M  V30 59713 H 5847.95 0.179964 1.93866 0
M  V30 59714 H 5846.12 -1.87039 3.40398 0
M  V30 59715 H 5847.86 -1.78009 3.63449 0
M  V30 59716 H 5844.61 -0.0873098 4.7352 0
M  V30 59717 H 5845.03 1.83553 6.51642 0
M  V30 59718 H 5849.68 0.0488899 4.22772 0
M  V30 59719 H 5847.39 3.11384 7.45698 0
M  V30 59720 H 5850.98 1.66124 5.57579 0
M  V30 59721 H 5849.86 3.17303 7.17139 0
M  V30 59722 N 5847.36 -1.56606 -0.176738 0
M  V30 59723 C 5848.59 -1.86173 -0.914015 0
M  V30 59724 C 5849.01 -0.682682 -1.75274 0
M  V30 59725 O 5848.37 0.368328 -1.77519 0
M  V30 59726 C 5848.42 -3.14115 -1.77099 0
M  V30 59727 O 5847.52 -2.95957 -2.87199 0
M  V30 59728 H 5846.86 -0.612517 -0.256358 0
M  V30 59729 H 5849.39 -2.03837 -0.176514 0
M  V30 59730 H 5849.4 -3.45381 -2.17201 0
M  V30 59731 H 5848.08 -3.99544 -1.15488 0
M  V30 59732 H 5846.66 -2.76033 -2.5072 0
M  V30 59733 N 5848.84 0.445106 -1.51184 0
M  V30 59734 C 5850.12 1.20593 -1.54003 0
M  V30 59735 C 5850.5 2.08961 -0.299743 0
M  V30 59736 O 5849.85 2.17006 0.71559 0
M  V30 59737 C 5850.06 2.01451 -2.84989 0
M  V30 59738 C 5851.4 2.58758 -3.36644 0
M  V30 59739 O 5852.43 2.11669 -2.86487 0
M  V30 59740 O 5851.29 3.44622 -4.24144 0
M  V30 59741 H 5848.38 0.548613 -0.618831 0
M  V30 59742 H 5850.93 0.454808 -1.63492 0
M  V30 59743 H 5849.7 1.36498 -3.66721 0
M  V30 59744 H 5849.32 2.83644 -2.78625 0
M  V30 59745 N 5850.32 1.41199 0.70004 0
M  V30 59746 C 5851.23 1.45044 1.84389 0
M  V30 59747 C 5852.25 0.34147 1.70616 0
M  V30 59748 O 5853.42 0.588496 1.9261 0
M  V30 59749 C 5850.49 1.32622 3.20332 0
M  V30 59750 C 5849.55 2.53796 3.46245 0
M  V30 59751 C 5848.78 2.41957 4.75702 0
M  V30 59752 O 5849 1.44173 5.51879 0
M  V30 59753 O 5847.94 3.3163 5.023 0
M  V30 59754 H 5851.76 2.41538 1.84101 0
M  V30 59755 H 5849.35 1.22689 0.852515 0
M  V30 59756 H 5851.23 1.27961 4.01502 0
M  V30 59757 H 5849.91 0.392421 3.21313 0
M  V30 59758 H 5848.81 2.64034 2.65023 0
M  V30 59759 H 5850.15 3.45989 3.50075 0
M  V30 59760 N 5851.8 -0.933846 1.26953 0
M  V30 59761 C 5852.73 -2.05074 1.11656 0
M  V30 59762 C 5853.71 -1.70089 0.0197061 0
M  V30 59763 O 5854.89 -1.93238 0.193075 0
M  V30 59764 C 5852.02 -3.38961 0.756506 0
M  V30 59765 C 5850.98 -3.88035 1.80591 0
M  V30 59766 C 5850.3 -5.18656 1.29998 0
M  V30 59767 C 5851.6 -4.12105 3.20885 0
M  V30 59768 H 5853.3 -2.1813 2.05085 0
M  V30 59769 H 5850.84 -1.04813 0.987429 0
M  V30 59770 H 5852.8 -4.16568 0.636337 0
M  V30 59771 H 5851.52 -3.25901 -0.213492 0
M  V30 59772 H 5850.18 -3.12615 1.91487 0
M  V30 59773 H 5849.83 -5.01984 0.319618 0
M  V30 59774 H 5849.53 -5.5246 2.00153 0
M  V30 59775 H 5851.05 -5.98839 1.19263 0
M  V30 59776 H 5852.47 -4.80301 3.13023 0
M  V30 59777 H 5850.86 -4.57204 3.88696 0
M  V30 59778 H 5851.93 -3.1762 3.66395 0
M  V30 59779 N 5853.28 -1.08875 -1.13947 0
M  V30 59780 C 5854.52 -0.819729 -1.84729 0
M  V30 59781 C 5854.85 0.65647 -1.83618 0
M  V30 59782 O 5854.12 1.47609 -1.28796 0
M  V30 59783 H 5852.7 -0.300254 -0.684 0
M  V30 59784 H 5855.36 -1.37573 -1.38057 0
M  V30 59785 H 5854.45 -1.16819 -2.89413 0
M  V30 59786 N 5854.75 1.3107 -0.875119 0
M  V30 59787 C 5855.99 1.98311 -0.495186 0
M  V30 59788 C 5856.36 1.67632 0.936131 0
M  V30 59789 O 5857.56 2.28127 1.42168 0
M  V30 59790 C 5855.83 3.49421 -0.75097 0
M  V30 59791 S 5857.39 4.36258 -0.471665 0
M  V30 59792 H 5854.21 0.686608 -0.184637 0
M  V30 59793 H 5856.81 1.59374 -1.13226 0
M  V30 59794 H 5855.51 3.6924 -1.79137 0
M  V30 59795 H 5855.04 3.9327 -0.101084 0
M  V30 59796 H 5857.06 4.91324 0.693897 0
M  V30 59797 N 5856.23 0.635073 1.44238 0
M  V30 59798 C 5857.18 -0.0796401 2.32464 0
M  V30 59799 C 5858.17 -0.831767 1.47574 0
M  V30 59800 O 5859.38 -0.74422 1.63894 0
M  V30 59801 H 5855.76 -0.0445268 0.750681 0
M  V30 59802 H 5857.73 0.682476 2.90491 0
M  V30 59803 C 5856.48 -1.04493 3.31627 0
M  V30 59804 H 5855.8 -0.475616 3.96961 0
M  V30 59805 H 5857.24 -1.51444 3.96031 0
M  V30 59806 C 5855.7 -2.13212 2.60849 0
M  V30 59807 O 5856.23 -3.21348 2.41036 0
M  V30 59808 N 5854.43 -1.89257 2.20523 0
M  V30 59809 H 5853.98 -1.01321 2.36837 0
M  V30 59810 H 5853.94 -2.62197 1.73494 0
M  V30 59811 N 5857.71 -1.53052 0.37586 0
M  V30 59812 C 5858.66 -2.26052 -0.465741 0
M  V30 59813 C 5859.63 -1.27127 -1.06902 0
M  V30 59814 O 5860.81 -1.5593 -1.09957 0
M  V30 59815 C 5857.95 -3.06072 -1.59418 0
M  V30 59816 C 5857.07 -4.19905 -1.01508 0
M  V30 59817 C 5856.2 -4.87346 -2.11346 0
M  V30 59818 C 5855.24 -5.93194 -1.50955 0
M  V30 59819 N 5854.38 -6.54285 -2.54669 0
M  V30 59820 H 5859.22 -2.97552 0.163254 0
M  V30 59821 H 5856.75 -1.4681 0.0923336 0
M  V30 59822 H 5858.71 -3.50747 -2.25903 0
M  V30 59823 H 5857.34 -2.36807 -2.19368 0
M  V30 59824 H 5856.39 -3.79641 -0.240213 0
M  V30 59825 H 5857.71 -4.95937 -0.533638 0
M  V30 59826 H 5856.86 -5.35257 -2.8563 0
M  V30 59827 H 5855.6 -4.10808 -2.62846 0
M  V30 59828 H 5854.6 -5.44634 -0.751904 0
M  V30 59829 H 5855.83 -6.71657 -1.00268 0
M  V30 59830 H 5853.77 -5.80594 -3.05362 0
M  V30 59831 H 5853.69 -7.25888 -2.11241 0
M  V30 59832 H 5854.96 -7.06843 -3.28623 0
M  V30 59833 N 5859.19 -0.105304 -1.57248 0
M  V30 59834 C 5860.44 0.554888 -1.94333 0
M  V30 59835 C 5860.76 1.68083 -0.988587 0
M  V30 59836 O 5860.03 1.95854 -0.0424349 0
M  V30 59837 H 5858.61 0.207969 -0.717466 0
M  V30 59838 H 5861.27 -0.171032 -1.94148 0
M  V30 59839 H 5860.37 0.958426 -2.9702 0
M  V30 59840 N 5860.67 1.56697 0.168431 0
M  V30 59841 C 5861.61 1.96633 1.20848 0
M  V30 59842 C 5862.58 0.830674 1.43837 0
M  V30 59843 O 5863.77 1.09103 1.56529 0
M  V30 59844 C 5860.91 2.33389 2.54212 0
M  V30 59845 C 5860.02 3.60145 2.38578 0
M  V30 59846 C 5859.16 3.86101 3.64828 0
M  V30 59847 C 5858.2 5.06196 3.44139 0
M  V30 59848 N 5857.33 5.2827 4.62466 0
M  V30 59849 H 5862.17 2.85293 0.86092 0
M  V30 59850 H 5859.71 1.41163 0.413691 0
M  V30 59851 H 5861.67 2.52723 3.31944 0
M  V30 59852 H 5860.3 1.47835 2.86957 0
M  V30 59853 H 5859.35 3.48709 1.52007 0
M  V30 59854 H 5860.66 4.48036 2.19238 0
M  V30 59855 H 5859.82 4.05818 4.50995 0
M  V30 59856 H 5858.55 2.96591 3.8715 0
M  V30 59857 H 5857.56 4.86375 2.56359 0
M  V30 59858 H 5858.78 5.97239 3.23237 0
M  V30 59859 H 5856.73 4.41712 4.85001 0
M  V30 59860 H 5856.65 6.10389 4.46051 0
M  V30 59861 H 5857.92 5.52468 5.49909 0
M  V30 59862 N 5862.14 -0.437082 1.51418 0
M  V30 59863 C 5863.05 -1.55575 1.75595 0
M  V30 59864 C 5864.07 -1.61795 0.640188 0
M  V30 59865 O 5865.25 -1.79032 0.922469 0
M  V30 59866 C 5862.31 -2.91554 1.87608 0
M  V30 59867 C 5861.37 -2.95449 3.11462 0
M  V30 59868 C 5860.61 -4.24942 3.22893 0
M  V30 59869 O 5860.83 -5.17333 2.40257 0
M  V30 59870 O 5859.76 -4.35126 4.15871 0
M  V30 59871 H 5863.59 -1.38088 2.70491 0
M  V30 59872 H 5861.17 -0.620116 1.35923 0
M  V30 59873 H 5863.06 -3.72255 1.97494 0
M  V30 59874 H 5861.73 -3.09168 0.958998 0
M  V30 59875 H 5860.64 -2.13702 3.07054 0
M  V30 59876 H 5861.97 -2.8278 4.0286 0
M  V30 59877 N 5863.62 -1.41568 -0.692542 0
M  V30 59878 C 5865.04 -1.24104 -1.00351 0
M  V30 59879 C 5865.24 -0.132556 -2.01064 0
M  V30 59880 O 5864.29 0.502055 -2.47458 0
M  V30 59881 C 5865.61 -2.59147 -1.52523 0
M  V30 59882 C 5867.16 -2.66354 -1.64391 0
M  V30 59883 C 5867.63 -4.01721 -2.19964 0
M  V30 59884 N 5869.12 -4.03583 -2.27321 0
M  V30 59885 C 5869.86 -5.05128 -2.71355 0
M  V30 59886 N 5869.35 -6.17061 -3.14972 0
M  V30 59887 N 5871.15 -4.92488 -2.70946 0
M  V30 59888 H 5863.3 -2.12385 -0.0254112 0
M  V30 59889 H 5865.56 -0.94512 -0.0738352 0
M  V30 59890 H 5865.27 -3.41029 -0.859771 0
M  V30 59891 H 5865.14 -2.81842 -2.50689 0
M  V30 59892 H 5867.53 -1.84829 -2.30048 0
M  V30 59893 H 5867.61 -2.47466 -0.64763 0
M  V30 59894 H 5867.25 -4.83696 -1.54922 0
M  V30 59895 H 5867.18 -4.17951 -3.2035 0
M  V30 59896 H 5869.67 -3.22767 -1.96545 0
M  V30 59897 H 5869.99 -6.90411 -3.47207 0
M  V30 59898 H 5868.33 -6.20593 -3.12873 0
M  V30 59899 H 5871.52 -4.04125 -2.36222 0
M  V30 59900 H 5871.69 -5.71763 -3.04945 0
M  V30 59901 N 5865.1 0.927101 -1.27446 0
M  V30 59902 C 5866.33 1.70892 -1.16635 0
M  V30 59903 C 5866.74 1.86761 0.276746 0
M  V30 59904 O 5866.1 1.38507 1.18837 0
M  V30 59905 C 5866.15 3.10823 -1.84584 0
M  V30 59906 O 5865.87 2.95699 -3.23255 0
M  V30 59907 C 5867.37 4.05153 -1.79905 0
M  V30 59908 H 5864.59 0.534623 -0.405486 0
M  V30 59909 H 5867.14 1.16128 -1.68329 0
M  V30 59910 H 5865.29 3.62445 -1.36793 0
M  V30 59911 H 5865.71 3.84168 -3.57093 0
M  V30 59912 H 5867.18 5.00851 -2.32062 0
M  V30 59913 H 5867.66 4.32424 -0.768525 0
M  V30 59914 H 5868.26 3.59456 -2.27313 0
M  V30 59915 N 5866.58 1.09478 1.13368 0
M  V30 59916 C 5867.82 0.840818 1.86305 0
M  V30 59917 C 5868.18 -0.622263 1.81637 0
M  V30 59918 O 5869.38 -0.992178 2.49818 0
M  V30 59919 C 5867.65 1.36192 3.30434 0
M  V30 59920 S 5869.21 1.24191 4.20859 0
M  V30 59921 H 5866.03 0.304093 0.642688 0
M  V30 59922 H 5868.63 1.39826 1.36634 0
M  V30 59923 H 5867.34 2.42098 3.31386 0
M  V30 59924 H 5866.87 0.800621 3.85167 0
M  V30 59925 H 5868.88 0.193195 4.95824 0
M  V30 59926 N 5868.06 -1.30604 0.882058 0
M  V30 59927 C 5869.02 -2.26487 0.351577 0
M  V30 59928 C 5870.02 -1.52688 -0.504295 0
M  V30 59929 O 5871.21 -1.71386 -0.311868 0
M  V30 59930 C 5868.34 -3.37223 -0.499316 0
M  V30 59931 H 5869.54 -2.74925 1.19818 0
M  V30 59932 H 5867.09 -1.41744 0.658666 0
M  V30 59933 H 5867.82 -2.94098 -1.36663 0
M  V30 59934 H 5867.61 -3.91935 0.113698 0
M  V30 59935 H 5869.1 -4.08599 -0.862354 0
M  V30 59936 N 5869.54 -0.642713 -1.43899 0
M  V30 59937 C 5870.45 0.0561638 -2.34533 0
M  V30 59938 C 5871.46 0.823403 -1.53284 0
M  V30 59939 O 5872.64 0.773037 -1.85973 0
M  V30 59940 C 5869.7 1.01775 -3.31425 0
M  V30 59941 C 5868.76 0.248608 -4.2858 0
M  V30 59942 C 5868 1.16439 -5.20843 0
M  V30 59943 O 5868.22 2.40343 -5.17292 0
M  V30 59944 O 5867.15 0.642461 -5.98461 0
M  V30 59945 H 5870.98 -0.68958 -2.95768 0
M  V30 59946 H 5868.56 -0.402897 -1.43865 0
M  V30 59947 H 5870.45 1.57066 -3.91035 0
M  V30 59948 H 5869.12 1.74391 -2.72708 0
M  V30 59949 H 5868.03 -0.347626 -3.72481 0
M  V30 59950 H 5869.36 -0.437762 -4.90249 0
M  V30 59951 N 5871.01 1.52851 -0.383971 0
M  V30 59952 C 5871.96 2.27829 0.468682 0
M  V30 59953 C 5872.96 1.3152 1.06766 0
M  V30 59954 O 5874.16 1.49078 1.00875 0
M  V30 59955 H 5870.54 0.732558 0.169891 0
M  V30 59956 H 5872.51 2.97825 -0.185228 0
M  V30 59957 C 5871.26 3.09384 1.58672 0
M  V30 59958 H 5870.58 3.83347 1.13514 0
M  V30 59959 H 5872.02 3.64994 2.15766 0
M  V30 59960 C 5870.48 2.21363 2.53969 0
M  V30 59961 O 5871.01 1.83681 3.57245 0
M  V30 59962 N 5869.21 1.85629 2.23585 0
M  V30 59963 H 5868.76 2.16472 1.39635 0
M  V30 59964 H 5868.72 1.27025 2.87597 0
M  V30 59965 N 5872.49 0.113641 1.5719 0
M  V30 59966 C 5873.74 -0.545438 1.94185 0
M  V30 59967 C 5874.05 -1.68172 0.998875 0
M  V30 59968 O 5875.26 -2.4032 1.26327 0
M  V30 59969 C 5873.72 -1.02166 3.45094 0
M  V30 59970 C 5873.32 0.085877 4.47918 0
M  V30 59971 C 5875.07 -1.65242 3.91019 0
M  V30 59972 C 5872.97 -0.406738 5.9 0
M  V30 59973 H 5871.9 -0.207524 0.724879 0
M  V30 59974 H 5874.56 0.192632 1.82486 0
M  V30 59975 H 5872.94 -1.81398 3.5201 0
M  V30 59976 H 5874.11 0.86198 4.52666 0
M  V30 59977 H 5872.43 0.622961 4.11714 0
M  V30 59978 H 5875.02 -2.03203 4.94583 0
M  V30 59979 H 5875.37 -2.52876 3.30695 0
M  V30 59980 H 5875.9 -0.925591 3.86882 0
M  V30 59981 H 5872.64 0.433429 6.54065 0
M  V30 59982 H 5872.16 -1.14944 5.88683 0
M  V30 59983 H 5873.84 -0.869708 6.41128 0
M  V30 59984 N 5873.97 -1.56785 -0.160118 0
M  V30 59985 C 5875.21 -1.84426 -0.881283 0
M  V30 59986 C 5875.57 -0.696132 -1.78936 0
M  V30 59987 O 5876.77 -0.853264 -2.54898 0
M  V30 59988 C 5875.05 -3.17214 -1.64651 0
M  V30 59989 S 5876.6 -3.66371 -2.4149 0
M  V30 59990 H 5873.42 -0.646933 -0.294955 0
M  V30 59991 H 5876.02 -1.94983 -0.142147 0
M  V30 59992 H 5874.73 -3.98756 -0.970642 0
M  V30 59993 H 5874.26 -3.09628 -2.42681 0
M  V30 59994 H 5876.27 -3.3459 -3.6642 0
M  V30 59995 N 5875.45 0.429046 -1.51647 0
M  V30 59996 C 5876.36 1.54642 -1.76417 0
M  V30 59997 C 5877.37 1.61453 -0.64876 0
M  V30 59998 O 5878.55 1.7854 -0.93195 0
M  V30 59999 C 5875.61 2.90555 -1.89152 0
M  V30 60000 C 5874.68 2.93793 -3.13024 0
M  V30 60001 C 5873.91 4.23224 -3.25142 0
M  V30 60002 O 5874.13 5.16051 -2.42997 0
M  V30 60003 O 5873.07 4.32914 -4.18173 0
M  V30 60004 H 5876.89 1.36652 -2.71219 0
M  V30 60005 H 5874.48 0.612899 -1.36249 0
M  V30 60006 H 5876.36 3.71203 -1.99466 0
M  V30 60007 H 5875.03 3.08655 -0.97538 0
M  V30 60008 H 5873.94 2.12071 -3.08183 0
M  V30 60009 H 5875.27 2.80639 -4.04354 0
M  V30 60010 N 5876.93 1.41934 0.685024 0
M  V30 60011 C 5877.86 1.40551 1.81047 0
M  V30 60012 C 5878.87 0.30608 1.59897 0
M  V30 60013 O 5880.06 0.568504 1.69205 0
M  V30 60014 C 5877.16 1.17206 3.17987 0
M  V30 60015 C 5876.33 2.39389 3.66076 0
M  V30 60016 C 5875.39 2.11742 4.81717 0
M  V30 60017 O 5874.42 2.84865 4.92789 0
M  V30 60018 N 5875.62 1.11419 5.69707 0
M  V30 60019 H 5878.38 2.37556 1.82722 0
M  V30 60020 H 5875.95 1.36682 0.867742 0
M  V30 60021 H 5877.94 0.966445 3.92991 0
M  V30 60022 H 5876.51 0.287608 3.11274 0
M  V30 60023 H 5875.73 2.75584 2.81863 0
M  V30 60024 H 5877.02 3.20774 3.94945 0
M  V30 60025 H 5876.41 0.509206 5.63404 0
M  V30 60026 H 5874.97 0.968466 6.44565 0
M  V30 60027 N 5878.4 -0.920329 1.27936 0
M  V30 60028 C 5879.35 -2.04327 1.11145 0
M  V30 60029 C 5880.35 -1.69369 0.0325089 0
M  V30 60030 O 5881.55 -1.78986 0.190786 0
M  V30 60031 H 5877.93 -0.669369 0.342709 0
M  V30 60032 H 5879.9 -2.15634 2.06263 0
M  V30 60033 C 5878.65 -3.38765 0.783168 0
M  V30 60034 H 5877.97 -3.66154 1.60534 0
M  V30 60035 H 5879.41 -4.18088 0.705595 0
M  V30 60036 C 5877.87 -3.32974 -0.51281 0
M  V30 60037 O 5878.4 -3.70797 -1.54506 0
M  V30 60038 N 5876.6 -2.8607 -0.511132 0
M  V30 60039 H 5876.15 -2.55486 0.329318 0
M  V30 60040 H 5876.11 -2.82578 -1.3783 0
M  V30 60041 N 5879.88 -1.10078 -1.12786 0
M  V30 60042 C 5881.12 -0.850687 -1.85857 0
M  V30 60043 C 5881.49 0.612621 -1.81964 0
M  V30 60044 O 5882.69 0.978915 -2.50341 0
M  V30 60045 C 5880.96 -1.37942 -3.29707 0
M  V30 60046 S 5882.52 -1.26421 -4.20194 0
M  V30 60047 H 5879.33 -0.307498 -0.641067 0
M  V30 60048 H 5881.94 -1.40549 -1.35891 0
M  V30 60049 H 5880.64 -2.43852 -3.30097 0
M  V30 60050 H 5880.17 -0.821036 -3.84737 0
M  V30 60051 H 5882.19 -0.219487 -4.95714 0
M  V30 60052 N 5881.36 1.30135 -0.888972 0
M  V30 60053 C 5882.59 2.00141 -0.524507 0
M  V30 60054 C 5883 1.66611 0.888034 0
M  V30 60055 O 5882.36 0.905382 1.58458 0
M  V30 60056 C 5882.41 3.54767 -0.694452 0
M  V30 60057 O 5882.13 3.87104 -2.05138 0
M  V30 60058 C 5883.63 4.42044 -0.333509 0
M  V30 60059 H 5880.85 0.639768 -0.202331 0
M  V30 60060 H 5883.4 1.65925 -1.19537 0
M  V30 60061 H 5881.55 3.87335 -0.0709074 0
M  V30 60062 H 5881.97 4.81799 -2.07291 0
M  V30 60063 H 5883.44 5.49701 -0.5033 0
M  V30 60064 H 5883.92 4.33112 0.728741 0
M  V30 60065 H 5884.52 4.14928 -0.933544 0
M  V30 60066 N 5882.84 0.650335 1.43556 0
M  V30 60067 C 5883.77 -0.0816678 2.29054 0
M  V30 60068 C 5884.78 -0.789973 1.42349 0
M  V30 60069 O 5885.97 -0.648211 1.66314 0
M  V30 60070 C 5883.07 -1.13862 3.192 0
M  V30 60071 C 5882.25 -0.509024 4.34428 0
M  V30 60072 C 5881.3 -1.46247 5.05468 0
M  V30 60073 O 5880.33 -0.972181 5.60836 0
M  V30 60074 N 5881.53 -2.7965 5.087 0
M  V30 60075 H 5884.3 0.652164 2.92518 0
M  V30 60076 H 5881.86 0.492904 1.54214 0
M  V30 60077 H 5883.85 -1.77719 3.6359 0
M  V30 60078 H 5882.42 -1.77445 2.57356 0
M  V30 60079 H 5881.64 0.308582 3.9299 0
M  V30 60080 H 5882.93 -0.0693943 5.08753 0
M  V30 60081 H 5882.33 -3.22046 4.65084 0
M  V30 60082 H 5880.88 -3.38818 5.56817 0
M  V30 60083 N 5884.32 -1.52645 0.392072 0
M  V30 60084 C 5885.25 -2.29447 -0.433148 0
M  V30 60085 C 5886.23 -1.32949 -1.06107 0
M  V30 60086 O 5887.41 -1.61844 -1.07331 0
M  V30 60087 C 5884.54 -3.10333 -1.55918 0
M  V30 60088 C 5883.5 -4.14739 -1.05716 0
M  V30 60089 C 5882.82 -4.83866 -2.27548 0
M  V30 60090 C 5884.12 -5.22155 -0.123162 0
M  V30 60091 H 5885.82 -2.98679 0.207668 0
M  V30 60092 H 5883.36 -1.43643 0.101317 0
M  V30 60093 H 5885.32 -3.62821 -2.14333 0
M  V30 60094 H 5884.04 -2.3884 -2.22762 0
M  V30 60095 H 5882.7 -3.63236 -0.495526 0
M  V30 60096 H 5882.35 -4.08918 -2.92908 0
M  V30 60097 H 5882.05 -5.54435 -1.94617 0
M  V30 60098 H 5883.57 -5.39159 -2.866 0
M  V30 60099 H 5884.98 -5.69985 -0.615584 0
M  V30 60100 H 5883.38 -5.99987 0.116515 0
M  V30 60101 H 5884.45 -4.77793 0.827137 0
M  V30 60102 N 5885.79 -0.121976 -1.57127 0
M  V30 60103 C 5886.74 0.844427 -2.16731 0
M  V30 60104 C 5887.74 1.27326 -1.11734 0
M  V30 60105 O 5888.94 1.24465 -1.30032 0
M  V30 60106 H 5885.32 0.290435 -0.693651 0
M  V30 60107 H 5887.29 0.317274 -2.96708 0
M  V30 60108 C 5886.04 2.08349 -2.78363 0
M  V30 60109 H 5885.36 1.76245 -3.58856 0
M  V30 60110 H 5886.8 2.73967 -3.23602 0
M  V30 60111 C 5885.26 2.8752 -1.75596 0
M  V30 60112 O 5885.79 3.83007 -1.21114 0
M  V30 60113 N 5884 2.51569 -1.45469 0
M  V30 60114 H 5883.54 1.73987 -1.89964 0
M  V30 60115 H 5883.5 3.04837 -0.769518 0
M  V30 60116 N 5887.27 1.56867 0.151801 0
M  V30 60117 C 5888.18 2.01162 1.20711 0
M  V30 60118 C 5889.2 0.926218 1.473 0
M  V30 60119 O 5890.37 1.23534 1.59064 0
M  V30 60120 C 5887.44 2.37924 2.52176 0
M  V30 60121 C 5886.5 3.60389 2.33277 0
M  V30 60122 C 5885.73 3.95388 3.58474 0
M  V30 60123 O 5885.96 3.3111 4.6446 0
M  V30 60124 O 5884.89 4.88657 3.51423 0
M  V30 60125 H 5888.72 2.91237 0.861072 0
M  V30 60126 H 5886.3 1.44994 0.360162 0
M  V30 60127 H 5888.18 2.62451 3.29693 0
M  V30 60128 H 5886.86 1.51005 2.8632 0
M  V30 60129 H 5885.77 3.41055 1.53728 0
M  V30 60130 H 5887.1 4.47911 2.04051 0
M  V30 60131 N 5888.75 -0.420997 1.51873 0
M  V30 60132 C 5890 -1.16672 1.65022 0
M  V30 60133 C 5890.32 -1.91328 0.376663 0
M  V30 60134 O 5889.59 -1.86223 -0.608081 0
M  V30 60135 H 5888.17 -0.433677 0.608221 0
M  V30 60136 H 5890.83 -0.481083 1.88869 0
M  V30 60137 H 5889.93 -1.88733 2.48568 0
M  V30 60138 N 5890.23 -1.42295 -0.677488 0
M  V30 60139 C 5891.48 -1.42339 -1.43471 0
M  V30 60140 C 5891.8 -0.0398527 -1.94959 0
M  V30 60141 O 5891.07 0.921198 -1.72889 0
M  V30 60142 H 5889.65 -0.523988 -0.532396 0
M  V30 60143 H 5892.31 -1.77693 -0.800696 0
M  V30 60144 H 5891.41 -2.12154 -2.28904 0
M  V30 60145 N 5891.71 0.913531 -1.28423 0
M  V30 60146 C 5892.95 1.66269 -1.1559 0
M  V30 60147 C 5893.28 1.92243 0.295474 0
M  V30 60148 O 5892.54 1.52109 1.23132 0
M  V30 60149 C 5892.84 3.02715 -1.89996 0
M  V30 60150 C 5892.5 2.96401 -3.3979 0
M  V30 60151 C 5891.16 2.94386 -3.80645 0
M  V30 60152 C 5893.52 2.86633 -4.35306 0
M  V30 60153 C 5890.84 2.80404 -5.15355 0
M  V30 60154 C 5893.2 2.74191 -5.70089 0
M  V30 60155 C 5891.86 2.70534 -6.10219 0
M  V30 60156 H 5891.13 0.608421 -0.422972 0
M  V30 60157 H 5893.78 1.06432 -1.592 0
M  V30 60158 H 5892.08 3.66339 -1.38936 0
M  V30 60159 H 5893.78 3.59585 -1.77482 0
M  V30 60160 H 5890.37 2.98764 -3.07308 0
M  V30 60161 H 5894.55 2.87277 -4.04705 0
M  V30 60162 H 5889.81 2.75968 -5.45574 0
M  V30 60163 H 5893.98 2.65601 -6.43762 0
M  V30 60164 H 5891.61 2.59457 -7.14553 0
M  V30 60165 N 5893.18 1.10674 1.122 0
M  V30 60166 C 5894.43 0.845503 1.83123 0
M  V30 60167 C 5894.75 -0.630957 1.85144 0
M  V30 60168 O 5895.95 -1.00818 2.52087 0
M  V30 60169 C 5894.41 1.46277 3.28833 0
M  V30 60170 C 5894.02 2.9727 3.35164 0
M  V30 60171 C 5895.76 1.28102 4.0471 0
M  V30 60172 C 5893.67 3.52019 4.75223 0
M  V30 60173 H 5892.6 0.312641 0.686128 0
M  V30 60174 H 5895.25 1.33103 1.26317 0
M  V30 60175 H 5893.63 0.904917 3.85522 0
M  V30 60176 H 5894.8 3.59391 2.884 0
M  V30 60177 H 5893.12 3.14627 2.72762 0
M  V30 60178 H 5895.72 1.66447 5.08133 0
M  V30 60179 H 5896.06 0.222828 4.15703 0
M  V30 60180 H 5896.59 1.80708 3.54386 0
M  V30 60181 H 5893.33 4.57516 4.69425 0
M  V30 60182 H 5892.85 2.94666 5.22429 0
M  V30 60183 H 5894.53 3.49987 5.44168 0
M  V30 60184 N 5894.66 -1.29661 0.89586 0
M  V30 60185 C 5895.9 -1.97498 0.526673 0
M  V30 60186 C 5896.27 -1.691 -0.909343 0
M  V30 60187 O 5897.47 -2.30359 -1.38521 0
M  V30 60188 C 5895.74 -3.48182 0.806464 0
M  V30 60189 S 5897.3 -4.35452 0.54101 0
M  V30 60190 H 5894.12 -0.683583 0.195537 0
M  V30 60191 H 5896.72 -1.57553 1.15747 0
M  V30 60192 H 5895.42 -3.66343 1.84989 0
M  V30 60193 H 5894.95 -3.9306 0.163637 0
M  V30 60194 H 5896.97 -4.92366 -0.615644 0
M  V30 60195 N 5896.14 -0.657939 -1.43209 0
M  V30 60196 C 5897.37 -0.179516 -2.06622 0
M  V30 60197 C 5897.79 1.14782 -1.49019 0
M  V30 60198 O 5897.15 1.71014 -0.60198 0
M  V30 60199 C 5897.2 -0.106953 -3.60441 0
M  V30 60200 O 5896.3 0.929479 -4.01789 0
M  V30 60201 H 5895.64 -0.0970362 -0.656871 0
M  V30 60202 H 5898.17 -0.902197 -1.83634 0
M  V30 60203 H 5898.18 0.0748066 -4.07931 0
M  V30 60204 H 5896.86 -1.07588 -4.01743 0
M  V30 60205 H 5895.43 0.720126 -3.65881 0
M  V30 60206 N 5897.62 1.52435 -0.400162 0
M  V30 60207 C 5898.86 2.03622 0.178173 0
M  V30 60208 C 5899.22 1.2797 1.43135 0
M  V30 60209 O 5900.42 1.69336 2.08755 0
M  V30 60210 C 5898.7 3.54818 0.428844 0
M  V30 60211 S 5900.25 4.2781 0.975909 0
M  V30 60212 H 5897.07 0.709294 0.0492184 0
M  V30 60213 H 5899.67 1.87574 -0.551014 0
M  V30 60214 H 5898.38 4.07462 -0.490159 0
M  V30 60215 H 5897.91 3.75092 1.18615 0
M  V30 60216 H 5899.92 4.41883 2.2573 0
M  V30 60217 N 5899.1 0.130307 1.5706 0
M  V30 60218 C 5900.33 -0.532346 1.99934 0
M  V30 60219 C 5900.74 -1.59501 1.01018 0
M  V30 60220 O 5900.1 -1.82499 0.00469573 0
M  V30 60221 C 5900.15 -1.14821 3.4278 0
M  V30 60222 O 5899.87 -0.128009 4.37913 0
M  V30 60223 C 5901.37 -1.89309 4.00845 0
M  V30 60224 H 5898.59 -0.140023 0.656227 0
M  V30 60225 H 5901.13 0.219977 2.03313 0
M  V30 60226 H 5899.29 -1.85125 3.40305 0
M  V30 60227 H 5899.7 -0.576951 5.21317 0
M  V30 60228 H 5901.18 -2.27713 5.02843 0
M  V30 60229 H 5901.65 -2.77265 3.40618 0
M  V30 60230 H 5902.26 -1.23743 4.069 0
M  V30 60231 N 5900.58 -1.56946 -0.14348 0
M  V30 60232 C 5901.54 -1.9762 -1.16099 0
M  V30 60233 C 5902.54 -0.86316 -1.35669 0
M  V30 60234 O 5903.73 -1.12971 -1.32602 0
M  V30 60235 C 5900.86 -2.29519 -2.52059 0
M  V30 60236 H 5902.05 -2.88699 -0.811965 0
M  V30 60237 H 5899.61 -1.51435 -0.386945 0
M  V30 60238 H 5900.34 -1.41243 -2.91926 0
M  V30 60239 H 5900.13 -3.10675 -2.39214 0
M  V30 60240 H 5901.62 -2.61813 -3.25336 0
M  V30 60241 N 5902.05 0.412937 -1.52094 0
M  V30 60242 C 5903.3 1.15795 -1.65638 0
M  V30 60243 C 5903.62 1.91125 -0.386804 0
M  V30 60244 O 5902.89 1.86543 0.598196 0
M  V30 60245 H 5901.47 0.430445 -0.610513 0
M  V30 60246 H 5904.13 0.471061 -1.89122 0
M  V30 60247 H 5903.23 1.87412 -2.49566 0
M  V30 60248 N 5903.53 1.42652 0.669932 0
M  V30 60249 C 5904.78 1.43381 1.42997 0
M  V30 60250 C 5905.11 0.052007 1.9443 0
M  V30 60251 O 5904.36 -0.940396 1.71625 0
M  V30 60252 C 5904.66 2.40922 2.63991 0
M  V30 60253 C 5904.33 3.87191 2.31071 0
M  V30 60254 C 5902.99 4.27032 2.21804 0
M  V30 60255 C 5905.34 4.79435 2.0443 0
M  V30 60256 C 5902.67 5.57091 1.84029 0
M  V30 60257 C 5905.02 6.09841 1.68158 0
M  V30 60258 C 5903.68 6.48676 1.57405 0
M  V30 60259 H 5902.95 0.52467 0.523262 0
M  V30 60260 H 5905.6 1.75624 0.763432 0
M  V30 60261 H 5903.91 2.02024 3.35699 0
M  V30 60262 H 5905.6 2.38748 3.2218 0
M  V30 60263 H 5902.19 3.55651 2.39187 0
M  V30 60264 H 5906.38 4.49439 2.1052 0
M  V30 60265 H 5901.63 5.86035 1.74277 0
M  V30 60266 H 5905.81 6.80801 1.4657 0
M  V30 60267 H 5903.43 7.49363 1.27904 0
M  V30 60268 N 5905.01 -0.906708 1.28905 0
M  V30 60269 C 5905.92 -2.04309 1.15303 0
M  V30 60270 C 5906.94 -1.73825 0.077923 0
M  V30 60271 O 5908.11 -1.99321 0.288613 0
M  V30 60272 C 5905.18 -3.36779 0.823436 0
M  V30 60273 C 5904.24 -3.80827 1.98165 0
M  V30 60274 C 5903.47 -5.06975 1.66768 0
M  V30 60275 O 5903.69 -5.67389 0.585329 0
M  V30 60276 O 5902.63 -5.46906 2.51351 0
M  V30 60277 H 5906.45 -2.18705 2.10717 0
M  V30 60278 H 5904.04 -1.02925 1.08291 0
M  V30 60279 H 5905.92 -4.16296 0.653881 0
M  V30 60280 H 5904.6 -3.23542 -0.100983 0
M  V30 60281 H 5903.5 -3.02107 2.2064 0
M  V30 60282 H 5904.84 -3.98638 2.88702 0
M  V30 60283 N 5906.49 -1.11268 -1.11612 0
M  V30 60284 C 5907.72 -0.882868 -1.87118 0
M  V30 60285 C 5908.13 0.567215 -1.80078 0
M  V30 60286 O 5907.49 1.39154 -1.18079 0
M  V30 60287 C 5907.54 -1.33367 -3.35999 0
M  V30 60288 O 5907.26 -2.7269 -3.42887 0
M  V30 60289 C 5908.76 -1.13902 -4.28417 0
M  V30 60290 H 5905.98 -0.316296 -0.591775 0
M  V30 60291 H 5908.52 -1.47955 -1.41172 0
M  V30 60292 H 5906.68 -0.78048 -3.79457 0
M  V30 60293 H 5907.09 -2.92184 -4.35579 0
M  V30 60294 H 5908.57 -1.50348 -5.3113 0
M  V30 60295 H 5909.04 -0.0784134 -4.3913 0
M  V30 60296 H 5909.65 -1.6791 -3.90751 0
M  V30 60297 N 5907.97 1.29185 -0.902724 0
M  V30 60298 C 5908.91 2.29595 -0.372666 0
M  V30 60299 C 5909.91 1.60902 0.529802 0
M  V30 60300 O 5911.11 1.75215 0.412268 0
M  V30 60301 H 5907.49 0.745065 -0.101891 0
M  V30 60302 H 5909.46 2.71742 -1.23284 0
M  V30 60303 C 5908.21 3.45595 0.382007 0
M  V30 60304 H 5907.53 3.98649 -0.303201 0
M  V30 60305 H 5908.97 4.17882 0.717705 0
M  V30 60306 C 5907.43 2.97244 1.5858 0
M  V30 60307 O 5907.96 2.98776 2.68506 0
M  V30 60308 N 5906.17 2.53037 1.429 0
M  V30 60309 H 5905.71 2.5199 0.534697 0
M  V30 60310 H 5905.67 2.21046 2.23576 0
M  V30 60311 N 5909.44 0.665525 1.42858 0
M  V30 60312 C 5910.69 0.184227 2.01961 0
M  V30 60313 C 5911.02 -1.20296 1.52455 0
M  V30 60314 O 5910.3 -1.8057 0.722819 0
M  V30 60315 C 5910.58 0.208623 3.59495 0
M  V30 60316 C 5910.43 1.6306 4.19203 0
M  V30 60317 C 5911.75 -0.448267 4.37811 0
M  V30 60318 H 5908.87 0.0684182 0.733817 0
M  V30 60319 H 5911.51 0.84855 1.69999 0
M  V30 60320 H 5909.66 -0.357043 3.86856 0
M  V30 60321 H 5911.34 2.2478 4.02829 0
M  V30 60322 H 5909.58 2.17414 3.75385 0
M  V30 60323 H 5910.25 1.59943 5.2832 0
M  V30 60324 H 5912.73 0.0331516 4.16087 0
M  V30 60325 H 5911.6 -0.40052 5.47437 0
M  V30 60326 H 5911.86 -1.52439 4.14988 0
M  V30 60327 N 5910.92 -1.52221 0.40824 0
M  V30 60328 C 5912.17 -2.01803 -0.167834 0
M  V30 60329 C 5912.5 -1.2939 -1.45219 0
M  V30 60330 O 5911.75 -0.388451 -1.91806 0
M  V30 60331 C 5912.05 -3.54385 -0.463229 0
M  V30 60332 C 5911.72 -4.44922 0.731822 0
M  V30 60333 C 5910.38 -4.69388 1.05962 0
M  V30 60334 C 5912.73 -4.98225 1.53041 0
M  V30 60335 C 5910.06 -5.44406 2.18721 0
M  V30 60336 C 5912.41 -5.74477 2.64876 0
M  V30 60337 C 5911.07 -5.97216 2.98142 0
M  V30 60338 H 5910.34 -0.738451 -0.061415 0
M  V30 60339 H 5912.99 -1.83448 0.549477 0
M  V30 60340 H 5911.3 -3.70916 -1.2621 0
M  V30 60341 H 5912.99 -3.90259 -0.921905 0
M  V30 60342 H 5909.58 -4.26055 0.46635 0
M  V30 60343 H 5913.77 -4.79231 1.29039 0
M  V30 60344 H 5909.02 -5.60233 2.44844 0
M  V30 60345 H 5913.2 -6.14776 3.27144 0
M  V30 60346 H 5910.82 -6.55127 3.85633 0
M  V30 60347 N 5912.4 -0.138635 -1.56989 0
M  V30 60348 C 5913.68 0.559173 -1.87437 0
M  V30 60349 C 5914.06 1.83523 -1.04319 0
M  V30 60350 O 5913.41 2.28143 -0.127611 0
M  V30 60351 C 5913.62 0.832701 -3.3892 0
M  V30 60352 C 5914.96 1.17716 -4.07956 0
M  V30 60353 O 5915.99 0.922329 -3.44052 0
M  V30 60354 O 5914.85 1.65632 -5.20796 0
M  V30 60355 H 5911.94 0.284291 -0.7766 0
M  V30 60356 H 5914.49 -0.174617 -1.68799 0
M  V30 60357 H 5913.26 -0.070743 -3.91236 0
M  V30 60358 H 5912.88 1.62097 -3.63057 0
M  V30 60359 N 5913.88 1.57019 0.135155 0
M  V30 60360 C 5915.29 1.5195 0.488186 0
M  V30 60361 C 5915.49 0.849019 1.8274 0
M  V30 60362 O 5914.55 0.424529 2.48906 0
M  V30 60363 C 5915.86 2.96721 0.487569 0
M  V30 60364 C 5917.41 3.07724 0.572256 0
M  V30 60365 C 5917.89 4.54024 0.602187 0
M  V30 60366 N 5919.38 4.58415 0.664081 0
M  V30 60367 C 5920.11 5.69007 0.70842 0
M  V30 60368 N 5919.61 6.89138 0.711384 0
M  V30 60369 N 5921.4 5.57071 0.750203 0
M  V30 60370 H 5913.55 1.98998 -0.742535 0
M  V30 60371 H 5915.82 0.908107 -0.272115 0
M  V30 60372 H 5915.52 3.4908 -0.428486 0
M  V30 60373 H 5915.4 3.53303 1.32123 0
M  V30 60374 H 5917.78 2.55377 1.47873 0
M  V30 60375 H 5917.86 2.54165 -0.288786 0
M  V30 60376 H 5917.51 5.07012 -0.300178 0
M  V30 60377 H 5917.44 5.05378 1.47989 0
M  V30 60378 H 5919.93 3.71938 0.668609 0
M  V30 60379 H 5920.24 7.69177 0.747393 0
M  V30 60380 H 5918.59 6.91675 0.679068 0
M  V30 60381 H 5921.78 4.62131 0.745139 0
M  V30 60382 H 5921.95 6.43273 0.781291 0
M  V30 60383 N 5915.36 -0.404866 1.52311 0
M  V30 60384 C 5916.58 -1.17303 1.70433 0
M  V30 60385 C 5917 -1.84167 0.415681 0
M  V30 60386 O 5916.36 -1.72052 -0.608633 0
M  V30 60387 C 5916.41 -2.23296 2.8429 0
M  V30 60388 O 5916.13 -1.59162 4.08166 0
M  V30 60389 C 5917.63 -3.12961 3.13959 0
M  V30 60390 H 5914.85 -0.352328 0.571057 0
M  V30 60391 H 5917.39 -0.475781 1.98888 0
M  V30 60392 H 5915.55 -2.88683 2.58342 0
M  V30 60393 H 5915.96 -2.29464 4.71642 0
M  V30 60394 H 5917.44 -3.83397 3.97128 0
M  V30 60395 H 5917.91 -3.75574 2.27685 0
M  V30 60396 H 5918.52 -2.53239 3.41687 0
M  V30 60397 N 5916.83 -1.43006 -0.662357 0
M  V30 60398 C 5918.06 -1.47771 -1.45528 0
M  V30 60399 C 5918.48 -0.0940958 -1.87864 0
M  V30 60400 O 5917.84 0.910197 -1.56796 0
M  V30 60401 C 5917.89 -2.42093 -2.67251 0
M  V30 60402 O 5916.99 -1.90088 -3.65978 0
M  V30 60403 H 5916.34 -0.500182 -0.436708 0
M  V30 60404 H 5918.87 -1.87826 -0.811333 0
M  V30 60405 H 5918.88 -2.59092 -3.15175 0
M  V30 60406 H 5917.55 -3.4261 -2.35778 0
M  V30 60407 H 5916.13 -1.82707 -3.25073 0
M  V30 60408 N 5918.31 0.899859 -1.29384 0
M  V30 60409 C 5919.55 1.66463 -1.18614 0
M  V30 60410 C 5919.92 1.90256 0.25822 0
M  V30 60411 O 5921.12 2.64317 0.488895 0
M  V30 60412 C 5919.39 2.97751 -1.97684 0
M  V30 60413 S 5920.95 3.88787 -2.03446 0
M  V30 60414 H 5917.77 0.571518 -0.422951 0
M  V30 60415 H 5920.37 1.06925 -1.63668 0
M  V30 60416 H 5919.07 2.78148 -3.01765 0
M  V30 60417 H 5918.6 3.6233 -1.53234 0
M  V30 60418 H 5920.62 4.82665 -1.15103 0
M  V30 60419 N 5919.79 1.11858 1.1102 0
M  V30 60420 C 5920.72 0.803206 2.19251 0
M  V30 60421 C 5921.7 -0.230357 1.68533 0
M  V30 60422 O 5922.89 -0.0928739 1.93978 0
M  V30 60423 C 5920.02 0.250387 3.46396 0
M  V30 60424 C 5918.97 1.21632 4.10353 0
M  V30 60425 C 5918.3 0.524008 5.32126 0
M  V30 60426 C 5919.6 2.56868 4.5477 0
M  V30 60427 H 5921.29 1.70818 2.45889 0
M  V30 60428 H 5918.84 0.822754 1.18181 0
M  V30 60429 H 5920.79 0.0175214 4.21396 0
M  V30 60430 H 5919.51 -0.689906 3.1923 0
M  V30 60431 H 5918.17 1.43489 3.37352 0
M  V30 60432 H 5917.82 -0.421232 5.01233 0
M  V30 60433 H 5917.52 1.16829 5.75869 0
M  V30 60434 H 5919.04 0.300037 6.09862 0
M  V30 60435 H 5920.46 2.39074 5.21072 0
M  V30 60436 H 5918.86 3.17319 5.09342 0
M  V30 60437 H 5919.93 3.15764 3.67996 0
M  V30 60438 N 5921.27 -1.28704 0.909562 0
M  V30 60439 C 5922.55 -1.90122 0.459652 0
M  V30 60440 C 5922.93 -1.82481 -1.06132 0
M  V30 60441 O 5922.27 -1.25798 -1.90754 0
M  V30 60442 C 5922.48 -3.34803 0.985306 0
M  V30 60443 C 5923.83 -4.11795 1.0349 0
M  V30 60444 O 5924.86 -3.43746 0.933657 0
M  V30 60445 O 5923.71 -5.33422 1.18843 0
M  V30 60446 H 5920.81 -0.814193 0.144976 0
M  V30 60447 H 5923.35 -1.37101 1.00007 0
M  V30 60448 H 5922.13 -3.34568 2.02929 0
M  V30 60449 H 5921.75 -3.95317 0.425468 0
M  V30 60450 N 5922.75 -0.673092 -1.42503 0
M  V30 60451 C 5924 -0.19187 -2.00785 0
M  V30 60452 C 5924.31 1.20809 -1.53833 0
M  V30 60453 O 5925.51 1.78559 -2.04521 0
M  V30 60454 C 5923.97 -0.292171 -3.58712 0
M  V30 60455 C 5923.58 -1.69608 -4.14653 0
M  V30 60456 C 5925.32 0.130426 -4.243 0
M  V30 60457 C 5923.23 -1.74924 -5.64939 0
M  V30 60458 H 5922.16 -0.0679716 -0.75093 0
M  V30 60459 H 5924.81 -0.838025 -1.63246 0
M  V30 60460 H 5923.19 0.421847 -3.93747 0
M  V30 60461 H 5924.37 -2.43704 -3.91082 0
M  V30 60462 H 5922.68 -2.06637 -3.61511 0
M  V30 60463 H 5925.28 0.110832 -5.34585 0
M  V30 60464 H 5925.62 1.16538 -3.99656 0
M  V30 60465 H 5926.15 -0.532525 -3.94219 0
M  V30 60466 H 5922.89 -2.76395 -5.94379 0
M  V30 60467 H 5922.41 -1.0518 -5.90506 0
M  V30 60468 H 5924.09 -1.5019 -6.29327 0
M  V30 60469 N 5924.22 1.52002 -0.416307 0
M  V30 60470 C 5925.17 2.28772 0.420251 0
M  V30 60471 C 5926.17 1.33755 1.03952 0
M  V30 60472 O 5927.37 1.51184 0.976897 0
M  V30 60473 H 5923.75 0.735997 0.154314 0
M  V30 60474 H 5925.72 2.97365 -0.24836 0
M  V30 60475 C 5924.47 3.1268 1.52074 0
M  V30 60476 H 5923.79 3.85668 1.05357 0
M  V30 60477 H 5925.23 3.69489 2.07976 0
M  V30 60478 C 5923.69 2.267 2.49216 0
M  V30 60479 O 5924.22 1.91217 3.53269 0
M  V30 60480 N 5922.43 1.9033 2.19597 0
M  V30 60481 H 5921.97 2.19385 1.35011 0
M  V30 60482 H 5921.93 1.33097 2.84838 0
M  V30 60483 N 5925.7 0.146958 1.56913 0
M  V30 60484 C 5926.61 -0.805797 2.20327 0
M  V30 60485 C 5927.63 -1.27174 1.18755 0
M  V30 60486 O 5928.8 -1.32893 1.51332 0
M  V30 60487 C 5925.87 -2.02745 2.81239 0
M  V30 60488 C 5924.93 -1.61075 3.97936 0
M  V30 60489 C 5924.16 -2.77417 4.55934 0
M  V30 60490 O 5924.39 -3.93629 4.12811 0
M  V30 60491 O 5923.32 -2.52892 5.46195 0
M  V30 60492 H 5927.15 -0.295992 3.02254 0
M  V30 60493 H 5924.73 -0.0800651 1.49185 0
M  V30 60494 H 5926.61 -2.7424 3.19953 0
M  V30 60495 H 5925.29 -2.52679 2.02325 0
M  V30 60496 H 5924.2 -0.866032 3.63938 0
M  V30 60497 H 5925.53 -1.15858 4.7837 0
M  V30 60498 N 5927.18 -1.57089 -0.126826 0
M  V30 60499 C 5928.42 -1.86253 -0.841965 0
M  V30 60500 C 5928.79 -0.73393 -1.77419 0
M  V30 60501 O 5929.99 -0.907139 -2.5303 0
M  V30 60502 C 5928.26 -3.20635 -1.57885 0
M  V30 60503 S 5929.82 -3.71411 -2.33664 0
M  V30 60504 H 5926.63 -0.653044 -0.281167 0
M  V30 60505 H 5929.24 -1.9524 -0.100756 0
M  V30 60506 H 5927.94 -4.00726 -0.885841 0
M  V30 60507 H 5927.47 -3.14706 -2.36059 0
M  V30 60508 H 5929.49 -3.42287 -3.59241 0
M  V30 60509 N 5928.66 0.396782 -1.52523 0
M  V30 60510 C 5929.57 1.50865 -1.79658 0
M  V30 60511 C 5930.59 1.60041 -0.68286 0
M  V30 60512 O 5931.76 1.76523 -0.969612 0
M  V30 60513 C 5928.83 2.86478 -1.95273 0
M  V30 60514 C 5927.89 2.87087 -3.19185 0
M  V30 60515 C 5927.12 4.16232 -3.34046 0
M  V30 60516 O 5927.34 5.10781 -2.53888 0
M  V30 60517 O 5926.28 4.23947 -4.27262 0
M  V30 60518 H 5930.1 1.30868 -2.74057 0
M  V30 60519 H 5927.69 0.58386 -1.37519 0
M  V30 60520 H 5929.57 3.66888 -2.07295 0
M  V30 60521 H 5928.25 3.06517 -1.04063 0
M  V30 60522 H 5927.15 2.05486 -3.12612 0
M  V30 60523 H 5928.49 2.71999 -4.10216 0
M  V30 60524 N 5930.14 1.43355 0.654764 0
M  V30 60525 C 5931.07 1.4436 1.78025 0
M  V30 60526 C 5932.08 0.339928 1.59212 0
M  V30 60527 O 5933.27 0.604266 1.67961 0
M  V30 60528 C 5930.37 1.23924 3.1543 0
M  V30 60529 C 5929.54 2.471 3.60916 0
M  V30 60530 C 5928.6 2.21912 4.77118 0
M  V30 60531 O 5927.63 2.95253 4.86636 0
M  V30 60532 N 5928.83 1.23479 5.67215 0
M  V30 60533 H 5931.6 2.41378 1.77642 0
M  V30 60534 H 5929.16 1.38491 0.838554 0
M  V30 60535 H 5931.15 1.04959 3.90853 0
M  V30 60536 H 5929.72 0.353569 3.10594 0
M  V30 60537 H 5928.94 2.81501 2.75954 0
M  V30 60538 H 5930.23 3.29079 3.88052 0
M  V30 60539 H 5929.63 0.628598 5.62197 0
M  V30 60540 H 5928.18 1.10497 6.42366 0
M  V30 60541 N 5931.62 -0.892985 1.2986 0
M  V30 60542 C 5932.86 -1.64409 1.1822 0
M  V30 60543 C 5933.19 -1.92688 -0.264852 0
M  V30 60544 O 5932.45 -1.54048 -1.20696 0
M  V30 60545 C 5932.74 -2.99654 1.94788 0
M  V30 60546 C 5932.41 -2.90957 3.44463 0
M  V30 60547 C 5931.07 -2.88293 3.8528 0
M  V30 60548 C 5933.42 -2.79671 4.39811 0
M  V30 60549 C 5930.75 -2.7217 5.19751 0
M  V30 60550 C 5933.1 -2.65087 5.74379 0
M  V30 60551 C 5931.77 -2.60792 6.14446 0
M  V30 60552 H 5931.04 -0.601614 0.432598 0
M  V30 60553 H 5933.69 -1.03886 1.60873 0
M  V30 60554 H 5931.99 -3.64082 1.44746 0
M  V30 60555 H 5933.69 -3.56715 1.8318 0
M  V30 60556 H 5930.28 -2.93837 3.12022 0
M  V30 60557 H 5934.46 -2.80802 4.09224 0
M  V30 60558 H 5929.72 -2.67254 5.49896 0
M  V30 60559 H 5933.89 -2.55326 6.47906 0
M  V30 60560 H 5931.52 -2.48057 7.1859 0
M  V30 60561 N 5933.09 -1.12445 -1.10425 0
M  V30 60562 C 5934.34 -0.878085 -1.82028 0
M  V30 60563 C 5934.66 0.597721 -1.85613 0
M  V30 60564 O 5933.93 1.43437 -1.33427 0
M  V30 60565 H 5932.51 -0.321863 -0.674102 0
M  V30 60566 H 5935.17 -1.41895 -1.3361 0
M  V30 60567 H 5934.27 -1.25967 -2.8555 0
M  V30 60568 N 5934.57 1.2822 -0.916375 0
M  V30 60569 C 5935.8 1.98984 -0.566842 0
M  V30 60570 C 5936.21 1.68458 0.852494 0
M  V30 60571 O 5935.57 0.938789 1.56502 0
M  V30 60572 C 5935.62 3.53214 -0.769547 0
M  V30 60573 O 5935.34 3.82666 -2.13303 0
M  V30 60574 C 5936.84 4.41237 -0.427198 0
M  V30 60575 H 5934.06 0.635332 -0.215856 0
M  V30 60576 H 5936.61 1.63352 -1.2303 0
M  V30 60577 H 5934.76 3.87098 -0.153051 0
M  V30 60578 H 5935.18 4.77294 -2.17465 0
M  V30 60579 H 5936.65 5.48509 -0.619787 0
M  V30 60580 H 5937.13 4.3456 0.636708 0
M  V30 60581 H 5937.73 4.12854 -1.02135 0
M  V30 60582 N 5936.05 0.68064 1.42144 0
M  V30 60583 C 5937.29 0.209293 2.03326 0
M  V30 60584 C 5937.65 -1.16414 1.52682 0
M  V30 60585 O 5938.85 -1.73048 2.05689 0
M  V30 60586 C 5937.13 0.248456 3.56535 0
M  V30 60587 S 5938.68 -0.151032 4.3854 0
M  V30 60588 H 5935.5 0.0855204 0.705838 0
M  V30 60589 H 5938.1 0.895094 1.73805 0
M  V30 60590 H 5936.81 1.25029 3.90891 0
M  V30 60591 H 5936.34 -0.456986 3.90737 0
M  V30 60592 H 5938.35 -1.38284 4.76542 0
M  V30 60593 N 5937.53 -1.51779 0.424362 0
M  V30 60594 C 5938.94 -1.86653 -0.041761 0
M  V30 60595 C 5939.29 -1.34229 -1.43098 0
M  V30 60596 O 5938.41 -0.687757 -2.0518 0
M  V30 60597 C 5939.01 -3.38699 -0.0825569 0
M  V30 60598 C 5937.57 -3.73157 -0.493055 0
M  V30 60599 C 5936.72 -2.75416 0.322683 0
M  V30 60600 H 5939.67 -1.45189 0.640777 0
M  V30 60601 H 5939.69 -3.69831 -0.894734 0
M  V30 60602 H 5939.2 -3.76825 0.928668 0
M  V30 60603 H 5937.3 -3.40615 -1.51036 0
M  V30 60604 H 5937.41 -4.78563 -0.226864 0
M  V30 60605 H 5935.78 -2.53772 -0.217173 0
M  V30 60606 H 5936.56 -3.16383 1.33254 0
M  V30 60607 N 5939.01 -0.155278 -1.56833 0
M  V30 60608 C 5939.94 0.812373 -2.1432 0
M  V30 60609 C 5940.95 1.20499 -1.09471 0
M  V30 60610 O 5942.14 1.14762 -1.36718 0
M  V30 60611 C 5939.24 2.1027 -2.65782 0
M  V30 60612 C 5938.41 1.87616 -3.95119 0
M  V30 60613 C 5937.47 3.00715 -4.31807 0
M  V30 60614 O 5936.5 2.72046 -4.9998 0
M  V30 60615 N 5937.7 4.281 -3.92059 0
M  V30 60616 H 5940.46 0.321002 -2.97976 0
M  V30 60617 H 5938.03 0.0280292 -1.61876 0
M  V30 60618 H 5940.02 2.84995 -2.87333 0
M  V30 60619 H 5938.59 2.50645 -1.86804 0
M  V30 60620 H 5937.81 0.968824 -3.82109 0
M  V30 60621 H 5939.1 1.69829 -4.7962 0
M  V30 60622 H 5938.49 4.54258 -3.37145 0
M  V30 60623 H 5937.05 4.9958 -4.18645 0
M  V30 60624 N 5940.48 1.57154 0.118493 0
M  V30 60625 C 5941.43 1.96806 1.15115 0
M  V30 60626 C 5942.42 0.843114 1.37042 0
M  V30 60627 O 5943.61 1.10681 1.38125 0
M  V30 60628 C 5940.74 2.37634 2.4776 0
M  V30 60629 C 5939.82 3.56762 2.29307 0
M  V30 60630 N 5940.22 4.72433 1.80666 0
M  V30 60631 C 5938.51 3.62404 2.5996 0
M  V30 60632 C 5939.21 5.54457 1.75933 0
M  V30 60633 N 5938.19 4.96961 2.20296 0
M  V30 60634 H 5941.99 2.83698 0.767644 0
M  V30 60635 H 5939.51 1.5909 0.326231 0
M  V30 60636 H 5941.5 2.64258 3.22449 0
M  V30 60637 H 5940.16 1.52107 2.86869 0
M  V30 60638 H 5941.17 4.9564 1.50206 0
M  V30 60639 H 5937.85 2.87485 3.02752 0
M  V30 60640 H 5939.24 6.57243 1.39576 0
M  V30 60641 N 5941.96 -0.388688 1.52732 0
M  V30 60642 C 5943.2 -1.14263 1.69479 0
M  V30 60643 C 5943.57 -1.8722 0.425735 0
M  V30 60644 O 5944.77 -2.64667 0.469579 0
M  V30 60645 C 5943.04 -2.09462 2.89587 0
M  V30 60646 S 5944.6 -2.92688 3.26924 0
M  V30 60647 H 5941.42 -0.386786 0.596588 0
M  V30 60648 H 5944.02 -0.427022 1.90779 0
M  V30 60649 H 5942.72 -1.54586 3.80173 0
M  V30 60650 H 5942.25 -2.85531 2.70621 0
M  V30 60651 H 5944.27 -4.11595 2.77136 0
M  V30 60652 N 5943.44 -1.437 -0.647152 0
M  V30 60653 C 5944.86 -1.27234 -0.963518 0
M  V30 60654 C 5945.06 -0.196456 -2.0054 0
M  V30 60655 O 5944.11 0.423074 -2.4893 0
M  V30 60656 C 5945.43 -2.63868 -1.44201 0
M  V30 60657 C 5946.97 -2.71449 -1.55834 0
M  V30 60658 C 5947.45 -4.08516 -2.07073 0
M  V30 60659 N 5948.94 -4.10611 -2.14366 0
M  V30 60660 C 5949.67 -5.13505 -2.55148 0
M  V30 60661 N 5949.17 -6.26769 -2.95181 0
M  V30 60662 N 5950.96 -5.00859 -2.55141 0
M  V30 60663 H 5943.11 -2.12358 0.0421702 0
M  V30 60664 H 5945.38 -0.946991 -0.0437295 0
M  V30 60665 H 5945.08 -3.43592 -0.75084 0
M  V30 60666 H 5944.96 -2.89675 -2.41595 0
M  V30 60667 H 5947.34 -1.92054 -2.24052 0
M  V30 60668 H 5947.43 -2.49401 -0.568573 0
M  V30 60669 H 5947.07 -4.8838 -1.39455 0
M  V30 60670 H 5947 -4.27931 -3.06892 0
M  V30 60671 H 5949.49 -3.28857 -1.86176 0
M  V30 60672 H 5949.8 -7.01108 -3.25066 0
M  V30 60673 H 5948.15 -6.30232 -2.92971 0
M  V30 60674 H 5951.34 -4.11436 -2.23245 0
M  V30 60675 H 5951.51 -5.81175 -2.86601 0
M  V30 60676 N 5944.92 0.886085 -1.30331 0
M  V30 60677 C 5945.87 2.01308 -1.16523 0
M  V30 60678 C 5946.86 1.69223 -0.0774026 0
M  V30 60679 O 5948.07 1.78417 -0.238174 0
M  V30 60680 H 5944.44 0.660047 -0.360335 0
M  V30 60681 H 5946.41 2.10089 -2.11908 0
M  V30 60682 C 5945.16 3.3657 -0.87271 0
M  V30 60683 H 5944.48 3.61769 -1.70185 0
M  V30 60684 H 5945.92 4.1607 -0.816196 0
M  V30 60685 C 5944.38 3.34217 0.424347 0
M  V30 60686 O 5944.91 3.74763 1.44621 0
M  V30 60687 N 5943.12 2.87324 0.435106 0
M  V30 60688 H 5942.67 2.54523 -0.39694 0
M  V30 60689 H 5942.62 2.86133 1.3029 0
M  V30 60690 N 5946.4 1.13029 1.09828 0
M  V30 60691 C 5947.62 0.912525 1.85689 0
M  V30 60692 C 5948.04 -0.538495 1.80958 0
M  V30 60693 O 5947.4 -1.37257 1.20277 0
M  V30 60694 C 5947.45 1.38696 3.33835 0
M  V30 60695 O 5947.17 2.78111 3.38505 0
M  V30 60696 C 5948.67 1.20703 4.26551 0
M  V30 60697 H 5945.89 0.32567 0.586668 0
M  V30 60698 H 5948.43 1.50182 1.388 0
M  V30 60699 H 5946.59 0.84075 3.78167 0
M  V30 60700 H 5947 2.99076 4.30875 0
M  V30 60701 H 5948.48 1.58779 5.28671 0
M  V30 60702 H 5948.95 0.148265 4.3895 0
M  V30 60703 H 5949.56 1.74105 3.8803 0
M  V30 60704 N 5947.87 -1.27732 0.923162 0
M  V30 60705 C 5948.82 -2.26996 0.417334 0
M  V30 60706 C 5949.79 -1.57969 -0.513309 0
M  V30 60707 O 5950.98 -1.85811 -0.433456 0
M  V30 60708 C 5948.12 -3.43538 -0.327968 0
M  V30 60709 C 5947.23 -4.27289 0.636263 0
M  V30 60710 C 5946.36 -5.31045 -0.128428 0
M  V30 60711 C 5945.4 -6.06463 0.828805 0
M  V30 60712 N 5944.54 -7.02033 0.0970326 0
M  V30 60713 H 5949.38 -2.69639 1.26882 0
M  V30 60714 H 5946.92 -1.32595 0.636946 0
M  V30 60715 H 5948.88 -4.09913 -0.77636 0
M  V30 60716 H 5947.51 -3.01859 -1.14372 0
M  V30 60717 H 5946.56 -3.60871 1.20318 0
M  V30 60718 H 5947.87 -4.79674 1.36801 0
M  V30 60719 H 5947.02 -6.03347 -0.636946 0
M  V30 60720 H 5945.76 -4.79451 -0.893172 0
M  V30 60721 H 5944.77 -5.33003 1.34861 0
M  V30 60722 H 5945.99 -6.60145 1.59326 0
M  V30 60723 H 5943.94 -6.52776 -0.64955 0
M  V30 60724 H 5943.86 -7.52084 0.768436 0
M  V30 60725 H 5945.12 -7.78519 -0.390983 0
M  V30 60726 N 5949.35 -0.688168 -1.41782 0
M  V30 60727 C 5950.6 -0.215588 -2.00947 0
M  V30 60728 C 5950.92 1.1865 -1.54748 0
M  V30 60729 O 5950.19 1.79923 -0.774895 0
M  V30 60730 H 5948.77 -0.0767137 -0.74305 0
M  V30 60731 H 5951.43 -0.887671 -1.73512 0
M  V30 60732 H 5950.53 -0.227248 -3.11272 0
M  V30 60733 N 5950.83 1.51552 -0.432405 0
M  V30 60734 C 5952.06 2.06948 0.136922 0
M  V30 60735 C 5952.48 1.29822 1.36117 0
M  V30 60736 O 5951.84 0.334795 1.78182 0
M  V30 60737 C 5951.89 3.57873 0.442659 0
M  V30 60738 O 5950.99 3.82971 1.52993 0
M  V30 60739 H 5950.33 0.663988 0.00402818 0
M  V30 60740 H 5952.86 1.95223 -0.612318 0
M  V30 60741 H 5952.87 4.02045 0.694552 0
M  V30 60742 H 5951.55 4.13435 -0.452159 0
M  V30 60743 H 5950.12 3.50666 1.26838 0
M  V30 60744 N 5952.31 0.163593 1.56749 0
M  V30 60745 C 5953.54 -0.489107 2.00727 0
M  V30 60746 C 5953.95 -1.57865 1.04285 0
M  V30 60747 O 5953.29 -1.83668 0.034508 0
M  V30 60748 C 5953.35 -1.13431 3.41136 0
M  V30 60749 C 5953.02 -0.187364 4.56616 0
M  V30 60750 C 5954.01 0.59135 5.16526 0
M  V30 60751 C 5951.7 -0.0854383 5.02227 0
M  V30 60752 C 5953.69 1.45927 6.20471 0
M  V30 60753 C 5951.38 0.786072 6.06023 0
M  V30 60754 C 5952.38 1.55702 6.65016 0
M  V30 60755 O 5952.06 2.41398 7.668 0
M  V30 60756 H 5951.8 -0.13033 0.663318 0
M  V30 60757 H 5954.35 0.260136 2.03746 0
M  V30 60758 H 5952.58 -1.93153 3.35006 0
M  V30 60759 H 5954.27 -1.68843 3.69116 0
M  V30 60760 H 5955.04 0.522733 4.82175 0
M  V30 60761 H 5950.91 -0.675279 4.56027 0
M  V30 60762 H 5954.46 2.06148 6.66445 0
M  V30 60763 H 5950.36 0.855921 6.398 0
M  V30 60764 H 5951.12 2.34828 7.84091 0
M  V30 60765 N 5953.79 -1.57215 -0.110157 0
M  V30 60766 C 5954.7 -2.04291 -1.15335 0
M  V30 60767 C 5955.71 -0.964946 -1.44792 0
M  V30 60768 O 5956.89 -1.27707 -1.55733 0
M  V30 60769 C 5953.95 -2.44527 -2.4578 0
M  V30 60770 C 5953.01 -3.66447 -2.2364 0
M  V30 60771 C 5952.25 -4.04754 -3.47865 0
M  V30 60772 O 5952.47 -3.43307 -4.55517 0
M  V30 60773 O 5951.4 -4.97802 -3.38344 0
M  V30 60774 H 5955.23 -2.93418 -0.783553 0
M  V30 60775 H 5952.82 -1.45898 -0.321592 0
M  V30 60776 H 5954.7 -2.711 -3.22619 0
M  V30 60777 H 5953.37 -1.58543 -2.82216 0
M  V30 60778 H 5952.28 -3.45011 -1.44631 0
M  V30 60779 H 5953.61 -4.53163 -1.92104 0
M  V30 60780 N 5955.26 0.380583 -1.52936 0
M  V30 60781 C 5956.5 1.13363 -1.70083 0
M  V30 60782 C 5956.87 1.86992 -0.435658 0
M  V30 60783 O 5958.07 2.64414 -0.483608 0
M  V30 60784 C 5956.34 2.07923 -2.90694 0
M  V30 60785 S 5957.9 2.9095 -3.28471 0
M  V30 60786 H 5954.72 0.383617 -0.598631 0
M  V30 60787 H 5957.32 0.416899 -1.91003 0
M  V30 60788 H 5956.02 1.52568 -3.80987 0
M  V30 60789 H 5955.55 2.84092 -2.72131 0
M  V30 60790 H 5957.57 4.10119 -2.79314 0
M  V30 60791 N 5956.74 1.44041 0.639523 0
M  V30 60792 C 5957.99 1.46599 1.4013 0
M  V30 60793 C 5958.32 0.0950328 1.93967 0
M  V30 60794 O 5957.6 -0.88614 1.73141 0
M  V30 60795 C 5957.88 2.51956 2.57274 0
M  V30 60796 C 5957.73 3.98379 2.08841 0
M  V30 60797 C 5959.05 2.53903 3.59473 0
M  V30 60798 H 5956.17 0.533777 0.508184 0
M  V30 60799 H 5958.81 1.75672 0.723836 0
M  V30 60800 H 5956.96 2.27296 3.15069 0
M  V30 60801 H 5958.64 4.34143 1.55941 0
M  V30 60802 H 5956.88 4.10556 1.40094 0
M  V30 60803 H 5957.55 4.67731 2.93141 0
M  V30 60804 H 5960.03 2.75917 3.11463 0
M  V30 60805 H 5958.9 3.29539 4.3897 0
M  V30 60806 H 5959.16 1.57789 4.12983 0
M  V30 60807 N 5958.22 -0.879161 1.308 0
M  V30 60808 C 5959.46 -1.64555 1.21247 0
M  V30 60809 C 5959.83 -1.90642 -0.227919 0
M  V30 60810 O 5961.03 -2.65061 -0.446782 0
M  V30 60811 C 5959.3 -2.94568 2.02396 0
M  V30 60812 S 5960.86 -3.85501 2.09606 0
M  V30 60813 H 5957.67 -0.564717 0.43199 0
M  V30 60814 H 5960.28 -1.04308 1.65349 0
M  V30 60815 H 5958.98 -2.73312 3.06152 0
M  V30 60816 H 5958.51 -3.59846 1.58979 0
M  V30 60817 H 5960.53 -4.80773 1.22767 0
M  V30 60818 N 5959.7 -1.1361 -1.09227 0
M  V30 60819 C 5960.66 -0.818273 -2.14096 0
M  V30 60820 C 5961.66 0.173218 -1.59864 0
M  V30 60821 O 5962.85 -0.0541113 -1.74116 0
M  V30 60822 C 5959.98 -0.218257 -3.40201 0
M  V30 60823 H 5961.18 -1.74757 -2.43721 0
M  V30 60824 H 5958.73 -0.941006 -1.24799 0
M  V30 60825 H 5959.47 0.720158 -3.16203 0
M  V30 60826 H 5959.25 -0.93229 -3.80855 0
M  V30 60827 H 5960.74 -0.0128108 -4.17598 0
M  V30 60828 N 5961.18 1.27241 -0.929923 0
M  V30 60829 C 5962.45 1.89367 -0.48984 0
M  V30 60830 C 5962.83 1.84146 1.03216 0
M  V30 60831 O 5962.18 1.28817 1.88728 0
M  V30 60832 C 5962.39 3.33193 -1.03845 0
M  V30 60833 C 5963.74 4.10096 -1.10028 0
M  V30 60834 O 5964.76 3.42217 -0.988226 0
M  V30 60835 O 5963.62 5.31463 -1.27315 0
M  V30 60836 H 5960.72 0.811784 -0.157911 0
M  V30 60837 H 5963.26 1.35492 -1.02176 0
M  V30 60838 H 5962.04 3.31297 -2.08226 0
M  V30 60839 H 5961.66 3.9459 -0.488305 0
M  V30 60840 N 5962.66 0.695678 1.41415 0
M  V30 60841 C 5963.9 0.226241 2.0083 0
M  V30 60842 C 5964.22 -1.17828 1.55376 0
M  V30 60843 O 5963.49 -1.79509 0.784426 0
M  V30 60844 H 5962.07 0.0806532 0.742633 0
M  V30 60845 H 5964.74 0.89686 1.73039 0
M  V30 60846 H 5963.83 0.243752 3.11147 0
M  V30 60847 N 5964.13 -1.51321 0.440437 0
M  V30 60848 C 5965.38 -2.02114 -0.124991 0
M  V30 60849 C 5965.71 -1.32441 -1.42442 0
M  V30 60850 O 5964.96 -0.429048 -1.90939 0
M  V30 60851 C 5965.26 -3.55288 -0.387954 0
M  V30 60852 C 5964.93 -4.43269 0.826032 0
M  V30 60853 C 5963.59 -4.67035 1.15895 0
M  V30 60854 C 5965.94 -4.94867 1.63574 0
M  V30 60855 C 5963.27 -5.39644 2.3022 0
M  V30 60856 C 5965.62 -5.68729 2.77001 0
M  V30 60857 C 5964.29 -5.90758 3.10743 0
M  V30 60858 H 5963.56 -0.739587 -0.0457375 0
M  V30 60859 H 5966.2 -1.82241 0.588265 0
M  V30 60860 H 5964.51 -3.73509 -1.18314 0
M  V30 60861 H 5966.21 -3.92126 -0.838918 0
M  V30 60862 H 5962.8 -4.2497 0.556618 0
M  V30 60863 H 5966.98 -4.76386 1.39175 0
M  V30 60864 H 5962.24 -5.54914 2.56672 0
M  V30 60865 H 5966.41 -6.07699 3.4011 0
M  V30 60866 H 5964.04 -6.468 3.99442 0
M  V30 60867 N 5965.61 -0.171903 -1.5666 0
M  V30 60868 C 5966.84 0.47915 -2.01275 0
M  V30 60869 C 5967.25 1.56767 -1.05212 0
M  V30 60870 O 5966.61 1.82423 -0.0530806 0
M  V30 60871 C 5966.66 1.05693 -3.45704 0
M  V30 60872 O 5966.38 0.0118593 -4.38098 0
M  V30 60873 C 5967.88 1.78615 -4.05723 0
M  V30 60874 H 5965.1 0.122575 -0.659709 0
M  V30 60875 H 5967.65 -0.273805 -2.02659 0
M  V30 60876 H 5965.8 1.76037 -3.45094 0
M  V30 60877 H 5966.22 0.438531 -5.22664 0
M  V30 60878 H 5967.69 2.14301 -5.08703 0
M  V30 60879 H 5968.17 2.68137 -3.47849 0
M  V30 60880 H 5968.77 1.12911 -4.10038 0
M  V30 60881 N 5967.09 1.57271 0.101818 0
M  V30 60882 C 5968.31 1.90322 0.824148 0
M  V30 60883 C 5968.74 0.76553 1.71817 0
M  V30 60884 O 5968.1 -0.283212 1.79074 0
M  V30 60885 C 5968.15 3.22207 1.61911 0
M  V30 60886 O 5967.25 3.09323 2.72751 0
M  V30 60887 H 5966.59 0.62405 0.226842 0
M  V30 60888 H 5969.12 2.04447 0.0790595 0
M  V30 60889 H 5969.13 3.5535 2.00475 0
M  V30 60890 H 5967.81 4.04599 0.962935 0
M  V30 60891 H 5966.38 2.87681 2.37264 0
M  V30 60892 N 5968.57 -0.372467 1.53135 0
M  V30 60893 C 5969.5 -1.47811 1.7386 0
M  V30 60894 C 5970.48 -1.51643 0.586777 0
M  V30 60895 O 5971.66 -1.698 0.818555 0
M  V30 60896 C 5968.79 -2.86207 1.81117 0
M  V30 60897 C 5967.84 -3.00129 3.03026 0
M  V30 60898 S 5968.67 -2.69601 4.62683 0
M  V30 60899 C 5969.82 -4.10159 4.72779 0
M  V30 60900 H 5970.06 -1.30009 2.67367 0
M  V30 60901 H 5967.59 -0.566379 1.43637 0
M  V30 60902 H 5969.55 -3.65951 1.85984 0
M  V30 60903 H 5968.21 -3.01323 0.886738 0
M  V30 60904 H 5967.4 -4.0147 3.04694 0
M  V30 60905 H 5967 -2.28298 2.96236 0
M  V30 60906 H 5969.3 -5.04312 4.52411 0
M  V30 60907 H 5970.24 -4.135 5.74825 0
M  V30 60908 H 5970.65 -3.96838 4.01472 0
M  V30 60909 N 5970.05 -1.44378 -0.631875 0
M  V30 60910 C 5971.27 -1.50825 -1.42361 0
M  V30 60911 C 5971.7 -0.133924 -1.87623 0
M  V30 60912 O 5971.05 0.876733 -1.58692 0
M  V30 60913 C 5971.1 -2.47708 -2.62056 0
M  V30 60914 O 5970.21 -1.97809 -3.61864 0
M  V30 60915 H 5969.55 -0.509333 -0.426 0
M  V30 60916 H 5972.08 -1.89505 -0.771309 0
M  V30 60917 H 5972.09 -2.65719 -3.09609 0
M  V30 60918 H 5970.76 -3.47534 -2.28458 0
M  V30 60919 H 5969.34 -1.89561 -3.21125 0
M  V30 60920 N 5971.52 0.872212 -1.31264 0
M  V30 60921 C 5972.8 1.60735 -1.11461 0
M  V30 60922 C 5973.18 2.08481 0.331496 0
M  V30 60923 O 5972.53 1.86146 1.32522 0
M  V30 60924 C 5972.74 2.76707 -2.12684 0
M  V30 60925 C 5974.09 3.46725 -2.45086 0
M  V30 60926 O 5975.11 2.86911 -2.11093 0
M  V30 60927 O 5973.97 4.54621 -3.03286 0
M  V30 60928 H 5971.06 0.707055 -0.428954 0
M  V30 60929 H 5973.61 0.917871 -1.42735 0
M  V30 60930 H 5972.38 2.38824 -3.09966 0
M  V30 60931 H 5972.01 3.53343 -1.82302 0
M  V30 60932 N 5973 1.14188 1.08623 0
M  V30 60933 C 5974.42 0.881804 1.33028 0
M  V30 60934 C 5974.62 -0.478245 1.95742 0
M  V30 60935 O 5973.67 -1.223 2.20905 0
M  V30 60936 C 5974.99 2.01282 2.23397 0
M  V30 60937 C 5976.54 2.04586 2.36883 0
M  V30 60938 C 5977.01 3.16974 3.30593 0
M  V30 60939 N 5978.5 3.16538 3.38169 0
M  V30 60940 C 5979.24 4.00139 4.10702 0
M  V30 60941 N 5978.73 4.93774 4.85962 0
M  V30 60942 N 5980.53 3.88208 4.06511 0
M  V30 60943 H 5972.68 2.01789 0.662946 0
M  V30 60944 H 5974.94 0.879164 0.354646 0
M  V30 60945 H 5974.65 2.99386 1.84556 0
M  V30 60946 H 5974.52 1.93405 3.23843 0
M  V30 60947 H 5976.91 1.0709 2.74983 0
M  V30 60948 H 5976.99 2.16534 1.36186 0
M  V30 60949 H 5976.63 4.14715 2.93214 0
M  V30 60950 H 5976.56 3.02263 4.31213 0
M  V30 60951 H 5979.05 2.48718 2.84513 0
M  V30 60952 H 5979.37 5.54034 5.38764 0
M  V30 60953 H 5977.71 4.97773 4.85023 0
M  V30 60954 H 5980.9 3.14378 3.4682 0
M  V30 60955 H 5981.07 4.53588 4.62777 0
M  V30 60956 N 5974.48 -1.26746 0.936658 0
M  V30 60957 C 5975.89 -1.75923 0.625132 0
M  V30 60958 C 5976.24 -1.76362 -0.859709 0
M  V30 60959 O 5975.37 -1.37283 -1.67279 0
M  V30 60960 C 5975.96 -3.1947 1.12802 0
M  V30 60961 C 5974.52 -3.66279 0.867001 0
M  V30 60962 C 5973.67 -2.45909 1.28156 0
M  V30 60963 H 5976.62 -1.12886 1.11546 0
M  V30 60964 H 5976.64 -3.77463 0.479775 0
M  V30 60965 H 5976.15 -3.19119 2.20873 0
M  V30 60966 H 5974.25 -3.72065 -0.199516 0
M  V30 60967 H 5974.37 -4.55314 1.49083 0
M  V30 60968 H 5972.73 -2.44891 0.700027 0
M  V30 60969 H 5973.51 -2.48261 2.3711 0
M  V30 60970 N 5975.96 -0.703167 -1.41044 0
M  V30 60971 C 5977.21 -0.236889 -2.00707 0
M  V30 60972 C 5977.53 1.17002 -1.55998 0
M  V30 60973 O 5976.8 1.79091 -0.793934 0
M  V30 60974 H 5975.38 -0.0845904 -0.742195 0
M  V30 60975 H 5978.04 -0.906024 -1.72561 0
M  V30 60976 H 5977.14 -0.26025 -3.11013 0
M  V30 60977 N 5977.44 1.51085 -0.448455 0
M  V30 60978 C 5978.38 2.28017 0.357358 0
M  V30 60979 C 5979.35 1.32083 1.00714 0
M  V30 60980 O 5980.54 1.60998 1.02393 0
M  V30 60981 C 5977.68 3.13329 1.44633 0
M  V30 60982 C 5976.79 4.2427 0.81358 0
M  V30 60983 C 5975.93 4.96875 1.87854 0
M  V30 60984 C 5974.97 5.99721 1.22481 0
M  V30 60985 N 5974.1 6.6569 2.23162 0
M  V30 60986 H 5978.94 2.96435 -0.305034 0
M  V30 60987 H 5976.48 1.46202 -0.162273 0
M  V30 60988 H 5978.44 3.61126 2.08911 0
M  V30 60989 H 5977.07 2.47003 2.0782 0
M  V30 60990 H 5976.12 3.80355 0.0588076 0
M  V30 60991 H 5977.43 4.97919 0.296412 0
M  V30 60992 H 5976.59 5.48275 2.59767 0
M  V30 60993 H 5975.32 4.22881 2.42946 0
M  V30 60994 H 5974.33 5.47601 0.491195 0
M  V30 60995 H 5975.55 6.75676 0.681077 0
M  V30 60996 H 5973.5 5.94502 2.77314 0
M  V30 60997 H 5973.42 7.3514 1.76368 0
M  V30 60998 H 5974.69 7.21717 2.94525 0
M  V30 60999 N 5978.91 0.180209 1.56566 0
M  V30 61000 C 5980.33 -0.175847 1.58628 0
M  V30 61001 C 5980.53 -1.62175 1.19589 0
M  V30 61002 O 5979.59 -2.35468 0.911649 0
M  V30 61003 C 5980.9 0.113025 3.00488 0
M  V30 61004 C 5982.45 0.051944 3.12957 0
M  V30 61005 C 5982.92 0.313925 4.56923 0
M  V30 61006 N 5984.41 0.262014 4.62458 0
M  V30 61007 C 5985.15 0.438774 5.71719 0
M  V30 61008 N 5984.64 0.675074 6.89503 0
M  V30 61009 N 5986.44 0.374061 5.60854 0
M  V30 61010 H 5978.59 1.12391 1.80228 0
M  V30 61011 H 5980.85 0.447488 0.835738 0
M  V30 61012 H 5980.56 1.11499 3.33558 0
M  V30 61013 H 5980.43 -0.591278 3.72537 0
M  V30 61014 H 5982.82 -0.940613 2.79708 0
M  V30 61015 H 5982.9 0.789096 2.43325 0
M  V30 61016 H 5982.54 1.30373 4.90882 0
M  V30 61017 H 5982.47 -0.443942 5.24725 0
M  V30 61018 H 5984.96 0.0853841 3.77804 0
M  V30 61019 H 5985.28 0.799161 7.68657 0
M  V30 61020 H 5983.62 0.711794 6.91345 0
M  V30 61021 H 5986.81 0.189979 4.67714 0
M  V30 61022 H 5986.99 0.515239 6.45948 0
M  V30 61023 N 5980.39 -1.57323 -0.0934766 0
M  V30 61024 C 5981.63 -1.87997 -0.802269 0
M  V30 61025 C 5982 -0.771398 -1.75822 0
M  V30 61026 O 5983.2 -0.960607 -2.51049 0
M  V30 61027 C 5981.47 -3.23912 -1.51049 0
M  V30 61028 S 5983.03 -3.76284 -2.25734 0
M  V30 61029 H 5979.85 -0.658861 -0.267251 0
M  V30 61030 H 5982.45 -1.9541 -0.05932 0
M  V30 61031 H 5981.15 -4.02514 -0.800642 0
M  V30 61032 H 5980.68 -3.19642 -2.2933 0
M  V30 61033 H 5982.7 -3.4983 -3.519 0
M  V30 61034 N 5981.87 0.364341 -1.53331 0
M  V30 61035 C 5982.83 1.4292 -1.79183 0
M  V30 61036 C 5983.83 1.46528 -0.662287 0
M  V30 61037 O 5985.02 1.47267 -0.930494 0
M  V30 61038 C 5982.16 2.82028 -1.91502 0
M  V30 61039 H 5983.35 1.21271 -2.74287 0
M  V30 61040 H 5980.9 0.597545 -1.44427 0
M  V30 61041 H 5981.64 3.08989 -0.984688 0
M  V30 61042 H 5981.42 2.80808 -2.73659 0
M  V30 61043 H 5982.91 3.59141 -2.13091 0
M  V30 61044 N 5983.35 1.44711 0.624209 0
M  V30 61045 C 5984.31 1.51744 1.71775 0
M  V30 61046 C 5985.31 0.3987 1.55779 0
M  V30 61047 O 5986.5 0.661582 1.61148 0
M  V30 61048 C 5983.63 1.39802 3.10915 0
M  V30 61049 H 5984.83 2.4916 1.66911 0
M  V30 61050 H 5982.38 1.31906 0.838484 0
M  V30 61051 H 5983.11 0.435068 3.21368 0
M  V30 61052 H 5982.9 2.20931 3.23932 0
M  V30 61053 H 5984.39 1.4772 3.906 0
M  V30 61054 N 5984.83 -0.865239 1.31725 0
M  V30 61055 C 5985.74 -2.00538 1.21745 0
M  V30 61056 C 5986.75 -1.7349 0.133185 0
M  V30 61057 O 5987.93 -1.98302 0.351879 0
M  V30 61058 C 5984.99 -3.33989 0.930163 0
M  V30 61059 C 5984.05 -3.7433 2.1018 0
M  V30 61060 C 5983.29 -5.01413 1.82813 0
M  V30 61061 O 5983.51 -5.65239 0.765544 0
M  V30 61062 O 5982.44 -5.38633 2.68623 0
M  V30 61063 H 5986.27 -2.11891 2.17568 0
M  V30 61064 H 5983.86 -0.994274 1.1151 0
M  V30 61065 H 5985.74 -4.14005 0.785992 0
M  V30 61066 H 5984.41 -3.237 0.00200022 0
M  V30 61067 H 5983.32 -2.94935 2.3014 0
M  V30 61068 H 5984.65 -3.89251 3.01238 0
M  V30 61069 N 5986.31 -1.14762 -1.08016 0
M  V30 61070 C 5987.55 -0.916498 -1.80124 0
M  V30 61071 C 5987.87 0.558215 -1.86839 0
M  V30 61072 O 5987.14 1.40575 -1.36439 0
M  V30 61073 H 5985.72 -0.336089 -0.667123 0
M  V30 61074 H 5988.39 -1.44698 -1.3057 0
M  V30 61075 H 5987.48 -1.31996 -2.82814 0
M  V30 61076 N 5987.78 1.26247 -0.943366 0
M  V30 61077 C 5989.01 1.98275 -0.608411 0
M  V30 61078 C 5989.43 1.69759 0.810149 0
M  V30 61079 O 5988.79 0.946901 1.54608 0
M  V30 61080 C 5988.84 3.50202 -0.859714 0
M  V30 61081 O 5987.94 4.12345 0.0670921 0
M  V30 61082 H 5987.28 0.621965 -0.232499 0
M  V30 61083 H 5989.81 1.60658 -1.26689 0
M  V30 61084 H 5989.82 4.00446 -0.781482 0
M  V30 61085 H 5988.5 3.70288 -1.89367 0
M  V30 61086 H 5987.08 3.72848 -0.0623854 0
M  V30 61087 N 5989.26 0.710637 1.40669 0
M  V30 61088 C 5990.49 0.256079 2.05813 0
M  V30 61089 C 5990.91 -1.09172 1.53176 0
M  V30 61090 O 5990.27 -1.68662 0.665036 0
M  V30 61091 C 5990.32 0.240655 3.59796 0
M  V30 61092 O 5989.42 -0.779717 4.04962 0
M  V30 61093 H 5988.76 0.121349 0.652817 0
M  V30 61094 H 5991.29 0.96973 1.80159 0
M  V30 61095 H 5991.3 0.0766461 4.07928 0
M  V30 61096 H 5989.98 1.22425 3.97473 0
M  V30 61097 H 5988.55 -0.583836 3.68301 0
M  V30 61098 N 5990.74 -1.50845 0.456461 0
M  V30 61099 C 5992.15 -1.867 -0.00215969 0
M  V30 61100 C 5992.5 -1.37234 -1.40219 0
M  V30 61101 O 5991.63 -0.731124 -2.03675 0
M  V30 61102 C 5992.22 -3.38798 -0.0106951 0
M  V30 61103 C 5990.78 -3.74119 -0.413792 0
M  V30 61104 C 5989.93 -2.7467 0.38103 0
M  V30 61105 H 5992.88 -1.43797 0.67143 0
M  V30 61106 H 5992.9 -3.71645 -0.816087 0
M  V30 61107 H 5992.41 -3.74771 1.00839 0
M  V30 61108 H 5990.51 -3.43742 -1.43777 0
M  V30 61109 H 5990.63 -4.78936 -0.125303 0
M  V30 61110 H 5988.99 -2.54176 -0.163295 0
M  V30 61111 H 5989.77 -3.13485 1.39935 0
M  V30 61112 N 5992.22 -0.188509 -1.56469 0
M  V30 61113 C 5993.15 0.730301 -2.21786 0
M  V30 61114 C 5994.13 1.22625 -1.17886 0
M  V30 61115 O 5995.31 1.27629 -1.46371 0
M  V30 61116 C 5992.44 1.95268 -2.87206 0
M  V30 61117 C 5991.4 1.59191 -3.97294 0
M  V30 61118 C 5990.72 2.89036 -4.49847 0
M  V30 61119 C 5992.02 0.806846 -5.1603 0
M  V30 61120 H 5993.72 0.185809 -2.98823 0
M  V30 61121 H 5991.26 0.0879299 -1.43731 0
M  V30 61122 H 5993.22 2.60062 -3.31581 0
M  V30 61123 H 5991.94 2.5216 -2.07564 0
M  V30 61124 H 5990.6 0.967589 -3.536 0
M  V30 61125 H 5990.25 3.44004 -3.66975 0
M  V30 61126 H 5989.95 2.65645 -5.24125 0
M  V30 61127 H 5991.47 3.5483 -4.96919 0
M  V30 61128 H 5992.89 1.35774 -5.5699 0
M  V30 61129 H 5991.28 0.671307 -5.96333 0
M  V30 61130 H 5992.35 -0.193422 -4.84514 0
M  V30 61131 N 5993.7 1.5737 0.0851321 0
M  V30 61132 C 5994.63 2.058 1.10312 0
M  V30 61133 C 5995.61 0.948845 1.41177 0
M  V30 61134 O 5996.79 1.22074 1.51035 0
M  V30 61135 C 5993.92 2.49078 2.42028 0
M  V30 61136 C 5992.88 3.63747 2.25548 0
M  V30 61137 C 5992.2 3.93036 3.62529 0
M  V30 61138 C 5993.5 4.94279 1.68775 0
M  V30 61139 H 5995.2 2.91098 0.700172 0
M  V30 61140 H 5992.74 1.40041 0.335356 0
M  V30 61141 H 5994.69 2.81569 3.13524 0
M  V30 61142 H 5993.42 1.60791 2.84277 0
M  V30 61143 H 5992.08 3.31519 1.56496 0
M  V30 61144 H 5991.73 3.01901 4.02324 0
M  V30 61145 H 5991.43 4.70241 3.52345 0
M  V30 61146 H 5992.95 4.2801 4.35476 0
M  V30 61147 H 5994.36 5.25087 2.30122 0
M  V30 61148 H 5992.76 5.75716 1.69324 0
M  V30 61149 H 5993.83 4.8055 0.648035 0
M  V30 61150 N 5995.17 -0.356204 1.53522 0
M  V30 61151 C 5996.1 -1.44265 1.83603 0
M  V30 61152 C 5997.08 -1.55468 0.690195 0
M  V30 61153 O 5998.27 -1.69883 0.940928 0
M  V30 61154 C 5995.4 -2.81483 2.03432 0
M  V30 61155 C 5994.35 -2.85097 3.19223 0
M  V30 61156 C 5993.68 -4.2508 3.24362 0
M  V30 61157 C 5994.98 -2.51772 4.57611 0
M  V30 61158 H 5996.67 -1.1934 2.74587 0
M  V30 61159 H 5994.22 -0.57266 1.32123 0
M  V30 61160 H 5996.17 -3.57523 2.23059 0
M  V30 61161 H 5994.9 -3.07816 1.09166 0
M  V30 61162 H 5993.56 -2.11509 2.99432 0
M  V30 61163 H 5993.2 -4.48502 2.27716 0
M  V30 61164 H 5992.9 -4.28412 4.02165 0
M  V30 61165 H 5994.43 -5.0298 3.46185 0
M  V30 61166 H 5995.84 -3.17525 4.77337 0
M  V30 61167 H 5994.24 -2.66407 5.37724 0
M  V30 61168 H 5995.31 -1.46993 4.62083 0
M  V30 61169 N 5996.65 -1.4504 -0.616526 0
M  V30 61170 C 5997.58 -1.55864 -1.73863 0
M  V30 61171 C 5998.56 -0.410715 -1.65067 0
M  V30 61172 O 5999.75 -0.632717 -1.83604 0
M  V30 61173 C 5996.88 -1.51646 -3.12443 0
M  V30 61174 C 5995.83 -2.65065 -3.36042 0
M  V30 61175 C 5995.16 -2.459 -4.74802 0
M  V30 61176 C 5996.46 -4.07132 -3.27171 0
M  V30 61177 H 5998.15 -2.4979 -1.65062 0
M  V30 61178 H 5995.7 -1.20219 -0.792682 0
M  V30 61179 H 5997.65 -1.57817 -3.90732 0
M  V30 61180 H 5996.37 -0.542455 -3.22064 0
M  V30 61181 H 5995.03 -2.58308 -2.6014 0
M  V30 61182 H 5994.68 -1.46658 -4.81145 0
M  V30 61183 H 5994.38 -3.21952 -4.91549 0
M  V30 61184 H 5995.91 -2.53911 -5.55303 0
M  V30 61185 H 5997.32 -4.1518 -3.95346 0
M  V30 61186 H 5995.72 -4.83504 -3.55449 0
M  V30 61187 H 5996.79 -4.29671 -2.24747 0
M  V30 61188 N 5998.13 0.858241 -1.32182 0
M  V30 61189 C 5999.54 1.42806 -1.20264 0
M  V30 61190 C 5999.89 1.95314 0.186264 0
M  V30 61191 O 5999.02 1.87248 1.08477 0
M  V30 61192 C 5999.61 2.59582 -2.17722 0
M  V30 61193 C 5998.17 3.12573 -2.09702 0
M  V30 61194 C 5997.32 1.8531 -2.0629 0
M  V30 61195 H 6000.27 0.665719 -1.44062 0
M  V30 61196 H 6000.29 3.36633 -1.77366 0
M  V30 61197 H 5999.8 2.21335 -3.18799 0
M  V30 61198 H 5997.9 3.55412 -1.11861 0
M  V30 61199 H 5998.02 3.7406 -2.99359 0
M  V30 61200 H 5996.38 2.04761 -1.51476 0
M  V30 61201 H 5997.16 1.49285 -3.09142 0
M  V30 61202 N 5999.61 1.15334 1.07405 0
M  V30 61203 C 6000.88 0.838403 1.76721 0
M  V30 61204 C 6001.26 -0.666099 2.00316 0
M  V30 61205 O 6000.61 -1.61028 1.62118 0
M  V30 61206 C 6000.82 1.64857 3.07609 0
M  V30 61207 C 6002.17 1.85442 3.81964 0
M  V30 61208 O 6003.19 1.61628 3.17419 0
M  V30 61209 O 6002.05 2.25322 4.97888 0
M  V30 61210 H 5999.15 0.308269 0.767398 0
M  V30 61211 H 6001.69 1.25909 1.13776 0
M  V30 61212 H 6000.47 2.67005 2.86049 0
M  V30 61213 H 6000.09 1.22418 3.78285 0
M  V30 61214 N 6001.09 -1.25745 0.950048 0
M  V30 61215 C 6002.03 -2.28054 0.457622 0
M  V30 61216 C 6003.03 -1.62757 -0.469719 0
M  V30 61217 O 6004.23 -1.76625 -0.346954 0
M  V30 61218 H 6000.61 -0.74077 0.129473 0
M  V30 61219 H 6002.58 -2.66979 1.33285 0
M  V30 61220 C 6001.33 -3.46775 -0.253478 0
M  V30 61221 H 6000.65 -3.97249 0.450948 0
M  V30 61222 H 6002.09 -4.20257 -0.562117 0
M  V30 61223 C 6000.55 -3.02925 -1.47439 0
M  V30 61224 O 6001.08 -3.08536 -2.57232 0
M  V30 61225 N 5999.29 -2.58167 -1.3341 0
M  V30 61226 H 5998.83 -2.538 -0.440805 0
M  V30 61227 H 5998.79 -2.29191 -2.15218 0
M  V30 61228 N 6002.56 -0.718087 -1.4029 0
M  V30 61229 C 6003.81 -0.259057 -2.01139 0
M  V30 61230 C 6004.14 1.14555 -1.56815 0
M  V30 61231 O 6003.42 1.77763 -0.789339 0
M  V30 61232 C 6003.7 -0.341904 -3.58473 0
M  V30 61233 C 6003.55 -1.78506 -4.12863 0
M  V30 61234 C 6004.87 0.285468 -4.39173 0
M  V30 61235 H 6001.99 -0.0956063 -0.730772 0
M  V30 61236 H 6004.63 -0.911059 -1.66732 0
M  V30 61237 H 6002.78 0.213218 -3.87914 0
M  V30 61238 H 6004.46 -2.39576 -3.94209 0
M  V30 61239 H 6002.7 -2.31196 -3.67057 0
M  V30 61240 H 6003.37 -1.79441 -5.2202 0
M  V30 61241 H 6005.85 -0.187557 -4.15677 0
M  V30 61242 H 6004.72 0.197067 -5.48546 0
M  V30 61243 H 6004.98 1.36932 -4.20359 0
M  V30 61244 N 6004.04 1.50601 -0.464455 0
M  V30 61245 C 6005.46 1.59161 -0.118229 0
M  V30 61246 C 6005.66 1.47318 1.37476 0
M  V30 61247 O 6004.71 1.32826 2.1474 0
M  V30 61248 C 6006.03 2.93311 -0.662514 0
M  V30 61249 C 6007.58 3.06689 -0.625352 0
M  V30 61250 C 6008.05 4.43403 -1.14707 0
M  V30 61251 N 6009.54 4.49797 -1.1062 0
M  V30 61252 C 6010.28 5.53959 -1.48045 0
M  V30 61253 N 6009.77 6.65407 -1.92888 0
M  V30 61254 N 6011.57 5.44466 -1.3969 0
M  V30 61255 H 6003.72 1.56543 -1.43555 0
M  V30 61256 H 6005.98 0.739431 -0.593251 0
M  V30 61257 H 6005.69 3.07433 -1.70815 0
M  V30 61258 H 6005.56 3.77061 -0.102384 0
M  V30 61259 H 6007.95 2.92219 0.411364 0
M  V30 61260 H 6008.03 2.24713 -1.22221 0
M  V30 61261 H 6007.67 4.58622 -2.18238 0
M  V30 61262 H 6007.6 5.23961 -0.52649 0
M  V30 61263 H 6010.09 3.69821 -0.77722 0
M  V30 61264 H 6010.41 7.40939 -2.19611 0
M  V30 61265 H 6008.75 6.66544 -1.96836 0
M  V30 61266 H 6011.94 4.56286 -1.04503 0
M  V30 61267 H 6012.11 6.25525 -1.69183 0
M  V30 61268 N 6005.52 0.196805 1.56366 0
M  V30 61269 C 6006.77 -0.441738 1.96803 0
M  V30 61270 C 6007.08 -1.62641 1.08661 0
M  V30 61271 O 6008.29 -2.33286 1.38888 0
M  V30 61272 C 6006.74 -0.837292 3.50025 0
M  V30 61273 C 6006.35 0.323188 4.46833 0
M  V30 61274 C 6008.1 -1.44282 3.99228 0
M  V30 61275 C 6006 -0.0934206 5.91326 0
M  V30 61276 H 6004.93 -0.168808 0.73486 0
M  V30 61277 H 6007.58 0.289093 1.81208 0
M  V30 61278 H 6005.97 -1.62484 3.6113 0
M  V30 61279 H 6007.14 1.10072 4.4746 0
M  V30 61280 H 6005.46 0.840326 4.07833 0
M  V30 61281 H 6008.05 -1.767 5.04659 0
M  V30 61282 H 6008.4 -2.34991 3.43635 0
M  V30 61283 H 6008.93 -0.719212 3.91244 0
M  V30 61284 H 6005.67 0.779525 6.50848 0
M  V30 61285 H 6005.19 -0.835775 5.93949 0
M  V30 61286 H 6006.87 -0.528638 6.44837 0
M  V30 61287 N 6007 -1.57413 -0.0767852 0
M  V30 61288 C 6008.41 -1.53658 -0.431454 0
M  V30 61289 C 6008.61 -0.916257 -1.79463 0
M  V30 61290 O 6007.67 -0.516616 -2.47159 0
M  V30 61291 C 6008.98 -2.98326 -0.377107 0
M  V30 61292 C 6010.53 -3.09636 -0.457652 0
M  V30 61293 C 6011.01 -4.55946 -0.433264 0
M  V30 61294 N 6012.5 -4.60564 -0.493485 0
M  V30 61295 C 6013.23 -5.71244 -0.496749 0
M  V30 61296 N 6012.73 -6.91303 -0.455125 0
M  V30 61297 N 6014.52 -5.59472 -0.542933 0
M  V30 61298 H 6006.67 -1.96105 0.81588 0
M  V30 61299 H 6008.94 -0.897382 0.305631 0
M  V30 61300 H 6008.64 -3.47249 0.55775 0
M  V30 61301 H 6008.52 -3.57964 -1.1892 0
M  V30 61302 H 6010.9 -2.6069 -1.38293 0
M  V30 61303 H 6010.98 -2.52918 0.382918 0
M  V30 61304 H 6010.63 -5.05549 0.488146 0
M  V30 61305 H 6010.56 -5.10522 -1.2913 0
M  V30 61306 H 6013.05 -3.74163 -0.530106 0
M  V30 61307 H 6013.36 -7.71421 -0.461403 0
M  V30 61308 H 6011.71 -6.93718 -0.421889 0
M  V30 61309 H 6014.9 -4.64578 -0.573108 0
M  V30 61310 H 6015.07 -6.45729 -0.542007 0
M  V30 61311 N 6008.48 0.348057 -1.53709 0
M  V30 61312 C 6009.42 1.42723 -1.8138 0
M  V30 61313 C 6010.39 1.52459 -0.659213 0
M  V30 61314 O 6011.58 1.68069 -0.903189 0
M  V30 61315 C 6008.72 2.79436 -2.02508 0
M  V30 61316 C 6007.83 2.78528 -3.30221 0
M  V30 61317 C 6006.97 4.0693 -3.41441 0
M  V30 61318 C 6006.01 4.00232 -4.63121 0
M  V30 61319 N 6005.14 5.20316 -4.71398 0
M  V30 61320 H 6009.98 1.18426 -2.73458 0
M  V30 61321 H 6007.52 0.573762 -1.35449 0
M  V30 61322 H 6009.48 3.5888 -2.12746 0
M  V30 61323 H 6008.11 3.02095 -1.13748 0
M  V30 61324 H 6007.16 1.91216 -3.28848 0
M  V30 61325 H 6008.47 2.69456 -4.19756 0
M  V30 61326 H 6007.63 4.94796 -3.51086 0
M  V30 61327 H 6006.36 4.18777 -2.49954 0
M  V30 61328 H 6005.37 3.10751 -4.53557 0
M  V30 61329 H 6006.59 3.89971 -5.55967 0
M  V30 61330 H 6004.54 5.32716 -3.82819 0
M  V30 61331 H 6004.46 5.13482 -5.54862 0
M  V30 61332 H 6005.73 6.09965 -4.85348 0
M  V30 61333 N 6009.95 1.45365 0.608825 0
M  V30 61334 C 6011.18 1.52619 1.39251 0
M  V30 61335 C 6011.59 0.157173 1.88546 0
M  V30 61336 O 6010.94 -0.851272 1.62785 0
M  V30 61337 C 6011 2.4483 2.63246 0
M  V30 61338 C 6010.66 3.9159 2.35598 0
M  V30 61339 C 6011.66 4.81524 1.96037 0
M  V30 61340 C 6009.34 4.36496 2.48548 0
M  V30 61341 C 6011.34 6.14371 1.69786 0
M  V30 61342 C 6009.02 5.69385 2.21911 0
M  V30 61343 C 6010.02 6.58141 1.82591 0
M  V30 61344 O 6009.71 7.88566 1.56264 0
M  V30 61345 H 6009.44 0.519365 0.432707 0
M  V30 61346 H 6012 1.91229 0.749701 0
M  V30 61347 H 6010.23 2.01189 3.30242 0
M  V30 61348 H 6011.92 2.42782 3.25287 0
M  V30 61349 H 6012.68 4.48095 1.8557 0
M  V30 61350 H 6008.56 3.67655 2.7812 0
M  V30 61351 H 6012.1 6.83607 1.39021 0
M  V30 61352 H 6008 6.02369 2.31995 0
M  V30 61353 H 6008.77 8.00582 1.70327 0
M  V30 61354 N 6011.43 -0.851219 1.32635 0
M  V30 61355 C 6012.38 -1.98148 1.2182 0
M  V30 61356 C 6013.37 -1.68958 0.122242 0
M  V30 61357 O 6014.58 -1.77723 0.285395 0
M  V30 61358 H 6010.96 -0.650262 0.377709 0
M  V30 61359 H 6012.93 -2.04397 2.17404 0
M  V30 61360 C 6011.68 -3.34137 0.961639 0
M  V30 61361 H 6011 -3.5713 1.79717 0
M  V30 61362 H 6012.44 -4.1376 0.926222 0
M  V30 61363 C 6010.9 -3.35224 -0.335586 0
M  V30 61364 O 6011.43 -3.78466 -1.34634 0
M  V30 61365 N 6009.63 -2.88377 -0.358774 0
M  V30 61366 H 6009.18 -2.53381 0.464283 0
M  V30 61367 H 6009.14 -2.89487 -1.22658 0
M  V30 61368 N 6012.91 -1.15902 -1.06792 0
M  V30 61369 C 6013.84 -0.884026 -2.16119 0
M  V30 61370 C 6014.82 0.167649 -1.69272 0
M  V30 61371 O 6016.01 0.0208163 -1.94189 0
M  V30 61372 C 6013.14 -0.378777 -3.45228 0
M  V30 61373 C 6012.09 -1.36778 -4.05556 0
M  V30 61374 C 6011.42 -0.721142 -5.29815 0
M  V30 61375 C 6012.72 -2.7357 -4.44924 0
M  V30 61376 H 6014.41 -1.79827 -2.3938 0
M  V30 61377 H 6011.96 -0.866049 -1.15046 0
M  V30 61378 H 6013.91 -0.173908 -4.21041 0
M  V30 61379 H 6012.63 0.57095 -3.21571 0
M  V30 61380 H 6011.29 -1.55911 -3.31794 0
M  V30 61381 H 6010.94 0.234912 -5.02451 0
M  V30 61382 H 6010.64 -1.38122 -5.71136 0
M  V30 61383 H 6012.16 -0.526177 -6.08329 0
M  V30 61384 H 6013.58 -2.58249 -5.1184 0
M  V30 61385 H 6011.98 -3.36004 -4.97214 0
M  V30 61386 H 6013.05 -3.29205 -3.56023 0
M  V30 61387 N 6014.39 1.2524 -0.956703 0
M  V30 61388 C 6015.61 1.97619 -0.629406 0
M  V30 61389 C 6016.04 1.70609 0.792098 0
M  V30 61390 O 6015.4 0.963246 1.53594 0
M  V30 61391 C 6015.44 3.4927 -0.89681 0
M  V30 61392 O 6014.55 4.12393 0.0233536 0
M  V30 61393 H 6013.89 0.619464 -0.239083 0
M  V30 61394 H 6016.42 1.59305 -1.28386 0
M  V30 61395 H 6016.43 3.99594 -0.82391 0
M  V30 61396 H 6015.1 3.68258 -1.93284 0
M  V30 61397 H 6013.68 3.72761 -0.101927 0
M  V30 61398 N 6015.87 0.725517 1.39907 0
M  V30 61399 C 6017.09 0.277894 2.0553 0
M  V30 61400 C 6017.52 -1.07541 1.54326 0
M  V30 61401 O 6016.88 -1.67947 0.682887 0
M  V30 61402 C 6016.92 0.278802 3.59521 0
M  V30 61403 O 6016.03 -0.736722 4.05766 0
M  V30 61404 H 6015.37 0.128266 0.651494 0
M  V30 61405 H 6017.9 0.988784 1.79121 0
M  V30 61406 H 6017.91 0.119908 4.07824 0
M  V30 61407 H 6016.58 1.26634 3.96152 0
M  V30 61408 H 6015.16 -0.54474 3.689 0
M  V30 61409 N 6017.35 -1.50352 0.472435 0
M  V30 61410 C 6018.26 -2.32319 -0.326323 0
M  V30 61411 C 6019.27 -1.42763 -0.994721 0
M  V30 61412 O 6020.45 -1.75815 -0.982398 0
M  V30 61413 C 6017.51 -3.17473 -1.39326 0
M  V30 61414 C 6016.57 -4.22851 -0.741317 0
M  V30 61415 C 6015.81 -5.03935 -1.75741 0
M  V30 61416 O 6016.03 -4.86116 -2.98408 0
M  V30 61417 O 6014.96 -5.87056 -1.3285 0
M  V30 61418 H 6018.79 -3.01748 0.343808 0
M  V30 61419 H 6016.37 -1.47552 0.234259 0
M  V30 61420 H 6018.26 -3.70307 -2.01123 0
M  V30 61421 H 6016.93 -2.50772 -2.04683 0
M  V30 61422 H 6015.84 -3.74005 -0.0843533 0
M  V30 61423 H 6017.17 -4.92027 -0.130665 0
M  V30 61424 N 6018.82 -0.205094 -1.5626 0
M  V30 61425 C 6020.24 0.150588 -1.58888 0
M  V30 61426 C 6020.44 1.60252 -1.22154 0
M  V30 61427 O 6019.5 2.33988 -0.948994 0
M  V30 61428 C 6020.81 -0.160816 -3.0027 0
M  V30 61429 C 6022.36 -0.101726 -3.12835 0
M  V30 61430 C 6022.83 -0.386577 -4.56366 0
M  V30 61431 N 6024.32 -0.335554 -4.61983 0
M  V30 61432 C 6025.06 -0.529674 -5.70948 0
M  V30 61433 N 6024.55 -0.784683 -6.88342 0
M  V30 61434 N 6026.35 -0.463241 -5.60188 0
M  V30 61435 H 6018.5 -1.15244 -1.78417 0
M  V30 61436 H 6020.76 -0.460727 -0.828513 0
M  V30 61437 H 6020.47 -1.16792 -3.31742 0
M  V30 61438 H 6020.34 0.531936 -3.7343 0
M  V30 61439 H 6022.73 0.895994 -2.81169 0
M  V30 61440 H 6022.81 -0.827707 -2.42039 0
M  V30 61441 H 6022.45 -1.38166 -4.88746 0
M  V30 61442 H 6022.38 0.360407 -5.25365 0
M  V30 61443 H 6024.87 -0.145479 -3.7762 0
M  V30 61444 H 6025.19 -0.921346 -7.67288 0
M  V30 61445 H 6023.53 -0.821691 -6.90126 0
M  V30 61446 H 6026.72 -0.264364 -4.67353 0
M  V30 61447 H 6026.9 -0.617939 -6.45047 0
M  V30 61448 N 6020.3 1.57451 0.0684361 0
M  V30 61449 C 6021.55 1.87414 0.766954 0
M  V30 61450 C 6021.88 0.797281 1.77408 0
M  V30 61451 O 6021.13 -0.206356 1.94609 0
M  V30 61452 C 6021.43 3.24049 1.50754 0
M  V30 61453 C 6021.1 4.46334 0.640082 0
M  V30 61454 C 6019.76 4.79526 0.401036 0
M  V30 61455 C 6022.11 5.21186 0.0387643 0
M  V30 61456 C 6019.44 5.84981 -0.448753 0
M  V30 61457 C 6021.79 6.2754 -0.798498 0
M  V30 61458 C 6020.45 6.59231 -1.04738 0
M  V30 61459 H 6019.72 0.685797 0.280648 0
M  V30 61460 H 6022.37 1.9148 0.027647 0
M  V30 61461 H 6020.68 3.1579 2.31914 0
M  V30 61462 H 6022.37 3.44468 2.05287 0
M  V30 61463 H 6018.96 4.20357 0.836527 0
M  V30 61464 H 6023.15 4.95853 0.210554 0
M  V30 61465 H 6018.4 6.07932 -0.65029 0
M  V30 61466 H 6022.58 6.847 -1.27116 0
M  V30 61467 H 6020.2 7.40773 -1.70763 0
M  V30 61468 N 6021.78 -0.339901 1.53891 0
M  V30 61469 C 6023 -1.10411 1.75568 0
M  V30 61470 C 6023.43 -1.81464 0.49522 0
M  V30 61471 O 6022.79 -1.72681 -0.552355 0
M  V30 61472 C 6022.84 -2.09046 2.93823 0
M  V30 61473 O 6021.94 -3.16636 2.64226 0
M  V30 61474 H 6021.28 -0.319143 0.582275 0
M  V30 61475 H 6023.81 -0.38918 2.00865 0
M  V30 61476 H 6023.82 -2.52203 3.20714 0
M  V30 61477 H 6022.5 -1.56727 3.85239 0
M  V30 61478 H 6021.07 -2.78269 2.48235 0
M  V30 61479 N 6023.26 -1.45686 -0.601108 0
M  V30 61480 C 6024.17 -1.57402 -1.73959 0
M  V30 61481 C 6025.18 -0.458192 -1.67859 0
M  V30 61482 O 6026.36 -0.719783 -1.88099 0
M  V30 61483 C 6023.42 -1.54374 -3.10435 0
M  V30 61484 C 6022.49 -2.77045 -3.27939 0
M  V30 61485 C 6021.72 -2.74152 -4.57904 0
M  V30 61486 O 6021.94 -1.81848 -5.40636 0
M  V30 61487 O 6020.88 -3.65445 -4.78261 0
M  V30 61488 H 6024.7 -2.53646 -1.67025 0
M  V30 61489 H 6022.29 -1.2827 -0.765972 0
M  V30 61490 H 6024.17 -1.55316 -3.91733 0
M  V30 61491 H 6022.84 -0.612835 -3.17846 0
M  V30 61492 H 6021.75 -2.81663 -2.46204 0
M  V30 61493 H 6023.08 -3.69283 -3.25409 0
M  V30 61494 N 6024.74 0.844173 -1.33084 0
M  V30 61495 C 6025.97 1.62892 -1.27082 0
M  V30 61496 C 6026.37 1.88509 0.161517 0
M  V30 61497 O 6025.72 1.46188 1.11242 0
M  V30 61498 C 6025.78 3.00604 -1.97173 0
M  V30 61499 C 6025.44 2.97981 -3.46491 0
M  V30 61500 C 6026.44 2.74076 -4.4179 0
M  V30 61501 C 6024.12 3.18285 -3.88587 0
M  V30 61502 C 6026.12 2.70495 -5.77158 0
M  V30 61503 C 6023.81 3.14329 -5.24061 0
M  V30 61504 C 6024.8 2.90465 -6.18158 0
M  V30 61505 O 6024.49 2.86402 -7.51152 0
M  V30 61506 H 6024.22 0.51374 -0.439371 0
M  V30 61507 H 6026.78 1.06003 -1.75933 0
M  V30 61508 H 6025.01 3.59325 -1.42906 0
M  V30 61509 H 6026.7 3.61422 -1.84741 0
M  V30 61510 H 6027.46 2.58146 -4.10592 0
M  V30 61511 H 6023.34 3.35882 -3.15759 0
M  V30 61512 H 6026.89 2.51787 -6.50576 0
M  V30 61513 H 6022.78 3.29807 -5.54885 0
M  V30 61514 H 6023.55 3.02282 -7.60637 0
M  V30 61515 N 6026.21 1.16466 1.06176 0
M  V30 61516 C 6027.14 0.895475 2.15647 0
M  V30 61517 C 6028.12 -0.15867 1.69358 0
M  V30 61518 O 6029.31 -0.0105177 1.94197 0
M  V30 61519 C 6026.44 0.39708 3.45023 0
M  V30 61520 C 6025.39 1.38927 4.04825 0
M  V30 61521 C 6024.72 0.749229 5.29425 0
M  V30 61522 C 6026.02 2.75925 4.43466 0
M  V30 61523 H 6027.71 1.81094 2.38423 0
M  V30 61524 H 6025.26 0.872138 1.14585 0
M  V30 61525 H 6027.21 0.196234 4.20943 0
M  V30 61526 H 6025.94 -0.553888 3.21869 0
M  V30 61527 H 6024.6 1.57668 3.30963 0
M  V30 61528 H 6024.24 -0.208263 5.02569 0
M  V30 61529 H 6023.94 1.41148 5.70395 0
M  V30 61530 H 6025.47 0.558431 6.08041 0
M  V30 61531 H 6026.88 2.6096 5.10463 0
M  V30 61532 H 6025.28 3.38636 4.95425 0
M  V30 61533 H 6026.35 3.31088 3.54272 0
M  V30 61534 N 6027.69 -1.2473 0.963332 0
M  V30 61535 C 6028.62 -2.24783 0.447801 0
M  V30 61536 C 6029.64 -1.56711 -0.441075 0
M  V30 61537 O 6030.83 -1.76769 -0.247953 0
M  V30 61538 C 6027.93 -3.36838 -0.37325 0
M  V30 61539 C 6027.1 -4.34479 0.504684 0
M  V30 61540 C 6026.16 -5.25559 -0.259625 0
M  V30 61541 O 6025.18 -5.68154 0.344954 0
M  V30 61542 N 6026.39 -5.59413 -1.55039 0
M  V30 61543 H 6029.15 -2.6965 1.30802 0
M  V30 61544 H 6026.71 -1.38726 0.834663 0
M  V30 61545 H 6028.7 -3.94736 -0.892492 0
M  V30 61546 H 6027.27 -2.91292 -1.13437 0
M  V30 61547 H 6026.49 -3.75333 1.20494 0
M  V30 61548 H 6027.78 -4.96687 1.1036 0
M  V30 61549 H 6027.18 -5.26727 -2.06337 0
M  V30 61550 H 6025.74 -6.19858 -2.01541 0
M  V30 61551 N 6029.17 -0.732927 -1.3952 0
M  V30 61552 C 6030.45 -0.206358 -1.94508 0
M  V30 61553 C 6030.83 1.29146 -1.66987 0
M  V30 61554 O 6030.17 2.05604 -0.996967 0
M  V30 61555 C 6030.38 -0.537741 -3.44832 0
M  V30 61556 C 6031.73 -0.485935 -4.2181 0
M  V30 61557 O 6032.76 -0.47481 -3.53021 0
M  V30 61558 O 6031.62 -0.478648 -5.444 0
M  V30 61559 H 6028.71 -0.0369519 -0.826174 0
M  V30 61560 H 6031.26 -0.811644 -1.49032 0
M  V30 61561 H 6030.03 -1.57301 -3.5829 0
M  V30 61562 H 6029.65 0.0966204 -3.97483 0
M  V30 61563 N 6030.65 1.501 -0.480402 0
M  V30 61564 C 6031.56 2.32489 0.313998 0
M  V30 61565 C 6032.57 1.43289 0.987136 0
M  V30 61566 O 6033.75 1.76333 0.973061 0
M  V30 61567 C 6030.82 3.18208 1.3764 0
M  V30 61568 C 6029.88 4.23238 0.718881 0
M  V30 61569 C 6029.11 5.0486 1.73066 0
M  V30 61570 O 6029.33 4.87692 2.95826 0
M  V30 61571 O 6028.27 5.87752 1.29735 0
M  V30 61572 H 6032.09 3.01561 -0.359806 0
M  V30 61573 H 6029.68 1.47426 -0.242081 0
M  V30 61574 H 6031.56 3.71369 1.99157 0
M  V30 61575 H 6030.23 2.51853 2.03351 0
M  V30 61576 H 6029.14 3.74044 0.0645177 0
M  V30 61577 H 6030.47 4.92089 0.10457 0
M  V30 61578 N 6032.13 0.213378 1.56149 0
M  V30 61579 C 6033.04 -0.711624 2.23547 0
M  V30 61580 C 6034.05 -1.22023 1.24042 0
M  V30 61581 O 6035.23 -1.26355 1.56832 0
M  V30 61582 C 6032.29 -1.90635 2.89585 0
M  V30 61583 C 6031.35 -1.44052 4.0441 0
M  V30 61584 C 6030.59 -2.5783 4.67289 0
M  V30 61585 O 6030.81 -3.75766 4.29134 0
M  V30 61586 O 6029.74 -2.29498 5.5643 0
M  V30 61587 H 6033.57 -0.167529 3.03238 0
M  V30 61588 H 6031.16 -0.0167185 1.49391 0
M  V30 61589 H 6033.04 -2.60423 3.31297 0
M  V30 61590 H 6031.71 -2.4387 2.1286 0
M  V30 61591 H 6030.62 -0.710895 3.67283 0
M  V30 61592 H 6031.95 -0.954639 4.82853 0
M  V30 61593 N 6033.6 -1.57485 -0.0600851 0
M  V30 61594 C 6034.83 -1.91775 -0.768498 0
M  V30 61595 C 6035.24 -0.808721 -1.71045 0
M  V30 61596 O 6034.59 0.225998 -1.82305 0
M  V30 61597 C 6034.65 -3.21629 -1.60608 0
M  V30 61598 C 6034.31 -4.49358 -0.832253 0
M  V30 61599 C 6035.31 -5.19694 -0.146251 0
M  V30 61600 C 6032.99 -4.95953 -0.795962 0
M  V30 61601 C 6034.99 -6.34885 0.565685 0
M  V30 61602 C 6032.67 -6.11047 -0.0802615 0
M  V30 61603 C 6033.67 -6.80365 0.599351 0
M  V30 61604 O 6033.36 -7.93262 1.3035 0
M  V30 61605 H 6033.09 -0.638169 -0.222972 0
M  V30 61606 H 6035.65 -2.05376 -0.0310847 0
M  V30 61607 H 6033.88 -3.04269 -2.38658 0
M  V30 61608 H 6035.57 -3.41479 -2.19424 0
M  V30 61609 H 6036.33 -4.84717 -0.165519 0
M  V30 61610 H 6032.21 -4.41864 -1.31442 0
M  V30 61611 H 6035.75 -6.88925 1.0967 0
M  V30 61612 H 6031.65 -6.45473 -0.0589612 0
M  V30 61613 H 6032.42 -8.09447 1.21397 0
M  V30 61614 N 6035.08 0.331735 -1.54069 0
M  V30 61615 C 6036.33 1.06812 -1.71097 0
M  V30 61616 C 6036.64 1.89436 -0.487178 0
M  V30 61617 O 6037.85 2.66103 -0.538638 0
M  V30 61618 C 6036.31 1.94843 -3.02596 0
M  V30 61619 C 6035.91 1.17369 -4.32352 0
M  V30 61620 C 6037.66 2.68266 -3.28988 0
M  V30 61621 C 6035.57 2.04499 -5.54918 0
M  V30 61622 H 6034.5 0.402479 -0.637595 0
M  V30 61623 H 6037.15 0.326855 -1.80566 0
M  V30 61624 H 6035.53 2.72835 -2.87014 0
M  V30 61625 H 6036.7 0.442047 -4.58675 0
M  V30 61626 H 6035.02 0.556629 -4.12663 0
M  V30 61627 H 6037.61 3.33748 -4.17752 0
M  V30 61628 H 6037.96 3.35468 -2.4651 0
M  V30 61629 H 6038.49 1.97341 -3.45401 0
M  V30 61630 H 6035.23 1.4182 -6.39975 0
M  V30 61631 H 6034.75 2.75419 -5.32827 0
M  V30 61632 H 6036.43 2.63276 -5.91012 0
M  V30 61633 N 6036.56 1.46003 0.593373 0
M  V30 61634 C 6037.49 1.5178 1.71742 0
M  V30 61635 C 6038.51 0.407149 1.57627 0
M  V30 61636 O 6039.69 0.674961 1.65247 0
M  V30 61637 C 6036.79 1.37191 3.0989 0
M  V30 61638 C 6035.97 2.62186 3.50111 0
M  V30 61639 C 6035.03 2.41949 4.67276 0
M  V30 61640 O 6034.05 3.15627 4.73675 0
M  V30 61641 N 6035.25 1.47425 5.61468 0
M  V30 61642 H 6038.02 2.48695 1.67245 0
M  V30 61643 H 6035.58 1.41923 0.779061 0
M  V30 61644 H 6037.57 1.21442 3.86049 0
M  V30 61645 H 6036.14 0.484985 3.08815 0
M  V30 61646 H 6035.36 2.92952 2.63766 0
M  V30 61647 H 6036.65 3.45242 3.73745 0
M  V30 61648 H 6036.05 0.866479 5.59025 0
M  V30 61649 H 6034.61 1.37642 6.37101 0
M  V30 61650 N 6038.04 -0.837103 1.3353 0
M  V30 61651 C 6039 -1.92861 1.23844 0
M  V30 61652 C 6040 -1.60031 0.157061 0
M  V30 61653 O 6041.19 -1.69337 0.408714 0
M  V30 61654 C 6038.32 -3.28565 0.908732 0
M  V30 61655 H 6039.52 -2.02875 2.20866 0
M  V30 61656 H 6037.07 -1.0294 1.17614 0
M  V30 61657 H 6037.8 -3.24246 -0.0589188 0
M  V30 61658 H 6037.59 -3.53773 1.69077 0
M  V30 61659 H 6039.08 -4.08527 0.865753 0
M  V30 61660 N 6039.52 -1.17028 -1.05557 0
M  V30 61661 C 6040.76 -0.957805 -1.78757 0
M  V30 61662 C 6041.1 0.512586 -1.87313 0
M  V30 61663 O 6040.37 1.38042 -1.3702 0
M  V30 61664 C 6040.65 -1.59507 -3.22846 0
M  V30 61665 C 6040.51 -3.13731 -3.22325 0
M  V30 61666 C 6041.83 -1.29591 -4.20588 0
M  V30 61667 H 6038.94 -0.349376 -0.648926 0
M  V30 61668 H 6041.59 -1.44471 -1.23402 0
M  V30 61669 H 6039.74 -1.18104 -3.70113 0
M  V30 61670 H 6041.41 -3.64166 -2.83162 0
M  V30 61671 H 6039.65 -3.46673 -2.60768 0
M  V30 61672 H 6040.32 -3.53445 -4.24005 0
M  V30 61673 H 6042.8 -1.65437 -3.81798 0
M  V30 61674 H 6041.67 -1.7677 -5.19657 0
M  V30 61675 H 6041.94 -0.216045 -4.41572 0
M  V30 61676 N 6040.99 1.24218 -0.969933 0
M  V30 61677 C 6042.27 1.87713 -0.549838 0
M  V30 61678 C 6042.65 1.87337 0.973048 0
M  V30 61679 O 6042 1.34756 1.84535 0
M  V30 61680 C 6042.21 3.2972 -1.14392 0
M  V30 61681 C 6043.56 4.06388 -1.23019 0
M  V30 61682 O 6044.58 3.389 -1.0966 0
M  V30 61683 O 6043.44 5.27144 -1.44158 0
M  V30 61684 H 6040.53 0.806349 -0.183657 0
M  V30 61685 H 6043.08 1.32173 -1.06435 0
M  V30 61686 H 6041.85 3.24505 -2.1866 0
M  V30 61687 H 6041.48 3.92837 -0.613594 0
M  V30 61688 N 6042.47 0.740315 1.3913 0
M  V30 61689 C 6043.7 0.300565 2.04402 0
M  V30 61690 C 6044.11 -1.07142 1.5594 0
M  V30 61691 O 6043.45 -1.68926 0.72178 0
M  V30 61692 C 6043.52 0.229923 3.58764 0
M  V30 61693 C 6043.18 1.54126 4.30226 0
M  V30 61694 C 6044.18 2.48797 4.56504 0
M  V30 61695 C 6041.86 1.80702 4.6867 0
M  V30 61696 C 6043.86 3.68274 5.20243 0
M  V30 61697 C 6041.54 3.00456 5.32137 0
M  V30 61698 C 6042.54 3.94063 5.57856 0
M  V30 61699 O 6042.23 5.11712 6.20005 0
M  V30 61700 H 6041.96 0.128332 0.663707 0
M  V30 61701 H 6044.51 1.0063 1.79061 0
M  V30 61702 H 6042.74 -0.531954 3.83024 0
M  V30 61703 H 6044.43 -0.178538 4.05507 0
M  V30 61704 H 6045.2 2.29536 4.27245 0
M  V30 61705 H 6041.08 1.08685 4.48005 0
M  V30 61706 H 6044.62 4.41353 5.40235 0
M  V30 61707 H 6040.52 3.19615 5.60818 0
M  V30 61708 H 6041.29 5.12117 6.38497 0
M  V30 61709 N 6043.95 -1.49843 0.488355 0
M  V30 61710 C 6045.23 -1.95213 -0.123037 0
M  V30 61711 C 6045.61 -1.42942 -1.55341 0
M  V30 61712 O 6044.96 -0.637734 -2.1942 0
M  V30 61713 C 6045.17 -3.48966 -0.0486619 0
M  V30 61714 C 6046.51 -4.23982 -0.228934 0
M  V30 61715 O 6047.54 -3.55983 -0.124444 0
M  V30 61716 O 6046.4 -5.44711 -0.441874 0
M  V30 61717 H 6043.49 -0.820656 -0.102239 0
M  V30 61718 H 6046.04 -1.6054 0.549991 0
M  V30 61719 H 6044.81 -3.79609 0.949337 0
M  V30 61720 H 6044.43 -3.90222 -0.762393 0
M  V30 61721 N 6045.43 -0.221656 -1.56033 0
M  V30 61722 C 6046.68 0.403869 -1.9935 0
M  V30 61723 C 6047.03 1.57379 -1.10678 0
M  V30 61724 O 6046.32 1.90958 -0.156762 0
M  V30 61725 C 6046.52 0.887294 -3.46211 0
M  V30 61726 C 6046.35 -0.234244 -4.4909 0
M  V30 61727 C 6045.12 -0.700671 -5.00419 0
M  V30 61728 C 6047.31 -1.05255 -5.03414 0
M  V30 61729 N 6045.3 -1.79726 -5.87002 0
M  V30 61730 C 6046.67 -1.99799 -5.86924 0
M  V30 61731 C 6048.72 -1.09197 -4.85778 0
M  V30 61732 C 6047.43 -2.97966 -6.54682 0
M  V30 61733 C 6049.45 -2.06182 -5.54295 0
M  V30 61734 C 6048.81 -2.99466 -6.37573 0
M  V30 61735 H 6044.91 0.114453 -0.773579 0
M  V30 61736 H 6047.5 -0.333451 -1.91823 0
M  V30 61737 H 6045.67 1.59397 -3.54185 0
M  V30 61738 H 6047.4 1.48565 -3.76445 0
M  V30 61739 H 6044.15 -0.289249 -4.72716 0
M  V30 61740 H 6044.58 -2.34755 -6.34995 0
M  V30 61741 H 6049.22 -0.384691 -4.21046 0
M  V30 61742 H 6046.94 -3.69656 -7.18596 0
M  V30 61743 H 6050.52 -2.09906 -5.42615 0
M  V30 61744 H 6049.4 -3.73287 -6.89657 0
M  V30 61745 N 6046.91 1.57515 0.0517324 0
M  V30 61746 C 6048.18 1.79324 0.78117 0
M  V30 61747 C 6048.56 0.814211 1.94766 0
M  V30 61748 O 6047.91 -0.1485 2.28017 0
M  V30 61749 C 6048.12 3.26402 1.23542 0
M  V30 61750 C 6049.47 3.90779 1.66063 0
M  V30 61751 O 6050.49 3.30415 1.33058 0
M  V30 61752 O 6049.35 4.97016 2.27239 0
M  V30 61753 H 6046.45 0.73664 0.375886 0
M  V30 61754 H 6048.99 1.69673 0.0302577 0
M  V30 61755 H 6047.77 3.89233 0.401669 0
M  V30 61756 H 6047.39 3.40855 2.04704 0
M  V30 61757 N 6048.39 -0.32356 1.54243 0
M  V30 61758 C 6049.8 -0.897994 1.63686 0
M  V30 61759 C 6050.15 -1.8888 0.530927 0
M  V30 61760 O 6049.27 -2.13773 -0.33617 0
M  V30 61761 C 6049.87 -1.63551 2.9671 0
M  V30 61762 C 6048.43 -2.15866 3.08348 0
M  V30 61763 C 6047.57 -0.984054 2.59252 0
M  V30 61764 H 6050.52 -0.101142 1.58377 0
M  V30 61765 H 6050.55 -2.49972 2.8687 0
M  V30 61766 H 6050.06 -0.914133 3.77181 0
M  V30 61767 H 6048.16 -2.91119 2.32552 0
M  V30 61768 H 6048.27 -2.40867 4.1415 0
M  V30 61769 H 6046.64 -1.36322 2.15147 0
M  V30 61770 H 6047.42 -0.276998 3.42181 0
M  V30 61771 N 6049.86 -1.46316 -0.585622 0
M  V30 61772 C 6050.81 -1.56659 -1.6949 0
M  V30 61773 C 6051.78 -0.411063 -1.60933 0
M  V30 61774 O 6052.97 -0.627432 -1.80189 0
M  V30 61775 C 6050.11 -1.56007 -3.07824 0
M  V30 61776 C 6049.22 -2.82272 -3.27026 0
M  V30 61777 C 6048.35 -2.73145 -4.55594 0
M  V30 61778 C 6047.39 -3.94362 -4.68129 0
M  V30 61779 N 6046.53 -3.83638 -5.88019 0
M  V30 61780 H 6051.37 -2.51413 -1.59986 0
M  V30 61781 H 6048.91 -1.24731 -0.779777 0
M  V30 61782 H 6050.86 -1.53615 -3.87889 0
M  V30 61783 H 6049.49 -0.647877 -3.16232 0
M  V30 61784 H 6048.55 -2.94657 -2.40586 0
M  V30 61785 H 6049.86 -3.72119 -3.32158 0
M  V30 61786 H 6049.01 -2.68842 -5.43883 0
M  V30 61787 H 6047.75 -1.80933 -4.52896 0
M  V30 61788 H 6046.76 -3.99 -3.78258 0
M  V30 61789 H 6047.98 -4.87666 -4.72608 0
M  V30 61790 H 6045.93 -2.94211 -5.86324 0
M  V30 61791 H 6045.84 -4.67138 -5.94406 0
M  V30 61792 H 6047.11 -3.83305 -6.78747 0
M  V30 61793 N 6051.34 0.83001 -1.33972 0
M  V30 61794 C 6052.62 1.57108 -1.16519 0
M  V30 61795 C 6053 2.0943 0.265002 0
M  V30 61796 O 6052.35 1.90267 1.26533 0
M  V30 61797 C 6052.56 2.698 -2.21379 0
M  V30 61798 C 6053.9 3.38752 -2.55992 0
M  V30 61799 O 6054.93 2.8005 -2.20114 0
M  V30 61800 O 6053.79 4.44742 -3.17595 0
M  V30 61801 H 6050.88 0.693051 -0.451232 0
M  V30 61802 H 6053.43 0.871997 -1.45583 0
M  V30 61803 H 6052.2 2.28841 -3.17407 0
M  V30 61804 H 6051.82 3.47365 -1.93452 0
M  V30 61805 N 6052.82 1.17586 1.04935 0
M  V30 61806 C 6054.07 0.960251 1.77375 0
M  V30 61807 C 6054.38 -0.511935 1.88782 0
M  V30 61808 O 6055.59 -0.845821 2.57989 0
M  V30 61809 C 6054.04 1.66893 3.18865 0
M  V30 61810 C 6053.65 3.17983 3.1558 0
M  V30 61811 C 6055.4 1.53581 3.95744 0
M  V30 61812 C 6053.3 3.81529 4.51874 0
M  V30 61813 H 6052.23 0.355644 0.664856 0
M  V30 61814 H 6054.88 1.40867 1.17596 0
M  V30 61815 H 6053.27 1.14826 3.78987 0
M  V30 61816 H 6054.44 3.77005 2.64961 0
M  V30 61817 H 6052.75 3.31337 2.522 0
M  V30 61818 H 6055.35 1.98426 4.96519 0
M  V30 61819 H 6055.69 0.486748 4.13445 0
M  V30 61820 H 6056.23 2.0288 3.42176 0
M  V30 61821 H 6052.97 4.86443 4.39378 0
M  V30 61822 H 6052.49 3.27294 5.02632 0
M  V30 61823 H 6054.17 3.83885 5.20808 0
M  V30 61824 N 6054.3 -1.23702 0.976507 0
M  V30 61825 C 6055.55 -1.91633 0.641965 0
M  V30 61826 C 6055.87 -1.76613 -0.826616 0
M  V30 61827 O 6055.14 -1.14309 -1.59092 0
M  V30 61828 H 6053.72 -0.709256 0.234447 0
M  V30 61829 H 6056.38 -1.50409 1.23948 0
M  V30 61830 H 6055.47 -2.99135 0.890204 0
M  V30 61831 N 6055.78 -0.747683 -1.38735 0
M  V30 61832 C 6056.71 -0.131399 -2.3313 0
M  V30 61833 C 6057.69 0.710174 -1.54566 0
M  V30 61834 O 6058.87 0.652567 -1.82908 0
M  V30 61835 C 6056 0.767049 -3.38724 0
M  V30 61836 C 6054.96 0.0286619 -4.2799 0
M  V30 61837 C 6054.28 1.04497 -5.2439 0
M  V30 61838 C 6055.58 -1.13626 -5.09791 0
M  V30 61839 H 6057.28 -0.91991 -2.84918 0
M  V30 61840 H 6054.82 -0.443812 -1.3699 0
M  V30 61841 H 6056.77 1.20782 -4.0372 0
M  V30 61842 H 6055.5 1.58782 -2.85405 0
M  V30 61843 H 6054.16 -0.392619 -3.64492 0
M  V30 61844 H 6053.81 1.85964 -4.67361 0
M  V30 61845 H 6053.51 0.555607 -5.84967 0
M  V30 61846 H 6055.03 1.48518 -5.92263 0
M  V30 61847 H 6056.44 -0.773329 -5.6806 0
M  V30 61848 H 6054.84 -1.55609 -5.79574 0
M  V30 61849 H 6055.91 -1.95198 -4.43876 0
M  V30 61850 N 6057.25 1.49582 -0.496295 0
M  V30 61851 C 6058.48 2.07342 0.0490257 0
M  V30 61852 C 6058.9 1.35478 1.30489 0
M  V30 61853 O 6058.26 0.410067 1.76602 0
M  V30 61854 C 6058.31 3.59428 0.290474 0
M  V30 61855 O 6057.41 3.89115 1.36612 0
M  V30 61856 H 6056.75 0.663561 -0.0241374 0
M  V30 61857 H 6059.28 1.9245 -0.694568 0
M  V30 61858 H 6059.29 4.04629 0.523407 0
M  V30 61859 H 6057.97 4.11145 -0.627104 0
M  V30 61860 H 6056.55 3.5573 1.11851 0
M  V30 61861 N 6058.73 0.229928 1.55914 0
M  V30 61862 C 6059.98 -0.400087 1.98814 0
M  V30 61863 C 6060.31 -1.58817 1.11762 0
M  V30 61864 O 6059.59 -1.93691 0.177162 0
M  V30 61865 C 6059.87 -0.8265 3.50487 0
M  V30 61866 C 6059.72 0.365804 4.4831 0
M  V30 61867 C 6061.04 -1.67966 4.06787 0
M  V30 61868 H 6058.16 -0.143951 0.722805 0
M  V30 61869 H 6060.8 0.327841 1.8715 0
M  V30 61870 H 6058.95 -1.44674 3.60557 0
M  V30 61871 H 6060.62 1.00406 4.5024 0
M  V30 61872 H 6058.87 1.01183 4.21835 0
M  V30 61873 H 6059.54 0.0243757 5.51995 0
M  V30 61874 H 6062.01 -1.15625 3.99713 0
M  V30 61875 H 6060.89 -1.9469 5.13212 0
M  V30 61876 H 6061.15 -2.64582 3.54188 0
M  V30 61877 N 6060.21 -1.5754 -0.0433783 0
M  V30 61878 C 6061.46 -1.8889 -0.738133 0
M  V30 61879 C 6061.79 -0.825889 -1.75763 0
M  V30 61880 O 6061.06 0.160729 -1.93835 0
M  V30 61881 C 6061.35 -3.30894 -1.42061 0
M  V30 61882 C 6061.2 -4.47876 -0.415596 0
M  V30 61883 C 6062.52 -3.71579 -2.35833 0
M  V30 61884 H 6059.64 -0.686985 -0.266873 0
M  V30 61885 H 6062.28 -1.9 -0.00100278 0
M  V30 61886 H 6060.43 -3.30078 -2.04892 0
M  V30 61887 H 6062.1 -4.60823 0.209691 0
M  V30 61888 H 6060.35 -4.32981 0.266499 0
M  V30 61889 H 6061.02 -5.44087 -0.931317 0
M  V30 61890 H 6063.49 -3.7367 -1.83058 0
M  V30 61891 H 6062.37 -4.71773 -2.80573 0
M  V30 61892 H 6062.63 -3.03053 -3.21887 0
M  V30 61893 N 6061.69 0.315375 -1.54412 0
M  V30 61894 C 6062.92 1.07012 -1.76726 0
M  V30 61895 C 6063.33 1.81919 -0.519818 0
M  V30 61896 O 6062.67 1.76203 0.519439 0
M  V30 61897 C 6062.73 2.10771 -2.91231 0
M  V30 61898 C 6062.4 1.55189 -4.29844 0
M  V30 61899 C 6063.39 0.989389 -5.10399 0
M  V30 61900 C 6061.08 1.59185 -4.76409 0
M  V30 61901 C 6063.07 0.474242 -6.35633 0
M  V30 61902 C 6060.76 1.07283 -6.01609 0
M  V30 61903 C 6061.76 0.514981 -6.81056 0
M  V30 61904 O 6061.44 0.00378998 -8.039 0
M  V30 61905 H 6061.18 0.323778 -0.593417 0
M  V30 61906 H 6063.73 0.364637 -2.02137 0
M  V30 61907 H 6061.96 2.84959 -2.6141 0
M  V30 61908 H 6063.65 2.72032 -3.01253 0
M  V30 61909 H 6064.42 0.951524 -4.75574 0
M  V30 61910 H 6060.29 2.01544 -4.14609 0
M  V30 61911 H 6063.84 0.0381686 -6.9759 0
M  V30 61912 H 6059.74 1.10779 -6.35923 0
M  V30 61913 H 6060.5 0.118445 -8.18414 0
M  V30 61914 N 6063.17 1.46624 0.577854 0
M  V30 61915 C 6064.4 1.55539 1.35983 0
M  V30 61916 C 6064.8 0.197131 1.8817 0
M  V30 61917 O 6064.15 -0.816551 1.64554 0
M  V30 61918 C 6064.21 2.50359 2.57993 0
M  V30 61919 C 6063.87 3.96499 2.27239 0
M  V30 61920 C 6064.87 4.85574 1.8578 0
M  V30 61921 C 6062.56 4.4167 2.39234 0
M  V30 61922 C 6064.55 6.17834 1.56716 0
M  V30 61923 C 6062.24 5.73964 2.09783 0
M  V30 61924 C 6063.23 6.61866 1.6859 0
M  V30 61925 O 6062.92 7.91703 1.39503 0
M  V30 61926 H 6062.65 0.528427 0.421594 0
M  V30 61927 H 6065.21 1.92776 0.70897 0
M  V30 61928 H 6063.44 2.08148 3.259 0
M  V30 61929 H 6065.13 2.49627 3.20064 0
M  V30 61930 H 6065.89 4.5193 1.76023 0
M  V30 61931 H 6061.77 3.73472 2.70259 0
M  V30 61932 H 6065.32 6.86402 1.2449 0
M  V30 61933 H 6061.21 6.07155 2.19165 0
M  V30 61934 H 6061.98 8.04014 1.53307 0
M  V30 61935 N 6064.64 -0.822893 1.34411 0
M  V30 61936 C 6065.87 -1.61083 1.29846 0
M  V30 61937 C 6066.29 -1.88369 -0.127461 0
M  V30 61938 O 6065.64 -1.47512 -1.07454 0
M  V30 61939 C 6065.7 -2.95172 2.087 0
M  V30 61940 O 6065.42 -2.69077 3.4573 0
M  V30 61941 C 6066.92 -3.89576 2.11532 0
M  V30 61942 H 6064.14 -0.500711 0.446688 0
M  V30 61943 H 6066.68 -1.02385 1.77024 0
M  V30 61944 H 6064.84 -3.50429 1.65162 0
M  V30 61945 H 6065.25 -3.54577 3.86491 0
M  V30 61946 H 6066.72 -4.80826 2.71128 0
M  V30 61947 H 6067.2 -4.24949 1.10972 0
M  V30 61948 H 6067.81 -3.40256 2.55158 0
M  V30 61949 N 6066.12 -1.18141 -1.0431 0
M  V30 61950 C 6067.37 -0.97671 -1.77731 0
M  V30 61951 C 6067.7 0.49269 -1.87846 0
M  V30 61952 O 6066.98 1.36581 -1.38477 0
M  V30 61953 C 6067.26 -1.62922 -3.21136 0
M  V30 61954 C 6067.11 -3.17132 -3.18979 0
M  V30 61955 C 6068.43 -1.34044 -4.1919 0
M  V30 61956 H 6065.55 -0.35624 -0.645184 0
M  V30 61957 H 6068.19 -1.45772 -1.21863 0
M  V30 61958 H 6066.34 -1.22022 -3.6884 0
M  V30 61959 H 6068.01 -3.67149 -2.79284 0
M  V30 61960 H 6066.26 -3.4942 -2.57077 0
M  V30 61961 H 6066.93 -3.57922 -4.20233 0
M  V30 61962 H 6069.4 -1.69477 -3.80022 0
M  V30 61963 H 6068.28 -1.82271 -5.17753 0
M  V30 61964 H 6068.54 -0.262867 -4.41318 0
M  V30 61965 N 6067.6 1.23182 -0.983053 0
M  V30 61966 C 6069.02 1.43812 -0.692121 0
M  V30 61967 C 6069.22 1.8739 0.740757 0
M  V30 61968 O 6068.27 2.02159 1.51288 0
M  V30 61969 C 6069.59 2.48763 -1.68931 0
M  V30 61970 C 6071.13 2.62573 -1.70365 0
M  V30 61971 C 6071.61 3.70737 -2.68921 0
M  V30 61972 N 6073.1 3.78182 -2.67455 0
M  V30 61973 C 6073.83 4.61441 -3.40382 0
M  V30 61974 N 6073.33 5.48769 -4.22877 0
M  V30 61975 N 6075.12 4.55661 -3.29134 0
M  V30 61976 H 6067.27 0.931979 -1.90861 0
M  V30 61977 H 6069.54 0.471245 -0.822577 0
M  V30 61978 H 6069.24 2.23666 -2.71416 0
M  V30 61979 H 6069.12 3.47196 -1.47427 0
M  V30 61980 H 6071.5 2.8702 -0.685829 0
M  V30 61981 H 6071.59 1.64447 -1.95935 0
M  V30 61982 H 6071.23 3.47038 -3.70846 0
M  V30 61983 H 6071.16 4.6841 -2.40624 0
M  V30 61984 H 6073.65 3.15778 -2.07588 0
M  V30 61985 H 6073.96 6.09296 -4.75372 0
M  V30 61986 H 6072.31 5.48383 -4.26967 0
M  V30 61987 H 6075.5 3.86458 -2.64135 0
M  V30 61988 H 6075.67 5.20319 -3.86229 0
M  V30 61989 N 6069.08 0.75503 1.38337 0
M  V30 61990 C 6070.33 0.311216 1.99689 0
M  V30 61991 C 6070.65 -1.11132 1.60233 0
M  V30 61992 O 6069.92 -1.76021 0.859856 0
M  V30 61993 H 6068.5 0.112078 0.738544 0
M  V30 61994 H 6071.16 0.969445 1.69079 0
M  V30 61995 H 6070.26 0.375501 3.09833 0
M  V30 61996 N 6070.56 -1.49316 0.50422 0
M  V30 61997 C 6071.47 -2.32959 -0.276971 0
M  V30 61998 C 6072.48 -1.44841 -0.964215 0
M  V30 61999 O 6073.66 -1.77859 -0.944884 0
M  V30 62000 C 6070.72 -3.20357 -1.3256 0
M  V30 62001 C 6069.78 -4.24328 -0.651457 0
M  V30 62002 C 6069.02 -5.0755 -1.65013 0
M  V30 62003 O 6069.24 -4.92336 -2.8803 0
M  V30 62004 O 6068.17 -5.89742 -1.20368 0
M  V30 62005 H 6072 -3.0095 0.407736 0
M  V30 62006 H 6069.59 -1.47022 0.265504 0
M  V30 62007 H 6071.47 -3.7449 -1.93223 0
M  V30 62008 H 6070.14 -2.55057 -1.99318 0
M  V30 62009 H 6069.05 -3.741 -0.00500232 0
M  V30 62010 H 6070.38 -4.92193 -0.0262694 0
M  V30 62011 N 6072.03 -0.238193 -1.5579 0
M  V30 62012 C 6073.28 0.388193 -1.98337 0
M  V30 62013 C 6073.6 1.591 -1.12748 0
M  V30 62014 O 6072.87 1.9479 -0.20827 0
M  V30 62015 H 6071.45 0.146415 -0.732511 0
M  V30 62016 H 6074.12 -0.334958 -1.92 0
M  V30 62017 H 6073.21 0.703252 -3.04074 0
M  V30 62018 N 6073.51 1.57561 0.0350229 0
M  V30 62019 C 6074.74 1.93646 0.742685 0
M  V30 62020 C 6075.16 0.837715 1.68416 0
M  V30 62021 O 6074.52 -0.207006 1.80114 0
M  V30 62022 C 6074.57 3.28784 1.48099 0
M  V30 62023 O 6073.67 3.20613 2.59386 0
M  V30 62024 H 6073.01 0.63311 0.20017 0
M  V30 62025 H 6075.54 2.04599 -0.00772464 0
M  V30 62026 H 6075.55 3.63533 1.85223 0
M  V30 62027 H 6074.23 4.08319 0.790465 0
M  V30 62028 H 6072.81 2.97485 2.24849 0
M  V30 62029 N 6074.99 -0.307182 1.54577 0
M  V30 62030 C 6076.41 -0.652488 1.45653 0
M  V30 62031 C 6076.61 -1.90976 0.642697 0
M  V30 62032 O 6075.66 -2.52066 0.147951 0
M  V30 62033 C 6076.98 -0.811239 2.8955 0
M  V30 62034 C 6078.52 -0.907524 2.99555 0
M  V30 62035 C 6079 -1.09832 4.44636 0
M  V30 62036 N 6080.49 -1.16467 4.48319 0
M  V30 62037 C 6081.23 -1.33048 5.57751 0
M  V30 62038 N 6080.72 -1.46567 6.77119 0
M  V30 62039 N 6082.51 -1.35887 5.45427 0
M  V30 62040 H 6074.67 0.518963 2.05962 0
M  V30 62041 H 6076.93 0.170496 0.932542 0
M  V30 62042 H 6076.63 0.0416115 3.51675 0
M  V30 62043 H 6076.51 -1.70212 3.36612 0
M  V30 62044 H 6078.9 -1.75087 2.37547 0
M  V30 62045 H 6078.98 0.00724378 2.55799 0
M  V30 62046 H 6078.62 -0.25977 5.07235 0
M  V30 62047 H 6078.55 -2.02722 4.86016 0
M  V30 62048 H 6081.04 -1.07398 3.62318 0
M  V30 62049 H 6081.35 -1.58957 7.56275 0
M  V30 62050 H 6079.7 -1.43634 6.79996 0
M  V30 62051 H 6082.89 -1.24933 4.5112 0
M  V30 62052 H 6083.06 -1.48466 6.30763 0
M  V30 62053 N 6076.47 -1.46928 -0.57007 0
M  V30 62054 C 6077.72 -1.52892 -1.3278 0
M  V30 62055 C 6078.04 -0.185822 -1.9361 0
M  V30 62056 O 6077.3 0.819933 -1.77695 0
M  V30 62057 C 6077.6 -2.58536 -2.46767 0
M  V30 62058 C 6077.26 -4.02189 -2.03849 0
M  V30 62059 C 6075.93 -4.41297 -1.9186 0
M  V30 62060 C 6078.28 -4.92379 -1.70917 0
M  V30 62061 C 6075.61 -5.68445 -1.45215 0
M  V30 62062 C 6077.96 -6.19976 -1.25748 0
M  V30 62063 C 6076.62 -6.57978 -1.12345 0
M  V30 62064 H 6075.89 -0.55947 -0.485875 0
M  V30 62065 H 6078.54 -1.80466 -0.640635 0
M  V30 62066 H 6076.84 -2.24669 -3.20984 0
M  V30 62067 H 6078.54 -2.60376 -3.04968 0
M  V30 62068 H 6075.13 -3.71283 -2.14119 0
M  V30 62069 H 6079.32 -4.62873 -1.79059 0
M  V30 62070 H 6074.57 -5.96649 -1.33492 0
M  V30 62071 H 6078.75 -6.89281 -0.993232 0
M  V30 62072 H 6076.37 -7.56394 -0.75978 0
M  V30 62073 N 6077.95 0.815754 -1.34845 0
M  V30 62074 C 6079.2 1.56926 -1.27352 0
M  V30 62075 C 6079.52 1.94388 0.154394 0
M  V30 62076 O 6078.79 1.62862 1.08871 0
M  V30 62077 H 6077.37 0.581907 -0.468395 0
M  V30 62078 H 6080.03 0.973583 -1.68841 0
M  V30 62079 H 6079.12 2.48884 -1.88317 0
M  V30 62080 N 6079.43 1.18692 1.03682 0
M  V30 62081 C 6080.39 0.919489 2.09948 0
M  V30 62082 C 6081.39 -0.0967478 1.60509 0
M  V30 62083 O 6082.58 0.137123 1.73659 0
M  V30 62084 C 6079.71 0.380323 3.38772 0
M  V30 62085 H 6080.9 1.86186 2.35106 0
M  V30 62086 H 6078.46 0.999478 1.20167 0
M  V30 62087 H 6079.19 -0.568474 3.19279 0
M  V30 62088 H 6078.98 1.11294 3.75974 0
M  V30 62089 H 6080.47 0.212038 4.17061 0
M  V30 62090 N 6080.9 -1.22659 0.989572 0
M  V30 62091 C 6082.15 -1.90629 0.659037 0
M  V30 62092 C 6082.47 -1.77945 -0.812103 0
M  V30 62093 O 6083.67 -2.40801 -1.25408 0
M  V30 62094 C 6082.13 -3.41759 1.12821 0
M  V30 62095 C 6081.74 -3.63088 2.62434 0
M  V30 62096 C 6083.48 -4.15451 0.871844 0
M  V30 62097 C 6081.39 -5.079 3.0297 0
M  V30 62098 H 6080.32 -0.713839 0.242797 0
M  V30 62099 H 6082.97 -1.38937 1.19869 0
M  V30 62100 H 6081.35 -3.92615 0.516702 0
M  V30 62101 H 6082.52 -3.22739 3.28901 0
M  V30 62102 H 6080.84 -3.02723 2.85916 0
M  V30 62103 H 6083.44 -5.22177 1.15045 0
M  V30 62104 H 6083.78 -4.15857 -0.19204 0
M  V30 62105 H 6084.31 -3.70613 1.44538 0
M  V30 62106 H 6081.05 -5.12631 4.08521 0
M  V30 62107 H 6080.57 -5.49164 2.41204 0
M  V30 62108 H 6082.25 -5.76301 2.94086 0
M  V30 62109 N 6082.38 -0.762356 -1.37934 0
M  V30 62110 C 6083.33 -0.140493 -2.30372 0
M  V30 62111 C 6084.3 0.700099 -1.50625 0
M  V30 62112 O 6085.48 0.654411 -1.79226 0
M  V30 62113 C 6082.62 0.739937 -3.37074 0
M  V30 62114 C 6081.74 -0.116236 -4.31844 0
M  V30 62115 C 6080.87 0.768018 -5.25619 0
M  V30 62116 C 6079.91 -0.0912594 -6.12032 0
M  V30 62117 N 6079.05 0.750444 -6.98078 0
M  V30 62118 H 6083.89 -0.934324 -2.82974 0
M  V30 62119 H 6081.42 -0.472365 -1.39309 0
M  V30 62120 H 6083.38 1.26511 -3.97556 0
M  V30 62121 H 6082.01 1.49946 -2.8586 0
M  V30 62122 H 6081.06 -0.75913 -3.72748 0
M  V30 62123 H 6082.38 -0.779458 -4.92672 0
M  V30 62124 H 6081.53 1.36003 -5.9126 0
M  V30 62125 H 6080.27 1.46495 -4.65178 0
M  V30 62126 H 6079.27 -0.695878 -5.45378 0
M  V30 62127 H 6080.5 -0.785382 -6.74543 0
M  V30 62128 H 6078.45 1.43216 -6.40176 0
M  V30 62129 H 6078.36 0.144313 -7.55862 0
M  V30 62130 H 6079.63 1.32715 -7.68119 0
M  V30 62131 N 6083.86 1.49047 -0.512132 0
M  V30 62132 C 6085.28 1.58705 -0.168806 0
M  V30 62133 C 6085.48 1.51617 1.3272 0
M  V30 62134 O 6084.53 1.39591 2.10406 0
M  V30 62135 C 6085.84 2.91055 -0.755493 0
M  V30 62136 C 6087.39 3.04545 -0.722606 0
M  V30 62137 C 6087.87 4.39529 -1.28755 0
M  V30 62138 N 6089.36 4.4605 -1.24874 0
M  V30 62139 C 6090.09 5.48968 -1.65594 0
M  V30 62140 N 6089.59 6.58933 -2.1396 0
M  V30 62141 N 6091.38 5.39746 -1.56941 0
M  V30 62142 H 6083.53 1.51897 -1.48463 0
M  V30 62143 H 6085.8 0.720182 -0.616475 0
M  V30 62144 H 6085.5 3.01843 -1.8051 0
M  V30 62145 H 6085.38 3.76544 -0.222291 0
M  V30 62146 H 6087.76 2.9338 0.318188 0
M  V30 62147 H 6087.84 2.2071 -1.29308 0
M  V30 62148 H 6087.49 4.51447 -2.32718 0
M  V30 62149 H 6087.42 5.22021 -0.692918 0
M  V30 62150 H 6089.91 3.67161 -0.894483 0
M  V30 62151 H 6090.22 7.33577 -2.43072 0
M  V30 62152 H 6088.57 6.59944 -2.17942 0
M  V30 62153 H 6091.76 4.5273 -1.18966 0
M  V30 62154 H 6091.93 6.19825 -1.88998 0
M  V30 62155 N 6085.34 0.246452 1.55661 0
M  V30 62156 C 6086.3 -0.639963 2.20084 0
M  V30 62157 C 6087.3 -1.10309 1.16998 0
M  V30 62158 O 6088.49 -1.00787 1.42083 0
M  V30 62159 C 6085.62 -1.87954 2.84405 0
M  V30 62160 H 6086.82 -0.077898 2.99799 0
M  V30 62161 H 6084.37 -0.00309094 1.563 0
M  V30 62162 H 6085.1 -2.48285 2.08627 0
M  V30 62163 H 6084.89 -1.55567 3.59918 0
M  V30 62164 H 6086.38 -2.51053 3.3371 0
M  V30 62165 N 6086.82 -1.57577 -0.0266666 0
M  V30 62166 C 6088.05 -1.93362 -0.727646 0
M  V30 62167 C 6088.45 -0.844821 -1.69291 0
M  V30 62168 O 6087.8 0.187278 -1.82743 0
M  V30 62169 C 6087.86 -3.24963 -1.5375 0
M  V30 62170 C 6087.52 -4.51022 -0.736751 0
M  V30 62171 C 6088.52 -5.19888 -0.0359832 0
M  V30 62172 C 6086.2 -4.9753 -0.690584 0
M  V30 62173 C 6088.2 -6.33542 0.700226 0
M  V30 62174 C 6085.89 -6.1108 0.0493688 0
M  V30 62175 C 6086.88 -6.78941 0.743531 0
M  V30 62176 O 6086.57 -7.90318 1.47147 0
M  V30 62177 H 6086.3 -0.642755 -0.209385 0
M  V30 62178 H 6088.86 -2.05396 0.0124857 0
M  V30 62179 H 6087.09 -3.09262 -2.3215 0
M  V30 62180 H 6088.78 -3.46056 -2.12131 0
M  V30 62181 H 6089.54 -4.8496 -0.0626663 0
M  V30 62182 H 6085.42 -4.44553 -1.22039 0
M  V30 62183 H 6088.97 -6.86444 1.24259 0
M  V30 62184 H 6084.86 -6.45453 0.0779665 0
M  V30 62185 H 6085.63 -8.0669 1.38539 0
M  V30 62186 N 6088.29 0.29898 -1.54738 0
M  V30 62187 C 6089.54 1.03158 -1.73324 0
M  V30 62188 C 6089.86 1.8836 -0.527251 0
M  V30 62189 O 6091.06 2.64901 -0.594961 0
M  V30 62190 C 6089.52 1.8838 -3.06661 0
M  V30 62191 C 6089.13 1.08172 -4.34745 0
M  V30 62192 C 6090.87 2.61228 -3.34605 0
M  V30 62193 C 6088.78 1.92682 -5.59131 0
M  V30 62194 H 6087.71 0.388864 -0.645988 0
M  V30 62195 H 6090.36 0.28848 -1.81218 0
M  V30 62196 H 6088.74 2.66686 -2.92736 0
M  V30 62197 H 6089.91 0.344655 -4.59509 0
M  V30 62198 H 6088.23 0.468972 -4.13751 0
M  V30 62199 H 6090.83 3.24811 -4.24737 0
M  V30 62200 H 6091.17 3.30163 -2.5357 0
M  V30 62201 H 6091.7 1.8997 -3.49509 0
M  V30 62202 H 6088.44 1.28213 -6.42839 0
M  V30 62203 H 6087.96 2.64055 -5.38549 0
M  V30 62204 H 6089.64 2.50681 -5.96463 0
M  V30 62205 N 6089.77 1.47229 0.56227 0
M  V30 62206 C 6091.18 1.47513 1.14441 0
M  V30 62207 C 6091.53 0.227058 1.94882 0
M  V30 62208 O 6090.66 -0.66841 2.05818 0
M  V30 62209 C 6091.25 2.67273 2.08208 0
M  V30 62210 C 6089.81 2.70534 2.61703 0
M  V30 62211 C 6088.96 2.40535 1.37979 0
M  V30 62212 H 6091.91 1.54812 0.349131 0
M  V30 62213 H 6091.93 2.43955 2.92004 0
M  V30 62214 H 6091.44 3.58094 1.49634 0
M  V30 62215 H 6089.55 1.83839 3.2409 0
M  V30 62216 H 6089.66 3.71082 3.03043 0
M  V30 62217 H 6088.02 1.91012 1.68482 0
M  V30 62218 H 6088.81 3.33557 0.81206 0
M  V30 62219 N 6091.25 -0.808591 1.35276 0
M  V30 62220 C 6092.2 -1.94172 1.28062 0
M  V30 62221 C 6093.19 -1.68484 0.175933 0
M  V30 62222 O 6094.4 -1.76725 0.341791 0
M  V30 62223 H 6090.77 -0.637916 0.398205 0
M  V30 62224 H 6092.74 -1.97377 2.23796 0
M  V30 62225 C 6091.49 -3.30909 1.06746 0
M  V30 62226 H 6090.82 -3.51232 1.90988 0
M  V30 62227 H 6092.26 -4.10604 1.05739 0
M  V30 62228 C 6090.72 -3.36122 -0.228767 0
M  V30 62229 O 6091.25 -3.82558 -1.22525 0
M  V30 62230 N 6089.45 -2.89372 -0.266847 0
M  V30 62231 H 6089 -2.51776 0.544659 0
M  V30 62232 H 6088.96 -2.93242 -1.13386 0
M  V30 62233 N 6092.73 -1.1924 -1.03051 0
M  V30 62234 C 6093.98 -0.994034 -1.76423 0
M  V30 62235 C 6094.3 0.475356 -1.88602 0
M  V30 62236 O 6093.56 1.3692 -1.39826 0
M  V30 62237 C 6093.86 -1.60618 -3.19275 0
M  V30 62238 C 6093.52 -3.10341 -3.27108 0
M  V30 62239 C 6092.19 -3.51203 -3.28953 0
M  V30 62240 C 6094.54 -4.06352 -3.26386 0
M  V30 62241 C 6091.87 -4.86631 -3.2773 0
M  V30 62242 C 6094.22 -5.41708 -3.26704 0
M  V30 62243 C 6092.88 -5.82003 -3.26846 0
M  V30 62244 H 6092.15 -0.363743 -0.645579 0
M  V30 62245 H 6094.8 -1.48459 -1.20963 0
M  V30 62246 H 6093.1 -1.03788 -3.77803 0
M  V30 62247 H 6094.8 -1.428 -3.74712 0
M  V30 62248 H 6091.39 -2.7778 -3.26399 0
M  V30 62249 H 6095.57 -3.75826 -3.24143 0
M  V30 62250 H 6090.83 -5.17134 -3.26163 0
M  V30 62251 H 6095 -6.15862 -3.25096 0
M  V30 62252 H 6092.63 -6.86917 -3.25652 0
M  V30 62253 N 6094.21 1.22132 -0.996063 0
M  V30 62254 C 6095.12 2.27867 -0.558007 0
M  V30 62255 C 6096.13 1.69464 0.394721 0
M  V30 62256 O 6097.31 1.99705 0.26077 0
M  V30 62257 C 6094.37 3.46501 0.117312 0
M  V30 62258 C 6093.43 4.2021 -0.878775 0
M  V30 62259 C 6092.67 5.3318 -0.235588 0
M  V30 62260 O 6092.89 5.62096 0.969757 0
M  V30 62261 O 6091.82 5.94482 -0.942037 0
M  V30 62262 H 6095.65 2.67512 -1.43774 0
M  V30 62263 H 6093.24 1.2836 -0.764473 0
M  V30 62264 H 6095.12 4.18477 0.495443 0
M  V30 62265 H 6093.79 3.08775 0.971565 0
M  V30 62266 H 6092.7 3.50492 -1.3079 0
M  V30 62267 H 6094.03 4.61824 -1.70233 0
M  V30 62268 N 6095.68 0.76966 1.37528 0
M  V30 62269 C 6096.91 0.343141 2.04542 0
M  V30 62270 C 6097.33 -1.02577 1.57669 0
M  V30 62271 O 6096.69 -1.6569 0.735973 0
M  V30 62272 C 6096.74 0.39304 3.58452 0
M  V30 62273 O 6095.84 -0.607257 4.07905 0
M  V30 62274 H 6095.19 0.148928 0.647083 0
M  V30 62275 H 6097.72 1.04527 1.75884 0
M  V30 62276 H 6097.73 0.249593 4.07236 0
M  V30 62277 H 6096.4 1.39173 3.91923 0
M  V30 62278 H 6094.98 -0.427101 3.70446 0
M  V30 62279 N 6097.16 -1.48773 0.520029 0
M  V30 62280 C 6098.41 -2.02092 -0.0176444 0
M  V30 62281 C 6098.73 -1.40029 -1.35709 0
M  V30 62282 O 6098 -0.562181 -1.8766 0
M  V30 62283 H 6096.58 -0.746939 -0.00950952 0
M  V30 62284 H 6099.24 -1.82593 0.681599 0
M  V30 62285 H 6098.34 -3.11815 -0.133322 0
M  V30 62286 N 6098.64 -0.254703 -1.55528 0
M  V30 62287 C 6100.06 0.0999627 -1.59287 0
M  V30 62288 C 6100.26 1.56285 -1.2719 0
M  V30 62289 O 6099.31 2.3085 -1.02296 0
M  V30 62290 C 6100.63 -0.256263 -2.99606 0
M  V30 62291 C 6102.17 -0.201201 -3.12353 0
M  V30 62292 C 6102.65 -0.531571 -4.54905 0
M  V30 62293 N 6104.14 -0.482361 -4.60682 0
M  V30 62294 C 6104.87 -0.711048 -5.68974 0
M  V30 62295 N 6104.37 -1.00328 -6.85497 0
M  V30 62296 N 6106.16 -0.641226 -5.58431 0
M  V30 62297 H 6098.31 -1.20862 -1.7466 0
M  V30 62298 H 6100.58 -0.486853 -0.813436 0
M  V30 62299 H 6100.28 -1.27287 -3.27858 0
M  V30 62300 H 6100.16 0.412863 -3.74934 0
M  V30 62301 H 6102.54 0.806089 -2.83877 0
M  V30 62302 H 6102.63 -0.90429 -2.39283 0
M  V30 62303 H 6102.27 -1.53645 -4.84103 0
M  V30 62304 H 6102.2 0.193084 -5.26246 0
M  V30 62305 H 6104.69 -0.265542 -3.76966 0
M  V30 62306 H 6105 -1.16499 -7.63969 0
M  V30 62307 H 6103.35 -1.04083 -6.87162 0
M  V30 62308 H 6106.54 -0.412915 -4.66275 0
M  V30 62309 H 6106.71 -0.822843 -6.42754 0
M  V30 62310 N 6100.12 1.57589 0.0183095 0
M  V30 62311 C 6101.07 2.08358 1.03391 0
M  V30 62312 C 6102.06 0.999623 1.36762 0
M  V30 62313 O 6103.27 1.18443 1.35541 0
M  V30 62314 H 6099.64 0.665059 0.351 0
M  V30 62315 H 6101.61 2.92709 0.580008 0
M  V30 62316 C 6100.36 2.58722 2.32289 0
M  V30 62317 H 6099.68 3.41752 2.07475 0
M  V30 62318 H 6101.12 2.97943 3.01672 0
M  V30 62319 C 6099.58 1.49318 3.02003 0
M  V30 62320 O 6100.11 0.865564 3.92264 0
M  V30 62321 N 6098.32 1.22509 2.63515 0
M  V30 62322 H 6097.87 1.7373 1.90199 0
M  V30 62323 H 6097.82 0.495242 3.10475 0
M  V30 62324 N 6101.6 -0.29077 1.54894 0
M  V30 62325 C 6102.54 -1.37891 1.8732 0
M  V30 62326 C 6103.54 -1.51999 0.747848 0
M  V30 62327 O 6104.74 -1.53994 0.931974 0
M  V30 62328 H 6101.12 -0.460803 0.594276 0
M  V30 62329 H 6103.09 -1.07784 2.78254 0
M  V30 62330 C 6101.84 -2.73561 2.14616 0
M  V30 62331 H 6101.16 -2.6349 3.00687 0
M  V30 62332 H 6102.6 -3.48684 2.41237 0
M  V30 62333 C 6101.06 -3.23288 0.947978 0
M  V30 62334 O 6101.59 -4.01325 0.17362 0
M  V30 62335 N 6099.8 -2.8074 0.750543 0
M  V30 62336 H 6099.34 -2.17396 1.38192 0
M  V30 62337 H 6099.3 -3.14361 -0.0495641 0
M  V30 62338 N 6103.07 -1.47525 -0.554454 0
M  V30 62339 C 6104 -1.63098 -1.67096 0
M  V30 62340 C 6104.99 -0.480356 -1.63177 0
M  V30 62341 O 6106.17 -0.71002 -1.80755 0
M  V30 62342 C 6103.3 -1.64762 -3.0573 0
M  V30 62343 C 6102.25 -2.79079 -3.24498 0
M  V30 62344 C 6101.58 -2.65817 -4.63946 0
M  V30 62345 C 6102.88 -4.20642 -3.09609 0
M  V30 62346 H 6104.57 -2.56566 -1.54319 0
M  V30 62347 H 6102.12 -1.23473 -0.74098 0
M  V30 62348 H 6104.07 -1.74247 -3.83687 0
M  V30 62349 H 6102.8 -0.678565 -3.19473 0
M  V30 62350 H 6101.46 -2.69109 -2.4895 0
M  V30 62351 H 6101.1 -1.66933 -4.74492 0
M  V30 62352 H 6100.8 -3.42511 -4.77452 0
M  V30 62353 H 6102.33 -2.77235 -5.44034 0
M  V30 62354 H 6103.74 -4.31575 -3.77381 0
M  V30 62355 H 6102.14 -4.98144 -3.34622 0
M  V30 62356 H 6103.21 -4.38816 -2.06321 0
M  V30 62357 N 6104.55 0.801406 -1.35703 0
M  V30 62358 C 6105.8 1.56105 -1.29457 0
M  V30 62359 C 6106.13 1.93769 0.129344 0
M  V30 62360 O 6105.41 1.61764 1.07994 0
M  V30 62361 C 6105.69 2.8462 -2.20598 0
M  V30 62362 C 6105.54 2.534 -3.71629 0
M  V30 62363 C 6106.86 3.86362 -2.10743 0
M  V30 62364 H 6103.98 0.566363 -0.471595 0
M  V30 62365 H 6106.62 0.921643 -1.6615 0
M  V30 62366 H 6104.77 3.39185 -1.89436 0
M  V30 62367 H 6106.45 2.04979 -4.13257 0
M  V30 62368 H 6104.69 1.86517 -3.91655 0
M  V30 62369 H 6105.36 3.45137 -4.30795 0
M  V30 62370 H 6107.84 3.41211 -2.38148 0
M  V30 62371 H 6106.71 4.74053 -2.76704 0
M  V30 62372 H 6106.97 4.28427 -1.09098 0
M  V30 62373 N 6106.03 1.19785 1.02417 0
M  V30 62374 C 6106.96 0.897619 2.10892 0
M  V30 62375 C 6107.98 -0.111587 1.62417 0
M  V30 62376 O 6109.17 0.118443 1.78107 0
M  V30 62377 C 6106.27 0.322833 3.37359 0
M  V30 62378 C 6105.44 1.38174 4.15002 0
M  V30 62379 C 6104.5 0.819645 5.19777 0
M  V30 62380 O 6103.52 1.4985 5.49121 0
M  V30 62381 N 6104.73 -0.374721 5.79289 0
M  V30 62382 H 6107.49 1.83136 2.37237 0
M  V30 62383 H 6105.05 1.10049 1.18747 0
M  V30 62384 H 6107.04 -0.0671623 4.04644 0
M  V30 62385 H 6105.61 -0.515292 3.08324 0
M  V30 62386 H 6104.83 1.94639 3.42797 0
M  V30 62387 H 6106.12 2.09512 4.63662 0
M  V30 62388 H 6105.52 -0.94366 5.57774 0
M  V30 62389 H 6104.08 -0.70644 6.4796 0
M  V30 62390 N 6107.51 -1.21603 1.00253 0
M  V30 62391 C 6108.42 -2.27568 0.570084 0
M  V30 62392 C 6109.44 -1.69671 -0.385728 0
M  V30 62393 O 6110.61 -1.9984 -0.250176 0
M  V30 62394 C 6107.68 -3.46559 -0.0989348 0
M  V30 62395 C 6106.74 -4.19738 0.901047 0
M  V30 62396 C 6105.97 -5.33047 0.26386 0
M  V30 62397 O 6106.19 -5.62602 -0.939934 0
M  V30 62398 O 6105.13 -5.93974 0.973551 0
M  V30 62399 H 6108.95 -2.66746 1.45191 0
M  V30 62400 H 6106.54 -1.27952 0.771269 0
M  V30 62401 H 6108.42 -4.18734 -0.473243 0
M  V30 62402 H 6107.1 -3.09286 -0.955176 0
M  V30 62403 H 6106 -3.49794 1.32647 0
M  V30 62404 H 6107.34 -4.60915 1.7268 0
M  V30 62405 N 6108.99 -0.776943 -1.37118 0
M  V30 62406 C 6110.23 -0.344134 -1.99859 0
M  V30 62407 C 6110.57 1.07801 -1.61532 0
M  V30 62408 O 6109.84 1.74255 -0.864024 0
M  V30 62409 C 6110.12 -0.493637 -3.567 0
M  V30 62410 C 6109.98 -1.95857 -4.0492 0
M  V30 62411 C 6111.3 0.0989424 -4.39989 0
M  V30 62412 H 6108.42 -0.126515 -0.72606 0
M  V30 62413 H 6111.06 -0.980956 -1.62718 0
M  V30 62414 H 6109.21 0.0484979 -3.8847 0
M  V30 62415 H 6110.88 -2.5608 -3.83693 0
M  V30 62416 H 6109.12 -2.46556 -3.56921 0
M  V30 62417 H 6109.79 -2.0142 -5.1394 0
M  V30 62418 H 6112.27 -0.363691 -4.14508 0
M  V30 62419 H 6111.15 -0.0357678 -5.48888 0
M  V30 62420 H 6111.41 1.1898 -4.25789 0
M  V30 62421 N 6110.47 1.48495 -0.527912 0
M  V30 62422 C 6111.74 1.9547 0.0712362 0
M  V30 62423 C 6112.12 1.4701 1.51497 0
M  V30 62424 O 6111.47 0.695686 2.17652 0
M  V30 62425 C 6111.68 3.48972 -0.0438774 0
M  V30 62426 C 6113.03 4.2444 0.116442 0
M  V30 62427 O 6114.05 3.56187 0.0300179 0
M  V30 62428 O 6112.91 5.45691 0.297299 0
M  V30 62429 H 6110.01 0.823078 0.080445 0
M  V30 62430 H 6112.55 1.59026 -0.592362 0
M  V30 62431 H 6111.32 3.76959 -1.04965 0
M  V30 62432 H 6110.95 3.92106 0.658665 0
M  V30 62433 N 6111.94 0.262948 1.55391 0
M  V30 62434 C 6112.87 -0.623653 2.25017 0
M  V30 62435 C 6113.85 -1.16861 1.23602 0
M  V30 62436 O 6115.04 -1.205 1.52294 0
M  V30 62437 C 6112.17 -1.81343 2.96196 0
M  V30 62438 C 6111.12 -1.40055 4.04436 0
M  V30 62439 C 6110.45 -2.67245 4.63125 0
M  V30 62440 C 6111.75 -0.559722 5.19292 0
M  V30 62441 H 6113.44 -0.0430254 2.99369 0
M  V30 62442 H 6110.99 -0.0192537 1.43987 0
M  V30 62443 H 6112.94 -2.43946 3.43611 0
M  V30 62444 H 6111.67 -2.4197 2.19359 0
M  V30 62445 H 6110.33 -0.797779 3.57814 0
M  V30 62446 H 6109.97 -3.26103 3.8297 0
M  V30 62447 H 6109.67 -2.40335 5.36202 0
M  V30 62448 H 6111.2 -3.30717 5.13282 0
M  V30 62449 H 6112.61 -1.09045 5.62834 0
M  V30 62450 H 6111.01 -0.386024 5.98857 0
M  V30 62451 H 6112.08 0.424369 4.83039 0
M  V30 62452 N 6113.42 -1.57597 -0.00995191 0
M  V30 62453 C 6114.37 -2.07792 -1.00455 0
M  V30 62454 C 6115.34 -0.971148 -1.34751 0
M  V30 62455 O 6116.52 -1.24295 -1.4476 0
M  V30 62456 C 6113.66 -2.57777 -2.29445 0
M  V30 62457 C 6112.78 -3.82318 -2.0114 0
M  V30 62458 C 6111.91 -4.20841 -3.24139 0
M  V30 62459 C 6110.95 -5.38246 -2.91475 0
M  V30 62460 N 6110.09 -5.72111 -4.06981 0
M  V30 62461 H 6114.93 -2.92506 -0.569572 0
M  V30 62462 H 6112.46 -1.44608 -0.269594 0
M  V30 62463 H 6114.42 -2.84832 -3.04839 0
M  V30 62464 H 6113.05 -1.75951 -2.70631 0
M  V30 62465 H 6112.1 -3.62231 -1.16158 0
M  V30 62466 H 6113.42 -4.67817 -1.73058 0
M  V30 62467 H 6112.57 -4.49126 -4.07886 0
M  V30 62468 H 6111.31 -3.34031 -3.55351 0
M  V30 62469 H 6110.31 -5.09695 -2.06133 0
M  V30 62470 H 6111.54 -6.26725 -2.6152 0
M  V30 62471 H 6109.49 -4.88259 -4.38109 0
M  V30 62472 H 6109.4 -6.52162 -3.82388 0
M  V30 62473 H 6110.67 -6.04982 -4.91546 0
M  V30 62474 N 6114.9 0.282551 -1.55046 0
M  V30 62475 C 6115.83 1.35341 -1.90277 0
M  V30 62476 C 6116.81 1.51998 -0.763585 0
M  V30 62477 O 6118 1.652 -1.02091 0
M  V30 62478 C 6115.13 2.71457 -2.1663 0
M  V30 62479 C 6114.08 2.69542 -3.32462 0
M  V30 62480 C 6113.41 4.0912 -3.44274 0
M  V30 62481 C 6114.71 2.29652 -4.69102 0
M  V30 62482 H 6116.4 1.06103 -2.79969 0
M  V30 62483 H 6113.95 0.50897 -1.34705 0
M  V30 62484 H 6115.9 3.46473 -2.39863 0
M  V30 62485 H 6114.62 3.02257 -1.23728 0
M  V30 62486 H 6113.28 1.96982 -3.09182 0
M  V30 62487 H 6112.93 4.37127 -2.48855 0
M  V30 62488 H 6112.63 4.08736 -4.22148 0
M  V30 62489 H 6114.15 4.8589 -3.69788 0
M  V30 62490 H 6115.57 2.94389 -4.91943 0
M  V30 62491 H 6113.96 2.40448 -5.49823 0
M  V30 62492 H 6115.03 1.24779 -4.6857 0
M  V30 62493 N 6116.38 1.47817 0.546623 0
M  V30 62494 C 6117.32 1.61097 1.65276 0
M  V30 62495 C 6118.29 0.453587 1.59787 0
M  V30 62496 O 6119.48 0.674985 1.78462 0
M  V30 62497 C 6116.62 1.64114 3.0358 0
M  V30 62498 C 6115.73 2.90844 3.19428 0
M  V30 62499 C 6114.87 2.85128 4.48191 0
M  V30 62500 C 6113.91 4.06635 4.57509 0
M  V30 62501 N 6113.04 3.99094 5.77641 0
M  V30 62502 H 6117.88 2.55566 1.53264 0
M  V30 62503 H 6115.42 1.26755 0.746433 0
M  V30 62504 H 6117.38 1.63845 3.8368 0
M  V30 62505 H 6116.01 0.731493 3.14403 0
M  V30 62506 H 6115.06 3.00932 2.32689 0
M  V30 62507 H 6116.37 3.80795 3.22175 0
M  V30 62508 H 6115.53 2.83168 5.36564 0
M  V30 62509 H 6114.27 1.92877 4.47939 0
M  V30 62510 H 6113.27 4.08889 3.67546 0
M  V30 62511 H 6114.5 5.00025 4.59512 0
M  V30 62512 H 6112.44 3.09653 5.78317 0
M  V30 62513 H 6112.36 4.82733 5.81812 0
M  V30 62514 H 6113.63 4.01166 6.68346 0
M  V30 62515 N 6117.86 -0.794198 1.36126 0
M  V30 62516 C 6119.09 -1.58063 1.3304 0
M  V30 62517 C 6119.49 -1.88979 -0.0914414 0
M  V30 62518 O 6118.84 -1.50216 -1.05739 0
M  V30 62519 C 6118.9 -2.93079 2.08194 0
M  V30 62520 C 6118.56 -2.84916 3.57312 0
M  V30 62521 C 6119.56 -2.57491 4.51657 0
M  V30 62522 C 6117.24 -3.03643 4.00132 0
M  V30 62523 C 6119.24 -2.48888 5.868 0
M  V30 62524 C 6116.93 -2.94663 5.35366 0
M  V30 62525 C 6117.92 -2.67322 6.28513 0
M  V30 62526 O 6117.61 -2.58326 7.61264 0
M  V30 62527 H 6117.34 -0.49708 0.458135 0
M  V30 62528 H 6119.9 -0.994002 1.79746 0
M  V30 62529 H 6118.13 -3.53774 1.56144 0
M  V30 62530 H 6119.82 -3.54316 1.98027 0
M  V30 62531 H 6120.58 -2.4273 4.1989 0
M  V30 62532 H 6116.46 -3.23932 3.28008 0
M  V30 62533 H 6120.01 -2.27468 6.59473 0
M  V30 62534 H 6115.9 -3.08985 5.66744 0
M  V30 62535 H 6116.67 -2.73843 7.71331 0
M  V30 62536 N 6119.33 -1.20327 -1.0178 0
M  V30 62537 C 6120.58 -1.01419 -1.75619 0
M  V30 62538 C 6120.91 0.452735 -1.88849 0
M  V30 62539 O 6120.19 1.33613 -1.41343 0
M  V30 62540 C 6120.47 -1.69697 -3.17608 0
M  V30 62541 C 6120.32 -3.23826 -3.1218 0
M  V30 62542 C 6121.64 -1.42906 -4.16252 0
M  V30 62543 H 6118.76 -0.369845 -0.637482 0
M  V30 62544 H 6121.4 -1.48324 -1.18744 0
M  V30 62545 H 6119.55 -1.29819 -3.66169 0
M  V30 62546 H 6121.23 -3.7299 -2.71433 0
M  V30 62547 H 6119.47 -3.54794 -2.49607 0
M  V30 62548 H 6120.14 -3.66755 -4.12546 0
M  V30 62549 H 6122.62 -1.775 -3.76342 0
M  V30 62550 H 6121.49 -1.93213 -5.1377 0
M  V30 62551 H 6121.75 -0.356418 -4.40661 0
M  V30 62552 N 6120.81 1.21069 -1.00896 0
M  V30 62553 C 6121.75 2.22255 -0.517496 0
M  V30 62554 C 6122.72 1.56785 0.430941 0
M  V30 62555 O 6123.91 1.8517 0.352735 0
M  V30 62556 C 6121.03 3.37792 0.247831 0
M  V30 62557 C 6120.08 4.21533 -0.649004 0
M  V30 62558 S 6120.91 4.92018 -2.11373 0
M  V30 62559 C 6122.07 6.10983 -1.35834 0
M  V30 62560 H 6122.3 2.63599 -1.37488 0
M  V30 62561 H 6119.84 1.30999 -0.817223 0
M  V30 62562 H 6121.79 4.04773 0.683311 0
M  V30 62563 H 6120.45 2.94924 1.08069 0
M  V30 62564 H 6119.65 5.03965 -0.0592854 0
M  V30 62565 H 6119.25 3.59767 -1.02193 0
M  V30 62566 H 6121.54 6.74524 -0.634316 0
M  V30 62567 H 6122.48 6.74399 -2.15852 0
M  V30 62568 H 6122.89 5.5784 -0.864577 0
M  V30 62569 N 6122.29 0.784204 1.36704 0
M  V30 62570 C 6123.22 0.137025 2.2879 0
M  V30 62571 C 6124.24 -0.650698 1.49231 0
M  V30 62572 O 6125.42 -0.486739 1.71736 0
M  V30 62573 C 6122.52 -0.82919 3.286 0
M  V30 62574 C 6121.7 -0.0926362 4.37302 0
M  V30 62575 C 6120.76 -0.974031 5.17106 0
M  V30 62576 O 6119.78 -0.4332 5.67549 0
M  V30 62577 N 6120.98 -2.29891 5.33039 0
M  V30 62578 H 6123.75 0.928006 2.8497 0
M  V30 62579 H 6121.31 0.637648 1.48814 0
M  V30 62580 H 6123.3 -1.42255 3.78874 0
M  V30 62581 H 6121.87 -1.52108 2.73097 0
M  V30 62582 H 6121.09 0.681752 3.8826 0
M  V30 62583 H 6122.38 0.415834 5.07098 0
M  V30 62584 H 6121.78 -2.76251 4.93662 0
M  V30 62585 H 6120.34 -2.84203 5.86576 0
M  V30 62586 N 6123.77 -1.48213 0.535779 0
M  V30 62587 C 6125.18 -1.86449 0.0968089 0
M  V30 62588 C 6125.53 -1.44474 -1.32747 0
M  V30 62589 O 6124.66 -0.838059 -1.99513 0
M  V30 62590 C 6125.25 -3.38379 0.16891 0
M  V30 62591 C 6123.81 -3.75786 -0.214898 0
M  V30 62592 C 6122.96 -2.72264 0.526091 0
M  V30 62593 H 6125.91 -1.40035 0.74671 0
M  V30 62594 H 6125.93 -3.75449 -0.617938 0
M  V30 62595 H 6125.44 -3.68899 1.20563 0
M  V30 62596 H 6123.54 -3.5088 -1.25354 0
M  V30 62597 H 6123.65 -4.78927 0.128747 0
M  V30 62598 H 6122.02 -2.54684 -0.0283325 0
M  V30 62599 H 6122.8 -3.05627 1.56355 0
M  V30 62600 N 6125.25 -0.271185 -1.55249 0
M  V30 62601 C 6126.52 0.398307 -1.91502 0
M  V30 62602 C 6126.9 1.74022 -1.19497 0
M  V30 62603 O 6126.25 2.26241 -0.320504 0
M  V30 62604 C 6126.46 0.542468 -3.44758 0
M  V30 62605 C 6127.81 0.82718 -4.16465 0
M  V30 62606 O 6128.83 0.627425 -3.50631 0
M  V30 62607 O 6127.69 1.20898 -5.3296 0
M  V30 62608 H 6124.79 0.217451 -0.7979 0
M  V30 62609 H 6127.33 -0.317047 -1.66712 0
M  V30 62610 H 6126.1 -0.402063 -3.89229 0
M  V30 62611 H 6125.73 1.30744 -3.75489 0
M  V30 62612 N 6126.72 1.576 0.00159402 0
M  V30 62613 C 6127.97 1.90122 0.685419 0
M  V30 62614 C 6128.29 0.872306 1.74401 0
M  V30 62615 O 6127.56 -0.0905032 1.95691 0
M  V30 62616 H 6126.14 0.701708 0.256153 0
M  V30 62617 H 6128.81 1.94861 -0.0389551 0
M  V30 62618 H 6127.9 2.89835 1.15768 0
M  V30 62619 N 6128.2 -0.274325 1.55194 0
M  V30 62620 C 6129.45 -1.00388 1.74943 0
M  V30 62621 C 6129.76 -1.87497 0.55715 0
M  V30 62622 O 6130.97 -2.63921 0.637029 0
M  V30 62623 C 6129.43 -1.83478 3.09619 0
M  V30 62624 C 6129.03 -1.01242 4.3641 0
M  V30 62625 C 6130.78 -2.55871 3.38718 0
M  V30 62626 C 6128.69 -1.83762 5.62126 0
M  V30 62627 H 6127.62 -0.378538 0.652093 0
M  V30 62628 H 6130.27 -0.259614 1.81654 0
M  V30 62629 H 6128.65 -2.61995 2.96942 0
M  V30 62630 H 6129.82 -0.271508 4.59999 0
M  V30 62631 H 6128.14 -0.403089 4.14444 0
M  V30 62632 H 6130.73 -3.18013 4.29851 0
M  V30 62633 H 6131.08 -3.26087 2.58791 0
M  V30 62634 H 6131.61 -1.84385 3.52487 0
M  V30 62635 H 6128.35 -1.1797 6.44797 0
M  V30 62636 H 6127.87 -2.55454 5.42682 0
M  V30 62637 H 6129.55 -2.4116 6.00376 0
M  V30 62638 N 6129.68 -1.48105 -0.538776 0
M  V30 62639 C 6130.64 -1.61501 -1.62635 0
M  V30 62640 C 6131.64 -0.488846 -1.53189 0
M  V30 62641 O 6132.83 -0.75441 -1.57017 0
M  V30 62642 C 6129.97 -1.57692 -3.02235 0
M  V30 62643 H 6131.16 -2.58468 -1.521 0
M  V30 62644 H 6128.71 -1.3657 -0.760153 0
M  V30 62645 H 6129.45 -0.621694 -3.18285 0
M  V30 62646 H 6129.23 -2.39441 -3.105 0
M  V30 62647 H 6130.72 -1.70242 -3.81323 0
M  V30 62648 N 6131.16 0.786968 -1.36545 0
M  V30 62649 C 6132.4 1.54723 -1.31105 0
M  V30 62650 C 6132.74 1.93895 0.108785 0
M  V30 62651 O 6132.01 1.629 1.06273 0
M  V30 62652 C 6132.3 2.82264 -2.23604 0
M  V30 62653 C 6132.15 2.49444 -3.74296 0
M  V30 62654 C 6133.47 3.84105 -2.14829 0
M  V30 62655 H 6130.59 0.56133 -0.477575 0
M  V30 62656 H 6133.23 0.903968 -1.67118 0
M  V30 62657 H 6131.38 3.37157 -1.93022 0
M  V30 62658 H 6133.05 2.00584 -4.15408 0
M  V30 62659 H 6131.29 1.82352 -3.93612 0
M  V30 62660 H 6131.96 3.40548 -4.34432 0
M  V30 62661 H 6134.44 3.38666 -2.41753 0
M  V30 62662 H 6133.32 4.71091 -2.81717 0
M  V30 62663 H 6133.58 4.27246 -1.13636 0
M  V30 62664 N 6132.64 1.20865 1.01141 0
M  V30 62665 C 6133.91 0.9309 1.72028 0
M  V30 62666 C 6134.29 -0.558979 2.03565 0
M  V30 62667 O 6133.64 -1.52208 1.70426 0
M  V30 62668 C 6133.85 1.80931 2.98438 0
M  V30 62669 C 6135.2 2.05428 3.71597 0
M  V30 62670 O 6136.22 1.78227 3.08405 0
M  V30 62671 O 6135.08 2.51397 4.85244 0
M  V30 62672 H 6132.18 0.348514 0.749978 0
M  V30 62673 H 6134.72 1.31763 1.06942 0
M  V30 62674 H 6133.49 2.81792 2.71493 0
M  V30 62675 H 6133.12 1.42298 3.71264 0
M  V30 62676 N 6134.12 -1.20532 1.01537 0
M  V30 62677 C 6135.36 -1.90428 0.714749 0
M  V30 62678 C 6135.72 -1.77292 -0.74735 0
M  V30 62679 O 6135.01 -1.14555 -1.53583 0
M  V30 62680 C 6135.2 -3.40574 1.0837 0
M  V30 62681 C 6135.03 -3.68321 2.58011 0
M  V30 62682 C 6133.8 -3.87103 3.24775 0
M  V30 62683 C 6136 -3.70983 3.56196 0
M  V30 62684 N 6133.98 -4.02358 4.6366 0
M  V30 62685 C 6135.35 -3.91647 4.80638 0
M  V30 62686 C 6137.41 -3.53941 3.50186 0
M  V30 62687 C 6136.11 -3.97035 5.99796 0
M  V30 62688 C 6138.14 -3.60599 4.68746 0
M  V30 62689 C 6137.5 -3.81734 5.91995 0
M  V30 62690 H 6133.6 -0.716543 0.313194 0
M  V30 62691 H 6136.18 -1.44947 1.29994 0
M  V30 62692 H 6134.35 -3.8481 0.526853 0
M  V30 62693 H 6136.09 -3.97937 0.736739 0
M  V30 62694 H 6132.84 -3.85435 2.75204 0
M  V30 62695 H 6133.26 -4.13865 5.35766 0
M  V30 62696 H 6137.91 -3.36567 2.55895 0
M  V30 62697 H 6135.62 -4.13204 6.94469 0
M  V30 62698 H 6139.21 -3.48721 4.65709 0
M  V30 62699 H 6138.09 -3.86744 6.82201 0
M  V30 62700 N 6135.59 -0.791442 -1.36286 0
M  V30 62701 C 6136.84 -0.365312 -1.99483 0
M  V30 62702 C 6137.17 1.06081 -1.62667 0
M  V30 62703 O 6136.45 1.73329 -0.882457 0
M  V30 62704 C 6136.73 -0.531442 -3.56157 0
M  V30 62705 C 6136.58 -2.0014 -4.0282 0
M  V30 62706 C 6137.9 0.0522701 -4.40069 0
M  V30 62707 H 6135.02 -0.134209 -0.724677 0
M  V30 62708 H 6137.66 -0.998159 -1.61669 0
M  V30 62709 H 6135.81 0.00729272 -3.88499 0
M  V30 62710 H 6137.49 -2.60136 -3.80956 0
M  V30 62711 H 6135.73 -2.50328 -3.54286 0
M  V30 62712 H 6136.4 -2.0686 -5.11774 0
M  V30 62713 H 6138.88 -0.407634 -4.14098 0
M  V30 62714 H 6137.75 -0.0939827 -5.4882 0
M  V30 62715 H 6138.01 1.14457 -4.27027 0
M  V30 62716 N 6137.07 1.47927 -0.543632 0
M  V30 62717 C 6138.32 2.02095 -0.014509 0
M  V30 62718 C 6138.64 1.4217 1.33464 0
M  V30 62719 O 6137.91 0.591965 1.86742 0
M  V30 62720 H 6136.49 0.746996 -0.00237484 0
M  V30 62721 H 6139.15 1.81486 -0.710562 0
M  V30 62722 H 6138.25 3.11988 0.0836978 0
M  V30 62723 N 6138.55 0.279414 1.55103 0
M  V30 62724 C 6139.97 -0.0746089 1.59426 0
M  V30 62725 C 6140.17 -1.54241 1.29661 0
M  V30 62726 O 6139.22 -2.29194 1.05955 0
M  V30 62727 C 6140.53 0.303895 2.9916 0
M  V30 62728 C 6142.08 0.250868 3.11993 0
M  V30 62729 C 6142.56 0.603875 4.54001 0
M  V30 62730 N 6144.05 0.55559 4.59856 0
M  V30 62731 C 6144.78 0.801477 5.67771 0
M  V30 62732 N 6144.28 1.11221 6.83814 0
M  V30 62733 N 6146.07 0.729986 5.5734 0
M  V30 62734 H 6138.22 1.23625 1.72715 0
M  V30 62735 H 6140.49 0.499732 0.805588 0
M  V30 62736 H 6140.19 1.32487 3.25792 0
M  V30 62737 H 6140.07 -0.353162 3.75543 0
M  V30 62738 H 6142.45 -0.760825 2.85124 0
M  V30 62739 H 6142.53 0.942244 2.37814 0
M  V30 62740 H 6142.18 1.61327 4.81597 0
M  V30 62741 H 6142.11 -0.109338 5.26486 0
M  V30 62742 H 6144.6 0.32548 3.76496 0
M  V30 62743 H 6144.91 1.28638 7.62018 0
M  V30 62744 H 6143.26 1.15002 6.85419 0
M  V30 62745 H 6146.45 0.487043 4.65559 0
M  V30 62746 H 6146.62 0.924996 6.41364 0
M  V30 62747 N 6140.03 -1.57599 0.00676391 0
M  V30 62748 C 6140.98 -2.05331 -0.991122 0
M  V30 62749 C 6141.96 -0.949348 -1.29908 0
M  V30 62750 O 6143.15 -1.21307 -1.28893 0
M  V30 62751 C 6140.28 -2.56571 -2.28093 0
M  V30 62752 C 6139.37 -3.73856 -2.00231 0
M  V30 62753 N 6139.76 -4.85296 -1.42553 0
M  V30 62754 C 6138.06 -3.81916 -2.3034 0
M  V30 62755 C 6138.76 -5.66684 -1.31316 0
M  V30 62756 N 6137.73 -5.12896 -1.80109 0
M  V30 62757 H 6141.54 -2.88901 -0.539776 0
M  V30 62758 H 6139.05 -1.61179 -0.198778 0
M  V30 62759 H 6141.05 -2.89046 -3.0043 0
M  V30 62760 H 6139.71 -1.74422 -2.73874 0
M  V30 62761 H 6140.72 -5.06008 -1.10345 0
M  V30 62762 H 6137.4 -3.10634 -2.78949 0
M  V30 62763 H 6138.79 -6.66256 -0.869067 0
M  V30 62764 N 6141.51 0.266091 -1.55337 0
M  V30 62765 C 6142.75 0.994587 -1.75473 0
M  V30 62766 C 6143.07 1.87199 -0.567086 0
M  V30 62767 O 6144.27 2.63579 -0.651017 0
M  V30 62768 C 6142.73 1.81833 -3.10588 0
M  V30 62769 C 6142.34 0.989259 -4.36941 0
M  V30 62770 C 6144.08 2.54072 -3.4007 0
M  V30 62771 C 6141.99 1.80779 -5.63092 0
M  V30 62772 H 6140.92 0.375074 -0.654091 0
M  V30 62773 H 6143.57 0.249976 -1.81789 0
M  V30 62774 H 6141.95 2.60417 -2.98327 0
M  V30 62775 H 6143.13 0.247109 -4.60137 0
M  V30 62776 H 6141.44 0.381104 -4.14652 0
M  V30 62777 H 6144.04 3.15729 -4.31531 0
M  V30 62778 H 6144.38 3.2471 -2.60517 0
M  V30 62779 H 6144.91 1.82513 -3.5346 0
M  V30 62780 H 6141.65 1.14549 -6.45414 0
M  V30 62781 H 6141.17 2.52573 -5.44029 0
M  V30 62782 H 6142.85 2.37972 -6.01646 0
M  V30 62783 N 6142.98 1.48388 0.530914 0
M  V30 62784 C 6144.21 1.59786 1.30965 0
M  V30 62785 C 6144.62 0.256896 1.87448 0
M  V30 62786 O 6143.96 -0.763786 1.67069 0
M  V30 62787 C 6144.03 2.5844 2.49898 0
M  V30 62788 C 6143.69 4.03528 2.14509 0
M  V30 62789 C 6144.69 4.91239 1.70237 0
M  V30 62790 C 6142.37 4.49058 2.25061 0
M  V30 62791 C 6144.37 6.22507 1.36981 0
M  V30 62792 C 6142.05 5.80347 1.91417 0
M  V30 62793 C 6143.05 6.66894 1.47448 0
M  V30 62794 O 6142.74 7.95741 1.14244 0
M  V30 62795 H 6142.47 0.541572 0.404569 0
M  V30 62796 H 6145.03 1.94934 0.647281 0
M  V30 62797 H 6143.26 2.18411 3.19113 0
M  V30 62798 H 6144.94 2.59683 3.11961 0
M  V30 62799 H 6145.71 4.57301 1.61556 0
M  V30 62800 H 6141.59 3.81881 2.5824 0
M  V30 62801 H 6145.13 6.90015 1.02589 0
M  V30 62802 H 6141.03 6.1382 1.99738 0
M  V30 62803 H 6141.8 8.08485 1.2765 0
M  V30 62804 N 6144.46 -0.779715 1.36961 0
M  V30 62805 C 6145.71 -1.53951 1.32931 0
M  V30 62806 C 6146.06 -1.92199 -0.0879786 0
M  V30 62807 O 6145.36 -1.60607 -1.04479 0
M  V30 62808 C 6145.55 -2.82068 2.19483 0
M  V30 62809 C 6145.38 -2.56341 3.69485 0
M  V30 62810 C 6144.15 -2.50871 4.38625 0
M  V30 62811 C 6146.35 -2.24878 4.6253 0
M  V30 62812 N 6144.33 -2.17145 5.74214 0
M  V30 62813 C 6145.7 -2.01223 5.86438 0
M  V30 62814 C 6147.75 -2.10966 4.50996 0
M  V30 62815 C 6146.46 -1.65062 7.00105 0
M  V30 62816 C 6148.48 -1.76205 5.6454 0
M  V30 62817 C 6147.85 -1.53404 6.87493 0
M  V30 62818 H 6143.94 -0.563982 0.541709 0
M  V30 62819 H 6146.53 -0.910358 1.72106 0
M  V30 62820 H 6144.7 -3.42834 1.82536 0
M  V30 62821 H 6146.43 -3.47891 2.0677 0
M  V30 62822 H 6143.19 -2.66452 3.91536 0
M  V30 62823 H 6143.61 -2.03001 6.45848 0
M  V30 62824 H 6148.25 -2.2728 3.56516 0
M  V30 62825 H 6145.97 -1.47487 7.94527 0
M  V30 62826 H 6149.56 -1.6611 5.57583 0
M  V30 62827 H 6148.44 -1.26903 7.73864 0
M  V30 62828 N 6145.94 -1.21399 -1.00498 0
M  V30 62829 C 6147.16 -1.05797 -1.78387 0
M  V30 62830 C 6147.59 0.387856 -1.84058 0
M  V30 62831 O 6146.95 1.27979 -1.28418 0
M  V30 62832 C 6147 -1.65978 -3.20131 0
M  V30 62833 O 6146.1 -0.905264 -4.02342 0
M  V30 62834 H 6145.44 -0.37235 -0.549774 0
M  V30 62835 H 6147.97 -1.60942 -1.26328 0
M  V30 62836 H 6147.98 -1.702 -3.70805 0
M  V30 62837 H 6146.66 -2.71197 -3.15318 0
M  V30 62838 H 6145.23 -0.938146 -3.60906 0
M  V30 62839 N 6147.42 1.19992 -1.02175 0
M  V30 62840 C 6148.69 1.85212 -0.628959 0
M  V30 62841 C 6149.07 1.91295 0.892717 0
M  V30 62842 O 6148.42 1.42462 1.78653 0
M  V30 62843 C 6148.63 3.24572 -1.28274 0
M  V30 62844 C 6149.98 4.00805 -1.40145 0
M  V30 62845 O 6151 3.33944 -1.23935 0
M  V30 62846 O 6149.86 5.20555 -1.66387 0
M  V30 62847 H 6146.96 0.797834 -0.217692 0
M  V30 62848 H 6149.5 1.2754 -1.11945 0
M  V30 62849 H 6148.28 3.14939 -2.32227 0
M  V30 62850 H 6147.9 3.89881 -0.779657 0
M  V30 62851 N 6148.9 0.798659 1.35865 0
M  V30 62852 C 6150.14 0.375886 1.99286 0
M  V30 62853 C 6150.48 -1.05217 1.63227 0
M  V30 62854 O 6149.75 -1.72859 0.891637 0
M  V30 62855 C 6150.03 0.550322 3.5587 0
M  V30 62856 C 6149.89 2.02274 4.01753 0
M  V30 62857 C 6151.21 -0.0289314 4.4009 0
M  V30 62858 H 6148.32 0.13805 0.723955 0
M  V30 62859 H 6150.97 1.00672 1.61137 0
M  V30 62860 H 6149.12 0.0133104 3.88498 0
M  V30 62861 H 6150.79 2.62152 3.79571 0
M  V30 62862 H 6149.03 2.52203 3.52953 0
M  V30 62863 H 6149.7 2.09571 5.1067 0
M  V30 62864 H 6152.18 0.429589 4.13876 0
M  V30 62865 H 6151.05 0.123087 5.48762 0
M  V30 62866 H 6151.32 -1.12191 4.27628 0
M  V30 62867 N 6150.37 -1.47637 0.551469 0
M  V30 62868 C 6151.32 -2.29937 -0.199433 0
M  V30 62869 C 6152.29 -1.38707 -0.913763 0
M  V30 62870 O 6153.48 -1.67669 -0.910584 0
M  V30 62871 C 6150.62 -3.22548 -1.22705 0
M  V30 62872 C 6149.73 -4.28867 -0.519376 0
M  V30 62873 C 6148.86 -5.08635 -1.53179 0
M  V30 62874 C 6147.9 -6.06733 -0.808768 0
M  V30 62875 N 6147.04 -6.79482 -1.76774 0
M  V30 62876 H 6151.88 -2.93629 0.508517 0
M  V30 62877 H 6149.42 -1.44737 0.262603 0
M  V30 62878 H 6151.38 -3.7466 -1.83538 0
M  V30 62879 H 6150.01 -2.60733 -1.90311 0
M  V30 62880 H 6149.06 -3.79856 0.20335 0
M  V30 62881 H 6150.37 -4.98778 0.0472977 0
M  V30 62882 H 6149.52 -5.64868 -2.2138 0
M  V30 62883 H 6148.26 -4.38613 -2.13238 0
M  V30 62884 H 6147.27 -5.49684 -0.112798 0
M  V30 62885 H 6148.49 -6.78763 -0.214 0
M  V30 62886 H 6146.44 -6.12194 -2.35701 0
M  V30 62887 H 6146.36 -7.45543 -1.25306 0
M  V30 62888 H 6147.62 -7.40292 -2.44107 0
M  V30 62889 N 6151.85 -0.287636 -1.54953 0
M  V30 62890 C 6152.8 0.610236 -2.24452 0
M  V30 62891 C 6153.79 1.14781 -1.24586 0
M  V30 62892 O 6155 1.1 -1.42478 0
M  V30 62893 H 6151.38 0.215368 -0.7205 0
M  V30 62894 H 6153.35 0.0013763 -2.984 0
M  V30 62895 C 6152.1 1.77709 -2.98856 0
M  V30 62896 H 6151.42 1.37264 -3.75498 0
M  V30 62897 H 6152.86 2.38169 -3.50787 0
M  V30 62898 C 6151.32 2.67314 -2.05048 0
M  V30 62899 O 6151.85 3.68033 -1.60981 0
M  V30 62900 N 6150.05 2.34755 -1.71284 0
M  V30 62901 H 6149.6 1.52898 -2.07316 0
M  V30 62902 H 6149.56 2.94978 -1.08791 0
M  V30 62903 N 6153.33 1.57593 -0.0151216 0
M  V30 62904 C 6154.28 2.09363 0.971369 0
M  V30 62905 C 6155.25 0.992463 1.33189 0
M  V30 62906 O 6156.43 1.26582 1.42764 0
M  V30 62907 C 6153.57 2.61394 2.25315 0
M  V30 62908 C 6152.69 3.85469 1.95032 0
M  V30 62909 C 6151.82 4.25945 3.17403 0
M  V30 62910 C 6150.86 5.42815 2.82875 0
M  V30 62911 N 6150 5.78513 3.97828 0
M  V30 62912 H 6154.84 2.93375 0.522964 0
M  V30 62913 H 6152.37 1.45019 0.246554 0
M  V30 62914 H 6154.33 2.89645 3.00269 0
M  V30 62915 H 6152.96 1.80234 2.67797 0
M  V30 62916 H 6152.01 3.64033 1.10381 0
M  V30 62917 H 6153.33 4.70511 1.65593 0
M  V30 62918 H 6152.48 4.55558 4.00689 0
M  V30 62919 H 6151.22 3.39642 3.49992 0
M  V30 62920 H 6150.22 5.1291 1.97998 0
M  V30 62921 H 6151.45 6.30806 2.51517 0
M  V30 62922 H 6149.39 4.95167 4.30286 0
M  V30 62923 H 6149.31 6.58163 3.71965 0
M  V30 62924 H 6150.58 6.12725 4.81859 0
M  V30 62925 N 6154.81 -0.257849 1.55476 0
M  V30 62926 C 6156.22 -0.605819 1.47655 0
M  V30 62927 C 6156.42 -1.88834 0.703129 0
M  V30 62928 O 6155.48 -2.51468 0.228069 0
M  V30 62929 C 6156.79 -0.71871 2.91985 0
M  V30 62930 C 6158.34 -0.811764 3.0229 0
M  V30 62931 C 6158.82 -0.956308 4.47905 0
M  V30 62932 N 6160.31 -1.02145 4.51797 0
M  V30 62933 C 6161.04 -1.15237 5.61701 0
M  V30 62934 N 6160.54 -1.24951 6.81439 0
M  V30 62935 N 6162.33 -1.18466 5.49474 0
M  V30 62936 H 6154.48 0.584226 2.04207 0
M  V30 62937 H 6156.75 0.200078 0.926646 0
M  V30 62938 H 6156.45 0.153473 3.51365 0
M  V30 62939 H 6156.33 -1.59417 3.41857 0
M  V30 62940 H 6158.71 -1.67441 2.42997 0
M  V30 62941 H 6158.79 0.0886206 2.55646 0
M  V30 62942 H 6158.44 -0.0982653 5.07805 0
M  V30 62943 H 6158.37 -1.87157 4.92219 0
M  V30 62944 H 6160.86 -0.958166 3.65551 0
M  V30 62945 H 6161.17 -1.34816 7.6095 0
M  V30 62946 H 6159.52 -1.21928 6.84221 0
M  V30 62947 H 6162.71 -1.10518 4.54866 0
M  V30 62948 H 6162.88 -1.28324 6.35167 0
M  V30 62949 N 6156.29 -1.48668 -0.523038 0
M  V30 62950 C 6157.54 -1.56291 -1.275 0
M  V30 62951 C 6157.85 -0.244842 -1.94062 0
M  V30 62952 O 6159.05 -0.199384 -2.70767 0
M  V30 62953 C 6157.51 -2.75662 -2.31384 0
M  V30 62954 C 6157.12 -4.14139 -1.7086 0
M  V30 62955 C 6158.86 -2.92602 -3.07545 0
M  V30 62956 C 6156.77 -5.24762 -2.72725 0
M  V30 62957 H 6155.7 -0.581859 -0.479537 0
M  V30 62958 H 6158.35 -1.75015 -0.551549 0
M  V30 62959 H 6156.73 -2.50386 -3.06794 0
M  V30 62960 H 6157.91 -4.49462 -1.01591 0
M  V30 62961 H 6156.22 -4.02373 -1.07166 0
M  V30 62962 H 6158.82 -3.72417 -3.83679 0
M  V30 62963 H 6159.16 -2.02321 -3.6383 0
M  V30 62964 H 6159.69 -3.17812 -2.3925 0
M  V30 62965 H 6156.43 -6.17032 -2.21251 0
M  V30 62966 H 6155.95 -4.93919 -3.403 0
M  V30 62967 H 6157.63 -5.53169 -3.35578 0
M  V30 62968 N 6157.76 0.772441 -1.37372 0
M  V30 62969 C 6158.67 1.91675 -1.3527 0
M  V30 62970 C 6159.69 1.7216 -0.252382 0
M  V30 62971 O 6160.87 1.95407 -0.487649 0
M  V30 62972 C 6157.93 3.26788 -1.15803 0
M  V30 62973 C 6156.99 3.58962 -2.35468 0
M  V30 62974 C 6156.23 4.87628 -2.1692 0
M  V30 62975 O 6156.45 5.58623 -1.15311 0
M  V30 62976 O 6155.38 5.18848 -3.05091 0
M  V30 62977 H 6159.21 1.964 -2.31648 0
M  V30 62978 H 6156.79 0.915095 -1.18095 0
M  V30 62979 H 6158.68 4.07607 -1.06932 0
M  V30 62980 H 6157.35 3.22917 -0.224985 0
M  V30 62981 H 6156.26 2.7838 -2.49911 0
M  V30 62982 H 6157.59 3.67575 -3.27337 0
M  V30 62983 N 6159.24 1.21931 0.998532 0
M  V30 62984 C 6160.49 1.042 1.73983 0
M  V30 62985 C 6160.82 -0.422633 1.89545 0
M  V30 62986 O 6160.1 -1.31348 1.43451 0
M  V30 62987 C 6160.38 1.74728 3.14868 0
M  V30 62988 C 6160.23 3.28752 3.06989 0
M  V30 62989 C 6161.55 1.4951 4.13926 0
M  V30 62990 H 6158.67 0.37994 0.631518 0
M  V30 62991 H 6161.31 1.50194 1.16369 0
M  V30 62992 H 6159.46 1.35628 3.64057 0
M  V30 62993 H 6161.13 3.77261 2.65465 0
M  V30 62994 H 6159.38 3.5872 2.43931 0
M  V30 62995 H 6160.05 3.73272 4.06659 0
M  V30 62996 H 6162.52 1.83464 3.7347 0
M  V30 62997 H 6161.4 2.01362 5.10632 0
M  V30 62998 H 6161.66 0.426478 4.40038 0
M  V30 62999 N 6160.72 -1.19449 1.02809 0
M  V30 63000 C 6161.68 -2.20855 0.612835 0
M  V30 63001 C 6162.68 -1.5752 -0.323127 0
M  V30 63002 O 6163.87 -1.73851 -0.110242 0
M  V30 63003 C 6161.01 -3.40743 -0.103369 0
M  V30 63004 H 6162.2 -2.59108 1.51007 0
M  V30 63005 H 6159.75 -1.33113 0.819188 0
M  V30 63006 H 6160.49 -3.08007 -1.01499 0
M  V30 63007 H 6160.27 -3.87947 0.569166 0
M  V30 63008 H 6161.76 -4.1586 -0.380851 0
M  V30 63009 N 6162.2 -0.805853 -1.35439 0
M  V30 63010 C 6163.15 -0.213713 -2.29808 0
M  V30 63011 C 6164.12 0.651824 -1.52776 0
M  V30 63012 O 6165.3 0.59706 -1.81218 0
M  V30 63013 C 6162.44 0.632325 -3.39258 0
M  V30 63014 C 6161.55 -0.253565 -4.31255 0
M  V30 63015 C 6160.69 0.600408 -5.27796 0
M  V30 63016 C 6159.73 -0.285926 -6.11432 0
M  V30 63017 N 6158.86 0.527976 -7.00112 0
M  V30 63018 H 6163.7 -1.02388 -2.79858 0
M  V30 63019 H 6161.24 -0.516446 -1.37736 0
M  V30 63020 H 6163.2 1.13799 -4.0138 0
M  V30 63021 H 6161.83 1.40776 -2.90486 0
M  V30 63022 H 6160.88 -0.877332 -3.70145 0
M  V30 63023 H 6162.19 -0.935804 -4.89943 0
M  V30 63024 H 6161.35 1.17124 -5.95287 0
M  V30 63025 H 6160.09 1.31622 -4.69603 0
M  V30 63026 H 6159.09 -0.869034 -5.42888 0
M  V30 63027 H 6160.32 -0.999585 -6.71703 0
M  V30 63028 H 6158.26 1.22777 -6.44408 0
M  V30 63029 H 6158.18 -0.0962316 -7.55939 0
M  V30 63030 H 6159.45 1.08211 -7.71953 0
M  V30 63031 N 6163.68 1.47342 -0.559291 0
M  V30 63032 C 6164.61 2.3284 0.17546 0
M  V30 63033 C 6165.59 1.43918 0.906737 0
M  V30 63034 O 6166.77 1.7277 0.886794 0
M  V30 63035 C 6163.9 3.25739 1.20462 0
M  V30 63036 C 6162.86 4.23918 0.589676 0
M  V30 63037 C 6162.18 5.06157 1.72362 0
M  V30 63038 C 6163.48 5.20289 -0.457916 0
M  V30 63039 H 6165.18 2.94521 -0.538329 0
M  V30 63040 H 6162.72 1.41627 -0.260332 0
M  V30 63041 H 6164.68 3.84394 1.72682 0
M  V30 63042 H 6163.4 2.62118 1.94838 0
M  V30 63043 H 6162.06 3.66493 0.0887609 0
M  V30 63044 H 6161.71 4.38938 2.45647 0
M  V30 63045 H 6161.41 5.72629 1.31793 0
M  V30 63046 H 6162.93 5.67671 2.24904 0
M  V30 63047 H 6164.35 5.73296 -0.0217034 0
M  V30 63048 H 6162.74 5.94975 -0.78261 0
M  V30 63049 H 6163.81 4.65641 -1.35303 0
M  V30 63050 N 6165.16 0.295849 1.54798 0
M  V30 63051 C 6166.43 -0.36779 1.92111 0
M  V30 63052 C 6166.81 -1.72099 1.2225 0
M  V30 63053 O 6166.16 -2.25703 0.356457 0
M  V30 63054 C 6166.37 -0.487551 3.45578 0
M  V30 63055 C 6167.72 -0.760819 4.17728 0
M  V30 63056 O 6168.74 -0.571563 3.51584 0
M  V30 63057 O 6167.6 -1.12404 5.34816 0
M  V30 63058 H 6164.7 -0.20473 0.801258 0
M  V30 63059 H 6167.24 0.343529 1.66187 0
M  V30 63060 H 6166.01 0.463935 3.8854 0
M  V30 63061 H 6165.64 -1.24754 3.77521 0
M  V30 63062 N 6166.63 -1.57583 0.023479 0
M  V30 63063 C 6167.88 -1.91189 -0.655085 0
M  V30 63064 C 6168.2 -0.899941 -1.72991 0
M  V30 63065 O 6167.47 0.059359 -1.9581 0
M  V30 63066 H 6166.05 -0.705695 -0.244957 0
M  V30 63067 H 6168.71 -1.94774 0.0699509 0
M  V30 63068 H 6167.81 -2.9164 -1.11142 0
M  V30 63069 N 6168.11 0.2496 -1.55611 0
M  V30 63070 C 6169.53 0.59798 -1.47974 0
M  V30 63071 C 6169.73 1.88459 -0.713134 0
M  V30 63072 O 6168.78 2.51343 -0.241402 0
M  V30 63073 C 6170.1 0.703215 -2.92362 0
M  V30 63074 C 6171.64 0.795721 -3.02716 0
M  V30 63075 C 6172.12 0.932541 -4.48406 0
M  V30 63076 N 6173.61 0.997479 -4.52332 0
M  V30 63077 C 6174.35 1.12256 -5.62304 0
M  V30 63078 N 6173.84 1.21335 -6.82092 0
M  V30 63079 N 6175.63 1.1555 -5.50095 0
M  V30 63080 H 6167.79 -0.595047 -2.03894 0
M  V30 63081 H 6170.05 -0.204989 -0.925572 0
M  V30 63082 H 6169.75 -0.172105 -3.51279 0
M  V30 63083 H 6169.63 1.57602 -3.42697 0
M  V30 63084 H 6172.02 1.6615 -2.43882 0
M  V30 63085 H 6172.1 -0.102177 -2.55596 0
M  V30 63086 H 6171.74 0.0713338 -5.0785 0
M  V30 63087 H 6171.67 1.84544 -4.93205 0
M  V30 63088 H 6174.16 0.938766 -3.66054 0
M  V30 63089 H 6174.47 1.30779 -7.61654 0
M  V30 63090 H 6172.82 1.18298 -6.84858 0
M  V30 63091 H 6176.01 1.08104 -4.55446 0
M  V30 63092 H 6176.18 1.24954 -6.35838 0
M  V30 63093 N 6169.59 1.48943 0.515146 0
M  V30 63094 C 6170.82 1.61166 1.29263 0
M  V30 63095 C 6171.23 0.276763 1.87165 0
M  V30 63096 O 6170.57 -0.746023 1.6787 0
M  V30 63097 C 6170.63 2.61076 2.47143 0
M  V30 63098 C 6170.3 4.0578 2.10217 0
M  V30 63099 C 6171.29 4.93016 1.65018 0
M  V30 63100 C 6168.98 4.51419 2.20286 0
M  V30 63101 C 6170.97 6.23925 1.30371 0
M  V30 63102 C 6168.66 5.82345 1.85251 0
M  V30 63103 C 6169.66 6.68421 1.40366 0
M  V30 63104 O 6169.35 7.96908 1.05798 0
M  V30 63105 H 6169.08 0.545832 0.398802 0
M  V30 63106 H 6171.63 1.9561 0.626569 0
M  V30 63107 H 6169.86 2.21784 3.16779 0
M  V30 63108 H 6171.55 2.62977 3.09189 0
M  V30 63109 H 6172.32 4.58989 1.56697 0
M  V30 63110 H 6168.2 3.84598 2.54175 0
M  V30 63111 H 6171.74 6.91065 0.952649 0
M  V30 63112 H 6167.64 6.15904 1.93217 0
M  V30 63113 H 6168.4 8.09793 1.19068 0
M  V30 63114 N 6171.07 -0.765145 1.3778 0
M  V30 63115 C 6172.48 -1.06662 1.18724 0
M  V30 63116 C 6172.68 -2.01481 0.0279344 0
M  V30 63117 O 6171.74 -2.44516 -0.62992 0
M  V30 63118 C 6173.05 -1.65779 2.50874 0
M  V30 63119 C 6174.6 -1.78005 2.57455 0
M  V30 63120 C 6175.08 -2.40535 3.89753 0
M  V30 63121 N 6176.57 -2.47978 3.9123 0
M  V30 63122 C 6177.3 -2.97228 4.9035 0
M  V30 63123 N 6176.8 -3.466 5.99867 0
M  V30 63124 N 6178.59 -2.96163 4.77749 0
M  V30 63125 H 6170.74 -0.1357 2.11966 0
M  V30 63126 H 6173 -0.12283 0.940009 0
M  V30 63127 H 6172.71 -1.03576 3.36103 0
M  V30 63128 H 6172.58 -2.64991 2.6844 0
M  V30 63129 H 6174.97 -2.39339 1.7263 0
M  V30 63130 H 6175.05 -0.775302 2.43768 0
M  V30 63131 H 6174.7 -1.79838 4.74995 0
M  V30 63132 H 6174.63 -3.41629 4.00746 0
M  V30 63133 H 6177.12 -2.13045 3.12122 0
M  V30 63134 H 6177.43 -3.82602 6.71443 0
M  V30 63135 H 6175.78 -3.44688 6.03503 0
M  V30 63136 H 6178.97 -2.56895 3.91309 0
M  V30 63137 H 6179.14 -3.34234 5.5515 0
M  V30 63138 N 6172.55 -1.22459 -0.992051 0
M  V30 63139 C 6173.49 -0.995413 -2.08231 0
M  V30 63140 C 6174.46 0.0831481 -1.65892 0
M  V30 63141 O 6175.65 -0.0666138 -1.90684 0
M  V30 63142 C 6172.79 -0.580175 -3.40188 0
M  V30 63143 C 6171.9 -1.7296 -3.95865 0
M  V30 63144 C 6171.04 -1.26226 -5.15985 0
M  V30 63145 C 6170.07 -2.38318 -5.63801 0
M  V30 63146 N 6169.21 -1.92625 -6.75159 0
M  V30 63147 H 6174.05 -1.92869 -2.27169 0
M  V30 63148 H 6171.59 -0.960988 -1.11371 0
M  V30 63149 H 6173.55 -0.320594 -4.15966 0
M  V30 63150 H 6172.18 0.316095 -3.21249 0
M  V30 63151 H 6171.23 -2.10348 -3.16951 0
M  V30 63152 H 6172.54 -2.57272 -4.27332 0
M  V30 63153 H 6171.69 -0.960114 -5.99055 0
M  V30 63154 H 6170.43 -0.389355 -4.86143 0
M  V30 63155 H 6169.44 -2.69321 -4.79319 0
M  V30 63156 H 6170.66 -3.26126 -5.95667 0
M  V30 63157 H 6168.61 -1.07698 -6.47099 0
M  V30 63158 H 6168.53 -2.70503 -7.05949 0
M  V30 63159 H 6169.79 -1.65482 -7.61732 0
M  V30 63160 N 6174.02 1.18902 -1.03441 0
M  V30 63161 C 6175.27 1.89267 -0.744954 0
M  V30 63162 C 6175.62 1.78458 0.71905 0
M  V30 63163 O 6174.92 1.16984 1.51741 0
M  V30 63164 C 6175.11 3.38807 -1.13774 0
M  V30 63165 C 6174.94 3.64169 -2.63838 0
M  V30 63166 C 6173.71 3.81888 -3.30893 0
M  V30 63167 C 6175.91 3.6527 -3.62053 0
M  V30 63168 N 6173.89 3.94931 -4.70003 0
M  V30 63169 C 6175.26 3.83951 -4.86808 0
M  V30 63170 C 6177.32 3.48325 -3.55773 0
M  V30 63171 C 6176.02 3.87442 -6.06037 0
M  V30 63172 C 6178.05 3.53096 -4.74423 0
M  V30 63173 C 6177.41 3.72268 -5.97993 0
M  V30 63174 H 6173.51 0.711469 -0.324554 0
M  V30 63175 H 6176.09 1.4286 -1.32284 0
M  V30 63176 H 6174.26 3.83923 -0.588006 0
M  V30 63177 H 6175.99 3.96715 -0.799954 0
M  V30 63178 H 6172.75 3.81007 -2.81301 0
M  V30 63179 H 6173.17 4.05289 -5.42282 0
M  V30 63180 H 6177.81 3.32454 -2.61217 0
M  V30 63181 H 6175.53 4.02104 -7.00955 0
M  V30 63182 H 6179.12 3.41268 -4.71198 0
M  V30 63183 H 6178 3.75842 -6.88268 0
M  V30 63184 N 6175.5 0.813024 1.3501 0
M  V30 63185 C 6176.43 0.242478 2.32238 0
M  V30 63186 C 6177.41 -0.63562 1.57778 0
M  V30 63187 O 6178.6 -0.564556 1.85813 0
M  V30 63188 C 6175.73 -0.604566 3.41998 0
M  V30 63189 C 6174.68 0.17557 4.2764 0
M  V30 63190 C 6174.01 -0.793586 5.28778 0
M  V30 63191 C 6175.31 1.3782 5.03789 0
M  V30 63192 H 6177 1.0548 2.80204 0
M  V30 63193 H 6174.55 0.508666 1.34717 0
M  V30 63194 H 6176.5 -1.01382 4.09023 0
M  V30 63195 H 6175.22 -1.44984 2.92655 0
M  V30 63196 H 6173.88 0.566076 3.62203 0
M  V30 63197 H 6173.53 -1.63454 4.75701 0
M  V30 63198 H 6173.23 -0.275879 5.86952 0
M  V30 63199 H 6174.76 -1.20091 5.98674 0
M  V30 63200 H 6176.17 1.04348 5.63724 0
M  V30 63201 H 6174.57 1.83084 5.71489 0
M  V30 63202 H 6175.64 2.16153 4.34057 0
M  V30 63203 N 6176.98 -1.47043 0.567097 0
M  V30 63204 C 6178.23 -2.01651 0.0445499 0
M  V30 63205 C 6178.54 -1.44588 -1.31733 0
M  V30 63206 O 6179.75 -1.90918 -1.93035 0
M  V30 63207 C 6178.2 -3.59888 0.0291119 0
M  V30 63208 C 6177.81 -4.25944 1.38836 0
M  V30 63209 C 6179.56 -4.2221 -0.440309 0
M  V30 63210 C 6177.46 -5.76216 1.33149 0
M  V30 63211 H 6176.39 -0.75389 0.0128845 0
M  V30 63212 H 6179.04 -1.68937 0.716423 0
M  V30 63213 H 6177.43 -3.89608 -0.70861 0
M  V30 63214 H 6178.6 -4.07854 2.14457 0
M  V30 63215 H 6176.91 -3.75652 1.79652 0
M  V30 63216 H 6179.51 -5.32344 -0.501404 0
M  V30 63217 H 6179.85 -3.90065 -1.45448 0
M  V30 63218 H 6180.39 -3.97058 0.242861 0
M  V30 63219 H 6177.13 -6.12997 2.32197 0
M  V30 63220 H 6176.65 -5.96616 0.617233 0
M  V30 63221 H 6178.33 -6.38623 1.03774 0
M  V30 63222 N 6178.46 -0.304054 -1.54639 0
M  V30 63223 C 6179.68 0.309637 -2.05076 0
M  V30 63224 C 6180.11 1.46505 -1.17975 0
M  V30 63225 O 6179.47 1.80359 -0.1845 0
M  V30 63226 C 6179.51 0.74061 -3.52913 0
M  V30 63227 O 6178.62 1.84507 -3.68824 0
M  V30 63228 H 6177.96 0.0595833 -0.661321 0
M  V30 63229 H 6180.49 -0.446788 -1.99662 0
M  V30 63230 H 6180.5 1.02859 -3.94822 0
M  V30 63231 H 6179.17 -0.104568 -4.15769 0
M  V30 63232 H 6177.75 1.55741 -3.3882 0
M  V30 63233 N 6179.94 1.57568 -0.0318356 0
M  V30 63234 C 6181.16 1.96214 0.656332 0
M  V30 63235 C 6181.58 0.908464 1.65506 0
M  V30 63236 O 6180.94 -0.109438 1.82172 0
M  V30 63237 C 6180.99 3.34929 1.36032 0
M  V30 63238 O 6180.71 4.36255 0.401604 0
M  V30 63239 C 6182.21 3.88222 2.14005 0
M  V30 63240 H 6179.43 0.646187 0.180786 0
M  V30 63241 H 6181.97 2.04291 -0.0924059 0
M  V30 63242 H 6180.13 3.28062 2.06044 0
M  V30 63243 H 6180.54 5.16689 0.901824 0
M  V30 63244 H 6182.02 4.87619 2.58713 0
M  V30 63245 H 6182.49 3.22613 2.98023 0
M  V30 63246 H 6183.1 3.98366 1.48946 0
M  V30 63247 N 6181.41 -0.241344 1.55741 0
M  V30 63248 C 6182.69 -0.991762 1.68593 0
M  V30 63249 C 6183.07 -2.03165 0.573346 0
M  V30 63250 O 6182.42 -2.24561 -0.422442 0
M  V30 63251 C 6182.63 -1.62009 3.09118 0
M  V30 63252 C 6183.98 -2.11985 3.67896 0
M  V30 63253 O 6185 -1.7194 3.11954 0
M  V30 63254 O 6183.86 -2.85528 4.65978 0
M  V30 63255 H 6180.95 -0.461993 0.685924 0
M  V30 63256 H 6183.5 -0.234691 1.68069 0
M  V30 63257 H 6182.27 -0.868216 3.81546 0
M  V30 63258 H 6181.9 -2.44322 3.13676 0
M  V30 63259 N 6182.89 -1.49214 -0.50724 0
M  V30 63260 C 6183.82 -1.68332 -1.61823 0
M  V30 63261 C 6184.8 -0.532026 -1.61566 0
M  V30 63262 O 6185.99 -0.767166 -1.78405 0
M  V30 63263 C 6183.12 -1.74405 -3.00333 0
M  V30 63264 C 6182.07 -2.89262 -3.15455 0
M  V30 63265 C 6181.4 -2.80442 -4.55254 0
M  V30 63266 C 6182.7 -4.30279 -2.96069 0
M  V30 63267 H 6184.39 -2.61346 -1.46078 0
M  V30 63268 H 6181.94 -1.25767 -0.701323 0
M  V30 63269 H 6183.89 -1.86366 -3.77949 0
M  V30 63270 H 6182.62 -0.77986 -3.17153 0
M  V30 63271 H 6181.27 -2.76893 -2.40262 0
M  V30 63272 H 6180.92 -1.81944 -4.68941 0
M  V30 63273 H 6180.62 -3.57527 -4.66313 0
M  V30 63274 H 6182.15 -2.94403 -5.34939 0
M  V30 63275 H 6183.56 -4.43362 -3.63459 0
M  V30 63276 H 6181.96 -5.08538 -3.18605 0
M  V30 63277 H 6183.03 -4.45158 -1.92256 0
M  V30 63278 N 6184.37 0.757827 -1.38184 0
M  V30 63279 C 6185.65 1.5071 -1.24683 0
M  V30 63280 C 6186.03 2.1054 0.153615 0
M  V30 63281 O 6185.38 1.96707 1.16269 0
M  V30 63282 C 6185.59 2.57686 -2.3537 0
M  V30 63283 C 6186.93 3.24706 -2.73589 0
M  V30 63284 O 6187.96 2.67989 -2.3465 0
M  V30 63285 O 6186.82 4.27282 -3.40724 0
M  V30 63286 H 6183.91 0.668157 -0.487334 0
M  V30 63287 H 6186.46 0.793601 -1.5 0
M  V30 63288 H 6185.23 2.11695 -3.29091 0
M  V30 63289 H 6184.85 3.36622 -2.11593 0
M  V30 63290 N 6185.85 1.22983 0.985543 0
M  V30 63291 C 6186.78 0.964258 2.0793 0
M  V30 63292 C 6187.79 -0.059859 1.6269 0
M  V30 63293 O 6188.98 0.175047 1.7764 0
M  V30 63294 C 6186.08 0.429997 3.36161 0
M  V30 63295 C 6185.26 1.51307 4.10396 0
M  V30 63296 C 6184.31 0.984593 5.16906 0
M  V30 63297 O 6183.34 1.67244 5.44076 0
M  V30 63298 N 6184.54 -0.190235 5.80188 0
M  V30 63299 H 6187.31 1.90591 2.31291 0
M  V30 63300 H 6184.87 1.13772 1.15185 0
M  V30 63301 H 6186.86 0.0616062 4.04653 0
M  V30 63302 H 6185.43 -0.41694 3.09807 0
M  V30 63303 H 6184.65 2.05446 3.36431 0
M  V30 63304 H 6185.94 2.24157 4.56761 0
M  V30 63305 H 6185.34 -0.765731 5.60494 0
M  V30 63306 H 6183.89 -0.499939 6.4988 0
M  V30 63307 N 6187.33 -1.18352 1.04071 0
M  V30 63308 C 6188.74 -1.69992 0.771979 0
M  V30 63309 C 6189.09 -1.83013 -0.707148 0
M  V30 63310 O 6188.21 -1.50966 -1.55043 0
M  V30 63311 C 6188.81 -3.0876 1.39472 0
M  V30 63312 C 6187.37 -3.57613 1.1743 0
M  V30 63313 C 6186.51 -2.34163 1.48536 0
M  V30 63314 H 6189.47 -1.03026 1.20712 0
M  V30 63315 H 6189.49 -3.72039 0.797951 0
M  V30 63316 H 6189 -2.99251 2.47124 0
M  V30 63317 H 6187.1 -3.72418 0.116529 0
M  V30 63318 H 6187.21 -4.41041 1.87135 0
M  V30 63319 H 6185.58 -2.38077 0.905055 0
M  V30 63320 H 6186.36 -2.27273 2.57297 0
M  V30 63321 N 6188.8 -0.820173 -1.34577 0
M  V30 63322 C 6189.77 -0.245542 -2.27881 0
M  V30 63323 C 6190.77 0.574972 -1.50169 0
M  V30 63324 O 6191.96 0.391476 -1.69744 0
M  V30 63325 C 6189.09 0.656082 -3.34527 0
M  V30 63326 H 6190.28 -1.06863 -2.80215 0
M  V30 63327 H 6187.84 -0.591828 -1.44662 0
M  V30 63328 H 6188.57 1.50233 -2.87403 0
M  V30 63329 H 6188.36 0.0692572 -3.92039 0
M  V30 63330 H 6189.85 1.05202 -4.04132 0
M  V30 63331 N 6190.28 1.46741 -0.574887 0
M  V30 63332 C 6191.25 2.28692 0.152552 0
M  V30 63333 C 6192.25 1.37952 0.82619 0
M  V30 63334 O 6193.44 1.60408 0.679342 0
M  V30 63335 C 6190.57 3.18124 1.22514 0
M  V30 63336 H 6191.76 2.94481 -0.567543 0
M  V30 63337 H 6189.31 1.52722 -0.332534 0
M  V30 63338 H 6190.05 2.57065 1.97707 0
M  V30 63339 H 6189.83 3.84924 0.746705 0
M  V30 63340 H 6191.32 3.79826 1.73557 0
M  V30 63341 N 6191.76 0.312251 1.54476 0
M  V30 63342 C 6193.01 -0.294537 1.99538 0
M  V30 63343 C 6193.32 -1.54133 1.20426 0
M  V30 63344 O 6194.53 -2.22341 1.5581 0
M  V30 63345 C 6192.98 -0.575345 3.55271 0
M  V30 63346 C 6192.59 0.653747 4.43204 0
M  V30 63347 C 6194.34 -1.14271 4.08831 0
M  V30 63348 C 6192.24 0.345468 5.9039 0
M  V30 63349 H 6191.17 -0.113833 0.745358 0
M  V30 63350 H 6193.82 0.422712 1.78565 0
M  V30 63351 H 6192.21 -1.35249 3.72188 0
M  V30 63352 H 6193.38 1.4296 4.38063 0
M  V30 63353 H 6191.7 1.14053 4.00476 0
M  V30 63354 H 6194.29 -1.38779 5.16376 0
M  V30 63355 H 6194.64 -2.08854 3.60119 0
M  V30 63356 H 6195.17 -0.427015 3.95501 0
M  V30 63357 H 6191.91 1.26016 6.43273 0
M  V30 63358 H 6191.43 -0.392896 5.98512 0
M  V30 63359 H 6193.11 -0.0488572 6.46982 0
M  V30 63360 N 6193.24 -1.57549 0.0401914 0
M  V30 63361 C 6194.2 -2.09791 -0.923052 0
M  V30 63362 C 6195.2 -1.01522 -1.24699 0
M  V30 63363 O 6196.39 -1.27639 -1.1855 0
M  V30 63364 C 6193.52 -2.57301 -2.23627 0
M  V30 63365 H 6194.72 -2.96188 -0.470378 0
M  V30 63366 H 6192.27 -1.54909 -0.208034 0
M  V30 63367 H 6193.01 -1.74265 -2.735 0
M  V30 63368 H 6192.79 -3.36409 -2.01423 0
M  V30 63369 H 6194.28 -2.97905 -2.92647 0
M  V30 63370 N 6194.72 0.233081 -1.55867 0
M  V30 63371 C 6195.96 0.960577 -1.78608 0
M  V30 63372 C 6196.3 1.84442 -0.60786 0
M  V30 63373 O 6195.57 1.90481 0.393353 0
M  V30 63374 C 6195.85 1.80935 -3.11343 0
M  V30 63375 C 6195.71 0.952775 -4.39593 0
M  V30 63376 C 6197.03 2.78929 -3.40421 0
M  V30 63377 H 6194.15 0.347787 -0.64978 0
M  V30 63378 H 6196.79 0.230167 -1.88601 0
M  V30 63379 H 6194.94 2.43209 -3.02955 0
M  V30 63380 H 6196.61 0.347669 -4.59988 0
M  V30 63381 H 6194.85 0.257694 -4.33034 0
M  V30 63382 H 6195.52 1.58078 -5.28881 0
M  V30 63383 H 6198 2.26792 -3.48862 0
M  V30 63384 H 6196.88 3.35428 -4.34487 0
M  V30 63385 H 6197.14 3.56091 -2.62015 0
M  V30 63386 N 6196.2 1.49481 0.49932 0
M  V30 63387 C 6197.14 1.66762 1.62152 0
M  V30 63388 C 6198.14 0.533541 1.60778 0
M  V30 63389 O 6199.34 0.713225 1.65267 0
M  V30 63390 H 6195.72 0.525872 0.537553 0
M  V30 63391 H 6197.69 2.60952 1.44729 0
M  V30 63392 C 6196.44 1.75298 3.00276 0
M  V30 63393 H 6195.76 2.61939 3.0204 0
M  V30 63394 H 6197.2 1.91424 3.78329 0
M  V30 63395 C 6195.66 0.498173 3.33196 0
M  V30 63396 O 6196.19 -0.375387 3.99942 0
M  V30 63397 N 6194.4 0.360615 2.88354 0
M  V30 63398 H 6193.94 1.07249 2.34212 0
M  V30 63399 H 6193.9 -0.477871 3.10747 0
M  V30 63400 N 6197.67 -0.750488 1.38584 0
M  V30 63401 C 6199.08 -1.32797 1.31232 0
M  V30 63402 C 6199.44 -1.96176 -0.0304682 0
M  V30 63403 O 6198.56 -1.95276 -0.932546 0
M  V30 63404 C 6199.16 -2.4146 2.37661 0
M  V30 63405 C 6197.71 -2.94921 2.33878 0
M  V30 63406 C 6196.86 -1.68331 2.20363 0
M  V30 63407 H 6199.81 -0.549134 1.48897 0
M  V30 63408 H 6199.83 -3.21474 2.03555 0
M  V30 63409 H 6199.35 -1.95301 3.35379 0
M  V30 63410 H 6197.45 -3.45399 1.3975 0
M  V30 63411 H 6197.56 -3.49089 3.28137 0
M  V30 63412 H 6195.92 -1.92077 1.67268 0
M  V30 63413 H 6196.71 -1.24247 3.20027 0
M  V30 63414 N 6199.15 -1.23504 -0.979007 0
M  V30 63415 C 6200.1 -1.01744 -2.07164 0
M  V30 63416 C 6201.07 0.0655484 -1.65971 0
M  V30 63417 O 6202.25 -0.0868346 -1.90602 0
M  V30 63418 C 6199.39 -0.616223 -3.39554 0
M  V30 63419 C 6198.51 -1.77149 -3.94008 0
M  V30 63420 C 6197.64 -1.31692 -5.14617 0
M  V30 63421 C 6196.68 -2.44284 -5.61241 0
M  V30 63422 N 6195.82 -1.99776 -6.73078 0
M  V30 63423 H 6200.66 -1.95267 -2.2511 0
M  V30 63424 H 6198.19 -0.972746 -1.10345 0
M  V30 63425 H 6200.15 -0.364695 -4.15603 0
M  V30 63426 H 6198.78 0.282004 -3.21566 0
M  V30 63427 H 6197.83 -2.13698 -3.14702 0
M  V30 63428 H 6199.15 -2.6179 -4.24579 0
M  V30 63429 H 6198.3 -1.0236 -5.98003 0
M  V30 63430 H 6197.04 -0.440895 -4.85703 0
M  V30 63431 H 6196.04 -2.74389 -4.76435 0
M  V30 63432 H 6197.27 -3.32426 -5.92174 0
M  V30 63433 H 6195.22 -1.14555 -6.4592 0
M  V30 63434 H 6195.13 -2.77976 -7.0304 0
M  V30 63435 H 6196.4 -1.73552 -7.59934 0
M  V30 63436 N 6200.63 1.17798 -1.04697 0
M  V30 63437 C 6201.56 2.23844 -0.664527 0
M  V30 63438 C 6202.54 1.66763 0.335297 0
M  V30 63439 O 6203.73 1.93017 0.213995 0
M  V30 63440 C 6200.86 3.47284 -0.0332808 0
M  V30 63441 C 6199.81 4.17156 -0.957327 0
M  V30 63442 C 6199.14 5.34362 -0.190221 0
M  V30 63443 C 6200.44 4.69943 -2.27927 0
M  V30 63444 H 6202.13 2.5609 -1.55108 0
M  V30 63445 H 6199.68 1.23095 -0.74724 0
M  V30 63446 H 6201.63 4.20681 0.24603 0
M  V30 63447 H 6200.35 3.14291 0.888183 0
M  V30 63448 H 6199.01 3.45665 -1.22112 0
M  V30 63449 H 6198.66 4.97618 0.73385 0
M  V30 63450 H 6198.36 5.82047 -0.805889 0
M  V30 63451 H 6199.88 6.10545 0.0819226 0
M  V30 63452 H 6201.3 5.35003 -2.06022 0
M  V30 63453 H 6199.69 5.28188 -2.84846 0
M  V30 63454 H 6200.76 3.87022 -2.92134 0
M  V30 63455 N 6202.11 0.827298 1.3414 0
M  V30 63456 C 6203.36 0.41663 1.97759 0
M  V30 63457 C 6203.68 -1.02482 1.65899 0
M  V30 63458 O 6202.95 -1.71215 0.951952 0
M  V30 63459 H 6201.53 0.151069 0.731565 0
M  V30 63460 H 6204.19 1.05771 1.63703 0
M  V30 63461 H 6203.28 0.539209 3.07407 0
M  V30 63462 N 6203.59 -1.46434 0.582661 0
M  V30 63463 C 6204.52 -2.3309 -0.138395 0
M  V30 63464 C 6205.5 -1.45342 -0.883726 0
M  V30 63465 O 6206.68 -1.74159 -0.859196 0
M  V30 63466 C 6203.81 -3.27615 -1.15265 0
M  V30 63467 C 6202.77 -4.24803 -0.522159 0
M  V30 63468 C 6202.09 -5.08836 -1.64288 0
M  V30 63469 C 6203.39 -5.19494 0.540632 0
M  V30 63470 H 6205.09 -2.93627 0.585116 0
M  V30 63471 H 6202.63 -1.41195 0.282831 0
M  V30 63472 H 6204.58 -3.87093 -1.66545 0
M  V30 63473 H 6203.31 -2.65184 -1.90643 0
M  V30 63474 H 6201.97 -3.66587 -0.0304439 0
M  V30 63475 H 6201.62 -4.4279 -2.38633 0
M  V30 63476 H 6201.32 -5.74654 -1.22666 0
M  V30 63477 H 6202.84 -5.71178 -2.15844 0
M  V30 63478 H 6204.25 -5.73189 0.112907 0
M  V30 63479 H 6202.65 -5.93655 0.877166 0
M  V30 63480 H 6203.72 -4.63429 1.42693 0
M  V30 63481 N 6205.06 -0.320439 -1.54308 0
M  V30 63482 C 6206 0.58941 -2.20457 0
M  V30 63483 C 6206.97 1.11812 -1.18054 0
M  V30 63484 O 6208.16 1.18271 -1.4678 0
M  V30 63485 C 6205.29 1.80844 -2.86379 0
M  V30 63486 C 6204.33 1.41125 -4.02475 0
M  V30 63487 S 6205.16 0.450615 -5.33601 0
M  V30 63488 C 6206.32 1.677 -6.03015 0
M  V30 63489 H 6206.55 0.0274944 -2.97287 0
M  V30 63490 H 6204.09 -0.104529 -1.54046 0
M  V30 63491 H 6206.04 2.50791 -3.24983 0
M  V30 63492 H 6204.71 2.34154 -2.09358 0
M  V30 63493 H 6203.9 2.31953 -4.47452 0
M  V30 63494 H 6203.5 0.791517 -3.65528 0
M  V30 63495 H 6205.79 2.61488 -6.25004 0
M  V30 63496 H 6206.74 1.26944 -6.96628 0
M  V30 63497 H 6207.14 1.86255 -5.32888 0
M  V30 63498 N 6206.54 1.57525 -0.048546 0
M  V30 63499 C 6207.79 1.92587 0.625822 0
M  V30 63500 C 6208.12 0.926682 1.71005 0
M  V30 63501 O 6207.37 -0.0614309 1.95604 0
M  V30 63502 C 6207.67 3.34339 1.26301 0
M  V30 63503 C 6207.34 4.49852 0.307239 0
M  V30 63504 C 6206 4.8118 0.0442305 0
M  V30 63505 C 6208.35 5.20037 -0.347945 0
M  V30 63506 C 6205.68 5.80041 -0.881442 0
M  V30 63507 C 6208.03 6.19888 -1.26179 0
M  V30 63508 C 6206.69 6.49646 -1.5335 0
M  V30 63509 H 6205.96 0.704725 0.229005 0
M  V30 63510 H 6208.61 1.91158 -0.114464 0
M  V30 63511 H 6206.92 3.32123 2.0785 0
M  V30 63512 H 6208.61 3.58747 1.79169 0
M  V30 63513 H 6205.2 4.25404 0.522412 0
M  V30 63514 H 6209.39 4.96049 -0.157837 0
M  V30 63515 H 6204.64 6.01433 -1.09945 0
M  V30 63516 H 6208.82 6.73385 -1.77555 0
M  V30 63517 H 6206.44 7.26065 -2.25241 0
M  V30 63518 N 6208.02 -0.224812 1.55988 0
M  V30 63519 C 6209.27 -0.946712 1.80025 0
M  V30 63520 C 6209.62 -1.82102 0.621021 0
M  V30 63521 O 6208.91 -1.87691 -0.385042 0
M  V30 63522 C 6209.11 -1.82259 3.07435 0
M  V30 63523 C 6208.94 -1.03456 4.37638 0
M  V30 63524 C 6207.71 -0.730798 4.99987 0
M  V30 63525 C 6209.91 -0.401442 5.12731 0
M  V30 63526 N 6207.89 0.078973 6.13849 0
M  V30 63527 C 6209.26 0.271873 6.19404 0
M  V30 63528 C 6211.31 -0.314143 4.96908 0
M  V30 63529 C 6210.02 1.02413 7.11972 0
M  V30 63530 C 6212.04 0.424641 5.89874 0
M  V30 63531 C 6211.4 1.08651 6.9597 0
M  V30 63532 H 6207.5 -0.3268 0.710441 0
M  V30 63533 H 6210.09 -0.217871 1.93477 0
M  V30 63534 H 6208.26 -2.52327 2.95272 0
M  V30 63535 H 6209.99 -2.48172 3.19676 0
M  V30 63536 H 6206.75 -1.04802 4.61859 0
M  V30 63537 H 6207.17 0.472598 6.75348 0
M  V30 63538 H 6211.81 -0.81151 4.14939 0
M  V30 63539 H 6209.53 1.53303 7.93425 0
M  V30 63540 H 6213.12 0.493149 5.79706 0
M  V30 63541 H 6212 1.64904 7.66666 0
M  V30 63542 N 6209.5 -1.49744 -0.491385 0
M  V30 63543 C 6210.73 -1.63439 -1.26867 0
M  V30 63544 C 6211.14 -0.309582 -1.86245 0
M  V30 63545 O 6210.5 0.706118 -1.68286 0
M  V30 63546 C 6210.55 -2.71043 -2.39203 0
M  V30 63547 O 6210.27 -3.98386 -1.82264 0
M  V30 63548 C 6211.77 -2.9553 -3.30419 0
M  V30 63549 H 6208.99 -0.549953 -0.384438 0
M  V30 63550 H 6211.54 -1.95839 -0.588845 0
M  V30 63551 H 6209.69 -2.41394 -3.02998 0
M  V30 63552 H 6210.1 -4.57734 -2.56085 0
M  V30 63553 H 6211.58 -3.74531 -4.055 0
M  V30 63554 H 6212.06 -2.05814 -3.87991 0
M  V30 63555 H 6212.66 -3.26632 -2.72382 0
M  V30 63556 N 6210.98 0.743128 -1.3898 0
M  V30 63557 C 6212.25 1.49379 -1.26274 0
M  V30 63558 C 6212.63 2.10691 0.131275 0
M  V30 63559 O 6211.98 1.97929 1.14176 0
M  V30 63560 C 6212.19 2.55175 -2.38089 0
M  V30 63561 C 6213.54 3.21786 -2.77018 0
M  V30 63562 O 6214.56 2.65485 -2.37479 0
M  V30 63563 O 6213.42 4.23644 -3.45236 0
M  V30 63564 H 6210.52 0.662951 -0.494394 0
M  V30 63565 H 6213.06 0.777647 -1.50834 0
M  V30 63566 H 6211.83 2.08192 -3.31318 0
M  V30 63567 H 6211.46 3.34359 -2.15151 0
M  V30 63568 N 6212.45 1.24021 0.972444 0
M  V30 63569 C 6213.7 1.08874 1.71808 0
M  V30 63570 C 6214.06 -0.369352 1.88821 0
M  V30 63571 O 6213.35 -1.26938 1.43518 0
M  V30 63572 C 6213.54 1.75668 3.11248 0
M  V30 63573 C 6213.37 3.27822 3.07836 0
M  V30 63574 C 6212.14 3.97015 3.12581 0
M  V30 63575 C 6214.34 4.2448 2.90381 0
M  V30 63576 N 6212.32 5.36087 2.99138 0
M  V30 63577 C 6213.69 5.50518 2.85184 0
M  V30 63578 C 6215.75 4.15114 2.74926 0
M  V30 63579 C 6214.45 6.68264 2.66113 0
M  V30 63580 C 6216.48 5.32533 2.57221 0
M  V30 63581 C 6215.84 6.57501 2.52729 0
M  V30 63582 H 6211.94 0.452987 0.637438 0
M  V30 63583 H 6214.52 1.56867 1.1533 0
M  V30 63584 H 6212.69 1.30196 3.65928 0
M  V30 63585 H 6214.42 1.53424 3.7449 0
M  V30 63586 H 6211.18 3.48148 3.21076 0
M  V30 63587 H 6211.6 6.09022 2.9567 0
M  V30 63588 H 6216.25 3.19263 2.77184 0
M  V30 63589 H 6213.96 7.64243 2.62598 0
M  V30 63590 H 6217.55 5.27134 2.46214 0
M  V30 63591 H 6216.43 7.46828 2.39202 0
M  V30 63592 N 6213.93 -1.17241 1.0532 0
M  V30 63593 C 6215.18 -1.87162 0.762537 0
M  V30 63594 C 6215.5 -1.81512 -0.712623 0
M  V30 63595 O 6214.77 -1.24196 -1.515 0
M  V30 63596 H 6213.35 -0.69291 0.279079 0
M  V30 63597 H 6216.01 -1.42222 1.33262 0
M  V30 63598 H 6215.11 -2.92868 1.07864 0
M  V30 63599 N 6215.41 -0.8344 -1.33699 0
M  V30 63600 C 6216.36 -0.262411 -2.29303 0
M  V30 63601 C 6217.33 0.619271 -1.54124 0
M  V30 63602 O 6218.51 0.558487 -1.82443 0
M  V30 63603 C 6215.65 0.560221 -3.40522 0
M  V30 63604 C 6214.77 -0.344984 -4.3062 0
M  V30 63605 C 6213.9 0.488319 -5.28951 0
M  V30 63606 C 6212.94 -0.415556 -6.10688 0
M  V30 63607 N 6212.08 0.379353 -7.01074 0
M  V30 63608 H 6216.92 -1.08301 -2.77624 0
M  V30 63609 H 6214.45 -0.545545 -1.3661 0
M  V30 63610 H 6216.41 1.0526 -4.03703 0
M  V30 63611 H 6215.04 1.34583 -2.93406 0
M  V30 63612 H 6214.09 -0.955648 -3.682 0
M  V30 63613 H 6215.41 -1.03952 -4.87848 0
M  V30 63614 H 6214.56 1.04471 -5.97638 0
M  V30 63615 H 6213.3 1.21631 -4.72289 0
M  V30 63616 H 6212.3 -0.983993 -5.40923 0
M  V30 63617 H 6213.53 -1.14184 -6.69432 0
M  V30 63618 H 6211.47 1.09081 -6.46867 0
M  V30 63619 H 6211.39 -0.256556 -7.55565 0
M  V30 63620 H 6212.66 0.918122 -7.74074 0
M  V30 63621 N 6216.89 1.46123 -0.590418 0
M  V30 63622 C 6217.8 2.34178 0.140678 0
M  V30 63623 C 6218.81 1.50216 0.878128 0
M  V30 63624 O 6219.99 1.83066 0.83958 0
M  V30 63625 C 6217.06 3.27541 1.13657 0
M  V30 63626 C 6216.12 4.27405 0.402953 0
M  V30 63627 C 6215.35 5.16307 1.3514 0
M  V30 63628 O 6215.57 5.08292 2.58835 0
M  V30 63629 O 6214.51 5.95756 0.857794 0
M  V30 63630 H 6218.33 2.98061 -0.582505 0
M  V30 63631 H 6215.92 1.45224 -0.350771 0
M  V30 63632 H 6217.8 3.85118 1.71061 0
M  V30 63633 H 6216.47 2.66244 1.84109 0
M  V30 63634 H 6215.38 3.73492 -0.213117 0
M  V30 63635 H 6216.71 4.91509 -0.260738 0
M  V30 63636 N 6218.37 0.328618 1.54136 0
M  V30 63637 C 6219.78 -0.158401 1.86027 0
M  V30 63638 C 6220.13 -1.51212 1.25017 0
M  V30 63639 O 6219.25 -2.09079 0.558103 0
M  V30 63640 C 6219.85 -0.294198 3.3752 0
M  V30 63641 C 6218.41 -0.725441 3.69343 0
M  V30 63642 C 6217.55 0.149822 2.76895 0
M  V30 63643 H 6220.51 0.548731 1.48912 0
M  V30 63644 H 6220.53 -1.12425 3.63512 0
M  V30 63645 H 6220.04 0.691206 3.81895 0
M  V30 63646 H 6218.14 -1.72041 3.30504 0
M  V30 63647 H 6218.25 -0.525685 4.76207 0
M  V30 63648 H 6216.62 -0.375443 2.51918 0
M  V30 63649 H 6217.4 1.13208 3.24097 0
M  V30 63650 N 6219.84 -1.57497 0.0568993 0
M  V30 63651 C 6220.79 -2.11865 -0.915519 0
M  V30 63652 C 6221.76 -1.02743 -1.30511 0
M  V30 63653 O 6222.95 -1.30323 -1.39358 0
M  V30 63654 C 6220.09 -2.67276 -2.18306 0
M  V30 63655 C 6219.2 -3.90505 -1.84744 0
M  V30 63656 C 6218.33 -4.3421 -3.05998 0
M  V30 63657 C 6217.37 -5.50124 -2.68384 0
M  V30 63658 N 6216.51 -5.88857 -3.8235 0
M  V30 63659 H 6221.35 -2.94659 -0.444997 0
M  V30 63660 H 6218.89 -1.45622 -0.208018 0
M  V30 63661 H 6220.85 -2.97505 -2.92484 0
M  V30 63662 H 6219.48 -1.87271 -2.62925 0
M  V30 63663 H 6218.53 -3.66832 -1.0069 0
M  V30 63664 H 6219.84 -4.74736 -1.5306 0
M  V30 63665 H 6218.99 -4.66021 -3.8847 0
M  V30 63666 H 6217.73 -3.48802 -3.40864 0
M  V30 63667 H 6216.74 -5.17979 -1.8433 0
M  V30 63668 H 6217.96 -6.37253 -2.34704 0
M  V30 63669 H 6215.91 -5.06401 -4.17006 0
M  V30 63670 H 6215.83 -6.67793 -3.54384 0
M  V30 63671 H 6217.09 -6.25286 -4.65444 0
M  V30 63672 N 6221.32 0.216536 -1.56105 0
M  V30 63673 C 6222.57 0.938258 -1.78549 0
M  V30 63674 C 6222.88 1.853 -0.626355 0
M  V30 63675 O 6224.09 2.61375 -0.734543 0
M  V30 63676 C 6222.55 1.7186 -3.16215 0
M  V30 63677 C 6222.15 0.849749 -4.39867 0
M  V30 63678 C 6223.9 2.43124 -3.47981 0
M  V30 63679 C 6221.81 1.62773 -5.68559 0
M  V30 63680 H 6220.74 0.354075 -0.665693 0
M  V30 63681 H 6223.39 0.192015 -1.82493 0
M  V30 63682 H 6221.77 2.50794 -3.06461 0
M  V30 63683 H 6222.94 0.100595 -4.6069 0
M  V30 63684 H 6221.26 0.248993 -4.15655 0
M  V30 63685 H 6223.85 3.0184 -4.41358 0
M  V30 63686 H 6224.2 3.16258 -2.70715 0
M  V30 63687 H 6224.73 1.71176 -3.59087 0
M  V30 63688 H 6221.47 0.939573 -6.48731 0
M  V30 63689 H 6220.99 2.35137 -5.51789 0
M  V30 63690 H 6222.67 2.18711 -6.08913 0
M  V30 63691 N 6222.8 1.50002 0.483437 0
M  V30 63692 C 6223.71 1.70728 1.60901 0
M  V30 63693 C 6224.73 0.590133 1.63687 0
M  V30 63694 O 6225.9 0.866979 1.81784 0
M  V30 63695 C 6222.97 1.78554 2.97186 0
M  V30 63696 C 6222.03 3.02229 3.04887 0
M  V30 63697 C 6221.26 3.09673 4.3467 0
M  V30 63698 O 6221.49 2.24235 5.24476 0
M  V30 63699 O 6220.42 4.02294 4.47709 0
M  V30 63700 H 6224.25 2.66117 1.46341 0
M  V30 63701 H 6221.83 1.33951 0.661619 0
M  V30 63702 H 6223.71 1.85954 3.78152 0
M  V30 63703 H 6222.39 0.863473 3.11971 0
M  V30 63704 H 6221.29 3.00337 2.23043 0
M  V30 63705 H 6222.63 3.93974 2.95034 0
M  V30 63706 N 6224.28 -0.735747 1.39372 0
M  V30 63707 C 6225.5 -1.53008 1.40012 0
M  V30 63708 C 6225.93 -1.881 -0.00361764 0
M  V30 63709 O 6225.29 -1.51857 -0.990416 0
M  V30 63710 C 6225.34 -2.79466 2.27884 0
M  V30 63711 O 6224.44 -3.75358 1.70821 0
M  V30 63712 H 6223.78 -0.4621 0.476822 0
M  V30 63713 H 6226.31 -0.907804 1.83358 0
M  V30 63714 H 6226.32 -3.28208 2.4237 0
M  V30 63715 H 6225 -2.53257 3.299 0
M  V30 63716 H 6223.57 -3.34125 1.65574 0
M  V30 63717 N 6225.76 -1.24535 -0.965853 0
M  V30 63718 C 6226.72 -1.04033 -2.0423 0
M  V30 63719 C 6227.72 0.00300202 -1.608 0
M  V30 63720 O 6228.91 -0.238138 -1.72565 0
M  V30 63721 C 6226.04 -0.57719 -3.35978 0
M  V30 63722 H 6227.24 -1.99577 -2.23851 0
M  V30 63723 H 6224.79 -1.06784 -1.14135 0
M  V30 63724 H 6225.52 0.381358 -3.2205 0
M  V30 63725 H 6225.31 -1.33025 -3.68845 0
M  V30 63726 H 6226.8 -0.454836 -4.15116 0
M  V30 63727 N 6227.24 1.16681 -1.0594 0
M  V30 63728 C 6228.48 1.87644 -0.784932 0
M  V30 63729 C 6228.84 1.79944 0.681035 0
M  V30 63730 O 6228.13 1.20176 1.49225 0
M  V30 63731 C 6228.32 3.36317 -1.20935 0
M  V30 63732 C 6228.15 3.58491 -2.71504 0
M  V30 63733 C 6226.92 3.74783 -3.38919 0
M  V30 63734 C 6229.12 3.57508 -3.6972 0
M  V30 63735 N 6227.1 3.84873 -4.78274 0
M  V30 63736 C 6228.47 3.73539 -4.94842 0
M  V30 63737 C 6230.53 3.407 -3.63081 0
M  V30 63738 C 6229.23 3.745 -6.14119 0
M  V30 63739 C 6231.26 3.42953 -4.81806 0
M  V30 63740 C 6230.62 3.595 -6.05755 0
M  V30 63741 H 6226.72 0.704425 -0.339572 0
M  V30 63742 H 6229.3 1.40022 -1.35284 0
M  V30 63743 H 6227.47 3.8259 -0.66931 0
M  V30 63744 H 6229.21 3.94929 -0.883923 0
M  V30 63745 H 6225.96 3.74955 -2.89319 0
M  V30 63746 H 6226.38 3.93695 -5.50757 0
M  V30 63747 H 6231.03 3.26838 -2.6821 0
M  V30 63748 H 6228.74 3.87145 -7.09327 0
M  V30 63749 H 6232.33 3.31196 -4.78331 0
M  V30 63750 H 6231.21 3.61158 -6.96085 0
M  V30 63751 N 6228.71 0.841479 1.33255 0
M  V30 63752 C 6229.65 0.221565 2.27122 0
M  V30 63753 C 6230.62 -0.632826 1.4978 0
M  V30 63754 O 6231.81 -0.592518 1.78945 0
M  V30 63755 C 6228.94 -0.688667 3.31625 0
M  V30 63756 C 6227.98 0.0906062 4.26404 0
M  V30 63757 S 6228.81 1.45025 5.15488 0
M  V30 63758 C 6229.97 0.545379 6.23519 0
M  V30 63759 H 6230.2 1.01733 2.79352 0
M  V30 63760 H 6227.74 0.638375 1.40585 0
M  V30 63761 H 6229.69 -1.20822 3.92316 0
M  V30 63762 H 6228.36 -1.45812 2.78205 0
M  V30 63763 H 6227.55 -0.60212 5.0039 0
M  V30 63764 H 6227.15 0.541311 3.70062 0
M  V30 63765 H 6229.44 -0.255724 6.77017 0
M  V30 63766 H 6230.39 1.25549 6.96881 0
M  V30 63767 H 6230.79 0.125567 5.6436 0
M  V30 63768 N 6230.19 -1.45807 0.598159 0
M  V30 63769 C 6231.14 -2.32186 -0.138775 0
M  V30 63770 C 6232.13 -1.45409 -0.869054 0
M  V30 63771 O 6233.34 -1.61947 -0.785689 0
M  V30 63772 H 6229.71 -0.749304 -0.0636167 0
M  V30 63773 H 6231.69 -2.92133 0.608327 0
M  V30 63774 C 6230.43 -3.2886 -1.12899 0
M  V30 63775 H 6229.76 -3.95622 -0.576486 0
M  V30 63776 H 6231.2 -3.92049 -1.61474 0
M  V30 63777 C 6229.66 -2.55339 -2.19781 0
M  V30 63778 O 6230.19 -2.3278 -3.27378 0
M  V30 63779 N 6228.39 -2.15635 -1.94808 0
M  V30 63780 H 6227.94 -2.34182 -1.07315 0
M  V30 63781 H 6227.9 -1.66765 -2.66527 0
M  V30 63782 N 6231.67 -0.336787 -1.53959 0
M  V30 63783 C 6232.92 0.261272 -2.00404 0
M  V30 63784 C 6233.24 1.51608 -1.22638 0
M  V30 63785 O 6232.51 1.93071 -0.331727 0
M  V30 63786 H 6231.09 0.0995334 -0.740339 0
M  V30 63787 H 6233.75 -0.456385 -1.89481 0
M  V30 63788 H 6232.85 0.508449 -3.07931 0
M  V30 63789 N 6233.15 1.57465 -0.0652509 0
M  V30 63790 C 6234.06 2.15844 0.919159 0
M  V30 63791 C 6235.07 1.11989 1.33171 0
M  V30 63792 O 6236.25 1.44224 1.40575 0
M  V30 63793 C 6233.31 2.70327 2.17081 0
M  V30 63794 C 6232.38 3.89032 1.81528 0
M  V30 63795 C 6231.61 4.40907 3.00726 0
M  V30 63796 O 6231.83 3.91806 4.14541 0
M  V30 63797 O 6230.77 5.32322 2.80922 0
M  V30 63798 H 6234.59 3.00309 0.452598 0
M  V30 63799 H 6232.18 1.48568 0.157451 0
M  V30 63800 H 6234.06 3.05276 2.9049 0
M  V30 63801 H 6232.73 1.88926 2.62847 0
M  V30 63802 H 6231.64 3.58948 1.05391 0
M  V30 63803 H 6232.97 4.71706 1.4055 0
M  V30 63804 N 6234.63 -0.208255 1.56218 0
M  V30 63805 C 6235.9 -0.955778 1.70658 0
M  V30 63806 C 6236.28 -2.01903 0.616311 0
M  V30 63807 O 6235.63 -2.25407 -0.374714 0
M  V30 63808 C 6235.84 -1.55416 3.12485 0
M  V30 63809 C 6237.19 -2.04134 3.7231 0
M  V30 63810 O 6238.21 -1.65284 3.15531 0
M  V30 63811 O 6237.07 -2.7558 4.7193 0
M  V30 63812 H 6234.17 -0.44734 0.695569 0
M  V30 63813 H 6236.71 -0.198988 1.68529 0
M  V30 63814 H 6235.48 -0.787089 3.83302 0
M  V30 63815 H 6235.11 -2.37614 3.18788 0
M  V30 63816 N 6236.1 -1.50256 -0.475475 0
M  V30 63817 C 6237.52 -1.37585 -0.808858 0
M  V30 63818 C 6237.72 -0.428564 -1.9689 0
M  V30 63819 O 6236.78 0.130425 -2.52163 0
M  V30 63820 C 6238.09 -2.7886 -1.12505 0
M  V30 63821 C 6239.64 -2.87744 -1.23176 0
M  V30 63822 C 6240.11 -4.29843 -1.58111 0
M  V30 63823 N 6241.6 -4.32773 -1.65111 0
M  V30 63824 C 6242.34 -5.39715 -1.93637 0
M  V30 63825 N 6241.83 -6.5687 -2.20214 0
M  V30 63826 N 6243.63 -5.27154 -1.95103 0
M  V30 63827 H 6235.78 -2.10424 0.289084 0
M  V30 63828 H 6238.04 -0.945643 0.0668045 0
M  V30 63829 H 6237.75 -3.49996 -0.345769 0
M  V30 63830 H 6237.62 -3.15829 -2.06232 0
M  V30 63831 H 6240.01 -2.1683 -2.00172 0
M  V30 63832 H 6240.09 -2.54324 -0.274386 0
M  V30 63833 H 6239.73 -5.01293 -0.81656 0
M  V30 63834 H 6239.66 -4.60746 -2.54991 0
M  V30 63835 H 6242.15 -3.48293 -1.46629 0
M  V30 63836 H 6242.47 -7.34181 -2.41242 0
M  V30 63837 H 6240.81 -6.60052 -2.17616 0
M  V30 63838 H 6244 -4.34626 -1.73833 0
M  V30 63839 H 6244.18 -6.10586 -2.16999 0
M  V30 63840 N 6237.58 0.728346 -1.3976 0
M  V30 63841 C 6238.53 1.86376 -1.39165 0
M  V30 63842 C 6239.52 1.67172 -0.273865 0
M  V30 63843 O 6240.73 1.74432 -0.444246 0
M  V30 63844 H 6237.11 0.613614 -0.43472 0
M  V30 63845 H 6239.08 1.83993 -2.34923 0
M  V30 63846 C 6237.83 3.24122 -1.25857 0
M  V30 63847 H 6237.15 3.39499 -2.11141 0
M  V30 63848 H 6238.59 4.0374 -1.29498 0
M  V30 63849 C 6237.05 3.36884 0.0324092 0
M  V30 63850 O 6237.58 3.89051 1.00013 0
M  V30 63851 N 6235.78 2.90436 0.0976813 0
M  V30 63852 H 6235.33 2.48172 -0.690526 0
M  V30 63853 H 6235.29 2.99354 0.96096 0
M  V30 63854 N 6239.06 1.25046 0.959235 0
M  V30 63855 C 6240.31 1.08918 1.69764 0
M  V30 63856 C 6240.62 -0.370491 1.92059 0
M  V30 63857 O 6241.83 -0.652121 2.63552 0
M  V30 63858 C 6240.28 1.90086 3.05606 0
M  V30 63859 C 6239.89 3.40516 2.91124 0
M  V30 63860 C 6241.64 1.82513 3.83261 0
M  V30 63861 C 6239.54 4.13996 4.22328 0
M  V30 63862 H 6238.47 0.403981 0.636644 0
M  V30 63863 H 6241.12 1.49202 1.06823 0
M  V30 63864 H 6239.51 1.42622 3.69425 0
M  V30 63865 H 6240.68 3.9562 2.36265 0
M  V30 63866 H 6239 3.49131 2.26928 0
M  V30 63867 H 6241.59 2.3471 4.80433 0
M  V30 63868 H 6241.94 0.792091 4.08695 0
M  V30 63869 H 6242.47 2.27703 3.26184 0
M  V30 63870 H 6239.21 5.17695 4.02084 0
M  V30 63871 H 6238.73 3.63676 4.76969 0
M  V30 63872 H 6240.41 4.2146 4.90898 0
M  V30 63873 N 6240.54 -1.16117 1.06558 0
M  V30 63874 C 6241.47 -2.22759 0.700055 0
M  V30 63875 C 6242.45 -1.67275 -0.308724 0
M  V30 63876 O 6243.63 -1.93333 -0.18326 0
M  V30 63877 C 6240.76 -3.47187 0.0885264 0
M  V30 63878 C 6239.72 -4.1558 1.02357 0
M  V30 63879 C 6239.04 -5.33991 0.27521 0
M  V30 63880 C 6240.34 -4.66258 2.35374 0
M  V30 63881 H 6242.04 -2.5359 1.59162 0
M  V30 63882 H 6239.58 -1.2189 0.766728 0
M  V30 63883 H 6241.54 -4.21019 -0.179072 0
M  V30 63884 H 6240.26 -3.15664 -0.83807 0
M  V30 63885 H 6238.92 -3.43678 1.27596 0
M  V30 63886 H 6238.57 -4.98722 -0.65459 0
M  V30 63887 H 6238.27 -5.80692 0.898386 0
M  V30 63888 H 6239.79 -6.10598 0.0152202 0
M  V30 63889 H 6241.21 -5.31657 2.14507 0
M  V30 63890 H 6239.6 -5.2359 2.93213 0
M  V30 63891 H 6240.67 -3.82325 2.98254 0
M  V30 63892 N 6242.02 -0.848534 -1.32807 0
M  V30 63893 C 6243.26 -0.449591 -1.97754 0
M  V30 63894 C 6243.6 0.990865 -1.67019 0
M  V30 63895 O 6242.87 1.6943 -0.955178 0
M  V30 63896 C 6243.15 -0.682022 -3.53582 0
M  V30 63897 C 6243.01 -2.17045 -3.93969 0
M  V30 63898 C 6244.33 -0.134425 -4.39895 0
M  V30 63899 H 6241.44 -0.164824 -0.718333 0
M  V30 63900 H 6244.09 -1.06583 -1.5729 0
M  V30 63901 H 6242.24 -0.15749 -3.88181 0
M  V30 63902 H 6243.91 -2.76059 -3.6958 0
M  V30 63903 H 6242.15 -2.65129 -3.43349 0
M  V30 63904 H 6242.82 -2.2838 -5.0254 0
M  V30 63905 H 6245.3 -0.582901 -4.11997 0
M  V30 63906 H 6244.17 -0.326671 -5.47927 0
M  V30 63907 H 6244.44 0.962424 -4.31497 0
M  V30 63908 N 6243.49 1.45488 -0.605884 0
M  V30 63909 C 6244.74 2.02251 -0.10041 0
M  V30 63910 C 6245.07 1.47451 1.2684 0
M  V30 63911 O 6244.32 0.638597 1.84988 0
M  V30 63912 C 6244.62 3.57399 -0.00931141 0
M  V30 63913 C 6244.29 4.31343 -1.31356 0
M  V30 63914 C 6242.95 4.51261 -1.67082 0
M  V30 63915 C 6245.3 4.73621 -2.1756 0
M  V30 63916 C 6242.63 5.10715 -2.88769 0
M  V30 63917 C 6244.98 5.3442 -3.38493 0
M  V30 63918 C 6243.65 5.52563 -3.74474 0
M  V30 63919 H 6242.92 0.740089 -0.0367425 0
M  V30 63920 H 6245.56 1.74574 -0.78716 0
M  V30 63921 H 6243.87 3.84344 0.760694 0
M  V30 63922 H 6245.57 3.99021 0.397917 0
M  V30 63923 H 6242.16 4.16151 -1.02548 0
M  V30 63924 H 6246.34 4.57968 -1.91258 0
M  V30 63925 H 6241.6 5.2295 -3.16754 0
M  V30 63926 H 6245.77 5.66135 -4.05542 0
M  V30 63927 H 6243.4 5.98399 -4.68852 0
M  V30 63928 N 6244.97 0.344947 1.53779 0
M  V30 63929 C 6245.88 -0.519607 2.28773 0
M  V30 63930 C 6246.9 -1.11071 1.33937 0
M  V30 63931 O 6248.07 -1.12609 1.66976 0
M  V30 63932 C 6245.14 -1.65406 3.04699 0
M  V30 63933 C 6244.2 -1.0926 4.15163 0
M  V30 63934 C 6243.43 -2.17299 4.87459 0
M  V30 63935 O 6243.66 -3.38045 4.59437 0
M  V30 63936 O 6242.59 -1.81515 5.73878 0
M  V30 63937 H 6246.42 0.0900692 3.03566 0
M  V30 63938 H 6244 0.109951 1.48995 0
M  V30 63939 H 6245.88 -2.31409 3.52176 0
M  V30 63940 H 6244.56 -2.24953 2.32762 0
M  V30 63941 H 6243.47 -0.397062 3.71987 0
M  V30 63942 H 6244.8 -0.541984 4.89207 0
M  V30 63943 N 6246.45 -1.57428 0.0736007 0
M  V30 63944 C 6247.73 -1.84964 -0.6362 0
M  V30 63945 C 6248.11 -0.966407 -1.8768 0
M  V30 63946 O 6247.46 -0.033164 -2.28476 0
M  V30 63947 C 6247.67 -3.35187 -0.972133 0
M  V30 63948 C 6249.01 -4.0274 -1.34484 0
M  V30 63949 O 6250.04 -3.39944 -1.06381 0
M  V30 63950 O 6248.9 -5.13502 -1.87025 0
M  V30 63951 H 6245.99 -0.76418 -0.316161 0
M  V30 63952 H 6248.54 -1.69377 0.104669 0
M  V30 63953 H 6247.31 -3.91194 -0.0910943 0
M  V30 63954 H 6246.93 -3.56044 -1.7697 0
M  V30 63955 N 6247.93 0.199967 -1.56326 0
M  V30 63956 C 6248.86 1.25064 -1.97183 0
M  V30 63957 C 6249.84 1.47737 -0.843082 0
M  V30 63958 O 6251.02 1.59556 -1.10704 0
M  V30 63959 C 6248.15 2.59592 -2.30715 0
M  V30 63960 C 6247.11 2.5154 -3.46283 0
M  V30 63961 C 6246.43 3.90296 -3.65477 0
M  V30 63962 C 6247.73 2.04463 -4.80616 0
M  V30 63963 H 6249.43 0.911138 -2.85199 0
M  V30 63964 H 6246.97 0.436851 -1.37214 0
M  V30 63965 H 6248.93 3.33272 -2.57891 0
M  V30 63966 H 6247.65 2.95273 -1.39576 0
M  V30 63967 H 6246.31 1.80316 -3.19189 0
M  V30 63968 H 6245.96 4.23321 -2.71677 0
M  V30 63969 H 6245.66 3.85784 -4.4322 0
M  V30 63970 H 6247.18 4.65605 -3.95024 0
M  V30 63971 H 6248.6 2.67899 -5.06856 0
M  V30 63972 H 6246.99 2.10965 -5.61795 0
M  V30 63973 H 6248.06 0.997661 -4.74526 0
M  V30 63974 N 6249.41 1.50506 0.4675 0
M  V30 63975 C 6250.65 1.61356 1.21691 0
M  V30 63976 C 6250.98 0.317651 1.92395 0
M  V30 63977 O 6250.25 -0.665058 1.84266 0
M  V30 63978 H 6248.83 0.594598 0.452175 0
M  V30 63979 H 6251.49 1.87301 0.538934 0
M  V30 63980 H 6250.58 2.42647 1.96287 0
M  V30 63981 N 6250.88 -0.720924 1.40144 0
M  V30 63982 C 6252.13 -1.48175 1.39341 0
M  V30 63983 C 6252.49 -1.92399 -0.00638135 0
M  V30 63984 O 6251.78 -1.64894 -0.975729 0
M  V30 63985 C 6251.97 -2.72505 2.31249 0
M  V30 63986 C 6251.8 -2.4044 3.80025 0
M  V30 63987 C 6250.57 -2.32042 4.4887 0
M  V30 63988 C 6252.77 -2.05058 4.71652 0
M  V30 63989 N 6250.75 -1.92595 5.82907 0
M  V30 63990 C 6252.12 -1.76169 5.94445 0
M  V30 63991 C 6254.18 -1.91648 4.59538 0
M  V30 63992 C 6252.88 -1.3522 7.06476 0
M  V30 63993 C 6254.91 -1.52102 5.71506 0
M  V30 63994 C 6254.27 -1.24107 6.93381 0
M  V30 63995 H 6250.37 -0.540498 0.565142 0
M  V30 63996 H 6252.95 -0.836542 1.75813 0
M  V30 63997 H 6251.12 -3.34783 1.96913 0
M  V30 63998 H 6252.85 -3.38808 2.21339 0
M  V30 63999 H 6249.61 -2.49606 4.02485 0
M  V30 64000 H 6250.03 -1.75426 6.53877 0
M  V30 64001 H 6254.68 -2.11954 3.65835 0
M  V30 64002 H 6252.39 -1.13655 8.00068 0
M  V30 64003 H 6255.98 -1.42312 5.64126 0
M  V30 64004 H 6254.86 -0.939663 7.7855 0
M  V30 64005 N 6252.36 -1.25553 -0.95259 0
M  V30 64006 C 6253.77 -1.09501 -1.51217 0
M  V30 64007 C 6254.13 0.328571 -1.93429 0
M  V30 64008 O 6253.25 1.21878 -1.78815 0
M  V30 64009 C 6253.85 -1.98159 -2.74806 0
M  V30 64010 C 6252.4 -1.86287 -3.27069 0
M  V30 64011 C 6251.55 -1.92188 -1.99897 0
M  V30 64012 H 6254.5 -1.38809 -0.76927 0
M  V30 64013 H 6254.52 -1.52278 -3.487 0
M  V30 64014 H 6254.04 -3.01762 -2.44052 0
M  V30 64015 H 6252.14 -0.855754 -3.6264 0
M  V30 64016 H 6252.25 -2.71208 -3.94947 0
M  V30 64017 H 6250.61 -1.36099 -2.15288 0
M  V30 64018 H 6251.4 -2.974 -1.71489 0
M  V30 64019 N 6253.84 1.15551 -1.07172 0
M  V30 64020 C 6255.07 1.90179 -0.814837 0
M  V30 64021 C 6255.48 1.77916 0.631766 0
M  V30 64022 O 6254.84 1.12985 1.4332 0
M  V30 64023 C 6254.89 3.40589 -1.21167 0
M  V30 64024 O 6254.61 3.52495 -2.60152 0
M  V30 64025 C 6256.11 4.32245 -0.983827 0
M  V30 64026 H 6253.33 0.602793 -0.294756 0
M  V30 64027 H 6255.88 1.46414 -1.4277 0
M  V30 64028 H 6254.03 3.82024 -0.643175 0
M  V30 64029 H 6254.45 4.45829 -2.76291 0
M  V30 64030 H 6255.92 5.36205 -1.31102 0
M  V30 64031 H 6256.4 4.39127 0.0799478 0
M  V30 64032 H 6257 3.9655 -1.53714 0
M  V30 64033 N 6255.32 0.855565 1.32355 0
M  V30 64034 C 6256.57 0.458484 1.96831 0
M  V30 64035 C 6256.89 -0.989401 1.68035 0
M  V30 64036 O 6256.16 -1.69158 0.988055 0
M  V30 64037 H 6254.74 0.166553 0.728196 0
M  V30 64038 H 6257.4 1.09219 1.61422 0
M  V30 64039 H 6256.5 0.604293 3.06194 0
M  V30 64040 N 6256.8 -1.45165 0.613591 0
M  V30 64041 C 6257.73 -2.33331 -0.0889219 0
M  V30 64042 C 6258.71 -1.47184 -0.852698 0
M  V30 64043 O 6259.89 -1.75943 -0.82206 0
M  V30 64044 C 6257.02 -3.29986 -1.0829 0
M  V30 64045 C 6255.98 -4.25815 -0.431935 0
M  V30 64046 C 6255.3 -5.12206 -1.53458 0
M  V30 64047 C 6256.6 -5.18231 0.650702 0
M  V30 64048 H 6258.3 -2.9232 0.647267 0
M  V30 64049 H 6255.84 -1.40563 0.312717 0
M  V30 64050 H 6257.8 -3.90538 -1.58296 0
M  V30 64051 H 6256.52 -2.69168 -1.84976 0
M  V30 64052 H 6255.18 -3.66569 0.0473216 0
M  V30 64053 H 6254.83 -4.47752 -2.29187 0
M  V30 64054 H 6254.53 -5.77126 -1.10449 0
M  V30 64055 H 6256.05 -5.75627 -2.0368 0
M  V30 64056 H 6257.47 -5.7282 0.234464 0
M  V30 64057 H 6255.86 -5.9166 1.00289 0
M  V30 64058 H 6256.93 -4.60298 1.52491 0
M  V30 64059 N 6258.28 -0.353098 -1.53594 0
M  V30 64060 C 6259.5 0.244237 -2.05957 0
M  V30 64061 C 6259.93 1.42677 -1.22576 0
M  V30 64062 O 6259.28 1.79681 -0.241787 0
M  V30 64063 C 6259.33 0.627959 -3.5509 0
M  V30 64064 O 6258.44 1.7268 -3.74507 0
M  V30 64065 H 6257.78 0.0385137 -0.662882 0
M  V30 64066 H 6260.31 -0.510083 -1.9814 0
M  V30 64067 H 6260.32 0.902457 -3.97894 0
M  V30 64068 H 6258.99 -0.236789 -4.15225 0
M  V30 64069 H 6257.57 1.44883 -3.43604 0
M  V30 64070 N 6259.75 1.57387 -0.0819485 0
M  V30 64071 C 6261 1.93047 0.584451 0
M  V30 64072 C 6261.32 0.96479 1.7015 0
M  V30 64073 O 6262.52 1.2146 2.42816 0
M  V30 64074 C 6260.98 3.42966 1.09098 0
M  V30 64075 C 6260.59 4.48 0.00438483 0
M  V30 64076 C 6262.33 3.8761 1.73086 0
M  V30 64077 C 6260.24 5.8906 0.525526 0
M  V30 64078 H 6259.17 0.720551 0.222086 0
M  V30 64079 H 6261.82 1.82837 -0.155826 0
M  V30 64080 H 6260.2 3.48283 1.88454 0
M  V30 64081 H 6261.37 4.54311 -0.770604 0
M  V30 64082 H 6259.69 4.12885 -0.539884 0
M  V30 64083 H 6262.29 4.90389 2.13126 0
M  V30 64084 H 6262.63 3.25533 2.59487 0
M  V30 64085 H 6263.16 3.84939 1.00335 0
M  V30 64086 H 6259.9 6.54806 -0.301563 0
M  V30 64087 H 6259.42 5.86248 1.26781 0
M  V30 64088 H 6261.1 6.39246 0.998703 0
M  V30 64089 N 6261.23 -0.191674 1.5643 0
M  V30 64090 C 6262.51 -0.937623 1.71662 0
M  V30 64091 C 6262.89 -2.01238 0.637691 0
M  V30 64092 O 6262.24 -2.25791 -0.350785 0
M  V30 64093 C 6262.45 -1.52093 3.14116 0
M  V30 64094 C 6263.79 -2.00173 3.74454 0
M  V30 64095 O 6264.82 -1.61928 3.17266 0
M  V30 64096 O 6263.68 -2.70559 4.74826 0
M  V30 64097 H 6260.77 -0.439937 0.700274 0
M  V30 64098 H 6263.32 -0.181102 1.68731 0
M  V30 64099 H 6262.09 -0.746391 3.84115 0
M  V30 64100 H 6261.71 -2.34219 3.2129 0
M  V30 64101 N 6262.71 -1.50752 -0.459512 0
M  V30 64102 C 6263.94 -1.65853 -1.23193 0
M  V30 64103 C 6264.35 -0.346037 -1.86009 0
M  V30 64104 O 6263.69 0.683206 -1.70523 0
M  V30 64105 C 6263.75 -2.70069 -2.37283 0
M  V30 64106 C 6263.42 -4.13303 -1.95012 0
M  V30 64107 C 6264.41 -4.98801 -1.46606 0
M  V30 64108 C 6262.1 -4.59284 -2.0338 0
M  V30 64109 C 6264.09 -6.28334 -1.07124 0
M  V30 64110 C 6261.78 -5.88819 -1.6351 0
M  V30 64111 C 6262.78 -6.7317 -1.15461 0
M  V30 64112 O 6262.47 -8.00285 -0.761485 0
M  V30 64113 H 6262.2 -0.560258 -0.378269 0
M  V30 64114 H 6264.75 -1.97801 -0.553538 0
M  V30 64115 H 6262.98 -2.33388 -3.08329 0
M  V30 64116 H 6264.67 -2.74272 -2.99216 0
M  V30 64117 H 6265.44 -4.64489 -1.39554 0
M  V30 64118 H 6261.32 -3.93767 -2.39726 0
M  V30 64119 H 6264.86 -6.94124 -0.695509 0
M  V30 64120 H 6260.76 -6.22651 -1.70225 0
M  V30 64121 H 6261.52 -8.13654 -0.88931 0
M  V30 64122 N 6264.19 0.713481 -1.40525 0
M  V30 64123 C 6265.12 1.84035 -1.43713 0
M  V30 64124 C 6266.1 1.67473 -0.29781 0
M  V30 64125 O 6267.28 1.87472 -0.506728 0
M  V30 64126 C 6264.41 3.22009 -1.30105 0
M  V30 64127 C 6263.37 3.53247 -2.41662 0
M  V30 64128 C 6262.69 4.90387 -2.1313 0
M  V30 64129 C 6263.99 3.54032 -3.84004 0
M  V30 64130 H 6265.69 1.81624 -2.38019 0
M  V30 64131 H 6263.23 0.872396 -1.14565 0
M  V30 64132 H 6265.19 4.00537 -1.30952 0
M  V30 64133 H 6263.91 3.25001 -0.322762 0
M  V30 64134 H 6262.57 2.77061 -2.40069 0
M  V30 64135 H 6262.22 4.89984 -1.13686 0
M  V30 64136 H 6261.92 5.12254 -2.87871 0
M  V30 64137 H 6263.44 5.71246 -2.15662 0
M  V30 64138 H 6264.86 4.22595 -3.8741 0
M  V30 64139 H 6263.25 3.87425 -4.58281 0
M  V30 64140 H 6264.32 2.53372 -4.13437 0
M  V30 64141 N 6265.67 1.26056 0.945918 0
M  V30 64142 C 6266.61 1.07006 2.06525 0
M  V30 64143 C 6267.61 -0.00162137 1.694 0
M  V30 64144 O 6268.81 0.154686 1.79334 0
M  V30 64145 H 6265.19 0.329153 0.676138 0
M  V30 64146 H 6267.16 2.01877 2.19746 0
M  V30 64147 C 6265.91 0.714756 3.40274 0
M  V30 64148 H 6265.23 1.53124 3.69314 0
M  V30 64149 H 6266.67 0.621218 4.19424 0
M  V30 64150 C 6265.13 -0.579792 3.31874 0
M  V30 64151 O 6265.66 -1.61946 3.67609 0
M  V30 64152 N 6263.87 -0.568664 2.84982 0
M  V30 64153 H 6263.41 0.277777 2.56098 0
M  V30 64154 H 6263.37 -1.43496 2.79743 0
M  V30 64155 N 6267.14 -1.14981 1.07783 0
M  V30 64156 C 6268.09 -2.21928 0.696483 0
M  V30 64157 C 6269.09 -1.66816 -0.294774 0
M  V30 64158 O 6270.29 -1.79305 -0.158018 0
M  V30 64159 H 6266.67 -0.722901 0.207168 0
M  V30 64160 H 6268.64 -2.51368 1.608 0
M  V30 64161 C 6267.39 -3.4751 0.115065 0
M  V30 64162 H 6266.71 -3.90242 0.868967 0
M  V30 64163 H 6268.15 -4.23847 -0.114046 0
M  V30 64164 C 6266.61 -3.16831 -1.14541 0
M  V30 64165 O 6267.14 -3.34034 -2.23123 0
M  V30 64166 N 6265.35 -2.7084 -1.05329 0
M  V30 64167 H 6264.89 -2.57041 -0.169638 0
M  V30 64168 H 6264.85 -2.50688 -1.89745 0
M  V30 64169 N 6268.62 -0.862572 -1.31899 0
M  V30 64170 C 6269.9 -0.390812 -1.91656 0
M  V30 64171 C 6270.28 1.12642 -1.78536 0
M  V30 64172 O 6269.63 1.95165 -1.1884 0
M  V30 64173 C 6269.84 -0.863966 -3.38137 0
M  V30 64174 C 6271.19 -0.885767 -4.15258 0
M  V30 64175 O 6272.21 -0.809127 -3.46888 0
M  V30 64176 O 6271.07 -0.995358 -5.37359 0
M  V30 64177 H 6268.16 -0.11553 -0.818891 0
M  V30 64178 H 6270.71 -0.949996 -1.40617 0
M  V30 64179 H 6269.48 -1.90735 -3.41666 0
M  V30 64180 H 6269.1 -0.282676 -3.96594 0
M  V30 64181 N 6270.1 1.44837 -0.62128 0
M  V30 64182 C 6271.52 1.57015 -0.286064 0
M  V30 64183 C 6271.72 1.61044 1.21107 0
M  V30 64184 O 6270.77 1.54814 1.99472 0
M  V30 64185 C 6272.09 2.84649 -0.969309 0
M  V30 64186 C 6273.63 2.98345 -0.946519 0
M  V30 64187 C 6274.11 4.28768 -1.61004 0
M  V30 64188 N 6275.6 4.35559 -1.57616 0
M  V30 64189 C 6276.33 5.35173 -2.05859 0
M  V30 64190 N 6275.83 6.41247 -2.62248 0
M  V30 64191 N 6277.62 5.26618 -1.96546 0
M  V30 64192 H 6269.77 1.40466 -1.59321 0
M  V30 64193 H 6272.04 0.67247 -0.668198 0
M  V30 64194 H 6271.74 2.87622 -2.02402 0
M  V30 64195 H 6271.62 3.73858 -0.50099 0
M  V30 64196 H 6274 2.94932 0.0996898 0
M  V30 64197 H 6274.09 2.10511 -1.45323 0
M  V30 64198 H 6273.73 4.32941 -2.65565 0
M  V30 64199 H 6273.66 5.15443 -1.07823 0
M  V30 64200 H 6276.15 3.59515 -1.16437 0
M  V30 64201 H 6276.46 7.13526 -2.96818 0
M  V30 64202 H 6274.81 6.4196 -2.66294 0
M  V30 64203 H 6278 4.42658 -1.52221 0
M  V30 64204 H 6278.17 6.04098 -2.34455 0
M  V30 64205 N 6271.58 0.361238 1.53404 0
M  V30 64206 C 6272.83 -0.230907 2.00374 0
M  V30 64207 C 6273.14 -1.50223 1.25269 0
M  V30 64208 O 6274.35 -2.17271 1.62805 0
M  V30 64209 C 6272.8 -0.462027 3.56922 0
M  V30 64210 C 6272.41 0.794418 4.409 0
M  V30 64211 C 6274.15 -1.01206 4.12259 0
M  V30 64212 C 6272.06 0.533121 5.88992 0
M  V30 64213 H 6270.99 -0.0900622 0.748602 0
M  V30 64214 H 6273.64 0.479307 1.7713 0
M  V30 64215 H 6272.02 -1.23339 3.76302 0
M  V30 64216 H 6273.2 1.56824 4.33293 0
M  V30 64217 H 6271.51 1.26736 3.96645 0
M  V30 64218 H 6274.11 -1.22281 5.2053 0
M  V30 64219 H 6274.45 -1.97291 3.66581 0
M  V30 64220 H 6274.99 -0.300973 3.9666 0
M  V30 64221 H 6271.73 1.46418 6.38938 0
M  V30 64222 H 6271.25 -0.202285 5.99459 0
M  V30 64223 H 6272.92 0.157 6.46809 0
M  V30 64224 N 6273.06 -1.57341 0.090294 0
M  V30 64225 C 6274.29 -1.98227 -0.58221 0
M  V30 64226 C 6274.69 -0.968069 -1.62558 0
M  V30 64227 O 6274.04 0.0512074 -1.83629 0
M  V30 64228 C 6274.1 -3.35473 -1.29221 0
M  V30 64229 C 6273.76 -4.55245 -0.400164 0
M  V30 64230 C 6274.76 -5.18722 0.349756 0
M  V30 64231 C 6272.45 -5.01282 -0.319626 0
M  V30 64232 C 6274.44 -6.26603 1.16824 0
M  V30 64233 C 6272.13 -6.0903 0.502517 0
M  V30 64234 C 6273.12 -6.71555 1.2451 0
M  V30 64235 O 6272.81 -7.77226 2.05365 0
M  V30 64236 H 6272.54 -0.656516 -0.16113 0
M  V30 64237 H 6275.1 -2.04738 0.164809 0
M  V30 64238 H 6273.33 -3.25631 -2.0857 0
M  V30 64239 H 6275.02 -3.60838 -1.85877 0
M  V30 64240 H 6275.78 -4.84088 0.297237 0
M  V30 64241 H 6271.66 -4.52381 -0.887273 0
M  V30 64242 H 6275.21 -6.75336 1.74835 0
M  V30 64243 H 6271.1 -6.43096 0.556533 0
M  V30 64244 H 6271.87 -7.94191 1.97996 0
M  V30 64245 N 6274.53 0.183375 -1.5653 0
M  V30 64246 C 6275.78 0.898649 -1.82472 0
M  V30 64247 C 6276.14 1.80391 -0.669083 0
M  V30 64248 O 6275.43 1.88646 0.335144 0
M  V30 64249 C 6275.62 1.74044 -3.1216 0
M  V30 64250 C 6275.45 0.918167 -4.40227 0
M  V30 64251 C 6274.22 0.597978 -5.01749 0
M  V30 64252 C 6276.42 0.265359 -5.13615 0
M  V30 64253 N 6274.4 -0.241696 -6.13424 0
M  V30 64254 C 6275.77 -0.436001 -6.18465 0
M  V30 64255 C 6277.83 0.182286 -4.97566 0
M  V30 64256 C 6276.53 -1.21254 -7.09006 0
M  V30 64257 C 6278.56 -0.580886 -5.8854 0
M  V30 64258 C 6277.92 -1.27065 -6.92845 0
M  V30 64259 H 6274.02 0.307849 -0.718855 0
M  V30 64260 H 6276.6 0.166497 -1.93987 0
M  V30 64261 H 6274.77 2.4441 -3.01858 0
M  V30 64262 H 6276.5 2.39609 -3.26144 0
M  V30 64263 H 6273.26 0.9252 -4.64475 0
M  V30 64264 H 6273.68 -0.651489 -6.73858 0
M  V30 64265 H 6278.33 0.701211 -4.16945 0
M  V30 64266 H 6276.04 -1.74285 -7.89082 0
M  V30 64267 H 6279.63 -0.646675 -5.78195 0
M  V30 64268 H 6278.51 -1.85173 -7.62024 0
M  V30 64269 N 6276.01 1.50994 0.451511 0
M  V30 64270 C 6277.24 1.67026 1.22952 0
M  V30 64271 C 6277.66 0.361214 1.84599 0
M  V30 64272 O 6277.02 -0.677134 1.6818 0
M  V30 64273 C 6277.07 2.77752 2.2997 0
M  V30 64274 O 6276.17 2.40368 3.35107 0
M  V30 64275 H 6275.51 0.557381 0.360863 0
M  V30 64276 H 6278.04 1.97481 0.535003 0
M  V30 64277 H 6278.05 3.01415 2.74978 0
M  V30 64278 H 6276.73 3.72749 1.84475 0
M  V30 64279 H 6275.31 2.27225 2.95675 0
M  V30 64280 N 6277.49 -0.706019 1.40901 0
M  V30 64281 C 6278.77 -1.45979 1.3019 0
M  V30 64282 C 6279.15 -2.10965 -0.0753682 0
M  V30 64283 O 6278.5 -2.00887 -1.08888 0
M  V30 64284 C 6278.71 -2.48773 2.44771 0
M  V30 64285 C 6280.05 -3.14329 2.85452 0
M  V30 64286 O 6281.08 -2.59095 2.44434 0
M  V30 64287 O 6279.94 -4.14342 3.56347 0
M  V30 64288 H 6277.03 -0.64961 0.511797 0
M  V30 64289 H 6279.58 -0.737382 1.52842 0
M  V30 64290 H 6278.35 -1.99335 3.36722 0
M  V30 64291 H 6277.97 -3.28537 2.2394 0
M  V30 64292 N 6278.97 -1.26556 -0.93922 0
M  V30 64293 C 6280.22 -1.12216 -1.68564 0
M  V30 64294 C 6280.54 0.334146 -1.91608 0
M  V30 64295 O 6279.8 1.26171 -1.49597 0
M  V30 64296 C 6280.1 -1.83858 -3.06481 0
M  V30 64297 C 6279.76 -3.3375 -3.03186 0
M  V30 64298 C 6278.43 -3.74636 -3.01995 0
M  V30 64299 C 6280.78 -4.29443 -2.95345 0
M  V30 64300 C 6278.11 -5.09601 -2.9073 0
M  V30 64301 C 6280.46 -5.64449 -2.85621 0
M  V30 64302 C 6279.12 -6.04645 -2.82774 0
M  V30 64303 H 6278.39 -0.410628 -0.616819 0
M  V30 64304 H 6281.04 -1.57023 -1.09618 0
M  V30 64305 H 6279.34 -1.31526 -3.69064 0
M  V30 64306 H 6281.04 -1.70201 -3.63087 0
M  V30 64307 H 6277.63 -3.01226 -3.04895 0
M  V30 64308 H 6281.81 -3.98835 -2.95372 0
M  V30 64309 H 6277.07 -5.39904 -2.86904 0
M  V30 64310 H 6281.24 -6.3828 -2.78517 0
M  V30 64311 H 6278.87 -7.0918 -2.73801 0
M  V30 64312 N 6280.45 1.14407 -1.08391 0
M  V30 64313 C 6281.39 2.19486 -0.713745 0
M  V30 64314 C 6282.36 1.63369 0.299978 0
M  V30 64315 O 6283.55 1.89911 0.184022 0
M  V30 64316 C 6280.69 3.44859 -0.129046 0
M  V30 64317 C 6279.8 4.15128 -1.19553 0
M  V30 64318 C 6278.94 5.28082 -0.574707 0
M  V30 64319 C 6277.98 5.90184 -1.62324 0
M  V30 64320 N 6277.11 6.94589 -1.02422 0
M  V30 64321 H 6281.95 2.50499 -1.61413 0
M  V30 64322 H 6279.49 1.23011 -0.806638 0
M  V30 64323 H 6281.45 4.16578 0.227668 0
M  V30 64324 H 6280.08 3.14329 0.734646 0
M  V30 64325 H 6279.13 3.41798 -1.66967 0
M  V30 64326 H 6280.44 4.5738 -1.9901 0
M  V30 64327 H 6279.6 6.06472 -0.16623 0
M  V30 64328 H 6278.33 4.87051 0.25153 0
M  V30 64329 H 6277.34 5.10498 -2.04138 0
M  V30 64330 H 6278.56 6.3329 -2.45195 0
M  V30 64331 H 6276.51 6.55634 -0.219079 0
M  V30 64332 H 6276.43 7.35326 -1.7559 0
M  V30 64333 H 6277.7 7.76855 -0.641601 0
M  V30 64334 N 6281.93 0.869555 1.3144 0
M  V30 64335 C 6282.84 0.328434 2.3229 0
M  V30 64336 C 6283.85 -0.561433 1.64693 0
M  V30 64337 O 6285.03 -0.458247 1.96117 0
M  V30 64338 C 6282.09 -0.461612 3.43613 0
M  V30 64339 C 6281.15 0.456165 4.2687 0
M  V30 64340 C 6280.39 -0.296271 5.32877 0
M  V30 64341 O 6280.61 -1.52441 5.49652 0
M  V30 64342 O 6279.54 0.345654 6.00907 0
M  V30 64343 H 6283.37 1.16434 2.80494 0
M  V30 64344 H 6280.95 0.632917 1.35331 0
M  V30 64345 H 6282.84 -0.909505 4.11468 0
M  V30 64346 H 6281.51 -1.27407 2.97572 0
M  V30 64347 H 6280.42 0.952548 3.6177 0
M  V30 64348 H 6281.75 1.23421 4.76475 0
M  V30 64349 N 6283.4 -1.44506 0.628953 0
M  V30 64350 C 6284.68 -1.95497 0.0635884 0
M  V30 64351 C 6285.06 -1.57097 -1.4101 0
M  V30 64352 O 6284.41 -0.843969 -2.12343 0
M  V30 64353 C 6284.62 -3.47841 0.284173 0
M  V30 64354 C 6285.97 -4.24234 0.176223 0
M  V30 64355 O 6286.99 -3.55548 0.215423 0
M  V30 64356 O 6285.85 -5.46442 0.0793224 0
M  V30 64357 H 6282.94 -0.826665 -0.0235538 0
M  V30 64358 H 6285.49 -1.54567 0.700505 0
M  V30 64359 H 6284.26 -3.68833 1.30684 0
M  V30 64360 H 6283.88 -3.95712 -0.386986 0
M  V30 64361 N 6284.88 -0.369369 -1.5321 0
M  V30 64362 C 6286.13 0.219462 -2.01609 0
M  V30 64363 C 6286.46 1.4811 -1.25607 0
M  V30 64364 O 6285.74 1.9131 -0.35083 0
M  V30 64365 C 6286.02 0.507588 -3.56505 0
M  V30 64366 C 6285.87 -0.767948 -4.43196 0
M  V30 64367 C 6287.19 1.30659 -4.20257 0
M  V30 64368 H 6284.31 0.0782898 -0.73283 0
M  V30 64369 H 6286.95 -0.495008 -1.83438 0
M  V30 64370 H 6285.1 1.11624 -3.72119 0
M  V30 64371 H 6286.77 -1.40535 -4.39372 0
M  V30 64372 H 6285.02 -1.38751 -4.11012 0
M  V30 64373 H 6285.69 -0.521257 -5.49533 0
M  V30 64374 H 6288.16 0.791678 -4.08499 0
M  V30 64375 H 6287.04 1.47693 -5.28657 0
M  V30 64376 H 6287.3 2.31618 -3.76571 0
M  V30 64377 N 6286.36 1.57291 -0.0986369 0
M  V30 64378 C 6287.61 1.93656 0.563943 0
M  V30 64379 C 6287.92 0.982782 1.69118 0
M  V30 64380 O 6289.13 1.24028 2.41514 0
M  V30 64381 C 6287.58 3.44104 1.05454 0
M  V30 64382 C 6287.19 4.47979 -0.0431318 0
M  V30 64383 C 6288.94 3.89424 1.68965 0
M  V30 64384 C 6286.84 5.89585 0.463019 0
M  V30 64385 H 6285.77 0.722866 0.214432 0
M  V30 64386 H 6288.42 1.82662 -0.17521 0
M  V30 64387 H 6286.81 3.50263 1.84749 0
M  V30 64388 H 6287.98 4.53468 -0.818746 0
M  V30 64389 H 6286.29 4.12289 -0.583646 0
M  V30 64390 H 6288.89 4.92622 2.07913 0
M  V30 64391 H 6289.23 3.28267 2.5602 0
M  V30 64392 H 6289.77 3.85981 0.962466 0
M  V30 64393 H 6286.51 6.54449 -0.370997 0
M  V30 64394 H 6286.03 5.8756 1.20556 0
M  V30 64395 H 6287.71 6.40269 0.930847 0
M  V30 64396 N 6287.84 -0.175072 1.56625 0
M  V30 64397 C 6288.75 -1.23684 1.99348 0
M  V30 64398 C 6289.76 -1.48658 0.904249 0
M  V30 64399 O 6290.94 -1.60881 1.21159 0
M  V30 64400 C 6288 -2.55681 2.34154 0
M  V30 64401 C 6287.07 -2.38602 3.56886 0
M  V30 64402 C 6286.3 -3.64304 3.90023 0
M  V30 64403 O 6286.52 -4.69324 3.24178 0
M  V30 64404 O 6285.46 -3.58638 4.83386 0
M  V30 64405 H 6289.28 -0.904212 2.89927 0
M  V30 64406 H 6286.87 -0.381646 1.44443 0
M  V30 64407 H 6288.75 -3.33553 2.57528 0
M  V30 64408 H 6287.42 -2.8853 1.46738 0
M  V30 64409 H 6286.33 -1.58774 3.38735 0
M  V30 64410 H 6287.66 -2.10678 4.44832 0
M  V30 64411 N 6289.32 -1.51231 -0.443497 0
M  V30 64412 C 6290.54 -1.67393 -1.21603 0
M  V30 64413 C 6290.96 -0.368677 -1.85165 0
M  V30 64414 O 6290.32 0.652222 -1.70447 0
M  V30 64415 C 6290.37 -2.78515 -2.30459 0
M  V30 64416 O 6290.09 -4.03983 -1.69498 0
M  V30 64417 C 6291.59 -3.05892 -3.2085 0
M  V30 64418 H 6288.81 -0.561906 -0.366747 0
M  V30 64419 H 6291.35 -1.97613 -0.526243 0
M  V30 64420 H 6289.51 -2.50912 -2.95165 0
M  V30 64421 H 6289.92 -4.6565 -2.41393 0
M  V30 64422 H 6291.4 -3.87242 -3.93379 0
M  V30 64423 H 6291.87 -2.18053 -3.81247 0
M  V30 64424 H 6292.48 -3.35132 -2.61852 0
M  V30 64425 N 6290.79 0.698537 -1.41274 0
M  V30 64426 C 6292.04 1.4542 -1.39771 0
M  V30 64427 C 6292.36 1.95598 -0.00898404 0
M  V30 64428 O 6293.56 2.71195 0.128662 0
M  V30 64429 C 6292.02 2.62944 -2.45741 0
M  V30 64430 C 6291.63 2.19564 -3.90507 0
M  V30 64431 C 6293.37 3.40593 -2.53371 0
M  V30 64432 C 6291.28 3.34029 -4.88036 0
M  V30 64433 H 6290.21 0.546218 -0.519771 0
M  V30 64434 H 6292.86 0.75862 -1.67084 0
M  V30 64435 H 6291.24 3.34755 -2.11554 0
M  V30 64436 H 6292.41 1.55062 -4.33927 0
M  V30 64437 H 6290.73 1.54916 -3.8651 0
M  V30 64438 H 6293.33 4.25798 -3.2342 0
M  V30 64439 H 6293.67 3.85577 -1.5696 0
M  V30 64440 H 6294.2 2.75836 -2.86634 0
M  V30 64441 H 6290.94 2.9406 -5.8584 0
M  V30 64442 H 6290.46 3.97391 -4.49267 0
M  V30 64443 H 6292.14 3.9985 -5.08654 0
M  V30 64444 N 6292.27 1.27052 0.932495 0
M  V30 64445 C 6293.22 1.09363 2.03245 0
M  V30 64446 C 6294.19 -0.00390432 1.661 0
M  V30 64447 O 6295.37 0.157516 1.90149 0
M  V30 64448 C 6292.51 0.741822 3.37033 0
M  V30 64449 C 6291.63 1.9165 3.87162 0
M  V30 64450 C 6290.76 1.50701 5.09375 0
M  V30 64451 C 6289.8 2.64946 5.51788 0
M  V30 64452 N 6288.94 2.24619 6.652 0
M  V30 64453 H 6293.78 2.03488 2.17708 0
M  V30 64454 H 6291.31 1.01303 1.06659 0
M  V30 64455 H 6293.27 0.518692 4.13963 0
M  V30 64456 H 6291.9 -0.162463 3.22391 0
M  V30 64457 H 6290.95 2.25231 3.06554 0
M  V30 64458 H 6292.27 2.77368 4.1457 0
M  V30 64459 H 6291.42 1.24484 5.93792 0
M  V30 64460 H 6290.16 0.620857 4.83732 0
M  V30 64461 H 6289.16 2.91883 4.65923 0
M  V30 64462 H 6290.39 3.54175 5.79428 0
M  V30 64463 H 6288.34 1.38449 6.41224 0
M  V30 64464 H 6288.25 3.03877 6.92239 0
M  V30 64465 H 6289.52 2.01637 7.52969 0
M  V30 64466 N 6293.75 -1.13831 1.08997 0
M  V30 64467 C 6294.98 -1.88585 0.843764 0
M  V30 64468 C 6295.39 -1.79156 -0.608244 0
M  V30 64469 O 6294.73 -1.15295 -1.43013 0
M  V30 64470 C 6294.79 -3.39075 1.1945 0
M  V30 64471 C 6294.46 -3.72286 2.65051 0
M  V30 64472 C 6295.45 -3.71898 3.63301 0
M  V30 64473 C 6293.14 -4.0208 3.0106 0
M  V30 64474 C 6295.13 -4.00838 4.95589 0
M  V30 64475 C 6292.82 -4.30681 4.3354 0
M  V30 64476 C 6293.82 -4.30045 5.30613 0
M  V30 64477 O 6293.51 -4.57949 6.6071 0
M  V30 64478 H 6293.24 -0.604009 0.30356 0
M  V30 64479 H 6295.79 -1.4505 1.4543 0
M  V30 64480 H 6294.02 -3.83092 0.526996 0
M  V30 64481 H 6295.71 -3.95146 0.92815 0
M  V30 64482 H 6296.48 -3.4896 3.36826 0
M  V30 64483 H 6292.36 -4.01725 2.26137 0
M  V30 64484 H 6295.9 -4.00256 5.7135 0
M  V30 64485 H 6291.8 -4.5309 4.59761 0
M  V30 64486 H 6292.56 -4.75638 6.66116 0
M  V30 64487 N 6295.23 -0.876513 -1.30977 0
M  V30 64488 C 6296.5 -0.411118 -1.91231 0
M  V30 64489 C 6296.88 1.10742 -1.79721 0
M  V30 64490 O 6296.23 1.93894 -1.20903 0
M  V30 64491 C 6296.44 -0.899781 -3.37202 0
M  V30 64492 C 6297.79 -0.92976 -4.14295 0
M  V30 64493 O 6298.81 -0.845874 -3.46011 0
M  V30 64494 O 6297.67 -1.0523 -5.36273 0
M  V30 64495 H 6294.77 -0.124208 -0.817619 0
M  V30 64496 H 6297.31 -0.964857 -1.39602 0
M  V30 64497 H 6296.09 -1.94348 -3.39624 0
M  V30 64498 H 6295.71 -0.324724 -3.96272 0
M  V30 64499 N 6296.71 1.4417 -0.636607 0
M  V30 64500 C 6297.95 2.01593 -0.143004 0
M  V30 64501 C 6298.28 1.5037 1.24152 0
M  V30 64502 O 6297.55 0.709527 1.82599 0
M  V30 64503 H 6296.13 0.745333 -0.0498762 0
M  V30 64504 H 6298.79 1.76599 -0.824542 0
M  V30 64505 H 6297.88 3.11888 -0.114884 0
M  V30 64506 N 6298.18 0.377489 1.53012 0
M  V30 64507 C 6299.41 -0.208872 2.05843 0
M  V30 64508 C 6299.83 -1.41483 1.25012 0
M  V30 64509 O 6299.18 -1.8012 0.293766 0
M  V30 64510 C 6299.24 -0.590653 3.56642 0
M  V30 64511 O 6298.96 0.567383 4.3441 0
M  V30 64512 C 6300.46 -1.23414 4.25775 0
M  V30 64513 H 6297.68 -0.0342901 0.670123 0
M  V30 64514 H 6300.22 0.539303 1.97261 0
M  V30 64515 H 6298.38 -1.28873 3.65336 0
M  V30 64516 H 6298.79 0.256246 5.23874 0
M  V30 64517 H 6300.26 -1.45173 5.32568 0
M  V30 64518 H 6300.74 -2.198 3.80243 0
M  V30 64519 H 6301.35 -0.577155 4.21366 0
M  V30 64520 N 6299.66 -1.57237 0.106977 0
M  V30 64521 C 6300.94 -1.86272 -0.596823 0
M  V30 64522 C 6301.32 -1.006 -1.85588 0
M  V30 64523 O 6300.67 -0.0816197 -2.28354 0
M  V30 64524 C 6300.88 -3.37174 -0.900816 0
M  V30 64525 C 6302.23 -4.05502 -1.25911 0
M  V30 64526 O 6303.25 -3.42124 -0.991459 0
M  V30 64527 O 6302.11 -5.17353 -1.76091 0
M  V30 64528 H 6299.2 -0.770715 -0.29988 0
M  V30 64529 H 6301.75 -1.69117 0.140573 0
M  V30 64530 H 6300.52 -3.91299 -0.00809581 0
M  V30 64531 H 6300.14 -3.59718 -1.69378 0
M  V30 64532 N 6301.14 0.166763 -1.56715 0
M  V30 64533 C 6302.56 0.518701 -1.50936 0
M  V30 64534 C 6302.76 1.84414 -0.812029 0
M  V30 64535 O 6301.81 2.4971 -0.374294 0
M  V30 64536 C 6303.13 0.547252 -2.95678 0
M  V30 64537 C 6304.67 0.634139 -3.06509 0
M  V30 64538 C 6305.15 0.69354 -4.52718 0
M  V30 64539 N 6306.64 0.756305 -4.56984 0
M  V30 64540 C 6307.37 0.822917 -5.67464 0
M  V30 64541 N 6306.87 0.850084 -6.87565 0
M  V30 64542 N 6308.66 0.862287 -5.55447 0
M  V30 64543 H 6300.81 -0.702291 -2.00454 0
M  V30 64544 H 6303.08 -0.253763 -0.913405 0
M  V30 64545 H 6302.78 -0.358068 -3.49872 0
M  V30 64546 H 6302.66 1.39215 -3.5057 0
M  V30 64547 H 6305.04 1.52988 -2.52346 0
M  V30 64548 H 6305.13 -0.237519 -2.54695 0
M  V30 64549 H 6304.77 -0.197967 -5.07514 0
M  V30 64550 H 6304.7 1.58141 -5.02294 0
M  V30 64551 H 6307.19 0.743409 -3.70516 0
M  V30 64552 H 6307.5 0.902211 -7.67515 0
M  V30 64553 H 6305.85 0.818285 -6.90166 0
M  V30 64554 H 6309.04 0.838096 -4.60536 0
M  V30 64555 H 6309.21 0.910737 -6.41568 0
M  V30 64556 N 6302.62 1.51464 0.43547 0
M  V30 64557 C 6304.03 1.39681 0.772096 0
M  V30 64558 C 6304.23 0.480615 1.95684 0
M  V30 64559 O 6303.29 -0.0635222 2.5242 0
M  V30 64560 C 6304.6 2.81745 1.05072 0
M  V30 64561 C 6306.15 2.90909 1.15504 0
M  V30 64562 C 6306.63 4.33884 1.46658 0
M  V30 64563 N 6308.12 4.36999 1.53578 0
M  V30 64564 C 6308.85 5.44659 1.7926 0
M  V30 64565 N 6308.35 6.62477 2.02721 0
M  V30 64566 N 6310.14 5.32142 1.81057 0
M  V30 64567 H 6302.29 2.09583 -0.344773 0
M  V30 64568 H 6304.56 0.94354 -0.0918531 0
M  V30 64569 H 6304.26 3.5079 0.252852 0
M  V30 64570 H 6304.14 3.21186 1.97786 0
M  V30 64571 H 6306.52 2.22061 1.94353 0
M  V30 64572 H 6306.6 2.54962 0.20686 0
M  V30 64573 H 6306.25 5.03282 0.683364 0
M  V30 64574 H 6306.18 4.67345 2.42685 0
M  V30 64575 H 6308.67 3.52058 1.37343 0
M  V30 64576 H 6308.98 7.40319 2.21692 0
M  V30 64577 H 6307.33 6.65589 2.00039 0
M  V30 64578 H 6310.52 4.39082 1.62249 0
M  V30 64579 H 6310.69 6.16125 2.00734 0
M  V30 64580 N 6304.1 -0.691035 1.41642 0
M  V30 64581 C 6305.34 -1.45324 1.41452 0
M  V30 64582 C 6305.68 -1.94184 0.025044 0
M  V30 64583 O 6304.95 -1.69834 -0.947983 0
M  V30 64584 C 6305.23 -2.6619 2.42517 0
M  V30 64585 C 6305.09 -2.23067 3.90591 0
M  V30 64586 C 6306.41 -3.68393 2.40779 0
M  V30 64587 H 6303.52 -0.527097 0.515109 0
M  V30 64588 H 6306.17 -0.786697 1.72948 0
M  V30 64589 H 6304.32 -3.23059 2.1579 0
M  V30 64590 H 6305.99 -1.71491 4.28239 0
M  V30 64591 H 6304.23 -1.54804 4.05238 0
M  V30 64592 H 6304.9 -3.09812 4.56859 0
M  V30 64593 H 6307.38 -3.21208 2.64509 0
M  V30 64594 H 6306.25 -4.50565 3.135 0
M  V30 64595 H 6306.52 -4.18403 1.42798 0
M  V30 64596 N 6305.57 -1.27545 -0.925744 0
M  V30 64597 C 6306.82 -1.13381 -1.66816 0
M  V30 64598 C 6307.14 0.319439 -1.92974 0
M  V30 64599 O 6308.34 0.582016 -2.65188 0
M  V30 64600 C 6306.8 -1.98122 -3.00459 0
M  V30 64601 C 6306.41 -3.48115 -2.81993 0
M  V30 64602 C 6308.15 -1.92611 -3.78287 0
M  V30 64603 C 6306.06 -4.25048 -4.11203 0
M  V30 64604 H 6304.99 -0.420719 -0.625709 0
M  V30 64605 H 6307.64 -1.51981 -1.0283 0
M  V30 64606 H 6306.02 -1.52367 -3.65514 0
M  V30 64607 H 6307.19 -4.01745 -2.25693 0
M  V30 64608 H 6305.51 -3.55025 -2.17591 0
M  V30 64609 H 6308.11 -2.47365 -4.74041 0
M  V30 64610 H 6308.45 -0.90017 -4.06451 0
M  V30 64611 H 6308.98 -2.36271 -3.20033 0
M  V30 64612 H 6305.72 -5.28174 -3.88217 0
M  V30 64613 H 6305.24 -3.76194 -4.67159 0
M  V30 64614 H 6306.92 -4.34327 -4.79551 0
M  V30 64615 N 6307.05 1.13251 -1.09599 0
M  V30 64616 C 6308.02 2.16906 -0.740557 0
M  V30 64617 C 6309.02 1.59136 0.230738 0
M  V30 64618 O 6310.21 1.74198 0.00869427 0
M  V30 64619 C 6307.34 3.40766 -0.0954702 0
M  V30 64620 H 6308.53 2.49863 -1.65857 0
M  V30 64621 H 6306.08 1.2811 -0.895403 0
M  V30 64622 H 6306.82 3.13401 0.833684 0
M  V30 64623 H 6306.6 3.83969 -0.794382 0
M  V30 64624 H 6308.09 4.17373 0.137745 0
M  V30 64625 N 6308.53 0.883447 1.3051 0
M  V30 64626 C 6309.48 0.347334 2.28171 0
M  V30 64627 C 6310.45 -0.561643 1.56316 0
M  V30 64628 O 6311.63 -0.490389 1.8439 0
M  V30 64629 C 6308.77 -0.433453 3.42367 0
M  V30 64630 C 6307.89 0.504568 4.29043 0
M  V30 64631 C 6307.02 -0.291666 5.30399 0
M  V30 64632 C 6306.06 0.641922 6.08725 0
M  V30 64633 N 6305.2 -0.118893 7.01999 0
M  V30 64634 H 6310.04 1.1853 2.73413 0
M  V30 64635 H 6307.57 0.595871 1.34491 0
M  V30 64636 H 6309.53 -0.902043 4.07332 0
M  V30 64637 H 6308.16 -1.236 2.98199 0
M  V30 64638 H 6307.21 1.09164 3.644 0
M  V30 64639 H 6308.53 1.21986 4.83654 0
M  V30 64640 H 6307.68 -0.822178 6.01103 0
M  V30 64641 H 6306.42 -1.04018 4.76478 0
M  V30 64642 H 6305.42 1.18408 5.36898 0
M  V30 64643 H 6306.65 1.38951 6.64733 0
M  V30 64644 H 6304.59 -0.849975 6.5047 0
M  V30 64645 H 6304.51 0.536802 7.54092 0
M  V30 64646 H 6305.78 -0.630197 7.76948 0
M  V30 64647 N 6310.01 -1.43831 0.644244 0
M  V30 64648 C 6310.92 -2.34539 -0.0536679 0
M  V30 64649 C 6311.93 -1.53372 -0.821771 0
M  V30 64650 O 6313.11 -1.86056 -0.771058 0
M  V30 64651 C 6310.18 -3.31533 -1.01422 0
M  V30 64652 C 6309.24 -4.28606 -0.244047 0
M  V30 64653 C 6308.47 -5.20967 -1.15885 0
M  V30 64654 O 6308.69 -5.17548 -2.39792 0
M  V30 64655 O 6307.63 -5.98529 -0.636092 0
M  V30 64656 H 6311.45 -2.95694 0.692727 0
M  V30 64657 H 6309.04 -1.43822 0.404428 0
M  V30 64658 H 6310.92 -3.91202 -1.5665 0
M  V30 64659 H 6309.59 -2.72893 -1.741 0
M  V30 64660 H 6308.5 -3.72444 0.351589 0
M  V30 64661 H 6309.83 -4.90203 0.442979 0
M  V30 64662 N 6311.49 -0.385598 -1.5281 0
M  V30 64663 C 6312.45 0.439215 -2.24952 0
M  V30 64664 C 6313.45 0.993271 -1.26455 0
M  V30 64665 O 6314.64 0.875858 -1.5058 0
M  V30 64666 C 6311.77 1.61585 -3.00172 0
M  V30 64667 H 6312.97 -0.192338 -2.99283 0
M  V30 64668 H 6310.52 -0.137644 -1.55693 0
M  V30 64669 H 6311.25 2.28493 -2.30133 0
M  V30 64670 H 6311.04 1.22531 -3.72463 0
M  V30 64671 H 6312.53 2.19988 -3.54958 0
M  V30 64672 N 6312.97 1.57178 -0.115314 0
M  V30 64673 C 6313.9 2.10823 0.873424 0
M  V30 64674 C 6314.88 1.02372 1.26328 0
M  V30 64675 O 6316.06 1.30002 1.36498 0
M  V30 64676 C 6313.19 2.60191 2.16838 0
M  V30 64677 C 6312.23 3.80492 1.92687 0
M  V30 64678 S 6313.07 5.23083 1.14648 0
M  V30 64679 C 6314.22 5.75816 2.4533 0
M  V30 64680 H 6314.46 2.94359 0.417116 0
M  V30 64681 H 6311.99 1.54086 0.0983875 0
M  V30 64682 H 6313.95 2.89288 2.91243 0
M  V30 64683 H 6312.61 1.76843 2.59587 0
M  V30 64684 H 6311.8 4.1317 2.88628 0
M  V30 64685 H 6311.4 3.51992 1.26403 0
M  V30 64686 H 6313.69 5.85316 3.41192 0
M  V30 64687 H 6314.64 6.73965 2.17202 0
M  V30 64688 H 6315.05 5.0386 2.54529 0
M  V30 64689 N 6314.44 -0.15845 1.56801 0
M  V30 64690 C 6315.39 -1.21519 1.98333 0
M  V30 64691 C 6316.39 -1.45114 0.873977 0
M  V30 64692 O 6317.59 -1.45542 1.05913 0
M  V30 64693 H 6313.97 -0.40878 0.631191 0
M  V30 64694 H 6315.94 -0.838142 2.86387 0
M  V30 64695 C 6314.69 -2.54388 2.37028 0
M  V30 64696 H 6314.01 -2.37059 3.21937 0
M  V30 64697 H 6315.45 -3.26985 2.6992 0
M  V30 64698 C 6313.91 -3.1409 1.21856 0
M  V30 64699 O 6314.44 -3.98409 0.51312 0
M  V30 64700 N 6312.64 -2.7337 0.985772 0
M  V30 64701 H 6312.19 -2.04902 1.56119 0
M  V30 64702 H 6312.15 -3.1365 0.217037 0
M  V30 64703 N 6315.92 -1.51693 -0.427432 0
M  V30 64704 C 6317.33 -1.57218 -1.00695 0
M  V30 64705 C 6317.68 -0.401595 -1.92046 0
M  V30 64706 O 6316.81 0.48039 -2.11001 0
M  V30 64707 C 6317.4 -2.84933 -1.83299 0
M  V30 64708 C 6315.96 -2.92997 -2.36283 0
M  V30 64709 C 6315.11 -2.51981 -1.15763 0
M  V30 64710 H 6318.06 -1.57327 -0.20833 0
M  V30 64711 H 6318.08 -2.69255 -2.68854 0
M  V30 64712 H 6317.59 -3.70112 -1.16786 0
M  V30 64713 H 6315.69 -2.12271 -3.06222 0
M  V30 64714 H 6315.81 -3.96859 -2.68402 0
M  V30 64715 H 6314.17 -2.05406 -1.50601 0
M  V30 64716 H 6314.95 -3.39514 -0.508448 0
M  V30 64717 N 6317.4 0.683514 -1.42007 0
M  V30 64718 C 6318.63 1.46991 -1.4518 0
M  V30 64719 C 6319.04 1.89108 -0.0590201 0
M  V30 64720 O 6318.38 1.58144 0.934682 0
M  V30 64721 C 6318.44 2.75608 -2.30825 0
M  V30 64722 C 6318.11 2.55621 -3.78823 0
M  V30 64723 C 6319.1 2.20786 -4.70691 0
M  V30 64724 C 6316.79 2.70887 -4.22996 0
M  V30 64725 C 6318.78 2.01471 -6.04722 0
M  V30 64726 C 6316.47 2.51188 -5.57089 0
M  V30 64727 C 6317.47 2.16532 -6.47768 0
M  V30 64728 O 6317.16 1.97016 -7.79384 0
M  V30 64729 H 6316.89 0.459102 -0.496187 0
M  V30 64730 H 6319.44 0.848023 -1.87077 0
M  V30 64731 H 6317.67 3.40247 -1.83763 0
M  V30 64732 H 6319.36 3.37459 -2.25557 0
M  V30 64733 H 6320.13 2.08596 -4.3785 0
M  V30 64734 H 6316.01 2.96842 -3.52712 0
M  V30 64735 H 6319.55 1.74344 -6.75463 0
M  V30 64736 H 6315.45 2.62972 -5.89505 0
M  V30 64737 H 6316.21 2.11683 -7.90653 0
M  V30 64738 N 6318.88 1.28034 0.918967 0
M  V30 64739 C 6320.1 1.17834 1.70675 0
M  V30 64740 C 6320.53 -0.260141 1.86292 0
M  V30 64741 O 6319.89 -1.18828 1.36929 0
M  V30 64742 C 6319.93 1.87637 3.07936 0
M  V30 64743 O 6319.04 1.18028 3.9515 0
M  V30 64744 H 6318.38 0.409338 0.522817 0
M  V30 64745 H 6320.91 1.69262 1.14941 0
M  V30 64746 H 6320.92 1.95339 3.58199 0
M  V30 64747 H 6319.59 2.92274 2.95886 0
M  V30 64748 H 6318.17 1.18454 3.53586 0
M  V30 64749 N 6320.36 -1.12669 1.10198 0
M  V30 64750 C 6321.29 -2.20419 0.770569 0
M  V30 64751 C 6322.27 -1.68172 -0.255351 0
M  V30 64752 O 6323.45 -1.93819 -0.12166 0
M  V30 64753 C 6320.58 -3.4673 0.198937 0
M  V30 64754 C 6319.54 -4.12114 1.15527 0
M  V30 64755 C 6318.86 -5.32845 0.444956 0
M  V30 64756 C 6320.16 -4.58533 2.50089 0
M  V30 64757 H 6321.86 -2.48398 1.67149 0
M  V30 64758 H 6319.4 -1.19389 0.805119 0
M  V30 64759 H 6321.35 -4.21376 -0.0450372 0
M  V30 64760 H 6320.08 -3.18171 -0.73722 0
M  V30 64761 H 6318.74 -3.39445 1.38465 0
M  V30 64762 H 6318.39 -5.00553 -0.495594 0
M  V30 64763 H 6318.09 -5.7754 1.08267 0
M  V30 64764 H 6319.61 -6.10241 0.20947 0
M  V30 64765 H 6321.02 -5.24564 2.31313 0
M  V30 64766 H 6319.42 -5.13996 3.09722 0
M  V30 64767 H 6320.49 -3.72643 3.10267 0
M  V30 64768 N 6321.83 -0.890356 -1.3004 0
M  V30 64769 C 6323.11 -0.431377 -1.90784 0
M  V30 64770 C 6323.49 1.08829 -1.80885 0
M  V30 64771 O 6322.84 1.926 -1.22953 0
M  V30 64772 C 6323.05 -0.935495 -3.36228 0
M  V30 64773 C 6324.4 -0.97365 -4.13286 0
M  V30 64774 O 6325.42 -0.882525 -3.45094 0
M  V30 64775 O 6324.28 -1.10912 -5.35127 0
M  V30 64776 H 6321.37 -0.132873 -0.816256 0
M  V30 64777 H 6323.92 -0.979609 -1.3857 0
M  V30 64778 H 6322.69 -1.9794 -3.37543 0
M  V30 64779 H 6322.31 -0.366736 -3.95905 0
M  V30 64780 N 6323.31 1.43487 -0.651863 0
M  V30 64781 C 6324.56 2.01048 -0.162042 0
M  V30 64782 C 6324.87 1.52022 1.23079 0
M  V30 64783 O 6326.08 2.01848 1.81575 0
M  V30 64784 C 6324.54 3.59106 -0.238888 0
M  V30 64785 C 6324.14 4.17125 -1.63433 0
M  V30 64786 C 6325.89 4.24059 0.193399 0
M  V30 64787 C 6323.79 5.67473 -1.66518 0
M  V30 64788 H 6322.72 0.751856 -0.0568165 0
M  V30 64789 H 6325.38 1.64472 -0.813699 0
M  V30 64790 H 6323.76 3.93077 0.480252 0
M  V30 64791 H 6324.93 3.94656 -2.37872 0
M  V30 64792 H 6323.25 3.64538 -2.01248 0
M  V30 64793 H 6325.84 5.34362 0.19018 0
M  V30 64794 H 6326.19 3.97881 1.22458 0
M  V30 64795 H 6326.72 3.94967 -0.473944 0
M  V30 64796 H 6323.46 5.98416 -2.67541 0
M  V30 64797 H 6322.98 5.92002 -0.964027 0
M  V30 64798 H 6324.66 6.31487 -1.40831 0
M  V30 64799 N 6324.79 0.393696 1.52603 0
M  V30 64800 C 6326.04 -0.187083 2.01634 0
M  V30 64801 C 6326.36 -1.46447 1.27998 0
M  V30 64802 O 6325.62 -1.92168 0.37013 0
M  V30 64803 C 6325.92 -0.497024 3.53927 0
M  V30 64804 C 6325.58 0.689333 4.456 0
M  V30 64805 C 6324.25 1.01478 4.70378 0
M  V30 64806 C 6326.6 1.4828 4.99662 0
M  V30 64807 C 6323.93 2.13516 5.46468 0
M  V30 64808 C 6326.28 2.59382 5.76978 0
M  V30 64809 C 6324.94 2.9243 6.00034 0
M  V30 64810 H 6324.21 -0.0684586 0.737831 0
M  V30 64811 H 6326.86 0.531947 1.83964 0
M  V30 64812 H 6325.16 -1.29743 3.69694 0
M  V30 64813 H 6326.86 -0.959102 3.89361 0
M  V30 64814 H 6323.45 0.425674 4.26481 0
M  V30 64815 H 6327.64 1.2446 4.80441 0
M  V30 64816 H 6322.89 2.39487 5.62544 0
M  V30 64817 H 6327.07 3.21263 6.1787 0
M  V30 64818 H 6324.69 3.79364 6.58777 0
M  V30 64819 N 6326.27 -1.57114 0.123648 0
M  V30 64820 C 6327.18 -2.19107 -0.838416 0
M  V30 64821 C 6328.19 -1.16854 -1.28923 0
M  V30 64822 O 6329.37 -1.49342 -1.35125 0
M  V30 64823 C 6326.44 -2.78198 -2.06898 0
M  V30 64824 C 6325.5 -3.95501 -1.66965 0
M  V30 64825 C 6324.73 -4.51765 -2.84155 0
M  V30 64826 O 6324.95 -4.06922 -3.99714 0
M  V30 64827 O 6323.89 -5.42381 -2.60972 0
M  V30 64828 H 6327.71 -3.01781 -0.340829 0
M  V30 64829 H 6325.3 -1.4905 -0.102203 0
M  V30 64830 H 6327.18 -3.15847 -2.7896 0
M  V30 64831 H 6325.85 -1.98551 -2.55654 0
M  V30 64832 H 6324.76 -3.62612 -0.919964 0
M  V30 64833 H 6326.09 -4.76597 -1.22946 0
M  V30 64834 N 6327.75 0.150132 -1.56883 0
M  V30 64835 C 6329.02 0.89178 -1.74088 0
M  V30 64836 C 6329.4 1.99476 -0.690822 0
M  V30 64837 O 6328.75 2.26642 0.290798 0
M  V30 64838 C 6328.96 1.43711 -3.18038 0
M  V30 64839 C 6330.31 1.90175 -3.7963 0
M  V30 64840 O 6331.33 1.5346 -3.21448 0
M  V30 64841 O 6330.19 2.57875 -4.81833 0
M  V30 64842 H 6327.29 0.421216 -0.711692 0
M  V30 64843 H 6329.83 0.136302 -1.69152 0
M  V30 64844 H 6328.6 0.644287 -3.85959 0
M  V30 64845 H 6328.23 2.25618 -3.27387 0
M  V30 64846 N 6329.22 1.51918 0.419381 0
M  V30 64847 C 6330.16 1.70741 1.52906 0
M  V30 64848 C 6331.17 0.58787 1.51815 0
M  V30 64849 O 6332.36 0.862732 1.56266 0
M  V30 64850 C 6329.46 1.72332 2.91813 0
M  V30 64851 C 6328.63 3.01159 3.1721 0
M  V30 64852 C 6327.69 2.94698 4.35935 0
M  V30 64853 O 6326.72 3.68621 4.33713 0
M  V30 64854 N 6327.92 2.11782 5.40489 0
M  V30 64855 H 6330.68 2.66473 1.37158 0
M  V30 64856 H 6328.24 1.50027 0.608555 0
M  V30 64857 H 6330.24 1.65555 3.69288 0
M  V30 64858 H 6328.81 0.841171 3.0107 0
M  V30 64859 H 6328.03 3.21665 2.27871 0
M  V30 64860 H 6329.31 3.86401 3.31016 0
M  V30 64861 H 6328.71 1.51133 5.45138 0
M  V30 64862 H 6327.27 2.1087 6.16747 0
M  V30 64863 N 6330.7 -0.675973 1.42367 0
M  V30 64864 C 6331.63 -1.8016 1.48542 0
M  V30 64865 C 6332.61 -1.66624 0.342108 0
M  V30 64866 O 6333.8 -1.86063 0.556255 0
M  V30 64867 C 6330.93 -3.18446 1.38597 0
M  V30 64868 C 6329.88 -3.46715 2.50943 0
M  V30 64869 C 6329.21 -4.84564 2.26057 0
M  V30 64870 C 6330.51 -3.43726 3.93255 0
M  V30 64871 H 6332.2 -1.75249 2.42751 0
M  V30 64872 H 6329.75 -0.841715 1.16838 0
M  V30 64873 H 6331.7 -3.96924 1.41525 0
M  V30 64874 H 6330.43 -3.24031 0.408817 0
M  V30 64875 H 6329.08 -2.70598 2.4733 0
M  V30 64876 H 6328.73 -4.86798 1.26637 0
M  V30 64877 H 6328.43 -5.04441 3.01351 0
M  V30 64878 H 6329.96 -5.65327 2.30732 0
M  V30 64879 H 6331.37 -4.12175 3.98478 0
M  V30 64880 H 6329.77 -3.75138 4.68392 0
M  V30 64881 H 6330.84 -2.42322 4.2001 0
M  V30 64882 N 6332.18 -1.2852 -0.912164 0
M  V30 64883 C 6333.41 -1.18449 -1.69273 0
M  V30 64884 C 6333.82 0.25922 -1.87416 0
M  V30 64885 O 6333.16 1.18685 -1.40212 0
M  V30 64886 C 6333.22 -1.81292 -3.10441 0
M  V30 64887 C 6332.89 -3.30545 -3.15577 0
M  V30 64888 C 6333.88 -4.26956 -2.96655 0
M  V30 64889 C 6331.57 -3.71529 -3.3804 0
M  V30 64890 C 6333.56 -5.62328 -3.0011 0
M  V30 64891 C 6331.25 -5.07026 -3.41127 0
M  V30 64892 C 6332.25 -6.02235 -3.22183 0
M  V30 64893 O 6331.94 -7.3526 -3.25034 0
M  V30 64894 H 6331.67 -0.412091 -0.53587 0
M  V30 64895 H 6334.22 -1.70189 -1.14999 0
M  V30 64896 H 6332.45 -1.24048 -3.66264 0
M  V30 64897 H 6334.14 -1.65717 -3.7053 0
M  V30 64898 H 6334.91 -3.96628 -2.79126 0
M  V30 64899 H 6330.79 -2.97886 -3.51831 0
M  V30 64900 H 6334.33 -6.36618 -2.85241 0
M  V30 64901 H 6330.23 -5.37004 -3.58185 0
M  V30 64902 H 6331 -7.43908 -3.41385 0
M  V30 64903 N 6333.66 1.12083 -1.10794 0
M  V30 64904 C 6334.9 1.84146 -0.863812 0
M  V30 64905 C 6335.26 1.8267 0.604102 0
M  V30 64906 O 6334.55 1.26397 1.43994 0
M  V30 64907 C 6334.75 3.30886 -1.35091 0
M  V30 64908 C 6334.58 3.46653 -2.86464 0
M  V30 64909 C 6333.35 3.60071 -3.5451 0
M  V30 64910 C 6335.54 3.41505 -3.8455 0
M  V30 64911 N 6333.53 3.64241 -4.94168 0
M  V30 64912 C 6334.9 3.52215 -5.1024 0
M  V30 64913 C 6336.95 3.24994 -3.77205 0
M  V30 64914 C 6335.65 3.48116 -6.2945 0
M  V30 64915 C 6337.68 3.2221 -4.95918 0
M  V30 64916 C 6337.04 3.33484 -6.20458 0
M  V30 64917 H 6333.14 0.689389 -0.369144 0
M  V30 64918 H 6335.73 1.34159 -1.41101 0
M  V30 64919 H 6333.9 3.79407 -0.830977 0
M  V30 64920 H 6335.63 3.90825 -1.05063 0
M  V30 64921 H 6332.38 3.62347 -3.04962 0
M  V30 64922 H 6332.81 3.69981 -5.66959 0
M  V30 64923 H 6337.45 3.15168 -2.81831 0
M  V30 64924 H 6335.17 3.56712 -7.25109 0
M  V30 64925 H 6338.75 3.1061 -4.91948 0
M  V30 64926 H 6337.63 3.3131 -7.10777 0
M  V30 64927 N 6335.14 0.89724 1.29566 0
M  V30 64928 C 6336.39 0.517892 1.94938 0
M  V30 64929 C 6336.7 -0.940035 1.7153 0
M  V30 64930 O 6337.9 -1.42679 2.30987 0
M  V30 64931 C 6336.36 0.875306 3.49094 0
M  V30 64932 C 6335.97 2.35184 3.81304 0
M  V30 64933 C 6337.71 0.565749 4.20713 0
M  V30 64934 C 6335.62 2.65024 5.28693 0
M  V30 64935 H 6334.55 0.189954 0.72968 0
M  V30 64936 H 6337.2 1.0939 1.4733 0
M  V30 64937 H 6335.58 0.228254 3.95342 0
M  V30 64938 H 6336.76 3.04423 3.45924 0
M  V30 64939 H 6335.07 2.63017 3.22818 0
M  V30 64940 H 6337.67 0.765573 5.29191 0
M  V30 64941 H 6338.01 -0.495585 4.1334 0
M  V30 64942 H 6338.54 1.17053 3.80189 0
M  V30 64943 H 6335.28 3.69946 5.41129 0
M  V30 64944 H 6334.8 2.00405 5.6533 0
M  V30 64945 H 6336.48 2.51162 5.96261 0
M  V30 64946 N 6336.61 -1.43139 0.659463 0
M  V30 64947 C 6337.84 -2.06602 0.181715 0
M  V30 64948 C 6338.26 -1.49141 -1.14623 0
M  V30 64949 O 6337.62 -0.603799 -1.7095 0
M  V30 64950 C 6337.67 -3.6043 0.110788 0
M  V30 64951 O 6336.77 -4.01888 -0.925203 0
M  V30 64952 H 6336.12 -0.656768 0.0977351 0
M  V30 64953 H 6338.65 -1.83538 0.904151 0
M  V30 64954 H 6338.66 -4.07939 -0.0704655 0
M  V30 64955 H 6337.33 -4.01628 1.08016 0
M  V30 64956 H 6335.91 -3.65957 -0.716232 0
M  V30 64957 N 6338.09 -0.401784 -1.52392 0
M  V30 64958 C 6339.04 0.427306 -2.2681 0
M  V30 64959 C 6340.01 1.04728 -1.28923 0
M  V30 64960 O 6341.19 1.07295 -1.57773 0
M  V30 64961 C 6338.33 1.542 -3.08733 0
M  V30 64962 C 6337.45 0.94366 -4.21567 0
M  V30 64963 C 6336.58 2.03044 -4.90863 0
M  V30 64964 C 6335.62 1.40865 -5.95671 0
M  V30 64965 N 6334.76 2.43527 -6.58513 0
M  V30 64966 H 6339.6 -0.213734 -2.97233 0
M  V30 64967 H 6337.14 -0.117239 -1.46632 0
M  V30 64968 H 6339.09 2.19917 -3.54531 0
M  V30 64969 H 6337.72 2.15317 -2.40496 0
M  V30 64970 H 6336.78 0.175741 -3.79994 0
M  V30 64971 H 6338.09 0.449385 -4.96772 0
M  V30 64972 H 6337.24 2.76504 -5.40028 0
M  V30 64973 H 6335.98 2.55835 -4.1521 0
M  V30 64974 H 6334.99 0.659354 -5.45832 0
M  V30 64975 H 6336.21 0.888529 -6.73262 0
M  V30 64976 H 6334.16 2.95464 -5.85694 0
M  V30 64977 H 6334.07 1.9889 -7.29369 0
M  V30 64978 H 6335.34 3.16579 -7.12319 0
M  V30 64979 N 6339.57 1.57046 -0.131978 0
M  V30 64980 C 6340.48 2.19548 0.826785 0
M  V30 64981 C 6341.5 1.17536 1.28301 0
M  V30 64982 O 6342.67 1.50057 1.34331 0
M  V30 64983 C 6339.74 2.79291 2.0542 0
M  V30 64984 C 6338.8 3.96381 1.64865 0
M  V30 64985 C 6338.03 4.53266 2.81755 0
M  V30 64986 O 6338.25 4.09036 3.9755 0
M  V30 64987 O 6337.19 5.43757 2.58092 0
M  V30 64988 H 6341.01 3.01958 0.32482 0
M  V30 64989 H 6338.6 1.49102 0.094297 0
M  V30 64990 H 6340.48 3.17322 2.77281 0
M  V30 64991 H 6339.16 1.99904 2.54598 0
M  V30 64992 H 6338.06 3.63095 0.900721 0
M  V30 64993 H 6339.4 4.77243 1.20417 0
M  V30 64994 N 6341.05 -0.14181 1.56961 0
M  V30 64995 C 6342 -1.17493 1.98655 0
M  V30 64996 C 6342.97 -1.42406 0.854968 0
M  V30 64997 O 6344.15 -1.54654 1.11744 0
M  V30 64998 C 6341.29 -2.50214 2.3767 0
M  V30 64999 C 6340.4 -2.32431 3.64143 0
M  V30 65000 C 6339.54 -3.58222 3.92238 0
M  V30 65001 C 6338.58 -3.35498 5.11964 0
M  V30 65002 N 6337.72 -4.53433 5.36043 0
M  V30 65003 H 6342.56 -0.812372 2.86713 0
M  V30 65004 H 6340.09 -0.389672 1.41845 0
M  V30 65005 H 6342.05 -3.27607 2.5832 0
M  V30 65006 H 6340.68 -2.84407 1.52685 0
M  V30 65007 H 6339.73 -1.46066 3.51239 0
M  V30 65008 H 6341.04 -2.11602 4.51692 0
M  V30 65009 H 6340.2 -4.44042 4.13414 0
M  V30 65010 H 6338.94 -3.8206 3.0312 0
M  V30 65011 H 6337.94 -2.48066 4.90656 0
M  V30 65012 H 6339.17 -3.13054 6.02639 0
M  V30 65013 H 6337.11 -4.77434 4.49881 0
M  V30 65014 H 6337.03 -4.35626 6.17872 0
M  V30 65015 H 6338.3 -5.40452 5.61722 0
M  V30 65016 N 6342.53 -1.52138 -0.411319 0
M  V30 65017 C 6343.78 -1.65761 -1.15619 0
M  V30 65018 C 6344.1 -0.388838 -1.91084 0
M  V30 65019 O 6343.37 0.596211 -1.86607 0
M  V30 65020 H 6341.95 -0.610971 -0.429795 0
M  V30 65021 H 6344.61 -1.89172 -0.469048 0
M  V30 65022 H 6343.7 -2.49765 -1.87146 0
M  V30 65023 N 6344.01 0.668413 -1.42723 0
M  V30 65024 C 6344.92 1.81112 -1.49116 0
M  V30 65025 C 6345.93 1.69814 -0.37939 0
M  V30 65026 O 6347.11 1.91252 -0.631254 0
M  V30 65027 C 6344.17 3.17298 -1.39724 0
M  V30 65028 C 6343.23 3.40506 -2.61446 0
M  V30 65029 C 6342.47 4.70194 -2.52493 0
M  V30 65030 O 6342.69 5.48531 -1.5643 0
M  V30 65031 O 6341.62 4.94788 -3.42737 0
M  V30 65032 H 6345.45 1.78675 -2.45579 0
M  V30 65033 H 6343.03 0.824974 -1.24557 0
M  V30 65034 H 6344.92 3.98552 -1.36873 0
M  V30 65035 H 6343.59 3.20359 -0.463898 0
M  V30 65036 H 6342.5 2.59075 -2.69872 0
M  V30 65037 H 6343.83 3.42281 -3.53701 0
M  V30 65038 N 6345.48 1.29002 0.905335 0
M  V30 65039 C 6346.73 1.16819 1.65775 0
M  V30 65040 C 6347.06 -0.280869 1.92158 0
M  V30 65041 O 6346.34 -1.20345 1.52798 0
M  V30 65042 C 6346.62 1.97603 3.0104 0
M  V30 65043 C 6346.47 3.50618 2.81757 0
M  V30 65044 C 6347.79 1.79802 4.01696 0
M  V30 65045 H 6344.91 0.425737 0.601595 0
M  V30 65046 H 6347.55 1.58412 1.04907 0
M  V30 65047 H 6345.7 1.62259 3.52993 0
M  V30 65048 H 6347.38 3.95914 2.36749 0
M  V30 65049 H 6345.62 3.75826 2.1665 0
M  V30 65050 H 6346.29 4.02409 3.77851 0
M  V30 65051 H 6348.77 2.10662 3.58832 0
M  V30 65052 H 6347.64 2.38685 4.94288 0
M  V30 65053 H 6347.9 0.751713 4.35662 0
M  V30 65054 N 6346.96 -1.11493 1.11387 0
M  V30 65055 C 6348.21 -1.83686 0.873566 0
M  V30 65056 C 6348.56 -1.82988 -0.594406 0
M  V30 65057 O 6347.86 -1.27159 -1.43322 0
M  V30 65058 C 6348.05 -3.30164 1.36844 0
M  V30 65059 C 6347.88 -3.45129 2.88299 0
M  V30 65060 C 6346.65 -3.58186 3.56414 0
M  V30 65061 C 6348.85 -3.39461 3.86356 0
M  V30 65062 N 6346.83 -3.61615 4.96092 0
M  V30 65063 C 6348.2 -3.49504 5.12101 0
M  V30 65064 C 6350.25 -3.22989 3.78923 0
M  V30 65065 C 6348.96 -3.44773 6.31287 0
M  V30 65066 C 6350.98 -3.19575 4.9762 0
M  V30 65067 C 6350.35 -3.30189 6.22217 0
M  V30 65068 H 6346.44 -0.687421 0.372794 0
M  V30 65069 H 6349.03 -1.33408 1.41811 0
M  V30 65070 H 6347.2 -3.78961 0.851086 0
M  V30 65071 H 6348.93 -3.90262 1.07134 0
M  V30 65072 H 6345.69 -3.60724 3.0688 0
M  V30 65073 H 6346.11 -3.66969 5.68913 0
M  V30 65074 H 6350.75 -3.13669 2.83499 0
M  V30 65075 H 6348.47 -3.52861 7.2699 0
M  V30 65076 H 6352.06 -3.07997 4.93588 0
M  V30 65077 H 6350.94 -3.27535 7.12524 0
M  V30 65078 N 6348.44 -0.904098 -1.29088 0
M  V30 65079 C 6349.39 -0.38359 -2.2759 0
M  V30 65080 C 6350.36 0.536703 -1.5719 0
M  V30 65081 O 6351.54 0.460992 -1.85147 0
M  V30 65082 C 6348.68 0.37893 -3.43013 0
M  V30 65083 C 6347.79 -0.572761 -4.28186 0
M  V30 65084 C 6346.93 0.207247 -5.30796 0
M  V30 65085 C 6345.97 -0.738684 -6.07626 0
M  V30 65086 N 6345.11 0.00719555 -7.021 0
M  V30 65087 H 6349.95 -1.22865 -2.71493 0
M  V30 65088 H 6347.48 -0.617192 -1.33526 0
M  V30 65089 H 6349.44 0.837126 -4.08715 0
M  V30 65090 H 6348.07 1.18841 -3.00128 0
M  V30 65091 H 6347.12 -1.14948 -3.62617 0
M  V30 65092 H 6348.43 -1.29665 -4.81652 0
M  V30 65093 H 6347.59 0.726444 -6.02335 0
M  V30 65094 H 6346.33 0.964249 -4.78073 0
M  V30 65095 H 6345.33 -1.26934 -5.34947 0
M  V30 65096 H 6346.56 -1.49508 -6.62438 0
M  V30 65097 H 6344.5 0.746383 -6.5174 0
M  V30 65098 H 6344.42 -0.656703 -7.53142 0
M  V30 65099 H 6345.69 0.506512 -7.77853 0
M  V30 65100 N 6349.92 1.42788 -0.667045 0
M  V30 65101 C 6350.85 2.29134 0.0549306 0
M  V30 65102 C 6351.86 1.43261 0.773306 0
M  V30 65103 O 6353.05 1.6706 0.628757 0
M  V30 65104 C 6350.15 3.20507 1.10129 0
M  V30 65105 C 6349.32 4.34992 0.45829 0
M  V30 65106 C 6348.38 5.07141 1.40338 0
M  V30 65107 O 6347.41 5.61933 0.906662 0
M  V30 65108 N 6348.61 5.11929 2.73694 0
M  V30 65109 H 6351.38 2.91737 -0.686258 0
M  V30 65110 H 6348.94 1.53629 -0.510868 0
M  V30 65111 H 6350.93 3.6564 1.73464 0
M  V30 65112 H 6349.5 2.59409 1.74429 0
M  V30 65113 H 6348.72 3.92603 -0.354425 0
M  V30 65114 H 6350.01 5.08799 0.0100159 0
M  V30 65115 H 6349.41 4.6881 3.16596 0
M  V30 65116 H 6347.96 5.60734 3.32297 0
M  V30 65117 N 6351.4 0.40986 1.52177 0
M  V30 65118 C 6352.34 -0.429945 2.28592 0
M  V30 65119 C 6353.34 -1.04518 1.33313 0
M  V30 65120 O 6354.54 -0.983297 1.50769 0
M  V30 65121 H 6350.92 -0.157433 0.735336 0
M  V30 65122 H 6352.89 0.235752 2.97467 0
M  V30 65123 C 6351.64 -1.53398 3.12033 0
M  V30 65124 H 6350.96 -1.06991 3.85218 0
M  V30 65125 H 6352.4 -2.0954 3.68604 0
M  V30 65126 C 6350.86 -2.50175 2.25642 0
M  V30 65127 O 6351.39 -3.54076 1.89718 0
M  V30 65128 N 6349.6 -2.20402 1.89397 0
M  V30 65129 H 6349.14 -1.3594 2.1881 0
M  V30 65130 H 6349.1 -2.854 1.31888 0
M  V30 65131 N 6352.87 -1.56974 0.140305 0
M  V30 65132 C 6353.82 -2.1642 -0.801927 0
M  V30 65133 C 6354.79 -1.09516 -1.24881 0
M  V30 65134 O 6355.98 -1.37527 -1.32254 0
M  V30 65135 C 6353.12 -2.78472 -2.03831 0
M  V30 65136 C 6352.23 -3.99748 -1.63784 0
M  V30 65137 C 6351.36 -4.4982 -2.82551 0
M  V30 65138 C 6350.4 -5.63577 -2.38845 0
M  V30 65139 N 6349.54 -6.08297 -3.50598 0
M  V30 65140 H 6354.38 -2.96603 -0.288179 0
M  V30 65141 H 6351.92 -1.4652 -0.130535 0
M  V30 65142 H 6353.87 -3.1259 -2.76303 0
M  V30 65143 H 6352.5 -2.00945 -2.52628 0
M  V30 65144 H 6351.56 -3.71654 -0.811038 0
M  V30 65145 H 6352.87 -4.82182 -1.2768 0
M  V30 65146 H 6352.02 -4.85958 -3.63221 0
M  V30 65147 H 6350.76 -3.6638 -3.21896 0
M  V30 65148 H 6349.77 -5.27022 -1.56614 0
M  V30 65149 H 6350.99 -6.48798 -2.00594 0
M  V30 65150 H 6348.94 -5.27794 -3.89576 0
M  V30 65151 H 6348.85 -6.8564 -3.18487 0
M  V30 65152 H 6350.12 -6.49079 -4.31645 0
M  V30 65153 N 6354.35 0.133484 -1.57034 0
M  V30 65154 C 6355.6 0.843794 -1.84082 0
M  V30 65155 C 6355.93 1.80553 -0.72324 0
M  V30 65156 O 6355.18 1.93589 0.28665 0
M  V30 65157 C 6355.48 1.64024 -3.17539 0
M  V30 65158 C 6355.15 0.824094 -4.43305 0
M  V30 65159 C 6353.81 0.598978 -4.77458 0
M  V30 65160 C 6356.16 0.254242 -5.2058 0
M  V30 65161 C 6353.49 -0.206478 -5.86337 0
M  V30 65162 C 6355.84 -0.538326 -6.30305 0
M  V30 65163 C 6354.5 -0.773894 -6.62999 0
M  V30 65164 H 6353.77 0.308766 -0.673606 0
M  V30 65165 H 6356.42 0.106801 -1.91202 0
M  V30 65166 H 6354.73 2.44773 -3.0593 0
M  V30 65167 H 6356.42 2.19355 -3.35685 0
M  V30 65168 H 6353.01 1.00963 -4.16539 0
M  V30 65169 H 6357.2 0.415411 -4.94558 0
M  V30 65170 H 6352.45 -0.398353 -6.10101 0
M  V30 65171 H 6356.63 -0.98695 -6.89371 0
M  V30 65172 H 6354.25 -1.39986 -7.472 0
M  V30 65173 N 6355.83 1.52354 0.403245 0
M  V30 65174 C 6357.08 1.66372 1.14738 0
M  V30 65175 C 6357.4 0.398966 1.90875 0
M  V30 65176 O 6356.67 -0.586306 1.8692 0
M  V30 65177 H 6355.25 0.613241 0.426549 0
M  V30 65178 H 6357.91 1.89418 0.459009 0
M  V30 65179 H 6357.01 2.50754 1.85819 0
M  V30 65180 N 6357.31 -0.660835 1.43076 0
M  V30 65181 C 6358.24 -1.78636 1.43604 0
M  V30 65182 C 6359.25 -1.59354 0.333175 0
M  V30 65183 O 6360.44 -1.68216 0.597141 0
M  V30 65184 C 6357.54 -3.15952 1.22586 0
M  V30 65185 C 6356.72 -3.6196 2.45568 0
M  V30 65186 C 6355.77 -4.78054 2.19888 0
M  V30 65187 O 6354.8 -4.87883 2.93188 0
M  V30 65188 N 6356 -5.67734 1.21073 0
M  V30 65189 H 6358.77 -1.78664 2.40623 0
M  V30 65190 H 6356.33 -0.844418 1.38135 0
M  V30 65191 H 6358.32 -3.91294 1.03301 0
M  V30 65192 H 6356.89 -3.10741 0.3404 0
M  V30 65193 H 6356.11 -2.77145 2.80329 0
M  V30 65194 H 6357.4 -3.89443 3.27431 0
M  V30 65195 H 6356.8 -5.62458 0.60476 0
M  V30 65196 H 6355.35 -6.42828 1.07773 0
M  V30 65197 N 6358.79 -1.2948 -0.898481 0
M  V30 65198 C 6360.03 -1.1729 -1.64583 0
M  V30 65199 C 6360.36 0.27565 -1.93042 0
M  V30 65200 O 6359.63 1.18842 -1.55735 0
M  V30 65201 H 6358.21 -0.431089 -0.610058 0
M  V30 65202 H 6360.87 -1.62423 -1.07726 0
M  V30 65203 H 6359.96 -1.72385 -2.60173 0
M  V30 65204 N 6360.26 1.10901 -1.11976 0
M  V30 65205 C 6361.21 2.17105 -0.783212 0
M  V30 65206 C 6362.18 1.6424 0.247852 0
M  V30 65207 O 6363.37 1.904 0.12351 0
M  V30 65208 C 6360.51 3.44274 -0.238695 0
M  V30 65209 C 6359.62 4.11114 -1.32699 0
M  V30 65210 C 6358.75 5.25986 -0.742421 0
M  V30 65211 C 6357.79 5.84721 -1.81018 0
M  V30 65212 N 6356.93 6.90979 -1.24468 0
M  V30 65213 H 6361.77 2.45237 -1.693 0
M  V30 65214 H 6359.31 1.20383 -0.845365 0
M  V30 65215 H 6361.27 4.17092 0.0950213 0
M  V30 65216 H 6359.9 3.16507 0.634273 0
M  V30 65217 H 6358.95 3.36313 -1.77757 0
M  V30 65218 H 6360.26 4.50817 -2.13461 0
M  V30 65219 H 6359.41 6.05636 -0.35909 0
M  V30 65220 H 6358.15 4.87605 0.0964506 0
M  V30 65221 H 6357.16 5.03745 -2.20275 0
M  V30 65222 H 6358.38 6.25169 -2.65218 0
M  V30 65223 H 6356.33 6.54605 -0.427554 0
M  V30 65224 H 6356.25 7.29367 -1.98895 0
M  V30 65225 H 6357.51 7.74421 -0.888426 0
M  V30 65226 N 6361.74 0.910931 1.28607 0
M  V30 65227 C 6362.69 0.395655 2.27383 0
M  V30 65228 C 6363.66 -0.528359 1.57472 0
M  V30 65229 O 6364.84 -0.451167 1.85389 0
M  V30 65230 C 6361.98 -0.360734 3.43209 0
M  V30 65231 C 6361.1 0.595461 4.27876 0
M  V30 65232 C 6360.23 -0.179095 5.30898 0
M  V30 65233 C 6359.27 0.770897 6.07226 0
M  V30 65234 N 6358.41 0.0300386 7.02094 0
M  V30 65235 H 6363.25 1.24303 2.70837 0
M  V30 65236 H 6360.79 0.624265 1.33197 0
M  V30 65237 H 6362.74 -0.815439 4.09153 0
M  V30 65238 H 6361.37 -1.17247 3.00754 0
M  V30 65239 H 6360.43 1.16869 3.62002 0
M  V30 65240 H 6361.74 1.32218 4.80957 0
M  V30 65241 H 6360.89 -0.69449 6.02712 0
M  V30 65242 H 6359.63 -0.938882 4.78577 0
M  V30 65243 H 6358.64 1.29769 5.34266 0
M  V30 65244 H 6359.86 1.53019 6.61636 0
M  V30 65245 H 6357.81 -0.711809 6.52127 0
M  V30 65246 H 6357.72 0.696635 7.52783 0
M  V30 65247 H 6358.99 -0.465253 7.7811 0
M  V30 65248 N 6363.22 -1.42432 0.674608 0
M  V30 65249 C 6364.13 -2.346 -0.00390671 0
M  V30 65250 C 6365.15 -1.5508 -0.789054 0
M  V30 65251 O 6366.32 -1.87649 -0.731419 0
M  V30 65252 C 6363.39 -3.3361 -0.943673 0
M  V30 65253 C 6362.45 -4.29027 -0.153079 0
M  V30 65254 C 6361.68 -5.23308 -1.04808 0
M  V30 65255 O 6361.9 -5.22518 -2.2876 0
M  V30 65256 O 6360.84 -5.99744 -0.508992 0
M  V30 65257 H 6364.66 -2.94158 0.755293 0
M  V30 65258 H 6362.25 -1.42932 0.434844 0
M  V30 65259 H 6364.13 -3.94437 -1.48316 0
M  V30 65260 H 6362.81 -2.76525 -1.68273 0
M  V30 65261 H 6361.71 -3.71615 0.430511 0
M  V30 65262 H 6363.05 -4.89153 0.546858 0
M  V30 65263 N 6364.7 -0.417924 -1.51958 0
M  V30 65264 C 6365.65 0.403225 -2.2725 0
M  V30 65265 C 6366.62 1.03355 -1.30027 0
M  V30 65266 O 6367.8 1.05615 -1.58903 0
M  V30 65267 C 6364.94 1.50917 -3.10352 0
M  V30 65268 C 6364.05 0.898894 -4.22545 0
M  V30 65269 C 6363.19 1.97826 -4.92989 0
M  V30 65270 C 6362.23 1.34539 -5.97131 0
M  V30 65271 N 6361.36 2.36529 -6.61059 0
M  V30 65272 H 6366.2 -0.245248 -2.96989 0
M  V30 65273 H 6363.74 -0.132784 -1.46499 0
M  V30 65274 H 6365.7 2.16144 -3.56844 0
M  V30 65275 H 6364.33 2.12754 -2.42766 0
M  V30 65276 H 6363.38 0.135428 -3.80159 0
M  V30 65277 H 6364.69 0.39667 -4.9722 0
M  V30 65278 H 6363.85 2.70761 -5.42931 0
M  V30 65279 H 6362.59 2.51417 -4.17901 0
M  V30 65280 H 6361.59 0.601424 -5.46501 0
M  V30 65281 H 6362.82 0.817071 -6.74167 0
M  V30 65282 H 6360.76 2.89235 -5.88795 0
M  V30 65283 H 6360.68 1.91143 -7.31437 0
M  V30 65284 H 6361.95 3.09006 -7.15637 0
M  V30 65285 N 6366.18 1.56898 -0.148628 0
M  V30 65286 C 6367.4 2.00542 0.508977 0
M  V30 65287 C 6367.82 1.02873 1.58312 0
M  V30 65288 O 6367.18 0.0259939 1.82481 0
M  V30 65289 C 6367.23 3.44097 1.10813 0
M  V30 65290 O 6366.95 4.38033 0.0768941 0
M  V30 65291 C 6368.45 4.03027 1.84619 0
M  V30 65292 H 6365.67 0.657817 0.132355 0
M  V30 65293 H 6368.21 2.03043 -0.243689 0
M  V30 65294 H 6366.37 3.42442 1.81141 0
M  V30 65295 H 6366.78 5.21955 0.516072 0
M  V30 65296 H 6368.26 5.05466 2.21829 0
M  V30 65297 H 6368.73 3.43831 2.73271 0
M  V30 65298 H 6369.34 4.08317 1.18985 0
M  V30 65299 N 6367.65 -0.125154 1.57102 0
M  V30 65300 C 6368.58 -1.15514 2.02926 0
M  V30 65301 C 6369.57 -1.43546 0.912609 0
M  V30 65302 O 6370.75 -1.54093 1.18191 0
M  V30 65303 C 6367.88 -2.48288 2.42838 0
M  V30 65304 C 6366.83 -2.34732 3.5789 0
M  V30 65305 C 6366.16 -3.72414 3.83682 0
M  V30 65306 C 6367.46 -1.813 4.89824 0
M  V30 65307 H 6369.15 -0.774028 2.89222 0
M  V30 65308 H 6366.7 -0.370887 1.39142 0
M  V30 65309 H 6368.65 -3.20588 2.73498 0
M  V30 65310 H 6367.38 -2.88277 1.53505 0
M  V30 65311 H 6366.04 -1.64882 3.27429 0
M  V30 65312 H 6365.68 -4.09877 2.91564 0
M  V30 65313 H 6365.38 -3.64198 4.61122 0
M  V30 65314 H 6366.91 -4.46228 4.16789 0
M  V30 65315 H 6368.32 -2.43411 5.19061 0
M  V30 65316 H 6366.72 -1.83921 5.71221 0
M  V30 65317 H 6367.79 -0.770123 4.78745 0
M  V30 65318 N 6369.13 -1.52566 -0.395159 0
M  V30 65319 C 6370.38 -1.67556 -1.14248 0
M  V30 65320 C 6370.71 -0.411202 -1.89797 0
M  V30 65321 O 6369.99 0.590826 -1.85309 0
M  V30 65322 C 6370.27 -2.90665 -2.1257 0
M  V30 65323 C 6370.12 -4.27186 -1.40826 0
M  V30 65324 C 6371.44 -3.09312 -3.13072 0
M  V30 65325 H 6368.56 -0.60975 -0.413973 0
M  V30 65326 H 6371.2 -1.8515 -0.426569 0
M  V30 65327 H 6369.35 -2.75796 -2.73621 0
M  V30 65328 H 6371.02 -4.53811 -0.82786 0
M  V30 65329 H 6369.27 -4.27948 -0.71013 0
M  V30 65330 H 6369.94 -5.09401 -2.12638 0
M  V30 65331 H 6372.41 -3.23171 -2.62106 0
M  V30 65332 H 6371.29 -3.96939 -3.79119 0
M  V30 65333 H 6371.55 -2.23251 -3.81591 0
M  V30 65334 N 6370.61 0.653238 -1.43424 0
M  V30 65335 C 6371.86 1.41523 -1.45255 0
M  V30 65336 C 6372.19 1.94049 -0.0765196 0
M  V30 65337 O 6371.47 1.72288 0.902621 0
M  V30 65338 C 6371.75 2.59667 -2.4949 0
M  V30 65339 C 6371.6 2.12633 -3.96368 0
M  V30 65340 C 6372.92 3.6188 -2.50462 0
M  V30 65341 H 6370.04 0.513255 -0.528903 0
M  V30 65342 H 6372.68 0.740566 -1.74973 0
M  V30 65343 H 6370.83 3.17224 -2.24279 0
M  V30 65344 H 6372.5 1.60077 -4.32635 0
M  V30 65345 H 6370.75 1.44005 -4.092 0
M  V30 65346 H 6371.42 2.9759 -4.64913 0
M  V30 65347 H 6373.89 3.14082 -2.72932 0
M  V30 65348 H 6372.77 4.42095 -3.25336 0
M  V30 65349 H 6373.03 4.1447 -1.53841 0
M  V30 65350 N 6372.09 1.29955 0.891602 0
M  V30 65351 C 6373.04 1.15669 2.01801 0
M  V30 65352 C 6374.03 0.0702284 1.69254 0
M  V30 65353 O 6375.24 0.230609 1.78517 0
M  V30 65354 H 6371.61 0.357534 0.661569 0
M  V30 65355 H 6373.58 2.11016 2.10986 0
M  V30 65356 C 6372.33 0.858435 3.36936 0
M  V30 65357 H 6371.66 1.6865 3.62488 0
M  V30 65358 H 6373.1 0.798551 4.16412 0
M  V30 65359 C 6371.55 -0.438511 3.34034 0
M  V30 65360 O 6372.08 -1.46208 3.74147 0
M  V30 65361 N 6370.29 -0.447282 2.87137 0
M  V30 65362 H 6369.84 0.386147 2.54689 0
M  V30 65363 H 6369.8 -1.31502 2.85578 0
M  V30 65364 N 6373.57 -1.10306 1.12563 0
M  V30 65365 C 6374.98 -1.63798 0.895948 0
M  V30 65366 C 6375.33 -1.87755 -0.569445 0
M  V30 65367 O 6374.45 -1.62051 -1.43417 0
M  V30 65368 C 6375.05 -2.97564 1.61991 0
M  V30 65369 C 6373.61 -3.47917 1.43634 0
M  V30 65370 C 6372.76 -2.225 1.65497 0
M  V30 65371 H 6375.71 -0.937882 1.28021 0
M  V30 65372 H 6375.73 -3.65095 1.07172 0
M  V30 65373 H 6375.24 -2.80096 2.68641 0
M  V30 65374 H 6373.34 -3.70527 0.392458 0
M  V30 65375 H 6373.45 -4.25945 2.19335 0
M  V30 65376 H 6371.82 -2.30708 1.07916 0
M  V30 65377 H 6372.6 -2.07561 2.73447 0
M  V30 65378 N 6375.05 -0.917739 -1.28122 0
M  V30 65379 C 6376.29 -0.563244 -1.95446 0
M  V30 65380 C 6376.65 0.884054 -1.70887 0
M  V30 65381 O 6375.94 1.62092 -1.02161 0
M  V30 65382 C 6376.13 -0.813336 -3.48022 0
M  V30 65383 C 6375.96 -2.28339 -3.87416 0
M  V30 65384 C 6374.73 -2.93425 -4.11376 0
M  V30 65385 C 6376.93 -3.26013 -3.97769 0
M  V30 65386 N 6374.91 -4.30687 -4.37473 0
M  V30 65387 C 6376.28 -4.48451 -4.28126 0
M  V30 65388 C 6378.34 -3.21358 -3.80307 0
M  V30 65389 C 6377.04 -5.66821 -4.42839 0
M  V30 65390 C 6379.07 -4.3903 -3.96241 0
M  V30 65391 C 6378.43 -5.60243 -4.26974 0
M  V30 65392 H 6374.53 -0.25605 -0.738893 0
M  V30 65393 H 6377.11 -1.1823 -1.54693 0
M  V30 65394 H 6375.28 -0.223524 -3.87756 0
M  V30 65395 H 6377.02 -0.422471 -4.02489 0
M  V30 65396 H 6373.77 -2.44137 -4.05825 0
M  V30 65397 H 6374.19 -5.01668 -4.54597 0
M  V30 65398 H 6378.84 -2.28719 -3.55594 0
M  V30 65399 H 6376.55 -6.59935 -4.66382 0
M  V30 65400 H 6380.14 -4.36934 -3.84161 0
M  V30 65401 H 6379.02 -6.49779 -4.39041 0
M  V30 65402 N 6376.52 1.42072 -0.682152 0
M  V30 65403 C 6377.45 2.33489 -0.0225044 0
M  V30 65404 C 6378.43 1.51085 0.781503 0
M  V30 65405 O 6379.62 1.79664 0.73718 0
M  V30 65406 C 6376.75 3.34777 0.924223 0
M  V30 65407 C 6375.7 4.27391 0.228281 0
M  V30 65408 C 6375.03 5.18944 1.28845 0
M  V30 65409 C 6376.33 5.14536 -0.897216 0
M  V30 65410 H 6378.02 2.88899 -0.786 0
M  V30 65411 H 6375.57 1.38911 -0.379425 0
M  V30 65412 H 6377.52 3.97646 1.39483 0
M  V30 65413 H 6376.25 2.77687 1.71923 0
M  V30 65414 H 6374.91 3.65926 -0.222163 0
M  V30 65415 H 6374.55 4.58177 2.07563 0
M  V30 65416 H 6374.25 5.81739 0.827879 0
M  V30 65417 H 6375.78 5.8469 1.75984 0
M  V30 65418 H 6377.19 5.71049 -0.507497 0
M  V30 65419 H 6375.59 5.86202 -1.28404 0
M  V30 65420 H 6376.66 4.52498 -1.74279 0
M  V30 65421 N 6378 0.425977 1.51734 0
M  V30 65422 C 6379.23 -0.143279 2.06403 0
M  V30 65423 C 6379.64 -1.37434 1.2945 0
M  V30 65424 O 6379 -1.79094 0.350921 0
M  V30 65425 C 6379.05 -0.476891 3.58341 0
M  V30 65426 O 6378.77 0.7053 4.32385 0
M  V30 65427 C 6380.27 -1.09805 4.29485 0
M  V30 65428 H 6377.49 -0.0129533 0.670875 0
M  V30 65429 H 6380.04 0.601787 1.95445 0
M  V30 65430 H 6378.19 -1.17185 3.69251 0
M  V30 65431 H 6378.61 0.422783 5.22793 0
M  V30 65432 H 6380.08 -1.28157 5.36917 0
M  V30 65433 H 6380.56 -2.07592 3.87043 0
M  V30 65434 H 6381.16 -0.442808 4.22989 0
M  V30 65435 N 6379.48 -1.56817 0.156946 0
M  V30 65436 C 6380.41 -2.14407 -0.810092 0
M  V30 65437 C 6381.42 -1.09599 -1.20382 0
M  V30 65438 O 6382.61 -1.3684 -1.14617 0
M  V30 65439 C 6379.71 -2.66005 -2.09987 0
M  V30 65440 C 6378.89 -3.95318 -1.87196 0
M  V30 65441 C 6377.95 -4.32126 -3.00255 0
M  V30 65442 O 6376.97 -5.00269 -2.71514 0
M  V30 65443 N 6378.17 -3.92515 -4.27683 0
M  V30 65444 H 6380.94 -2.9801 -0.317831 0
M  V30 65445 H 6378.5 -1.61879 -0.0263065 0
M  V30 65446 H 6380.49 -2.87636 -2.84689 0
M  V30 65447 H 6379.06 -1.87071 -2.50446 0
M  V30 65448 H 6378.28 -3.82212 -0.964757 0
M  V30 65449 H 6379.57 -4.79801 -1.69318 0
M  V30 65450 H 6378.97 -3.37628 -4.53899 0
M  V30 65451 H 6377.52 -4.19176 -4.99134 0
M  V30 65452 N 6380.96 0.116821 -1.57166 0
M  V30 65453 C 6382.2 0.825444 -1.85241 0
M  V30 65454 C 6382.54 1.79425 -0.742999 0
M  V30 65455 O 6381.81 1.92874 0.250975 0
M  V30 65456 C 6382.09 1.57342 -3.23907 0
M  V30 65457 C 6381.95 0.62407 -4.4545 0
M  V30 65458 C 6383.27 2.52909 -3.60173 0
M  V30 65459 H 6380.39 0.298629 -0.673787 0
M  V30 65460 H 6383.03 0.0896335 -1.89788 0
M  V30 65461 H 6381.18 2.20066 -3.20161 0
M  V30 65462 H 6382.85 0.00550339 -4.613 0
M  V30 65463 H 6381.09 -0.0642303 -4.33752 0
M  V30 65464 H 6381.76 1.18411 -5.3915 0
M  V30 65465 H 6384.24 2.00289 -3.64724 0
M  V30 65466 H 6383.12 3.02275 -4.58172 0
M  V30 65467 H 6383.38 3.35674 -2.87707 0
M  V30 65468 N 6382.44 1.52773 0.387063 0
M  V30 65469 C 6383.85 1.42067 0.727266 0
M  V30 65470 C 6384.05 0.542627 1.94056 0
M  V30 65471 O 6383.11 0.0168155 2.52494 0
M  V30 65472 C 6384.42 2.84945 0.960551 0
M  V30 65473 C 6385.97 2.94436 1.0619 0
M  V30 65474 C 6386.44 4.3833 1.3278 0
M  V30 65475 N 6387.93 4.41664 1.39598 0
M  V30 65476 C 6388.67 5.50086 1.61841 0
M  V30 65477 N 6388.17 6.68591 1.81542 0
M  V30 65478 N 6389.96 5.37632 1.64036 0
M  V30 65479 H 6382.11 2.0838 -0.411275 0
M  V30 65480 H 6384.37 0.94014 -0.121825 0
M  V30 65481 H 6384.08 3.51417 0.141123 0
M  V30 65482 H 6383.95 3.27316 1.87468 0
M  V30 65483 H 6386.34 2.28132 1.8719 0
M  V30 65484 H 6386.42 2.55491 0.125641 0
M  V30 65485 H 6386.06 5.05201 0.522903 0
M  V30 65486 H 6385.99 4.74829 2.27694 0
M  V30 65487 H 6388.49 3.5625 1.26073 0
M  V30 65488 H 6388.8 7.46997 1.98027 0
M  V30 65489 H 6387.14 6.71617 1.78763 0
M  V30 65490 H 6390.33 4.44021 1.48198 0
M  V30 65491 H 6390.51 6.22199 1.81031 0
M  V30 65492 N 6383.91 -0.645623 1.43769 0
M  V30 65493 C 6385.16 -1.40132 1.45072 0
M  V30 65494 C 6385.48 -1.9543 0.0815728 0
M  V30 65495 O 6386.68 -2.71486 -0.0279207 0
M  V30 65496 C 6385.14 -2.53642 2.55331 0
M  V30 65497 C 6384.75 -2.0492 3.98387 0
M  V30 65498 C 6386.49 -3.30954 2.65837 0
M  V30 65499 C 6384.4 -3.15685 5.00097 0
M  V30 65500 H 6383.33 -0.526551 0.539685 0
M  V30 65501 H 6385.98 -0.696085 1.69785 0
M  V30 65502 H 6384.36 -3.26673 2.23832 0
M  V30 65503 H 6385.53 -1.3885 4.39383 0
M  V30 65504 H 6383.85 -1.40465 3.91993 0
M  V30 65505 H 6386.45 -4.13501 3.39 0
M  V30 65506 H 6386.79 -3.79486 1.71162 0
M  V30 65507 H 6387.32 -2.65008 2.96674 0
M  V30 65508 H 6384.06 -2.72115 5.96351 0
M  V30 65509 H 6383.58 -3.80443 4.63706 0
M  V30 65510 H 6385.26 -3.80696 5.23144 0
M  V30 65511 N 6385.39 -1.30426 -0.884698 0
M  V30 65512 C 6386.64 -1.19265 -1.63653 0
M  V30 65513 C 6386.97 0.252578 -1.92853 0
M  V30 65514 O 6386.22 1.19713 -1.54814 0
M  V30 65515 C 6386.52 -1.96692 -2.98408 0
M  V30 65516 C 6386.19 -3.46308 -2.88758 0
M  V30 65517 C 6384.85 -3.87108 -2.85834 0
M  V30 65518 C 6387.2 -4.41583 -2.76865 0
M  V30 65519 C 6384.53 -5.21473 -2.68855 0
M  V30 65520 C 6386.88 -5.76056 -2.61424 0
M  V30 65521 C 6385.55 -6.16094 -2.56874 0
M  V30 65522 H 6384.82 -0.43642 -0.598848 0
M  V30 65523 H 6387.46 -1.61531 -1.02859 0
M  V30 65524 H 6385.77 -1.47061 -3.63153 0
M  V30 65525 H 6387.46 -1.85448 -3.55542 0
M  V30 65526 H 6384.05 -3.13887 -2.91844 0
M  V30 65527 H 6388.24 -4.11003 -2.7819 0
M  V30 65528 H 6383.49 -5.51586 -2.63747 0
M  V30 65529 H 6387.67 -6.49518 -2.51195 0
M  V30 65530 H 6385.3 -7.20155 -2.43476 0
M  V30 65531 N 6386.87 1.09707 -1.13146 0
M  V30 65532 C 6387.82 2.14424 -0.775011 0
M  V30 65533 C 6388.8 1.59254 0.229577 0
M  V30 65534 O 6390 1.76967 0.0339313 0
M  V30 65535 C 6387.13 3.42463 -0.239527 0
M  V30 65536 C 6386.21 4.04548 -1.27285 0
M  V30 65537 N 6386.6 4.41229 -2.47286 0
M  V30 65538 C 6384.9 4.31709 -1.11996 0
M  V30 65539 C 6385.6 4.90101 -3.1333 0
M  V30 65540 N 6384.58 4.87376 -2.40759 0
M  V30 65541 H 6388.38 2.40586 -1.68806 0
M  V30 65542 H 6385.89 1.26906 -1.01335 0
M  V30 65543 H 6387.89 4.16886 0.0340661 0
M  V30 65544 H 6386.55 3.17757 0.667884 0
M  V30 65545 H 6387.56 4.32684 -2.84613 0
M  V30 65546 H 6384.24 4.16623 -0.27047 0
M  V30 65547 H 6385.63 5.2797 -4.15568 0
M  V30 65548 N 6388.35 0.924521 1.27634 0
M  V30 65549 C 6389.28 0.378467 2.26054 0
M  V30 65550 C 6390.29 -0.489056 1.55281 0
M  V30 65551 O 6391.48 -0.302193 1.75923 0
M  V30 65552 C 6388.58 -0.476653 3.35531 0
M  V30 65553 C 6387.76 0.370841 4.35825 0
M  V30 65554 C 6386.81 -0.421115 5.24512 0
M  V30 65555 O 6385.84 0.17008 5.68946 0
M  V30 65556 N 6387.04 -1.72168 5.54381 0
M  V30 65557 H 6389.81 1.22448 2.73545 0
M  V30 65558 H 6387.37 0.791609 1.41227 0
M  V30 65559 H 6389.36 -1.01345 3.91805 0
M  V30 65560 H 6387.93 -1.22341 2.87666 0
M  V30 65561 H 6387.15 1.08896 3.78861 0
M  V30 65562 H 6388.44 0.950344 4.99846 0
M  V30 65563 H 6387.84 -2.22436 5.20133 0
M  V30 65564 H 6386.39 -2.20507 6.13368 0
M  V30 65565 N 6389.83 -1.41708 0.689677 0
M  V30 65566 C 6390.76 -2.33474 0.0348866 0
M  V30 65567 C 6391.74 -1.51497 -0.77348 0
M  V30 65568 O 6392.92 -1.80053 -0.727641 0
M  V30 65569 C 6390.05 -3.35262 -0.906456 0
M  V30 65570 C 6389.01 -4.27506 -0.205612 0
M  V30 65571 C 6388.33 -5.1962 -1.26091 0
M  V30 65572 C 6389.63 -5.14053 0.92449 0
M  V30 65573 H 6391.33 -2.88478 0.80131 0
M  V30 65574 H 6388.87 -1.38708 0.386787 0
M  V30 65575 H 6390.83 -3.9838 -1.37372 0
M  V30 65576 H 6389.55 -2.78595 -1.70447 0
M  V30 65577 H 6388.21 -3.65803 0.241566 0
M  V30 65578 H 6387.86 -4.59272 -2.0513 0
M  V30 65579 H 6387.56 -5.8217 -0.797017 0
M  V30 65580 H 6389.08 -5.85615 -1.72881 0
M  V30 65581 H 6390.49 -5.70772 0.537774 0
M  V30 65582 H 6388.89 -5.85513 1.31511 0
M  V30 65583 H 6389.96 -4.51568 1.76676 0
M  V30 65584 N 6391.3 -0.434018 -1.51506 0
M  V30 65585 C 6392.72 -0.0861383 -1.59367 0
M  V30 65586 C 6392.92 1.40416 -1.44518 0
M  V30 65587 O 6391.98 2.17373 -1.28473 0
M  V30 65588 C 6393.29 -0.603285 -2.94586 0
M  V30 65589 C 6394.84 -0.563434 -3.07887 0
M  V30 65590 C 6395.31 -1.0575 -4.45624 0
M  V30 65591 N 6396.8 -1.01535 -4.51935 0
M  V30 65592 C 6397.54 -1.36854 -5.56829 0
M  V30 65593 N 6397.03 -1.79442 -6.69158 0
M  V30 65594 N 6398.83 -1.28692 -5.4717 0
M  V30 65595 H 6390.98 -1.40372 -1.59403 0
M  V30 65596 H 6393.24 -0.578233 -0.751233 0
M  V30 65597 H 6392.95 -1.64587 -3.10812 0
M  V30 65598 H 6392.82 -0.0263947 -3.77191 0
M  V30 65599 H 6395.21 0.470155 -2.91331 0
M  V30 65600 H 6395.29 -1.17669 -2.27129 0
M  V30 65601 H 6394.93 -2.08954 -4.62926 0
M  V30 65602 H 6394.86 -0.420818 -5.24916 0
M  V30 65603 H 6397.35 -0.702553 -3.71312 0
M  V30 65604 H 6397.67 -2.04638 -7.45213 0
M  V30 65605 H 6396.01 -1.83366 -6.70374 0
M  V30 65606 H 6399.2 -0.952887 -4.58299 0
M  V30 65607 H 6399.38 -1.56546 -6.28806 0
M  V30 65608 N 6392.78 1.56731 -0.165261 0
M  V30 65609 C 6394.01 2.00779 0.486971 0
M  V30 65610 C 6394.42 1.04453 1.57754 0
M  V30 65611 O 6393.76 0.0364625 1.83664 0
M  V30 65612 C 6393.83 3.41256 1.13068 0
M  V30 65613 C 6393.49 4.56635 0.182505 0
M  V30 65614 C 6394.49 5.16463 -0.596847 0
M  V30 65615 C 6392.17 5.02236 0.0800938 0
M  V30 65616 C 6394.17 6.20315 -1.46587 0
M  V30 65617 C 6391.85 6.05939 -0.792521 0
M  V30 65618 C 6392.85 6.6485 -1.56409 0
M  V30 65619 O 6392.54 7.66543 -2.42214 0
M  V30 65620 H 6392.27 0.663456 0.129624 0
M  V30 65621 H 6394.82 2.03718 -0.262305 0
M  V30 65622 H 6393.05 3.35211 1.92796 0
M  V30 65623 H 6394.74 3.69296 1.6845 0
M  V30 65624 H 6395.51 4.82119 -0.527864 0
M  V30 65625 H 6391.39 4.56099 0.670425 0
M  V30 65626 H 6394.93 6.66225 -2.06857 0
M  V30 65627 H 6390.83 6.39709 -0.862729 0
M  V30 65628 H 6391.6 7.8384 -2.35662 0
M  V30 65629 N 6394.26 -0.108484 1.57226 0
M  V30 65630 C 6395.21 -1.15148 2.02098 0
M  V30 65631 C 6396.2 -1.4226 0.919701 0
M  V30 65632 O 6397.41 -1.42098 1.1049 0
M  V30 65633 H 6393.78 -0.388493 0.643877 0
M  V30 65634 H 6395.75 -0.746605 2.88909 0
M  V30 65635 C 6394.5 -2.46718 2.45001 0
M  V30 65636 H 6393.83 -2.26697 3.29315 0
M  V30 65637 H 6395.27 -3.18232 2.80186 0
M  V30 65638 C 6393.73 -3.10055 1.31786 0
M  V30 65639 O 6394.26 -3.96575 0.639611 0
M  V30 65640 N 6392.46 -2.70095 1.07224 0
M  V30 65641 H 6392.01 -1.99831 1.62559 0
M  V30 65642 H 6391.97 -3.12801 0.316712 0
M  V30 65643 N 6395.74 -1.52976 -0.378955 0
M  V30 65644 C 6396.69 -1.78468 -1.46348 0
M  V30 65645 C 6397.66 -0.628362 -1.53756 0
M  V30 65646 O 6398.84 -0.869143 -1.69854 0
M  V30 65647 C 6395.98 -1.96837 -2.8346 0
M  V30 65648 C 6395.09 -3.24543 -2.85125 0
M  V30 65649 C 6394.23 -3.33173 -4.13726 0
M  V30 65650 C 6393.27 -4.54963 -4.09482 0
M  V30 65651 N 6392.4 -4.60819 -5.29707 0
M  V30 65652 H 6397.24 -2.71017 -1.23911 0
M  V30 65653 H 6394.78 -1.34265 -0.600935 0
M  V30 65654 H 6396.74 -2.05472 -3.63094 0
M  V30 65655 H 6395.37 -1.07638 -3.04325 0
M  V30 65656 H 6394.42 -3.24928 -1.97802 0
M  V30 65657 H 6395.73 -4.14242 -2.77858 0
M  V30 65658 H 6394.89 -3.41046 -5.01769 0
M  V30 65659 H 6393.63 -2.41466 -4.23728 0
M  V30 65660 H 6392.63 -4.47204 -3.19826 0
M  V30 65661 H 6393.86 -5.47997 -4.01094 0
M  V30 65662 H 6391.8 -3.72008 -5.4032 0
M  V30 65663 H 6391.72 -5.44404 -5.24557 0
M  V30 65664 H 6392.99 -4.7296 -6.1962 0
M  V30 65665 N 6397.22 0.637989 -1.44109 0
M  V30 65666 C 6398.44 1.42999 -1.5022 0
M  V30 65667 C 6398.87 1.87678 -0.125969 0
M  V30 65668 O 6398.22 1.58319 0.883452 0
M  V30 65669 C 6398.27 2.63104 -2.46594 0
M  V30 65670 O 6397.38 3.62699 -1.96273 0
M  V30 65671 H 6396.72 0.428155 -0.507523 0
M  V30 65672 H 6399.25 0.779336 -1.89176 0
M  V30 65673 H 6399.26 3.10732 -2.64404 0
M  V30 65674 H 6397.93 2.29929 -3.46562 0
M  V30 65675 H 6396.51 3.21925 -1.88198 0
M  V30 65676 N 6398.69 1.30893 0.877769 0
M  V30 65677 C 6399.94 1.20309 1.63259 0
M  V30 65678 C 6400.27 -0.240046 1.92711 0
M  V30 65679 O 6399.55 -1.17077 1.55317 0
M  V30 65680 C 6399.83 2.03944 2.96781 0
M  V30 65681 C 6399.68 3.56515 2.74257 0
M  V30 65682 C 6401 1.88282 3.97791 0
M  V30 65683 H 6398.12 0.438402 0.592429 0
M  V30 65684 H 6400.76 1.60602 1.01524 0
M  V30 65685 H 6398.91 1.6971 3.49472 0
M  V30 65686 H 6400.59 4.00846 2.28298 0
M  V30 65687 H 6398.83 3.80337 2.0863 0
M  V30 65688 H 6399.5 4.10333 3.6923 0
M  V30 65689 H 6401.98 2.18226 3.54283 0
M  V30 65690 H 6400.85 2.49115 4.89114 0
M  V30 65691 H 6401.11 0.843954 4.3397 0
M  V30 65692 N 6400.17 -1.09106 1.13726 0
M  V30 65693 C 6401.58 -1.62838 0.913271 0
M  V30 65694 C 6401.94 -1.88348 -0.549499 0
M  V30 65695 O 6401.06 -1.63563 -1.41691 0
M  V30 65696 C 6401.66 -2.95829 1.65138 0
M  V30 65697 C 6400.21 -3.46374 1.47316 0
M  V30 65698 C 6399.36 -2.20732 1.67847 0
M  V30 65699 H 6402.31 -0.924251 1.29009 0
M  V30 65700 H 6402.33 -3.63938 1.11039 0
M  V30 65701 H 6401.85 -2.77231 2.71596 0
M  V30 65702 H 6399.95 -3.7009 0.431735 0
M  V30 65703 H 6400.06 -4.23595 2.2384 0
M  V30 65704 H 6398.42 -2.2955 1.10357 0
M  V30 65705 H 6399.21 -2.04649 2.75633 0
M  V30 65706 N 6401.65 -0.931276 -1.27142 0
M  V30 65707 C 6402.6 -0.423717 -2.28708 0
M  V30 65708 C 6403.59 0.493829 -1.62042 0
M  V30 65709 O 6404.8 0.373136 -1.7609 0
M  V30 65710 H 6401.17 -0.118462 -0.742611 0
M  V30 65711 H 6403.15 -1.29307 -2.68928 0
M  V30 65712 C 6401.89 0.304929 -3.4636 0
M  V30 65713 H 6401.22 -0.391926 -3.97874 0
M  V30 65714 H 6402.66 0.624442 -4.19377 0
M  V30 65715 C 6401.12 1.5192 -3.00703 0
M  V30 65716 O 6401.65 2.61784 -3.04683 0
M  V30 65717 N 6399.85 1.37228 -2.56158 0
M  V30 65718 H 6399.4 0.478433 -2.53118 0
M  V30 65719 H 6399.36 2.18597 -2.25971 0
M  V30 65720 N 6403.13 1.4134 -0.697182 0
M  V30 65721 C 6404.06 2.33452 -0.0472678 0
M  V30 65722 C 6405.04 1.51905 0.765435 0
M  V30 65723 O 6406.23 1.80436 0.718083 0
M  V30 65724 C 6403.36 3.35738 0.888663 0
M  V30 65725 C 6402.31 4.27609 0.182938 0
M  V30 65726 C 6401.64 5.20282 1.23334 0
M  V30 65727 C 6402.94 5.13555 -0.951739 0
M  V30 65728 H 6404.63 2.88049 -0.816597 0
M  V30 65729 H 6402.18 1.38501 -0.394137 0
M  V30 65730 H 6404.13 3.99103 1.35258 0
M  V30 65731 H 6402.85 2.79495 1.68968 0
M  V30 65732 H 6401.51 3.6567 -0.260962 0
M  V30 65733 H 6401.16 4.60353 2.02692 0
M  V30 65734 H 6400.86 5.82584 0.766132 0
M  V30 65735 H 6402.38 5.86523 1.69773 0
M  V30 65736 H 6403.8 5.70479 -0.568035 0
M  V30 65737 H 6402.19 5.84807 -1.34614 0
M  V30 65738 H 6403.26 4.50625 -1.79069 0
M  V30 65739 N 6404.61 0.442047 1.51274 0
M  V30 65740 C 6405.85 -0.121953 2.04036 0
M  V30 65741 C 6406.21 -1.39552 1.31868 0
M  V30 65742 O 6407.41 -2.04006 1.75029 0
M  V30 65743 C 6405.68 -0.330832 3.55866 0
M  V30 65744 S 6407.24 -0.857561 4.30339 0
M  V30 65745 H 6404.06 -0.0296395 0.710382 0
M  V30 65746 H 6406.66 0.602532 1.85983 0
M  V30 65747 H 6405.37 0.602339 4.05956 0
M  V30 65748 H 6404.9 -1.08226 3.7822 0
M  V30 65749 H 6406.91 -2.13458 4.4794 0
M  V30 65750 N 6406.09 -1.56641 0.17357 0
M  V30 65751 C 6407.03 -2.18073 -0.75584 0
M  V30 65752 C 6408 -1.12141 -1.2253 0
M  V30 65753 O 6409.19 -1.40301 -1.29307 0
M  V30 65754 C 6406.33 -2.82733 -1.97878 0
M  V30 65755 C 6405.44 -4.03133 -1.55268 0
M  V30 65756 C 6404.58 -4.55712 -2.72946 0
M  V30 65757 C 6403.61 -5.68517 -2.26837 0
M  V30 65758 N 6402.75 -6.15597 -3.37616 0
M  V30 65759 H 6407.59 -2.97148 -0.225201 0
M  V30 65760 H 6405.13 -1.46764 -0.0994267 0
M  V30 65761 H 6407.09 -3.18381 -2.6961 0
M  V30 65762 H 6405.72 -2.06258 -2.48309 0
M  V30 65763 H 6404.77 -3.7329 -0.732022 0
M  V30 65764 H 6406.08 -4.84782 -1.17424 0
M  V30 65765 H 6405.23 -4.93553 -3.52831 0
M  V30 65766 H 6403.97 -3.73126 -3.14052 0
M  V30 65767 H 6402.98 -5.30225 -1.454 0
M  V30 65768 H 6404.2 -6.52907 -1.86787 0
M  V30 65769 H 6402.15 -5.35939 -3.78293 0
M  V30 65770 H 6402.07 -6.92241 -3.03872 0
M  V30 65771 H 6403.33 -6.58088 -4.1778 0
M  V30 65772 N 6407.56 0.100145 -1.57281 0
M  V30 65773 C 6408.5 1.14796 -1.9838 0
M  V30 65774 C 6409.51 1.36602 -0.88565 0
M  V30 65775 O 6410.7 1.35343 -1.16381 0
M  V30 65776 C 6407.8 2.50447 -2.28318 0
M  V30 65777 C 6406.97 2.48987 -3.59616 0
M  V30 65778 C 6406.03 3.66528 -3.7755 0
M  V30 65779 O 6405.06 3.4925 -4.49459 0
M  V30 65780 N 6406.26 4.85818 -3.17744 0
M  V30 65781 H 6409.02 0.7982 -2.88875 0
M  V30 65782 H 6406.58 0.28919 -1.59296 0
M  V30 65783 H 6408.58 3.27673 -2.37514 0
M  V30 65784 H 6407.15 2.77533 -1.43856 0
M  V30 65785 H 6406.37 1.57344 -3.61437 0
M  V30 65786 H 6407.65 2.45086 -4.45882 0
M  V30 65787 H 6407.05 5.0276 -2.59325 0
M  V30 65788 H 6405.61 5.60653 -3.32432 0
M  V30 65789 N 6409.04 1.53175 0.370837 0
M  V30 65790 C 6410.29 1.68323 1.11131 0
M  V30 65791 C 6410.6 0.43881 1.90614 0
M  V30 65792 O 6411.81 0.470742 2.67388 0
M  V30 65793 C 6410.27 2.97539 2.02481 0
M  V30 65794 C 6409.87 4.29225 1.28334 0
M  V30 65795 C 6411.62 3.22055 2.76552 0
M  V30 65796 C 6409.52 5.49534 2.18555 0
M  V30 65797 H 6408.45 0.627145 0.418575 0
M  V30 65798 H 6411.11 1.79675 0.372702 0
M  V30 65799 H 6409.49 2.79977 2.80051 0
M  V30 65800 H 6410.66 4.57401 0.558633 0
M  V30 65801 H 6408.98 4.11113 0.661469 0
M  V30 65802 H 6411.57 4.09123 3.44271 0
M  V30 65803 H 6411.92 2.37893 3.41632 0
M  V30 65804 H 6412.45 3.40266 2.06067 0
M  V30 65805 H 6409.19 6.36158 1.58061 0
M  V30 65806 H 6408.71 5.25645 2.8889 0
M  V30 65807 H 6410.39 5.8412 2.78232 0
M  V30 65808 N 6410.52 -0.630338 1.44445 0
M  V30 65809 C 6411.76 -1.40144 1.48792 0
M  V30 65810 C 6412.12 -1.91639 0.117665 0
M  V30 65811 O 6413.32 -2.68776 0.0358098 0
M  V30 65812 C 6411.6 -2.53496 2.51941 0
M  V30 65813 S 6413.15 -3.41661 2.75342 0
M  V30 65814 H 6409.97 -0.478091 0.526261 0
M  V30 65815 H 6412.57 -0.729639 1.81374 0
M  V30 65816 H 6411.28 -2.13977 3.50203 0
M  V30 65817 H 6410.81 -3.25502 2.20935 0
M  V30 65818 H 6412.82 -4.50962 2.06997 0
M  V30 65819 N 6412 -1.31357 -0.870815 0
M  V30 65820 C 6413.22 -1.24088 -1.66184 0
M  V30 65821 C 6413.65 0.190821 -1.8713 0
M  V30 65822 O 6413.01 1.13665 -1.41245 0
M  V30 65823 C 6413.05 -1.98936 -3.0076 0
M  V30 65824 O 6412.16 -1.32612 -3.90497 0
M  V30 65825 H 6411.5 -0.42846 -0.507265 0
M  V30 65826 H 6414.03 -1.73412 -1.0858 0
M  V30 65827 H 6414.04 -2.08499 -3.50702 0
M  V30 65828 H 6412.71 -3.03054 -2.84835 0
M  V30 65829 H 6411.29 -1.31495 -3.48946 0
M  V30 65830 N 6413.48 1.08501 -1.14303 0
M  V30 65831 C 6414.43 2.1359 -0.79771 0
M  V30 65832 C 6415.41 1.59488 0.212673 0
M  V30 65833 O 6416.6 1.76994 0.0151596 0
M  V30 65834 C 6413.73 3.4219 -0.275836 0
M  V30 65835 C 6412.82 4.03176 -1.31569 0
M  V30 65836 N 6413.21 4.38582 -2.51952 0
M  V30 65837 C 6411.51 4.30497 -1.16568 0
M  V30 65838 C 6412.21 4.8675 -3.18511 0
M  V30 65839 N 6411.18 4.84796 -2.45915 0
M  V30 65840 H 6414.98 2.38782 -1.71348 0
M  V30 65841 H 6412.5 1.25824 -1.02675 0
M  V30 65842 H 6414.5 4.16899 -0.0101521 0
M  V30 65843 H 6413.16 3.18447 0.634144 0
M  V30 65844 H 6414.17 4.29641 -2.89186 0
M  V30 65845 H 6410.84 4.16313 -0.314643 0
M  V30 65846 H 6412.23 5.23533 -4.21145 0
M  V30 65847 N 6414.95 0.938006 1.26646 0
M  V30 65848 C 6415.88 0.462729 2.28869 0
M  V30 65849 C 6416.87 -0.482342 1.63118 0
M  V30 65850 O 6418.05 -0.38488 1.90348 0
M  V30 65851 C 6415.18 -0.275842 3.46203 0
M  V30 65852 C 6414.13 0.582371 4.24019 0
M  V30 65853 C 6413.46 -0.285974 5.33935 0
M  V30 65854 C 6414.76 1.8521 4.88359 0
M  V30 65855 H 6416.45 1.31707 2.68875 0
M  V30 65856 H 6414 0.634754 1.29255 0
M  V30 65857 H 6415.95 -0.619349 4.16824 0
M  V30 65858 H 6414.68 -1.1643 3.05142 0
M  V30 65859 H 6413.34 0.908729 3.55159 0
M  V30 65860 H 6412.98 -1.17369 4.89115 0
M  V30 65861 H 6412.68 0.284824 5.86909 0
M  V30 65862 H 6414.21 -0.624821 6.07395 0
M  V30 65863 H 6415.62 1.57603 5.51211 0
M  V30 65864 H 6414.02 2.36722 5.51437 0
M  V30 65865 H 6415.09 2.56541 4.11479 0
M  V30 65866 N 6416.43 -1.40969 0.704668 0
M  V30 65867 C 6417.67 -2.02941 0.243774 0
M  V30 65868 C 6418.04 -1.54636 -1.13805 0
M  V30 65869 O 6419.24 -2.08596 -1.69532 0
M  V30 65870 C 6417.51 -3.56062 0.308936 0
M  V30 65871 S 6419.07 -4.38733 -0.0765763 0
M  V30 65872 H 6415.89 -0.704285 0.0974884 0
M  V30 65873 H 6418.49 -1.72261 0.924465 0
M  V30 65874 H 6417.19 -3.88713 1.31646 0
M  V30 65875 H 6416.72 -3.91456 -0.3906 0
M  V30 65876 H 6418.74 -4.7882 -1.30176 0
M  V30 65877 N 6417.91 -0.450063 -1.51037 0
M  V30 65878 C 6418.84 0.345234 -2.30934 0
M  V30 65879 C 6419.82 1.00954 -1.36903 0
M  V30 65880 O 6421.01 1.01074 -1.65824 0
M  V30 65881 C 6418.14 1.43957 -3.1606 0
M  V30 65882 C 6417.09 0.898051 -4.18472 0
M  V30 65883 C 6416.42 2.08909 -4.922 0
M  V30 65884 C 6417.72 -0.0762747 -5.22244 0
M  V30 65885 H 6419.41 -0.321545 -2.97668 0
M  V30 65886 H 6416.96 -0.156083 -1.43152 0
M  V30 65887 H 6418.91 2.00325 -3.7074 0
M  V30 65888 H 6417.63 2.13482 -2.4717 0
M  V30 65889 H 6416.29 0.356489 -3.64863 0
M  V30 65890 H 6415.94 2.77083 -4.19802 0
M  V30 65891 H 6415.64 1.73309 -5.61461 0
M  V30 65892 H 6417.16 2.65808 -5.49708 0
M  V30 65893 H 6418.58 0.397527 -5.7192 0
M  V30 65894 H 6416.98 -0.345491 -5.99105 0
M  V30 65895 H 6418.05 -1.00894 -4.74287 0
M  V30 65896 N 6419.39 1.56547 -0.181875 0
M  V30 65897 C 6420.32 2.21474 0.739696 0
M  V30 65898 C 6421.3 1.17365 1.23124 0
M  V30 65899 O 6422.48 1.45829 1.28248 0
M  V30 65900 C 6419.61 2.86376 1.96484 0
M  V30 65901 C 6418.57 3.96615 1.60874 0
M  V30 65902 C 6417.89 4.48617 2.90941 0
M  V30 65903 C 6419.19 5.15684 0.828713 0
M  V30 65904 H 6420.89 2.98741 0.198475 0
M  V30 65905 H 6418.43 1.43693 0.094022 0
M  V30 65906 H 6420.39 3.30475 2.61465 0
M  V30 65907 H 6419.11 2.06494 2.53037 0
M  V30 65908 H 6417.77 3.53187 0.982569 0
M  V30 65909 H 6417.42 3.65513 3.45556 0
M  V30 65910 H 6417.12 5.22994 2.67864 0
M  V30 65911 H 6418.64 4.9541 3.56933 0
M  V30 65912 H 6420.06 5.5641 1.38134 0
M  V30 65913 H 6418.45 5.96043 0.69658 0
M  V30 65914 H 6419.52 4.84592 -0.172881 0
M  V30 65915 N 6420.87 -0.0918024 1.57332 0
M  V30 65916 C 6422.28 -0.446097 1.53239 0
M  V30 65917 C 6422.48 -1.80329 0.89909 0
M  V30 65918 O 6421.54 -2.4764 0.493008 0
M  V30 65919 C 6422.85 -0.405557 2.97953 0
M  V30 65920 C 6424.4 -0.487178 3.09185 0
M  V30 65921 C 6424.87 -0.476752 4.55512 0
M  V30 65922 N 6426.37 -0.537411 4.60072 0
M  V30 65923 C 6427.1 -0.551235 5.70744 0
M  V30 65924 N 6426.6 -0.52107 6.90838 0
M  V30 65925 N 6428.39 -0.596294 5.58928 0
M  V30 65926 H 6420.54 0.79713 1.96875 0
M  V30 65927 H 6422.8 0.297054 0.900257 0
M  V30 65928 H 6422.51 0.524589 3.47766 0
M  V30 65929 H 6422.38 -1.2233 3.56813 0
M  V30 65930 H 6424.77 -1.40774 2.59358 0
M  V30 65931 H 6424.85 0.358767 2.53272 0
M  V30 65932 H 6424.5 0.439883 5.05992 0
M  V30 65933 H 6424.43 -1.33996 5.09267 0
M  V30 65934 H 6426.92 -0.565785 3.73641 0
M  V30 65935 H 6427.23 -0.534992 7.70946 0
M  V30 65936 H 6425.57 -0.488066 6.93284 0
M  V30 65937 H 6428.77 -0.617413 4.6401 0
M  V30 65938 H 6428.94 -0.603599 6.45183 0
M  V30 65939 N 6422.34 -1.53369 -0.362709 0
M  V30 65940 C 6423.76 -1.61347 -0.93936 0
M  V30 65941 C 6424.11 -0.482687 -1.9017 0
M  V30 65942 O 6423.23 0.390465 -2.12848 0
M  V30 65943 C 6423.83 -2.92451 -1.71049 0
M  V30 65944 C 6422.39 -3.02755 -2.23644 0
M  V30 65945 C 6421.53 -2.56664 -1.04971 0
M  V30 65946 H 6424.48 -1.58069 -0.141415 0
M  V30 65947 H 6424.5 -2.80415 -2.57192 0
M  V30 65948 H 6424.02 -3.74732 -1.00983 0
M  V30 65949 H 6422.12 -2.25068 -2.96943 0
M  V30 65950 H 6422.23 -4.07886 -2.51328 0
M  V30 65951 H 6420.59 -2.11608 -1.41753 0
M  V30 65952 H 6421.38 -3.41365 -0.363991 0
M  V30 65953 N 6423.82 0.622669 -1.44778 0
M  V30 65954 C 6425.07 1.37932 -1.47713 0
M  V30 65955 C 6425.39 1.94665 -0.114255 0
M  V30 65956 O 6424.66 1.7628 0.854521 0
M  V30 65957 H 6423.24 0.512003 -0.543932 0
M  V30 65958 H 6425.9 0.732273 -1.80621 0
M  V30 65959 H 6425 2.20638 -2.20738 0
M  V30 65960 N 6425.3 1.31817 0.863836 0
M  V30 65961 C 6426.55 1.21612 1.61415 0
M  V30 65962 C 6426.87 -0.224372 1.93705 0
M  V30 65963 O 6426.14 -1.14671 1.58831 0
M  V30 65964 H 6424.72 0.447112 0.598414 0
M  V30 65965 H 6427.38 1.65222 1.03382 0
M  V30 65966 H 6426.48 1.79222 2.55511 0
M  V30 65967 N 6426.78 -1.07893 1.14877 0
M  V30 65968 C 6428.01 -1.83847 0.942543 0
M  V30 65969 C 6428.42 -1.82129 -0.512422 0
M  V30 65970 O 6427.76 -1.22714 -1.367 0
M  V30 65971 C 6427.82 -3.32267 1.37256 0
M  V30 65972 C 6427.49 -3.57713 2.84413 0
M  V30 65973 C 6428.48 -3.52117 3.82504 0
M  V30 65974 C 6426.17 -3.85556 3.2195 0
M  V30 65975 C 6428.16 -3.74004 5.16139 0
M  V30 65976 C 6425.85 -4.07095 4.5576 0
M  V30 65977 C 6426.85 -4.01313 5.52663 0
M  V30 65978 O 6426.53 -4.22282 6.84056 0
M  V30 65979 H 6426.27 -0.587069 0.335151 0
M  V30 65980 H 6428.82 -1.37137 1.52914 0
M  V30 65981 H 6427.05 -3.7976 0.729324 0
M  V30 65982 H 6428.74 -3.8967 1.1363 0
M  V30 65983 H 6429.51 -3.30615 3.5485 0
M  V30 65984 H 6425.38 -3.89173 2.47114 0
M  V30 65985 H 6428.93 -3.69407 5.91764 0
M  V30 65986 H 6424.83 -4.28082 4.83132 0
M  V30 65987 H 6425.59 -4.3966 6.90392 0
M  V30 65988 N 6428.26 -0.944709 -1.26147 0
M  V30 65989 C 6429.48 -0.61052 -1.98211 0
M  V30 65990 C 6429.91 0.808342 -1.69845 0
M  V30 65991 O 6429.26 1.54507 -0.948545 0
M  V30 65992 C 6429.31 -0.863441 -3.5011 0
M  V30 65993 O 6428.42 0.0627041 -4.12352 0
M  V30 65994 H 6427.76 -0.233161 -0.621717 0
M  V30 65995 H 6430.29 -1.2686 -1.60523 0
M  V30 65996 H 6430.3 -0.785743 -4.00362 0
M  V30 65997 H 6428.97 -1.89761 -3.70086 0
M  V30 65998 H 6427.55 -0.0663531 -3.72841 0
M  V30 65999 N 6429.74 1.40593 -0.712134 0
M  V30 66000 C 6430.98 2.02809 -0.254533 0
M  V30 66001 C 6431.34 1.55237 1.12984 0
M  V30 66002 O 6432.54 2.09493 1.68423 0
M  V30 66003 C 6430.81 3.55893 -0.327814 0
M  V30 66004 S 6432.37 4.38768 0.0533082 0
M  V30 66005 H 6429.19 0.703758 -0.101222 0
M  V30 66006 H 6431.79 1.71768 -0.933588 0
M  V30 66007 H 6430.49 3.88009 -1.33706 0
M  V30 66008 H 6430.03 3.91658 0.369835 0
M  V30 66009 H 6432.04 4.79504 1.27635 0
M  V30 66010 N 6431.21 0.458066 1.50796 0
M  V30 66011 C 6432.18 -0.331387 2.26792 0
M  V30 66012 C 6433.18 -0.931807 1.3105 0
M  V30 66013 O 6434.37 -0.803017 1.54587 0
M  V30 66014 C 6431.5 -1.47079 3.07539 0
M  V30 66015 H 6432.69 0.33491 2.98024 0
M  V30 66016 H 6430.24 0.21177 1.54859 0
M  V30 66017 H 6430.98 -2.17253 2.40773 0
M  V30 66018 H 6430.76 -1.0462 3.77885 0
M  V30 66019 H 6432.25 -2.02802 3.65049 0
M  V30 66020 N 6432.69 -1.56448 0.190174 0
M  V30 66021 C 6433.93 -1.99337 -0.452116 0
M  V30 66022 C 6434.3 -1.0742 -1.59138 0
M  V30 66023 O 6435.5 -1.39525 -2.29752 0
M  V30 66024 C 6433.77 -3.45749 -0.905108 0
M  V30 66025 S 6435.33 -4.10666 -1.54593 0
M  V30 66026 H 6432.14 -0.696107 -0.144762 0
M  V30 66027 H 6434.75 -1.93306 0.292081 0
M  V30 66028 H 6433.45 -4.10347 -0.06581 0
M  V30 66029 H 6432.98 -3.55587 -1.68289 0
M  V30 66030 H 6435 -4.07267 -2.83458 0
M  V30 66031 N 6434.17 0.0834573 -1.57379 0
M  V30 66032 C 6435.58 0.636646 -1.7551 0
M  V30 66033 C 6435.93 1.78517 -0.814004 0
M  V30 66034 O 6435.06 2.16399 0.00472535 0
M  V30 66035 C 6435.65 1.16167 -3.18262 0
M  V30 66036 C 6434.21 1.66083 -3.37777 0
M  V30 66037 C 6433.36 0.575293 -2.71267 0
M  V30 66038 H 6436.31 -0.142669 -1.58057 0
M  V30 66039 H 6436.33 2.03076 -3.21777 0
M  V30 66040 H 6435.84 0.325543 -3.86732 0
M  V30 66041 H 6433.94 2.52059 -2.74403 0
M  V30 66042 H 6434.06 1.7458 -4.4616 0
M  V30 66043 H 6432.42 1.01755 -2.33491 0
M  V30 66044 H 6433.2 -0.250455 -3.42385 0
M  V30 66045 N 6435.65 1.5356 0.35457 0
M  V30 66046 C 6436.58 1.77072 1.45527 0
M  V30 66047 C 6437.59 0.651731 1.49185 0
M  V30 66048 O 6438.78 0.928233 1.52467 0
M  V30 66049 C 6435.88 1.84554 2.84241 0
M  V30 66050 C 6435.05 3.14342 3.04151 0
M  V30 66051 C 6434.11 3.12923 4.23043 0
M  V30 66052 O 6433.14 3.86684 4.17689 0
M  V30 66053 N 6434.34 2.34515 5.31021 0
M  V30 66054 H 6437.11 2.72051 1.25732 0
M  V30 66055 H 6434.67 1.52473 0.544376 0
M  V30 66056 H 6436.66 1.81069 3.61934 0
M  V30 66057 H 6435.23 0.968108 2.97231 0
M  V30 66058 H 6434.45 3.3104 2.14023 0
M  V30 66059 H 6435.74 4.00093 3.14329 0
M  V30 66060 H 6435.14 1.74119 5.38237 0
M  V30 66061 H 6433.69 2.36839 6.07248 0
M  V30 66062 N 6437.13 -0.614982 1.45106 0
M  V30 66063 C 6438.37 -1.37147 1.48442 0
M  V30 66064 C 6438.69 -1.94602 0.124577 0
M  V30 66065 O 6437.96 -1.76731 -0.84516 0
M  V30 66066 H 6436.54 -0.509112 0.546639 0
M  V30 66067 H 6439.21 -0.722684 1.81006 0
M  V30 66068 H 6438.3 -2.19464 2.21905 0
M  V30 66069 N 6438.6 -1.32273 -0.856834 0
M  V30 66070 C 6439.83 -1.25843 -1.64858 0
M  V30 66071 C 6440.25 0.170962 -1.87321 0
M  V30 66072 O 6439.61 1.1216 -1.42442 0
M  V30 66073 C 6439.66 -2.02115 -2.98633 0
M  V30 66074 O 6438.76 -1.36747 -3.89068 0
M  V30 66075 H 6438.1 -0.433817 -0.502692 0
M  V30 66076 H 6440.63 -1.74554 -1.06734 0
M  V30 66077 H 6440.64 -2.12207 -3.48471 0
M  V30 66078 H 6439.32 -3.06058 -2.81605 0
M  V30 66079 H 6437.9 -1.35189 -3.47532 0
M  V30 66080 N 6440.08 1.07283 -1.15448 0
M  V30 66081 C 6441.31 1.8415 -0.954126 0
M  V30 66082 C 6441.73 1.81536 0.492576 0
M  V30 66083 O 6441.09 1.20882 1.3512 0
M  V30 66084 C 6441.14 3.29107 -1.47381 0
M  V30 66085 O 6440.24 4.06864 -0.673478 0
M  V30 66086 H 6439.58 0.570186 -0.34027 0
M  V30 66087 H 6442.11 1.35333 -1.53447 0
M  V30 66088 H 6442.12 3.79939 -1.48695 0
M  V30 66089 H 6440.8 3.30324 -2.52703 0
M  V30 66090 H 6439.37 3.65684 -0.730023 0
M  V30 66091 N 6441.56 0.951386 1.25644 0
M  V30 66092 C 6442.81 0.604419 1.93269 0
M  V30 66093 C 6443.13 -0.858076 1.74549 0
M  V30 66094 O 6442.39 -1.63061 1.08211 0
M  V30 66095 C 6442.69 0.905322 3.45744 0
M  V30 66096 C 6442.35 2.35333 3.84616 0
M  V30 66097 C 6441.02 2.74913 3.94938 0
M  V30 66098 C 6443.37 3.29385 4.03924 0
M  V30 66099 C 6440.7 4.07621 4.21974 0
M  V30 66100 C 6443.05 4.61701 4.32452 0
M  V30 66101 C 6441.71 5.01082 4.40991 0
M  V30 66102 H 6440.98 0.221173 0.707223 0
M  V30 66103 H 6443.63 1.19981 1.49254 0
M  V30 66104 H 6441.93 0.2275 3.91139 0
M  V30 66105 H 6443.63 0.61549 3.96248 0
M  V30 66106 H 6440.22 2.03636 3.77135 0
M  V30 66107 H 6444.41 2.99998 3.95367 0
M  V30 66108 H 6439.66 4.37781 4.268 0
M  V30 66109 H 6443.84 5.34561 4.46338 0
M  V30 66110 H 6441.46 6.03939 4.61694 0
M  V30 66111 N 6443.04 -1.40213 0.71958 0
M  V30 66112 C 6444.29 -2.00046 0.25778 0
M  V30 66113 C 6444.6 -1.57722 -1.15686 0
M  V30 66114 O 6445.81 -2.10281 -1.71738 0
M  V30 66115 C 6444.26 -3.57558 0.40995 0
M  V30 66116 C 6443.87 -4.08853 1.83149 0
M  V30 66117 C 6445.61 -4.24499 0.00914517 0
M  V30 66118 C 6443.52 -5.58882 1.93403 0
M  V30 66119 H 6442.45 -0.748289 0.0926238 0
M  V30 66120 H 6445.1 -1.60403 0.891244 0
M  V30 66121 H 6443.48 -3.94921 -0.292163 0
M  V30 66122 H 6444.66 -3.82858 2.5643 0
M  V30 66123 H 6442.97 -3.54522 2.18411 0
M  V30 66124 H 6445.57 -5.34661 0.0649877 0
M  V30 66125 H 6445.91 -4.03271 -1.03335 0
M  V30 66126 H 6446.45 -3.92256 0.661848 0
M  V30 66127 H 6443.18 -5.8497 2.95788 0
M  V30 66128 H 6442.7 -5.86728 1.24538 0
M  V30 66129 H 6444.38 -6.24048 1.708 0
M  V30 66130 N 6444.52 -0.466057 -1.50551 0
M  V30 66131 C 6445.43 0.336169 -2.32179 0
M  V30 66132 C 6446.44 1.00076 -1.4234 0
M  V30 66133 O 6447.62 0.989842 -1.75397 0
M  V30 66134 C 6444.68 1.4067 -3.1688 0
M  V30 66135 C 6443.74 0.759235 -4.22533 0
M  V30 66136 C 6442.98 1.77876 -5.03186 0
M  V30 66137 O 6443.2 3.00466 -4.84847 0
M  V30 66138 O 6442.13 1.35337 -5.86487 0
M  V30 66139 H 6445.96 -0.331014 -3.01891 0
M  V30 66140 H 6443.55 -0.228002 -1.4765 0
M  V30 66141 H 6445.43 2.02691 -3.69451 0
M  V30 66142 H 6444.1 2.05745 -2.49902 0
M  V30 66143 H 6443.01 0.100207 -3.73966 0
M  V30 66144 H 6444.34 0.151521 -4.91967 0
M  V30 66145 N 6445.99 1.56345 -0.198468 0
M  V30 66146 C 6447.24 1.97285 0.438543 0
M  V30 66147 C 6447.56 1.08663 1.61918 0
M  V30 66148 O 6446.83 0.158629 1.95257 0
M  V30 66149 H 6445.41 0.728547 0.165009 0
M  V30 66150 H 6448.08 1.9279 -0.285987 0
M  V30 66151 H 6447.17 3.02185 0.780409 0
M  V30 66152 N 6447.47 -0.07511 1.57421 0
M  V30 66153 C 6448.7 -0.791726 1.91694 0
M  V30 66154 C 6449.12 -1.70493 0.794582 0
M  V30 66155 O 6448.48 -1.79529 -0.252777 0
M  V30 66156 C 6448.53 -1.56419 3.24909 0
M  V30 66157 O 6447.63 -2.67462 3.13908 0
M  V30 66158 H 6446.97 -0.216218 0.62781 0
M  V30 66159 H 6449.5 -0.044347 2.04552 0
M  V30 66160 H 6449.51 -1.94415 3.58702 0
M  V30 66161 H 6448.19 -0.894123 4.06175 0
M  V30 66162 H 6446.77 -2.32347 2.91666 0
M  V30 66163 N 6448.95 -1.53746 -0.346422 0
M  V30 66164 C 6450.18 -1.74787 -1.10711 0
M  V30 66165 C 6450.59 -0.485689 -1.82446 0
M  V30 66166 O 6449.95 0.542504 -1.7425 0
M  V30 66167 C 6450 -2.92608 -2.1228 0
M  V30 66168 O 6449.72 -4.13944 -1.43463 0
M  V30 66169 C 6451.22 -3.25678 -3.00747 0
M  V30 66170 H 6448.44 -0.584092 -0.330269 0
M  V30 66171 H 6450.99 -2.0056 -0.399503 0
M  V30 66172 H 6449.14 -2.69175 -2.7861 0
M  V30 66173 H 6449.56 -4.80059 -2.11291 0
M  V30 66174 H 6451.03 -4.11476 -3.67956 0
M  V30 66175 H 6451.51 -2.41858 -3.66608 0
M  V30 66176 H 6452.11 -3.51106 -2.40009 0
M  V30 66177 N 6450.43 0.607278 -1.4543 0
M  V30 66178 C 6451.66 1.39291 -1.52989 0
M  V30 66179 C 6452.07 1.88098 -0.162605 0
M  V30 66180 O 6451.43 1.62232 0.835888 0
M  V30 66181 C 6451.48 2.59718 -2.51454 0
M  V30 66182 O 6451.2 2.12938 -3.82869 0
M  V30 66183 C 6452.7 3.52573 -2.68714 0
M  V30 66184 H 6449.92 0.426373 -0.518119 0
M  V30 66185 H 6452.47 0.740579 -1.90619 0
M  V30 66186 H 6450.62 3.20991 -2.16895 0
M  V30 66187 H 6451.03 2.91185 -4.36247 0
M  V30 66188 H 6452.51 4.33617 -3.41585 0
M  V30 66189 H 6452.99 4.02934 -1.7476 0
M  V30 66190 H 6453.59 2.97153 -3.0427 0
M  V30 66191 N 6451.91 1.32725 0.849807 0
M  V30 66192 C 6452.82 1.24077 1.99103 0
M  V30 66193 C 6453.83 0.153423 1.73322 0
M  V30 66194 O 6455.01 0.374998 1.97878 0
M  V30 66195 C 6452.07 0.969077 3.32881 0
M  V30 66196 C 6451.13 2.14535 3.71851 0
M  V30 66197 C 6450.37 1.88652 4.99245 0
M  V30 66198 O 6450.59 0.831457 5.64307 0
M  V30 66199 O 6449.52 2.74891 5.35461 0
M  V30 66200 H 6453.35 2.20026 2.09337 0
M  V30 66201 H 6450.94 1.12663 0.981192 0
M  V30 66202 H 6452.82 0.834254 4.1306 0
M  V30 66203 H 6451.49 0.0397773 3.23676 0
M  V30 66204 H 6450.4 2.33566 2.92229 0
M  V30 66205 H 6451.73 3.05761 3.85709 0
M  V30 66206 N 6453.38 -1.06669 1.16015 0
M  V30 66207 C 6454.62 -1.80985 0.949936 0
M  V30 66208 C 6454.99 -1.8501 -0.513336 0
M  V30 66209 O 6456.19 -2.55268 -0.842122 0
M  V30 66210 C 6454.46 -3.21766 1.55568 0
M  V30 66211 S 6456.02 -4.12744 1.48956 0
M  V30 66212 H 6452.84 -0.623502 0.34171 0
M  V30 66213 H 6455.44 -1.28092 1.47691 0
M  V30 66214 H 6454.14 -3.16429 2.61344 0
M  V30 66215 H 6453.67 -3.79735 1.02786 0
M  V30 66216 H 6455.69 -4.93802 0.487201 0
M  V30 66217 N 6454.86 -0.958036 -1.25138 0
M  V30 66218 C 6456.14 -0.531901 -1.88229 0
M  V30 66219 C 6456.52 0.99088 -1.86399 0
M  V30 66220 O 6455.87 1.85812 -1.32989 0
M  V30 66221 C 6456.08 -1.11241 -3.30797 0
M  V30 66222 C 6457.43 -1.19135 -4.07544 0
M  V30 66223 O 6458.45 -1.06421 -3.39931 0
M  V30 66224 O 6457.31 -1.39122 -5.28495 0
M  V30 66225 H 6454.4 -0.175955 -0.808065 0
M  V30 66226 H 6456.95 -1.05169 -1.33183 0
M  V30 66227 H 6455.72 -2.15554 -3.26577 0
M  V30 66228 H 6455.34 -0.576081 -3.93404 0
M  V30 66229 N 6456.34 1.3983 -0.727006 0
M  V30 66230 C 6457.3 2.29022 -0.0904134 0
M  V30 66231 C 6458.3 1.45923 0.675502 0
M  V30 66232 O 6459.49 1.66698 0.505706 0
M  V30 66233 C 6456.63 3.29307 0.881468 0
M  V30 66234 H 6457.82 2.86818 -0.87611 0
M  V30 66235 H 6455.37 1.48343 -0.492346 0
M  V30 66236 H 6456.11 2.76551 1.69381 0
M  V30 66237 H 6455.89 3.90666 0.335003 0
M  V30 66238 H 6457.38 3.96065 1.3237 0
M  V30 66239 N 6457.82 0.474035 1.50302 0
M  V30 66240 C 6458.78 -0.307314 2.2713 0
M  V30 66241 C 6459.78 -0.917855 1.32031 0
M  V30 66242 O 6460.97 -0.786576 1.5543 0
M  V30 66243 C 6458.1 -1.43809 3.09082 0
M  V30 66244 H 6459.3 0.366501 2.97652 0
M  V30 66245 H 6456.85 0.228183 1.54625 0
M  V30 66246 H 6457.58 -2.14687 2.43064 0
M  V30 66247 H 6457.37 -1.00607 3.78973 0
M  V30 66248 H 6458.86 -1.98919 3.6718 0
M  V30 66249 N 6459.3 -1.56238 0.206757 0
M  V30 66250 C 6460.55 -1.97081 -0.429198 0
M  V30 66251 C 6460.86 -1.09695 -1.61946 0
M  V30 66252 O 6462.07 -1.40371 -2.32397 0
M  V30 66253 C 6460.52 -3.50551 -0.814988 0
M  V30 66254 C 6460.13 -4.46618 0.351633 0
M  V30 66255 C 6461.87 -4.00138 -1.41737 0
M  V30 66256 C 6459.78 -5.91374 -0.0557666 0
M  V30 66257 H 6458.71 -0.73592 -0.164125 0
M  V30 66258 H 6461.36 -1.81021 0.300625 0
M  V30 66259 H 6459.74 -3.62157 -1.60181 0
M  V30 66260 H 6460.92 -4.46751 1.12919 0
M  V30 66261 H 6459.23 -4.07289 0.866277 0
M  V30 66262 H 6461.83 -5.05774 -1.73483 0
M  V30 66263 H 6462.17 -3.45124 -2.32798 0
M  V30 66264 H 6462.71 -3.91694 -0.694285 0
M  V30 66265 H 6459.44 -6.50339 0.820952 0
M  V30 66266 H 6458.96 -5.94469 -0.797939 0
M  V30 66267 H 6460.64 -6.4516 -0.487568 0
M  V30 66268 N 6460.78 0.0667605 -1.57459 0
M  V30 66269 C 6461.69 1.09657 -2.07394 0
M  V30 66270 C 6462.7 1.42076 -1.00451 0
M  V30 66271 O 6463.88 1.52152 -1.31954 0
M  V30 66272 C 6460.94 2.38943 -2.51211 0
M  V30 66273 C 6460 2.1345 -3.72475 0
M  V30 66274 C 6459.24 3.36571 -4.14193 0
M  V30 66275 O 6459.46 4.45877 -3.55739 0
M  V30 66276 O 6458.39 3.24487 -5.06944 0
M  V30 66277 H 6462.22 0.702339 -2.95467 0
M  V30 66278 H 6459.8 0.281236 -1.46729 0
M  V30 66279 H 6461.69 3.1502 -2.79894 0
M  V30 66280 H 6460.36 2.77736 -1.66266 0
M  V30 66281 H 6459.27 1.35062 -3.48868 0
M  V30 66282 H 6460.6 1.79534 -4.58288 0
M  V30 66283 N 6462.25 1.53927 0.338263 0
M  V30 66284 C 6463.18 1.85274 1.42112 0
M  V30 66285 C 6464.16 0.708292 1.54652 0
M  V30 66286 O 6465.35 0.96069 1.68773 0
M  V30 66287 C 6462.48 2.06703 2.7909 0
M  V30 66288 C 6461.43 3.22529 2.81352 0
M  V30 66289 C 6460.76 3.29301 4.21266 0
M  V30 66290 C 6462.06 4.60518 2.46415 0
M  V30 66291 H 6463.75 2.75961 1.16128 0
M  V30 66292 H 6461.3 1.32783 0.557202 0
M  V30 66293 H 6463.25 2.27216 3.54895 0
M  V30 66294 H 6461.98 1.12751 3.06521 0
M  V30 66295 H 6460.64 3.0188 2.08 0
M  V30 66296 H 6460.28 2.32935 4.45814 0
M  V30 66297 H 6459.98 4.07138 4.23689 0
M  V30 66298 H 6461.51 3.52031 4.98905 0
M  V30 66299 H 6462.92 4.8101 3.11933 0
M  V30 66300 H 6461.32 5.40797 2.60113 0
M  V30 66301 H 6462.39 4.63767 1.41591 0
M  V30 66302 N 6463.73 -0.599557 1.4575 0
M  V30 66303 C 6465.14 -1.18158 1.44553 0
M  V30 66304 C 6465.49 -1.95396 0.177388 0
M  V30 66305 O 6464.62 -2.04051 -0.720573 0
M  V30 66306 C 6465.21 -2.14942 2.61888 0
M  V30 66307 C 6463.77 -2.68503 2.63786 0
M  V30 66308 C 6462.92 -1.44056 2.36945 0
M  V30 66309 H 6465.87 -0.388417 1.53873 0
M  V30 66310 H 6465.89 -2.98118 2.36445 0
M  V30 66311 H 6465.4 -1.58698 3.5417 0
M  V30 66312 H 6463.5 -3.28663 1.75531 0
M  V30 66313 H 6463.62 -3.12388 3.6325 0
M  V30 66314 H 6461.98 -1.73289 1.86663 0
M  V30 66315 H 6462.76 -0.896685 3.31383 0
M  V30 66316 N 6465.21 -1.33174 -0.842756 0
M  V30 66317 C 6466.46 -1.2376 -1.59268 0
M  V30 66318 C 6466.77 0.196068 -1.94615 0
M  V30 66319 O 6467.98 0.412188 -2.68353 0
M  V30 66320 C 6466.43 -2.16829 -2.87251 0
M  V30 66321 C 6466.04 -3.65344 -2.59283 0
M  V30 66322 C 6467.79 -2.16278 -3.65272 0
M  V30 66323 C 6465.69 -4.50339 -3.83339 0
M  V30 66324 H 6464.62 -0.45966 -0.597686 0
M  V30 66325 H 6467.27 -1.58213 -0.92956 0
M  V30 66326 H 6465.66 -1.75304 -3.55084 0
M  V30 66327 H 6466.83 -4.15285 -1.99687 0
M  V30 66328 H 6465.14 -3.68145 -1.94573 0
M  V30 66329 H 6467.74 -2.77012 -4.5735 0
M  V30 66330 H 6468.08 -1.15684 -3.99904 0
M  V30 66331 H 6468.62 -2.56146 -3.04359 0
M  V30 66332 H 6465.36 -5.51794 -3.53842 0
M  V30 66333 H 6464.88 -4.05142 -4.42289 0
M  V30 66334 H 6466.56 -4.63945 -4.50959 0
M  V30 66335 N 6466.69 1.06052 -1.16579 0
M  V30 66336 C 6467.64 2.15691 -0.870636 0
M  V30 66337 C 6468.63 1.6863 0.161281 0
M  V30 66338 O 6469.84 1.79994 0.015033 0
M  V30 66339 H 6466.21 0.704152 -0.263959 0
M  V30 66340 H 6468.18 2.37795 -1.80266 0
M  V30 66341 C 6466.93 3.45496 -0.39085 0
M  V30 66342 H 6466.25 3.82103 -1.17633 0
M  V30 66343 H 6467.69 4.23413 -0.223125 0
M  V30 66344 C 6466.15 3.24931 0.890016 0
M  V30 66345 O 6466.68 3.50709 1.95874 0
M  V30 66346 N 6464.89 2.78353 0.834741 0
M  V30 66347 H 6464.44 2.57576 -0.0351567 0
M  V30 66348 H 6464.39 2.64973 1.69224 0
M  V30 66349 N 6468.17 0.964658 1.24628 0
M  V30 66350 C 6469.1 0.511172 2.27836 0
M  V30 66351 C 6470.08 -0.447634 1.64104 0
M  V30 66352 O 6471.26 -0.344418 1.91121 0
M  V30 66353 C 6468.39 -0.202345 3.4671 0
M  V30 66354 C 6467.35 0.672181 4.22689 0
M  V30 66355 C 6466.67 -0.172654 5.34421 0
M  V30 66356 C 6467.97 1.95527 4.84321 0
M  V30 66357 H 6469.67 1.37381 2.6602 0
M  V30 66358 H 6467.21 0.662028 1.2788 0
M  V30 66359 H 6469.16 -0.530795 4.18044 0
M  V30 66360 H 6467.89 -1.09931 3.07543 0
M  V30 66361 H 6466.55 0.983859 3.53151 0
M  V30 66362 H 6466.2 -1.06968 4.91495 0
M  V30 66363 H 6465.9 0.409252 5.86173 0
M  V30 66364 H 6467.42 -0.495843 6.08583 0
M  V30 66365 H 6468.83 1.6926 5.47744 0
M  V30 66366 H 6467.23 2.48365 5.46292 0
M  V30 66367 H 6468.3 2.65211 4.05945 0
M  V30 66368 N 6469.64 -1.39442 0.734411 0
M  V30 66369 C 6471.05 -1.83349 0.352161 0
M  V30 66370 C 6471.41 -1.61348 -1.1163 0
M  V30 66371 O 6470.53 -1.10433 -1.86101 0
M  V30 66372 C 6471.13 -3.32845 0.632403 0
M  V30 66373 C 6469.68 -3.75173 0.303654 0
M  V30 66374 C 6468.83 -2.62449 0.89532 0
M  V30 66375 H 6471.78 -1.28443 0.932099 0
M  V30 66376 H 6471.8 -3.80379 -0.0960247 0
M  V30 66377 H 6471.32 -3.48826 1.70123 0
M  V30 66378 H 6469.42 -3.6478 -0.759364 0
M  V30 66379 H 6469.53 -4.72612 0.785803 0
M  V30 66380 H 6467.89 -2.52656 0.321996 0
M  V30 66381 H 6468.68 -2.81235 1.96879 0
M  V30 66382 N 6471.12 -0.481999 -1.50048 0
M  V30 66383 C 6472.53 -0.0295295 -1.86677 0
M  V30 66384 C 6472.88 1.37869 -1.39594 0
M  V30 66385 O 6472.01 2.02405 -0.765588 0
M  V30 66386 C 6472.6 -0.0468112 -3.38768 0
M  V30 66387 C 6471.16 0.350233 -3.74767 0
M  V30 66388 C 6470.31 -0.427595 -2.73983 0
M  V30 66389 H 6473.26 -0.69574 -1.42636 0
M  V30 66390 H 6473.28 0.752889 -3.72977 0
M  V30 66391 H 6472.79 -1.07185 -3.73005 0
M  V30 66392 H 6470.89 1.37922 -3.46133 0
M  V30 66393 H 6471.01 0.0439942 -4.7908 0
M  V30 66394 H 6469.37 0.12013 -2.54417 0
M  V30 66395 H 6470.15 -1.45236 -3.11065 0
M  V30 66396 N 6472.6 1.56126 -0.21504 0
M  V30 66397 C 6474.01 1.84371 0.293993 0
M  V30 66398 C 6474.36 1.13627 1.59948 0
M  V30 66399 O 6473.49 0.403738 2.126 0
M  V30 66400 C 6474.08 3.34466 0.540193 0
M  V30 66401 C 6472.64 3.6305 0.993549 0
M  V30 66402 C 6471.79 2.77249 0.0530345 0
M  V30 66403 H 6474.74 1.52525 -0.438384 0
M  V30 66404 H 6474.76 3.54319 1.38703 0
M  V30 66405 H 6474.27 3.85927 -0.410128 0
M  V30 66406 H 6472.37 3.1704 1.95745 0
M  V30 66407 H 6472.49 4.71089 0.872463 0
M  V30 66408 H 6470.85 2.48498 0.55863 0
M  V30 66409 H 6471.63 3.31507 -0.892087 0
M  V30 66410 N 6474.08 -0.0584092 1.57492 0
M  V30 66411 C 6475.32 -0.760192 1.89738 0
M  V30 66412 C 6475.68 -1.7406 0.810372 0
M  V30 66413 O 6476.88 -2.48847 1.01629 0
M  V30 66414 C 6475.15 -1.43796 3.27196 0
M  V30 66415 S 6476.71 -2.17296 3.81219 0
M  V30 66416 H 6473.53 -0.252509 0.664651 0
M  V30 66417 H 6476.13 -0.015777 1.95494 0
M  V30 66418 H 6474.84 -0.710782 4.04198 0
M  V30 66419 H 6474.37 -2.22153 3.24671 0
M  V30 66420 H 6476.38 -3.4402 3.57582 0
M  V30 66421 N 6475.56 -1.54104 -0.330095 0
M  V30 66422 C 6476.97 -1.44668 -0.674038 0
M  V30 66423 C 6477.17 -0.614276 -1.91909 0
M  V30 66424 O 6476.23 -0.110516 -2.52258 0
M  V30 66425 C 6477.54 -2.88314 -0.854134 0
M  V30 66426 C 6479.09 -2.98174 -0.951893 0
M  V30 66427 C 6479.56 -4.42956 -1.16421 0
M  V30 66428 N 6481.06 -4.4654 -1.2311 0
M  V30 66429 C 6481.79 -5.55714 -1.41313 0
M  V30 66430 N 6481.29 -6.74868 -1.56603 0
M  V30 66431 N 6483.08 -5.4335 -1.43969 0
M  V30 66432 H 6475.23 -2.0671 0.488331 0
M  V30 66433 H 6477.49 -0.934971 0.156633 0
M  V30 66434 H 6477.2 -3.51698 -0.0105996 0
M  V30 66435 H 6477.07 -3.34048 -1.75191 0
M  V30 66436 H 6479.46 -2.34922 -1.78594 0
M  V30 66437 H 6479.54 -2.55782 -0.0307306 0
M  V30 66438 H 6479.19 -5.06794 -0.335041 0
M  V30 66439 H 6479.12 -4.82953 -2.09914 0
M  V30 66440 H 6481.61 -3.60683 -1.12765 0
M  V30 66441 H 6481.92 -7.53832 -1.70166 0
M  V30 66442 H 6480.26 -6.77789 -1.53713 0
M  V30 66443 H 6483.46 -4.49216 -1.31616 0
M  V30 66444 H 6483.63 -6.28489 -1.57814 0
M  V30 66445 N 6477.03 0.591819 -1.46066 0
M  V30 66446 C 6478.27 1.36149 -1.52456 0
M  V30 66447 C 6478.64 1.9126 -0.168434 0
M  V30 66448 O 6479.84 2.68587 -0.107058 0
M  V30 66449 C 6478.11 2.46727 -2.58574 0
M  V30 66450 S 6479.67 3.34241 -2.84303 0
M  V30 66451 H 6476.49 0.46397 -0.538751 0
M  V30 66452 H 6479.09 0.681294 -1.83245 0
M  V30 66453 H 6477.79 2.04616 -3.55753 0
M  V30 66454 H 6477.32 3.1953 -2.29487 0
M  V30 66455 H 6479.34 4.45315 -2.1888 0
M  V30 66456 N 6478.51 1.33619 0.835682 0
M  V30 66457 C 6479.45 1.18478 1.95034 0
M  V30 66458 C 6480.42 0.0794719 1.62406 0
M  V30 66459 O 6481.61 0.242295 1.86936 0
M  V30 66460 C 6478.73 0.817907 3.28676 0
M  V30 66461 C 6477.78 1.93116 3.80274 0
M  V30 66462 S 6478.61 3.54265 4.01568 0
M  V30 66463 C 6479.77 3.19591 5.38156 0
M  V30 66464 H 6480 2.12834 2.07579 0
M  V30 66465 H 6477.54 1.18498 0.989823 0
M  V30 66466 H 6479.49 0.613018 4.05897 0
M  V30 66467 H 6478.15 -0.107103 3.13917 0
M  V30 66468 H 6477.35 1.62791 4.76985 0
M  V30 66469 H 6476.95 2.09288 3.09959 0
M  V30 66470 H 6479.24 2.70614 6.21107 0
M  V30 66471 H 6480.18 4.15395 5.73457 0
M  V30 66472 H 6480.59 2.56105 5.03061 0
M  V30 66473 N 6479.99 -1.05432 1.1714 0
M  V30 66474 C 6480.94 -2.114 0.854059 0
M  V30 66475 C 6481.92 -1.59996 -0.170312 0
M  V30 66476 O 6483.12 -1.76971 0.0317724 0
M  V30 66477 C 6480.25 -3.41338 0.366465 0
M  V30 66478 C 6479.33 -3.99545 1.42212 0
M  V30 66479 N 6479.72 -4.31748 2.63491 0
M  V30 66480 C 6478.02 -4.27255 1.27941 0
M  V30 66481 C 6478.72 -4.78134 3.31304 0
M  V30 66482 N 6477.7 -4.78105 2.58682 0
M  V30 66483 H 6481.5 -2.34155 1.77619 0
M  V30 66484 H 6479.01 -1.23057 1.05975 0
M  V30 66485 H 6481.01 -4.16725 0.120682 0
M  V30 66486 H 6479.67 -3.20017 -0.54949 0
M  V30 66487 H 6480.68 -4.21823 3.00476 0
M  V30 66488 H 6477.36 -4.15332 0.42491 0
M  V30 66489 H 6478.75 -5.12183 4.34877 0
M  V30 66490 N 6481.47 -0.971254 -1.24115 0
M  V30 66491 C 6482.72 -0.633835 -1.91903 0
M  V30 66492 C 6483.04 0.834095 -1.76261 0
M  V30 66493 O 6482.31 1.59575 -1.13634 0
M  V30 66494 H 6480.89 -0.231438 -0.710243 0
M  V30 66495 H 6483.55 -1.23309 -1.50933 0
M  V30 66496 H 6482.65 -0.877516 -2.9951 0
M  V30 66497 N 6482.95 1.39051 -0.741796 0
M  V30 66498 C 6484.19 1.99977 -0.292147 0
M  V30 66499 C 6484.52 1.59165 1.12656 0
M  V30 66500 O 6483.79 0.84302 1.76833 0
M  V30 66501 H 6482.37 0.73958 -0.105026 0
M  V30 66502 H 6485.03 1.69997 -0.953267 0
M  V30 66503 H 6484.12 3.10177 -0.345919 0
M  V30 66504 N 6484.42 0.489949 1.49791 0
M  V30 66505 C 6485.37 -0.308169 2.3055 0
M  V30 66506 C 6486.37 -0.973045 1.38666 0
M  V30 66507 O 6487.57 -0.901996 1.55769 0
M  V30 66508 H 6483.95 -0.118233 0.742647 0
M  V30 66509 H 6485.92 0.393102 2.95799 0
M  V30 66510 C 6484.67 -1.36642 3.19725 0
M  V30 66511 H 6483.99 -0.864207 3.90348 0
M  V30 66512 H 6485.43 -1.89707 3.79193 0
M  V30 66513 C 6483.89 -2.37862 2.38586 0
M  V30 66514 O 6484.42 -3.43522 2.0822 0
M  V30 66515 N 6482.63 -2.10053 2.00814 0
M  V30 66516 H 6482.17 -1.2415 2.25709 0
M  V30 66517 H 6482.13 -2.78007 1.46831 0
M  V30 66518 N 6485.9 -1.5601 0.223316 0
M  V30 66519 C 6487.14 -2.00251 -0.409732 0
M  V30 66520 C 6487.51 -1.10772 -1.56823 0
M  V30 66521 O 6488.71 -1.44367 -2.26741 0
M  V30 66522 C 6486.98 -3.47591 -0.831566 0
M  V30 66523 S 6488.54 -4.13853 -1.45847 0
M  V30 66524 H 6485.36 -0.699021 -0.129963 0
M  V30 66525 H 6487.96 -1.92643 0.333019 0
M  V30 66526 H 6486.66 -4.10395 0.0212455 0
M  V30 66527 H 6486.19 -3.59077 -1.60709 0
M  V30 66528 H 6488.21 -4.13188 -2.74755 0
M  V30 66529 N 6487.38 0.0500562 -1.5752 0
M  V30 66530 C 6488.61 0.756271 -1.92261 0
M  V30 66531 C 6489.02 1.70526 -0.819596 0
M  V30 66532 O 6488.36 1.82445 0.214385 0
M  V30 66533 C 6488.42 1.58557 -3.22645 0
M  V30 66534 C 6488.09 0.803624 -4.49879 0
M  V30 66535 C 6489.08 0.113157 -5.19777 0
M  V30 66536 C 6486.77 0.764367 -4.9645 0
M  V30 66537 C 6488.76 -0.606099 -6.34512 0
M  V30 66538 C 6486.45 0.0413521 -6.11086 0
M  V30 66539 C 6487.45 -0.64266 -6.7997 0
M  V30 66540 O 6487.14 -1.35398 -7.92416 0
M  V30 66541 H 6486.87 0.218904 -0.639576 0
M  V30 66542 H 6489.42 0.0180069 -2.05392 0
M  V30 66543 H 6487.65 2.36715 -3.05782 0
M  V30 66544 H 6489.34 2.17245 -3.42869 0
M  V30 66545 H 6490.11 0.134652 -4.84813 0
M  V30 66546 H 6485.99 1.28625 -4.42692 0
M  V30 66547 H 6489.53 -1.14055 -6.88213 0
M  V30 66548 H 6485.43 0.0178602 -6.45498 0
M  V30 66549 H 6486.2 -1.26549 -8.08658 0
M  V30 66550 N 6488.86 1.54277 0.321918 0
M  V30 66551 C 6490.11 1.72561 1.05967 0
M  V30 66552 C 6490.43 0.500183 1.87959 0
M  V30 66553 O 6489.69 -0.518058 1.88718 0
M  V30 66554 C 6489.99 2.95436 2.01127 0
M  V30 66555 C 6489.65 4.30129 1.35278 0
M  V30 66556 C 6488.32 4.66747 1.1705 0
M  V30 66557 C 6490.67 5.13712 0.880291 0
M  V30 66558 C 6488 5.84546 0.502248 0
M  V30 66559 C 6490.35 6.32197 0.225857 0
M  V30 66560 C 6489.01 6.67493 0.0314428 0
M  V30 66561 H 6488.28 0.631445 0.38776 0
M  V30 66562 H 6490.93 1.88518 0.336642 0
M  V30 66563 H 6489.23 2.74173 2.79887 0
M  V30 66564 H 6490.93 3.06776 2.58243 0
M  V30 66565 H 6487.52 4.0132 1.50467 0
M  V30 66566 H 6491.71 4.85937 1.0089 0
M  V30 66567 H 6486.96 6.10451 0.340438 0
M  V30 66568 H 6491.14 6.96242 -0.148249 0
M  V30 66569 H 6488.76 7.5863 -0.488392 0
M  V30 66570 N 6490.34 -0.584065 1.46378 0
M  V30 66571 C 6491.61 -1.3442 1.42094 0
M  V30 66572 C 6491.99 -2.10845 0.103697 0
M  V30 66573 O 6491.34 -2.09393 -0.914714 0
M  V30 66574 C 6491.55 -2.27134 2.64974 0
M  V30 66575 C 6492.9 -2.89005 3.11064 0
M  V30 66576 O 6493.92 -2.37447 2.65513 0
M  V30 66577 O 6492.78 -3.8265 3.90181 0
M  V30 66578 H 6489.88 -0.603898 0.56501 0
M  V30 66579 H 6492.42 -0.605195 1.58542 0
M  V30 66580 H 6491.2 -1.7008 3.52404 0
M  V30 66581 H 6490.82 -3.08376 2.50978 0
M  V30 66582 N 6491.82 -1.34061 -0.828584 0
M  V30 66583 C 6492.73 -1.27229 -1.97104 0
M  V30 66584 C 6493.74 -0.180977 -1.73056 0
M  V30 66585 O 6494.92 -0.406431 -1.97256 0
M  V30 66586 C 6491.98 -1.02191 -3.31297 0
M  V30 66587 C 6491.04 -2.20423 -3.68391 0
M  V30 66588 C 6490.28 -1.96571 -4.96181 0
M  V30 66589 O 6490.5 -0.921129 -5.62913 0
M  V30 66590 O 6489.43 -2.83375 -5.3102 0
M  V30 66591 H 6493.26 -2.23329 -2.0581 0
M  V30 66592 H 6490.84 -1.1421 -0.963144 0
M  V30 66593 H 6492.73 -0.899863 -4.1168 0
M  V30 66594 H 6491.4 -0.0912662 -3.23571 0
M  V30 66595 H 6490.31 -2.38186 -2.88476 0
M  V30 66596 H 6491.64 -3.11858 -3.80796 0
M  V30 66597 N 6493.29 1.0481 -1.17698 0
M  V30 66598 C 6494.52 1.81547 -0.992394 0
M  V30 66599 C 6494.94 1.83128 0.459311 0
M  V30 66600 O 6494.29 1.26131 1.31898 0
M  V30 66601 C 6494.34 3.27489 -1.53079 0
M  V30 66602 O 6494.07 3.26094 -2.92565 0
M  V30 66603 C 6495.57 4.209 -1.39134 0
M  V30 66604 H 6492.79 0.571955 -0.350869 0
M  V30 66605 H 6495.33 1.3214 -1.56075 0
M  V30 66606 H 6493.49 3.74154 -1.00437 0
M  V30 66607 H 6493.9 4.17465 -3.17527 0
M  V30 66608 H 6495.37 5.21268 -1.81613 0
M  V30 66609 H 6495.85 4.3789 -0.338965 0
M  V30 66610 H 6496.46 3.80094 -1.90811 0
M  V30 66611 N 6494.77 0.977823 1.23598 0
M  V30 66612 C 6496.05 0.561779 1.87359 0
M  V30 66613 C 6496.43 -0.9611 1.87952 0
M  V30 66614 O 6495.78 -1.83673 1.35928 0
M  V30 66615 C 6495.99 1.16489 3.28985 0
M  V30 66616 C 6497.33 1.25604 4.05597 0
M  V30 66617 O 6498.36 1.11816 3.38195 0
M  V30 66618 O 6497.22 1.47512 5.26215 0
M  V30 66619 H 6494.31 0.188788 0.805163 0
M  V30 66620 H 6496.86 1.07274 1.31493 0
M  V30 66621 H 6495.63 2.20722 3.23106 0
M  V30 66622 H 6495.25 0.638595 3.92438 0
M  V30 66623 N 6496.25 -1.38656 0.749159 0
M  V30 66624 C 6497.18 -2.33116 0.133879 0
M  V30 66625 C 6498.16 -1.54641 -0.708529 0
M  V30 66626 O 6499.35 -1.82977 -0.65062 0
M  V30 66627 C 6496.48 -3.38805 -0.763444 0
M  V30 66628 C 6495.43 -4.27993 -0.0241073 0
M  V30 66629 C 6494.76 -5.24501 -1.03939 0
M  V30 66630 C 6496.06 -5.09669 1.14169 0
M  V30 66631 H 6497.75 -2.84819 0.922942 0
M  V30 66632 H 6495.3 -1.36943 0.44527 0
M  V30 66633 H 6497.25 -4.03848 -1.20352 0
M  V30 66634 H 6495.97 -2.85574 -1.58478 0
M  V30 66635 H 6494.63 -3.6445 0.396498 0
M  V30 66636 H 6494.28 -4.67559 -1.85467 0
M  V30 66637 H 6493.98 -5.85026 -0.549382 0
M  V30 66638 H 6495.5 -5.9242 -1.47887 0
M  V30 66639 H 6496.92 -5.67978 0.779374 0
M  V30 66640 H 6495.31 -5.79408 1.56226 0
M  V30 66641 H 6496.38 -4.43668 1.9567 0
M  V30 66642 N 6497.73 -0.497886 -1.49529 0
M  V30 66643 C 6499.14 -0.0493274 -1.86635 0
M  V30 66644 C 6499.49 1.36381 -1.41048 0
M  V30 66645 O 6498.61 2.01581 -0.787013 0
M  V30 66646 C 6499.21 -0.0827394 -3.38699 0
M  V30 66647 C 6497.77 0.310464 -3.75117 0
M  V30 66648 C 6496.92 -0.456631 -2.73514 0
M  V30 66649 H 6499.87 -0.710829 -1.4189 0
M  V30 66650 H 6499.89 0.713288 -3.73755 0
M  V30 66651 H 6499.4 -1.11136 -3.71847 0
M  V30 66652 H 6497.5 1.34243 -3.47577 0
M  V30 66653 H 6497.61 -0.00682113 -4.791 0
M  V30 66654 H 6495.98 0.093139 -2.5453 0
M  V30 66655 H 6496.76 -1.48527 -3.09507 0
M  V30 66656 N 6499.21 1.55889 -0.231587 0
M  V30 66657 C 6500.15 2.20728 0.674383 0
M  V30 66658 C 6501.12 1.16611 1.18284 0
M  V30 66659 O 6502.31 1.45003 1.24011 0
M  V30 66660 C 6499.45 2.89883 1.87249 0
M  V30 66661 C 6498.56 4.08617 1.40199 0
M  V30 66662 C 6497.7 4.65529 2.55845 0
M  V30 66663 C 6496.73 5.76544 2.05581 0
M  V30 66664 N 6495.87 6.27703 3.14536 0
M  V30 66665 H 6500.71 2.97779 0.114761 0
M  V30 66666 H 6498.25 1.47031 0.0448879 0
M  V30 66667 H 6500.21 3.28168 2.57608 0
M  V30 66668 H 6498.84 2.15332 2.40483 0
M  V30 66669 H 6497.89 3.7575 0.592974 0
M  V30 66670 H 6499.2 4.88806 0.993504 0
M  V30 66671 H 6498.35 5.06308 3.3427 0
M  V30 66672 H 6497.09 3.84524 2.99987 0
M  V30 66673 H 6496.1 5.35257 1.2562 0
M  V30 66674 H 6497.32 6.5939 1.62426 0
M  V30 66675 H 6495.27 5.49609 3.58142 0
M  V30 66676 H 6495.19 7.03042 2.77971 0
M  V30 66677 H 6496.45 6.73141 3.93067 0
M  V30 66678 N 6500.68 -0.0417018 1.57545 0
M  V30 66679 C 6501.92 -0.740025 1.90533 0
M  V30 66680 C 6502.29 -1.73191 0.828788 0
M  V30 66681 O 6503.49 -2.47755 1.04263 0
M  V30 66682 C 6501.76 -1.40317 3.28703 0
M  V30 66683 S 6503.32 -2.1324 3.83502 0
M  V30 66684 H 6500.14 -0.245445 0.667291 0
M  V30 66685 H 6502.74 0.00495864 1.95499 0
M  V30 66686 H 6501.44 -0.667871 4.04929 0
M  V30 66687 H 6500.97 -2.18697 3.27009 0
M  V30 66688 H 6502.99 -3.40208 3.61211 0
M  V30 66689 N 6502.16 -1.54446 -0.313732 0
M  V30 66690 C 6503.11 -1.84514 -1.38647 0
M  V30 66691 C 6504.08 -0.69301 -1.50952 0
M  V30 66692 O 6505.26 -0.940402 -1.66015 0
M  V30 66693 C 6502.4 -2.08682 -2.74856 0
M  V30 66694 C 6501.52 -3.36344 -2.71103 0
M  V30 66695 C 6500.65 -3.5042 -3.99223 0
M  V30 66696 C 6499.69 -4.71921 -3.89817 0
M  V30 66697 N 6498.83 -4.82871 -5.09686 0
M  V30 66698 H 6503.67 -2.76028 -1.12305 0
M  V30 66699 H 6501.2 -1.36693 -0.543448 0
M  V30 66700 H 6503.16 -2.20687 -3.54052 0
M  V30 66701 H 6501.79 -1.20449 -2.99486 0
M  V30 66702 H 6500.84 -3.33025 -1.83843 0
M  V30 66703 H 6502.16 -4.25654 -2.60039 0
M  V30 66704 H 6501.31 -3.62021 -4.86853 0
M  V30 66705 H 6500.05 -2.5922 -4.13106 0
M  V30 66706 H 6499.05 -4.60366 -3.00571 0
M  V30 66707 H 6500.28 -5.64516 -3.7749 0
M  V30 66708 H 6498.23 -3.9459 -5.24056 0
M  V30 66709 H 6498.14 -5.66163 -5.00995 0
M  V30 66710 H 6499.41 -4.98815 -5.99003 0
M  V30 66711 N 6503.64 0.576294 -1.46685 0
M  V30 66712 C 6504.88 1.34525 -1.53891 0
M  V30 66713 C 6505.24 1.9107 -0.18871 0
M  V30 66714 O 6506.45 2.68458 -0.13554 0
M  V30 66715 C 6504.72 2.43971 -2.61176 0
M  V30 66716 S 6506.28 3.31207 -2.87832 0
M  V30 66717 H 6503.09 0.45823 -0.543642 0
M  V30 66718 H 6505.7 0.66182 -1.83957 0
M  V30 66719 H 6504.4 2.00832 -3.57903 0
M  V30 66720 H 6503.93 3.17078 -2.32863 0
M  V30 66721 H 6505.95 4.42969 -2.23591 0
M  V30 66722 N 6505.12 1.34498 0.821463 0
M  V30 66723 C 6506.53 1.24157 1.39435 0
M  V30 66724 C 6506.88 -0.132331 1.95753 0
M  V30 66725 O 6506.01 -1.03272 1.90168 0
M  V30 66726 C 6506.6 2.24797 2.53479 0
M  V30 66727 C 6505.16 2.18242 3.06671 0
M  V30 66728 C 6504.31 2.11322 1.79551 0
M  V30 66729 H 6507.26 1.45843 0.625737 0
M  V30 66730 H 6507.28 1.86582 3.31614 0
M  V30 66731 H 6506.79 3.24781 2.12459 0
M  V30 66732 H 6504.89 1.2162 3.52192 0
M  V30 66733 H 6505 3.0956 3.65663 0
M  V30 66734 H 6503.37 1.57065 2.00506 0
M  V30 66735 H 6504.15 3.13141 1.40703 0
M  V30 66736 N 6506.6 -1.04184 1.18252 0
M  V30 66737 C 6507.82 -1.81556 1.00261 0
M  V30 66738 C 6508.25 -1.82778 -0.444271 0
M  V30 66739 O 6507.6 -1.24422 -1.31867 0
M  V30 66740 C 6507.65 -3.25083 1.56055 0
M  V30 66741 O 6506.76 -4.04935 0.781114 0
M  V30 66742 H 6506.1 -0.560964 0.355268 0
M  V30 66743 H 6508.63 -1.31217 1.56981 0
M  V30 66744 H 6508.64 -3.75863 1.58717 0
M  V30 66745 H 6507.31 -3.23508 2.61372 0
M  V30 66746 H 6505.89 -3.6362 0.826721 0
M  V30 66747 N 6508.07 -0.984364 -1.23077 0
M  V30 66748 C 6509.32 -0.654154 -1.9122 0
M  V30 66749 C 6509.64 0.815353 -1.77136 0
M  V30 66750 O 6508.91 1.58361 -1.1532 0
M  V30 66751 H 6507.49 -0.238959 -0.707748 0
M  V30 66752 H 6510.16 -1.24903 -1.49617 0
M  V30 66753 H 6509.25 -0.909233 -2.98562 0
M  V30 66754 N 6509.55 1.38256 -0.756502 0
M  V30 66755 C 6510.78 2.04037 -0.3244 0
M  V30 66756 C 6511.19 1.57179 1.05315 0
M  V30 66757 O 6510.53 0.741445 1.68072 0
M  V30 66758 C 6510.6 3.58471 -0.271777 0
M  V30 66759 C 6510.26 4.28398 -1.59136 0
M  V30 66760 C 6511.26 4.5357 -2.54108 0
M  V30 66761 C 6508.94 4.6653 -1.8616 0
M  V30 66762 C 6510.94 5.1591 -3.7432 0
M  V30 66763 C 6508.62 5.28594 -3.06646 0
M  V30 66764 C 6509.62 5.53219 -4.00546 0
M  V30 66765 O 6509.31 6.13991 -5.18913 0
M  V30 66766 H 6509.04 0.662164 -0.136069 0
M  V30 66767 H 6511.59 1.77874 -1.02713 0
M  V30 66768 H 6509.82 3.83618 0.487217 0
M  V30 66769 H 6511.51 4.05688 0.131202 0
M  V30 66770 H 6512.28 4.24537 -2.34507 0
M  V30 66771 H 6508.16 4.46706 -1.13906 0
M  V30 66772 H 6511.7 5.35047 -4.47627 0
M  V30 66773 H 6507.6 5.57049 -3.26138 0
M  V30 66774 H 6508.37 6.32477 -5.19534 0
M  V30 66775 N 6511.03 0.505809 1.49263 0
M  V30 66776 C 6512.26 -0.0336673 2.06873 0
M  V30 66777 C 6512.67 -1.30379 1.36553 0
M  V30 66778 O 6512.03 -1.76982 0.445362 0
M  V30 66779 C 6512.08 -0.286272 3.60365 0
M  V30 66780 O 6511.8 0.933507 4.28039 0
M  V30 66781 C 6513.3 -0.86885 4.34702 0
M  V30 66782 H 6510.52 0.0226265 0.670618 0
M  V30 66783 H 6513.07 0.704543 1.9198 0
M  V30 66784 H 6511.22 -0.974473 3.74944 0
M  V30 66785 H 6511.64 0.69931 5.19817 0
M  V30 66786 H 6513.11 -0.995156 5.42955 0
M  V30 66787 H 6513.59 -1.86784 3.97503 0
M  V30 66788 H 6514.19 -0.217969 4.24741 0
M  V30 66789 N 6512.51 -1.55764 0.239851 0
M  V30 66790 C 6513.76 -1.98378 -0.386082 0
M  V30 66791 C 6514.08 -1.12917 -1.5898 0
M  V30 66792 O 6513.35 -0.210342 -1.94767 0
M  V30 66793 H 6511.93 -0.732666 -0.145635 0
M  V30 66794 H 6514.59 -1.91964 0.337001 0
M  V30 66795 H 6513.69 -3.04148 -0.700016 0
M  V30 66796 N 6513.99 0.0333462 -1.57565 0
M  V30 66797 C 6514.93 1.03529 -2.06277 0
M  V30 66798 C 6515.9 1.36178 -0.951037 0
M  V30 66799 O 6517.09 1.46589 -1.22132 0
M  V30 66800 C 6514.23 2.33247 -2.54342 0
M  V30 66801 C 6513.34 2.06793 -3.79289 0
M  V30 66802 C 6512.48 3.30351 -4.15983 0
M  V30 66803 C 6511.52 2.99433 -5.3386 0
M  V30 66804 N 6510.65 4.15429 -5.66006 0
M  V30 66805 H 6515.49 0.612932 -2.91628 0
M  V30 66806 H 6513.03 0.291032 -1.44192 0
M  V30 66807 H 6514.99 3.09034 -2.80275 0
M  V30 66808 H 6513.62 2.73213 -1.71914 0
M  V30 66809 H 6512.67 1.21523 -3.60467 0
M  V30 66810 H 6513.98 1.79983 -4.65196 0
M  V30 66811 H 6513.14 4.14508 -4.43021 0
M  V30 66812 H 6511.87 3.60271 -3.28719 0
M  V30 66813 H 6510.88 2.13677 -5.06579 0
M  V30 66814 H 6512.1 2.70795 -6.22773 0
M  V30 66815 H 6510.05 4.45309 -4.81701 0
M  V30 66816 H 6509.97 3.92028 -6.46413 0
M  V30 66817 H 6511.24 5.00473 -5.97618 0
M  V30 66818 N 6515.46 1.5461 0.305537 0
M  V30 66819 C 6516.69 1.77404 1.05884 0
M  V30 66820 C 6517.1 0.531391 1.81584 0
M  V30 66821 O 6516.45 -0.508209 1.7653 0
M  V30 66822 C 6516.51 2.92568 2.08913 0
M  V30 66823 C 6516.17 4.30823 1.52448 0
M  V30 66824 C 6517.17 5.11019 0.95687 0
M  V30 66825 C 6514.85 4.77413 1.56148 0
M  V30 66826 C 6516.85 6.35922 0.433759 0
M  V30 66827 C 6514.53 6.0228 1.0345 0
M  V30 66828 C 6515.53 6.8137 0.471605 0
M  V30 66829 O 6515.22 8.03886 -0.0473976 0
M  V30 66830 H 6514.95 0.595467 0.319993 0
M  V30 66831 H 6517.51 2.02366 0.351759 0
M  V30 66832 H 6515.74 2.63219 2.83289 0
M  V30 66833 H 6517.43 3.02979 2.70108 0
M  V30 66834 H 6518.19 4.76171 0.921223 0
M  V30 66835 H 6514.07 4.15884 1.989 0
M  V30 66836 H 6517.61 6.976 -0.00625041 0
M  V30 66837 H 6513.51 6.36616 1.06728 0
M  V30 66838 H 6514.28 8.18473 0.0663306 0
M  V30 66839 N 6516.94 -0.568506 1.46989 0
M  V30 66840 C 6518.18 -1.33707 1.54602 0
M  V30 66841 C 6518.55 -1.90968 0.19884 0
M  V30 66842 O 6519.75 -2.68382 0.149775 0
M  V30 66843 C 6518.02 -2.42582 2.62466 0
M  V30 66844 S 6519.58 -3.29676 2.89585 0
M  V30 66845 H 6516.4 -0.45534 0.546064 0
M  V30 66846 H 6519 -0.652055 1.84305 0
M  V30 66847 H 6517.7 -1.98931 3.58963 0
M  V30 66848 H 6517.23 -3.15838 2.34542 0
M  V30 66849 H 6519.25 -4.41777 2.25937 0
M  V30 66850 N 6518.42 -1.34932 -0.814318 0
M  V30 66851 C 6519.33 -1.29312 -1.95744 0
M  V30 66852 C 6520.35 -0.199322 -1.72855 0
M  V30 66853 O 6521.52 -0.42733 -1.96814 0
M  V30 66854 C 6518.59 -1.05699 -3.30195 0
M  V30 66855 C 6517.65 -2.24318 -3.66033 0
M  V30 66856 C 6516.88 -2.01823 -4.94068 0
M  V30 66857 O 6517.11 -0.980781 -5.61905 0
M  V30 66858 O 6516.04 -2.88991 -5.27984 0
M  V30 66859 H 6519.87 -2.25499 -2.0343 0
M  V30 66860 H 6517.45 -1.15225 -0.950977 0
M  V30 66861 H 6519.33 -0.943477 -4.10702 0
M  V30 66862 H 6518.01 -0.12558 -3.23456 0
M  V30 66863 H 6516.91 -2.41232 -2.85933 0
M  V30 66864 H 6518.25 -3.1588 -3.77466 0
M  V30 66865 N 6519.9 1.03555 -1.18803 0
M  V30 66866 C 6520.83 2.11249 -0.863074 0
M  V30 66867 C 6521.81 1.61633 0.177107 0
M  V30 66868 O 6522.99 1.8842 0.0549187 0
M  V30 66869 C 6520.12 3.37452 -0.290455 0
M  V30 66870 C 6519.17 4.05927 -1.30863 0
M  V30 66871 S 6520 4.52317 -2.86652 0
M  V30 66872 C 6521.16 5.81746 -2.30915 0
M  V30 66873 H 6521.39 2.38488 -1.77513 0
M  V30 66874 H 6518.92 1.16398 -1.01444 0
M  V30 66875 H 6520.88 4.10486 0.033409 0
M  V30 66876 H 6519.54 3.0832 0.599801 0
M  V30 66877 H 6518.73 4.96661 -0.856957 0
M  V30 66878 H 6518.34 3.39034 -1.579 0
M  V30 66879 H 6520.63 6.55956 -1.69494 0
M  V30 66880 H 6521.57 6.31684 -3.1997 0
M  V30 66881 H 6521.98 5.37097 -1.73743 0
M  V30 66882 N 6521.38 0.990877 1.22554 0
M  V30 66883 C 6522.34 0.544631 2.22635 0
M  V30 66884 C 6523.34 -0.371412 1.56452 0
M  V30 66885 O 6524.53 -0.16365 1.7343 0
M  V30 66886 C 6521.66 -0.2081 3.40264 0
M  V30 66887 H 6522.86 1.42968 2.63629 0
M  V30 66888 H 6520.41 0.777868 1.35569 0
M  V30 66889 H 6521.14 -1.10922 3.0474 0
M  V30 66890 H 6520.93 0.449601 3.89514 0
M  V30 66891 H 6522.42 -0.508551 4.14492 0
M  V30 66892 N 6522.86 -1.37853 0.763824 0
M  V30 66893 C 6524.1 -1.99882 0.324566 0
M  V30 66894 C 6524.43 -1.60635 -1.09667 0
M  V30 66895 O 6523.69 -0.840233 -1.76744 0
M  V30 66896 C 6523.98 -3.55081 0.406462 0
M  V30 66897 C 6523.65 -4.14072 1.78481 0
M  V30 66898 C 6522.31 -4.29897 2.162 0
M  V30 66899 C 6524.66 -4.46508 2.6885 0
M  V30 66900 C 6521.99 -4.75458 3.4374 0
M  V30 66901 C 6524.34 -4.9349 3.95791 0
M  V30 66902 C 6523.01 -5.07521 4.33565 0
M  V30 66903 H 6522.28 -0.73142 0.118767 0
M  V30 66904 H 6524.93 -1.64744 0.976303 0
M  V30 66905 H 6523.23 -3.90418 -0.328827 0
M  V30 66906 H 6524.93 -4.00971 0.0480144 0
M  V30 66907 H 6521.52 -4.02176 1.48163 0
M  V30 66908 H 6525.7 -4.33874 2.40971 0
M  V30 66909 H 6520.96 -4.84507 3.72912 0
M  V30 66910 H 6525.13 -5.17556 4.65949 0
M  V30 66911 H 6522.76 -5.42585 5.32453 0
M  V30 66912 N 6524.33 -0.513718 -1.48992 0
M  V30 66913 C 6525.56 0.0248246 -2.07385 0
M  V30 66914 C 6525.98 1.28899 -1.36992 0
M  V30 66915 O 6525.34 1.76111 -0.430649 0
M  V30 66916 C 6525.39 0.248508 -3.59743 0
M  V30 66917 O 6524.49 1.32062 -3.90683 0
M  V30 66918 H 6523.83 -0.0318798 -0.663234 0
M  V30 66919 H 6526.36 -0.71698 -1.91626 0
M  V30 66920 H 6526.37 0.476149 -4.05212 0
M  V30 66921 H 6525.05 -0.675043 -4.10385 0
M  V30 66922 H 6523.63 1.07692 -3.57011 0
M  V30 66923 N 6525.81 1.55635 -0.248108 0
M  V30 66924 C 6526.76 2.21431 0.650934 0
M  V30 66925 C 6527.73 1.17859 1.1704 0
M  V30 66926 O 6528.91 1.46311 1.22466 0
M  V30 66927 C 6526.05 2.91852 1.84163 0
M  V30 66928 C 6525.17 4.10081 1.35857 0
M  V30 66929 C 6524.3 4.68216 2.50893 0
M  V30 66930 C 6523.34 5.78692 1.99454 0
M  V30 66931 N 6522.48 6.31004 3.07861 0
M  V30 66932 H 6527.32 2.97884 0.0831711 0
M  V30 66933 H 6524.85 1.47071 0.0292907 0
M  V30 66934 H 6526.81 3.30882 2.54113 0
M  V30 66935 H 6525.44 2.17871 2.38185 0
M  V30 66936 H 6524.49 3.76358 0.553087 0
M  V30 66937 H 6525.81 4.89832 0.941604 0
M  V30 66938 H 6524.96 5.09825 3.28881 0
M  V30 66939 H 6523.7 3.87685 2.95892 0
M  V30 66940 H 6522.7 5.36559 1.19936 0
M  V30 66941 H 6523.93 6.61075 1.55423 0
M  V30 66942 H 6521.88 5.53377 3.52292 0
M  V30 66943 H 6521.79 7.05951 2.70499 0
M  V30 66944 H 6523.06 6.77272 3.85906 0
M  V30 66945 N 6527.29 -0.0249897 1.5758 0
M  V30 66946 C 6528.54 -0.713567 1.89084 0
M  V30 66947 C 6528.86 -1.75677 0.84632 0
M  V30 66948 O 6528.13 -1.95535 -0.119544 0
M  V30 66949 H 6526.71 -0.266541 0.697829 0
M  V30 66950 H 6529.37 0.0100235 1.94897 0
M  V30 66951 H 6528.47 -1.20057 2.88084 0
M  V30 66952 N 6528.77 -1.5477 -0.297333 0
M  V30 66953 C 6530.02 -1.73434 -1.02974 0
M  V30 66954 C 6530.33 -0.529255 -1.88304 0
M  V30 66955 O 6531.54 -0.59778 -2.64837 0
M  V30 66956 C 6529.99 -3.06861 -1.88054 0
M  V30 66957 C 6529.6 -4.34859 -1.07709 0
M  V30 66958 C 6531.34 -3.34882 -2.60872 0
M  V30 66959 C 6529.25 -5.59336 -1.92087 0
M  V30 66960 H 6528.18 -0.646402 -0.388176 0
M  V30 66961 H 6530.83 -1.81249 -0.286552 0
M  V30 66962 H 6529.21 -2.9302 -2.66374 0
M  V30 66963 H 6530.39 -4.59546 -0.339765 0
M  V30 66964 H 6528.7 -4.138 -0.464569 0
M  V30 66965 H 6531.3 -4.25083 -3.24359 0
M  V30 66966 H 6531.64 -2.53922 -3.29893 0
M  V30 66967 H 6532.18 -3.49711 -1.89598 0
M  V30 66968 H 6528.91 -6.42975 -1.27529 0
M  V30 66969 H 6528.43 -5.38829 -2.63482 0
M  V30 66970 H 6530.11 -5.96729 -2.50046 0
M  V30 66971 N 6530.25 0.560703 -1.47288 0
M  V30 66972 C 6531.47 1.34835 -1.57589 0
M  V30 66973 C 6531.9 1.86746 -0.225276 0
M  V30 66974 O 6531.25 1.62779 0.798289 0
M  V30 66975 C 6531.3 2.49662 -2.60194 0
M  V30 66976 O 6530.41 3.51785 -2.15223 0
M  V30 66977 H 6529.75 0.40065 -0.529505 0
M  V30 66978 H 6532.28 0.677962 -1.93041 0
M  V30 66979 H 6532.29 2.9628 -2.80503 0
M  V30 66980 H 6530.96 2.11235 -3.58263 0
M  V30 66981 H 6529.54 3.11497 -2.04998 0
M  V30 66982 N 6531.72 1.35362 0.807151 0
M  V30 66983 C 6533.13 1.25629 1.3811 0
M  V30 66984 C 6533.49 -0.111561 1.95883 0
M  V30 66985 O 6532.61 -1.01249 1.91252 0
M  V30 66986 C 6533.21 2.27473 2.5108 0
M  V30 66987 C 6531.76 2.21483 3.04339 0
M  V30 66988 C 6530.91 2.13214 1.77299 0
M  V30 66989 H 6533.86 1.46499 0.610234 0
M  V30 66990 H 6533.88 1.90088 3.29616 0
M  V30 66991 H 6533.4 3.27016 2.09002 0
M  V30 66992 H 6531.5 1.25349 3.50882 0
M  V30 66993 H 6531.61 3.13421 3.62359 0
M  V30 66994 H 6529.97 1.59183 1.98829 0
M  V30 66995 H 6530.76 3.14616 1.37374 0
M  V30 66996 N 6533.2 -1.02924 1.1935 0
M  V30 66997 C 6534.45 -1.75969 0.993943 0
M  V30 66998 C 6534.77 -1.8909 -0.476456 0
M  V30 66999 O 6534.04 -1.42422 -1.3451 0
M  V30 67000 H 6532.62 -0.65188 0.364776 0
M  V30 67001 H 6535.28 -1.24156 1.50237 0
M  V30 67002 H 6534.38 -2.76807 1.44167 0
M  V30 67003 N 6534.68 -0.997362 -1.22026 0
M  V30 67004 C 6535.91 -0.694315 -1.94902 0
M  V30 67005 C 6536.32 0.741788 -1.73617 0
M  V30 67006 O 6535.68 1.50105 -1.03802 0
M  V30 67007 C 6535.73 -0.996319 -3.47499 0
M  V30 67008 O 6535.45 -2.376 -3.68073 0
M  V30 67009 C 6536.95 -0.7116 -4.37551 0
M  V30 67010 H 6534.17 -0.256484 -0.620046 0
M  V30 67011 H 6536.72 -1.33334 -1.55056 0
M  V30 67012 H 6534.87 -0.403021 -3.85298 0
M  V30 67013 H 6535.29 -2.4787 -4.62234 0
M  V30 67014 H 6536.76 -0.973147 -5.43354 0
M  V30 67015 H 6537.24 0.354396 -4.37768 0
M  V30 67016 H 6537.84 -1.28615 -4.05386 0
M  V30 67017 N 6536.16 1.37446 -0.771123 0
M  V30 67018 C 6537.39 2.03977 -0.346525 0
M  V30 67019 C 6537.8 1.58159 1.03107 0
M  V30 67020 O 6537.16 0.76257 1.65804 0
M  V30 67021 C 6537.21 3.59499 -0.379875 0
M  V30 67022 O 6536.93 4.0364 -1.70312 0
M  V30 67023 C 6538.43 4.43264 0.0563986 0
M  V30 67024 H 6535.65 0.655078 -0.145304 0
M  V30 67025 H 6538.2 1.75792 -1.04487 0
M  V30 67026 H 6536.35 3.86459 0.269887 0
M  V30 67027 H 6536.76 4.98157 -1.64132 0
M  V30 67028 H 6538.24 5.51997 -0.0180902 0
M  V30 67029 H 6538.72 4.25028 1.10668 0
M  V30 67030 H 6539.32 4.21528 -0.565151 0
M  V30 67031 N 6537.64 0.521612 1.48718 0
M  V30 67032 C 6538.6 -0.234898 2.27993 0
M  V30 67033 C 6539.6 -0.875385 1.34884 0
M  V30 67034 O 6540.79 -0.736729 1.57854 0
M  V30 67035 C 6537.92 -1.33903 3.13501 0
M  V30 67036 H 6539.11 0.461011 2.96335 0
M  V30 67037 H 6536.67 0.27726 1.53821 0
M  V30 67038 H 6537.4 -2.06846 2.49771 0
M  V30 67039 H 6537.19 -0.884989 3.81982 0
M  V30 67040 H 6538.68 -1.87137 3.73322 0
M  V30 67041 N 6539.11 -1.55501 0.256358 0
M  V30 67042 C 6540.36 -1.99465 -0.366284 0
M  V30 67043 C 6540.69 -1.14441 -1.56898 0
M  V30 67044 O 6539.97 -0.210012 -1.93363 0
M  V30 67045 C 6540.25 -3.51839 -0.766892 0
M  V30 67046 C 6540.1 -4.47625 0.441844 0
M  V30 67047 C 6541.42 -4.09579 -1.61037 0
M  V30 67048 H 6538.54 -0.725144 -0.131662 0
M  V30 67049 H 6541.18 -1.86567 0.359559 0
M  V30 67050 H 6539.33 -3.62961 -1.38533 0
M  V30 67051 H 6541.01 -4.48471 1.08034 0
M  V30 67052 H 6539.25 -4.20057 1.08328 0
M  V30 67053 H 6539.92 -5.51874 0.118063 0
M  V30 67054 H 6542.4 -4.01617 -1.08824 0
M  V30 67055 H 6541.27 -5.16443 -1.85951 0
M  V30 67056 H 6541.53 -3.58628 -2.58532 0
M  V30 67057 N 6540.59 0.0166325 -1.57591 0
M  V30 67058 C 6541.56 0.998084 -2.06327 0
M  V30 67059 C 6542.56 1.28278 -0.969606 0
M  V30 67060 O 6543.75 1.23074 -1.23282 0
M  V30 67061 C 6540.88 2.32758 -2.49071 0
M  V30 67062 H 6542.07 0.57685 -2.943 0
M  V30 67063 H 6539.62 0.263745 -1.54059 0
M  V30 67064 H 6540.36 2.79604 -1.64292 0
M  V30 67065 H 6540.14 2.1342 -3.28929 0
M  V30 67066 H 6541.63 3.03197 -2.87161 0
M  V30 67067 N 6542.07 1.54925 0.289121 0
M  V30 67068 C 6543.32 1.75029 1.02434 0
M  V30 67069 C 6543.65 0.540972 1.86513 0
M  V30 67070 O 6542.92 -0.461767 1.88939 0
M  V30 67071 C 6543.21 3.04618 1.92042 0
M  V30 67072 C 6543.06 4.35873 1.11063 0
M  V30 67073 C 6544.38 3.30144 2.91021 0
M  V30 67074 H 6541.5 0.636819 0.370986 0
M  V30 67075 H 6544.14 1.87648 0.29801 0
M  V30 67076 H 6542.29 2.9399 2.53972 0
M  V30 67077 H 6543.96 4.58436 0.513273 0
M  V30 67078 H 6542.21 4.31823 0.413639 0
M  V30 67079 H 6542.88 5.22839 1.77042 0
M  V30 67080 H 6545.35 3.40459 2.39221 0
M  V30 67081 H 6544.23 4.22112 3.50874 0
M  V30 67082 H 6544.49 2.49007 3.65305 0
M  V30 67083 N 6543.55 -0.552884 1.47584 0
M  V30 67084 C 6544.48 -1.66923 1.63276 0
M  V30 67085 C 6545.46 -1.63125 0.482092 0
M  V30 67086 O 6546.64 -1.80679 0.711943 0
M  V30 67087 C 6543.77 -3.05555 1.65087 0
M  V30 67088 C 6542.73 -3.24201 2.79424 0
M  V30 67089 C 6542.05 -4.63662 2.6631 0
M  V30 67090 C 6543.35 -3.09161 4.20971 0
M  V30 67091 H 6545.05 -1.54046 2.5673 0
M  V30 67092 H 6542.59 -0.739665 1.23551 0
M  V30 67093 H 6544.55 -3.83501 1.74656 0
M  V30 67094 H 6543.27 -3.19401 0.681965 0
M  V30 67095 H 6541.93 -2.48663 2.69374 0
M  V30 67096 H 6541.58 -4.74314 1.67438 0
M  V30 67097 H 6541.28 -4.77087 3.43019 0
M  V30 67098 H 6542.8 -5.43739 2.77814 0
M  V30 67099 H 6544.22 -3.76921 4.31976 0
M  V30 67100 H 6542.61 -3.34092 4.985 0
M  V30 67101 H 6543.68 -2.05854 4.39036 0
M  V30 67102 N 6545.03 -1.35788 -0.799961 0
M  V30 67103 C 6545.96 -1.31923 -1.92662 0
M  V30 67104 C 6546.94 -0.1925 -1.69007 0
M  V30 67105 O 6548.12 -0.388502 -1.90274 0
M  V30 67106 C 6545.25 -1.09714 -3.29515 0
M  V30 67107 C 6544.21 -2.19099 -3.67668 0
M  V30 67108 C 6543.53 -1.82047 -5.02756 0
M  V30 67109 C 6544.83 -3.61113 -3.77352 0
M  V30 67110 H 6546.53 -2.26196 -1.96153 0
M  V30 67111 H 6544.07 -1.08886 -0.942332 0
M  V30 67112 H 6546.03 -1.05648 -4.07942 0
M  V30 67113 H 6544.75 -0.118894 -3.26384 0
M  V30 67114 H 6543.41 -2.22273 -2.91531 0
M  V30 67115 H 6543.06 -0.828231 -4.96134 0
M  V30 67116 H 6542.76 -2.55274 -5.29253 0
M  V30 67117 H 6544.28 -1.79518 -5.83614 0
M  V30 67118 H 6545.69 -3.60225 -4.45995 0
M  V30 67119 H 6544.09 -4.33157 -4.15325 0
M  V30 67120 H 6545.16 -3.96784 -2.7873 0
M  V30 67121 N 6546.5 1.0229 -1.19894 0
M  V30 67122 C 6547.73 1.79401 -1.03068 0
M  V30 67123 C 6548.15 1.84061 0.420364 0
M  V30 67124 O 6547.5 1.28901 1.29193 0
M  V30 67125 C 6547.56 3.24168 -1.59991 0
M  V30 67126 O 6547.28 3.19815 -2.99416 0
M  V30 67127 C 6548.78 4.17854 -1.4803 0
M  V30 67128 H 6546 0.564383 -0.362922 0
M  V30 67129 H 6548.54 1.28799 -1.58843 0
M  V30 67130 H 6546.7 3.71939 -1.08351 0
M  V30 67131 H 6547.11 4.10636 -3.2631 0
M  V30 67132 H 6548.58 5.17299 -1.92629 0
M  V30 67133 H 6549.06 4.37072 -0.431772 0
M  V30 67134 H 6549.67 3.75961 -1.9883 0
M  V30 67135 N 6547.98 1.00382 1.21496 0
M  V30 67136 C 6549.23 0.681239 1.89847 0
M  V30 67137 C 6549.55 -0.79128 1.7888 0
M  V30 67138 O 6550.75 -1.2259 2.42248 0
M  V30 67139 C 6549.21 1.16802 3.40419 0
M  V30 67140 C 6548.82 2.66653 3.6 0
M  V30 67141 C 6550.56 0.92027 4.14405 0
M  V30 67142 C 6548.47 3.08877 5.0433 0
M  V30 67143 H 6547.4 0.251111 0.710957 0
M  V30 67144 H 6550.05 1.21483 1.37529 0
M  V30 67145 H 6548.43 0.562487 3.91985 0
M  V30 67146 H 6549.6 3.32645 3.18879 0
M  V30 67147 H 6547.92 2.89429 2.99365 0
M  V30 67148 H 6550.52 1.21131 5.20799 0
M  V30 67149 H 6550.86 -0.143495 4.16053 0
M  V30 67150 H 6551.39 1.48853 3.68901 0
M  V30 67151 H 6548.13 4.14476 5.07829 0
M  V30 67152 H 6547.65 2.47596 5.46311 0
M  V30 67153 H 6549.33 3.00792 5.72829 0
M  V30 67154 N 6549.46 -1.37035 0.778402 0
M  V30 67155 C 6550.39 -2.32779 0.183297 0
M  V30 67156 C 6551.37 -1.56109 -0.675568 0
M  V30 67157 O 6552.56 -1.84316 -0.611662 0
M  V30 67158 C 6549.69 -3.40348 -0.691406 0
M  V30 67159 C 6548.64 -4.27948 0.0666818 0
M  V30 67160 C 6547.97 -5.26587 -0.9279 0
M  V30 67161 C 6549.27 -5.07133 1.24954 0
M  V30 67162 H 6550.96 -2.82798 0.983149 0
M  V30 67163 H 6548.51 -1.35968 0.474217 0
M  V30 67164 H 6550.46 -4.0631 -1.11759 0
M  V30 67165 H 6549.18 -2.88871 -1.52385 0
M  V30 67166 H 6547.84 -3.63526 0.473714 0
M  V30 67167 H 6547.49 -4.71388 -1.75507 0
M  V30 67168 H 6547.19 -5.8606 -0.425165 0
M  V30 67169 H 6548.72 -5.95424 -1.35288 0
M  V30 67170 H 6550.13 -5.66197 0.899675 0
M  V30 67171 H 6548.53 -5.75964 1.68481 0
M  V30 67172 H 6549.6 -4.39418 2.05037 0
M  V30 67173 N 6550.94 -0.529492 -1.48439 0
M  V30 67174 C 6551.87 0.222336 -2.32439 0
M  V30 67175 C 6552.85 0.935549 -1.42062 0
M  V30 67176 O 6554.04 0.921423 -1.70949 0
M  V30 67177 C 6551.17 1.27001 -3.23246 0
M  V30 67178 C 6550.12 0.674965 -4.22644 0
M  V30 67179 C 6549.45 1.82525 -5.02582 0
M  V30 67180 C 6550.75 -0.352998 -5.21106 0
M  V30 67181 H 6552.44 -0.478881 -2.95545 0
M  V30 67182 H 6549.99 -0.231745 -1.42123 0
M  V30 67183 H 6551.94 1.80391 -3.80837 0
M  V30 67184 H 6550.66 2.0008 -2.58139 0
M  V30 67185 H 6549.32 0.162582 -3.66239 0
M  V30 67186 H 6548.97 2.54441 -4.339 0
M  V30 67187 H 6548.67 1.43303 -5.69858 0
M  V30 67188 H 6550.19 2.36295 -5.63025 0
M  V30 67189 H 6551.61 0.093806 -5.73223 0
M  V30 67190 H 6550 -0.662578 -5.96431 0
M  V30 67191 H 6551.07 -1.25894 -4.68272 0
M  V30 67192 N 6552.42 1.55363 -0.264601 0
M  V30 67193 C 6553.67 1.98538 0.355757 0
M  V30 67194 C 6553.98 1.1563 1.57763 0
M  V30 67195 O 6555.19 1.489 2.27027 0
M  V30 67196 C 6553.64 3.53334 0.684321 0
M  V30 67197 C 6553.25 4.45005 -0.51715 0
M  V30 67198 C 6554.99 4.05123 1.26789 0
M  V30 67199 C 6552.9 5.91173 -0.163756 0
M  V30 67200 H 6551.83 0.741505 0.136699 0
M  V30 67201 H 6554.48 1.7978 -0.367603 0
M  V30 67202 H 6552.86 3.67853 1.4663 0
M  V30 67203 H 6554.04 4.42252 -1.29422 0
M  V30 67204 H 6552.35 4.03794 -1.01684 0
M  V30 67205 H 6554.95 5.11865 1.54592 0
M  V30 67206 H 6555.29 3.53527 2.19829 0
M  V30 67207 H 6555.83 3.94001 0.548432 0
M  V30 67208 H 6552.56 6.46844 -1.06176 0
M  V30 67209 H 6552.08 5.97021 0.576756 0
M  V30 67210 H 6553.76 6.46525 0.247785 0
M  V30 67211 N 6553.9 -0.00827481 1.57598 0
M  V30 67212 C 6555.14 -0.695874 1.90487 0
M  V30 67213 C 6555.47 -1.7388 0.864836 0
M  V30 67214 O 6554.75 -1.94145 -0.117512 0
M  V30 67215 C 6555.03 -1.34655 3.33976 0
M  V30 67216 C 6554.89 -0.315727 4.48691 0
M  V30 67217 C 6556.2 -2.27497 3.7674 0
M  V30 67218 H 6553.32 -0.251504 0.692759 0
M  V30 67219 H 6555.97 0.0413207 1.89955 0
M  V30 67220 H 6554.12 -1.97488 3.3456 0
M  V30 67221 H 6555.79 0.312289 4.60242 0
M  V30 67222 H 6554.03 0.362881 4.3228 0
M  V30 67223 H 6554.7 -0.809889 5.46026 0
M  V30 67224 H 6557.18 -1.74688 3.77655 0
M  V30 67225 H 6556.05 -2.69994 4.77906 0
M  V30 67226 H 6556.31 -3.15057 3.10148 0
M  V30 67227 N 6555.37 -1.55076 -0.280901 0
M  V30 67228 C 6556.62 -1.7557 -1.01505 0
M  V30 67229 C 6556.95 -0.550855 -1.86224 0
M  V30 67230 O 6556.23 0.451741 -1.89181 0
M  V30 67231 C 6556.51 -3.05632 -1.90423 0
M  V30 67232 C 6556.36 -4.36456 -1.0875 0
M  V30 67233 C 6557.68 -3.31683 -2.89266 0
M  V30 67234 H 6554.8 -0.638778 -0.367603 0
M  V30 67235 H 6557.44 -1.87804 -0.288054 0
M  V30 67236 H 6555.59 -2.95333 -2.5241 0
M  V30 67237 H 6557.27 -4.58701 -0.488954 0
M  V30 67238 H 6555.51 -4.32037 -0.390732 0
M  V30 67239 H 6556.18 -5.2377 -1.74266 0
M  V30 67240 H 6558.66 -3.41723 -2.37412 0
M  V30 67241 H 6557.53 -4.23967 -3.4863 0
M  V30 67242 H 6557.79 -2.50941 -3.63979 0
M  V30 67243 N 6556.85 0.54505 -1.47875 0
M  V30 67244 C 6558.1 1.29806 -1.54381 0
M  V30 67245 C 6558.41 1.94404 -0.216006 0
M  V30 67246 O 6559.62 2.71033 -0.159166 0
M  V30 67247 C 6558.08 2.3545 -2.72197 0
M  V30 67248 C 6557.68 1.76989 -4.11557 0
M  V30 67249 C 6559.43 3.11855 -2.88004 0
M  V30 67250 C 6557.33 2.80485 -5.20655 0
M  V30 67251 H 6556.26 0.488122 -0.574676 0
M  V30 67252 H 6558.92 0.57747 -1.74177 0
M  V30 67253 H 6557.3 3.10477 -2.45804 0
M  V30 67254 H 6558.47 1.08252 -4.47904 0
M  V30 67255 H 6556.79 1.13127 -4.00738 0
M  V30 67256 H 6559.38 3.89165 -3.6668 0
M  V30 67257 H 6559.73 3.66793 -1.96897 0
M  V30 67258 H 6560.26 2.43941 -3.14225 0
M  V30 67259 H 6557 2.30387 -6.13679 0
M  V30 67260 H 6556.52 3.47595 -4.88812 0
M  V30 67261 H 6558.2 3.43753 -5.48127 0
M  V30 67262 N 6558.33 1.3621 0.792749 0
M  V30 67263 C 6559.58 1.29998 1.54742 0
M  V30 67264 C 6559.9 -0.121378 1.94622 0
M  V30 67265 O 6559.17 -1.06091 1.64686 0
M  V30 67266 H 6557.75 0.478204 0.573873 0
M  V30 67267 H 6560.41 1.70469 0.944785 0
M  V30 67268 H 6559.51 1.92514 2.45652 0
M  V30 67269 N 6559.81 -1.01652 1.20435 0
M  V30 67270 C 6560.77 -2.08357 0.954991 0
M  V30 67271 C 6561.77 -1.6065 -0.0694904 0
M  V30 67272 O 6562.96 -1.73402 0.166578 0
M  V30 67273 C 6560.09 -3.38078 0.437768 0
M  V30 67274 H 6561.29 -2.31912 1.9015 0
M  V30 67275 H 6558.84 -1.18453 1.01973 0
M  V30 67276 H 6559.57 -3.20198 -0.5142 0
M  V30 67277 H 6559.36 -3.7403 1.17659 0
M  V30 67278 H 6560.85 -4.16641 0.282796 0
M  V30 67279 N 6561.29 -1.01025 -1.20962 0
M  V30 67280 C 6562.22 -0.595379 -2.25782 0
M  V30 67281 C 6563.2 0.386419 -1.65653 0
M  V30 67282 O 6564.38 0.273247 -1.92268 0
M  V30 67283 C 6561.51 0.0735269 -3.47222 0
M  V30 67284 C 6560.47 -0.828596 -4.19903 0
M  V30 67285 C 6559.79 -0.0258121 -5.34694 0
M  V30 67286 C 6561.09 -2.13368 -4.7673 0
M  V30 67287 H 6562.79 -1.47159 -2.60738 0
M  V30 67288 H 6560.33 -0.709034 -1.25334 0
M  V30 67289 H 6562.28 0.375275 -4.19726 0
M  V30 67290 H 6561.01 0.98441 -3.11411 0
M  V30 67291 H 6559.67 -1.11425 -3.49256 0
M  V30 67292 H 6559.32 0.886523 -4.95126 0
M  V30 67293 H 6559.02 -0.626525 -5.8425 0
M  V30 67294 H 6560.54 0.26963 -6.10004 0
M  V30 67295 H 6561.95 -1.89472 -5.41085 0
M  V30 67296 H 6560.35 -2.68469 -5.36697 0
M  V30 67297 H 6561.42 -2.80095 -3.95822 0
M  V30 67298 N 6562.76 1.36621 -0.785658 0
M  V30 67299 C 6563.73 2.28432 -0.187468 0
M  V30 67300 C 6564.73 1.48657 0.613003 0
M  V30 67301 O 6565.92 1.68693 0.434549 0
M  V30 67302 C 6563.05 3.32749 0.741004 0
M  V30 67303 H 6564.24 2.82844 -0.996971 0
M  V30 67304 H 6561.8 1.46121 -0.554821 0
M  V30 67305 H 6562.53 2.83486 1.57499 0
M  V30 67306 H 6562.32 3.91736 0.169006 0
M  V30 67307 H 6563.81 4.01323 1.15453 0
M  V30 67308 N 6564.24 0.537356 1.48156 0
M  V30 67309 C 6565.49 0.00391314 2.017 0
M  V30 67310 C 6565.8 -1.3462 1.41905 0
M  V30 67311 O 6567.01 -1.96842 1.8699 0
M  V30 67312 C 6565.47 -0.0434026 3.59874 0
M  V30 67313 C 6565.07 1.30226 4.28655 0
M  V30 67314 C 6566.82 -0.525285 4.21237 0
M  V30 67315 C 6564.73 1.21513 5.78782 0
M  V30 67316 H 6563.66 -0.00230718 0.753996 0
M  V30 67317 H 6566.31 0.682241 1.70346 0
M  V30 67318 H 6564.69 -0.786963 3.88102 0
M  V30 67319 H 6565.86 2.06197 4.12092 0
M  V30 67320 H 6564.18 1.72047 3.79195 0
M  V30 67321 H 6566.77 -0.608557 5.31226 0
M  V30 67322 H 6567.12 -1.53277 3.87055 0
M  V30 67323 H 6567.65 0.162814 3.97467 0
M  V30 67324 H 6564.39 2.19799 6.1755 0
M  V30 67325 H 6563.91 0.496904 5.97738 0
M  V30 67326 H 6565.59 0.908866 6.40585 0
M  V30 67327 N 6565.72 -1.5522 0.272837 0
M  V30 67328 C 6566.68 -2.21139 -0.602516 0
M  V30 67329 C 6567.68 -1.18854 -1.08307 0
M  V30 67330 O 6568.87 -1.43773 -0.983612 0
M  V30 67331 C 6566.01 -2.87554 -1.831 0
M  V30 67332 H 6567.2 -2.99888 -0.0270014 0
M  V30 67333 H 6564.75 -1.56282 0.0234385 0
M  V30 67334 H 6565.49 -2.12811 -2.44708 0
M  V30 67335 H 6565.27 -3.62507 -1.49436 0
M  V30 67336 H 6566.76 -3.37923 -2.45353 0
M  V30 67337 N 6567.2 -8.31064e-05 -1.576 0
M  V30 67338 C 6568.45 0.683395 -1.90195 0
M  V30 67339 C 6568.77 1.74308 -0.874161 0
M  V30 67340 O 6568.04 1.957 0.0884206 0
M  V30 67341 H 6566.62 0.255406 -0.701981 0
M  V30 67342 H 6569.28 -0.0410287 -1.94857 0
M  V30 67343 H 6568.38 1.15459 -2.89958 0
M  V30 67344 N 6568.68 1.55223 0.272673 0
M  V30 67345 C 6569.92 1.75845 1.00423 0
M  V30 67346 C 6570.25 0.559727 1.86272 0
M  V30 67347 O 6569.51 -0.457757 1.90271 0
M  V30 67348 C 6569.81 3.01685 1.91626 0
M  V30 67349 C 6569.47 4.34215 1.21525 0
M  V30 67350 C 6568.13 4.70235 1.02141 0
M  V30 67351 C 6570.49 5.16253 0.716412 0
M  V30 67352 C 6567.81 5.85848 0.316025 0
M  V30 67353 C 6570.17 6.32595 0.024614 0
M  V30 67354 C 6568.83 6.67255 -0.180931 0
M  V30 67355 H 6568.1 0.643462 0.367475 0
M  V30 67356 H 6570.75 1.89493 0.276496 0
M  V30 67357 H 6569.05 2.82938 2.71022 0
M  V30 67358 H 6570.75 3.14837 2.48352 0
M  V30 67359 H 6567.34 4.05904 1.37624 0
M  V30 67360 H 6571.52 4.88901 0.853789 0
M  V30 67361 H 6566.78 6.11226 0.146055 0
M  V30 67362 H 6570.95 6.95418 -0.369678 0
M  V30 67363 H 6568.58 7.56692 -0.729497 0
M  V30 67364 N 6570.15 -0.5372 1.48162 0
M  V30 67365 C 6571.4 -1.29341 1.55811 0
M  V30 67366 C 6571.73 -1.93148 0.228904 0
M  V30 67367 O 6570.98 -1.79478 -0.780147 0
M  V30 67368 C 6571.28 -2.40947 2.63969 0
M  V30 67369 C 6570.95 -1.9484 4.0663 0
M  V30 67370 C 6569.61 -1.81982 4.45461 0
M  V30 67371 C 6571.96 -1.59907 4.96064 0
M  V30 67372 C 6569.29 -1.32517 5.71538 0
M  V30 67373 C 6571.64 -1.11906 6.22623 0
M  V30 67374 C 6570.31 -0.976603 6.60317 0
M  V30 67375 H 6569.58 -0.473292 0.570154 0
M  V30 67376 H 6572.22 -0.600276 1.81849 0
M  V30 67377 H 6570.53 -3.159 2.31764 0
M  V30 67378 H 6572.23 -2.99092 2.67104 0
M  V30 67379 H 6568.82 -2.05796 3.7596 0
M  V30 67380 H 6573 -1.68704 4.66747 0
M  V30 67381 H 6568.26 -1.20169 5.99474 0
M  V30 67382 H 6572.43 -0.839446 6.91322 0
M  V30 67383 H 6570.06 -0.591101 7.57898 0
M  V30 67384 N 6571.63 -1.36629 -0.785514 0
M  V30 67385 C 6572.58 -1.27799 -1.88816 0
M  V30 67386 C 6573.57 -0.168664 -1.60014 0
M  V30 67387 O 6574.76 -0.401828 -1.72378 0
M  V30 67388 C 6571.89 -1.07345 -3.26086 0
M  V30 67389 C 6570.97 -2.22762 -3.60885 0
M  V30 67390 N 6571.36 -3.48096 -3.66964 0
M  V30 67391 C 6569.66 -2.14613 -3.9097 0
M  V30 67392 C 6570.36 -4.24122 -3.98115 0
M  V30 67393 N 6569.34 -3.53106 -4.133 0
M  V30 67394 H 6573.14 -2.22733 -1.91747 0
M  V30 67395 H 6570.66 -1.29404 -0.981243 0
M  V30 67396 H 6572.65 -0.991055 -4.04949 0
M  V30 67397 H 6571.31 -0.133148 -3.24427 0
M  V30 67398 H 6572.32 -3.82181 -3.49511 0
M  V30 67399 H 6569 -1.28561 -3.97213 0
M  V30 67400 H 6570.39 -5.3253 -4.09709 0
M  V30 67401 N 6573.11 1.01012 -1.20972 0
M  V30 67402 C 6574.34 1.78039 -1.04813 0
M  V30 67403 C 6574.75 1.84806 0.405364 0
M  V30 67404 O 6574.09 1.30475 1.29313 0
M  V30 67405 C 6574.15 3.23699 -1.56394 0
M  V30 67406 C 6573.82 3.40522 -3.04785 0
M  V30 67407 C 6574.81 3.29217 -4.02383 0
M  V30 67408 C 6572.5 3.66129 -3.43882 0
M  V30 67409 C 6574.49 3.43275 -5.37067 0
M  V30 67410 C 6572.18 3.7983 -4.78719 0
M  V30 67411 C 6573.18 3.68409 -5.75121 0
M  V30 67412 O 6572.87 3.81681 -7.07513 0
M  V30 67413 H 6572.6 0.56653 -0.368808 0
M  V30 67414 H 6575.15 1.27988 -1.60649 0
M  V30 67415 H 6573.38 3.74862 -0.949494 0
M  V30 67416 H 6575.07 3.82383 -1.36156 0
M  V30 67417 H 6575.84 3.09364 -3.73522 0
M  V30 67418 H 6571.72 3.74104 -2.69384 0
M  V30 67419 H 6575.26 3.34277 -6.12295 0
M  V30 67420 H 6571.16 3.99186 -5.07268 0
M  V30 67421 H 6571.93 3.9866 -7.14851 0
M  V30 67422 N 6574.59 1.01665 1.20424 0
M  V30 67423 C 6576 0.731517 1.41848 0
M  V30 67424 C 6576.2 -0.688798 1.89362 0
M  V30 67425 O 6575.26 -1.45655 2.06254 0
M  V30 67426 C 6576.57 1.75727 2.44009 0
M  V30 67427 C 6578.12 1.77541 2.57775 0
M  V30 67428 C 6578.6 2.79042 3.63179 0
M  V30 67429 N 6580.09 2.77783 3.70663 0
M  V30 67430 C 6580.82 3.52978 4.51879 0
M  V30 67431 N 6580.32 4.37849 5.36898 0
M  V30 67432 N 6582.11 3.41575 4.46412 0
M  V30 67433 H 6574.26 1.93358 0.878991 0
M  V30 67434 H 6576.53 0.835259 0.448381 0
M  V30 67435 H 6576.23 2.77481 2.16096 0
M  V30 67436 H 6576.11 1.56946 3.42998 0
M  V30 67437 H 6578.49 0.764719 2.85019 0
M  V30 67438 H 6578.57 2.00396 1.58982 0
M  V30 67439 H 6578.22 3.80275 3.36679 0
M  V30 67440 H 6578.15 2.5345 4.61596 0
M  V30 67441 H 6580.64 2.16217 3.09933 0
M  V30 67442 H 6580.95 4.91994 5.95955 0
M  V30 67443 H 6579.3 4.41927 5.364 0
M  V30 67444 H 6582.49 2.74692 3.79027 0
M  V30 67445 H 6582.66 4.00431 5.0947 0
M  V30 67446 N 6576.07 -1.36202 0.792892 0
M  V30 67447 C 6577.48 -1.52368 0.474984 0
M  V30 67448 C 6577.68 -1.74583 -1.00613 0
M  V30 67449 O 6576.74 -1.77934 -1.79153 0
M  V30 67450 C 6578.05 -2.7074 1.30845 0
M  V30 67451 C 6579.6 -2.84612 1.30249 0
M  V30 67452 C 6580.07 -4.05992 2.11977 0
M  V30 67453 N 6581.57 -4.13145 2.09441 0
M  V30 67454 C 6582.3 -5.06149 2.69445 0
M  V30 67455 N 6581.8 -6.04574 3.38322 0
M  V30 67456 N 6583.59 -4.98791 2.59161 0
M  V30 67457 H 6575.74 -1.20037 1.75228 0
M  V30 67458 H 6578 -0.586172 0.745055 0
M  V30 67459 H 6577.71 -2.60858 2.35894 0
M  V30 67460 H 6577.58 -3.64985 0.952152 0
M  V30 67461 H 6579.97 -2.93953 0.259903 0
M  V30 67462 H 6580.05 -1.91265 1.69857 0
M  V30 67463 H 6579.7 -3.97412 3.16269 0
M  V30 67464 H 6579.63 -4.98494 1.69738 0
M  V30 67465 H 6582.12 -3.42676 1.59315 0
M  V30 67466 H 6582.43 -6.7211 3.81429 0
M  V30 67467 H 6580.77 -6.04789 3.42425 0
M  V30 67468 H 6583.97 -4.20848 2.0495 0
M  V30 67469 H 6584.14 -5.71083 3.06215 0
M  V30 67470 N 6577.55 -0.545206 -1.47869 0
M  V30 67471 C 6578.77 -0.0211931 -2.06889 0
M  V30 67472 C 6579.19 1.26713 -1.39962 0
M  V30 67473 O 6578.55 1.75739 -0.492129 0
M  V30 67474 C 6578.6 0.190627 -3.60997 0
M  V30 67475 O 6578.32 -1.04667 -4.25413 0
M  V30 67476 C 6579.82 0.753291 -4.36853 0
M  V30 67477 H 6577.04 -0.0403988 -0.669783 0
M  V30 67478 H 6579.58 -0.755195 -1.90045 0
M  V30 67479 H 6577.74 0.874721 -3.77396 0
M  V30 67480 H 6578.15 -0.836884 -5.1778 0
M  V30 67481 H 6579.63 0.850851 -5.45403 0
M  V30 67482 H 6580.1 1.76179 -4.02315 0
M  V30 67483 H 6580.71 0.105279 -4.2517 0
M  V30 67484 N 6579.02 1.55073 -0.281065 0
M  V30 67485 C 6580.27 1.99332 0.33335 0
M  V30 67486 C 6580.59 1.17093 1.5593 0
M  V30 67487 O 6579.86 0.261907 1.94141 0
M  V30 67488 H 6578.44 0.73627 0.126159 0
M  V30 67489 H 6581.1 1.91003 -0.387779 0
M  V30 67490 H 6580.2 3.05897 0.61913 0
M  V30 67491 N 6580.5 0.00844102 1.57598 0
M  V30 67492 C 6581.73 -0.689 1.95621 0
M  V30 67493 C 6582.15 -1.66042 0.88384 0
M  V30 67494 O 6581.51 -1.80617 -0.157257 0
M  V30 67495 C 6581.56 -1.38976 3.32743 0
M  V30 67496 O 6580.66 -2.50446 3.27644 0
M  V30 67497 H 6580 -0.182635 0.638389 0
M  V30 67498 H 6582.53 0.0641439 2.04499 0
M  V30 67499 H 6582.54 -1.75127 3.68503 0
M  V30 67500 H 6581.22 -0.677562 4.10344 0
M  V30 67501 H 6579.79 -2.1656 3.03572 0
M  V30 67502 N 6581.98 -1.55366 -0.264437 0
M  V30 67503 C 6582.91 -1.91843 -1.33111 0
M  V30 67504 C 6583.89 -0.781272 -1.51097 0
M  V30 67505 O 6585.08 -1.04012 -1.63997 0
M  V30 67506 C 6582.21 -2.19783 -2.6891 0
M  V30 67507 C 6581.16 -3.35585 -2.65644 0
M  V30 67508 C 6580.49 -3.49025 -4.05075 0
M  V30 67509 C 6581.79 -4.71751 -2.24162 0
M  V30 67510 H 6583.48 -2.81188 -1.02829 0
M  V30 67511 H 6581.03 -1.3529 -0.493215 0
M  V30 67512 H 6582.98 -2.4389 -3.43651 0
M  V30 67513 H 6581.7 -1.27247 -3.00792 0
M  V30 67514 H 6580.36 -3.1146 -1.9336 0
M  V30 67515 H 6580.01 -2.5394 -4.34193 0
M  V30 67516 H 6579.71 -4.26889 -4.03782 0
M  V30 67517 H 6581.23 -3.75434 -4.81541 0
M  V30 67518 H 6582.65 -4.95345 -2.88628 0
M  V30 67519 H 6581.04 -5.52591 -2.34015 0
M  V30 67520 H 6582.11 -4.69995 -1.19303 0
M  V30 67521 N 6583.46 0.529335 -1.48445 0
M  V30 67522 C 6584.39 1.64304 -1.65911 0
M  V30 67523 C 6585.37 1.62338 -0.507983 0
M  V30 67524 O 6586.55 1.79524 -0.740597 0
M  V30 67525 C 6583.68 3.02889 -1.69927 0
M  V30 67526 C 6582.64 3.19714 -2.84547 0
M  V30 67527 C 6581.96 4.59367 -2.73653 0
M  V30 67528 C 6583.26 3.02424 -4.25837 0
M  V30 67529 H 6584.96 1.49942 -2.59148 0
M  V30 67530 H 6582.5 0.719916 -1.24713 0
M  V30 67531 H 6584.46 3.80674 -1.80735 0
M  V30 67532 H 6583.18 3.18275 -0.732692 0
M  V30 67533 H 6581.84 2.44346 -2.73295 0
M  V30 67534 H 6581.49 4.7159 -1.74963 0
M  V30 67535 H 6581.19 4.71569 -3.50566 0
M  V30 67536 H 6582.71 5.3925 -2.86429 0
M  V30 67537 H 6584.13 3.70001 -4.37918 0
M  V30 67538 H 6582.52 3.26119 -5.03752 0
M  V30 67539 H 6583.59 1.98843 -4.42255 0
M  V30 67540 N 6584.94 1.37043 0.778257 0
M  V30 67541 C 6586.35 1.2853 1.35414 0
M  V30 67542 C 6586.7 -0.0699867 1.96075 0
M  V30 67543 O 6585.82 -0.971699 1.93357 0
M  V30 67544 C 6586.42 2.32748 2.46199 0
M  V30 67545 C 6584.98 2.27888 2.99573 0
M  V30 67546 C 6584.12 2.16927 1.72737 0
M  V30 67547 H 6587.07 1.4776 0.579022 0
M  V30 67548 H 6587.1 1.97037 3.2551 0
M  V30 67549 H 6586.61 3.31376 2.02019 0
M  V30 67550 H 6584.71 1.32763 3.48145 0
M  V30 67551 H 6584.82 3.21037 3.55629 0
M  V30 67552 H 6583.19 1.63365 1.95408 0
M  V30 67553 H 6583.97 3.17459 1.30669 0
M  V30 67554 N 6586.41 -1.00369 1.21506 0
M  V30 67555 C 6587.38 -2.07332 0.977036 0
M  V30 67556 C 6588.38 -1.60714 -0.0524475 0
M  V30 67557 O 6589.57 -1.73215 0.184961 0
M  V30 67558 C 6586.7 -3.37594 0.473601 0
M  V30 67559 H 6587.89 -2.29882 1.92599 0
M  V30 67560 H 6585.44 -1.17365 1.03224 0
M  V30 67561 H 6586.18 -3.20725 -0.48021 0
M  V30 67562 H 6585.96 -3.72761 1.2162 0
M  V30 67563 H 6587.45 -4.16318 0.32697 0
M  V30 67564 N 6587.89 -1.02302 -1.19883 0
M  V30 67565 C 6588.82 -0.619293 -2.25138 0
M  V30 67566 C 6589.8 0.368828 -1.66053 0
M  V30 67567 O 6590.99 0.252839 -1.92547 0
M  V30 67568 C 6588.12 0.0366952 -3.47281 0
M  V30 67569 C 6587.07 -0.873086 -4.19 0
M  V30 67570 C 6586.4 -0.0825221 -5.34636 0
M  V30 67571 C 6587.7 -2.18412 -4.7444 0
M  V30 67572 H 6589.39 -1.49917 -2.59163 0
M  V30 67573 H 6586.94 -0.722287 -1.24575 0
M  V30 67574 H 6588.89 0.330737 -4.201 0
M  V30 67575 H 6587.61 0.951325 -3.12438 0
M  V30 67576 H 6586.27 -1.15123 -3.48055 0
M  V30 67577 H 6585.92 0.833958 -4.96038 0
M  V30 67578 H 6585.62 -0.688457 -5.83553 0
M  V30 67579 H 6587.15 0.204916 -6.10256 0
M  V30 67580 H 6588.56 -1.95201 -5.39045 0
M  V30 67581 H 6586.96 -2.74147 -5.3382 0
M  V30 67582 H 6588.03 -2.84277 -3.92829 0
M  V30 67583 N 6589.37 1.3578 -0.800104 0
M  V30 67584 C 6590.78 1.8146 -0.439238 0
M  V30 67585 C 6591.13 1.6649 1.03804 0
M  V30 67586 O 6590.26 1.19187 1.8062 0
M  V30 67587 C 6590.85 3.29449 -0.790487 0
M  V30 67588 C 6589.41 3.73297 -0.482308 0
M  V30 67589 C 6588.56 2.57878 -1.01952 0
M  V30 67590 H 6591.51 1.2385 -0.992319 0
M  V30 67591 H 6591.53 3.80404 -0.0855683 0
M  V30 67592 H 6591.04 3.40312 -1.86572 0
M  V30 67593 H 6589.14 3.67988 0.584458 0
M  V30 67594 H 6589.26 4.68324 -1.0104 0
M  V30 67595 H 6587.62 2.50832 -0.442175 0
M  V30 67596 H 6588.4 2.71522 -2.10073 0
M  V30 67597 N 6590.85 0.55304 1.47578 0
M  V30 67598 C 6591.79 -0.196986 2.29958 0
M  V30 67599 C 6592.76 -0.912286 1.38804 0
M  V30 67600 O 6593.95 -0.9088 1.67766 0
M  V30 67601 C 6591.09 -1.22362 3.22679 0
M  V30 67602 C 6590.2 -0.514812 4.28922 0
M  V30 67603 C 6589.34 -1.52637 5.08798 0
M  V30 67604 C 6588.38 -0.802311 6.06819 0
M  V30 67605 N 6587.51 -1.76051 6.79669 0
M  V30 67606 H 6592.35 0.511641 2.93575 0
M  V30 67607 H 6589.89 0.264144 1.44709 0
M  V30 67608 H 6591.85 -1.83139 3.74855 0
M  V30 67609 H 6590.48 -1.90033 2.60935 0
M  V30 67610 H 6589.53 0.207392 3.79834 0
M  V30 67611 H 6590.84 0.0526055 4.98772 0
M  V30 67612 H 6590 -2.20779 5.65103 0
M  V30 67613 H 6588.74 -2.12771 4.38839 0
M  V30 67614 H 6587.74 -0.106948 5.49696 0
M  V30 67615 H 6588.97 -0.206777 6.78785 0
M  V30 67616 H 6586.91 -2.35049 6.12444 0
M  V30 67617 H 6586.83 -1.24513 7.45676 0
M  V30 67618 H 6588.1 -2.4332 7.40551 0
M  V30 67619 N 6592.33 -1.54922 0.289285 0
M  V30 67620 C 6593.26 -2.26044 -0.58537 0
M  V30 67621 C 6594.24 -1.25568 -1.14746 0
M  V30 67622 O 6595.42 -1.54317 -1.17897 0
M  V30 67623 C 6592.55 -2.99231 -1.7629 0
M  V30 67624 C 6591.51 -4.06755 -1.3317 0
M  V30 67625 C 6590.83 -4.67594 -2.59345 0
M  V30 67626 C 6592.13 -5.20167 -0.471501 0
M  V30 67627 H 6593.83 -2.99399 0.0077932 0
M  V30 67628 H 6591.37 -1.43999 0.00518822 0
M  V30 67629 H 6593.33 -3.47702 -2.38078 0
M  V30 67630 H 6592.05 -2.23434 -2.38211 0
M  V30 67631 H 6590.71 -3.59117 -0.736932 0
M  V30 67632 H 6590.36 -3.88449 -3.19556 0
M  V30 67633 H 6590.06 -5.40204 -2.312 0
M  V30 67634 H 6591.58 -5.18821 -3.21958 0
M  V30 67635 H 6592.99 -5.64604 -0.994758 0
M  V30 67636 H 6591.39 -5.99426 -0.284323 0
M  V30 67637 H 6592.46 -4.8225 0.506295 0
M  V30 67638 N 6593.8 -0.0167987 -1.57591 0
M  V30 67639 C 6595.22 0.52374 -1.79203 0
M  V30 67640 C 6595.57 1.72979 -0.925887 0
M  V30 67641 O 6594.69 2.15991 -0.132906 0
M  V30 67642 C 6595.29 0.95692 -3.25005 0
M  V30 67643 C 6593.85 1.44265 -3.47656 0
M  V30 67644 C 6592.99 0.401612 -2.74376 0
M  V30 67645 H 6595.94 -0.242899 -1.5683 0
M  V30 67646 H 6595.96 1.82201 -3.3404 0
M  V30 67647 H 6595.48 0.0789369 -3.8802 0
M  V30 67648 H 6593.58 2.34097 -2.89878 0
M  V30 67649 H 6593.69 1.45853 -4.56359 0
M  V30 67650 H 6592.05 0.866995 -2.3949 0
M  V30 67651 H 6592.84 -0.467692 -3.40099 0
M  V30 67652 N 6595.28 1.55504 0.256194 0
M  V30 67653 C 6596.51 1.81281 1.00756 0
M  V30 67654 C 6596.93 0.592614 1.78521 0
M  V30 67655 O 6596.29 -0.458177 1.75415 0
M  V30 67656 C 6596.34 3.04697 1.92853 0
M  V30 67657 O 6595.44 2.80961 3.01886 0
M  V30 67658 H 6594.78 0.598679 0.287192 0
M  V30 67659 H 6597.31 2.02675 0.280002 0
M  V30 67660 H 6597.32 3.33882 2.34493 0
M  V30 67661 H 6596 3.9315 1.35668 0
M  V30 67662 H 6594.58 2.62918 2.6444 0
M  V30 67663 N 6596.76 -0.521455 1.48723 0
M  V30 67664 C 6597.69 -1.63422 1.6678 0
M  V30 67665 C 6598.67 -1.62066 0.516585 0
M  V30 67666 O 6599.86 -1.79129 0.750108 0
M  V30 67667 C 6596.99 -3.01984 1.71531 0
M  V30 67668 C 6595.94 -3.18201 2.86238 0
M  V30 67669 C 6595.27 -4.57909 2.76085 0
M  V30 67670 C 6596.57 -3.00162 4.27434 0
M  V30 67671 H 6598.26 -1.48565 2.5994 0
M  V30 67672 H 6595.81 -0.713292 1.25093 0
M  V30 67673 H 6597.76 -3.7971 1.82751 0
M  V30 67674 H 6596.48 -3.17882 0.749561 0
M  V30 67675 H 6595.14 -2.42894 2.74587 0
M  V30 67676 H 6594.79 -4.70655 1.77461 0
M  V30 67677 H 6594.49 -4.69704 3.53061 0
M  V30 67678 H 6596.01 -5.37724 2.89285 0
M  V30 67679 H 6597.43 -3.67673 4.39874 0
M  V30 67680 H 6595.83 -3.23443 5.05475 0
M  V30 67681 H 6596.9 -1.96495 4.43303 0
M  V30 67682 N 6598.24 -1.37454 -0.770978 0
M  V30 67683 C 6599.46 -1.36073 -1.56521 0
M  V30 67684 C 6599.89 0.0514867 -1.8803 0
M  V30 67685 O 6599.25 1.02874 -1.49287 0
M  V30 67686 C 6599.29 -2.20698 -2.85175 0
M  V30 67687 O 6598.4 -1.61213 -3.79584 0
M  V30 67688 H 6597.74 -0.464908 -0.474085 0
M  V30 67689 H 6600.27 -1.80988 -0.954173 0
M  V30 67690 H 6600.28 -2.33939 -3.3427 0
M  V30 67691 H 6598.95 -3.23348 -2.61571 0
M  V30 67692 H 6597.53 -1.57017 -3.38231 0
M  V30 67693 N 6599.72 0.997234 -1.22037 0
M  V30 67694 C 6600.94 1.77709 -1.06931 0
M  V30 67695 C 6601.37 1.84301 0.376128 0
M  V30 67696 O 6600.72 1.2923 1.27159 0
M  V30 67697 C 6600.77 3.19067 -1.68013 0
M  V30 67698 O 6599.88 4.01757 -0.930865 0
M  V30 67699 H 6599.22 0.547392 -0.375843 0
M  V30 67700 H 6601.75 1.25301 -1.61743 0
M  V30 67701 H 6601.76 3.69713 -1.72557 0
M  V30 67702 H 6600.43 3.13585 -2.73199 0
M  V30 67703 H 6599.01 3.60301 -0.961107 0
M  V30 67704 N 6601.19 1.02936 1.19339 0
M  V30 67705 C 6602.12 0.631224 2.24806 0
M  V30 67706 C 6603.11 -0.360016 1.66246 0
M  V30 67707 O 6604.29 -0.242625 1.92678 0
M  V30 67708 C 6601.42 -0.0182775 3.47295 0
M  V30 67709 C 6600.37 0.895294 4.18531 0
M  V30 67710 C 6599.7 0.110874 5.34585 0
M  V30 67711 C 6601 2.20925 4.73275 0
M  V30 67712 H 6602.69 1.51289 2.58364 0
M  V30 67713 H 6600.24 0.728884 1.24191 0
M  V30 67714 H 6602.19 -0.308453 4.2027 0
M  V30 67715 H 6600.92 -0.934742 3.12938 0
M  V30 67716 H 6599.58 1.16967 3.4744 0
M  V30 67717 H 6599.22 -0.807641 4.96474 0
M  V30 67718 H 6598.92 0.719395 5.8318 0
M  V30 67719 H 6600.45 -0.17255 6.10356 0
M  V30 67720 H 6601.86 1.98057 5.38002 0
M  V30 67721 H 6600.26 2.76974 5.32358 0
M  V30 67722 H 6601.33 2.86357 3.91316 0
M  V30 67723 N 6602.67 -1.35353 0.807294 0
M  V30 67724 C 6603.92 -1.99043 0.388568 0
M  V30 67725 C 6604.25 -1.63894 -1.04176 0
M  V30 67726 O 6603.53 -0.902626 -1.72287 0
M  V30 67727 C 6603.81 -3.55512 0.572971 0
M  V30 67728 C 6603.66 -4.00457 2.04828 0
M  V30 67729 C 6604.98 -4.401 -0.00090856 0
M  V30 67730 H 6602.1 -0.723062 0.142657 0
M  V30 67731 H 6604.74 -1.60493 1.01696 0
M  V30 67732 H 6602.89 -3.88481 0.0380474 0
M  V30 67733 H 6604.56 -3.77894 2.64564 0
M  V30 67734 H 6602.81 -3.5134 2.54446 0
M  V30 67735 H 6603.48 -5.09325 2.12818 0
M  V30 67736 H 6605.95 -4.13595 0.455934 0
M  V30 67737 H 6604.83 -5.48672 0.158026 0
M  V30 67738 H 6605.09 -4.28334 -1.09466 0
M  V30 67739 N 6604.15 -0.560859 -1.47283 0
M  V30 67740 C 6605.1 0.184788 -2.30059 0
M  V30 67741 C 6606.07 0.904912 -1.39286 0
M  V30 67742 O 6607.25 0.89989 -1.68246 0
M  V30 67743 C 6604.39 1.20649 -3.23323 0
M  V30 67744 C 6603.51 0.492058 -4.29189 0
M  V30 67745 C 6602.64 1.49937 -5.096 0
M  V30 67746 C 6601.68 0.770118 -6.07236 0
M  V30 67747 N 6600.82 1.72444 -6.80594 0
M  V30 67748 H 6605.66 -0.527203 -2.93299 0
M  V30 67749 H 6603.19 -0.271814 -1.44567 0
M  V30 67750 H 6605.15 1.81148 -3.75821 0
M  V30 67751 H 6603.78 1.88647 -2.61939 0
M  V30 67752 H 6602.83 -0.227533 -3.79719 0
M  V30 67753 H 6604.15 -0.0790559 -4.98737 0
M  V30 67754 H 6603.3 2.17779 -5.66266 0
M  V30 67755 H 6602.04 2.1044 -4.39961 0
M  V30 67756 H 6601.04 0.0777947 -5.49745 0
M  V30 67757 H 6602.27 0.170776 -6.78885 0
M  V30 67758 H 6600.21 2.31798 -6.13682 0
M  V30 67759 H 6600.13 1.20557 -7.46326 0
M  V30 67760 H 6601.4 2.39389 -7.41831 0
M  V30 67761 N 6605.63 1.54767 -0.297496 0
M  V30 67762 C 6607.04 1.8567 0.195849 0
M  V30 67763 C 6607.39 1.21945 1.537 0
M  V30 67764 O 6606.52 0.515865 2.10161 0
M  V30 67765 C 6607.11 3.36859 0.362141 0
M  V30 67766 C 6605.67 3.67807 0.799707 0
M  V30 67767 C 6604.82 2.77141 -0.0940039 0
M  V30 67768 H 6607.77 1.49987 -0.518617 0
M  V30 67769 H 6607.79 3.61173 1.19726 0
M  V30 67770 H 6607.3 3.8321 -0.614123 0
M  V30 67771 H 6605.4 3.26971 1.78665 0
M  V30 67772 H 6605.51 4.75051 0.621523 0
M  V30 67773 H 6603.88 2.5111 0.426122 0
M  V30 67774 H 6604.66 3.26312 -1.06656 0
M  V30 67775 N 6607.11 0.0251559 1.5758 0
M  V30 67776 C 6608.33 -0.668213 1.96341 0
M  V30 67777 C 6608.76 -1.65095 0.901401 0
M  V30 67778 O 6608.12 -1.80773 -0.138091 0
M  V30 67779 C 6608.16 -1.35439 3.34198 0
M  V30 67780 O 6607.27 -2.46957 3.30282 0
M  V30 67781 H 6606.61 -0.175853 0.64029 0
M  V30 67782 H 6609.14 0.0858302 2.0442 0
M  V30 67783 H 6609.15 -1.71209 3.7034 0
M  V30 67784 H 6607.82 -0.634001 4.11039 0
M  V30 67785 H 6606.4 -2.13328 3.05852 0
M  V30 67786 N 6608.59 -1.55637 -0.247944 0
M  V30 67787 C 6609.5 -1.93361 -1.32848 0
M  V30 67788 C 6610.51 -0.833918 -1.52715 0
M  V30 67789 O 6611.69 -1.13522 -1.66357 0
M  V30 67790 C 6608.75 -2.21972 -2.66325 0
M  V30 67791 C 6607.81 -3.45367 -2.5499 0
M  V30 67792 C 6607.05 -3.72605 -3.82101 0
M  V30 67793 O 6607.27 -3.01932 -4.83935 0
M  V30 67794 O 6606.2 -4.6613 -3.80797 0
M  V30 67795 H 6610.03 -2.85393 -1.03847 0
M  V30 67796 H 6607.61 -1.42506 -0.448611 0
M  V30 67797 H 6609.5 -2.41688 -3.45203 0
M  V30 67798 H 6608.17 -1.33119 -2.95061 0
M  V30 67799 H 6607.08 -3.3096 -1.74402 0
M  V30 67800 H 6608.41 -4.3452 -2.31199 0
M  V30 67801 N 6610.06 0.513561 -1.48998 0
M  V30 67802 C 6611.01 1.63736 -1.65207 0
M  V30 67803 C 6612.01 1.6128 -0.518175 0
M  V30 67804 O 6613.21 1.6594 -0.697423 0
M  V30 67805 H 6609.59 0.542546 -0.520718 0
M  V30 67806 H 6611.56 1.47213 -2.59559 0
M  V30 67807 C 6610.31 3.01935 -1.72425 0
M  V30 67808 H 6609.63 3.04526 -2.59045 0
M  V30 67809 H 6611.07 3.80138 -1.87805 0
M  V30 67810 C 6609.53 3.33657 -0.466356 0
M  V30 67811 O 6610.06 3.99566 0.413533 0
M  V30 67812 N 6608.26 2.88685 -0.333083 0
M  V30 67813 H 6607.81 2.35225 -1.05009 0
M  V30 67814 H 6607.77 3.10277 0.507502 0
M  V30 67815 N 6611.54 1.37861 0.763678 0
M  V30 67816 C 6612.79 1.33251 1.5195 0
M  V30 67817 C 6613.11 -0.0800682 1.94836 0
M  V30 67818 O 6612.38 -1.02573 1.669 0
M  V30 67819 H 6610.96 0.490269 0.5636 0
M  V30 67820 H 6613.62 1.72435 0.908413 0
M  V30 67821 H 6612.72 1.97681 2.41513 0
M  V30 67822 N 6613.02 -0.990748 1.22564 0
M  V30 67823 C 6613.97 -2.10248 0.994909 0
M  V30 67824 C 6614.96 -1.69284 -0.0626905 0
M  V30 67825 O 6616.17 -1.79775 0.089934 0
M  V30 67826 H 6612.54 -0.687565 0.304564 0
M  V30 67827 H 6614.51 -2.26881 1.93824 0
M  V30 67828 C 6613.26 -3.4263 0.591619 0
M  V30 67829 H 6612.59 -3.74595 1.3971 0
M  V30 67830 H 6614.03 -4.21391 0.469607 0
M  V30 67831 C 6612.48 -3.29568 -0.699058 0
M  V30 67832 O 6613.01 -3.61532 -1.75093 0
M  V30 67833 N 6611.22 -2.82746 -0.671033 0
M  V30 67834 H 6610.77 -2.56933 0.185271 0
M  V30 67835 H 6610.73 -2.74388 -1.53487 0
M  V30 67836 N 6614.5 -1.03568 -1.18792 0
M  V30 67837 C 6615.75 -0.734668 -1.88274 0
M  V30 67838 C 6616.07 0.73949 -1.80434 0
M  V30 67839 O 6615.34 1.53327 -1.21933 0
M  V30 67840 H 6613.92 -0.268762 -0.696977 0
M  V30 67841 H 6616.58 -1.31136 -1.44185 0
M  V30 67842 H 6615.67 -1.03505 -2.94437 0
M  V30 67843 N 6615.98 1.34923 -0.814461 0
M  V30 67844 C 6617.22 1.98834 -0.399118 0
M  V30 67845 C 6617.55 1.64444 1.03305 0
M  V30 67846 O 6616.83 0.91175 1.71806 0
M  V30 67847 C 6617.11 3.55204 -0.591817 0
M  V30 67848 C 6616.97 3.99365 -2.06949 0
M  V30 67849 C 6618.28 4.40094 -0.022431 0
M  V30 67850 H 6615.4 0.722295 -0.146489 0
M  V30 67851 H 6618.05 1.59951 -1.02546 0
M  V30 67852 H 6616.2 3.88456 -0.0586489 0
M  V30 67853 H 6617.87 3.76485 -2.66564 0
M  V30 67854 H 6616.11 3.49986 -2.56305 0
M  V30 67855 H 6616.78 5.0819 -2.15516 0
M  V30 67856 H 6619.26 4.13347 -0.477861 0
M  V30 67857 H 6618.13 5.48581 -0.187121 0
M  V30 67858 H 6618.39 4.28908 1.07193 0
M  V30 67859 N 6617.45 0.568661 1.46983 0
M  V30 67860 C 6618.68 0.0541047 2.06829 0
M  V30 67861 C 6619.1 -1.2447 1.4196 0
M  V30 67862 O 6618.45 -1.74934 0.520025 0
M  V30 67863 C 6618.5 -0.133171 3.61255 0
M  V30 67864 O 6618.23 1.11421 4.23694 0
M  V30 67865 C 6619.73 -0.683696 4.37996 0
M  V30 67866 H 6616.95 0.0510494 0.669055 0
M  V30 67867 H 6619.49 0.785334 1.88819 0
M  V30 67868 H 6617.65 -0.81457 3.78739 0
M  V30 67869 H 6618.06 0.919152 5.16383 0
M  V30 67870 H 6619.53 -0.763974 5.46688 0
M  V30 67871 H 6620.01 -1.69756 4.05067 0
M  V30 67872 H 6620.62 -0.0376252 4.25283 0
M  V30 67873 N 6618.93 -1.54607 0.3057 0
M  V30 67874 C 6620.18 -2.00232 -0.302193 0
M  V30 67875 C 6620.51 -1.19406 -1.53533 0
M  V30 67876 O 6619.76 -0.259526 -1.93972 0
M  V30 67877 C 6620.06 -3.50502 -0.698799 0
M  V30 67878 C 6619.73 -4.48815 0.43314 0
M  V30 67879 C 6618.39 -4.75416 0.743873 0
M  V30 67880 C 6620.74 -5.07331 1.19436 0
M  V30 67881 C 6618.07 -5.57794 1.81886 0
M  V30 67882 C 6620.42 -5.90879 2.2593 0
M  V30 67883 C 6619.08 -6.15789 2.57604 0
M  V30 67884 H 6618.35 -0.732703 -0.11058 0
M  V30 67885 H 6621 -1.86707 0.425773 0
M  V30 67886 H 6619.31 -3.61662 -1.50692 0
M  V30 67887 H 6621 -3.83233 -1.1804 0
M  V30 67888 H 6617.59 -4.28218 0.180856 0
M  V30 67889 H 6621.78 -4.86777 0.967551 0
M  V30 67890 H 6617.03 -5.7533 2.06894 0
M  V30 67891 H 6621.21 -6.35246 2.85369 0
M  V30 67892 H 6618.83 -6.79412 3.41033 0
M  V30 67893 N 6620.41 -0.0335124 -1.57564 0
M  V30 67894 C 6621.83 0.322915 -1.56299 0
M  V30 67895 C 6622.03 1.72614 -1.03955 0
M  V30 67896 O 6621.08 2.42939 -0.688237 0
M  V30 67897 C 6622.39 0.167506 -3.00233 0
M  V30 67898 C 6623.94 0.239942 -3.12079 0
M  V30 67899 C 6624.42 0.113271 -4.5786 0
M  V30 67900 N 6625.91 0.170115 -4.62888 0
M  V30 67901 C 6626.64 0.0959494 -5.7332 0
M  V30 67902 N 6626.14 -0.0295534 -6.92794 0
M  V30 67903 N 6627.93 0.150255 -5.61899 0
M  V30 67904 H 6620.08 -0.951056 -1.89918 0
M  V30 67905 H 6622.35 -0.367654 -0.873805 0
M  V30 67906 H 6622.05 -0.799283 -3.42497 0
M  V30 67907 H 6621.93 0.935891 -3.65405 0
M  V30 67908 H 6624.31 1.19719 -2.69724 0
M  V30 67909 H 6624.39 -0.558895 -2.4962 0
M  V30 67910 H 6624.04 -0.840579 -5.00896 0
M  V30 67911 H 6623.97 0.931028 -5.18304 0
M  V30 67912 H 6626.46 0.267082 -3.76955 0
M  V30 67913 H 6626.77 -0.0793327 -7.72759 0
M  V30 67914 H 6625.12 -0.0643964 -6.9497 0
M  V30 67915 H 6628.31 0.246734 -4.67449 0
M  V30 67916 H 6628.48 0.0889948 -6.47939 0
M  V30 67917 N 6621.89 1.55767 0.239687 0
M  V30 67918 C 6623.11 1.8234 0.988276 0
M  V30 67919 C 6623.54 0.611515 1.77882 0
M  V30 67920 O 6622.9 -0.439546 1.75891 0
M  V30 67921 C 6622.94 3.06725 1.8961 0
M  V30 67922 O 6622.05 2.84147 2.98889 0
M  V30 67923 H 6621.39 0.601691 0.280826 0
M  V30 67924 H 6623.92 2.02961 0.25849 0
M  V30 67925 H 6623.93 3.3635 2.30939 0
M  V30 67926 H 6622.6 3.94567 1.3149 0
M  V30 67927 H 6621.18 2.65708 2.61637 0
M  V30 67928 N 6623.37 -0.505652 1.49268 0
M  V30 67929 C 6624.61 -1.25758 1.58207 0
M  V30 67930 C 6624.94 -1.93141 0.268584 0
M  V30 67931 O 6624.21 -1.82513 -0.711737 0
M  V30 67932 H 6622.79 -0.467161 0.582898 0
M  V30 67933 H 6625.45 -0.586427 1.85868 0
M  V30 67934 H 6624.54 -2.02399 2.37573 0
M  V30 67935 N 6624.84 -1.38264 -0.756356 0
M  V30 67936 C 6625.81 -1.35075 -1.85169 0
M  V30 67937 C 6626.81 -0.251787 -1.58816 0
M  V30 67938 O 6628 -0.50852 -1.66612 0
M  V30 67939 C 6625.13 -1.10218 -3.22591 0
M  V30 67940 H 6626.32 -2.3252 -1.89405 0
M  V30 67941 H 6623.88 -1.23517 -0.957765 0
M  V30 67942 H 6624.61 -0.133675 -3.24024 0
M  V30 67943 H 6624.4 -1.8978 -3.43112 0
M  V30 67944 H 6625.89 -1.10675 -4.02667 0
M  V30 67945 N 6626.32 0.984234 -1.23088 0
M  V30 67946 C 6627.6 1.69912 -0.968989 0
M  V30 67947 C 6627.98 2.04759 0.513496 0
M  V30 67948 O 6627.33 1.73774 1.48374 0
M  V30 67949 C 6627.54 2.94333 -1.87534 0
M  V30 67950 C 6628.89 3.66929 -2.13655 0
M  V30 67951 O 6629.91 3.04358 -1.85053 0
M  V30 67952 O 6628.77 4.79524 -2.62144 0
M  V30 67953 H 6625.86 0.742029 -0.365134 0
M  V30 67954 H 6628.41 1.0398 -1.34113 0
M  V30 67955 H 6627.18 2.65149 -2.8777 0
M  V30 67956 H 6626.8 3.68002 -1.50533 0
M  V30 67957 N 6627.8 1.04196 1.18241 0
M  V30 67958 C 6628.73 0.655032 2.24124 0
M  V30 67959 C 6629.71 -0.342364 1.66619 0
M  V30 67960 O 6630.9 -0.222175 1.92925 0
M  V30 67961 C 6628.03 0.0185588 3.47295 0
M  V30 67962 C 6626.98 0.939635 4.17558 0
M  V30 67963 C 6626.31 0.167568 5.34437 0
M  V30 67964 C 6627.61 2.25932 4.70905 0
M  V30 67965 H 6629.3 1.54021 2.56745 0
M  V30 67966 H 6626.85 0.742015 1.2341 0
M  V30 67967 H 6628.8 -0.263861 4.20573 0
M  V30 67968 H 6627.52 -0.901498 3.13912 0
M  V30 67969 H 6626.18 1.20646 3.46179 0
M  V30 67970 H 6625.83 -0.754937 4.97302 0
M  V30 67971 H 6625.53 0.781208 5.82384 0
M  V30 67972 H 6627.05 -0.107803 6.10505 0
M  V30 67973 H 6628.47 2.03752 5.35871 0
M  V30 67974 H 6626.87 2.82605 5.29391 0
M  V30 67975 H 6627.94 2.90491 3.88256 0
M  V30 67976 N 6629.28 -1.34489 0.821604 0
M  V30 67977 C 6630.23 -2.31452 0.230824 0
M  V30 67978 C 6631.22 -1.57341 -0.62771 0
M  V30 67979 O 6632.43 -1.72349 -0.519197 0
M  V30 67980 H 6628.8 -0.74992 0.0558973 0
M  V30 67981 H 6630.77 -2.78806 1.06346 0
M  V30 67982 C 6629.52 -3.42593 -0.593729 0
M  V30 67983 H 6628.84 -3.99759 0.0575696 0
M  V30 67984 H 6630.28 -4.12679 -0.973228 0
M  V30 67985 C 6628.74 -2.86933 -1.76553 0
M  V30 67986 O 6629.27 -2.81706 -2.86365 0
M  V30 67987 N 6627.48 -2.43774 -1.58185 0
M  V30 67988 H 6627.03 -2.48226 -0.688589 0
M  V30 67989 H 6626.98 -2.06884 -2.36741 0
M  V30 67990 N 6630.76 -0.576448 -1.46679 0
M  V30 67991 C 6631.69 0.208611 -2.27244 0
M  V30 67992 C 6632.67 0.902674 -1.35243 0
M  V30 67993 O 6633.85 0.917817 -1.64646 0
M  V30 67994 C 6630.98 1.29879 -3.12808 0
M  V30 67995 C 6630.02 0.711235 -4.20528 0
M  V30 67996 S 6630.86 -0.457062 -5.33546 0
M  V30 67997 C 6632.01 0.63447 -6.22676 0
M  V30 67998 H 6632.25 -0.474993 -2.93481 0
M  V30 67999 H 6629.78 -0.363197 -1.50067 0
M  V30 68000 H 6631.74 1.92302 -3.62671 0
M  V30 68001 H 6630.4 1.95431 -2.45897 0
M  V30 68002 H 6629.59 1.5305 -4.802 0
M  V30 68003 H 6629.19 0.162802 -3.73645 0
M  V30 68004 H 6631.49 1.52174 -6.60189 0
M  V30 68005 H 6632.43 0.0746577 -7.08061 0
M  V30 68006 H 6632.84 0.935798 -5.56689 0
M  V30 68007 N 6632.23 1.54442 -0.313895 0
M  V30 68008 C 6633.51 1.92527 0.345345 0
M  V30 68009 C 6633.89 1.24251 1.7066 0
M  V30 68010 O 6633.24 0.382773 2.25271 0
M  V30 68011 C 6633.45 3.46123 0.447188 0
M  V30 68012 C 6634.8 4.18587 0.712017 0
M  V30 68013 O 6635.82 3.52228 0.530493 0
M  V30 68014 O 6634.68 5.36091 1.06155 0
M  V30 68015 H 6631.77 0.803593 0.195365 0
M  V30 68016 H 6634.32 1.65774 -0.362901 0
M  V30 68017 H 6633.09 3.87972 -0.509248 0
M  V30 68018 H 6632.72 3.78951 1.20339 0
M  V30 68019 N 6633.71 0.0418679 1.57544 0
M  V30 68020 C 6634.96 -0.633391 1.91497 0
M  V30 68021 C 6635.27 -1.72551 0.921175 0
M  V30 68022 O 6636.48 -2.45829 1.15241 0
M  V30 68023 C 6634.94 -1.17791 3.40079 0
M  V30 68024 C 6634.54 -0.118397 4.47844 0
M  V30 68025 C 6636.29 -1.82894 3.83079 0
M  V30 68026 C 6634.2 -0.675269 5.87532 0
M  V30 68027 H 6633.13 -0.240352 0.714666 0
M  V30 68028 H 6635.78 0.109245 1.83175 0
M  V30 68029 H 6634.16 -1.97256 3.43374 0
M  V30 68030 H 6635.33 0.654735 4.56125 0
M  V30 68031 H 6633.65 0.434633 4.14125 0
M  V30 68032 H 6636.24 -2.25537 4.84806 0
M  V30 68033 H 6636.59 -2.67688 3.18824 0
M  V30 68034 H 6637.12 -1.10099 3.8226 0
M  V30 68035 H 6633.86 0.134821 6.55361 0
M  V30 68036 H 6633.38 -1.4166 5.82832 0
M  V30 68037 H 6635.06 -1.16106 6.36497 0
M  V30 68038 N 6635.19 -1.55892 -0.231423 0
M  V30 68039 C 6636.44 -1.78093 -0.955367 0
M  V30 68040 C 6636.76 -0.60863 -1.85258 0
M  V30 68041 O 6636.03 0.374933 -1.92279 0
M  V30 68042 H 6634.61 -0.656848 -0.355752 0
M  V30 68043 H 6637.27 -1.93346 -0.245649 0
M  V30 68044 H 6636.37 -2.69852 -1.568 0
M  V30 68045 N 6636.67 0.497729 -1.49534 0
M  V30 68046 C 6637.92 1.2535 -1.59422 0
M  V30 68047 C 6638.25 1.92149 -0.281523 0
M  V30 68048 O 6637.52 1.80875 0.715154 0
M  V30 68049 C 6637.81 2.31795 -2.75578 0
M  V30 68050 C 6637.66 1.69476 -4.16651 0
M  V30 68051 C 6638.98 3.33331 -2.87365 0
M  V30 68052 H 6636.1 0.454377 -0.580268 0
M  V30 68053 H 6638.74 0.551166 -1.8183 0
M  V30 68054 H 6636.89 2.91698 -2.56602 0
M  V30 68055 H 6638.56 1.13376 -4.47151 0
M  V30 68056 H 6636.8 0.998756 -4.22146 0
M  V30 68057 H 6637.48 2.46699 -4.93805 0
M  V30 68058 H 6639.95 2.83422 -3.04649 0
M  V30 68059 H 6638.83 4.05168 -3.7031 0
M  V30 68060 H 6639.09 3.95854 -1.96855 0
M  V30 68061 N 6638.15 1.38663 0.749013 0
M  V30 68062 C 6639.37 1.38546 1.54337 0
M  V30 68063 C 6639.8 -0.0215664 1.88088 0
M  V30 68064 O 6639.16 -1.00486 1.50905 0
M  V30 68065 C 6639.2 2.25207 2.81628 0
M  V30 68066 O 6638.31 1.67231 3.76971 0
M  V30 68067 H 6637.65 0.472391 0.466629 0
M  V30 68068 H 6640.18 1.82483 0.925259 0
M  V30 68069 H 6640.19 2.39227 3.30506 0
M  V30 68070 H 6638.86 3.27468 2.56393 0
M  V30 68071 H 6637.44 1.62378 3.3569 0
M  V30 68072 N 6639.63 -0.977692 1.23608 0
M  V30 68073 C 6640.87 -1.71595 1.06768 0
M  V30 68074 C 6641.19 -1.9094 -0.395828 0
M  V30 68075 O 6640.46 -1.47999 -1.28348 0
M  V30 68076 H 6639.04 -0.635822 0.392096 0
M  V30 68077 H 6641.71 -1.17672 1.55368 0
M  V30 68078 H 6640.8 -2.70444 1.55777 0
M  V30 68079 N 6641.1 -1.04822 -1.17686 0
M  V30 68080 C 6642.35 -0.756089 -1.87855 0
M  V30 68081 C 6642.68 0.716657 -1.80816 0
M  V30 68082 O 6641.93 1.53946 -1.20827 0
M  V30 68083 C 6642.23 -1.1772 -3.37456 0
M  V30 68084 C 6641.9 -2.65152 -3.64699 0
M  V30 68085 C 6640.56 -3.05428 -3.71843 0
M  V30 68086 C 6642.91 -3.60441 -3.76472 0
M  V30 68087 C 6640.24 -4.39864 -3.88248 0
M  V30 68088 C 6642.59 -4.94606 -3.94395 0
M  V30 68089 C 6641.26 -5.34541 -3.99778 0
M  V30 68090 H 6640.53 -0.276673 -0.687411 0
M  V30 68091 H 6643.17 -1.31462 -1.39248 0
M  V30 68092 H 6641.48 -0.5376 -3.88094 0
M  V30 68093 H 6643.18 -0.928423 -3.90104 0
M  V30 68094 H 6639.77 -2.32961 -3.5976 0
M  V30 68095 H 6643.95 -3.30467 -3.70278 0
M  V30 68096 H 6639.21 -4.70312 -3.90662 0
M  V30 68097 H 6643.38 -5.68339 -4.02447 0
M  V30 68098 H 6641.01 -6.38718 -4.12242 0
M  V30 68099 N 6642.58 1.34052 -0.828725 0
M  V30 68100 C 6643.83 1.97715 -0.418734 0
M  V30 68101 C 6644.15 1.66008 1.02306 0
M  V30 68102 O 6643.42 0.953773 1.71114 0
M  V30 68103 H 6642 0.731404 -0.151848 0
M  V30 68104 H 6644.66 1.6359 -1.05945 0
M  V30 68105 H 6643.76 3.07349 -0.54248 0
M  V30 68106 N 6644.06 0.584219 1.46372 0
M  V30 68107 C 6645.47 0.158057 1.8603 0
M  V30 68108 C 6645.82 -1.27926 1.4876 0
M  V30 68109 O 6644.95 -1.9665 0.903202 0
M  V30 68110 C 6645.54 0.28007 3.3764 0
M  V30 68111 C 6644.1 -0.0912316 3.76289 0
M  V30 68112 C 6643.25 0.615321 2.70387 0
M  V30 68113 H 6646.2 0.792346 1.37505 0
M  V30 68114 H 6646.22 -0.494165 3.77277 0
M  V30 68115 H 6645.73 1.32626 3.64735 0
M  V30 68116 H 6643.83 -1.1375 3.54812 0
M  V30 68117 H 6643.95 0.286138 4.78245 0
M  V30 68118 H 6642.31 0.0554175 2.5464 0
M  V30 68119 H 6643.09 1.66319 3.00321 0
M  V30 68120 N 6645.54 -1.54274 0.322081 0
M  V30 68121 C 6646.45 -2.27977 -0.553511 0
M  V30 68122 C 6647.46 -1.32274 -1.13047 0
M  V30 68123 O 6648.64 -1.65286 -1.15076 0
M  V30 68124 C 6645.7 -3.0221 -1.69911 0
M  V30 68125 C 6644.77 -4.13496 -1.15411 0
M  V30 68126 C 6644 -4.8418 -2.24512 0
M  V30 68127 O 6644.22 -4.54368 -3.44828 0
M  V30 68128 O 6643.16 -5.7112 -1.90014 0
M  V30 68129 H 6646.98 -3.03667 0.0449946 0
M  V30 68130 H 6644.57 -1.49142 0.0878205 0
M  V30 68131 H 6646.45 -3.48702 -2.36611 0
M  V30 68132 H 6645.12 -2.29397 -2.28383 0
M  V30 68133 H 6644.03 -3.71356 -0.45224 0
M  V30 68134 H 6645.36 -4.88348 -0.614548 0
M  V30 68135 N 6647.02 -0.0502223 -1.5752 0
M  V30 68136 C 6648.24 0.633388 -1.96967 0
M  V30 68137 C 6648.66 1.64435 -0.927717 0
M  V30 68138 O 6648.02 1.82287 0.0881703 0
M  V30 68139 C 6648.07 1.32114 -3.36494 0
M  V30 68140 O 6647.79 0.350664 -4.36694 0
M  V30 68141 C 6649.29 2.0946 -3.90693 0
M  V30 68142 H 6646.51 0.173232 -0.648253 0
M  V30 68143 H 6649.05 -0.116241 -2.04169 0
M  V30 68144 H 6647.21 2.02201 -3.30445 0
M  V30 68145 H 6647.62 0.841462 -5.17706 0
M  V30 68146 H 6649.1 2.53004 -4.90605 0
M  V30 68147 H 6649.57 2.94238 -3.26069 0
M  V30 68148 H 6650.18 1.44286 -4.00077 0
M  V30 68149 N 6648.49 1.56012 0.223152 0
M  V30 68150 C 6649.46 1.91457 1.26004 0
M  V30 68151 C 6650.46 0.79301 1.39886 0
M  V30 68152 O 6651.65 1.06078 1.38178 0
M  V30 68153 C 6648.78 2.16397 2.63411 0
M  V30 68154 H 6649.97 2.84194 0.95781 0
M  V30 68155 H 6647.52 1.4927 0.463498 0
M  V30 68156 H 6648.26 1.26206 2.98735 0
M  V30 68157 H 6648.04 2.98101 2.54712 0
M  V30 68158 H 6649.53 2.4492 3.38236 0
M  V30 68159 N 6649.97 -0.489791 1.49796 0
M  V30 68160 C 6651.22 -1.23986 1.59092 0
M  V30 68161 C 6651.53 -1.93468 0.288009 0
M  V30 68162 O 6652.74 -2.70256 0.259649 0
M  V30 68163 C 6651.2 -2.25186 2.80748 0
M  V30 68164 C 6650.8 -1.61592 4.17842 0
M  V30 68165 C 6652.55 -3.00951 2.9938 0
M  V30 68166 C 6650.45 -2.60968 5.30707 0
M  V30 68167 H 6649.38 -0.466457 0.592397 0
M  V30 68168 H 6652.04 -0.512427 1.762 0
M  V30 68169 H 6650.42 -3.01141 2.57158 0
M  V30 68170 H 6651.59 -0.915536 4.51613 0
M  V30 68171 H 6649.91 -0.981763 4.04661 0
M  V30 68172 H 6652.5 -3.75288 3.80871 0
M  V30 68173 H 6652.85 -3.59233 2.10375 0
M  V30 68174 H 6653.38 -2.32111 3.23063 0
M  V30 68175 H 6650.12 -2.07452 6.21807 0
M  V30 68176 H 6649.64 -3.29214 5.01376 0
M  V30 68177 H 6651.32 -3.23173 5.60507 0
M  V30 68178 N 6651.45 -1.39059 -0.741649 0
M  V30 68179 C 6652.73 -1.26433 -1.49245 0
M  V30 68180 C 6653.11 0.129033 -2.10705 0
M  V30 68181 O 6652.46 1.13966 -1.98051 0
M  V30 68182 C 6652.67 -2.38361 -2.54922 0
M  V30 68183 C 6654.01 -2.7736 -3.21491 0
M  V30 68184 O 6655.04 -2.37761 -2.65232 0
M  V30 68185 O 6653.9 -3.45687 -4.23276 0
M  V30 68186 H 6650.99 -0.495099 -0.662424 0
M  V30 68187 H 6653.54 -1.50916 -0.776041 0
M  V30 68188 H 6652.31 -3.3154 -2.07839 0
M  V30 68189 H 6651.93 -2.15507 -3.3413 0
M  V30 68190 N 6652.93 0.971123 -1.24125 0
M  V30 68191 C 6654.34 1.2391 -1.0059 0
M  V30 68192 C 6654.54 1.9944 0.287375 0
M  V30 68193 O 6653.6 2.31663 1.00442 0
M  V30 68194 C 6654.91 2.02959 -2.21874 0
M  V30 68195 C 6656.46 2.16064 -2.26463 0
M  V30 68196 C 6656.94 2.98506 -3.47359 0
M  V30 68197 N 6658.43 3.06089 -3.47655 0
M  V30 68198 C 6659.16 3.70228 -4.37857 0
M  V30 68199 N 6658.66 4.36114 -5.38309 0
M  V30 68200 N 6660.45 3.67206 -4.25577 0
M  V30 68201 H 6652.6 0.46539 -2.07239 0
M  V30 68202 H 6654.87 0.268267 -0.909251 0
M  V30 68203 H 6654.57 1.54844 -3.15779 0
M  V30 68204 H 6654.45 3.03697 -2.23714 0
M  V30 68205 H 6656.83 2.63383 -1.33092 0
M  V30 68206 H 6656.91 1.14684 -2.28651 0
M  V30 68207 H 6656.56 2.51881 -4.41042 0
M  V30 68208 H 6656.49 4.00075 -3.42414 0
M  V30 68209 H 6658.98 2.59219 -2.7498 0
M  V30 68210 H 6659.29 4.82862 -6.03377 0
M  V30 68211 H 6657.64 4.34793 -5.42199 0
M  V30 68212 H 6660.83 3.14908 -3.46338 0
M  V30 68213 H 6661 4.16909 -4.96076 0
M  V30 68214 N 6654.41 1.05445 1.17129 0
M  V30 68215 C 6655.63 0.786497 1.91909 0
M  V30 68216 C 6656.06 -0.652141 1.76433 0
M  V30 68217 O 6655.41 -1.45339 1.0838 0
M  V30 68218 C 6655.46 1.17515 3.40914 0
M  V30 68219 O 6654.57 0.308806 4.11242 0
M  V30 68220 H 6653.91 0.288189 0.5982 0
M  V30 68221 H 6656.44 1.40798 1.48449 0
M  V30 68222 H 6656.45 1.14301 3.91662 0
M  V30 68223 H 6655.12 2.22311 3.51498 0
M  V30 68224 H 6653.7 0.401765 3.70729 0
M  V30 68225 N 6655.88 -1.3361 0.835823 0
M  V30 68226 C 6656.82 -2.27214 0.211935 0
M  V30 68227 C 6657.8 -1.4951 -0.63917 0
M  V30 68228 O 6658.98 -1.78693 -0.600099 0
M  V30 68229 C 6656.11 -3.3133 -0.702719 0
M  V30 68230 C 6655.15 -4.26438 0.0725298 0
M  V30 68231 S 6655.99 -5.16098 1.42838 0
M  V30 68232 C 6657.14 -6.23745 0.518942 0
M  V30 68233 H 6657.37 -2.79781 1.00548 0
M  V30 68234 H 6654.91 -1.40854 0.63241 0
M  V30 68235 H 6656.87 -3.91801 -1.22484 0
M  V30 68236 H 6655.53 -2.77584 -1.4699 0
M  V30 68237 H 6654.72 -5.00131 -0.623327 0
M  V30 68238 H 6654.32 -3.70288 0.525619 0
M  V30 68239 H 6656.61 -6.76903 -0.284421 0
M  V30 68240 H 6657.56 -6.97407 1.22593 0
M  V30 68241 H 6657.96 -5.64408 0.101642 0
M  V30 68242 N 6657.36 -0.591973 -1.4606 0
M  V30 68243 C 6658.33 0.125852 -2.28854 0
M  V30 68244 C 6659.33 0.810034 -1.38907 0
M  V30 68245 O 6660.52 0.660575 -1.61189 0
M  V30 68246 C 6657.65 1.18793 -3.19533 0
M  V30 68247 H 6658.84 -0.601872 -2.93798 0
M  V30 68248 H 6656.39 -0.350335 -1.52323 0
M  V30 68249 H 6657.13 1.94693 -2.59355 0
M  V30 68250 H 6656.91 0.701732 -3.8577 0
M  V30 68251 H 6658.4 1.69112 -3.81826 0
M  V30 68252 N 6658.84 1.54101 -0.330258 0
M  V30 68253 C 6659.77 2.20828 0.575361 0
M  V30 68254 C 6660.75 1.18764 1.11058 0
M  V30 68255 O 6661.94 1.4753 1.17334 0
M  V30 68256 C 6659.06 2.87525 1.79017 0
M  V30 68257 C 6658.11 4.03365 1.3856 0
M  V30 68258 S 6658.94 5.33877 0.41663 0
M  V30 68259 C 6660.1 6.04071 1.63857 0
M  V30 68260 H 6660.33 2.97299 0.00856436 0
M  V30 68261 H 6657.86 1.53976 -0.114335 0
M  V30 68262 H 6659.82 3.26573 2.48717 0
M  V30 68263 H 6658.48 2.10845 2.32816 0
M  V30 68264 H 6657.68 4.4892 2.29099 0
M  V30 68265 H 6657.28 3.66025 0.768226 0
M  V30 68266 H 6659.57 6.26657 2.57503 0
M  V30 68267 H 6660.51 6.97422 1.22505 0
M  V30 68268 H 6660.92 5.34063 1.82859 0
M  V30 68269 N 6660.32 0.0585753 1.57491 0
M  V30 68270 C 6661.54 -0.626416 1.97714 0
M  V30 68271 C 6661.97 -1.63146 0.936218 0
M  V30 68272 O 6661.33 -1.81026 -0.0997155 0
M  V30 68273 C 6661.37 -1.2832 3.36996 0
M  V30 68274 O 6660.48 -2.39896 3.35446 0
M  V30 68275 H 6659.82 -0.162232 0.643876 0
M  V30 68276 H 6662.35 0.129171 2.04192 0
M  V30 68277 H 6662.36 -1.63315 3.73888 0
M  V30 68278 H 6661.03 -0.546671 4.12292 0
M  V30 68279 H 6659.61 -2.06792 3.10308 0
M  V30 68280 N 6661.8 -1.56128 -0.214875 0
M  V30 68281 C 6662.71 -1.96135 -1.28717 0
M  V30 68282 C 6663.72 -0.866124 -1.50912 0
M  V30 68283 O 6664.9 -1.17025 -1.63912 0
M  V30 68284 C 6661.96 -2.27572 -2.61557 0
M  V30 68285 C 6661.02 -3.50698 -2.47607 0
M  V30 68286 C 6660.26 -3.80626 -3.74112 0
M  V30 68287 O 6660.48 -3.12129 -4.77422 0
M  V30 68288 O 6659.41 -4.74102 -3.70824 0
M  V30 68289 H 6663.24 -2.87532 -0.977704 0
M  V30 68290 H 6660.83 -1.43425 -0.418283 0
M  V30 68291 H 6662.71 -2.48956 -3.39999 0
M  V30 68292 H 6661.38 -1.39347 -2.92171 0
M  V30 68293 H 6660.29 -3.34585 -1.67343 0
M  V30 68294 H 6661.62 -4.39326 -2.21931 0
M  V30 68295 N 6663.27 0.481841 -1.50054 0
M  V30 68296 C 6664.55 1.24312 -1.51016 0
M  V30 68297 C 6664.93 2.0963 -0.248698 0
M  V30 68298 O 6664.28 2.15196 0.768295 0
M  V30 68299 C 6664.49 2.08341 -2.79991 0
M  V30 68300 C 6665.84 2.6689 -3.30234 0
M  V30 68301 O 6666.86 2.18592 -2.8124 0
M  V30 68302 O 6665.72 3.54862 -4.15614 0
M  V30 68303 H 6662.81 0.563541 -0.605269 0
M  V30 68304 H 6665.36 0.494541 -1.62334 0
M  V30 68305 H 6664.13 1.454 -3.63283 0
M  V30 68306 H 6663.76 2.90354 -2.71625 0
M  V30 68307 N 6664.75 1.3945 0.734264 0
M  V30 68308 C 6666 1.36714 1.49384 0
M  V30 68309 C 6666.33 -0.0366787 1.94465 0
M  V30 68310 O 6665.58 -1.01765 1.6716 0
M  V30 68311 C 6665.88 2.28638 2.74699 0
M  V30 68312 C 6665.55 3.76255 2.48481 0
M  V30 68313 C 6664.21 4.16477 2.4104 0
M  V30 68314 C 6666.56 4.69617 2.26073 0
M  V30 68315 C 6663.89 5.48123 2.09233 0
M  V30 68316 C 6666.24 6.01541 1.95783 0
M  V30 68317 C 6664.91 6.40826 1.86811 0
M  V30 68318 H 6664.18 0.500271 0.546635 0
M  V30 68319 H 6666.82 1.71962 0.842698 0
M  V30 68320 H 6665.13 1.86511 3.44559 0
M  V30 68321 H 6666.82 2.23814 3.32729 0
M  V30 68322 H 6663.41 3.44377 2.55151 0
M  V30 68323 H 6667.6 4.39375 2.30789 0
M  V30 68324 H 6662.85 5.77482 2.0081 0
M  V30 68325 H 6667.03 6.73412 1.77453 0
M  V30 68326 H 6664.66 7.42753 1.61931 0
M  V30 68327 N 6666.23 -0.964527 1.24638 0
M  V30 68328 C 6667.48 -1.71044 1.08958 0
M  V30 68329 C 6667.81 -1.90639 -0.370201 0
M  V30 68330 O 6667.09 -1.47018 -1.27342 0
M  V30 68331 C 6667.37 -3.0993 1.83345 0
M  V30 68332 C 6667.22 -2.97806 3.37093 0
M  V30 68333 C 6668.54 -4.09646 1.60868 0
M  V30 68334 H 6665.66 -0.6208 0.397211 0
M  V30 68335 H 6668.3 -1.12183 1.53346 0
M  V30 68336 H 6666.45 -3.60178 1.45616 0
M  V30 68337 H 6668.12 -2.5496 3.84439 0
M  V30 68338 H 6666.37 -2.33946 3.6531 0
M  V30 68339 H 6667.04 -3.96211 3.84345 0
M  V30 68340 H 6669.51 -3.68269 1.93694 0
M  V30 68341 H 6668.39 -5.04884 2.15367 0
M  V30 68342 H 6668.65 -4.38695 0.547666 0
M  V30 68343 N 6667.71 -1.06064 -1.16568 0
M  V30 68344 C 6668.64 -0.613636 -2.19795 0
M  V30 68345 C 6669.62 0.362369 -1.58511 0
M  V30 68346 O 6670.8 0.271895 -1.86529 0
M  V30 68347 C 6667.93 0.100736 -3.3855 0
M  V30 68348 C 6666.98 -0.831659 -4.18313 0
M  V30 68349 S 6667.81 -2.32564 -4.82363 0
M  V30 68350 C 6668.97 -1.62269 -6.04499 0
M  V30 68351 H 6669.2 -1.48819 -2.57372 0
M  V30 68352 H 6666.73 -0.873405 -1.27322 0
M  V30 68353 H 6668.69 0.506684 -4.07361 0
M  V30 68354 H 6667.35 0.951446 -2.99343 0
M  V30 68355 H 6666.54 -0.278336 -5.03231 0
M  V30 68356 H 6666.15 -1.17738 -3.54984 0
M  V30 68357 H 6668.44 -0.926976 -6.71128 0
M  V30 68358 H 6669.38 -2.44969 -6.64376 0
M  V30 68359 H 6669.79 -1.10629 -5.53554 0
M  V30 68360 N 6669.19 1.33165 -0.842897 0
M  V30 68361 C 6670.1 2.32904 -0.281567 0
M  V30 68362 C 6671.11 1.63529 0.594501 0
M  V30 68363 O 6672.29 1.95154 0.497667 0
M  V30 68364 C 6669.35 3.42613 0.530748 0
M  V30 68365 C 6668.42 4.27702 -0.370069 0
M  V30 68366 C 6667.65 5.32172 0.403572 0
M  V30 68367 O 6667.87 5.4647 1.63484 0
M  V30 68368 O 6666.81 6.01481 -0.224516 0
M  V30 68369 H 6670.63 2.82783 -1.10759 0
M  V30 68370 H 6668.22 1.36579 -0.605522 0
M  V30 68371 H 6670.1 4.09552 0.992221 0
M  V30 68372 H 6668.77 2.94945 1.33377 0
M  V30 68373 H 6667.68 3.63615 -0.879467 0
M  V30 68374 H 6669.01 4.78865 -1.13796 0
M  V30 68375 N 6670.67 0.599711 1.45744 0
M  V30 68376 C 6671.6 -0.172432 2.27548 0
M  V30 68377 C 6672.58 -0.881044 1.36662 0
M  V30 68378 O 6673.76 -0.891507 1.66086 0
M  V30 68379 C 6670.89 -1.24886 3.14835 0
M  V30 68380 C 6669.93 -0.644243 4.21606 0
M  V30 68381 S 6670.77 0.541887 5.32751 0
M  V30 68382 C 6671.92 -0.535327 6.23606 0
M  V30 68383 H 6672.16 0.521623 2.92688 0
M  V30 68384 H 6669.69 0.387025 1.49471 0
M  V30 68385 H 6671.65 -1.86508 3.65685 0
M  V30 68386 H 6670.31 -1.91495 2.48975 0
M  V30 68387 H 6669.5 -1.45391 4.82574 0
M  V30 68388 H 6669.1 -0.103337 3.73857 0
M  V30 68389 H 6671.39 -1.41652 6.62526 0
M  V30 68390 H 6672.34 0.037998 7.0809 0
M  V30 68391 H 6672.75 -0.847116 5.58108 0
M  V30 68392 N 6672.14 -1.53923 0.338426 0
M  V30 68393 C 6673.39 -2.00432 -0.25914 0
M  V30 68394 C 6673.71 -1.22799 -1.51477 0
M  V30 68395 O 6672.98 -0.333781 -1.93036 0
M  V30 68396 H 6671.56 -0.740445 -0.0987455 0
M  V30 68397 H 6674.22 -1.89433 0.458401 0
M  V30 68398 H 6673.32 -3.07984 -0.505172 0
M  V30 68399 N 6673.62 -0.0669266 -1.57458 0
M  V30 68400 C 6674.57 0.90201 -2.12444 0
M  V30 68401 C 6675.54 1.29854 -1.03572 0
M  V30 68402 O 6676.72 1.38525 -1.31207 0
M  V30 68403 C 6673.86 2.16599 -2.68661 0
M  V30 68404 C 6672.98 1.82253 -3.91673 0
M  V30 68405 C 6672.11 3.03227 -4.3615 0
M  V30 68406 C 6671.15 2.64875 -5.51822 0
M  V30 68407 N 6670.29 3.78593 -5.9128 0
M  V30 68408 H 6675.13 0.426226 -2.94936 0
M  V30 68409 H 6672.66 0.198742 -1.45751 0
M  V30 68410 H 6674.62 2.90584 -2.99361 0
M  V30 68411 H 6673.25 2.61727 -1.88941 0
M  V30 68412 H 6672.3 0.983525 -3.67466 0
M  V30 68413 H 6673.62 1.50034 -4.75701 0
M  V30 68414 H 6672.77 3.85495 -4.68486 0
M  V30 68415 H 6671.51 3.38636 -3.50966 0
M  V30 68416 H 6670.51 1.81028 -5.19143 0
M  V30 68417 H 6671.74 2.30641 -6.38734 0
M  V30 68418 H 6669.69 4.13773 -5.09046 0
M  V30 68419 H 6669.6 3.50125 -6.70036 0
M  V30 68420 H 6670.87 4.61453 -6.28237 0
M  V30 68421 N 6675.1 1.5624 0.206592 0
M  V30 68422 C 6676.03 1.90137 1.27987 0
M  V30 68423 C 6677.04 0.790958 1.42294 0
M  V30 68424 O 6678.23 1.06933 1.42925 0
M  V30 68425 C 6675.33 2.10806 2.65357 0
M  V30 68426 C 6674.51 3.419 2.72806 0
M  V30 68427 C 6673.57 3.5182 3.91292 0
M  V30 68428 O 6672.59 4.24736 3.78931 0
M  V30 68429 N 6673.79 2.84061 5.0625 0
M  V30 68430 H 6676.56 2.82796 0.992295 0
M  V30 68431 H 6674.12 1.56968 0.396569 0
M  V30 68432 H 6676.11 2.14742 3.43028 0
M  V30 68433 H 6674.68 1.247 2.86651 0
M  V30 68434 H 6673.9 3.49932 1.81496 0
M  V30 68435 H 6675.19 4.28232 2.74764 0
M  V30 68436 H 6674.59 2.24627 5.19191 0
M  V30 68437 H 6673.14 2.9364 5.8191 0
M  V30 68438 N 6676.58 -0.473876 1.50307 0
M  V30 68439 C 6677.99 -1.05482 1.54047 0
M  V30 68440 C 6678.34 -1.9319 0.342349 0
M  V30 68441 O 6677.46 -2.09423 -0.545047 0
M  V30 68442 C 6678.06 -1.91974 2.79162 0
M  V30 68443 C 6676.62 -2.45181 2.85592 0
M  V30 68444 C 6675.77 -1.23457 2.48302 0
M  V30 68445 H 6678.72 -0.256611 1.56612 0
M  V30 68446 H 6678.74 -2.77006 2.6086 0
M  V30 68447 H 6678.25 -1.28111 3.66346 0
M  V30 68448 H 6676.35 -3.12604 2.02754 0
M  V30 68449 H 6676.46 -2.80479 3.88418 0
M  V30 68450 H 6674.83 -1.56846 2.00678 0
M  V30 68451 H 6675.61 -0.612611 3.3779 0
M  V30 68452 N 6678.06 -1.39838 -0.726858 0
M  V30 68453 C 6679.3 -1.36813 -1.48206 0
M  V30 68454 C 6679.62 0.030426 -1.95576 0
M  V30 68455 O 6680.82 0.183275 -2.70881 0
M  V30 68456 C 6679.28 -2.40393 -2.67841 0
M  V30 68457 C 6678.89 -3.86004 -2.27388 0
M  V30 68458 C 6680.63 -2.46457 -3.45628 0
M  V30 68459 C 6678.54 -4.81207 -3.43794 0
M  V30 68460 H 6677.47 -0.50866 -0.556579 0
M  V30 68461 H 6680.12 -1.65522 -0.792129 0
M  V30 68462 H 6678.5 -2.04766 -3.38949 0
M  V30 68463 H 6679.68 -4.30715 -1.63773 0
M  V30 68464 H 6677.99 -3.8331 -1.62672 0
M  V30 68465 H 6680.59 -3.14776 -4.32227 0
M  V30 68466 H 6680.93 -1.49159 -3.88661 0
M  V30 68467 H 6681.46 -2.81019 -2.81555 0
M  V30 68468 H 6678.2 -5.79797 -3.05804 0
M  V30 68469 H 6677.72 -4.41169 -4.06362 0
M  V30 68470 H 6679.4 -5.00495 -4.10017 0
M  V30 68471 N 6679.53 0.957904 -1.25148 0
M  V30 68472 C 6680.78 1.69648 -1.09098 0
M  V30 68473 C 6681.1 1.92098 0.368447 0
M  V30 68474 O 6682.3 2.63621 0.649316 0
M  V30 68475 C 6680.76 3.05404 -1.90411 0
M  V30 68476 C 6680.37 2.90761 -3.40825 0
M  V30 68477 C 6682.11 3.83067 -1.82921 0
M  V30 68478 C 6680.02 4.21887 -4.14446 0
M  V30 68479 H 6678.95 0.636213 -0.404659 0
M  V30 68480 H 6681.6 1.06664 -1.49315 0
M  V30 68481 H 6679.98 3.69273 -1.43015 0
M  V30 68482 H 6681.15 2.35844 -3.95871 0
M  V30 68483 H 6679.47 2.26556 -3.49373 0
M  V30 68484 H 6682.07 4.80183 -2.35221 0
M  V30 68485 H 6682.41 4.0861 -0.796439 0
M  V30 68486 H 6682.94 3.25942 -2.2805 0
M  V30 68487 H 6679.68 4.01533 -5.18123 0
M  V30 68488 H 6679.2 4.76582 -3.64184 0
M  V30 68489 H 6680.88 4.90449 -4.21982 0
M  V30 68490 N 6681.01 1.06681 1.16004 0
M  V30 68491 C 6682.26 0.78588 1.86628 0
M  V30 68492 C 6682.59 -0.6878 1.81933 0
M  V30 68493 O 6681.84 -1.52004 1.23261 0
M  V30 68494 C 6682.14 1.23074 3.35541 0
M  V30 68495 C 6681.81 2.70921 3.60434 0
M  V30 68496 C 6680.47 3.11305 3.66937 0
M  V30 68497 C 6682.82 3.66385 3.70691 0
M  V30 68498 C 6680.15 4.45985 3.81201 0
M  V30 68499 C 6682.5 5.00818 3.86477 0
M  V30 68500 C 6681.17 5.40833 3.91223 0
M  V30 68501 H 6680.44 0.287574 0.682922 0
M  V30 68502 H 6683.08 1.33661 1.37139 0
M  V30 68503 H 6681.39 0.599274 3.8719 0
M  V30 68504 H 6683.08 0.990368 3.88578 0
M  V30 68505 H 6679.67 2.38655 3.56008 0
M  V30 68506 H 6683.86 3.36316 3.64973 0
M  V30 68507 H 6679.11 4.76467 3.8313 0
M  V30 68508 H 6683.29 5.7467 3.93355 0
M  V30 68509 H 6680.92 6.45196 4.02028 0
M  V30 68510 N 6682.49 -1.32716 0.849947 0
M  V30 68511 C 6683.4 -2.32752 0.293914 0
M  V30 68512 C 6684.42 -1.63842 -0.58582 0
M  V30 68513 O 6685.59 -1.95416 -0.48731 0
M  V30 68514 C 6682.66 -3.4289 -0.512571 0
M  V30 68515 C 6681.72 -4.275 0.392745 0
M  V30 68516 C 6680.95 -5.32378 -0.375344 0
M  V30 68517 O 6681.17 -5.47329 -1.60584 0
M  V30 68518 O 6680.11 -6.01354 0.256411 0
M  V30 68519 H 6683.93 -2.82191 1.12257 0
M  V30 68520 H 6681.52 -1.36256 0.612757 0
M  V30 68521 H 6683.4 -4.10073 -0.970488 0
M  V30 68522 H 6682.08 -2.95648 -1.31811 0
M  V30 68523 H 6680.98 -3.63144 0.898738 0
M  V30 68524 H 6682.32 -4.78254 1.16334 0
M  V30 68525 N 6683.97 -0.607431 -1.45424 0
M  V30 68526 C 6684.92 0.123988 -2.32269 0
M  V30 68527 C 6685.91 0.859777 -1.4596 0
M  V30 68528 O 6687.12 0.775361 -1.62444 0
M  V30 68529 H 6683.49 0.0588443 -0.749694 0
M  V30 68530 H 6685.46 -0.626916 -2.9174 0
M  V30 68531 C 6684.21 1.10803 -3.29572 0
M  V30 68532 H 6683.53 0.551283 -3.95981 0
M  V30 68533 H 6684.97 1.58974 -3.93069 0
M  V30 68534 C 6683.43 2.18151 -2.56733 0
M  V30 68535 O 6683.96 3.25889 -2.3486 0
M  V30 68536 N 6682.17 1.93431 -2.16871 0
M  V30 68537 H 6681.72 1.05822 -2.34861 0
M  V30 68538 H 6681.67 2.6546 -1.68458 0
M  V30 68539 N 6685.45 1.53742 -0.346584 0
M  V30 68540 C 6686.86 1.86199 0.136681 0
M  V30 68541 C 6687.21 1.26774 1.49743 0
M  V30 68542 O 6686.33 0.582465 2.08414 0
M  V30 68543 C 6686.93 3.37841 0.254788 0
M  V30 68544 C 6685.49 3.70165 0.682287 0
M  V30 68545 C 6684.63 2.76701 -0.182126 0
M  V30 68546 H 6687.59 1.48261 -0.566072 0
M  V30 68547 H 6687.61 3.64799 1.08175 0
M  V30 68548 H 6687.12 3.81063 -0.735727 0
M  V30 68549 H 6685.22 3.32489 1.68172 0
M  V30 68550 H 6685.33 4.76788 0.470074 0
M  V30 68551 H 6683.7 2.52339 0.346017 0
M  V30 68552 H 6684.48 3.22754 -1.16983 0
M  V30 68553 N 6686.92 0.075276 1.5742 0
M  V30 68554 C 6687.86 -0.926794 2.08532 0
M  V30 68555 C 6688.84 -1.28892 0.991239 0
M  V30 68556 O 6690.02 -1.39762 1.26487 0
M  V30 68557 C 6687.15 -2.23389 2.54588 0
M  V30 68558 C 6686.19 -2.02307 3.75465 0
M  V30 68559 S 6687.03 -1.27923 5.19996 0
M  V30 68560 C 6688.18 -2.59905 5.69386 0
M  V30 68561 H 6688.41 -0.491893 2.93202 0
M  V30 68562 H 6685.95 -0.13757 1.53786 0
M  V30 68563 H 6687.91 -2.98511 2.81783 0
M  V30 68564 H 6686.57 -2.64003 1.7018 0
M  V30 68565 H 6685.76 -2.9905 4.05691 0
M  V30 68566 H 6685.36 -1.3532 3.48661 0
M  V30 68567 H 6687.65 -3.55977 5.76443 0
M  V30 68568 H 6688.6 -2.34284 6.68219 0
M  V30 68569 H 6689 -2.6727 4.97219 0
M  V30 68570 N 6688.4 -1.56347 -0.198304 0
M  V30 68571 C 6689.63 -1.84276 -0.934118 0
M  V30 68572 C 6690.04 -0.655218 -1.77492 0
M  V30 68573 O 6689.38 0.385393 -1.79612 0
M  V30 68574 C 6689.45 -3.06264 -1.88262 0
M  V30 68575 C 6689.11 -4.40301 -1.22408 0
M  V30 68576 C 6690.11 -5.16396 -0.602567 0
M  V30 68577 C 6687.79 -4.87035 -1.22889 0
M  V30 68578 C 6689.79 -6.374 0.00534441 0
M  V30 68579 C 6687.47 -6.07976 -0.617144 0
M  V30 68580 C 6688.47 -6.83 -0.00110324 0
M  V30 68581 O 6688.16 -8.0165 0.601065 0
M  V30 68582 H 6687.89 -0.616096 -0.278212 0
M  V30 68583 H 6690.44 -2.04308 -0.211518 0
M  V30 68584 H 6688.67 -2.82109 -2.64483 0
M  V30 68585 H 6690.36 -3.20866 -2.48595 0
M  V30 68586 H 6691.13 -4.81386 -0.591011 0
M  V30 68587 H 6687.01 -4.28598 -1.69778 0
M  V30 68588 H 6690.55 -6.95899 0.486797 0
M  V30 68589 H 6686.45 -6.42456 -0.626191 0
M  V30 68590 H 6687.22 -8.16986 0.497656 0
M  V30 68591 N 6689.88 0.465898 -1.50556 0
M  V30 68592 C 6691.11 1.2454 -1.65845 0
M  V30 68593 C 6691.53 1.84935 -0.343583 0
M  V30 68594 O 6690.89 1.67526 0.693151 0
M  V30 68595 C 6690.94 2.3261 -2.75545 0
M  V30 68596 O 6690.04 3.37386 -2.37159 0
M  V30 68597 H 6689.38 0.366165 -0.553913 0
M  V30 68598 H 6691.91 0.553823 -1.96962 0
M  V30 68599 H 6691.92 2.77841 -2.98778 0
M  V30 68600 H 6690.6 1.88024 -3.70972 0
M  V30 68601 H 6689.17 2.97829 -2.24393 0
M  V30 68602 N 6691.36 1.40221 0.719432 0
M  V30 68603 C 6692.32 1.39937 1.81522 0
M  V30 68604 C 6693.32 0.293806 1.58093 0
M  V30 68605 O 6694.51 0.552516 1.65206 0
M  V30 68606 C 6691.64 1.18732 3.19555 0
M  V30 68607 H 6692.84 2.3746 1.83174 0
M  V30 68608 H 6690.39 1.26013 0.92468 0
M  V30 68609 H 6691.12 0.219537 3.23556 0
M  V30 68610 H 6690.91 1.9881 3.3796 0
M  V30 68611 H 6692.4 1.21312 3.99591 0
M  V30 68612 N 6692.84 -0.951253 1.25654 0
M  V30 68613 C 6694.25 -1.22294 1.02549 0
M  V30 68614 C 6694.45 -1.99872 -0.25561 0
M  V30 68615 O 6693.51 -2.33232 -0.967435 0
M  V30 68616 C 6694.82 -1.99403 2.25075 0
M  V30 68617 C 6696.37 -2.12433 2.29872 0
M  V30 68618 C 6696.84 -2.92942 3.52064 0
M  V30 68619 N 6698.34 -3.00519 3.5248 0
M  V30 68620 C 6699.07 -3.63215 4.43692 0
M  V30 68621 N 6698.57 -4.27495 5.45179 0
M  V30 68622 N 6700.36 -3.60389 4.31365 0
M  V30 68623 H 6692.51 -0.432361 2.07953 0
M  V30 68624 H 6694.77 -0.253768 0.913403 0
M  V30 68625 H 6694.48 -1.49801 3.18202 0
M  V30 68626 H 6694.35 -3.00099 2.28518 0
M  V30 68627 H 6696.74 -2.61232 1.37266 0
M  V30 68628 H 6696.82 -1.11032 2.30446 0
M  V30 68629 H 6696.47 -2.44833 4.44994 0
M  V30 68630 H 6696.4 -3.94577 3.48735 0
M  V30 68631 H 6698.89 -2.54811 2.79069 0
M  V30 68632 H 6699.2 -4.73201 6.10983 0
M  V30 68633 H 6697.54 -4.26112 5.49048 0
M  V30 68634 H 6700.74 -3.09359 3.51305 0
M  V30 68635 H 6700.91 -4.08964 5.02646 0
M  V30 68636 N 6694.31 -1.07295 -1.15437 0
M  V30 68637 C 6695.59 -0.708888 -1.82302 0
M  V30 68638 C 6695.97 0.808704 -1.94995 0
M  V30 68639 O 6695.32 1.7229 -1.50094 0
M  V30 68640 C 6695.53 -1.42264 -3.18688 0
M  V30 68641 C 6696.88 -1.57438 -3.94333 0
M  V30 68642 O 6697.9 -1.38337 -3.2824 0
M  V30 68643 O 6696.76 -1.88861 -5.12829 0
M  V30 68644 H 6693.85 -0.252173 -0.787615 0
M  V30 68645 H 6696.4 -1.17384 -1.22552 0
M  V30 68646 H 6695.17 -2.457 -3.04544 0
M  V30 68647 H 6694.8 -0.948427 -3.86123 0
M  V30 68648 N 6695.79 1.32264 -0.856973 0
M  V30 68649 C 6697.02 2.01895 -0.474676 0
M  V30 68650 C 6697.44 1.63972 0.92168 0
M  V30 68651 O 6696.8 0.841565 1.60584 0
M  V30 68652 C 6696.85 3.5516 -0.623986 0
M  V30 68653 O 6695.95 4.10977 0.342243 0
M  V30 68654 H 6695.29 0.6361 -0.190455 0
M  V30 68655 H 6697.82 1.68758 -1.15681 0
M  V30 68656 H 6697.83 4.0477 -0.512383 0
M  V30 68657 H 6696.51 3.82104 -1.64223 0
M  V30 68658 H 6695.09 3.72432 0.186684 0
M  V30 68659 N 6697.27 0.615135 1.45099 0
M  V30 68660 C 6698.23 -0.0894277 2.29025 0
M  V30 68661 C 6699.23 -0.787832 1.40178 0
M  V30 68662 O 6700.42 -0.634848 1.6222 0
M  V30 68663 C 6697.56 -1.13695 3.21382 0
M  V30 68664 H 6698.75 0.648536 2.92804 0
M  V30 68665 H 6696.3 0.374524 1.51747 0
M  V30 68666 H 6697.04 -1.90542 2.6242 0
M  V30 68667 H 6696.82 -0.640271 3.86837 0
M  V30 68668 H 6698.31 -1.63016 3.84468 0
M  V30 68669 N 6698.75 -1.53556 0.354732 0
M  V30 68670 C 6700 -2.0139 -0.23869 0
M  V30 68671 C 6700.33 -1.24188 -1.49302 0
M  V30 68672 O 6699.6 -0.332558 -1.91636 0
M  V30 68673 C 6699.89 -3.56004 -0.541583 0
M  V30 68674 C 6699.74 -4.43909 0.725622 0
M  V30 68675 C 6701.06 -4.18991 -1.34663 0
M  V30 68676 H 6698.18 -0.73205 -0.0852791 0
M  V30 68677 H 6700.82 -1.83902 0.477481 0
M  V30 68678 H 6698.97 -3.71037 -1.1517 0
M  V30 68679 H 6700.64 -4.40693 1.36336 0
M  V30 68680 H 6698.88 -4.12317 1.34823 0
M  V30 68681 H 6699.56 -5.50006 0.468795 0
M  V30 68682 H 6702.03 -4.07725 -0.830622 0
M  V30 68683 H 6700.91 -5.27223 -1.52731 0
M  V30 68684 H 6701.17 -3.74343 -2.35201 0
M  V30 68685 N 6700.23 -0.0836233 -1.57378 0
M  V30 68686 C 6701.17 0.879427 -2.13389 0
M  V30 68687 C 6702.14 1.28748 -1.04943 0
M  V30 68688 O 6703.33 1.37126 -1.32669 0
M  V30 68689 C 6700.47 2.13738 -2.70943 0
M  V30 68690 C 6699.58 1.78089 -3.93584 0
M  V30 68691 C 6698.72 2.98584 -4.39342 0
M  V30 68692 C 6697.76 2.59008 -5.546 0
M  V30 68693 N 6696.89 3.723 -5.95262 0
M  V30 68694 H 6701.73 0.39492 -2.95372 0
M  V30 68695 H 6699.27 0.183272 -1.45954 0
M  V30 68696 H 6701.23 2.87392 -3.02426 0
M  V30 68697 H 6699.86 2.59708 -1.91707 0
M  V30 68698 H 6698.91 0.944495 -3.68488 0
M  V30 68699 H 6700.22 1.4498 -4.77265 0
M  V30 68700 H 6699.38 3.80504 -4.72548 0
M  V30 68701 H 6698.12 3.34895 -3.54537 0
M  V30 68702 H 6697.12 1.75511 -5.21033 0
M  V30 68703 H 6698.35 2.23854 -6.41145 0
M  V30 68704 H 6696.29 4.08351 -5.13406 0
M  V30 68705 H 6696.21 3.42998 -6.73712 0
M  V30 68706 H 6697.48 4.54764 -6.33095 0
M  V30 68707 N 6701.71 1.5645 0.190009 0
M  V30 68708 C 6702.95 1.81189 0.910957 0
M  V30 68709 C 6703.28 0.658492 1.82695 0
M  V30 68710 O 6702.56 -0.340674 1.91493 0
M  V30 68711 C 6702.84 3.16214 1.7228 0
M  V30 68712 C 6702.7 4.42054 0.831186 0
M  V30 68713 C 6704.01 3.47983 2.69436 0
M  V30 68714 H 6701.13 0.659123 0.329735 0
M  V30 68715 H 6703.78 1.89164 0.178069 0
M  V30 68716 H 6701.93 3.09547 2.34762 0
M  V30 68717 H 6703.6 4.60772 0.220686 0
M  V30 68718 H 6701.84 4.3358 0.138178 0
M  V30 68719 H 6702.51 5.33039 1.43433 0
M  V30 68720 H 6704.99 3.54984 2.17085 0
M  V30 68721 H 6703.86 4.43572 3.23319 0
M  V30 68722 H 6704.12 2.71735 3.4873 0
M  V30 68723 N 6703.18 -0.457907 1.50801 0
M  V30 68724 C 6704.43 -1.21079 1.62689 0
M  V30 68725 C 6704.76 -1.91335 0.332369 0
M  V30 68726 O 6704.04 -1.82708 -0.666946 0
M  V30 68727 C 6704.32 -2.24407 2.81627 0
M  V30 68728 C 6704.17 -1.5837 4.20998 0
M  V30 68729 C 6705.49 -3.25595 2.96102 0
M  V30 68730 H 6702.61 -0.438833 0.592111 0
M  V30 68731 H 6705.25 -0.502763 1.83227 0
M  V30 68732 H 6703.4 -2.84792 2.64246 0
M  V30 68733 H 6705.08 -1.0148 4.49999 0
M  V30 68734 H 6703.32 -0.88648 4.24646 0
M  V30 68735 H 6703.99 -2.3352 5.00172 0
M  V30 68736 H 6706.47 -2.75245 3.12056 0
M  V30 68737 H 6705.34 -3.95208 3.80923 0
M  V30 68738 H 6705.6 -3.90496 2.07281 0
M  V30 68739 N 6704.66 -1.40601 -0.711986 0
M  V30 68740 C 6705.59 -1.3707 -1.83696 0
M  V30 68741 C 6706.61 -0.27551 -1.60452 0
M  V30 68742 O 6707.8 -0.53611 -1.70259 0
M  V30 68743 C 6704.9 -1.11116 -3.20166 0
M  V30 68744 C 6704.07 -2.3236 -3.70578 0
M  V30 68745 C 6703.13 -2.02511 -4.85671 0
M  V30 68746 O 6702.15 -2.75408 -4.98135 0
M  V30 68747 N 6703.36 -1.00527 -5.71729 0
M  V30 68748 H 6706.12 -2.34026 -1.87222 0
M  V30 68749 H 6703.68 -1.35001 -0.893667 0
M  V30 68750 H 6705.67 -0.891273 -3.94764 0
M  V30 68751 H 6704.24 -0.228154 -3.11766 0
M  V30 68752 H 6703.46 -2.70155 -2.87071 0
M  V30 68753 H 6704.75 -3.13179 -4.00994 0
M  V30 68754 H 6704.15 -0.401596 -5.64273 0
M  V30 68755 H 6702.71 -0.845283 -6.46296 0
M  V30 68756 N 6706.14 0.944576 -1.26157 0
M  V30 68757 C 6707.55 1.50516 -1.10462 0
M  V30 68758 C 6707.9 1.93634 0.316248 0
M  V30 68759 O 6707.03 1.79587 1.20737 0
M  V30 68760 C 6707.62 2.73539 -1.99905 0
M  V30 68761 C 6706.18 3.25876 -1.88366 0
M  V30 68762 C 6705.33 1.98669 -1.93457 0
M  V30 68763 H 6708.28 0.760416 -1.39296 0
M  V30 68764 H 6708.3 3.47723 -1.54495 0
M  V30 68765 H 6707.81 2.42125 -3.0331 0
M  V30 68766 H 6705.91 3.62088 -0.878827 0
M  V30 68767 H 6706.03 3.93212 -2.73717 0
M  V30 68768 H 6704.39 2.14417 -1.37467 0
M  V30 68769 H 6705.17 1.69592 -2.98485 0
M  V30 68770 N 6707.62 1.07905 1.14866 0
M  V30 68771 C 6708.87 0.800596 1.85131 0
M  V30 68772 C 6709.18 -0.675917 1.8355 0
M  V30 68773 O 6710.39 -1.06935 2.49554 0
M  V30 68774 C 6708.84 1.38215 3.32302 0
M  V30 68775 C 6708.45 2.89008 3.42313 0
M  V30 68776 C 6710.19 1.18195 4.07713 0
M  V30 68777 C 6708.1 3.40326 4.83666 0
M  V30 68778 H 6707.03 0.295817 0.693548 0
M  V30 68779 H 6709.68 1.29983 1.29525 0
M  V30 68780 H 6708.06 0.810636 3.87614 0
M  V30 68781 H 6709.24 3.52251 2.97079 0
M  V30 68782 H 6707.55 3.07882 2.80353 0
M  V30 68783 H 6710.15 1.54007 5.12041 0
M  V30 68784 H 6710.49 0.12139 4.16123 0
M  V30 68785 H 6711.03 1.72013 3.58687 0
M  V30 68786 H 6707.76 4.45933 4.80442 0
M  V30 68787 H 6707.28 2.81839 5.29459 0
M  V30 68788 H 6708.96 3.36613 5.5254 0
M  V30 68789 N 6709.1 -1.31808 0.863975 0
M  V30 68790 C 6710.03 -2.27573 0.272605 0
M  V30 68791 C 6711.04 -1.5283 -0.560959 0
M  V30 68792 O 6712.23 -1.74322 -0.383929 0
M  V30 68793 C 6709.33 -3.32942 -0.632654 0
M  V30 68794 C 6708.5 -4.37081 0.167132 0
M  V30 68795 C 6707.56 -5.21977 -0.665332 0
M  V30 68796 O 6706.59 -5.6912 -0.095509 0
M  V30 68797 N 6707.79 -5.45746 -1.97841 0
M  V30 68798 H 6710.55 -2.78959 1.09554 0
M  V30 68799 H 6708.12 -1.44766 0.724867 0
M  V30 68800 H 6710.11 -3.86651 -1.19512 0
M  V30 68801 H 6708.68 -2.81645 -1.35627 0
M  V30 68802 H 6707.9 -3.83528 0.911041 0
M  V30 68803 H 6709.19 -5.03735 0.71614 0
M  V30 68804 H 6708.58 -5.09191 -2.46457 0
M  V30 68805 H 6707.14 -6.02414 -2.4888 0
M  V30 68806 N 6710.57 -0.622821 -1.44771 0
M  V30 68807 C 6711.82 -0.12419 -2.02419 0
M  V30 68808 C 6712.15 1.24769 -1.48817 0
M  V30 68809 O 6711.43 1.82636 -0.668895 0
M  V30 68810 C 6711.71 -0.101808 -3.59956 0
M  V30 68811 C 6711.56 -1.50543 -4.23859 0
M  V30 68812 C 6712.88 0.578042 -4.36287 0
M  V30 68813 H 6710 -0.0466033 -0.735525 0
M  V30 68814 H 6712.64 -0.797708 -1.72443 0
M  V30 68815 H 6710.79 0.471731 -3.85625 0
M  V30 68816 H 6712.47 -2.12722 -4.09325 0
M  V30 68817 H 6710.71 -2.06174 -3.81674 0
M  V30 68818 H 6711.38 -1.44188 -5.32836 0
M  V30 68819 H 6713.86 0.0903863 -4.16002 0
M  V30 68820 H 6712.73 0.562861 -5.46006 0
M  V30 68821 H 6712.99 1.64691 -4.10279 0
M  V30 68822 N 6712.05 1.53366 -0.362871 0
M  V30 68823 C 6713.28 2.05634 0.228504 0
M  V30 68824 C 6713.7 1.23656 1.42669 0
M  V30 68825 O 6713.05 0.276565 1.80392 0
M  V30 68826 C 6713.1 3.56062 0.624657 0
M  V30 68827 O 6712.82 4.34932 -0.525905 0
M  V30 68828 C 6714.33 4.24578 1.27471 0
M  V30 68829 H 6711.55 0.669766 0.040683 0
M  V30 68830 H 6714.09 1.97766 -0.520456 0
M  V30 68831 H 6712.24 3.6409 1.32354 0
M  V30 68832 H 6712.66 5.24094 -0.206245 0
M  V30 68833 H 6714.13 5.31159 1.50249 0
M  V30 68834 H 6714.61 3.78128 2.23419 0
M  V30 68835 H 6715.22 4.20796 0.617336 0
M  V30 68836 N 6713.53 0.0919683 1.57331 0
M  V30 68837 C 6714.78 -0.573323 1.94527 0
M  V30 68838 C 6715.11 -1.68028 0.973667 0
M  V30 68839 O 6714.38 -1.94499 0.00619483 0
M  V30 68840 C 6714.67 -1.13143 3.41864 0
M  V30 68841 C 6714.52 -0.0297375 4.4979 0
M  V30 68842 C 6715.84 -2.03077 3.90445 0
M  V30 68843 H 6712.96 -0.206938 0.707351 0
M  V30 68844 H 6715.6 0.162041 1.89308 0
M  V30 68845 H 6713.75 -1.75812 3.46443 0
M  V30 68846 H 6715.42 0.604354 4.57324 0
M  V30 68847 H 6713.67 0.63706 4.29097 0
M  V30 68848 H 6714.34 -0.460997 5.50072 0
M  V30 68849 H 6716.81 -1.50317 3.88 0
M  V30 68850 H 6715.69 -2.39055 4.94109 0
M  V30 68851 H 6715.95 -2.94695 3.29556 0
M  V30 68852 N 6715.01 -1.56549 -0.18171 0
M  V30 68853 C 6716.23 -1.85882 -0.919921 0
M  V30 68854 C 6716.66 -0.677113 -1.7549 0
M  V30 68855 O 6716.02 0.373963 -1.77401 0
M  V30 68856 C 6716.06 -3.13551 -1.78096 0
M  V30 68857 O 6715.17 -2.95044 -2.88137 0
M  V30 68858 H 6714.51 -0.6117 -0.258302 0
M  V30 68859 H 6717.04 -2.0378 -0.182985 0
M  V30 68860 H 6717.05 -3.44689 -2.18296 0
M  V30 68861 H 6715.72 -3.99175 -1.16756 0
M  V30 68862 H 6714.3 -2.75235 -2.51595 0
M  V30 68863 N 6716.49 0.449904 -1.51042 0
M  V30 68864 C 6717.4 1.57058 -1.74269 0
M  V30 68865 C 6718.41 1.62332 -0.626448 0
M  V30 68866 O 6719.59 1.79808 -0.907257 0
M  V30 68867 C 6716.65 2.93134 -1.8513 0
M  V30 68868 C 6715.71 2.98079 -3.08946 0
M  V30 68869 C 6714.95 4.27665 -3.19278 0
M  V30 68870 O 6715.17 5.19351 -2.35862 0
M  V30 68871 O 6714.1 4.38636 -4.12167 0
M  V30 68872 H 6717.93 1.40377 -2.6931 0
M  V30 68873 H 6715.52 0.631617 -1.35392 0
M  V30 68874 H 6717.4 3.73916 -1.94331 0
M  V30 68875 H 6716.07 3.0997 -0.932752 0
M  V30 68876 H 6714.98 2.16298 -3.05231 0
M  V30 68877 H 6716.31 2.86185 -4.00448 0
M  V30 68878 N 6717.96 1.40976 0.704519 0
M  V30 68879 C 6718.91 1.42308 1.83987 0
M  V30 68880 C 6719.91 0.302199 1.66683 0
M  V30 68881 O 6721.11 0.473788 1.73653 0
M  V30 68882 H 6717.49 0.445072 0.606147 0
M  V30 68883 H 6719.46 2.38013 1.79979 0
M  V30 68884 C 6718.21 1.3134 3.2194 0
M  V30 68885 H 6717.53 2.16873 3.35867 0
M  V30 68886 H 6718.97 1.36332 4.01484 0
M  V30 68887 C 6717.43 0.0247754 3.36891 0
M  V30 68888 O 6717.96 -0.933947 3.90692 0
M  V30 68889 N 6716.17 -0.0483711 2.9056 0
M  V30 68890 H 6715.71 0.732549 2.46965 0
M  V30 68891 H 6715.67 -0.910012 3.00942 0
M  V30 68892 N 6719.44 -0.937872 1.26656 0
M  V30 68893 C 6720.69 -1.68694 1.12562 0
M  V30 68894 C 6721.02 -1.91381 -0.329681 0
M  V30 68895 O 6720.3 -1.49686 -1.24195 0
M  V30 68896 C 6720.58 -3.05971 1.89878 0
M  V30 68897 C 6720.43 -2.90589 3.43334 0
M  V30 68898 C 6721.75 -4.06141 1.69521 0
M  V30 68899 H 6718.87 -0.612235 0.410289 0
M  V30 68900 H 6721.51 -1.08905 1.55691 0
M  V30 68901 H 6719.66 -3.57008 1.53223 0
M  V30 68902 H 6721.33 -2.46748 3.8976 0
M  V30 68903 H 6719.58 -2.26145 3.70191 0
M  V30 68904 H 6720.25 -3.87969 3.92663 0
M  V30 68905 H 6722.72 -3.64077 2.01462 0
M  V30 68906 H 6721.6 -5.00203 2.26028 0
M  V30 68907 H 6721.86 -4.37434 0.640596 0
M  V30 68908 N 6720.92 -1.08513 -1.14292 0
M  V30 68909 C 6722.2 -0.728184 -1.8154 0
M  V30 68910 C 6722.58 0.787977 -1.95842 0
M  V30 68911 O 6721.93 1.70689 -1.51913 0
M  V30 68912 C 6722.14 -1.45636 -3.17161 0
M  V30 68913 C 6723.48 -1.61611 -3.92641 0
M  V30 68914 O 6724.51 -1.4181 -3.26754 0
M  V30 68915 O 6723.37 -1.9429 -5.10797 0
M  V30 68916 H 6720.46 -0.260513 -0.784896 0
M  V30 68917 H 6723.01 -1.18677 -1.21301 0
M  V30 68918 H 6721.78 -2.48916 -3.01921 0
M  V30 68919 H 6721.4 -0.989327 -3.85095 0
M  V30 68920 N 6722.4 1.31347 -0.870953 0
M  V30 68921 C 6723.35 2.30436 -0.316567 0
M  V30 68922 C 6724.34 1.59562 0.568881 0
M  V30 68923 O 6725.55 1.74158 0.454873 0
M  V30 68924 H 6721.92 0.747328 -0.0836915 0
M  V30 68925 H 6723.89 2.74667 -1.16621 0
M  V30 68926 C 6722.64 3.44561 0.466169 0
M  V30 68927 H 6721.96 3.99269 -0.205898 0
M  V30 68928 H 6723.4 4.16007 0.819395 0
M  V30 68929 C 6721.86 2.93288 1.65782 0
M  V30 68930 O 6722.39 2.9214 2.75712 0
M  V30 68931 N 6720.6 2.49477 1.49028 0
M  V30 68932 H 6720.15 2.50611 0.595988 0
M  V30 68933 H 6720.1 2.15528 2.289 0
M  V30 68934 N 6723.88 0.63049 1.44439 0
M  V30 68935 C 6724.82 -0.0748139 2.30679 0
M  V30 68936 C 6725.79 -0.837427 1.43445 0
M  V30 68937 O 6726.98 -0.818593 1.72348 0
M  V30 68938 C 6724.12 -1.05085 3.28711 0
M  V30 68939 C 6723.23 -0.286727 4.31047 0
M  V30 68940 C 6722.37 -1.25453 5.16174 0
M  V30 68941 C 6721.41 -0.479521 6.10219 0
M  V30 68942 N 6720.54 -1.39775 6.88046 0
M  V30 68943 H 6725.38 0.66654 2.9045 0
M  V30 68944 H 6722.92 0.340479 1.43105 0
M  V30 68945 H 6724.88 -1.63011 3.84035 0
M  V30 68946 H 6723.51 -1.75935 2.70642 0
M  V30 68947 H 6722.56 0.408443 3.78201 0
M  V30 68948 H 6723.87 0.31692 4.97792 0
M  V30 68949 H 6723.03 -1.90514 5.76012 0
M  V30 68950 H 6721.76 -1.8921 4.49501 0
M  V30 68951 H 6720.77 0.184584 5.4949 0
M  V30 68952 H 6721.99 0.153323 6.78927 0
M  V30 68953 H 6719.94 -2.02254 6.24043 0
M  V30 68954 H 6719.86 -0.848111 7.51228 0
M  V30 68955 H 6721.13 -2.03722 7.52408 0
M  V30 68956 N 6725.36 -1.53171 0.370999 0
M  V30 68957 C 6726.3 -2.27424 -0.487981 0
M  V30 68958 C 6727.3 -1.3061 -1.07877 0
M  V30 68959 O 6728.5 -1.48218 -1.02135 0
M  V30 68960 H 6724.88 -0.731091 -0.176096 0
M  V30 68961 H 6726.85 -2.97971 0.159972 0
M  V30 68962 C 6725.6 -3.08028 -1.61289 0
M  V30 68963 H 6724.92 -3.82371 -1.1676 0
M  V30 68964 H 6726.36 -3.63152 -2.18853 0
M  V30 68965 C 6724.82 -2.19202 -2.55836 0
M  V30 68966 O 6725.35 -1.80645 -3.5879 0
M  V30 68967 N 6723.56 -1.83727 -2.25151 0
M  V30 68968 H 6723.1 -2.1528 -1.41465 0
M  V30 68969 H 6723.06 -1.24582 -2.88664 0
M  V30 68970 N 6726.83 -0.100311 -1.5728 0
M  V30 68971 C 6728.06 0.569577 -1.98594 0
M  V30 68972 C 6728.47 1.61938 -0.9784 0
M  V30 68973 O 6727.81 1.83657 0.039514 0
M  V30 68974 C 6727.88 1.27083 -3.36289 0
M  V30 68975 C 6727.54 0.371169 -4.5549 0
M  V30 68976 C 6728.54 -0.382778 -5.18489 0
M  V30 68977 C 6726.22 0.287701 -5.01475 0
M  V30 68978 C 6728.22 -1.20812 -6.25846 0
M  V30 68979 C 6725.9 -0.541286 -6.08698 0
M  V30 68980 C 6726.9 -1.28784 -6.70749 0
M  V30 68981 O 6726.59 -2.1031 -7.75903 0
M  V30 68982 H 6726.32 0.156947 -0.657528 0
M  V30 68983 H 6728.88 -0.177842 -2.04629 0
M  V30 68984 H 6727.11 2.06492 -3.26952 0
M  V30 68985 H 6728.79 1.83576 -3.62015 0
M  V30 68986 H 6729.56 -0.328055 -4.83889 0
M  V30 68987 H 6725.44 0.85845 -4.52937 0
M  V30 68988 H 6728.98 -1.79132 -6.74209 0
M  V30 68989 H 6724.88 -0.59747 -6.42729 0
M  V30 68990 H 6725.65 -2.03049 -7.92915 0
M  V30 68991 N 6728.31 1.56643 0.173405 0
M  V30 68992 C 6729.56 1.81516 0.88861 0
M  V30 68993 C 6729.88 0.676968 1.82872 0
M  V30 68994 O 6729.15 -0.303312 1.93538 0
M  V30 68995 H 6727.73 0.669599 0.331128 0
M  V30 68996 H 6730.39 1.94124 0.173721 0
M  V30 68997 H 6729.49 2.75486 1.46676 0
M  V30 68998 N 6729.79 -0.441887 1.51278 0
M  V30 68999 C 6731.01 -1.21886 1.67805 0
M  V30 69000 C 6731.44 -1.84365 0.372961 0
M  V30 69001 O 6730.8 -1.68608 -0.666412 0
M  V30 69002 C 6730.85 -2.28196 2.79211 0
M  V30 69003 O 6729.95 -3.3357 2.42497 0
M  V30 69004 H 6729.29 -0.357306 0.559668 0
M  V30 69005 H 6731.82 -0.522418 1.97818 0
M  V30 69006 H 6731.83 -2.73053 3.0316 0
M  V30 69007 H 6730.51 -1.82098 3.73916 0
M  V30 69008 H 6729.08 -2.94222 2.29103 0
M  V30 69009 N 6731.27 -1.41348 -0.697033 0
M  V30 69010 C 6732.68 -1.36206 -1.2769 0
M  V30 69011 C 6733.03 -0.0444497 -1.9615 0
M  V30 69012 O 6732.15 0.857314 -1.98693 0
M  V30 69013 C 6732.75 -2.46706 -2.3221 0
M  V30 69014 C 6731.31 -2.44967 -2.85777 0
M  V30 69015 C 6730.46 -2.26629 -1.59796 0
M  V30 69016 H 6733.41 -1.50885 -0.491889 0
M  V30 69017 H 6733.43 -2.1568 -3.13468 0
M  V30 69018 H 6732.94 -3.42591 -1.82355 0
M  V30 69019 H 6731.04 -1.52835 -3.39812 0
M  V30 69020 H 6731.15 -3.41225 -3.36307 0
M  V30 69021 H 6729.52 -1.74479 -1.85551 0
M  V30 69022 H 6730.3 -3.24538 -1.11938 0
M  V30 69023 N 6732.75 0.931142 -1.27151 0
M  V30 69024 C 6733.99 1.67296 -1.12672 0
M  V30 69025 C 6734.31 1.92837 0.327617 0
M  V30 69026 O 6735.51 2.64939 0.593252 0
M  V30 69027 C 6733.97 3.01296 -1.96846 0
M  V30 69028 C 6733.58 2.83466 -3.46916 0
M  V30 69029 C 6735.32 3.79101 -1.91005 0
M  V30 69030 C 6733.23 4.13001 -4.23301 0
M  V30 69031 H 6732.16 0.627487 -0.418063 0
M  V30 69032 H 6734.81 1.03473 -1.51544 0
M  V30 69033 H 6733.19 3.66156 -1.50816 0
M  V30 69034 H 6734.37 2.27394 -4.00785 0
M  V30 69035 H 6732.68 2.19094 -3.541 0
M  V30 69036 H 6735.28 4.75085 -2.45353 0
M  V30 69037 H 6735.62 4.06829 -0.882933 0
M  V30 69038 H 6736.15 3.21031 -2.34912 0
M  V30 69039 H 6732.89 3.90453 -5.26523 0
M  V30 69040 H 6732.41 4.6875 -3.74211 0
M  V30 69041 H 6734.09 4.81388 -4.3229 0
M  V30 69042 N 6734.22 1.09118 1.13715 0
M  V30 69043 C 6735.17 0.722336 2.211 0
M  V30 69044 C 6736.17 -0.275286 1.67148 0
M  V30 69045 O 6737.37 -0.137081 1.79477 0
M  V30 69046 H 6733.75 0.215591 0.720434 0
M  V30 69047 H 6735.72 1.63722 2.49474 0
M  V30 69048 C 6734.47 0.155613 3.47352 0
M  V30 69049 H 6733.79 0.914451 3.89202 0
M  V30 69050 H 6735.23 -0.0645731 4.23951 0
M  V30 69051 C 6733.69 -1.10836 3.18146 0
M  V30 69052 O 6734.22 -2.1921 3.36616 0
M  V30 69053 N 6732.42 -1.02161 2.7205 0
M  V30 69054 H 6731.97 -0.139628 2.57221 0
M  V30 69055 H 6731.93 -1.86806 2.52885 0
M  V30 69056 N 6735.7 -1.30884 0.877907 0
M  V30 69057 C 6737.11 -1.7859 0.544287 0
M  V30 69058 C 6737.46 -1.72259 -0.93921 0
M  V30 69059 O 6736.59 -1.29515 -1.73364 0
M  V30 69060 C 6737.18 -3.2428 0.981221 0
M  V30 69061 C 6735.74 -3.6985 0.69913 0
M  V30 69062 C 6734.89 -2.51495 1.16813 0
M  V30 69063 H 6737.84 -1.17853 1.06284 0
M  V30 69064 H 6737.86 -3.79258 0.307209 0
M  V30 69065 H 6737.37 -3.28856 2.06096 0
M  V30 69066 H 6735.47 -3.70769 -0.368916 0
M  V30 69067 H 6735.59 -4.61637 1.28172 0
M  V30 69068 H 6733.95 -2.47828 0.587665 0
M  V30 69069 H 6734.73 -2.58812 2.25546 0
M  V30 69070 N 6737.18 -0.638141 -1.44102 0
M  V30 69071 C 6738.4 -0.151025 -2.06849 0
M  V30 69072 C 6738.83 1.16825 -1.47423 0
M  V30 69073 O 6738.19 1.71828 -0.578355 0
M  V30 69074 C 6738.24 -0.0572701 -3.60555 0
M  V30 69075 O 6737.34 0.984761 -4.0047 0
M  V30 69076 H 6736.68 -0.0879746 -0.658146 0
M  V30 69077 H 6739.21 -0.876804 -1.8486 0
M  V30 69078 H 6739.22 0.131017 -4.0779 0
M  V30 69079 H 6737.9 -1.02042 -4.03188 0
M  V30 69080 H 6736.47 0.77048 -3.64853 0
M  V30 69081 N 6738.66 1.52972 -0.379117 0
M  V30 69082 C 6739.57 2.29874 0.468518 0
M  V30 69083 C 6740.58 1.36378 1.0806 0
M  V30 69084 O 6741.76 1.69443 1.08862 0
M  V30 69085 C 6738.82 3.08308 1.58578 0
M  V30 69086 C 6737.89 4.17494 0.99985 0
M  V30 69087 C 6737.12 4.92179 2.06387 0
M  V30 69088 O 6737.34 4.66853 3.27727 0
M  V30 69089 O 6736.28 5.77779 1.68686 0
M  V30 69090 H 6740.1 3.0329 -0.157667 0
M  V30 69091 H 6737.69 1.48713 -0.143113 0
M  V30 69092 H 6739.57 3.57243 2.23507 0
M  V30 69093 H 6738.24 2.37715 2.19712 0
M  V30 69094 H 6737.15 3.72779 0.314102 0
M  V30 69095 H 6738.48 4.90293 0.432877 0
M  V30 69096 N 6740.14 0.10865 1.57225 0
M  V30 69097 C 6741.39 -0.551601 1.94011 0
M  V30 69098 C 6741.7 -1.68488 0.993531 0
M  V30 69099 O 6742.9 -2.4072 1.25564 0
M  V30 69100 C 6741.36 -1.03261 3.44768 0
M  V30 69101 C 6740.97 0.0716555 4.47943 0
M  V30 69102 C 6742.71 -1.66482 3.90492 0
M  V30 69103 C 6740.62 -0.425468 5.89868 0
M  V30 69104 H 6739.55 -0.209824 0.724217 0
M  V30 69105 H 6742.2 0.186837 1.82546 0
M  V30 69106 H 6740.58 -1.82515 3.51432 0
M  V30 69107 H 6741.76 0.847604 4.52937 0
M  V30 69108 H 6740.07 0.609886 4.11909 0
M  V30 69109 H 6742.67 -2.04772 4.93936 0
M  V30 69110 H 6743.01 -2.53925 3.29891 0
M  V30 69111 H 6743.54 -0.93787 3.86586 0
M  V30 69112 H 6740.28 0.412661 6.542 0
M  V30 69113 H 6739.8 -1.16812 5.88315 0
M  V30 69114 H 6741.48 -0.890059 6.40849 0
M  V30 69115 N 6741.61 -1.56733 -0.165095 0
M  V30 69116 C 6742.86 -1.82615 -0.882016 0
M  V30 69117 C 6743.19 -0.687474 -1.81624 0
M  V30 69118 O 6742.47 0.310166 -1.92011 0
M  V30 69119 C 6742.75 -3.18915 -1.67228 0
M  V30 69120 C 6742.6 -4.4332 -0.760754 0
M  V30 69121 C 6743.92 -3.52226 -2.63865 0
M  V30 69122 H 6741.04 -0.664286 -0.319207 0
M  V30 69123 H 6743.68 -1.89423 -0.147952 0
M  V30 69124 H 6741.83 -3.13242 -2.29807 0
M  V30 69125 H 6743.51 -4.61065 -0.147353 0
M  V30 69126 H 6741.75 -4.33745 -0.0691815 0
M  V30 69127 H 6742.42 -5.35254 -1.34934 0
M  V30 69128 H 6744.9 -3.58392 -2.1141 0
M  V30 69129 H 6743.77 -4.4866 -3.16221 0
M  V30 69130 H 6744.03 -2.77249 -3.44362 0
M  V30 69131 N 6743.09 0.433858 -1.5151 0
M  V30 69132 C 6744.5 1.0136 -1.5679 0
M  V30 69133 C 6744.85 1.92214 -0.39345 0
M  V30 69134 O 6743.98 2.10795 0.48933 0
M  V30 69135 C 6744.57 1.84505 -2.84154 0
M  V30 69136 C 6743.13 2.37523 -2.91993 0
M  V30 69137 C 6742.28 1.1683 -2.51488 0
M  V30 69138 H 6745.23 0.214998 -1.57237 0
M  V30 69139 H 6745.25 2.69993 -2.68112 0
M  V30 69140 H 6744.76 1.18353 -3.69613 0
M  V30 69141 H 6742.87 3.07119 -2.10971 0
M  V30 69142 H 6742.98 2.70082 -3.95718 0
M  V30 69143 H 6741.34 1.5147 -2.04766 0
M  V30 69144 H 6742.13 0.522836 -3.39295 0
M  V30 69145 N 6744.57 1.41715 0.689527 0
M  V30 69146 C 6745.48 1.4641 1.83306 0
M  V30 69147 C 6746.5 0.35414 1.70358 0
M  V30 69148 O 6747.67 0.602793 1.92168 0
M  V30 69149 C 6744.74 1.34999 3.19337 0
M  V30 69150 C 6743.8 2.56362 3.4435 0
M  V30 69151 C 6743.03 2.45486 4.73891 0
M  V30 69152 O 6743.25 1.4827 5.50792 0
M  V30 69153 O 6742.19 3.35354 4.99821 0
M  V30 69154 H 6746.01 2.42899 1.82301 0
M  V30 69155 H 6743.6 1.23319 0.843373 0
M  V30 69156 H 6745.48 1.30941 4.0054 0
M  V30 69157 H 6744.16 0.416289 3.21012 0
M  V30 69158 H 6743.06 2.65996 2.63053 0
M  V30 69159 H 6744.4 3.48581 3.47494 0
M  V30 69160 N 6746.05 -0.924386 1.27643 0
M  V30 69161 C 6747.28 -1.70643 1.16998 0
M  V30 69162 C 6747.69 -1.86819 -0.27277 0
M  V30 69163 O 6747.05 -1.38759 -1.18542 0
M  V30 69164 C 6747.1 -3.1043 1.85245 0
M  V30 69165 O 6746.82 -2.9501 3.23883 0
M  V30 69166 C 6748.32 -4.04769 1.80767 0
M  V30 69167 H 6745.54 -0.533759 0.406623 0
M  V30 69168 H 6748.09 -1.1577 1.68575 0
M  V30 69169 H 6746.24 -3.62153 1.37564 0
M  V30 69170 H 6746.65 -3.83407 3.5791 0
M  V30 69171 H 6748.13 -5.00355 2.33127 0
M  V30 69172 H 6748.61 -4.32259 0.777727 0
M  V30 69173 H 6749.21 -3.58972 2.28077 0
M  V30 69174 N 6747.53 -1.09719 -1.13135 0
M  V30 69175 C 6748.47 -0.734051 -2.20714 0
M  V30 69176 C 6749.47 0.266417 -1.67292 0
M  V30 69177 O 6750.67 0.127561 -1.79547 0
M  V30 69178 H 6747.05 -0.219408 -0.71928 0
M  V30 69179 H 6749.02 -1.65043 -2.48603 0
M  V30 69180 C 6747.77 -0.174032 -3.47264 0
M  V30 69181 H 6747.09 -0.935078 -3.88711 0
M  V30 69182 H 6748.53 0.042089 -4.23979 0
M  V30 69183 C 6746.99 1.09147 -3.1873 0
M  V30 69184 O 6747.52 2.17421 -3.37773 0
M  V30 69185 N 6745.73 1.00717 -2.72588 0
M  V30 69186 H 6745.27 0.125985 -2.57292 0
M  V30 69187 H 6745.23 1.85462 -2.53872 0
M  V30 69188 N 6749 1.30416 -0.884835 0
M  V30 69189 C 6750.42 1.78299 -0.55375 0
M  V30 69190 C 6750.77 1.72755 0.930061 0
M  V30 69191 O 6749.89 1.30432 1.72674 0
M  V30 69192 C 6750.49 3.23755 -0.998405 0
M  V30 69193 C 6749.05 3.69474 -0.718734 0
M  V30 69194 C 6748.19 2.50872 -1.18146 0
M  V30 69195 H 6751.14 1.17288 -1.06907 0
M  V30 69196 H 6751.16 3.7909 -0.327318 0
M  V30 69197 H 6750.68 3.27758 -2.07837 0
M  V30 69198 H 6748.78 3.7096 0.349248 0
M  V30 69199 H 6748.89 4.60951 -1.30619 0
M  V30 69200 H 6747.25 2.47513 -0.6008 0
M  V30 69201 H 6748.04 2.57612 -2.26916 0
M  V30 69202 N 6750.48 0.645774 1.43762 0
M  V30 69203 C 6751.71 0.163664 2.06252 0
M  V30 69204 C 6752.13 -1.1677 1.48358 0
M  V30 69205 O 6751.48 -1.71932 0.612023 0
M  V30 69206 C 6751.53 0.0585092 3.61453 0
M  V30 69207 O 6751.25 1.33724 4.17192 0
M  V30 69208 C 6752.76 -0.450563 4.41004 0
M  V30 69209 H 6749.98 0.0864428 0.665409 0
M  V30 69210 H 6752.52 0.884319 1.84391 0
M  V30 69211 H 6750.67 -0.612663 3.82525 0
M  V30 69212 H 6751.09 1.19158 5.10785 0
M  V30 69213 H 6752.56 -0.473113 5.49969 0
M  V30 69214 H 6753.04 -1.48046 4.13496 0
M  V30 69215 H 6753.65 0.187861 4.24885 0
M  V30 69216 N 6751.96 -1.52769 0.387224 0
M  V30 69217 C 6753.19 -2.0645 -0.198298 0
M  V30 69218 C 6753.61 -1.25724 -1.39911 0
M  V30 69219 O 6752.97 -0.281751 -1.79097 0
M  V30 69220 C 6753.02 -3.56401 -0.548705 0
M  V30 69221 O 6752.12 -3.7826 -1.64295 0
M  V30 69222 H 6751.46 -0.663576 -0.0237381 0
M  V30 69223 H 6753.99 -1.96954 0.554093 0
M  V30 69224 H 6754 -3.99806 -0.813601 0
M  V30 69225 H 6752.68 -4.14595 0.329223 0
M  V30 69226 H 6751.25 -3.46746 -1.37193 0
M  V30 69227 N 6753.44 -0.116987 -1.57165 0
M  V30 69228 C 6754.85 0.408713 -1.82171 0
M  V30 69229 C 6755.2 1.66741 -1.03402 0
M  V30 69230 O 6754.33 2.14709 -0.27 0
M  V30 69231 C 6754.92 0.748291 -3.30433 0
M  V30 69232 C 6753.48 1.21864 -3.56127 0
M  V30 69233 C 6752.63 0.226306 -2.76375 0
M  V30 69234 H 6755.58 -0.342145 -1.54968 0
M  V30 69235 H 6755.6 1.60589 -3.44951 0
M  V30 69236 H 6755.11 -0.167989 -3.87736 0
M  V30 69237 H 6753.21 2.15188 -3.04179 0
M  V30 69238 H 6753.32 1.16535 -4.64711 0
M  V30 69239 H 6751.69 0.712934 -2.44519 0
M  V30 69240 H 6752.47 -0.683036 -3.36436 0
M  V30 69241 N 6754.92 1.56818 0.156781 0
M  V30 69242 C 6755.88 1.96629 1.1777 0
M  V30 69243 C 6756.88 0.851627 1.36396 0
M  V30 69244 O 6758.07 1.11843 1.33555 0
M  V30 69245 C 6755.2 2.27374 2.53996 0
M  V30 69246 H 6756.4 2.88 0.836412 0
M  V30 69247 H 6753.95 1.51101 0.39977 0
M  V30 69248 H 6754.68 1.38763 2.93113 0
M  V30 69249 H 6754.47 3.08636 2.41839 0
M  V30 69250 H 6755.96 2.59046 3.27544 0
M  V30 69251 N 6756.4 -0.425817 1.51738 0
M  V30 69252 C 6757.36 -1.50023 1.73279 0
M  V30 69253 C 6758.36 -1.49077 0.602718 0
M  V30 69254 O 6759.55 -1.50896 0.87041 0
M  V30 69255 C 6756.68 -2.89514 1.79985 0
M  V30 69256 H 6757.87 -1.32223 2.69179 0
M  V30 69257 H 6755.43 -0.655245 1.41902 0
M  V30 69258 H 6756.16 -3.12705 0.859406 0
M  V30 69259 H 6755.95 -2.91605 2.62124 0
M  V30 69260 H 6757.44 -3.67434 1.98449 0
M  V30 69261 N 6757.87 -1.42079 -0.682002 0
M  V30 69262 C 6759.15 -1.32649 -1.43748 0
M  V30 69263 C 6759.53 0.0395498 -2.11063 0
M  V30 69264 O 6758.88 1.05463 -2.02706 0
M  V30 69265 C 6759.09 -2.48958 -2.44583 0
M  V30 69266 C 6760.44 -2.90746 -3.09438 0
M  V30 69267 O 6761.46 -2.48797 -2.54909 0
M  V30 69268 O 6760.32 -3.63329 -4.08233 0
M  V30 69269 H 6757.41 -0.522749 -0.64083 0
M  V30 69270 H 6759.96 -1.54072 -0.711334 0
M  V30 69271 H 6758.73 -3.40056 -1.93591 0
M  V30 69272 H 6758.35 -2.29484 -3.24689 0
M  V30 69273 N 6759.35 0.917604 -1.28132 0
M  V30 69274 C 6760.6 1.66306 -1.14834 0
M  V30 69275 C 6760.92 1.92611 0.304277 0
M  V30 69276 O 6760.19 1.53954 1.21141 0
M  V30 69277 H 6758.77 0.616391 -0.421985 0
M  V30 69278 H 6761.43 1.10125 -1.60805 0
M  V30 69279 H 6760.53 2.62703 -1.68503 0
M  V30 69280 N 6760.83 1.10318 1.12551 0
M  V30 69281 C 6762.06 0.866973 1.8786 0
M  V30 69282 C 6762.47 -0.582462 1.79591 0
M  V30 69283 O 6761.83 -1.4015 1.16895 0
M  V30 69284 C 6761.88 1.30514 3.37118 0
M  V30 69285 O 6761.6 2.69774 3.45187 0
M  V30 69286 C 6763.1 1.10265 4.29368 0
M  V30 69287 H 6760.32 0.311267 0.594436 0
M  V30 69288 H 6762.87 1.46753 1.42421 0
M  V30 69289 H 6761.02 0.748282 3.80105 0
M  V30 69290 H 6761.44 2.8848 4.3804 0
M  V30 69291 H 6762.91 1.4584 5.32386 0
M  V30 69292 H 6763.39 0.0411807 4.39181 0
M  V30 69293 H 6763.99 1.64591 3.9216 0
M  V30 69294 N 6762.31 -1.29945 0.891739 0
M  V30 69295 C 6763.24 -2.26944 0.320815 0
M  V30 69296 C 6764.25 -1.53986 -0.528416 0
M  V30 69297 O 6765.44 -1.75097 -0.346867 0
M  V30 69298 C 6762.54 -3.3421 -0.56189 0
M  V30 69299 C 6761.71 -4.36628 0.259806 0
M  V30 69300 C 6760.77 -5.23271 -0.554464 0
M  V30 69301 O 6759.8 -5.69194 0.0252313 0
M  V30 69302 N 6761 -5.4982 -1.86221 0
M  V30 69303 H 6763.77 -2.76572 1.15447 0
M  V30 69304 H 6761.33 -1.43196 0.755411 0
M  V30 69305 H 6763.32 -3.89099 -1.11284 0
M  V30 69306 H 6761.89 -2.84459 -1.29622 0
M  V30 69307 H 6761.11 -3.81509 0.992188 0
M  V30 69308 H 6762.4 -5.02103 0.822828 0
M  V30 69309 H 6761.8 -5.14304 -2.35601 0
M  V30 69310 H 6760.35 -6.07557 -2.36046 0
M  V30 69311 N 6763.79 -0.653389 -1.43418 0
M  V30 69312 C 6765.03 -0.167098 -2.0211 0
M  V30 69313 C 6765.36 1.21584 -1.5143 0
M  V30 69314 O 6764.64 1.81176 -0.707485 0
M  V30 69315 C 6764.92 -0.178138 -3.59659 0
M  V30 69316 C 6764.78 -1.595 -4.20571 0
M  V30 69317 C 6766.09 0.485369 -4.37415 0
M  V30 69318 H 6763.21 -0.0621944 -0.734371 0
M  V30 69319 H 6765.86 -0.834106 -1.70712 0
M  V30 69320 H 6764.01 0.389828 -3.86539 0
M  V30 69321 H 6765.68 -2.21357 -4.04721 0
M  V30 69322 H 6763.92 -2.14224 -3.77214 0
M  V30 69323 H 6764.59 -1.55458 -5.29657 0
M  V30 69324 H 6767.07 0.00212586 -4.161 0
M  V30 69325 H 6765.94 0.446918 -5.47078 0
M  V30 69326 H 6766.2 1.55952 -4.1368 0
M  V30 69327 N 6765.26 1.52561 -0.39532 0
M  V30 69328 C 6766.49 2.06073 0.184835 0
M  V30 69329 C 6766.91 1.26655 1.40014 0
M  V30 69330 O 6766.26 0.314767 1.79765 0
M  V30 69331 C 6766.31 3.57307 0.548991 0
M  V30 69332 O 6766.04 4.33719 -0.618042 0
M  V30 69333 C 6767.54 4.27186 1.18436 0
M  V30 69334 H 6764.76 0.670478 0.0264672 0
M  V30 69335 H 6767.3 1.96618 -0.562288 0
M  V30 69336 H 6765.46 3.66815 1.24601 0
M  V30 69337 H 6765.87 5.23539 -0.317367 0
M  V30 69338 H 6767.34 5.34226 1.38948 0
M  V30 69339 H 6767.82 3.82782 2.15348 0
M  V30 69340 H 6768.43 4.22011 0.52794 0
M  V30 69341 N 6766.74 0.12532 1.57101 0
M  V30 69342 C 6767.69 -0.822541 2.15645 0
M  V30 69343 C 6768.66 -1.25921 1.0832 0
M  V30 69344 O 6769.84 -1.3356 1.36258 0
M  V30 69345 C 6766.98 -2.06479 2.76515 0
M  V30 69346 C 6766.1 -1.67591 3.98167 0
M  V30 69347 C 6765.23 -2.86831 4.47104 0
M  V30 69348 C 6764.27 -2.44212 5.61272 0
M  V30 69349 N 6763.41 -3.56387 6.04924 0
M  V30 69350 H 6768.25 -0.316469 2.96315 0
M  V30 69351 H 6765.78 -0.14451 1.46388 0
M  V30 69352 H 6767.74 -2.79273 3.0994 0
M  V30 69353 H 6766.37 -2.54534 1.98525 0
M  V30 69354 H 6765.42 -0.846465 3.70863 0
M  V30 69355 H 6766.74 -1.32275 4.80941 0
M  V30 69356 H 6765.89 -3.67842 4.8247 0
M  V30 69357 H 6764.63 -3.25377 3.63292 0
M  V30 69358 H 6763.63 -1.61635 5.25504 0
M  V30 69359 H 6764.86 -2.06776 6.46854 0
M  V30 69360 H 6762.81 -3.94595 5.24052 0
M  V30 69361 H 6762.72 -3.25015 6.82569 0
M  V30 69362 H 6763.99 -4.37819 6.4493 0
M  V30 69363 N 6768.22 -1.56899 -0.148462 0
M  V30 69364 C 6769.47 -1.84428 -0.857779 0
M  V30 69365 C 6769.82 -0.7091 -1.78856 0
M  V30 69366 O 6769.11 0.293039 -1.89346 0
M  V30 69367 C 6769.31 -3.15959 -1.67047 0
M  V30 69368 C 6769.14 -4.42163 -0.819877 0
M  V30 69369 C 6767.91 -5.02957 -0.486063 0
M  V30 69370 C 6770.1 -5.14079 -0.150884 0
M  V30 69371 N 6768.09 -6.12733 0.378279 0
M  V30 69372 C 6769.46 -6.1734 0.573658 0
M  V30 69373 C 6771.51 -4.97849 -0.071406 0
M  V30 69374 C 6770.22 -7.06129 1.37017 0
M  V30 69375 C 6772.24 -5.871 0.711842 0
M  V30 69376 C 6771.6 -6.89842 1.42467 0
M  V30 69377 H 6767.7 -0.725534 -0.29176 0
M  V30 69378 H 6770.29 -1.9431 -0.123244 0
M  V30 69379 H 6768.46 -3.07227 -2.37626 0
M  V30 69380 H 6770.19 -3.314 -2.32284 0
M  V30 69381 H 6766.94 -4.66421 -0.821507 0
M  V30 69382 H 6767.37 -6.7224 0.801431 0
M  V30 69383 H 6772.01 -4.18403 -0.608161 0
M  V30 69384 H 6769.73 -7.85004 1.91819 0
M  V30 69385 H 6773.31 -5.76611 0.775309 0
M  V30 69386 H 6772.19 -7.5771 2.02101 0
M  V30 69387 N 6769.7 0.417764 -1.51962 0
M  V30 69388 C 6770.65 1.52898 -1.75286 0
M  V30 69389 C 6771.64 1.57658 -0.619694 0
M  V30 69390 O 6772.85 1.61169 -0.801542 0
M  V30 69391 H 6769.22 0.508332 -0.554168 0
M  V30 69392 H 6771.19 1.30408 -2.68396 0
M  V30 69393 C 6769.94 2.90359 -1.91278 0
M  V30 69394 H 6769.26 2.87435 -2.77887 0
M  V30 69395 H 6770.7 3.67425 -2.116 0
M  V30 69396 C 6769.16 3.30015 -0.677605 0
M  V30 69397 O 6769.69 4.01387 0.158587 0
M  V30 69398 N 6767.9 2.85982 -0.516001 0
M  V30 69399 H 6767.45 2.28071 -1.19756 0
M  V30 69400 H 6767.4 3.12876 0.30915 0
M  V30 69401 N 6771.18 1.42439 0.674458 0
M  V30 69402 C 6772.11 1.48734 1.80002 0
M  V30 69403 C 6773.09 0.343881 1.66588 0
M  V30 69404 O 6774.27 0.558235 1.86004 0
M  V30 69405 C 6771.4 1.38936 3.18299 0
M  V30 69406 C 6770.36 2.51312 3.46448 0
M  V30 69407 C 6769.68 2.26572 4.84323 0
M  V30 69408 C 6770.98 3.93621 3.43307 0
M  V30 69409 H 6772.68 2.42937 1.74991 0
M  V30 69410 H 6770.22 1.16928 0.840471 0
M  V30 69411 H 6772.18 1.41948 3.96773 0
M  V30 69412 H 6770.9 0.412265 3.23988 0
M  V30 69413 H 6769.56 2.47618 2.70335 0
M  V30 69414 H 6769.21 1.27155 4.86663 0
M  V30 69415 H 6768.91 3.01888 5.0412 0
M  V30 69416 H 6770.43 2.31334 5.65082 0
M  V30 69417 H 6771.84 3.98916 4.11751 0
M  V30 69418 H 6770.24 4.68791 3.7464 0
M  V30 69419 H 6771.31 4.20267 2.41875 0
M  V30 69420 N 6772.65 -0.910796 1.28617 0
M  V30 69421 C 6773.9 -1.66022 1.15943 0
M  V30 69422 C 6774.23 -1.92305 -0.291381 0
M  V30 69423 O 6773.48 -1.52371 -1.22808 0
M  V30 69424 C 6773.78 -3.0231 1.9064 0
M  V30 69425 C 6773.45 -2.95677 3.4042 0
M  V30 69426 C 6772.11 -2.93575 3.81271 0
M  V30 69427 C 6774.46 -2.85705 4.35915 0
M  V30 69428 C 6771.79 -2.79306 5.1595 0
M  V30 69429 C 6774.14 -2.72977 5.70672 0
M  V30 69430 C 6772.81 -2.69235 6.10794 0
M  V30 69431 H 6772.08 -0.607519 0.424266 0
M  V30 69432 H 6774.72 -1.06093 1.59426 0
M  V30 69433 H 6773.03 -3.66042 1.39715 0
M  V30 69434 H 6774.73 -3.59206 1.78247 0
M  V30 69435 H 6771.32 -2.98109 3.07943 0
M  V30 69436 H 6775.5 -2.86415 4.05315 0
M  V30 69437 H 6770.76 -2.74807 5.46161 0
M  V30 69438 H 6774.93 -2.6423 6.44325 0
M  V30 69439 H 6772.56 -2.57936 7.15104 0
M  V30 69440 N 6774.13 -1.10913 -1.11965 0
M  V30 69441 C 6775.08 -0.762459 -2.17842 0
M  V30 69442 C 6776.05 0.263513 -1.63996 0
M  V30 69443 O 6777.23 0.141673 -1.90273 0
M  V30 69444 C 6774.37 -0.205832 -3.44486 0
M  V30 69445 C 6773.49 -1.2877 -4.12362 0
M  V30 69446 C 6772.62 -0.692197 -5.26671 0
M  V30 69447 C 6771.66 -1.7543 -5.86422 0
M  V30 69448 N 6770.8 -1.17869 -6.92135 0
M  V30 69449 H 6775.64 -1.66953 -2.46842 0
M  V30 69450 H 6773.18 -0.833839 -1.21184 0
M  V30 69451 H 6775.13 0.134817 -4.16982 0
M  V30 69452 H 6773.76 0.664446 -3.15888 0
M  V30 69453 H 6772.82 -1.7454 -3.37994 0
M  V30 69454 H 6774.13 -2.09149 -4.52833 0
M  V30 69455 H 6773.28 -0.301283 -6.05951 0
M  V30 69456 H 6772.02 0.142975 -4.8749 0
M  V30 69457 H 6771.03 -2.15458 -5.05824 0
M  V30 69458 H 6772.25 -2.59241 -6.27671 0
M  V30 69459 H 6770.2 -0.36507 -6.54983 0
M  V30 69460 H 6770.11 -1.91926 -7.31232 0
M  V30 69461 H 6771.38 -0.814489 -7.75233 0
M  V30 69462 N 6775.61 1.29471 -0.898618 0
M  V30 69463 C 6777.03 1.48112 -0.594561 0
M  V30 69464 C 6777.23 1.82026 0.864214 0
M  V30 69465 O 6776.28 1.91607 1.64447 0
M  V30 69466 C 6777.6 2.59486 -1.51945 0
M  V30 69467 C 6779.14 2.73362 -1.52454 0
M  V30 69468 C 6779.62 3.87864 -2.43569 0
M  V30 69469 N 6781.11 3.95195 -2.41609 0
M  V30 69470 C 6781.84 4.83137 -3.08815 0
M  V30 69471 N 6781.34 5.75777 -3.85295 0
M  V30 69472 N 6783.13 4.76619 -2.97978 0
M  V30 69473 H 6775.28 1.05733 -1.84213 0
M  V30 69474 H 6777.55 0.525112 -0.789279 0
M  V30 69475 H 6777.25 2.41287 -2.55877 0
M  V30 69476 H 6777.13 3.56264 -1.23918 0
M  V30 69477 H 6779.51 2.90958 -0.492671 0
M  V30 69478 H 6779.6 1.77162 -1.84519 0
M  V30 69479 H 6779.24 3.71023 -3.46849 0
M  V30 69480 H 6779.17 4.8343 -2.08814 0
M  V30 69481 H 6781.66 3.28933 -1.86042 0
M  V30 69482 H 6781.97 6.39674 -4.33632 0
M  V30 69483 H 6780.32 5.75666 -3.89402 0
M  V30 69484 H 6783.51 4.03231 -2.37744 0
M  V30 69485 H 6783.68 5.44944 -3.50628 0
M  V30 69486 N 6777.09 0.660986 1.43069 0
M  V30 69487 C 6778.04 -0.0258667 2.30786 0
M  V30 69488 C 6779.01 -0.806811 1.45189 0
M  V30 69489 O 6780.19 -0.781851 1.74045 0
M  V30 69490 C 6777.33 -0.980892 3.30866 0
M  V30 69491 C 6776.44 -0.19523 4.31559 0
M  V30 69492 C 6775.58 -1.14476 5.18718 0
M  V30 69493 C 6774.62 -0.349977 6.11099 0
M  V30 69494 N 6773.75 -1.25149 6.90856 0
M  V30 69495 H 6778.59 0.727998 2.88971 0
M  V30 69496 H 6776.13 0.370757 1.42351 0
M  V30 69497 H 6778.09 -1.54828 3.87407 0
M  V30 69498 H 6776.72 -1.70154 2.74313 0
M  V30 69499 H 6775.77 0.488573 3.77249 0
M  V30 69500 H 6777.08 0.422438 4.97008 0
M  V30 69501 H 6776.24 -1.78253 5.79923 0
M  V30 69502 H 6774.98 -1.79633 4.53413 0
M  V30 69503 H 6773.98 0.301098 5.48975 0
M  V30 69504 H 6775.21 0.297299 6.78449 0
M  V30 69505 H 6773.15 -1.88972 6.28192 0
M  V30 69506 H 6773.07 -0.688574 7.52858 0
M  V30 69507 H 6774.34 -1.87717 7.5656 0
M  V30 69508 N 6778.57 -1.5235 0.403405 0
M  V30 69509 C 6779.79 -2.06649 -0.17639 0
M  V30 69510 C 6780.22 -1.27201 -1.3857 0
M  V30 69511 O 6779.57 -0.300731 -1.78788 0
M  V30 69512 C 6779.62 -3.56963 -0.510873 0
M  V30 69513 O 6778.73 -3.79982 -1.60274 0
M  V30 69514 H 6778.07 -0.66379 -0.0166987 0
M  V30 69515 H 6780.6 -1.96355 0.574951 0
M  V30 69516 H 6780.61 -4.00646 -0.771151 0
M  V30 69517 H 6779.28 -4.14222 0.373178 0
M  V30 69518 H 6777.86 -3.48181 -1.33507 0
M  V30 69519 N 6780.04 -0.13365 -1.57032 0
M  V30 69520 C 6780.99 0.811094 -2.16078 0
M  V30 69521 C 6781.96 1.25345 -1.08986 0
M  V30 69522 O 6783.15 1.32836 -1.36965 0
M  V30 69523 C 6780.29 2.0501 -2.77606 0
M  V30 69524 C 6779.4 1.65477 -3.9905 0
M  V30 69525 C 6778.53 2.84455 -4.48618 0
M  V30 69526 C 6777.57 2.41232 -5.6256 0
M  V30 69527 N 6776.71 3.53174 -6.06805 0
M  V30 69528 H 6781.55 0.30075 -2.96478 0
M  V30 69529 H 6779.09 0.136745 -1.46463 0
M  V30 69530 H 6781.05 2.77625 -3.11416 0
M  V30 69531 H 6779.68 2.53478 -1.99872 0
M  V30 69532 H 6778.73 0.826785 -3.71306 0
M  V30 69533 H 6780.04 1.29723 -4.81636 0
M  V30 69534 H 6779.19 3.65278 -4.84414 0
M  V30 69535 H 6777.93 3.23446 -3.65012 0
M  V30 69536 H 6776.94 1.58846 -5.26353 0
M  V30 69537 H 6778.16 2.03343 -6.47942 0
M  V30 69538 H 6776.11 3.9181 -5.26138 0
M  V30 69539 H 6776.03 3.21391 -6.84283 0
M  V30 69540 H 6777.29 4.34392 -6.47243 0
M  V30 69541 N 6781.52 1.56976 0.14014 0
M  V30 69542 C 6782.45 1.95394 1.19807 0
M  V30 69543 C 6783.47 0.850598 1.38812 0
M  V30 69544 O 6784.66 1.12899 1.38261 0
M  V30 69545 C 6781.76 2.21871 2.56177 0
M  V30 69546 C 6780.93 3.53163 2.58059 0
M  V30 69547 C 6779.99 3.68099 3.76018 0
M  V30 69548 O 6779.01 4.40425 3.60575 0
M  V30 69549 N 6780.22 3.05277 4.93747 0
M  V30 69550 H 6782.98 2.8675 0.871458 0
M  V30 69551 H 6780.54 1.58509 0.329637 0
M  V30 69552 H 6782.53 2.29098 3.33611 0
M  V30 69553 H 6781.1 1.36746 2.81104 0
M  V30 69554 H 6780.32 3.57315 1.66491 0
M  V30 69555 H 6781.61 4.395 2.56354 0
M  V30 69556 H 6781.01 2.46446 5.09196 0
M  V30 69557 H 6779.57 3.18056 5.68932 0
M  V30 69558 N 6783 -0.409699 1.52182 0
M  V30 69559 C 6784.23 -1.17844 1.7006 0
M  V30 69560 C 6784.64 -1.84298 0.409832 0
M  V30 69561 O 6784 -1.71858 -0.614092 0
M  V30 69562 C 6784.05 -2.24198 2.8358 0
M  V30 69563 O 6783.77 -1.60457 4.07658 0
M  V30 69564 C 6785.27 -3.13957 3.12963 0
M  V30 69565 H 6782.49 -0.354139 0.569936 0
M  V30 69566 H 6785.04 -0.482093 1.98736 0
M  V30 69567 H 6783.19 -2.89502 2.57424 0
M  V30 69568 H 6783.61 -2.30961 4.70911 0
M  V30 69569 H 6785.08 -3.84656 3.95909 0
M  V30 69570 H 6785.56 -3.76295 2.26491 0
M  V30 69571 H 6786.16 -2.54322 3.40882 0
M  V30 69572 N 6784.48 -1.42795 -0.666894 0
M  V30 69573 C 6785.71 -1.47099 -1.45498 0
M  V30 69574 C 6786.12 -0.0846868 -1.8861 0
M  V30 69575 O 6785.48 0.902257 -1.58637 0
M  V30 69576 C 6785.53 -2.40499 -2.69893 0
M  V30 69577 O 6785.25 -3.73737 -2.28588 0
M  V30 69578 C 6786.75 -2.53905 -3.63383 0
M  V30 69579 H 6783.97 -0.500045 -0.447433 0
M  V30 69580 H 6786.52 -1.87394 -0.818767 0
M  V30 69581 H 6784.67 -2.03436 -3.29685 0
M  V30 69582 H 6785.09 -4.23833 -3.08975 0
M  V30 69583 H 6786.56 -3.23363 -4.4737 0
M  V30 69584 H 6787.04 -1.57949 -4.09815 0
M  V30 69585 H 6787.64 -2.91723 -3.0948 0
M  V30 69586 N 6785.96 0.903962 -1.29098 0
M  V30 69587 C 6786.91 2.02895 -1.13738 0
M  V30 69588 C 6787.9 1.69314 -0.0540746 0
M  V30 69589 O 6789.11 1.78729 -0.213564 0
M  V30 69590 H 6785.48 0.66495 -0.351205 0
M  V30 69591 H 6787.45 2.1299 -2.08993 0
M  V30 69592 C 6786.2 3.3774 -0.826244 0
M  V30 69593 H 6785.52 3.6408 -1.65183 0
M  V30 69594 H 6786.96 4.17155 -0.758779 0
M  V30 69595 C 6785.42 3.336 0.470365 0
M  V30 69596 O 6785.95 3.72735 1.49772 0
M  V30 69597 N 6784.16 2.86697 0.474661 0
M  V30 69598 H 6783.71 2.55046 -0.361827 0
M  V30 69599 H 6783.66 2.8431 1.34221 0
M  V30 69600 N 6787.44 1.11505 1.11375 0
M  V30 69601 C 6788.68 0.864328 1.83127 0
M  V30 69602 C 6789.01 -0.610017 1.84686 0
M  V30 69603 O 6788.27 -1.4664 1.29597 0
M  V30 69604 C 6788.56 1.37195 3.30019 0
M  V30 69605 C 6788.23 2.85964 3.48619 0
M  V30 69606 C 6786.89 3.26588 3.53403 0
M  V30 69607 C 6789.24 3.81778 3.54817 0
M  V30 69608 C 6786.57 4.61752 3.61942 0
M  V30 69609 C 6788.92 5.16759 3.64888 0
M  V30 69610 C 6787.59 5.5694 3.67932 0
M  V30 69611 H 6786.86 0.31628 0.67011 0
M  V30 69612 H 6789.51 1.39357 1.31346 0
M  V30 69613 H 6787.81 0.762955 3.843 0
M  V30 69614 H 6789.51 1.15429 3.84028 0
M  V30 69615 H 6786.1 2.53539 3.45566 0
M  V30 69616 H 6790.28 3.51493 3.5038 0
M  V30 69617 H 6785.54 4.92289 3.62577 0
M  V30 69618 H 6789.71 5.90836 3.68627 0
M  V30 69619 H 6787.34 6.61666 3.74301 0
M  V30 69620 N 6788.91 -1.28992 0.905472 0
M  V30 69621 C 6789.82 -2.31296 0.392368 0
M  V30 69622 C 6790.84 -1.66179 -0.515802 0
M  V30 69623 O 6792.02 -1.97307 -0.403989 0
M  V30 69624 C 6789.08 -3.44756 -0.366679 0
M  V30 69625 C 6788.14 -4.25449 0.573709 0
M  V30 69626 C 6787.37 -5.33491 -0.149207 0
M  V30 69627 O 6787.6 -5.53647 -1.37225 0
M  V30 69628 O 6786.53 -5.99725 0.511235 0
M  V30 69629 H 6790.36 -2.77176 1.24125 0
M  V30 69630 H 6787.94 -1.33534 0.669996 0
M  V30 69631 H 6789.82 -4.1382 -0.795689 0
M  V30 69632 H 6788.5 -3.00972 -1.19153 0
M  V30 69633 H 6787.41 -3.59005 1.05195 0
M  V30 69634 H 6788.74 -4.7289 1.36514 0
M  V30 69635 N 6790.39 -0.668564 -1.42716 0
M  V30 69636 C 6791.34 0.0253631 -2.32586 0
M  V30 69637 C 6792.33 0.797097 -1.49475 0
M  V30 69638 O 6793.54 0.705765 -1.65587 0
M  V30 69639 H 6789.91 0.0269943 -0.751515 0
M  V30 69640 H 6791.89 -0.750089 -2.88819 0
M  V30 69641 C 6790.63 0.96725 -3.33975 0
M  V30 69642 H 6789.96 0.382838 -3.97963 0
M  V30 69643 H 6791.4 1.42159 -3.99458 0
M  V30 69644 C 6789.86 2.07066 -2.65755 0
M  V30 69645 O 6790.39 3.15635 -2.4847 0
M  V30 69646 N 6788.59 1.84058 -2.2488 0
M  V30 69647 H 6788.14 0.957654 -2.39138 0
M  V30 69648 H 6788.1 2.58076 -1.79566 0
M  V30 69649 N 6791.87 1.52134 -0.411479 0
M  V30 69650 C 6793.28 1.86611 0.0575842 0
M  V30 69651 C 6793.63 1.33011 1.44231 0
M  V30 69652 O 6792.76 0.670336 2.05756 0
M  V30 69653 C 6793.35 3.38617 0.111269 0
M  V30 69654 C 6791.91 3.72725 0.524674 0
M  V30 69655 C 6791.06 2.7568 -0.299321 0
M  V30 69656 H 6794.01 1.45727 -0.628445 0
M  V30 69657 H 6794.03 3.69059 0.926057 0
M  V30 69658 H 6793.54 3.77599 -0.896687 0
M  V30 69659 H 6791.64 3.39323 1.53919 0
M  V30 69660 H 6791.76 4.78353 0.267429 0
M  V30 69661 H 6790.12 2.53579 0.23868 0
M  V30 69662 H 6790.9 3.17501 -1.30567 0
M  V30 69663 N 6793.35 0.141976 1.56959 0
M  V30 69664 C 6794.6 -0.510324 1.95137 0
M  V30 69665 C 6794.91 -1.66343 1.02905 0
M  V30 69666 O 6796.12 -2.38002 1.30641 0
M  V30 69667 C 6794.57 -0.959244 3.46881 0
M  V30 69668 C 6794.18 0.166655 4.4769 0
M  V30 69669 C 6795.92 -1.58162 3.93935 0
M  V30 69670 C 6793.83 -0.300253 5.90637 0
M  V30 69671 H 6792.76 -0.194416 0.728504 0
M  V30 69672 H 6795.41 0.225516 1.82109 0
M  V30 69673 H 6793.79 -1.75019 3.55224 0
M  V30 69674 H 6794.97 0.943488 4.51038 0
M  V30 69675 H 6793.28 0.697121 4.10523 0
M  V30 69676 H 6795.88 -1.94249 4.98168 0
M  V30 69677 H 6796.22 -2.4687 3.35203 0
M  V30 69678 H 6796.76 -0.855658 3.88489 0
M  V30 69679 H 6793.49 0.551333 6.53177 0
M  V30 69680 H 6793.01 -1.04307 5.90661 0
M  V30 69681 H 6794.69 -0.753926 6.42592 0
M  V30 69682 N 6794.83 -1.57048 -0.131813 0
M  V30 69683 C 6796.06 -1.88072 -0.85512 0
M  V30 69684 C 6796.46 -0.729909 -1.74554 0
M  V30 69685 O 6795.81 0.308867 -1.81085 0
M  V30 69686 C 6795.87 -3.13973 -1.75103 0
M  V30 69687 C 6795.53 -4.45097 -1.03623 0
M  V30 69688 C 6796.53 -5.18487 -0.383003 0
M  V30 69689 C 6794.21 -4.91809 -1.02122 0
M  V30 69690 C 6796.21 -6.36804 0.275683 0
M  V30 69691 C 6793.9 -6.10046 -0.358726 0
M  V30 69692 C 6794.89 -6.8239 0.288581 0
M  V30 69693 O 6794.58 -7.98379 0.940531 0
M  V30 69694 H 6794.31 -0.627341 -0.251831 0
M  V30 69695 H 6796.87 -2.05021 -0.124674 0
M  V30 69696 H 6795.1 -2.93073 -2.5228 0
M  V30 69697 H 6796.79 -3.31121 -2.34762 0
M  V30 69698 H 6797.55 -4.83459 -0.386307 0
M  V30 69699 H 6793.43 -4.35413 -1.51447 0
M  V30 69700 H 6796.98 -6.93209 0.781514 0
M  V30 69701 H 6792.87 -6.44533 -0.353141 0
M  V30 69702 H 6793.64 -8.1414 0.843719 0
M  V30 69703 N 6796.3 0.401623 -1.52397 0
M  V30 69704 C 6797.27 1.47247 -1.75644 0
M  V30 69705 C 6798.27 1.48099 -0.626358 0
M  V30 69706 O 6799.46 1.49492 -0.894306 0
M  V30 69707 C 6796.59 2.86614 -1.84568 0
M  V30 69708 H 6797.78 1.27923 -2.71248 0
M  V30 69709 H 6795.33 0.632587 -1.42927 0
M  V30 69710 H 6796.07 3.11299 -0.909046 0
M  V30 69711 H 6795.85 2.87398 -2.6673 0
M  V30 69712 H 6797.34 3.6423 -2.0427 0
M  V30 69713 N 6797.78 1.43146 0.659312 0
M  V30 69714 C 6798.71 1.43794 1.78483 0
M  V30 69715 C 6799.73 0.334871 1.59319 0
M  V30 69716 O 6800.92 0.598931 1.68152 0
M  V30 69717 C 6798.02 1.22922 3.15822 0
M  V30 69718 C 6797.19 2.45953 3.61698 0
M  V30 69719 C 6796.25 2.20397 4.7782 0
M  V30 69720 O 6795.27 2.93707 4.87571 0
M  V30 69721 N 6796.48 1.21677 5.67605 0
M  V30 69722 H 6799.24 2.40813 1.78408 0
M  V30 69723 H 6796.8 1.38225 0.842947 0
M  V30 69724 H 6798.79 1.03717 3.91184 0
M  V30 69725 H 6797.36 0.343706 3.10705 0
M  V30 69726 H 6796.58 2.80624 2.76847 0
M  V30 69727 H 6797.87 3.27846 3.89095 0
M  V30 69728 H 6797.27 0.610745 5.62393 0
M  V30 69729 H 6795.83 1.08457 6.42713 0
M  V30 69730 N 6799.26 -0.897103 1.29576 0
M  V30 69731 C 6800.19 -2.00349 1.09251 0
M  V30 69732 C 6801.17 -1.626 0.00362585 0
M  V30 69733 O 6802.36 -1.87863 0.154829 0
M  V30 69734 C 6799.48 -3.32134 0.663695 0
M  V30 69735 C 6798.53 -3.88869 1.75167 0
M  V30 69736 S 6799.36 -4.17657 3.35146 0
M  V30 69737 C 6800.52 -5.52479 2.94139 0
M  V30 69738 H 6800.75 -2.17282 2.02919 0
M  V30 69739 H 6798.28 -1.04402 1.13752 0
M  V30 69740 H 6800.24 -4.08315 0.423007 0
M  V30 69741 H 6798.9 -3.13076 -0.253423 0
M  V30 69742 H 6798.1 -4.8406 1.40363 0
M  V30 69743 H 6797.7 -3.19384 1.94601 0
M  V30 69744 H 6799.99 -6.33055 2.41346 0
M  V30 69745 H 6800.93 -5.9221 3.88192 0
M  V30 69746 H 6801.34 -5.1446 2.32359 0
M  V30 69747 N 6800.74 -1.12094 -1.10782 0
M  V30 69748 C 6801.65 -0.798455 -2.20594 0
M  V30 69749 C 6802.66 0.211259 -1.72713 0
M  V30 69750 O 6803.84 0.0457416 -2.01348 0
M  V30 69751 C 6800.91 -0.253856 -3.45769 0
M  V30 69752 C 6799.97 -1.32305 -4.08404 0
M  V30 69753 C 6799.2 -0.804338 -5.27604 0
M  V30 69754 O 6799.42 0.363177 -5.69243 0
M  V30 69755 O 6798.36 -1.57229 -5.81002 0
M  V30 69756 H 6802.18 -1.71554 -2.50605 0
M  V30 69757 H 6799.77 -0.897338 -1.1945 0
M  V30 69758 H 6801.65 0.0451469 -4.21376 0
M  V30 69759 H 6800.32 0.635838 -3.17394 0
M  V30 69760 H 6799.23 -1.67516 -3.34498 0
M  V30 69761 H 6800.56 -2.18637 -4.40974 0
M  V30 69762 N 6802.22 1.2851 -0.9123 0
M  V30 69763 C 6803.16 2.29312 -0.389718 0
M  V30 69764 C 6804.16 1.61291 0.51783 0
M  V30 69765 O 6805.36 1.75517 0.399235 0
M  V30 69766 H 6801.74 0.744288 -0.107425 0
M  V30 69767 H 6803.71 2.70818 -1.253 0
M  V30 69768 C 6802.46 3.45869 0.356313 0
M  V30 69769 H 6801.78 3.98412 -0.332818 0
M  V30 69770 H 6803.22 4.18403 0.68663 0
M  V30 69771 C 6801.68 2.98414 1.56367 0
M  V30 69772 O 6802.21 3.00763 2.66278 0
M  V30 69773 N 6800.42 2.54092 1.41016 0
M  V30 69774 H 6799.96 2.5238 0.515956 0
M  V30 69775 H 6799.92 2.22701 2.21927 0
M  V30 69776 N 6803.69 0.676123 1.4236 0
M  V30 69777 C 6804.6 -0.00141018 2.346 0
M  V30 69778 C 6805.62 -0.787403 1.55164 0
M  V30 69779 O 6806.8 -0.729422 1.87727 0
M  V30 69780 C 6803.86 -0.940122 3.3371 0
M  V30 69781 C 6802.92 -0.148513 4.29043 0
M  V30 69782 C 6802.16 -1.04251 5.23419 0
M  V30 69783 O 6802.38 -2.28204 5.22761 0
M  V30 69784 O 6801.31 -0.502609 5.99798 0
M  V30 69785 H 6805.14 0.758423 2.94078 0
M  V30 69786 H 6802.72 0.436365 1.42885 0
M  V30 69787 H 6804.61 -1.47897 3.94594 0
M  V30 69788 H 6803.28 -1.67978 2.76704 0
M  V30 69789 H 6802.19 0.434466 3.71569 0
M  V30 69790 H 6803.52 0.552063 4.89094 0
M  V30 69791 N 6805.17 -1.51913 0.419541 0
M  V30 69792 C 6806.1 -2.25008 -0.436341 0
M  V30 69793 C 6807.12 -1.28356 -1.00142 0
M  V30 69794 O 6808.31 -1.54232 -0.898593 0
M  V30 69795 C 6805.41 -2.97649 -1.62044 0
M  V30 69796 C 6804.58 -4.21255 -1.17741 0
M  V30 69797 C 6803.64 -4.76629 -2.2296 0
M  V30 69798 O 6802.66 -5.38939 -1.83123 0
M  V30 69799 N 6803.87 -4.59108 -3.55247 0
M  V30 69800 H 6806.63 -2.99097 0.190048 0
M  V30 69801 H 6804.19 -1.59997 0.24747 0
M  V30 69802 H 6806.18 -3.31585 -2.3202 0
M  V30 69803 H 6804.75 -2.26682 -2.15254 0
M  V30 69804 H 6803.97 -3.93015 -0.305375 0
M  V30 69805 H 6805.26 -5.01505 -0.858517 0
M  V30 69806 H 6804.66 -4.09437 -3.90356 0
M  V30 69807 H 6803.22 -4.97454 -4.21168 0
M  V30 69808 N 6806.65 -0.150297 -1.56882 0
M  V30 69809 C 6807.6 0.78813 -2.16927 0
M  V30 69810 C 6808.57 1.24182 -1.10309 0
M  V30 69811 O 6809.75 1.31375 -1.38366 0
M  V30 69812 C 6806.89 2.02054 -2.79765 0
M  V30 69813 C 6806.01 1.61235 -4.00783 0
M  V30 69814 C 6805.14 2.79681 -4.5161 0
M  V30 69815 C 6804.18 2.35252 -5.65087 0
M  V30 69816 N 6803.32 3.46718 -6.10517 0
M  V30 69817 H 6808.16 0.269288 -2.96781 0
M  V30 69818 H 6805.69 0.121203 -1.466 0
M  V30 69819 H 6807.65 2.74307 -3.14343 0
M  V30 69820 H 6806.28 2.51344 -2.02549 0
M  V30 69821 H 6805.33 0.787357 -3.72162 0
M  V30 69822 H 6806.65 1.24607 -4.82985 0
M  V30 69823 H 6805.8 3.60119 -4.88261 0
M  V30 69824 H 6804.54 3.19556 -3.68422 0
M  V30 69825 H 6803.54 1.53255 -5.28009 0
M  V30 69826 H 6804.77 1.96459 -6.50062 0
M  V30 69827 H 6802.71 3.86208 -5.30264 0
M  V30 69828 H 6802.63 3.14115 -6.87654 0
M  V30 69829 H 6803.9 4.27503 -6.51814 0
M  V30 69830 N 6808.13 1.57116 0.123482 0
M  V30 69831 C 6809.04 2.03306 1.17063 0
M  V30 69832 C 6810.05 0.952636 1.45605 0
M  V30 69833 O 6811.23 1.26383 1.5681 0
M  V30 69834 C 6808.3 2.42434 2.47844 0
M  V30 69835 C 6807.36 3.64538 2.26739 0
M  V30 69836 C 6806.59 4.0179 3.51284 0
M  V30 69837 O 6806.81 3.39433 4.58412 0
M  V30 69838 O 6805.75 4.94916 3.42552 0
M  V30 69839 H 6809.57 2.92743 0.808401 0
M  V30 69840 H 6807.16 1.4562 0.33395 0
M  V30 69841 H 6809.04 2.68355 3.24905 0
M  V30 69842 H 6807.71 1.56145 2.8355 0
M  V30 69843 H 6806.62 3.43772 1.47551 0
M  V30 69844 H 6807.95 4.51518 1.95939 0
M  V30 69845 N 6809.61 -0.393535 1.52608 0
M  V30 69846 C 6810.83 -1.16486 1.71598 0
M  V30 69847 C 6811.26 -1.83086 0.431427 0
M  V30 69848 O 6810.61 -1.70643 -0.612433 0
M  V30 69849 C 6810.66 -2.19198 2.86329 0
M  V30 69850 O 6809.77 -3.25686 2.52986 0
M  V30 69851 H 6809.11 -0.33932 0.570752 0
M  V30 69852 H 6811.64 -0.459219 1.9938 0
M  V30 69853 H 6811.65 -2.6327 3.11694 0
M  V30 69854 H 6810.32 -1.7011 3.7952 0
M  V30 69855 H 6808.9 -2.86784 2.38347 0
M  V30 69856 N 6811.08 -1.43494 -0.651711 0
M  V30 69857 C 6812.33 -1.45406 -1.41368 0
M  V30 69858 C 6812.66 -0.0785846 -1.94041 0
M  V30 69859 O 6811.94 0.900787 -1.72384 0
M  V30 69860 C 6812.22 -2.49766 -2.59401 0
M  V30 69861 C 6812.07 -3.96594 -2.12211 0
M  V30 69862 C 6813.39 -2.50847 -3.61613 0
M  V30 69863 H 6810.51 -0.529449 -0.512691 0
M  V30 69864 H 6813.15 -1.75052 -0.738704 0
M  V30 69865 H 6811.3 -2.24617 -3.16985 0
M  V30 69866 H 6812.98 -4.32805 -1.59616 0
M  V30 69867 H 6811.22 -4.09353 -1.4357 0
M  V30 69868 H 6811.89 -4.65229 -2.97095 0
M  V30 69869 H 6814.37 -2.73266 -3.13791 0
M  V30 69870 H 6813.24 -3.25806 -4.41749 0
M  V30 69871 H 6813.5 -1.54282 -4.14306 0
M  V30 69872 N 6812.56 0.890219 -1.30049 0
M  V30 69873 C 6813.53 1.97694 -1.15974 0
M  V30 69874 C 6814.53 1.60534 -0.0924623 0
M  V30 69875 O 6815.72 1.70847 -0.340161 0
M  V30 69876 C 6812.85 3.31959 -0.775626 0
M  V30 69877 H 6814.04 2.11608 -2.12514 0
M  V30 69878 H 6811.59 1.07595 -1.13371 0
M  V30 69879 H 6812.33 3.23746 0.1895 0
M  V30 69880 H 6812.11 3.60298 -1.54687 0
M  V30 69881 H 6813.6 4.11683 -0.700468 0
M  V30 69882 N 6814.04 1.1268 1.10186 0
M  V30 69883 C 6815 0.800092 2.14782 0
M  V30 69884 C 6816 -0.186766 1.59712 0
M  V30 69885 O 6817.19 0.0393476 1.74156 0
M  V30 69886 C 6814.33 0.189407 3.40373 0
M  V30 69887 H 6815.52 1.72684 2.45194 0
M  V30 69888 H 6813.07 0.930392 1.25592 0
M  V30 69889 H 6813.81 -0.74694 3.15581 0
M  V30 69890 H 6813.59 0.899967 3.81632 0
M  V30 69891 H 6815.08 -0.0225941 4.17594 0
M  V30 69892 N 6815.52 -1.28025 0.919102 0
M  V30 69893 C 6816.75 -1.98863 0.571076 0
M  V30 69894 C 6817.16 -1.68639 -0.848907 0
M  V30 69895 O 6816.52 -0.942118 -1.56302 0
M  V30 69896 C 6816.57 -3.5305 0.777063 0
M  V30 69897 O 6816.29 -3.82211 2.14117 0
M  V30 69898 C 6817.79 -4.41145 0.436588 0
M  V30 69899 H 6815.01 -0.634871 0.217208 0
M  V30 69900 H 6817.56 -1.6309 1.23377 0
M  V30 69901 H 6815.71 -3.87064 0.161289 0
M  V30 69902 H 6816.13 -4.7683 2.1848 0
M  V30 69903 H 6817.6 -5.48376 0.63146 0
M  V30 69904 H 6818.08 -4.34695 -0.627457 0
M  V30 69905 H 6818.68 -4.12636 1.03013 0
M  V30 69906 N 6817 -0.683663 -1.41999 0
M  V30 69907 C 6818.41 -0.285833 -1.84499 0
M  V30 69908 C 6818.76 1.17374 -1.57219 0
M  V30 69909 O 6817.88 1.89961 -1.03652 0
M  V30 69910 C 6818.48 -0.511998 -3.34909 0
M  V30 69911 C 6817.04 -0.168203 -3.76024 0
M  V30 69912 C 6816.19 -0.800123 -2.65506 0
M  V30 69913 H 6819.14 -0.885188 -1.3172 0
M  V30 69914 H 6819.16 0.233092 -3.79785 0
M  V30 69915 H 6818.67 -1.57437 -3.54733 0
M  V30 69916 H 6816.77 0.890376 -3.61805 0
M  V30 69917 H 6816.88 -0.614911 -4.75138 0
M  V30 69918 H 6815.25 -0.230702 -2.53653 0
M  V30 69919 H 6816.03 -1.86613 -2.8815 0
M  V30 69920 N 6818.48 1.51689 -0.427592 0
M  V30 69921 C 6819.89 1.86662 0.0377883 0
M  V30 69922 C 6820.24 1.34533 1.42812 0
M  V30 69923 O 6819.36 0.692122 2.05033 0
M  V30 69924 C 6819.96 3.38716 0.075348 0
M  V30 69925 C 6818.52 3.73261 0.485112 0
M  V30 69926 C 6817.66 2.75347 -0.328544 0
M  V30 69927 H 6820.61 1.45052 -0.643866 0
M  V30 69928 H 6820.64 3.7002 0.886861 0
M  V30 69929 H 6820.15 3.76627 -0.936686 0
M  V30 69930 H 6818.25 3.40936 1.50311 0
M  V30 69931 H 6818.36 4.7861 0.216678 0
M  V30 69932 H 6816.73 2.53818 0.211771 0
M  V30 69933 H 6817.51 3.16099 -1.33927 0
M  V30 69934 N 6819.95 0.158615 1.568 0
M  V30 69935 C 6821.36 -0.36027 1.83191 0
M  V30 69936 C 6821.72 -1.63941 1.07787 0
M  V30 69937 O 6820.84 -2.13918 0.326831 0
M  V30 69938 C 6821.44 -0.66042 3.32301 0
M  V30 69939 C 6819.99 -1.12379 3.59233 0
M  V30 69940 C 6819.14 -0.152951 2.76878 0
M  V30 69941 H 6822.09 0.383112 1.54006 0
M  V30 69942 H 6822.11 -1.51386 3.49088 0
M  V30 69943 H 6821.63 0.270731 3.87155 0
M  V30 69944 H 6819.73 -2.07048 3.09777 0
M  V30 69945 H 6819.84 -1.04173 4.67638 0
M  V30 69946 H 6818.2 -0.647853 2.46323 0
M  V30 69947 H 6818.99 0.771996 3.34507 0
M  V30 69948 N 6821.43 -1.57179 -0.115148 0
M  V30 69949 C 6822.66 -1.89617 -0.840254 0
M  V30 69950 C 6823.08 -0.750935 -1.7246 0
M  V30 69951 O 6822.44 0.298384 -1.78828 0
M  V30 69952 C 6822.49 -3.20823 -1.64637 0
M  V30 69953 O 6821.59 -3.06999 -2.75364 0
M  V30 69954 H 6820.93 -0.622105 -0.232125 0
M  V30 69955 H 6823.46 -2.04373 -0.0963899 0
M  V30 69956 H 6823.47 -3.53638 -2.0348 0
M  V30 69957 H 6822.15 -4.03768 -0.997203 0
M  V30 69958 H 6820.72 -2.85659 -2.39695 0
M  V30 69959 N 6822.91 0.385437 -1.52814 0
M  V30 69960 C 6824.32 0.963209 -1.59935 0
M  V30 69961 C 6824.67 1.90865 -0.454402 0
M  V30 69962 O 6823.8 2.12245 0.42202 0
M  V30 69963 C 6824.39 1.75371 -2.8988 0
M  V30 69964 C 6822.95 2.28113 -2.99401 0
M  V30 69965 C 6822.1 1.0877 -2.55077 0
M  V30 69966 H 6825.05 0.164865 -1.57841 0
M  V30 69967 H 6825.07 2.61326 -2.76566 0
M  V30 69968 H 6824.58 1.06535 -3.73192 0
M  V30 69969 H 6822.68 3.00252 -2.20635 0
M  V30 69970 H 6822.8 2.57356 -4.0411 0
M  V30 69971 H 6821.16 1.44879 -2.09481 0
M  V30 69972 H 6821.94 0.414627 -3.40787 0
M  V30 69973 N 6824.39 1.43837 0.644092 0
M  V30 69974 C 6825.61 1.49612 1.43635 0
M  V30 69975 C 6826.04 0.118012 1.87729 0
M  V30 69976 O 6825.4 -0.890156 1.57943 0
M  V30 69977 C 6825.44 2.45477 2.64147 0
M  V30 69978 O 6824.55 1.94734 3.63528 0
M  V30 69979 H 6823.89 0.505703 0.430303 0
M  V30 69980 H 6826.42 1.88844 0.787348 0
M  V30 69981 H 6826.43 2.63084 3.1185 0
M  V30 69982 H 6825.1 3.45584 2.31396 0
M  V30 69983 H 6823.68 1.86831 3.2272 0
M  V30 69984 N 6825.87 -0.883309 1.3052 0
M  V30 69985 C 6826.8 -2.00534 1.19617 0
M  V30 69986 C 6827.78 -1.6988 0.0864356 0
M  V30 69987 O 6828.96 -1.92331 0.268755 0
M  V30 69988 C 6826.09 -3.35731 0.888935 0
M  V30 69989 C 6825.05 -3.80649 1.95679 0
M  V30 69990 C 6824.37 -5.13156 1.50251 0
M  V30 69991 C 6825.67 -3.99195 3.36809 0
M  V30 69992 H 6827.37 -2.09914 2.13487 0
M  V30 69993 H 6824.91 -1.00858 1.0278 0
M  V30 69994 H 6826.86 -4.1375 0.799313 0
M  V30 69995 H 6825.59 -3.26488 -0.0854404 0
M  V30 69996 H 6824.25 -3.0486 2.03607 0
M  V30 69997 H 6823.9 -5.00343 0.516356 0
M  V30 69998 H 6823.6 -5.44181 2.21678 0
M  V30 69999 H 6825.12 -5.93698 1.42671 0
M  V30 70000 H 6826.53 -4.67648 3.3163 0
M  V30 70001 H 6824.93 -4.41599 4.06337 0
M  V30 70002 H 6826 -3.02998 3.78577 0
M  V30 70003 N 6827.34 -1.13263 -1.09587 0
M  V30 70004 C 6828.75 -0.90636 -1.63224 0
M  V30 70005 C 6829.11 0.557479 -1.88113 0
M  V30 70006 O 6828.23 1.42383 -1.62961 0
M  V30 70007 C 6828.83 -1.63882 -2.96527 0
M  V30 70008 C 6827.38 -1.45846 -3.46995 0
M  V30 70009 C 6826.53 -1.6691 -2.21441 0
M  V30 70010 H 6829.48 -1.28616 -0.929712 0
M  V30 70011 H 6829.5 -1.09495 -3.64405 0
M  V30 70012 H 6829.02 -2.70419 -2.7838 0
M  V30 70013 H 6827.12 -0.416043 -3.7027 0
M  V30 70014 H 6827.23 -2.22042 -4.2454 0
M  V30 70015 H 6825.59 -1.09383 -2.30016 0
M  V30 70016 H 6826.38 -2.74763 -2.05816 0
M  V30 70017 N 6828.82 1.27535 -0.925878 0
M  V30 70018 C 6829.79 2.25164 -0.428248 0
M  V30 70019 C 6830.79 1.54311 0.45218 0
M  V30 70020 O 6831.98 1.72345 0.253517 0
M  V30 70021 C 6829.11 3.38724 0.38457 0
M  V30 70022 H 6830.3 2.707 -1.29081 0
M  V30 70023 H 6827.85 1.39426 -0.706396 0
M  V30 70024 H 6828.59 2.98567 1.26602 0
M  V30 70025 H 6828.37 3.91323 -0.24666 0
M  V30 70026 H 6829.86 4.11291 0.723172 0
M  V30 70027 N 6830.3 0.691184 1.41635 0
M  V30 70028 C 6831.25 0.0230922 2.30788 0
M  V30 70029 C 6832.22 -0.775833 1.46867 0
M  V30 70030 O 6833.4 -0.744758 1.75664 0
M  V30 70031 C 6830.54 -0.91049 3.32872 0
M  V30 70032 C 6829.66 -0.103647 4.31876 0
M  V30 70033 C 6828.79 -1.03447 5.2103 0
M  V30 70034 C 6827.83 -0.220275 6.11704 0
M  V30 70035 N 6826.97 -1.10467 6.93355 0
M  V30 70036 H 6831.81 0.78913 2.87362 0
M  V30 70037 H 6829.34 0.400869 1.41533 0
M  V30 70038 H 6831.3 -1.46576 3.90604 0
M  V30 70039 H 6829.93 -1.64297 2.7786 0
M  V30 70040 H 6828.98 0.568483 3.76128 0
M  V30 70041 H 6830.3 0.527765 4.96 0
M  V30 70042 H 6829.45 -1.65912 5.83574 0
M  V30 70043 H 6828.19 -1.69975 4.57121 0
M  V30 70044 H 6827.19 0.417476 5.48213 0
M  V30 70045 H 6828.42 0.441141 6.77666 0
M  V30 70046 H 6826.36 -1.75605 6.32059 0
M  V30 70047 H 6826.28 -0.528727 7.54149 0
M  V30 70048 H 6827.55 -1.71627 7.60371 0
M  V30 70049 N 6831.78 -1.5146 0.43563 0
M  V30 70050 C 6833.19 -1.86679 -0.0278886 0
M  V30 70051 C 6833.54 -1.35288 -1.42097 0
M  V30 70052 O 6832.67 -0.702986 -2.04663 0
M  V30 70053 C 6833.26 -3.38751 -0.057384 0
M  V30 70054 C 6831.82 -3.73513 -0.46531 0
M  V30 70055 C 6830.97 -2.75169 0.343141 0
M  V30 70056 H 6833.92 -1.44708 0.65155 0
M  V30 70057 H 6833.94 -3.70485 -0.867226 0
M  V30 70058 H 6833.45 -3.76125 0.956646 0
M  V30 70059 H 6831.55 -3.41728 -1.48501 0
M  V30 70060 H 6831.66 -4.78718 -0.191293 0
M  V30 70061 H 6830.03 -2.53927 -0.198308 0
M  V30 70062 H 6830.81 -3.15384 1.35602 0
M  V30 70063 N 6833.26 -0.166928 -1.56713 0
M  V30 70064 C 6834.2 0.765078 -2.1775 0
M  V30 70065 C 6835.17 1.23005 -1.1162 0
M  V30 70066 O 6836.36 1.29901 -1.39752 0
M  V30 70067 C 6833.5 1.99075 -2.81892 0
M  V30 70068 C 6832.61 1.56976 -4.02471 0
M  V30 70069 C 6831.75 2.74876 -4.54551 0
M  V30 70070 C 6830.79 2.29245 -5.6755 0
M  V30 70071 N 6829.92 3.40223 -6.1416 0
M  V30 70072 H 6834.76 0.237795 -2.9705 0
M  V30 70073 H 6832.3 0.105647 -1.4672 0
M  V30 70074 H 6834.26 2.70957 -3.17235 0
M  V30 70075 H 6832.89 2.49181 -2.05204 0
M  V30 70076 H 6831.94 0.74784 -3.72977 0
M  V30 70077 H 6833.25 1.19478 -4.84279 0
M  V30 70078 H 6832.41 3.5492 -4.92053 0
M  V30 70079 H 6831.14 3.15631 -3.71791 0
M  V30 70080 H 6830.15 1.47646 -5.29604 0
M  V30 70081 H 6831.37 1.89553 -6.52109 0
M  V30 70082 H 6829.32 3.80562 -5.3433 0
M  V30 70083 H 6829.24 3.06804 -6.90947 0
M  V30 70084 H 6830.51 4.20566 -6.56311 0
M  V30 70085 N 6834.73 1.57238 0.106811 0
M  V30 70086 C 6836.15 1.74545 0.662631 0
M  V30 70087 C 6836.5 0.787414 1.79706 0
M  V30 70088 O 6835.62 -0.0368495 2.16369 0
M  V30 70089 C 6836.22 3.16502 1.20879 0
M  V30 70090 C 6834.78 3.35275 1.71079 0
M  V30 70091 C 6833.92 2.70383 0.615499 0
M  V30 70092 H 6836.87 1.58252 -0.119189 0
M  V30 70093 H 6836.89 3.18727 2.07831 0
M  V30 70094 H 6836.41 3.86206 0.382918 0
M  V30 70095 H 6834.51 2.70631 2.56104 0
M  V30 70096 H 6834.62 4.43519 1.81184 0
M  V30 70097 H 6832.98 2.31955 1.0521 0
M  V30 70098 H 6833.77 3.42719 -0.1996 0
M  V30 70099 N 6836.21 -0.377327 1.53016 0
M  V30 70100 C 6837.62 -0.954713 1.60443 0
M  V30 70101 C 6837.97 -1.90622 0.464518 0
M  V30 70102 O 6837.1 -2.12466 -0.410758 0
M  V30 70103 C 6837.69 -1.73831 2.90806 0
M  V30 70104 C 6836.25 -2.26522 3.00607 0
M  V30 70105 C 6835.4 -1.07416 2.5565 0
M  V30 70106 H 6838.35 -0.156492 1.57927 0
M  V30 70107 H 6838.37 -2.59856 2.77948 0
M  V30 70108 H 6837.88 -1.04554 3.73751 0
M  V30 70109 H 6835.99 -2.99077 2.22224 0
M  V30 70110 H 6836.1 -2.55209 4.05469 0
M  V30 70111 H 6834.46 -1.43766 2.10246 0
M  V30 70112 H 6835.25 -0.396549 3.41002 0
M  V30 70113 N 6837.69 -1.44177 -0.636455 0
M  V30 70114 C 6838.92 -1.50372 -1.42839 0
M  V30 70115 C 6839.34 -0.127966 -1.87664 0
M  V30 70116 O 6838.7 0.881767 -1.58413 0
M  V30 70117 C 6838.75 -2.46874 -2.62841 0
M  V30 70118 O 6837.85 -1.96659 -3.6249 0
M  V30 70119 H 6837.19 -0.507978 -0.427615 0
M  V30 70120 H 6839.72 -1.89259 -0.777322 0
M  V30 70121 H 6839.73 -2.64734 -3.10451 0
M  V30 70122 H 6838.41 -3.46807 -2.2956 0
M  V30 70123 H 6836.98 -1.8854 -3.21725 0
M  V30 70124 N 6839.17 0.876375 -1.30986 0
M  V30 70125 C 6840.58 1.16107 -1.09504 0
M  V30 70126 C 6840.78 2.01022 0.138644 0
M  V30 70127 O 6839.84 2.38475 0.829809 0
M  V30 70128 C 6841.15 1.85941 -2.36318 0
M  V30 70129 C 6842.7 1.9867 -2.41866 0
M  V30 70130 C 6843.18 2.71917 -3.68544 0
M  V30 70131 N 6844.67 2.79457 -3.69402 0
M  V30 70132 C 6845.4 3.36729 -4.64113 0
M  V30 70133 N 6844.9 3.94982 -5.69176 0
M  V30 70134 N 6846.69 3.34626 -4.51643 0
M  V30 70135 H 6838.84 0.310383 -2.1012 0
M  V30 70136 H 6841.11 0.200082 -0.926645 0
M  V30 70137 H 6840.81 1.30994 -3.26395 0
M  V30 70138 H 6840.69 2.86266 -2.45626 0
M  V30 70139 H 6843.07 2.52785 -1.52263 0
M  V30 70140 H 6843.15 0.974075 -2.36528 0
M  V30 70141 H 6842.8 2.18472 -4.58511 0
M  V30 70142 H 6842.73 3.73574 -3.71147 0
M  V30 70143 H 6845.22 2.38107 -2.93451 0
M  V30 70144 H 6845.53 4.36774 -6.37533 0
M  V30 70145 H 6843.88 3.93376 -5.72957 0
M  V30 70146 H 6847.07 2.8835 -3.68743 0
M  V30 70147 H 6847.24 3.78963 -5.25634 0
M  V30 70148 N 6840.65 1.13843 1.08985 0
M  V30 70149 C 6842.06 0.877576 1.33307 0
M  V30 70150 C 6842.26 -0.484457 1.9559 0
M  V30 70151 O 6841.32 -1.23001 2.20515 0
M  V30 70152 C 6842.63 2.00572 2.24035 0
M  V30 70153 C 6844.18 2.03833 2.37531 0
M  V30 70154 C 6844.65 3.15923 3.31597 0
M  V30 70155 N 6846.15 3.15462 3.39172 0
M  V30 70156 C 6846.88 3.98833 4.11971 0
M  V30 70157 N 6846.38 4.92228 4.87528 0
M  V30 70158 N 6848.17 3.86915 4.07742 0
M  V30 70159 H 6840.32 2.01577 0.66935 0
M  V30 70160 H 6842.58 0.878034 0.357436 0
M  V30 70161 H 6842.29 2.98799 1.85505 0
M  V30 70162 H 6842.16 1.92376 3.24456 0
M  V30 70163 H 6844.55 1.06216 2.75322 0
M  V30 70164 H 6844.63 2.161 1.36873 0
M  V30 70165 H 6844.28 4.13782 2.94529 0
M  V30 70166 H 6844.21 3.00893 4.3217 0
M  V30 70167 H 6846.7 2.47814 2.85301 0
M  V30 70168 H 6847.01 5.52321 5.4052 0
M  V30 70169 H 6845.35 4.96231 4.86601 0
M  V30 70170 H 6848.55 3.13275 3.47817 0
M  V30 70171 H 6848.72 4.52116 4.64214 0
M  V30 70172 N 6842.12 -1.27042 0.932629 0
M  V30 70173 C 6843.4 -1.89262 0.49387 0
M  V30 70174 C 6843.78 -1.84365 -1.02823 0
M  V30 70175 O 6843.13 -1.29219 -1.88454 0
M  V30 70176 C 6843.34 -3.32971 1.04553 0
M  V30 70177 C 6844.69 -4.09861 1.109 0
M  V30 70178 O 6845.71 -3.42006 0.995507 0
M  V30 70179 O 6844.57 -5.31191 1.28445 0
M  V30 70180 H 6841.66 -0.811446 0.159638 0
M  V30 70181 H 6844.21 -1.35275 1.02464 0
M  V30 70182 H 6842.98 -3.30853 2.0893 0
M  V30 70183 H 6842.61 -3.94485 0.496702 0
M  V30 70184 N 6843.6 -0.698686 -1.41266 0
M  V30 70185 C 6845.01 -0.305386 -1.84185 0
M  V30 70186 C 6845.37 1.157 -1.58455 0
M  V30 70187 O 6844.49 1.88851 -1.05661 0
M  V30 70188 C 6845.09 -0.547491 -3.34347 0
M  V30 70189 C 6843.64 -0.208076 -3.75824 0
M  V30 70190 C 6842.79 -0.828238 -2.64642 0
M  V30 70191 H 6845.74 -0.899109 -1.30774 0
M  V30 70192 H 6845.76 0.192798 -3.80011 0
M  V30 70193 H 6845.28 -1.61191 -3.53043 0
M  V30 70194 H 6843.38 0.851952 -3.62729 0
M  V30 70195 H 6843.49 -0.665271 -4.74459 0
M  V30 70196 H 6841.85 -0.257592 -2.53394 0
M  V30 70197 H 6842.64 -1.89658 -2.86155 0
M  V30 70198 N 6845.08 1.51226 -0.443656 0
M  V30 70199 C 6846.31 2.06556 0.119181 0
M  V30 70200 C 6846.72 1.31045 1.35914 0
M  V30 70201 O 6846.08 0.371798 1.78673 0
M  V30 70202 C 6846.13 3.58873 0.435038 0
M  V30 70203 O 6845.85 4.31533 -0.755713 0
M  V30 70204 C 6847.35 4.30738 1.04786 0
M  V30 70205 H 6844.57 0.67098 0.00512301 0
M  V30 70206 H 6847.12 1.94729 -0.624556 0
M  V30 70207 H 6845.27 3.70594 1.12868 0
M  V30 70208 H 6845.69 5.22264 -0.483766 0
M  V30 70209 H 6847.16 5.38376 1.21882 0
M  V30 70210 H 6847.64 3.89439 2.03061 0
M  V30 70211 H 6848.24 4.23477 0.393413 0
M  V30 70212 N 6846.56 0.175237 1.56623 0
M  V30 70213 C 6847.97 -0.340819 1.83563 0
M  V30 70214 C 6848.32 -1.62788 1.09519 0
M  V30 70215 O 6847.45 -2.13559 0.349502 0
M  V30 70216 C 6848.04 -0.625138 3.32983 0
M  V30 70217 C 6846.6 -1.08562 3.60404 0
M  V30 70218 C 6845.75 -0.123576 2.77025 0
M  V30 70219 H 6848.7 0.399425 1.53591 0
M  V30 70220 H 6848.72 -1.47675 3.50674 0
M  V30 70221 H 6848.23 0.311779 3.86846 0
M  V30 70222 H 6846.33 -2.03751 3.11956 0
M  V30 70223 H 6846.45 -0.99207 4.68716 0
M  V30 70224 H 6844.81 -0.621691 2.46996 0
M  V30 70225 H 6845.59 0.807432 3.3367 0
M  V30 70226 N 6848.04 -1.57292 -0.098471 0
M  V30 70227 C 6849.27 -1.9012 -0.816218 0
M  V30 70228 C 6849.68 -0.7686 -1.72447 0
M  V30 70229 O 6849.04 0.259591 -1.80644 0
M  V30 70230 C 6849.09 -3.22544 -1.63242 0
M  V30 70231 O 6848.81 -4.31445 -0.760707 0
M  V30 70232 C 6850.31 -3.69211 -2.45352 0
M  V30 70233 H 6847.53 -0.629039 -0.233562 0
M  V30 70234 H 6850.07 -2.04356 -0.0767151 0
M  V30 70235 H 6848.23 -3.09915 -2.32447 0
M  V30 70236 H 6848.64 -5.0747 -1.32568 0
M  V30 70237 H 6850.12 -4.64574 -2.9812 0
M  V30 70238 H 6850.59 -2.96884 -3.23661 0
M  V30 70239 H 6851.2 -3.84696 -1.81353 0
M  V30 70240 N 6849.52 0.369207 -1.53214 0
M  V30 70241 C 6850.75 1.13129 -1.72874 0
M  V30 70242 C 6851.15 1.83626 -0.455851 0
M  V30 70243 O 6850.5 1.74278 0.580769 0
M  V30 70244 C 6850.56 2.20832 -2.83679 0
M  V30 70245 C 6850.22 1.70133 -4.24151 0
M  V30 70246 C 6851.22 1.16736 -5.06625 0
M  V30 70247 C 6848.9 1.75756 -4.70548 0
M  V30 70248 C 6850.9 0.696344 -6.33585 0
M  V30 70249 C 6848.59 1.28266 -5.97487 0
M  V30 70250 C 6849.58 0.752949 -6.78837 0
M  V30 70251 O 6849.27 0.285051 -8.03394 0
M  V30 70252 H 6849 0.344342 -0.581726 0
M  V30 70253 H 6851.56 0.435137 -2.00738 0
M  V30 70254 H 6849.79 2.9393 -2.5128 0
M  V30 70255 H 6851.48 2.82406 -2.91551 0
M  V30 70256 H 6852.24 1.11733 -4.71954 0
M  V30 70257 H 6848.12 2.15927 -4.07304 0
M  V30 70258 H 6851.67 0.282214 -6.97029 0
M  V30 70259 H 6847.56 1.32961 -6.31658 0
M  V30 70260 H 6848.33 0.404714 -8.17499 0
M  V30 70261 N 6850.99 1.44512 0.6288 0
M  V30 70262 C 6852.22 1.51127 1.4204 0
M  V30 70263 C 6852.64 0.137916 1.87594 0
M  V30 70264 O 6852 -0.873353 1.58878 0
M  V30 70265 C 6852.05 2.48265 2.61528 0
M  V30 70266 O 6851.15 1.98578 3.61442 0
M  V30 70267 H 6850.49 0.510239 0.424915 0
M  V30 70268 H 6853.02 1.89668 0.767274 0
M  V30 70269 H 6853.03 2.66377 3.09043 0
M  V30 70270 H 6851.71 3.48019 2.27718 0
M  V30 70271 H 6850.29 1.90244 3.20721 0
M  V30 70272 N 6852.47 -0.869416 1.31449 0
M  V30 70273 C 6853.43 -1.95824 1.19104 0
M  V30 70274 C 6854.43 -1.60367 0.11799 0
M  V30 70275 O 6855.62 -1.70284 0.367298 0
M  V30 70276 C 6852.76 -3.30683 0.828339 0
M  V30 70277 H 6853.95 -2.082 2.15853 0
M  V30 70278 H 6851.5 -1.05778 1.15069 0
M  V30 70279 H 6852.24 -3.24006 -0.137971 0
M  V30 70280 H 6852.02 -3.57791 1.60399 0
M  V30 70281 H 6853.51 -4.10517 0.765874 0
M  V30 70282 N 6853.95 -1.14419 -1.08379 0
M  V30 70283 C 6855.18 -0.936098 -1.84512 0
M  V30 70284 C 6855.59 0.515407 -1.81629 0
M  V30 70285 O 6854.95 1.35715 -1.22016 0
M  V30 70286 C 6855 -1.42936 -3.32042 0
M  V30 70287 O 6854.72 -2.82399 -3.34936 0
M  V30 70288 C 6856.22 -1.26125 -4.24979 0
M  V30 70289 H 6853.44 -0.333115 -0.582474 0
M  V30 70290 H 6855.99 -1.51938 -1.36877 0
M  V30 70291 H 6854.14 -0.888839 -3.77066 0
M  V30 70292 H 6854.56 -3.04539 -4.27032 0
M  V30 70293 H 6856.03 -1.65498 -5.26606 0
M  V30 70294 H 6856.51 -0.204151 -4.38725 0
M  V30 70295 H 6857.11 -1.79033 -3.85782 0
M  V30 70296 N 6855.43 1.26546 -0.939353 0
M  V30 70297 C 6856.34 2.30174 -0.453554 0
M  V30 70298 C 6857.35 1.67488 0.471561 0
M  V30 70299 O 6858.53 1.98308 0.351535 0
M  V30 70300 C 6855.59 3.45606 0.275144 0
M  V30 70301 C 6854.66 4.23779 -0.686308 0
M  V30 70302 C 6853.89 5.33699 0.00770851 0
M  V30 70303 O 6854.11 5.57091 1.22498 0
M  V30 70304 O 6853.05 5.98159 -0.670062 0
M  V30 70305 H 6856.87 2.73788 -1.3143 0
M  V30 70306 H 6854.46 1.31711 -0.705165 0
M  V30 70307 H 6856.34 4.15784 0.685692 0
M  V30 70308 H 6855.01 3.04026 1.11131 0
M  V30 70309 H 6853.92 3.5609 -1.14677 0
M  V30 70310 H 6855.25 4.69104 -1.49004 0
M  V30 70311 N 6856.91 0.706168 1.40894 0
M  V30 70312 C 6858.18 0.169201 1.94867 0
M  V30 70313 C 6858.56 -1.32309 1.64492 0
M  V30 70314 O 6857.91 -2.07469 0.957549 0
M  V30 70315 C 6858.12 0.471836 3.45796 0
M  V30 70316 C 6859.47 0.40535 4.22661 0
M  V30 70317 O 6860.49 0.407355 3.53863 0
M  V30 70318 O 6859.35 0.37467 5.45214 0
M  V30 70319 H 6856.45 0.0211788 0.826729 0
M  V30 70320 H 6858.99 0.783055 1.50553 0
M  V30 70321 H 6857.76 1.50435 3.61227 0
M  V30 70322 H 6857.39 -0.172457 3.97226 0
M  V30 70323 N 6858.38 -1.50989 0.45167 0
M  V30 70324 C 6859.61 -2.06617 -0.108225 0
M  V30 70325 C 6860.03 -1.31764 -1.35217 0
M  V30 70326 O 6859.38 -0.381269 -1.78473 0
M  V30 70327 C 6859.44 -3.59098 -0.416 0
M  V30 70328 O 6859.16 -4.31126 0.778588 0
M  V30 70329 C 6860.66 -4.31287 -1.025 0
M  V30 70330 H 6857.88 -0.670998 -0.00156457 0
M  V30 70331 H 6860.42 -1.94395 0.634874 0
M  V30 70332 H 6858.58 -3.71187 -1.10901 0
M  V30 70333 H 6858.99 -5.22 0.511456 0
M  V30 70334 H 6860.46 -5.39015 -1.19025 0
M  V30 70335 H 6860.94 -3.90511 -2.00993 0
M  V30 70336 H 6861.55 -4.23679 -0.37095 0
M  V30 70337 N 6859.86 -0.183541 -1.56528 0
M  V30 70338 C 6861.11 0.458253 -1.97247 0
M  V30 70339 C 6861.44 1.62423 -1.07 0
M  V30 70340 O 6860.69 1.95409 -0.106645 0
M  V30 70341 C 6860.99 0.971456 -3.43944 0
M  V30 70342 C 6860.66 -0.0799162 -4.50829 0
M  V30 70343 C 6859.32 -0.368837 -4.79784 0
M  V30 70344 C 6861.67 -0.79291 -5.15133 0
M  V30 70345 C 6859 -1.37593 -5.70338 0
M  V30 70346 C 6861.35 -1.78907 -6.06774 0
M  V30 70347 C 6860.02 -2.08531 -6.34091 0
M  V30 70348 H 6859.29 0.167687 -0.721777 0
M  V30 70349 H 6861.93 -0.278076 -1.8947 0
M  V30 70350 H 6860.24 1.78584 -3.48733 0
M  V30 70351 H 6861.93 1.47724 -3.72798 0
M  V30 70352 H 6858.52 0.155442 -4.28318 0
M  V30 70353 H 6862.71 -0.582919 -4.92865 0
M  V30 70354 H 6857.96 -1.61149 -5.89781 0
M  V30 70355 H 6862.14 -2.34684 -6.55665 0
M  V30 70356 H 6859.77 -2.86715 -7.04059 0
M  V30 70357 N 6861.34 1.57342 0.090128 0
M  V30 70358 C 6862.29 2.02411 1.10898 0
M  V30 70359 C 6863.26 0.901326 1.39518 0
M  V30 70360 O 6864.44 1.16768 1.50897 0
M  V30 70361 C 6861.58 2.45768 2.42264 0
M  V30 70362 C 6860.7 3.71588 2.20333 0
M  V30 70363 C 6859.83 4.03803 3.45132 0
M  V30 70364 C 6858.87 5.22718 3.18484 0
M  V30 70365 N 6858.01 5.50662 4.35564 0
M  V30 70366 H 6862.85 2.89229 0.717668 0
M  V30 70367 H 6860.38 1.43049 0.342825 0
M  V30 70368 H 6862.34 2.68952 3.18937 0
M  V30 70369 H 6860.97 1.61953 2.79233 0
M  V30 70370 H 6860.02 3.55852 1.34439 0
M  V30 70371 H 6861.34 4.58405 1.96637 0
M  V30 70372 H 6860.49 4.2779 4.3021 0
M  V30 70373 H 6859.23 3.15517 3.71887 0
M  V30 70374 H 6858.23 4.98546 2.31801 0
M  V30 70375 H 6859.46 6.12606 2.93071 0
M  V30 70376 H 6857.4 4.65334 4.62385 0
M  V30 70377 H 6857.32 6.3186 4.15077 0
M  V30 70378 H 6858.59 5.79187 5.21692 0
M  V30 70379 N 6862.82 -0.361077 1.53408 0
M  V30 70380 C 6864.1 -1.11919 1.60417 0
M  V30 70381 C 6864.48 -2.06991 0.414494 0
M  V30 70382 O 6863.82 -2.20621 -0.594859 0
M  V30 70383 C 6864.03 -1.85432 2.95662 0
M  V30 70384 C 6865.38 -2.39804 3.50398 0
M  V30 70385 O 6866.41 -1.95552 2.97721 0
M  V30 70386 O 6865.26 -3.20713 4.42499 0
M  V30 70387 H 6862.36 -0.513661 0.648137 0
M  V30 70388 H 6864.9 -0.363978 1.65751 0
M  V30 70389 H 6863.68 -1.16072 3.73688 0
M  V30 70390 H 6863.3 -2.67851 2.93839 0
M  V30 70391 N 6864.3 -1.44844 -0.621128 0
M  V30 70392 C 6865.52 -1.51653 -1.40744 0
M  V30 70393 C 6865.94 -0.144649 -1.88245 0
M  V30 70394 O 6865.3 0.851331 -1.61427 0
M  V30 70395 C 6865.35 -2.48964 -2.62105 0
M  V30 70396 O 6865.07 -3.8082 -2.16582 0
M  V30 70397 C 6866.57 -2.65337 -3.55121 0
M  V30 70398 H 6863.79 -0.514027 -0.431297 0
M  V30 70399 H 6866.33 -1.89904 -0.758734 0
M  V30 70400 H 6864.49 -2.13822 -3.23046 0
M  V30 70401 H 6864.9 -4.33449 -2.95335 0
M  V30 70402 H 6866.38 -3.37432 -4.36856 0
M  V30 70403 H 6866.85 -1.70907 -4.04583 0
M  V30 70404 H 6867.46 -3.01421 -3.00043 0
M  V30 70405 N 6865.77 0.862433 -1.31908 0
M  V30 70406 C 6866.74 1.95189 -1.20141 0
M  V30 70407 C 6867.74 1.60302 -0.126493 0
M  V30 70408 O 6868.93 1.70087 -0.376324 0
M  V30 70409 C 6866.06 3.30239 -0.845865 0
M  V30 70410 H 6867.25 2.07053 -2.16954 0
M  V30 70411 H 6864.81 1.05166 -1.15628 0
M  V30 70412 H 6865.54 3.24075 0.120786 0
M  V30 70413 H 6865.33 3.56935 -1.62295 0
M  V30 70414 H 6866.82 4.10105 -0.787634 0
M  V30 70415 N 6867.25 1.14992 1.07771 0
M  V30 70416 C 6868.2 0.83852 2.1696 0
M  V30 70417 C 6869.19 -0.186297 1.68372 0
M  V30 70418 O 6870.4 -0.0417516 1.79952 0
M  V30 70419 H 6866.78 0.253476 0.707993 0
M  V30 70420 H 6868.75 1.76716 2.40445 0
M  V30 70421 C 6867.5 0.339518 3.46038 0
M  V30 70422 H 6866.82 1.11947 3.83807 0
M  V30 70423 H 6868.26 0.160245 4.23697 0
M  V30 70424 C 6866.72 -0.938155 3.23574 0
M  V30 70425 O 6867.25 -2.01058 3.47762 0
M  V30 70426 N 6865.45 -0.87597 2.77083 0
M  V30 70427 H 6865 -0.00308453 2.576 0
M  V30 70428 H 6864.96 -1.73139 2.62432 0
M  V30 70429 N 6868.73 -1.26046 0.946051 0
M  V30 70430 C 6869.66 -2.2857 0.477293 0
M  V30 70431 C 6870.64 -1.63422 -0.471946 0
M  V30 70432 O 6871.83 -1.90589 -0.372752 0
M  V30 70433 C 6868.96 -3.46371 -0.253793 0
M  V30 70434 C 6867.91 -4.2364 0.609359 0
M  V30 70435 C 6867.24 -5.34106 -0.25197 0
M  V30 70436 C 6868.54 -4.8717 1.88316 0
M  V30 70437 H 6870.23 -2.68031 1.33417 0
M  V30 70438 H 6867.78 -1.28848 0.642972 0
M  V30 70439 H 6869.73 -4.1721 -0.592796 0
M  V30 70440 H 6868.45 -3.05877 -1.14484 0
M  V30 70441 H 6867.11 -3.54573 0.931324 0
M  V30 70442 H 6866.76 -4.89853 -1.14252 0
M  V30 70443 H 6866.46 -5.86716 0.322189 0
M  V30 70444 H 6867.98 -6.0778 -0.586134 0
M  V30 70445 H 6869.4 -5.50197 1.6111 0
M  V30 70446 H 6867.8 -5.49919 2.40228 0
M  V30 70447 H 6868.87 -4.09837 2.59156 0
M  V30 70448 N 6870.21 -0.71363 -1.40517 0
M  V30 70449 C 6871.45 -0.25267 -2.0122 0
M  V30 70450 C 6871.79 1.15052 -1.5645 0
M  V30 70451 O 6871.06 1.78013 -0.783691 0
M  V30 70452 C 6871.35 -0.330521 -3.5858 0
M  V30 70453 C 6871.2 -1.77195 -4.13427 0
M  V30 70454 C 6872.52 0.29941 -4.3908 0
M  V30 70455 H 6869.64 -0.0932856 -0.731072 0
M  V30 70456 H 6872.28 -0.905761 -1.67021 0
M  V30 70457 H 6870.43 0.225532 -3.87845 0
M  V30 70458 H 6872.1 -2.38323 -3.94968 0
M  V30 70459 H 6870.34 -2.3003 -3.67789 0
M  V30 70460 H 6871.01 -1.77783 -5.22587 0
M  V30 70461 H 6873.49 -0.174358 -4.15735 0
M  V30 70462 H 6872.37 0.214482 -5.48481 0
M  V30 70463 H 6872.63 1.38266 -4.19923 0
M  V30 70464 N 6871.69 1.50747 -0.459671 0
M  V30 70465 C 6872.63 2.28276 0.340403 0
M  V30 70466 C 6873.6 1.32827 0.997301 0
M  V30 70467 O 6874.79 1.61755 1.01193 0
M  V30 70468 C 6871.93 3.14395 1.42301 0
M  V30 70469 C 6871.04 4.24863 0.782027 0
M  V30 70470 C 6870.18 4.98257 1.84156 0
M  V30 70471 C 6869.22 6.00614 1.18021 0
M  V30 70472 N 6868.35 6.6733 2.18209 0
M  V30 70473 H 6873.19 2.962 -0.327055 0
M  V30 70474 H 6870.73 1.46078 -0.173134 0
M  V30 70475 H 6872.69 3.62669 2.06222 0
M  V30 70476 H 6871.32 2.48541 2.05979 0
M  V30 70477 H 6870.37 3.80388 0.0305398 0
M  V30 70478 H 6871.68 4.98125 0.259401 0
M  V30 70479 H 6870.84 5.50191 2.55685 0
M  V30 70480 H 6869.57 4.24675 2.39797 0
M  V30 70481 H 6868.58 5.47951 0.450487 0
M  V30 70482 H 6869.8 6.76164 0.630845 0
M  V30 70483 H 6867.75 5.96547 2.72888 0
M  V30 70484 H 6867.67 7.3643 1.70899 0
M  V30 70485 H 6868.94 7.23886 2.89153 0
M  V30 70486 N 6873.17 0.191839 1.56428 0
M  V30 70487 C 6874.08 -0.742363 2.22545 0
M  V30 70488 C 6875.09 -1.2372 1.22349 0
M  V30 70489 O 6876.27 -1.28505 1.55076 0
M  V30 70490 C 6873.33 -1.94607 2.8693 0
M  V30 70491 C 6872.39 -1.49612 4.02386 0
M  V30 70492 C 6871.63 -2.64245 4.63692 0
M  V30 70493 O 6871.85 -3.81644 4.23915 0
M  V30 70494 O 6870.78 -2.37144 5.53214 0
M  V30 70495 H 6874.61 -0.209302 3.02978 0
M  V30 70496 H 6872.19 -0.0373044 1.49353 0
M  V30 70497 H 6874.08 -2.64964 3.27677 0
M  V30 70498 H 6872.75 -2.4678 2.09479 0
M  V30 70499 H 6871.66 -0.761443 3.66269 0
M  V30 70500 H 6872.99 -1.02109 4.81492 0
M  V30 70501 N 6874.64 -1.57388 -0.0817825 0
M  V30 70502 C 6875.92 -1.77801 -0.81525 0
M  V30 70503 C 6876.3 -0.776894 -1.96284 0
M  V30 70504 O 6875.65 0.191986 -2.27692 0
M  V30 70505 C 6875.86 -3.23985 -1.29748 0
M  V30 70506 C 6877.21 -3.87539 -1.7349 0
M  V30 70507 O 6878.23 -3.27816 -1.39339 0
M  V30 70508 O 6877.09 -4.92589 -2.36683 0
M  V30 70509 H 6874.18 -0.729333 -0.389876 0
M  V30 70510 H 6876.73 -1.69584 -0.0626318 0
M  V30 70511 H 6875.5 -3.88396 -0.475876 0
M  V30 70512 H 6875.12 -3.36886 -2.11171 0
M  V30 70513 N 6876.12 0.352936 -1.53597 0
M  V30 70514 C 6877.35 1.11895 -1.74626 0
M  V30 70515 C 6877.77 1.81877 -0.479817 0
M  V30 70516 O 6877.13 1.72207 0.566975 0
M  V30 70517 C 6877.18 2.11529 -2.9204 0
M  V30 70518 O 6876.28 3.18864 -2.61532 0
M  V30 70519 H 6875.62 0.324068 -0.579548 0
M  V30 70520 H 6878.15 0.406196 -2.00527 0
M  V30 70521 H 6878.16 2.54913 -3.18564 0
M  V30 70522 H 6876.84 1.59988 -3.83897 0
M  V30 70523 H 6875.41 2.80364 -2.45867 0
M  V30 70524 N 6877.6 1.45171 0.613438 0
M  V30 70525 C 6878.51 1.55921 1.75288 0
M  V30 70526 C 6879.53 0.443945 1.68241 0
M  V30 70527 O 6880.7 0.70381 1.88702 0
M  V30 70528 C 6877.77 1.51736 3.11732 0
M  V30 70529 C 6876.83 2.74255 3.30276 0
M  V30 70530 C 6876.06 2.7026 4.60212 0
M  V30 70531 O 6876.28 1.77258 5.42158 0
M  V30 70532 O 6875.22 3.61377 4.81342 0
M  V30 70533 H 6879.04 2.52221 1.69169 0
M  V30 70534 H 6876.63 1.27616 0.776819 0
M  V30 70535 H 6878.51 1.51989 3.93036 0
M  V30 70536 H 6877.19 0.585865 3.18354 0
M  V30 70537 H 6876.09 2.79566 2.48583 0
M  V30 70538 H 6877.43 3.66511 3.28528 0
M  V30 70539 N 6879.08 -0.855426 1.32364 0
M  V30 70540 C 6880.32 -1.61194 1.23062 0
M  V30 70541 C 6880.66 -1.9309 -0.207302 0
M  V30 70542 O 6879.93 -1.57282 -1.14424 0
M  V30 70543 C 6880.21 -2.93276 2.08952 0
M  V30 70544 C 6880.07 -2.68166 3.61119 0
M  V30 70545 C 6881.39 -3.94538 1.95007 0
M  V30 70546 H 6878.51 -0.584903 0.448395 0
M  V30 70547 H 6881.15 -0.987831 1.62302 0
M  V30 70548 H 6879.3 -3.46541 1.75617 0
M  V30 70549 H 6880.97 -2.21461 4.04664 0
M  V30 70550 H 6879.21 -2.02144 3.83823 0
M  V30 70551 H 6879.88 -3.62212 4.16541 0
M  V30 70552 H 6882.36 -3.50528 2.24208 0
M  V30 70553 H 6881.24 -4.84815 2.57381 0
M  V30 70554 H 6881.5 -4.32475 0.917491 0
M  V30 70555 O 6880.59 -1.2739 -0.99267 0
M  V30 70556 H 6881.29 -1.06936 -1.61507 0
M  V30 END ATOM
M  V30 BEGIN BOND
M  V30 END BOND
M  V30 END CTAB
M  END
$$$$
