drugbank_target|Q13621 Solute carrier family 12 member 1 (DB00214; DB00232; DB00310; DB00534; DB00695; DB00761; DB00774; DB00887; DB00903; DB01325; DB02925)
 OpenBabel12092119333D

  0  0  0     0  0            999 V3000
M  V30 BEGIN CTAB
M  V30 COUNTS 17154 17335 0 0 0
M  V30 BEGIN ATOM
M  V30 1 H -0.908 1.98254 -0.117106 0
M  V30 2 N 0 1.576 0 0
M  V30 3 C 0.933 2.03868 1.02534 0
M  V30 4 C 1.911 0.928543 1.3348 0
M  V30 5 O 3.095 1.19667 1.45644 0
M  V30 6 C 0.222 2.43627 2.35294 0
M  V30 7 C -0.732 3.65373 2.2001 0
M  V30 8 S 0.101 5.13292 1.52614 0
M  V30 9 C 1.257 5.56322 2.86805 0
M  V30 10 H 1.49 2.90518 0.631377 0
M  V30 11 H -0.977 1.52953 0.210867 0
M  V30 12 H 0.981 2.67203 3.11629 0
M  V30 13 H -0.358 1.57376 2.7183 0
M  V30 14 H -1.165 3.90944 3.18086 0
M  V30 15 H -1.563 3.418 1.51819 0
M  V30 16 H 0.729 5.58782 3.83104 0
M  V30 17 H 1.672 6.56266 2.65933 0
M  V30 18 H 2.08 4.83886 2.90714 0
M  V30 19 N 1.4781 -0.272755 1.55222 0
M  V30 20 C 2.7031 -1.02683 1.80197 0
M  V30 21 C 3.1281 -1.79142 0.573551 0
M  V30 22 O 2.4861 -1.74917 -0.476849 0
M  V30 23 C 2.5341 -1.9609 3.02624 0
M  V30 24 O 1.6381 -3.04863 2.77727 0
M  V30 25 H 0.9791 -0.293557 0.595584 0
M  V30 26 H 3.5091 -0.30159 2.02365 0
M  V30 27 H 3.5191 -2.38039 3.31363 0
M  V30 28 H 2.1941 -1.39851 3.91682 0
M  V30 29 H 0.7711 -2.67228 2.60084 0
M  V30 30 N 2.9562 -1.48159 -0.537278 0
M  V30 31 C 3.8862 -1.65029 -1.6519 0
M  V30 32 C 4.8672 -0.499281 -1.62607 0
M  V30 33 O 6.0522 -0.730972 -1.79918 0
M  V30 34 C 3.1822 -1.68303 -3.03795 0
M  V30 35 C 2.1362 -2.8283 -3.21234 0
M  V30 36 C 1.4622 -2.71189 -4.60826 0
M  V30 37 C 2.7622 -4.24211 -3.04701 0
M  V30 38 H 4.4562 -2.58341 -1.51328 0
M  V30 39 H 2.0022 -1.24325 -0.726585 0
M  V30 40 H 3.9552 -1.78693 -3.81637 0
M  V30 41 H 2.6792 -0.715635 -3.18663 0
M  V30 42 H 1.3382 -2.71983 -2.45807 0
M  V30 43 H 0.9862 -1.72435 -4.7252 0
M  V30 44 H 0.6862 -3.48035 -4.7344 0
M  V30 45 H 2.2102 -2.83537 -5.40777 0
M  V30 46 H 3.6242 -4.3593 -3.72341 0
M  V30 47 H 2.0212 -5.01998 -3.28813 0
M  V30 48 H 3.0912 -4.41184 -2.01209 0
M  V30 49 N 4.4343 0.785586 -1.36625 0
M  V30 50 C 5.3823 1.91978 -1.31329 0
M  V30 51 C 6.3763 1.68162 -0.204416 0
M  V30 52 O 7.5823 1.76122 -0.371645 0
M  V30 53 H 3.9573 0.631087 -0.408942 0
M  V30 54 H 5.9283 1.93562 -2.27104 0
M  V30 55 C 4.6773 3.29055 -1.12329 0
M  V30 56 H 4.0003 3.4795 -1.96903 0
M  V30 57 H 5.4403 4.08756 -1.12671 0
M  V30 58 C 3.8993 3.36461 0.171861 0
M  V30 59 O 4.4293 3.84576 1.16035 0
M  V30 60 N 2.6353 2.89782 0.217846 0
M  V30 61 H 2.1823 2.50819 -0.587183 0
M  V30 62 H 2.1403 2.95119 1.08408 0
M  V30 63 N 5.9124 1.20967 1.01018 0
M  V30 64 C 6.8604 0.961223 2.1181 0
M  V30 65 C 7.8544 -0.0897034 1.69162 0
M  V30 66 O 9.0604 0.0612271 1.79896 0
M  V30 67 H 5.4354 0.29355 0.692338 0
M  V30 68 H 7.4064 1.90178 2.29946 0
M  V30 69 C 6.1554 0.536854 3.4353 0
M  V30 70 H 5.4784 1.33713 3.76777 0
M  V30 71 H 6.9184 0.402286 4.22087 0
M  V30 72 C 5.3774 -0.751574 3.2841 0
M  V30 73 O 5.9074 -1.80841 3.58691 0
M  V30 74 N 4.1134 -0.716079 2.81639 0
M  V30 75 H 3.6604 0.144236 2.57196 0
M  V30 76 H 3.6184 -1.57847 2.71904 0
M  V30 77 N 7.3905 -1.2043 1.01659 0
M  V30 78 C 8.6155 -1.94318 0.724942 0
M  V30 79 C 9.0405 -1.74266 -0.708034 0
M  V30 80 O 8.3985 -1.03694 -1.48719 0
M  V30 81 C 8.4465 -3.44486 1.06591 0
M  V30 82 O 7.5505 -4.12017 0.177599 0
M  V30 83 H 6.8915 -0.60708 0.26898 0
M  V30 84 H 9.4215 -1.52861 1.35995 0
M  V30 85 H 9.4315 -3.95106 1.01762 0
M  V30 86 H 8.1065 -3.58404 2.10997 0
M  V30 87 H 6.6835 -3.71821 0.283421 0
M  V30 88 N 8.8686 -0.792821 -1.36206 0
M  V30 89 C 10.0936 -0.377701 -2.03932 0
M  V30 90 C 10.5186 0.998947 -1.59382 0
M  V30 91 O 9.8766 1.64421 -0.763903 0
M  V30 92 C 9.9246 -0.453635 -3.57735 0
M  V30 93 O 9.0286 0.538151 -4.08874 0
M  V30 94 H 8.3696 -0.159855 -0.644471 0
M  V30 95 H 10.8996 -1.07488 -1.7409 0
M  V30 96 H 10.9096 -0.318464 -4.06755 0
M  V30 97 H 9.5846 -1.45784 -3.89512 0
M  V30 98 H 8.1616 0.364359 -3.71116 0
M  V30 99 N 10.3467 1.47872 -0.545128 0
M  V30 100 C 11.2947 2.31533 0.222512 0
M  V30 101 C 12.2887 1.42177 0.920985 0
M  V30 102 O 13.4947 1.59005 0.843645 0
M  V30 103 H 9.8697 0.746519 0.0906278 0
M  V30 104 H 11.8407 2.94139 -0.50246 0
M  V30 105 C 10.5897 3.2457 1.24699 0
M  V30 106 H 9.9127 3.93283 0.718944 0
M  V30 107 H 11.3527 3.85963 1.75523 0
M  V30 108 C 9.8117 2.47237 2.28856 0
M  V30 109 O 10.3417 2.20808 3.35569 0
M  V30 110 N 8.5477 2.08461 2.02466 0
M  V30 111 H 8.0947 2.30155 1.157 0
M  V30 112 H 8.0527 1.57033 2.72375 0
M  V30 113 N 11.8248 0.280983 1.55075 0
M  V30 114 C 13.0708 -0.33461 2.00021 0
M  V30 115 C 13.4038 -1.55063 1.16915 0
M  V30 116 O 12.6788 -1.93006 0.240646 0
M  V30 117 C 12.9618 -0.711007 3.53011 0
M  V30 118 C 12.8148 0.512766 4.46868 0
M  V30 119 C 14.1338 -1.54522 4.12081 0
M  V30 120 H 11.2528 -0.120147 0.727141 0
M  V30 121 H 13.8948 0.389097 1.85973 0
M  V30 122 H 12.0448 -1.32761 3.65112 0
M  V30 123 H 13.7168 1.15131 4.46702 0
M  V30 124 H 11.9598 1.14975 4.18286 0
M  V30 125 H 12.6308 0.205556 5.51617 0
M  V30 126 H 15.1068 -1.02442 4.03293 0
M  V30 127 H 13.9828 -1.77739 5.19327 0
M  V30 128 H 14.2438 -2.52813 3.62682 0
M  V30 129 N 13.3029 -1.57598 0.00835791 0
M  V30 130 C 14.5499 -1.90928 -0.674732 0
M  V30 131 C 14.8779 -0.88277 -1.73313 0
M  V30 132 O 14.1329 0.111294 -1.95383 0
M  V30 133 C 14.4319 -3.3101 -1.34787 0
M  V30 134 C 14.0979 -4.48922 -0.421861 0
M  V30 135 C 12.7599 -4.8091 -0.166927 0
M  V30 136 C 15.1119 -5.20755 0.215211 0
M  V30 137 C 12.4399 -5.821 0.733232 0
M  V30 138 C 14.7919 -6.22905 1.1033 0
M  V30 139 C 13.4559 -6.53346 1.36733 0
M  V30 140 H 12.7259 -0.698656 -0.246902 0
M  V30 141 H 15.3729 -1.91387 0.0656779 0
M  V30 142 H 13.6779 -3.26714 -2.16253 0
M  V30 143 H 15.3749 -3.54061 -1.8826 0
M  V30 144 H 11.9649 -4.23934 -0.630729 0
M  V30 145 H 16.1489 -4.9629 0.0312829 0
M  V30 146 H 11.4049 -6.04042 0.945712 0
M  V30 147 H 15.5789 -6.77694 1.60325 0
M  V30 148 H 13.2059 -7.31573 2.06652 0
M  V30 149 N 14.781 0.264519 -1.55364 0
M  V30 150 C 15.711 1.33121 -1.91836 0
M  V30 151 C 16.692 1.51101 -0.781192 0
M  V30 152 O 17.877 1.64003 -1.04003 0
M  V30 153 C 15.007 2.68921 -2.19769 0
M  V30 154 C 13.961 2.65661 -3.35571 0
M  V30 155 C 13.287 4.05093 -3.49004 0
M  V30 156 C 14.587 2.24187 -4.71739 0
M  V30 157 H 16.281 1.02844 -2.81182 0
M  V30 158 H 13.827 0.493286 -1.35287 0
M  V30 159 H 15.78 3.43663 -2.43872 0
M  V30 160 H 14.504 3.00799 -1.27231 0
M  V30 161 H 13.163 1.93377 -3.1145 0
M  V30 162 H 12.811 4.34206 -2.53917 0
M  V30 163 H 12.511 4.03804 -4.26868 0
M  V30 164 H 14.035 4.81561 -3.75408 0
M  V30 165 H 15.449 2.88654 -4.9533 0
M  V30 166 H 13.846 2.34044 -5.52579 0
M  V30 167 H 14.916 1.19327 -4.69988 0
M  V30 168 N 16.2591 1.48442 0.529413 0
M  V30 169 C 17.5361 1.46978 1.29062 0
M  V30 170 C 17.9161 0.181769 2.10316 0
M  V30 171 O 17.2641 -0.836481 2.12639 0
M  V30 172 C 17.4741 2.7321 2.17157 0
M  V30 173 C 18.8221 3.21562 2.77278 0
M  V30 174 O 19.8461 2.74131 2.27444 0
M  V30 175 O 18.7051 4.04094 3.67927 0
M  V30 176 H 15.7991 0.587003 0.582543 0
M  V30 177 H 18.3451 1.60676 0.546021 0
M  V30 178 H 17.1171 3.58465 1.56903 0
M  V30 179 H 16.7401 2.62235 2.98862 0
M  V30 180 N 17.7372 -0.778329 1.37039 0
M  V30 181 C 18.9622 -1.57248 1.35233 0
M  V30 182 C 19.3872 -1.87999 -0.0615568 0
M  V30 183 O 18.7452 -1.48734 -1.03672 0
M  V30 184 C 18.7932 -2.86353 2.19167 0
M  V30 185 O 17.8972 -3.80442 1.59178 0
M  V30 186 H 17.2382 -0.476569 0.462362 0
M  V30 187 H 19.7682 -0.963853 1.80474 0
M  V30 188 H 19.7782 -3.35519 2.32145 0
M  V30 189 H 18.4532 -2.63299 3.21942 0
M  V30 190 H 17.0302 -3.39067 1.55203 0
M  V30 191 N 19.2153 -1.21501 -1.00376 0
M  V30 192 C 20.4613 -1.03452 -1.74429 0
M  V30 193 C 20.7943 0.430764 -1.89362 0
M  V30 194 O 20.0693 1.31962 -1.42886 0
M  V30 195 C 20.3523 -1.73375 -3.15615 0
M  V30 196 C 20.2053 -3.27431 -3.08397 0
M  V30 197 C 21.5243 -1.47732 -4.14564 0
M  V30 198 H 18.6433 -0.377226 -0.633143 0
M  V30 199 H 21.2853 -1.49693 -1.17013 0
M  V30 200 H 19.4353 -1.34064 -3.64636 0
M  V30 201 H 21.1073 -3.76119 -2.67081 0
M  V30 202 H 19.3503 -3.5767 -2.45468 0
M  V30 203 H 20.0213 -3.71524 -4.08258 0
M  V30 204 H 22.4973 -1.8186 -3.74254 0
M  V30 205 H 21.3733 -1.99169 -5.11491 0
M  V30 206 H 21.6343 -0.407589 -4.40217 0
M  V30 207 N 20.6934 1.19889 -1.02296 0
M  V30 208 C 22.1044 1.71124 -0.746568 0
M  V30 209 C 22.4554 1.81939 0.734335 0
M  V30 210 O 21.5804 1.48639 1.57275 0
M  V30 211 C 22.1754 3.10804 -1.34857 0
M  V30 212 C 20.7344 3.59323 -1.1209 0
M  V30 213 C 19.8814 2.3635 -1.45031 0
M  V30 214 H 22.8324 1.04813 -1.19163 0
M  V30 215 H 22.8534 3.73186 -0.742437 0
M  V30 216 H 22.3654 3.029 -2.42638 0
M  V30 217 H 20.4664 3.7255 -0.0610337 0
M  V30 218 H 20.5794 4.4378 -1.80544 0
M  V30 219 H 18.9434 2.39399 -0.869487 0
M  V30 220 H 19.7264 2.31081 -2.53883 0
M  V30 221 N 22.1715 0.800033 1.35784 0
M  V30 222 C 23.3965 0.388511 2.03729 0
M  V30 223 C 23.8215 -0.990481 1.5991 0
M  V30 224 O 23.1795 -1.64013 0.772612 0
M  V30 225 C 23.2275 0.4726 3.5749 0
M  V30 226 O 22.3315 -0.51646 4.09153 0
M  V30 227 H 21.6725 0.163271 0.643614 0
M  V30 228 H 24.2025 1.0841 1.73518 0
M  V30 229 H 24.2125 0.34003 4.06581 0
M  V30 230 H 22.8875 1.47848 3.88734 0
M  V30 231 H 21.4645 -0.344673 3.71304 0
M  V30 232 N 23.6496 -1.47581 0.552962 0
M  V30 233 C 24.5976 -2.31648 -0.21023 0
M  V30 234 C 25.5916 -1.42663 -0.913432 0
M  V30 235 O 26.7976 -1.5945 -0.835201 0
M  V30 236 H 23.1726 -0.746989 -0.0866676 0
M  V30 237 H 25.1436 -2.93869 0.518051 0
M  V30 238 C 23.8926 -3.25226 -1.22976 0
M  V30 239 H 23.2156 -3.93658 -0.698077 0
M  V30 240 H 24.6556 -3.86889 -1.73473 0
M  V30 241 C 23.1146 -2.48448 -2.27542 0
M  V30 242 O 23.6446 -2.22585 -3.34393 0
M  V30 243 N 21.8506 -2.09532 -2.01357 0
M  V30 244 H 21.3976 -2.30765 -1.14478 0
M  V30 245 H 21.3556 -1.58476 -2.71538 0
M  V30 246 N 25.1277 -0.289203 -1.54924 0
M  V30 247 C 26.3557 0.326463 -2.04308 0
M  V30 248 C 26.7707 1.48413 -1.16701 0
M  V30 249 O 26.1277 1.81507 -0.190087 0
M  V30 250 C 26.1787 0.794014 -3.52672 0
M  V30 251 O 25.8997 -0.317564 -4.36948 0
M  V30 252 C 27.4007 1.47605 -4.18004 0
M  V30 253 H 24.6207 0.0726272 -0.667058 0
M  V30 254 H 27.1647 -0.425401 -2.00026 0
M  V30 255 H 25.3197 1.49593 -3.57352 0
M  V30 256 H 25.7337 0.0443186 -5.24481 0
M  V30 257 H 27.2077 1.75447 -5.23376 0
M  V30 258 H 27.6847 2.41224 -3.67025 0
M  V30 259 H 28.2907 0.81762 -4.17367 0
M  V30 260 N 26.6058 1.57591 -0.0167156 0
M  V30 261 C 27.5538 2.10604 0.987353 0
M  V30 262 C 28.5478 1.02977 1.34507 0
M  V30 263 O 29.7538 1.21425 1.32875 0
M  V30 264 H 26.1288 0.672695 0.336134 0
M  V30 265 H 28.0998 2.93925 0.514817 0
M  V30 266 C 26.8488 2.6382 2.26483 0
M  V30 267 H 26.1718 3.46278 1.99829 0
M  V30 268 H 27.6118 3.04573 2.94977 0
M  V30 269 C 26.0708 1.55992 2.9861 0
M  V30 270 O 26.6008 0.952521 3.90243 0
M  V30 271 N 24.8068 1.28335 2.60727 0
M  V30 272 H 24.3538 1.77914 1.86291 0
M  V30 273 H 24.3118 0.564115 3.09298 0
M  V30 274 N 28.0839 -0.256276 1.55502 0
M  V30 275 C 29.4999 -0.604325 1.47716 0
M  V30 276 C 29.6999 -1.88763 0.705039 0
M  V30 277 O 28.7559 -2.51445 0.230613 0
M  V30 278 C 30.0689 -0.715756 2.92057 0
M  V30 279 C 31.6169 -0.808706 3.02372 0
M  V30 280 C 32.0919 -0.951777 4.48001 0
M  V30 281 N 33.5829 -1.01688 4.519 0
M  V30 282 C 34.3179 -1.14668 5.61817 0
M  V30 283 N 33.8139 -1.24261 6.81565 0
M  V30 284 N 35.6069 -1.1791 5.49594 0
M  V30 285 H 27.7579 0.586291 2.04148 0
M  V30 286 H 30.0209 0.201015 0.926443 0
M  V30 287 H 29.7269 0.157027 3.51349 0
M  V30 288 H 29.6009 -1.59071 3.42018 0
M  V30 289 H 31.9879 -1.67195 2.43166 0
M  V30 290 H 32.0689 0.0912063 2.55637 0
M  V30 291 H 31.7129 -0.0931291 5.07815 0
M  V30 292 H 31.6429 -1.86659 4.92408 0
M  V30 293 H 34.1339 -0.954468 3.65648 0
M  V30 294 H 34.4469 -1.34046 7.61086 0
M  V30 295 H 32.7919 -1.21236 6.84344 0
M  V30 296 H 35.9829 -1.10057 4.54978 0
M  V30 297 H 36.1559 -1.27681 6.35296 0
M  V30 298 N 29.562 -1.4872 -0.521534 0
M  V30 299 C 30.809 -1.57168 -1.27689 0
M  V30 300 C 31.137 -0.249275 -1.92896 0
M  V30 301 O 30.392 0.761162 -1.80291 0
M  V30 302 C 30.691 -2.66497 -2.38148 0
M  V30 303 C 30.357 -4.08664 -1.90538 0
M  V30 304 C 29.019 -4.47357 -1.77271 0
M  V30 305 C 31.371 -4.97724 -1.54663 0
M  V30 306 C 28.699 -5.72905 -1.26478 0
M  V30 307 C 31.051 -6.2377 -1.05329 0
M  V30 308 C 29.715 -6.61311 -0.906861 0
M  V30 309 H 28.985 -0.575117 -0.467249 0
M  V30 310 H 31.632 -1.82472 -0.581051 0
M  V30 311 H 29.937 -2.35085 -3.13437 0
M  V30 312 H 31.634 -2.70246 -2.96257 0
M  V30 313 H 28.224 -3.78111 -2.01816 0
M  V30 314 H 32.408 -4.68501 -1.63768 0
M  V30 315 H 27.664 -6.00709 -1.13835 0
M  V30 316 H 31.838 -6.9217 -0.76644 0
M  V30 317 H 29.465 -7.5848 -0.511083 0
M  V30 318 N 31.0401 0.771051 -1.3745 0
M  V30 319 C 31.9721 1.89352 -1.29146 0
M  V30 320 C 32.9851 1.61477 -0.207124 0
M  V30 321 O 34.1741 1.72382 -0.463324 0
M  V30 322 C 31.2741 3.24596 -0.974195 0
M  V30 323 C 30.4471 3.80111 -2.16413 0
M  V30 324 C 29.5061 4.93832 -1.81703 0
M  V30 325 O 28.5321 5.09382 -2.54006 0
M  V30 326 N 29.7341 5.75483 -0.761573 0
M  V30 327 H 32.4991 1.96991 -2.25864 0
M  V30 328 H 30.0601 0.950191 -1.31084 0
M  V30 329 H 32.0521 3.98193 -0.722828 0
M  V30 330 H 30.6221 3.12454 -0.0955527 0
M  V30 331 H 29.8421 2.98284 -2.57721 0
M  V30 332 H 31.1301 4.13932 -2.95867 0
M  V30 333 H 30.5281 5.65469 -0.161609 0
M  V30 334 H 29.0851 6.49302 -0.570064 0
M  V30 335 N 32.5182 1.22032 0.997298 0
M  V30 336 C 33.7642 1.04376 1.73878 0
M  V30 337 C 34.0972 -0.420716 1.89588 0
M  V30 338 O 33.3722 -1.31202 1.43583 0
M  V30 339 C 33.6552 1.75047 3.14691 0
M  V30 340 C 33.5082 3.29062 3.06656 0
M  V30 341 C 34.8272 1.49928 4.13775 0
M  V30 342 H 31.9462 0.380578 0.631133 0
M  V30 343 H 34.5882 1.50312 1.16217 0
M  V30 344 H 32.7382 1.35996 3.63919 0
M  V30 345 H 34.4102 3.7753 2.65083 0
M  V30 346 H 32.6532 3.58967 2.43568 0
M  V30 347 H 33.3242 3.73683 4.06282 0
M  V30 348 H 35.8002 1.83842 3.73285 0
M  V30 349 H 34.6762 2.01878 5.10428 0
M  V30 350 H 34.9372 0.430929 4.39995 0
M  V30 351 N 33.9963 -1.19345 1.0293 0
M  V30 352 C 35.2213 -1.93538 0.745511 0
M  V30 353 C 35.6463 -1.75007 -0.689511 0
M  V30 354 O 35.0043 -1.05265 -1.47611 0
M  V30 355 C 35.0523 -3.43336 1.10239 0
M  V30 356 O 34.1563 -4.11806 0.221289 0
M  V30 357 H 33.4973 -0.604193 0.275404 0
M  V30 358 H 36.0273 -1.5141 1.37609 0
M  V30 359 H 36.0373 -3.94004 1.05947 0
M  V30 360 H 34.7123 -3.56146 2.14786 0
M  V30 361 H 33.2893 -3.715 0.322842 0
M  V30 362 N 35.4744 -0.807222 -1.35358 0
M  V30 363 C 36.7204 -0.388463 -1.99045 0
M  V30 364 C 37.0534 1.04184 -1.63888 0
M  V30 365 O 36.3284 1.72292 -0.902535 0
M  V30 366 C 36.6114 -0.572783 -3.55515 0
M  V30 367 C 36.4644 -2.04807 -4.00468 0
M  V30 368 C 37.7834 0.00114064 -4.401 0
M  V30 369 H 34.9024 -0.142619 -0.723069 0
M  V30 370 H 37.5444 -1.01687 -1.60498 0
M  V30 371 H 35.6944 -0.0378425 -3.88482 0
M  V30 372 H 37.3664 -2.64544 -3.77908 0
M  V30 373 H 35.6094 -2.54427 -3.51353 0
M  V30 374 H 36.2804 -2.12792 -5.09337 0
M  V30 375 H 38.7564 -0.455716 -4.13597 0
M  V30 376 H 37.6324 -0.157737 -5.48673 0
M  V30 377 H 37.8934 1.09488 -4.28328 0
M  V30 378 N 36.9525 1.47285 -0.560781 0
M  V30 379 C 38.2015 2.01668 -0.035895 0
M  V30 380 C 38.5145 1.44021 1.32353 0
M  V30 381 O 39.7205 1.90088 1.93853 0
M  V30 382 C 38.1765 3.59897 -0.0136659 0
M  V30 383 C 37.7845 4.26536 -1.37006 0
M  V30 384 C 39.5285 4.22017 0.458425 0
M  V30 385 C 37.4355 5.76782 -1.30675 0
M  V30 386 H 36.3655 0.753938 -0.00964879 0
M  V30 387 H 39.0165 1.69243 -0.709166 0
M  V30 388 H 37.3985 3.89301 0.725325 0
M  V30 389 H 38.5725 4.0877 -2.12705 0
M  V30 390 H 36.8875 3.76419 -1.78038 0
M  V30 391 H 39.4845 5.32124 0.524247 0
M  V30 392 H 39.8275 3.89437 1.4712 0
M  V30 393 H 40.3605 3.97159 -0.225818 0
M  V30 394 H 37.0995 6.13988 -2.29564 0
M  V30 395 H 36.6195 5.96875 -0.591622 0
M  V30 396 H 38.2985 6.39063 -1.01033 0
M  V30 397 N 38.4306 0.297415 1.54768 0
M  V30 398 C 39.3786 -0.596051 2.24833 0
M  V30 399 C 40.3726 -1.13992 1.25308 0
M  V30 400 O 41.5786 -1.09098 1.4317 0
M  V30 401 H 37.9536 -0.210814 0.721846 0
M  V30 402 H 39.9246 0.0174667 2.98395 0
M  V30 403 C 38.6736 -1.75818 2.99972 0
M  V30 404 H 37.9966 -1.3489 3.76357 0
M  V30 405 H 39.4366 -2.35949 3.52284 0
M  V30 406 C 37.8956 -2.66014 2.06732 0
M  V30 407 O 38.4256 -3.67009 1.63302 0
M  V30 408 N 36.6316 -2.33669 1.72763 0
M  V30 409 H 36.1786 -1.51586 2.08277 0
M  V30 410 H 36.1366 -2.94285 1.10652 0
M  V30 411 N 39.9087 -1.5758 0.0250728 0
M  V30 412 C 40.8187 -2.1343 -0.973905 0
M  V30 413 C 41.8347 -1.08556 -1.35984 0
M  V30 414 O 43.0107 -1.40592 -1.44207 0
M  V30 415 C 40.0757 -2.64703 -2.23904 0
M  V30 416 C 39.1367 -3.84276 -1.91391 0
M  V30 417 C 38.3697 -4.33095 -3.11873 0
M  V30 418 O 38.5927 -3.81107 -4.24398 0
M  V30 419 O 37.5267 -5.24984 -2.94406 0
M  V30 420 H 41.3527 -2.99057 -0.529036 0
M  V30 421 H 38.9377 -1.48118 -0.195288 0
M  V30 422 H 40.8197 -2.97769 -2.98181 0
M  V30 423 H 39.4947 -1.82161 -2.6758 0
M  V30 424 H 38.4017 -3.56143 -1.14511 0
M  V30 425 H 39.7347 -4.67968 -1.52534 0
M  V30 426 N 41.3868 0.248026 -1.55636 0
M  V30 427 C 42.3348 1.32683 -1.91045 0
M  V30 428 C 43.3288 1.49883 -0.789401 0
M  V30 429 O 44.5348 1.51371 -0.974007 0
M  V30 430 H 40.9098 0.444272 -0.606734 0
M  V30 431 H 42.8808 1.00085 -2.81115 0
M  V30 432 C 41.6298 2.6755 -2.22064 0
M  V30 433 H 40.9528 2.55114 -3.07826 0
M  V30 434 H 42.3928 3.41912 -2.50743 0
M  V30 435 C 40.8518 3.20556 -1.0366 0
M  V30 436 O 41.3818 4.00695 -0.284016 0
M  V30 437 N 39.5878 2.78568 -0.82753 0
M  V30 438 H 39.1348 2.1351 -1.44123 0
M  V30 439 H 39.0928 3.14378 -0.0369803 0
M  V30 440 N 42.8649 1.48995 0.513639 0
M  V30 441 C 43.8149 1.61127 1.61314 0
M  V30 442 C 44.7989 0.467521 1.53958 0
M  V30 443 O 45.9909 0.719826 1.61702 0
M  V30 444 C 43.1199 1.66937 2.99978 0
M  V30 445 C 42.2059 2.86847 3.12377 0
M  V30 446 N 42.5969 4.11078 2.94701 0
M  V30 447 C 40.8949 2.84521 3.43459 0
M  V30 448 C 41.5959 4.91615 3.10949 0
M  V30 449 N 40.5719 4.24739 3.3926 0
M  V30 450 H 44.3739 2.54909 1.46282 0
M  V30 451 H 41.8879 1.45593 0.719483 0
M  V30 452 H 43.8849 1.73725 3.78979 0
M  V30 453 H 42.5449 0.742831 3.16089 0
M  V30 454 H 43.5559 4.41258 2.71131 0
M  V30 455 H 40.2329 2.01192 3.65825 0
M  V30 456 H 41.6229 6.00264 3.01882 0
M  V30 457 N 44.343 -0.763751 1.37857 0
M  V30 458 C 45.253 -1.90817 1.36478 0
M  V30 459 C 46.269 -1.71997 0.263248 0
M  V30 460 O 47.445 -1.95095 0.499979 0
M  V30 461 C 44.51 -3.2605 1.17864 0
M  V30 462 C 43.571 -3.57467 2.3773 0
M  V30 463 C 42.804 -4.86249 2.19995 0
M  V30 464 O 43.027 -5.57884 1.18836 0
M  V30 465 O 41.961 -5.16911 3.08361 0
M  V30 466 H 45.787 -1.94933 2.32884 0
M  V30 467 H 43.372 -0.907619 1.1867 0
M  V30 468 H 45.254 -4.06924 1.09504 0
M  V30 469 H 43.929 -3.22769 0.245372 0
M  V30 470 H 42.836 -2.76796 2.51664 0
M  V30 471 H 44.169 -3.655 3.29652 0
M  V30 472 N 45.8211 -1.22559 -0.990812 0
M  V30 473 C 47.0461 -1.07862 -1.77145 0
M  V30 474 C 47.4711 0.366447 -1.84496 0
M  V30 475 O 46.8291 1.26478 -1.29896 0
M  V30 476 C 46.8771 -1.69686 -3.18181 0
M  V30 477 O 45.9811 -0.951946 -4.01263 0
M  V30 478 H 45.3221 -0.378712 -0.545411 0
M  V30 479 H 47.8521 -1.62399 -1.2445 0
M  V30 480 H 47.8621 -1.74496 -3.68802 0
M  V30 481 H 46.5371 -2.74841 -3.12146 0
M  V30 482 H 45.1141 -0.980011 -3.59792 0
M  V30 483 N 47.2992 1.18797 -1.03562 0
M  V30 484 C 48.5242 1.9314 -0.755764 0
M  V30 485 C 48.9492 1.7537 0.68022 0
M  V30 486 O 48.3072 1.06046 1.47051 0
M  V30 487 C 48.3552 3.42747 -1.12058 0
M  V30 488 O 47.4592 4.11683 -0.243124 0
M  V30 489 H 46.8002 0.602724 -0.278604 0
M  V30 490 H 49.3302 1.50678 -1.3841 0
M  V30 491 H 49.3402 3.93437 -1.08035 0
M  V30 492 H 48.0152 3.55002 -2.16672 0
M  V30 493 H 46.5922 3.71323 -0.342539 0
M  V30 494 N 48.7773 0.814389 1.34928 0
M  V30 495 C 49.7403 0.235759 2.27984 0
M  V30 496 C 50.7403 -0.581412 1.49921 0
M  V30 497 O 51.9303 -0.398758 1.69575 0
M  V30 498 C 49.0623 -0.670433 3.34242 0
M  V30 499 H 50.2553 1.05659 2.80671 0
M  V30 500 H 47.8083 0.585614 1.44915 0
M  V30 501 H 48.5433 -1.51466 2.86755 0
M  V30 502 H 48.3283 -0.0860822 3.92005 0
M  V30 503 H 49.8183 -1.06935 4.03676 0
M  V30 504 N 50.2554 -1.46986 0.568584 0
M  V30 505 C 51.2184 -2.28624 -0.162366 0
M  V30 506 C 52.2184 -1.37596 -0.832103 0
M  V30 507 O 53.4084 -1.60115 -0.68622 0
M  V30 508 C 50.5404 -3.17596 -1.23878 0
M  V30 509 H 51.7334 -2.94722 0.554899 0
M  V30 510 H 49.2864 -1.52863 0.325976 0
M  V30 511 H 50.0214 -2.56214 -1.98808 0
M  V30 512 H 49.8064 -3.846 -0.763219 0
M  V30 513 H 51.2964 -3.79078 -1.75185 0
M  V30 514 N 51.7335 -0.305618 -1.54608 0
M  V30 515 C 52.6965 0.555591 -2.22364 0
M  V30 516 C 53.6965 1.05768 -1.21119 0
M  V30 517 O 54.8865 0.952972 -1.45822 0
M  V30 518 C 52.0185 1.76974 -2.91364 0
M  V30 519 H 53.2115 -0.0364572 -2.99878 0
M  V30 520 H 50.7645 -0.0565007 -1.56198 0
M  V30 521 H 51.4995 2.40151 -2.17941 0
M  V30 522 H 51.2845 1.41732 -3.65588 0
M  V30 523 H 52.7745 2.38148 -3.43038 0
M  V30 524 N 53.2116 1.57565 -0.0334293 0
M  V30 525 C 54.4886 1.83282 0.683163 0
M  V30 526 C 54.8686 0.91823 1.90084 0
M  V30 527 O 54.2166 -0.025113 2.28486 0
M  V30 528 C 54.4266 3.32599 1.0573 0
M  V30 529 C 55.7746 3.99179 1.44711 0
M  V30 530 O 56.7986 3.3712 1.15015 0
M  V30 531 O 55.6576 5.08565 2.0006 0
M  V30 532 H 52.7516 0.755869 0.335546 0
M  V30 533 H 55.2976 1.69589 -0.0614402 0
M  V30 534 H 54.0696 3.90834 0.190828 0
M  V30 535 H 53.6926 3.51415 1.85993 0
M  V30 536 N 54.6897 -0.239769 1.55765 0
M  V30 537 C 55.9667 -0.990056 1.68693 0
M  V30 538 C 56.3467 -2.03107 0.5754 0
M  V30 539 O 55.6947 -2.24604 -0.42017 0
M  V30 540 C 55.9047 -1.61696 3.09282 0
M  V30 541 C 57.2527 -2.11613 3.6811 0
M  V30 542 O 58.2767 -1.71624 3.12127 0
M  V30 543 O 57.1357 -2.85057 4.66267 0
M  V30 544 H 54.2297 -0.461299 0.686391 0
M  V30 545 H 56.7757 -0.232991 1.68093 0
M  V30 546 H 55.5477 -0.864357 3.81634 0
M  V30 547 H 55.1707 -2.44005 3.13923 0
M  V30 548 N 56.1678 -1.49265 -0.50573 0
M  V30 549 C 57.1158 -1.66065 -1.62866 0
M  V30 550 C 58.1098 -0.526636 -1.61006 0
M  V30 551 O 59.3158 -0.706126 -1.65571 0
M  V30 552 H 55.6908 -0.52356 -0.539805 0
M  V30 553 H 57.6618 -2.60329 -1.45848 0
M  V30 554 C 56.4108 -1.74008 -3.01026 0
M  V30 555 H 55.7338 -2.6064 -3.03161 0
M  V30 556 H 57.1738 -1.89798 -3.79147 0
M  V30 557 C 55.6328 -0.483868 -3.33407 0
M  V30 558 O 56.1628 0.392548 -3.99777 0
M  V30 559 N 54.3688 -0.348236 -2.88506 0
M  V30 560 H 53.9158 -1.06242 -2.34671 0
M  V30 561 H 53.8738 0.491204 -3.10539 0
M  V30 562 N 57.6459 0.756429 -1.3826 0
M  V30 563 C 58.8739 1.54565 -1.3754 0
M  V30 564 C 59.2889 1.88767 0.0355331 0
M  V30 565 O 58.6459 1.52572 1.0014 0
M  V30 566 C 58.6969 2.84654 -2.22833 0
M  V30 567 O 58.4179 2.51912 -3.5843 0
M  V30 568 C 59.9189 3.78807 -2.30261 0
M  V30 569 H 57.1389 0.478353 -0.470553 0
M  V30 570 H 59.6829 0.936381 -1.81803 0
M  V30 571 H 57.8379 3.41965 -1.8204 0
M  V30 572 H 58.2519 3.35325 -4.03308 0
M  V30 573 H 59.7259 4.67045 -2.94233 0
M  V30 574 H 60.2029 4.19038 -1.31545 0
M  V30 575 H 60.8089 3.2742 -2.71433 0
M  V30 576 N 59.124 1.23083 0.984299 0
M  V30 577 C 60.401 0.9689 1.69917 0
M  V30 578 C 60.781 -0.513604 2.04757 0
M  V30 579 O 60.129 -1.48383 1.73767 0
M  V30 580 C 60.339 1.87518 2.94343 0
M  V30 581 C 61.687 2.13636 3.6694 0
M  V30 582 O 62.711 1.85036 3.04368 0
M  V30 583 O 61.57 2.62119 4.79537 0
M  V30 584 H 58.664 0.365095 0.742048 0
M  V30 585 H 61.21 1.34107 1.03987 0
M  V30 586 H 59.982 2.87756 2.65164 0
M  V30 587 H 59.605 1.50514 3.6801 0
M  V30 588 N 60.6021 -1.18246 1.0419 0
M  V30 589 C 62.0131 -1.69914 0.773698 0
M  V30 590 C 62.3641 -1.83085 -0.705297 0
M  V30 591 O 61.4891 -1.51123 -1.5489 0
M  V30 592 C 62.0841 -3.08619 1.39784 0
M  V30 593 C 60.6431 -3.57494 1.17792 0
M  V30 594 C 59.7901 -2.34013 1.48773 0
M  V30 595 H 62.7411 -1.02904 1.20816 0
M  V30 596 H 62.7621 -3.71958 0.801714 0
M  V30 597 H 62.2741 -2.99001 2.47426 0
M  V30 598 H 60.3751 -3.72406 0.120295 0
M  V30 599 H 60.4881 -4.40852 1.87581 0
M  V30 600 H 58.8521 -2.37986 0.907463 0
M  V30 601 H 59.6351 -2.27013 2.57527 0
M  V30 602 N 62.0802 -0.821533 -1.34494 0
M  V30 603 C 63.4912 -0.467956 -1.8074 0
M  V30 604 C 63.8422 1.01151 -1.68116 0
M  V30 605 O 62.9672 1.78707 -1.22036 0
M  V30 606 C 63.5622 -0.842627 -3.28154 0
M  V30 607 C 62.1212 -0.541439 -3.72485 0
M  V30 608 C 61.2682 -1.06028 -2.56229 0
M  V30 609 H 64.2192 -1.01183 -1.22261 0
M  V30 610 H 64.2402 -0.145876 -3.8022 0
M  V30 611 H 63.7522 -1.91945 -3.37311 0
M  V30 612 H 61.8532 0.526034 -3.68868 0
M  V30 613 H 61.9662 -1.08453 -4.66663 0
M  V30 614 H 60.3302 -0.481892 -2.501 0
M  V30 615 H 61.1132 -2.14352 -2.68157 0
M  V30 616 N 63.5583 1.46682 -0.576371 0
M  V30 617 C 64.5083 2.27278 0.181288 0
M  V30 618 C 65.4923 1.35497 0.867721 0
M  V30 619 O 66.6843 1.59717 0.762863 0
M  V30 620 C 63.8133 3.21703 1.19841 0
M  V30 621 C 62.8993 4.20969 0.51442 0
M  V30 622 N 63.2903 5.03999 -0.426407 0
M  V30 623 C 61.5883 4.39373 0.765963 0
M  V30 624 C 62.2893 5.75812 -0.825565 0
M  V30 625 N 61.2653 5.43315 -0.176116 0
M  V30 626 H 65.0673 2.88863 -0.541785 0
M  V30 627 H 62.5813 1.57455 -0.397697 0
M  V30 628 H 64.5783 3.78145 1.75533 0
M  V30 629 H 63.2383 2.61677 1.92238 0
M  V30 630 H 64.2493 5.11659 -0.8016 0
M  V30 631 H 60.9263 3.90502 1.47698 0
M  V30 632 H 62.3163 6.52577 -1.59976 0
M  V30 633 N 65.0364 0.313813 1.54444 0
M  V30 634 C 66.2664 -0.293491 2.04505 0
M  V30 635 C 66.6744 -1.47086 1.19005 0
M  V30 636 O 66.0174 -1.82481 0.211257 0
M  V30 637 C 66.0794 -0.800455 3.50475 0
M  V30 638 C 65.7434 0.253322 4.56297 0
M  V30 639 C 66.7404 1.08612 5.08428 0
M  V30 640 C 64.4254 0.398708 5.00715 0
M  V30 641 C 66.4194 2.05013 6.0353 0
M  V30 642 C 64.1064 1.36614 5.95634 0
M  V30 643 C 65.1044 2.19033 6.46926 0
M  V30 644 O 64.7924 3.14134 7.39983 0
M  V30 645 H 64.5244 -0.0658325 0.672787 0
M  V30 646 H 67.0784 0.455177 2.00293 0
M  V30 647 H 65.3084 -1.59987 3.52053 0
M  V30 648 H 66.9974 -1.32504 3.83663 0
M  V30 649 H 67.7634 0.984736 4.74898 0
M  V30 650 H 63.6424 -0.23289 4.60411 0
M  V30 651 H 67.1864 2.69382 6.4349 0
M  V30 652 H 63.0834 1.4682 6.28581 0
M  V30 653 H 63.8514 3.0926 7.57826 0
M  V30 654 N 66.5145 -1.57545 0.0417849 0
M  V30 655 C 67.4245 -2.14451 -0.951213 0
M  V30 656 C 68.4405 -1.09992 -1.34825 0
M  V30 657 O 69.6165 -1.42114 -1.42708 0
M  V30 658 C 66.6815 -2.67063 -2.21084 0
M  V30 659 C 65.7425 -3.86284 -1.87304 0
M  V30 660 C 64.9755 -4.36378 -3.07261 0
M  V30 661 O 65.1985 -3.85587 -4.20332 0
M  V30 662 O 64.1325 -5.28077 -2.88822 0
M  V30 663 H 67.9585 -2.99601 -0.497287 0
M  V30 664 H 65.5435 -1.48317 -0.179567 0
M  V30 665 H 67.4255 -3.00914 -2.95006 0
M  V30 666 H 66.1005 -1.84989 -2.65633 0
M  V30 667 H 65.0075 -3.57338 -1.10727 0
M  V30 668 H 66.3405 -4.6956 -1.47562 0
M  V30 669 N 67.9926 0.231505 -1.5589 0
M  V30 670 C 68.9026 1.308 -1.94752 0
M  V30 671 C 69.9186 1.51826 -0.849989 0
M  V30 672 O 71.0946 1.6515 -1.15271 0
M  V30 673 C 68.1596 2.63968 -2.24771 0
M  V30 674 C 67.2206 2.51331 -3.48039 0
M  V30 675 C 66.4536 3.78148 -3.76616 0
M  V30 676 O 66.6766 4.80722 -3.07022 0
M  V30 677 O 65.6106 3.75857 -4.70123 0
M  V30 678 H 69.4366 1.0083 -2.86474 0
M  V30 679 H 67.0216 0.433547 -1.42971 0
M  V30 680 H 68.9036 3.42633 -2.45318 0
M  V30 681 H 67.5786 2.9364 -1.36225 0
M  V30 682 H 66.4856 1.709 -3.32782 0
M  V30 683 H 67.8186 2.26601 -4.36936 0
M  V30 684 N 69.4707 1.49531 0.497807 0
M  V30 685 C 70.6987 1.62893 1.27567 0
M  V30 686 C 71.1137 0.301585 1.86376 0
M  V30 687 O 70.4707 -0.713335 1.67982 0
M  V30 688 C 70.5217 2.70013 2.40364 0
M  V30 689 O 70.2427 3.976 1.83972 0
M  V30 690 C 71.7437 2.94109 3.31685 0
M  V30 691 H 68.9637 0.548298 0.386794 0
M  V30 692 H 71.5077 1.95584 0.597245 0
M  V30 693 H 69.6627 2.40092 3.04031 0
M  V30 694 H 70.0767 4.56631 2.58047 0
M  V30 695 H 71.5507 3.72788 4.07104 0
M  V30 696 H 72.0277 2.04147 3.88871 0
M  V30 697 H 72.6337 3.2546 2.73781 0
M  V30 698 N 70.9488 -0.749086 1.3866 0
M  V30 699 C 72.1738 -1.54344 1.38538 0
M  V30 700 C 72.5988 -1.88088 -0.0216655 0
M  V30 701 O 71.9568 -1.50899 -1.00494 0
M  V30 702 C 72.0048 -2.8164 2.25192 0
M  V30 703 O 71.1088 -3.7698 1.67212 0
M  V30 704 H 70.4498 -0.466654 0.472367 0
M  V30 705 H 72.9798 -0.925355 1.82478 0
M  V30 706 H 72.9898 -3.30519 2.3921 0
M  V30 707 H 71.6648 -2.56411 3.27454 0
M  V30 708 H 70.2418 -3.35699 1.6236 0
M  V30 709 N 72.4269 -1.23603 -0.977757 0
M  V30 710 C 73.6739 -1.06971 -1.71941 0
M  V30 711 C 74.0019 0.393009 -1.90488 0
M  V30 712 O 73.2569 1.30719 -1.4564 0
M  V30 713 C 73.5559 -1.7433 -3.11999 0
M  V30 714 C 73.2219 -3.24252 -3.13323 0
M  V30 715 C 71.8839 -3.65156 -3.13392 0
M  V30 716 C 74.2359 -4.20141 -3.08433 0
M  V30 717 C 71.5639 -5.00403 -3.0629 0
M  V30 718 C 73.9159 -5.55384 -3.02873 0
M  V30 719 C 72.5799 -5.95647 -3.01265 0
M  V30 720 H 71.8499 -0.391433 -0.629175 0
M  V30 721 H 74.4969 -1.53572 -1.14403 0
M  V30 722 H 72.8019 -1.20096 -3.7294 0
M  V30 723 H 74.4989 -1.58936 -3.68158 0
M  V30 724 H 71.0889 -2.91692 -3.14029 0
M  V30 725 H 75.2729 -3.89547 -3.07517 0
M  V30 726 H 70.5289 -5.3081 -3.03399 0
M  V30 727 H 74.7029 -6.29398 -2.98046 0
M  V30 728 H 72.3299 -7.0041 -2.95516 0
M  V30 729 N 73.905 1.17692 -1.04816 0
M  V30 730 C 75.153 1.87488 -0.754497 0
M  V30 731 C 75.474 1.81205 0.720407 0
M  V30 732 O 74.744 1.23544 1.52032 0
M  V30 733 H 73.324 0.694101 -0.276102 0
M  V30 734 H 75.986 1.42793 -1.32651 0
M  V30 735 H 75.082 2.93328 -1.06606 0
M  V30 736 N 75.3831 0.828654 1.34056 0
M  V30 737 C 76.6601 0.341809 1.9259 0
M  V30 738 C 77.0401 -1.17158 1.75605 0
M  V30 739 O 76.3881 -1.98132 1.13824 0
M  V30 740 C 76.5981 0.777453 3.4023 0
M  V30 741 C 77.9461 0.779579 4.17382 0
M  V30 742 O 78.9701 0.7204 3.48839 0
M  V30 743 O 77.8291 0.857996 5.39723 0
M  V30 744 H 74.9231 0.0946085 0.821571 0
M  V30 745 H 77.4691 0.913827 1.42994 0
M  V30 746 H 76.2411 1.8196 3.46419 0
M  V30 747 H 75.8641 0.181444 3.97186 0
M  V30 748 N 76.8612 -1.46375 0.584142 0
M  V30 749 C 77.7712 -2.34115 -0.150728 0
M  V30 750 C 78.7872 -1.49838 -0.884567 0
M  V30 751 O 79.9632 -1.82704 -0.847429 0
M  V30 752 C 77.0282 -3.2705 -1.15062 0
M  V30 753 C 76.0892 -4.27228 -0.421293 0
M  V30 754 C 75.3222 -5.15722 -1.37355 0
M  V30 755 O 75.5452 -5.07176 -2.61014 0
M  V30 756 O 74.4792 -5.95383 -0.883355 0
M  V30 757 H 78.3052 -2.98309 0.569708 0
M  V30 758 H 75.8902 -1.45373 0.344535 0
M  V30 759 H 77.7722 -3.84381 -1.72712 0
M  V30 760 H 76.4472 -2.65451 -1.8525 0
M  V30 761 H 75.3542 -3.7358 0.197085 0
M  V30 762 H 76.6872 -4.91616 0.239641 0
M  V30 763 N 78.3393 -0.321999 -1.54275 0
M  V30 764 C 79.3023 0.531975 -2.22941 0
M  V30 765 C 80.3023 1.04478 -1.22234 0
M  V30 766 O 81.4923 0.937452 -1.46825 0
M  V30 767 C 78.6243 1.73874 -2.93224 0
M  V30 768 H 79.8173 -0.0682612 -2.99822 0
M  V30 769 H 77.3703 -0.0730644 -1.56129 0
M  V30 770 H 78.1053 2.37825 -2.20476 0
M  V30 771 H 77.8903 1.37847 -3.6707 0
M  V30 772 H 79.3803 2.34496 -3.45545 0
M  V30 773 N 79.8174 1.5752 -0.0501392 0
M  V30 774 C 80.7494 2.08413 0.95376 0
M  V30 775 C 81.7624 1.01175 1.27544 0
M  V30 776 O 82.9514 1.28744 1.23641 0
M  V30 777 C 80.0514 2.51138 2.27559 0
M  V30 778 C 79.2244 3.817 2.13598 0
M  V30 779 C 78.2834 4.10749 3.28895 0
M  V30 780 O 77.3094 4.80685 3.04845 0
M  V30 781 N 78.5114 3.62579 4.5334 0
M  V30 782 H 81.2764 2.95165 0.519383 0
M  V30 783 H 78.8374 1.61327 0.136127 0
M  V30 784 H 80.8294 2.67648 3.03557 0
M  V30 785 H 79.3994 1.6964 2.62567 0
M  V30 786 H 78.6194 3.74782 1.22197 0
M  V30 787 H 79.9074 4.67201 2.01496 0
M  V30 788 H 79.3054 3.06039 4.75769 0
M  V30 789 H 77.8624 3.84329 5.26436 0
M  V30 790 N 81.2955 -0.223234 1.56011 0
M  V30 791 C 82.2425 -1.27664 1.92277 0
M  V30 792 C 83.2125 -1.46659 0.779763 0
M  V30 793 O 84.3975 -1.60256 1.03551 0
M  V30 794 C 81.5375 -2.62234 2.24338 0
M  V30 795 C 80.6505 -2.51051 3.51564 0
M  V30 796 C 79.7855 -3.78133 3.7308 0
M  V30 797 C 78.8245 -3.61665 4.93827 0
M  V30 798 N 77.9615 -4.80693 5.11741 0
M  V30 799 H 82.8015 -0.960358 2.82101 0
M  V30 800 H 80.3385 -0.462901 1.39627 0
M  V30 801 H 82.2965 -3.40596 2.40936 0
M  V30 802 H 80.9265 -2.91961 1.3769 0
M  V30 803 H 79.9785 -1.64132 3.43169 0
M  V30 804 H 81.2905 -2.34803 4.40079 0
M  V30 805 H 80.4445 -4.64938 3.89766 0
M  V30 806 H 79.1835 -3.97304 2.82844 0
M  V30 807 H 78.1885 -2.73244 4.77093 0
M  V30 808 H 79.4135 -3.43966 5.85546 0
M  V30 809 H 77.3595 -5.00181 4.24446 0
M  V30 810 H 77.2765 -4.67165 5.94384 0
M  V30 811 H 78.5445 -5.6893 5.3286 0
M  V30 812 N 82.7736 -1.49793 -0.48987 0
M  V30 813 C 84.1896 -1.36803 -0.822022 0
M  V30 814 C 84.3896 -0.409652 -1.97292 0
M  V30 815 O 83.4456 0.154614 -2.52026 0
M  V30 816 C 84.7586 -2.77768 -1.15175 0
M  V30 817 C 86.3066 -2.86549 -1.25931 0
M  V30 818 C 86.7816 -4.28306 -1.62228 0
M  V30 819 N 88.2726 -4.31169 -1.69256 0
M  V30 820 C 89.0076 -5.37832 -1.98807 0
M  V30 821 N 88.5036 -6.54726 -2.26507 0
M  V30 822 N 90.2966 -5.25258 -2.00152 0
M  V30 823 H 82.4476 -2.10691 0.268881 0
M  V30 824 H 84.7106 -0.946241 0.057728 0
M  V30 825 H 84.4166 -3.49648 -0.379335 0
M  V30 826 H 84.2906 -3.13836 -2.09253 0
M  V30 827 H 86.6776 -2.14899 -2.02243 0
M  V30 828 H 86.7586 -2.54049 -0.298776 0
M  V30 829 H 86.4026 -5.00486 -0.864622 0
M  V30 830 H 86.3326 -4.58279 -2.594 0
M  V30 831 H 88.8236 -3.4687 -1.49965 0
M  V30 832 H 89.1366 -7.31833 -2.48276 0
M  V30 833 H 87.4816 -6.57933 -2.23939 0
M  V30 834 H 90.6726 -4.32938 -1.77996 0
M  V30 835 H 90.8456 -6.08476 -2.22848 0
M  V30 836 N 84.2517 0.741722 -1.39055 0
M  V30 837 C 85.1817 1.869 -1.39966 0
M  V30 838 C 86.1627 1.6804 -0.26392 0
M  V30 839 O 87.3477 1.88458 -0.468755 0
M  V30 840 C 84.4777 3.24572 -1.23574 0
M  V30 841 C 83.4317 3.58056 -2.34477 0
M  V30 842 C 82.7577 4.94593 -2.0318 0
M  V30 843 C 84.0577 3.61716 -3.76774 0
M  V30 844 H 85.7517 1.86395 -2.34302 0
M  V30 845 H 83.2977 0.895361 -1.1278 0
M  V30 846 H 85.2507 4.031 -1.22834 0
M  V30 847 H 83.9747 3.25587 -0.257045 0
M  V30 848 H 82.6337 2.81854 -2.34423 0
M  V30 849 H 82.2817 4.92181 -1.03765 0
M  V30 850 H 81.9817 5.17964 -2.77465 0
M  V30 851 H 83.5057 5.75486 -2.04079 0
M  V30 852 H 84.9197 4.30335 -3.78794 0
M  V30 853 H 83.3167 3.96603 -4.50362 0
M  V30 854 H 84.3867 2.61672 -4.08235 0
M  V30 855 N 85.7298 1.2412 0.971189 0
M  V30 856 C 87.1458 1.00584 1.23916 0
M  V30 857 C 87.3458 -0.287481 1.99439 0
M  V30 858 O 86.4018 -1.00454 2.31658 0
M  V30 859 C 87.7148 2.21864 2.0297 0
M  V30 860 C 89.2628 2.26452 2.16076 0
M  V30 861 C 89.7378 3.47343 2.98524 0
M  V30 862 N 91.2288 3.47639 3.06107 0
M  V30 863 C 91.9638 4.37837 3.70251 0
M  V30 864 N 91.4598 5.38286 4.36142 0
M  V30 865 N 93.2528 4.25558 3.67228 0
M  V30 866 H 85.4038 2.07236 0.465499 0
M  V30 867 H 87.6668 0.909236 0.268315 0
M  V30 868 H 87.3728 3.15771 1.54861 0
M  V30 869 H 87.2468 2.23698 3.03709 0
M  V30 870 H 89.6338 1.33078 2.6339 0
M  V30 871 H 89.7148 2.28645 1.14696 0
M  V30 872 H 89.3588 4.41029 2.51905 0
M  V30 873 H 89.2888 3.42393 4.00093 0
M  V30 874 H 91.7798 2.74966 2.59233 0
M  V30 875 H 92.0928 6.03352 4.82894 0
M  V30 876 H 90.4378 5.42176 4.34822 0
M  V30 877 H 93.6288 3.46322 3.14927 0
M  V30 878 H 93.8018 4.96054 4.16935 0
M  V30 879 N 87.2079 -1.17134 1.05439 0
M  V30 880 C 88.4569 -1.86791 0.761049 0
M  V30 881 C 88.7699 -1.82072 -0.714795 0
M  V30 882 O 89.9759 -2.47223 -1.12218 0
M  V30 883 C 88.4319 -3.35166 1.31117 0
M  V30 884 C 88.0399 -3.48381 2.81664 0
M  V30 885 C 89.7839 -4.10134 1.09499 0
M  V30 886 C 87.6909 -4.90793 3.29964 0
M  V30 887 H 86.6209 -0.699681 0.281002 0
M  V30 888 H 89.2719 -1.3226 1.27199 0
M  V30 889 H 87.6539 -3.8925 0.72803 0
M  V30 890 H 88.8279 -3.04502 3.45855 0
M  V30 891 H 87.1429 -2.86836 3.01851 0
M  V30 892 H 89.7399 -5.152 1.43084 0
M  V30 893 H 90.0829 -4.16287 0.0328772 0
M  V30 894 H 90.6159 -3.62264 1.64346 0
M  V30 895 H 87.3549 -4.89816 4.35616 0
M  V30 896 H 86.8749 -5.35333 2.70516 0
M  V30 897 H 88.5539 -5.59573 3.24787 0
M  V30 898 N 88.686 -0.835752 -1.33615 0
M  V30 899 C 89.911 -0.442389 -2.02627 0
M  V30 900 C 90.336 0.947735 -1.62479 0
M  V30 901 O 89.694 1.61907 -0.815826 0
M  V30 902 C 89.742 -0.567216 -3.56111 0
M  V30 903 O 88.846 0.407799 -4.10379 0
M  V30 904 H 88.187 -0.180278 -0.639059 0
M  V30 905 H 90.717 -1.12972 -1.70583 0
M  V30 906 H 90.727 -0.447708 -4.05536 0
M  V30 907 H 89.402 -1.58103 -3.84677 0
M  V30 908 H 87.979 0.246107 -3.72087 0
M  V30 909 N 90.1641 1.46063 -0.591896 0
M  V30 910 C 91.4111 2.02338 -0.0809991 0
M  V30 911 C 91.7391 1.46228 1.28249 0
M  V30 912 O 90.9941 0.620818 1.85592 0
M  V30 913 C 91.2931 3.57391 0.0249813 0
M  V30 914 C 90.9591 4.32583 -1.27211 0
M  V30 915 C 89.6211 4.52844 -1.62745 0
M  V30 916 C 91.9731 4.75687 -2.13005 0
M  V30 917 C 89.3011 5.13462 -2.83855 0
M  V30 918 C 91.6531 5.37644 -3.3335 0
M  V30 919 C 90.3171 5.5613 -3.69155 0
M  V30 920 H 89.5871 0.740407 -0.0296397 0
M  V30 921 H 92.2341 1.75321 -0.770374 0
M  V30 922 H 90.5391 3.83597 0.797537 0
M  V30 923 H 92.2361 3.98621 0.436184 0
M  V30 924 H 88.8261 4.17116 -0.985499 0
M  V30 925 H 93.0101 4.59782 -1.86855 0
M  V30 926 H 88.2661 5.25965 -3.11722 0
M  V30 927 H 92.4401 5.7 -4.00092 0
M  V30 928 H 90.0671 6.0287 -4.63089 0
M  V30 929 N 91.6422 0.330177 1.54103 0
M  V30 930 C 93.0582 -0.0222371 1.59585 0
M  V30 931 C 93.2582 -1.49902 1.34654 0
M  V30 932 O 92.3142 -2.25592 1.13421 0
M  V30 933 C 93.6272 0.401932 2.98002 0
M  V30 934 C 95.1752 0.353145 3.11001 0
M  V30 935 C 95.6502 0.752576 4.51775 0
M  V30 936 N 97.1412 0.706239 4.57784 0
M  V30 937 C 97.8762 0.987417 5.64834 0
M  V30 938 N 97.3722 1.33607 6.79795 0
M  V30 939 N 99.1652 0.91254 5.54643 0
M  V30 940 H 91.3162 1.29228 1.68564 0
M  V30 941 H 93.5792 0.525906 0.78875 0
M  V30 942 H 93.2852 1.4311 3.21267 0
M  V30 943 H 93.1592 -0.229699 3.765 0
M  V30 944 H 95.5462 -0.666822 2.87467 0
M  V30 945 H 95.6272 1.0198 2.34593 0
M  V30 946 H 95.2712 1.77049 4.76042 0
M  V30 947 H 95.2012 0.0635409 5.26562 0
M  V30 948 H 97.6922 0.44889 3.75224 0
M  V30 949 H 98.0052 1.53582 7.57385 0
M  V30 950 H 96.3502 1.37439 6.81275 0
M  V30 951 H 99.5412 0.639601 4.6371 0
M  V30 952 H 99.7142 1.13503 6.37982 0
M  V30 953 N 93.1203 -1.57491 0.0584922 0
M  V30 954 C 94.5313 -1.80526 -0.476138 0
M  V30 955 C 94.8823 -0.971334 -1.70469 0
M  V30 956 O 94.0073 -0.190012 -2.15564 0
M  V30 957 C 94.6023 -3.27424 -0.870587 0
M  V30 958 C 93.1613 -3.51351 -1.35015 0
M  V30 959 C 92.3083 -2.75343 -0.32887 0
M  V30 960 H 95.2593 -1.56133 0.284312 0
M  V30 961 H 95.2803 -3.38745 -1.73299 0
M  V30 962 H 94.7923 -3.88093 0.0237627 0
M  V30 963 H 92.8933 -2.95971 -2.26345 0
M  V30 964 H 93.0063 -4.60059 -1.33726 0
M  V30 965 H 91.3703 -2.417 -0.803321 0
M  V30 966 H 92.1533 -3.38743 0.557521 0
M  V30 967 N 94.5984 0.214957 -1.56127 0
M  V30 968 C 95.8464 0.936518 -1.79091 0
M  V30 969 C 96.1674 1.84606 -0.628148 0
M  V30 970 O 95.4374 1.92664 0.35462 0
M  V30 971 H 94.0174 0.3488 -0.660566 0
M  V30 972 H 96.6794 0.22523 -1.93594 0
M  V30 973 H 95.7754 1.53943 -2.71492 0
M  V30 974 N 96.0765 1.50051 0.48192 0
M  V30 975 C 97.0245 1.68635 1.60203 0
M  V30 976 C 98.0185 0.552184 1.60148 0
M  V30 977 O 99.2245 0.732377 1.64427 0
M  V30 978 H 95.5995 0.532081 0.531407 0
M  V30 979 H 97.5705 2.62616 1.41688 0
M  V30 980 C 96.3195 1.78775 2.9822 0
M  V30 981 H 95.6425 2.6543 2.98976 0
M  V30 982 H 97.0825 1.95806 3.7608 0
M  V30 983 C 95.5415 0.536849 3.32595 0
M  V30 984 O 96.0715 -0.328897 4.00351 0
M  V30 985 N 94.2775 0.394091 2.87915 0
M  V30 986 H 93.8245 1.09962 2.32951 0
M  V30 987 H 93.7825 -0.441737 3.11281 0
M  V30 988 N 97.5546 -0.734337 1.39446 0
M  V30 989 C 98.4866 -1.85861 1.34121 0
M  V30 990 C 99.4996 -1.60871 0.249864 0
M  V30 991 O 100.689 -1.71093 0.508865 0
M  V30 992 C 97.7886 -3.21899 1.05991 0
M  V30 993 C 96.9616 -3.74239 2.26415 0
M  V30 994 C 96.0206 -4.88841 1.94733 0
M  V30 995 O 95.0466 -5.02468 2.67422 0
M  V30 996 N 96.2486 -5.73261 0.913884 0
M  V30 997 H 99.0136 -1.90934 2.31007 0
M  V30 998 H 96.5746 -0.915102 1.33557 0
M  V30 999 H 98.5666 -3.96136 0.828147 0
M  V30 1000 H 97.1366 -3.12091 0.178361 0
M  V30 1001 H 96.3566 -2.91347 2.65539 0
M  V30 1002 H 97.6446 -4.05942 3.06738 0
M  V30 1003 H 97.0426 -5.64842 0.311476 0
M  V30 1004 H 95.5996 -6.47563 0.742015 0
M  V30 1005 N 99.0327 -1.24633 -0.964593 0
M  V30 1006 C 99.9427 -1.05859 -2.09359 0
M  V30 1007 C 100.959 0.00148855 -1.74 0
M  V30 1008 O 102.135 -0.197346 -2.00431 0
M  V30 1009 C 99.1997 -0.668879 -3.40187 0
M  V30 1010 C 98.2607 -1.80578 -3.89474 0
M  V30 1011 C 97.4937 -1.43457 -5.14058 0
M  V30 1012 O 97.7167 -0.325775 -5.69469 0
M  V30 1013 O 96.6507 -2.2613 -5.57807 0
M  V30 1014 H 100.477 -2.00516 -2.28094 0
M  V30 1015 H 98.0617 -1.03481 -1.0776 0
M  V30 1016 H 99.9437 -0.463211 -4.18846 0
M  V30 1017 H 98.6187 0.248536 -3.22744 0
M  V30 1018 H 97.5257 -2.06623 -3.11862 0
M  V30 1019 H 98.8587 -2.70208 -4.11398 0
M  V30 1020 N 100.511 1.16574 -1.06058 0
M  V30 1021 C 101.751 1.88723 -0.78504 0
M  V30 1022 C 102.115 1.79706 0.676006 0
M  V30 1023 O 103.316 2.46757 1.06603 0
M  V30 1024 C 101.587 3.34338 -1.26304 0
M  V30 1025 S 103.146 4.24366 -1.1162 0
M  V30 1026 H 99.9638 0.651448 -0.284846 0
M  V30 1027 H 102.566 1.40732 -1.35701 0
M  V30 1028 H 101.27 3.38439 -2.32136 0
M  V30 1029 H 100.801 3.87378 -0.685719 0
M  V30 1030 H 102.816 4.96179 -0.0456539 0
M  V30 1031 N 101.989 0.842826 1.3317 0
M  V30 1032 C 103.219 0.453397 2.01564 0
M  V30 1033 C 103.627 -0.951147 1.63554 0
M  V30 1034 O 102.97 -1.63021 0.846746 0
M  V30 1035 C 103.032 0.499013 3.5602 0
M  V30 1036 C 102.696 1.86037 4.1742 0
M  V30 1037 C 103.693 2.82416 4.36506 0
M  V30 1038 C 101.378 2.15428 4.53757 0
M  V30 1039 C 103.372 4.06346 4.91082 0
M  V30 1040 C 101.059 3.39615 5.0804 0
M  V30 1041 C 102.057 4.3489 5.26649 0
M  V30 1042 O 101.745 5.5688 5.79776 0
M  V30 1043 H 101.477 0.177871 0.652179 0
M  V30 1044 H 104.031 1.13808 1.70988 0
M  V30 1045 H 102.261 -0.242467 3.85939 0
M  V30 1046 H 103.95 0.126852 4.05702 0
M  V30 1047 H 104.716 2.6101 4.08777 0
M  V30 1048 H 100.595 1.42061 4.38565 0
M  V30 1049 H 104.139 4.80722 5.05522 0
M  V30 1050 H 100.036 3.60876 5.352 0
M  V30 1051 H 100.804 5.58674 5.98185 0
M  V30 1052 N 103.467 -1.45747 0.599634 0
M  V30 1053 C 104.744 -1.95585 0.0240846 0
M  V30 1054 C 105.124 -1.54217 -1.44154 0
M  V30 1055 O 104.472 -0.800903 -2.14004 0
M  V30 1056 C 104.682 -3.48344 0.21385 0
M  V30 1057 C 106.03 -4.24504 0.0904902 0
M  V30 1058 O 107.054 -3.55911 0.143558 0
M  V30 1059 O 105.913 -5.46491 -0.0310766 0
M  V30 1060 H 103.007 -0.82602 -0.0402478 0
M  V30 1061 H 105.553 -1.55951 0.669139 0
M  V30 1062 H 104.325 -3.71397 1.23206 0
M  V30 1063 H 103.948 -3.9485 -0.466842 0
M  V30 1064 N 104.945 -0.338344 -1.53925 0
M  V30 1065 C 105.893 0.536231 -2.26335 0
M  V30 1066 C 106.887 1.1063 -1.28286 0
M  V30 1067 O 108.093 1.05264 -1.46012 0
M  V30 1068 H 104.468 0.191602 -0.727181 0
M  V30 1069 H 106.439 -0.0965747 -2.98244 0
M  V30 1070 C 105.188 1.67803 -3.04528 0
M  V30 1071 H 104.511 1.24864 -3.79801 0
M  V30 1072 H 105.951 2.26526 -3.58416 0
M  V30 1073 C 104.41 2.60439 -2.13712 0
M  V30 1074 O 104.94 3.6255 -1.72975 0
M  V30 1075 N 103.146 2.29006 -1.78898 0
M  V30 1076 H 102.693 1.46011 -2.12223 0
M  V30 1077 H 102.651 2.91248 -1.18416 0
M  V30 1078 N 106.423 1.57458 -0.0668435 0
M  V30 1079 C 107.67 1.93301 0.603406 0
M  V30 1080 C 107.998 0.946486 1.69917 0
M  V30 1081 O 107.253 -0.0387021 1.95662 0
M  V30 1082 C 107.552 3.35784 1.22409 0
M  V30 1083 C 107.218 4.50179 0.254955 0
M  V30 1084 C 105.88 4.81199 -0.0116746 0
M  V30 1085 C 108.232 5.19598 -0.408338 0
M  V30 1086 C 105.56 5.78978 -0.94877 0
M  V30 1087 C 107.912 6.18381 -1.33372 0
M  V30 1088 C 106.576 6.47821 -1.60887 0
M  V30 1089 H 105.846 0.707338 0.220802 0
M  V30 1090 H 108.493 1.91012 -0.136665 0
M  V30 1091 H 106.798 3.34515 2.03978 0
M  V30 1092 H 108.495 3.60804 1.74989 0
M  V30 1093 H 105.085 4.25983 0.472954 0
M  V30 1094 H 109.269 4.95832 -0.215456 0
M  V30 1095 H 104.525 6.00115 -1.16925 0
M  V30 1096 H 108.699 6.71277 -1.85367 0
M  V30 1097 H 106.326 7.23399 -2.33661 0
M  V30 1098 N 107.901 -0.206675 1.56239 0
M  V30 1099 C 108.831 -1.25909 1.96645 0
M  V30 1100 C 109.812 -1.48097 0.836734 0
M  V30 1101 O 110.997 -1.6003 1.10019 0
M  V30 1102 C 108.127 -2.6058 2.29599 0
M  V30 1103 C 107.081 -2.53024 3.452 0
M  V30 1104 C 106.407 -3.91861 3.63798 0
M  V30 1105 C 107.707 -2.06524 4.79734 0
M  V30 1106 H 109.401 -0.923369 2.84806 0
M  V30 1107 H 106.947 -0.442735 1.37025 0
M  V30 1108 H 108.9 -3.34375 2.56459 0
M  V30 1109 H 107.624 -2.95869 1.38307 0
M  V30 1110 H 106.283 -1.81684 3.18412 0
M  V30 1111 H 105.931 -4.24483 2.69857 0
M  V30 1112 H 105.631 -3.87683 4.4156 0
M  V30 1113 H 107.155 -4.67296 3.93022 0
M  V30 1114 H 108.569 -2.70072 5.05702 0
M  V30 1115 H 106.966 -2.13374 5.60885 0
M  V30 1116 H 108.036 -1.01802 4.74093 0
M  V30 1117 N 109.379 -1.50304 -0.473955 0
M  V30 1118 C 110.311 -1.65109 -1.58971 0
M  V30 1119 C 111.324 -0.532676 -1.53839 0
M  V30 1120 O 112.513 -0.805751 -1.59279 0
M  V30 1121 C 109.613 -1.61684 -2.97845 0
M  V30 1122 C 108.786 -2.8951 -3.27876 0
M  V30 1123 C 107.845 -2.78768 -4.4629 0
M  V30 1124 O 106.871 -3.52722 -4.46739 0
M  V30 1125 N 108.073 -1.9213 -5.47783 0
M  V30 1126 H 110.838 -2.61347 -1.46689 0
M  V30 1127 H 108.399 -1.47732 -0.662324 0
M  V30 1128 H 110.391 -1.52114 -3.75024 0
M  V30 1129 H 108.961 -0.731925 -3.03911 0
M  V30 1130 H 108.181 -3.13228 -2.39336 0
M  V30 1131 H 109.469 -3.74199 -3.4475 0
M  V30 1132 H 108.867 -1.31353 -5.50239 0
M  V30 1133 H 107.424 -1.88466 -6.23958 0
M  V30 1134 N 110.857 0.726932 -1.39834 0
M  V30 1135 C 112.082 1.52121 -1.40976 0
M  V30 1136 C 112.507 1.88098 -0.00826029 0
M  V30 1137 O 111.865 1.52479 0.980807 0
M  V30 1138 C 111.913 2.78021 -2.29644 0
M  V30 1139 O 111.017 3.74272 -1.73188 0
M  V30 1140 H 110.358 0.45908 -0.479731 0
M  V30 1141 H 112.888 0.896207 -1.83927 0
M  V30 1142 H 112.898 3.26671 -2.44438 0
M  V30 1143 H 111.573 2.51169 -3.31492 0
M  V30 1144 H 110.15 3.33073 -1.6768 0
M  V30 1145 N 112.336 1.25143 0.95797 0
M  V30 1146 C 113.584 1.09476 1.69881 0
M  V30 1147 C 113.905 -0.365502 1.91544 0
M  V30 1148 O 113.175 -1.25985 1.50015 0
M  V30 1149 H 111.755 0.402128 0.629525 0
M  V30 1150 H 114.417 1.57214 1.15194 0
M  V30 1151 H 113.513 1.60046 2.6794 0
M  V30 1152 N 113.814 -1.1601 1.06675 0
M  V30 1153 C 114.724 -2.24156 0.692179 0
M  V30 1154 C 115.74 -1.71507 -0.293513 0
M  V30 1155 O 116.916 -2.009 -0.141861 0
M  V30 1156 C 113.981 -3.46587 0.0884131 0
M  V30 1157 C 113.042 -4.14257 1.12646 0
M  V30 1158 C 112.275 -5.30844 0.551416 0
M  V30 1159 O 112.498 -5.66858 -0.634656 0
M  V30 1160 O 111.432 -5.87848 1.29298 0
M  V30 1161 H 115.258 -2.58513 1.59388 0
M  V30 1162 H 112.843 -1.23599 0.83926 0
M  V30 1163 H 114.725 -4.20679 -0.246361 0
M  V30 1164 H 113.4 -3.13994 -0.786712 0
M  V30 1165 H 112.307 -3.42118 1.51348 0
M  V30 1166 H 113.64 -4.50914 1.97325 0
M  V30 1167 N 115.292 -0.849877 -1.32721 0
M  V30 1168 C 116.52 -0.464754 -2.01613 0
M  V30 1169 C 116.935 0.937191 -1.63897 0
M  V30 1170 O 116.292 1.61081 -0.857856 0
M  V30 1171 C 116.343 -0.588638 -3.56675 0
M  V30 1172 O 116.064 -1.93535 -3.93034 0
M  V30 1173 C 117.565 -0.2019 -4.4284 0
M  V30 1174 H 114.785 -0.183215 -0.645502 0
M  V30 1175 H 117.329 -1.1455 -1.69407 0
M  V30 1176 H 115.484 0.0443159 -3.87375 0
M  V30 1177 H 115.898 -1.92871 -4.87751 0
M  V30 1178 H 117.372 -0.339599 -5.50954 0
M  V30 1179 H 117.849 0.857224 -4.30753 0
M  V30 1180 H 118.455 -0.809733 -4.17521 0
M  V30 1181 N 116.77 1.45427 -0.607355 0
M  V30 1182 C 117.733 2.28974 0.101693 0
M  V30 1183 C 118.733 1.39754 0.795329 0
M  V30 1184 O 119.923 1.61878 0.643527 0
M  V30 1185 C 117.055 3.20768 1.15414 0
M  V30 1186 H 118.248 2.93147 -0.632844 0
M  V30 1187 H 115.801 1.51945 -0.366391 0
M  V30 1188 H 116.536 2.61395 1.91945 0
M  V30 1189 H 116.321 3.86489 0.66098 0
M  V30 1190 H 117.811 3.83589 1.65073 0
M  V30 1191 N 118.248 0.346503 1.53744 0
M  V30 1192 C 119.195 -0.508914 2.25119 0
M  V30 1193 C 120.165 -1.09315 1.25058 0
M  V30 1194 O 121.35 -1.12921 1.53797 0
M  V30 1195 C 118.49 -1.65246 3.02965 0
M  V30 1196 C 117.603 -1.09525 4.17886 0
M  V30 1197 C 116.738 -2.20634 4.83212 0
M  V30 1198 C 115.777 -1.62279 5.90196 0
M  V30 1199 N 114.914 -2.67143 6.49291 0
M  V30 1200 H 119.754 0.106283 2.9781 0
M  V30 1201 H 117.291 0.0642227 1.4696 0
M  V30 1202 H 119.249 -2.32574 3.4636 0
M  V30 1203 H 117.879 -2.2386 2.32565 0
M  V30 1204 H 116.931 -0.312818 3.79112 0
M  V30 1205 H 118.243 -0.628444 4.94825 0
M  V30 1206 H 117.397 -2.95821 5.29693 0
M  V30 1207 H 116.136 -2.70659 4.05703 0
M  V30 1208 H 115.141 -0.855989 5.43096 0
M  V30 1209 H 116.366 -1.13102 6.69615 0
M  V30 1210 H 114.312 -3.16417 5.74645 0
M  V30 1211 H 114.229 -2.25093 7.21713 0
M  V30 1212 H 115.497 -3.4209 7.00425 0
M  V30 1213 N 119.726 -1.57421 0.075193 0
M  V30 1214 C 120.954 -1.97946 -0.602076 0
M  V30 1215 C 121.369 -0.953674 -1.62943 0
M  V30 1216 O 120.726 0.0592551 -1.82404 0
M  V30 1217 C 120.777 -3.38546 -1.26762 0
M  V30 1218 O 120.498 -4.37195 -0.281376 0
M  V30 1219 C 121.999 -3.93966 -2.03239 0
M  V30 1220 H 119.219 -0.650918 -0.162931 0
M  V30 1221 H 121.763 -2.03959 0.148601 0
M  V30 1222 H 119.918 -3.33609 -1.96936 0
M  V30 1223 H 120.332 -5.18975 -0.759267 0
M  V30 1224 H 121.806 -4.94555 -2.45193 0
M  V30 1225 H 122.283 -3.30693 -2.8903 0
M  V30 1226 H 122.889 -4.02315 -1.37924 0
M  V30 1227 N 121.204 0.198386 -1.56346 0
M  V30 1228 C 122.481 0.944982 -1.71258 0
M  V30 1229 C 122.861 2.0151 -0.629048 0
M  V30 1230 O 122.209 2.25639 0.360473 0
M  V30 1231 C 122.419 1.5344 -3.1346 0
M  V30 1232 C 123.767 2.01778 -3.73591 0
M  V30 1233 O 124.791 1.63288 -3.16568 0
M  V30 1234 O 123.65 2.72594 -4.73661 0
M  V30 1235 H 120.744 0.442939 -0.69838 0
M  V30 1236 H 123.29 0.188342 -1.68652 0
M  V30 1237 H 122.062 0.762869 -3.83792 0
M  V30 1238 H 121.685 2.35596 -3.20282 0
M  V30 1239 N 122.682 1.50554 0.465978 0
M  V30 1240 C 123.645 1.69233 1.54574 0
M  V30 1241 C 124.645 0.562901 1.50626 0
M  V30 1242 O 125.835 0.830016 1.53155 0
M  V30 1243 C 122.967 1.7223 2.94193 0
M  V30 1244 H 124.16 2.65571 1.39327 0
M  V30 1245 H 121.713 1.40111 0.692711 0
M  V30 1246 H 122.448 0.77603 3.14878 0
M  V30 1247 H 122.233 2.54285 2.98466 0
M  V30 1248 H 123.723 1.88618 3.72576 0
M  V30 1249 N 124.16 -0.719506 1.40217 0
M  V30 1250 C 125.385 -1.51371 1.4178 0
M  V30 1251 C 125.81 -1.88091 0.0182355 0
M  V30 1252 O 125.168 -1.52997 -0.972707 0
M  V30 1253 C 125.216 -2.768 2.31115 0
M  V30 1254 O 124.32 -3.73349 1.7517 0
M  V30 1255 H 123.661 -0.456529 0.482159 0
M  V30 1256 H 126.191 -0.88644 1.844 0
M  V30 1257 H 126.201 -3.25371 2.46167 0
M  V30 1258 H 124.876 -2.49407 3.3282 0
M  V30 1259 H 123.453 -3.32179 1.69444 0
M  V30 1260 N 125.638 -1.25649 -0.95132 0
M  V30 1261 C 126.885 -1.10594 -1.69633 0
M  V30 1262 C 127.213 0.352515 -1.91279 0
M  V30 1263 O 126.468 1.27601 -1.4838 0
M  V30 1264 C 126.767 -1.80909 -3.08231 0
M  V30 1265 C 126.433 -3.30825 -3.06375 0
M  V30 1266 C 125.095 -3.71722 -3.05576 0
M  V30 1267 C 127.447 -4.26589 -2.99452 0
M  V30 1268 C 124.775 -5.06788 -2.95606 0
M  V30 1269 C 127.127 -5.61683 -2.91024 0
M  V30 1270 C 125.791 -6.01904 -2.88562 0
M  V30 1271 H 125.061 -0.404691 -0.620731 0
M  V30 1272 H 127.708 -1.55964 -1.11119 0
M  V30 1273 H 126.013 -1.27979 -3.70309 0
M  V30 1274 H 127.71 -1.6671 -3.64704 0
M  V30 1275 H 124.3 -2.98287 -3.07771 0
M  V30 1276 H 128.484 -3.95982 -2.99185 0
M  V30 1277 H 123.74 -5.37126 -2.92071 0
M  V30 1278 H 127.914 -6.35578 -2.84629 0
M  V30 1279 H 125.541 -7.06521 -2.80593 0
M  V30 1280 N 127.117 1.15442 -1.07289 0
M  V30 1281 C 128.067 2.18164 -0.662467 0
M  V30 1282 C 129.051 1.57845 0.312074 0
M  V30 1283 O 130.243 1.76552 0.125905 0
M  V30 1284 C 127.372 3.43246 -0.0611295 0
M  V30 1285 C 126.458 4.1062 -1.06077 0
M  V30 1286 N 126.849 4.53491 -2.24008 0
M  V30 1287 C 125.147 4.36949 -0.893964 0
M  V30 1288 C 125.848 5.05731 -2.87422 0
M  V30 1289 N 124.824 4.99236 -2.15091 0
M  V30 1290 H 128.626 2.49038 -1.56068 0
M  V30 1291 H 126.14 1.32003 -0.945988 0
M  V30 1292 H 128.137 4.16145 0.250792 0
M  V30 1293 H 126.797 3.13854 0.832207 0
M  V30 1294 H 127.808 4.46898 -2.6173 0
M  V30 1295 H 124.485 4.17466 -0.0534693 0
M  V30 1296 H 125.875 5.48865 -3.87553 0
M  V30 1297 N 128.595 0.856903 1.32268 0
M  V30 1298 C 129.558 0.308171 2.27119 0
M  V30 1299 C 130.558 -0.533421 1.51695 0
M  V30 1300 O 131.748 -0.344607 1.70757 0
M  V30 1301 C 128.88 -0.563757 3.36206 0
M  V30 1302 H 130.073 1.14535 2.77167 0
M  V30 1303 H 127.626 0.631421 1.42978 0
M  V30 1304 H 128.361 -1.42266 2.91429 0
M  V30 1305 H 128.146 0.0386749 3.92081 0
M  V30 1306 H 129.636 -0.940386 4.06874 0
M  V30 1307 N 130.073 -1.45103 0.615059 0
M  V30 1308 C 131.303 -2.06254 0.119596 0
M  V30 1309 C 131.711 -1.4591 -1.20445 0
M  V30 1310 O 131.054 -0.570384 -1.7462 0
M  V30 1311 C 131.116 -3.59396 -0.0865591 0
M  V30 1312 C 130.78 -4.42116 1.15683 0
M  V30 1313 C 131.777 -4.7662 2.07676 0
M  V30 1314 C 129.462 -4.82749 1.38775 0
M  V30 1315 C 131.456 -5.50622 3.21082 0
M  V30 1316 C 129.143 -5.56504 2.52481 0
M  V30 1317 C 130.141 -5.90358 3.43463 0
M  V30 1318 O 129.829 -6.62615 4.55189 0
M  V30 1319 H 129.561 -0.672423 0.0694512 0
M  V30 1320 H 132.115 -1.87219 0.844885 0
M  V30 1321 H 130.345 -3.76859 -0.866823 0
M  V30 1322 H 132.034 -4.02365 -0.534555 0
M  V30 1323 H 132.8 -4.4578 1.91063 0
M  V30 1324 H 128.679 -4.55829 0.688545 0
M  V30 1325 H 132.223 -5.76965 3.92119 0
M  V30 1326 H 128.12 -5.86759 2.69043 0
M  V30 1327 H 128.888 -6.81071 4.53966 0
M  V30 1328 N 131.551 -0.354651 -1.53558 0
M  V30 1329 C 132.828 0.294281 -1.93374 0
M  V30 1330 C 133.208 1.67313 -1.28723 0
M  V30 1331 O 132.556 2.24179 -0.442247 0
M  V30 1332 C 132.766 0.355445 -3.47185 0
M  V30 1333 C 134.114 0.601007 -4.20325 0
M  V30 1334 O 135.138 0.437106 -3.53508 0
M  V30 1335 O 133.997 0.919322 -5.38712 0
M  V30 1336 H 131.091 0.174033 -0.808481 0
M  V30 1337 H 133.637 -0.406638 -1.64756 0
M  V30 1338 H 132.409 -0.611729 -3.86489 0
M  V30 1339 H 132.032 1.1027 -3.82003 0
M  V30 1340 N 133.029 1.57378 -0.0835403 0
M  V30 1341 C 134.254 1.98682 0.594987 0
M  V30 1342 C 134.679 0.961969 1.61641 0
M  V30 1343 O 134.037 -0.0709989 1.81161 0
M  V30 1344 C 134.085 3.38988 1.2296 0
M  V30 1345 O 133.189 3.39208 2.34546 0
M  V30 1346 H 132.53 0.646368 0.152002 0
M  V30 1347 H 135.06 2.03961 -0.161533 0
M  V30 1348 H 135.07 3.76431 1.57366 0
M  V30 1349 H 133.745 4.13107 0.481228 0
M  V30 1350 H 132.322 3.13548 2.01846 0
M  V30 1351 N 134.507 -0.190092 1.56449 0
M  V30 1352 C 135.457 -1.23977 1.91347 0
M  V30 1353 C 136.441 -1.40747 0.779693 0
M  V30 1354 O 137.633 -1.43033 1.04262 0
M  V30 1355 C 134.762 -2.58347 2.26079 0
M  V30 1356 C 133.848 -2.4535 3.45925 0
M  V30 1357 N 134.239 -2.02039 4.63696 0
M  V30 1358 C 132.537 -2.76229 3.50162 0
M  V30 1359 C 133.238 -2.01053 5.4585 0
M  V30 1360 N 132.214 -2.42747 4.8639 0
M  V30 1361 H 136.016 -0.896318 2.79899 0
M  V30 1362 H 133.53 -0.398496 1.57435 0
M  V30 1363 H 135.527 -3.34173 2.49267 0
M  V30 1364 H 134.187 -2.93512 1.38856 0
M  V30 1365 H 135.198 -1.7267 4.88268 0
M  V30 1366 H 131.875 -3.15556 2.73369 0
M  V30 1367 H 133.265 -1.69426 6.50188 0
M  V30 1368 N 135.985 -1.50799 -0.457987 0
M  V30 1369 C 137.213 -1.66218 -1.23203 0
M  V30 1370 C 137.628 -0.350894 -1.85511 0
M  V30 1371 O 136.985 0.668546 -1.69814 0
M  V30 1372 C 137.036 -2.76291 -2.33121 0
M  V30 1373 O 136.757 -4.02338 -1.73366 0
M  V30 1374 C 138.258 -3.028 -3.2377 0
M  V30 1375 H 135.478 -0.558361 -0.372121 0
M  V30 1376 H 138.022 -1.97099 -0.545179 0
M  V30 1377 H 136.177 -2.48068 -2.97558 0
M  V30 1378 H 136.591 -4.63312 -2.4585 0
M  V30 1379 H 138.065 -3.8345 -3.97077 0
M  V30 1380 H 138.542 -2.14385 -3.83322 0
M  V30 1381 H 139.148 -3.32604 -2.65056 0
M  V30 1382 N 137.463 0.71206 -1.40597 0
M  V30 1383 C 138.411 1.84746 -1.41321 0
M  V30 1384 C 139.405 1.66842 -0.293268 0
M  V30 1385 O 140.611 1.73904 -0.464481 0
M  V30 1386 H 136.986 0.608522 -0.441819 0
M  V30 1387 H 138.957 1.81252 -2.37045 0
M  V30 1388 C 137.706 3.22638 -1.29614 0
M  V30 1389 H 137.029 3.37023 -2.15071 0
M  V30 1390 H 138.469 4.02209 -1.3418 0
M  V30 1391 C 136.928 3.36899 -0.00673121 0
M  V30 1392 O 137.458 3.90186 0.954859 0
M  V30 1393 N 135.664 2.9053 0.0639327 0
M  V30 1394 H 135.211 2.47353 -0.719311 0
M  V30 1395 H 135.169 3.0045 0.926118 0
M  V30 1396 N 138.941 1.26152 0.944643 0
M  V30 1397 C 140.169 1.14259 1.72489 0
M  V30 1398 C 140.584 -0.302555 1.8636 0
M  V30 1399 O 139.941 -1.20741 1.36849 0
M  V30 1400 C 139.992 1.80266 3.13347 0
M  V30 1401 O 139.713 3.19133 3.00143 0
M  V30 1402 C 141.214 1.74283 4.07603 0
M  V30 1403 H 138.434 0.398051 0.540181 0
M  V30 1404 H 140.978 1.66706 1.18446 0
M  V30 1405 H 139.133 1.31766 3.64303 0
M  V30 1406 H 139.547 3.51744 3.89071 0
M  V30 1407 H 141.021 2.25111 5.04013 0
M  V30 1408 H 141.498 0.708631 4.33446 0
M  V30 1409 H 142.104 2.22319 3.62567 0
M  V30 1410 N 140.419 -1.14872 1.07899 0
M  V30 1411 C 141.649 -1.89386 0.825631 0
M  V30 1412 C 142.057 -1.78565 -0.625406 0
M  V30 1413 O 141.4 -1.13918 -1.44113 0
M  V30 1414 C 141.462 -3.40206 1.16191 0
M  V30 1415 C 141.126 -3.74812 2.61467 0
M  V30 1416 C 142.123 -3.75367 3.59716 0
M  V30 1417 C 139.808 -4.0495 2.97189 0
M  V30 1418 C 141.802 -4.05574 4.9172 0
M  V30 1419 C 139.489 -4.34821 4.29388 0
M  V30 1420 C 140.487 -4.35116 5.26463 0
M  V30 1421 O 140.175 -4.64267 6.56286 0
M  V30 1422 H 139.907 -0.606894 0.297751 0
M  V30 1423 H 142.461 -1.46438 1.44031 0
M  V30 1424 H 140.691 -3.8358 0.490214 0
M  V30 1425 H 142.38 -3.96018 0.890193 0
M  V30 1426 H 143.146 -3.52176 3.33462 0
M  V30 1427 H 139.025 -4.03876 2.22273 0
M  V30 1428 H 142.569 -4.05719 5.67484 0
M  V30 1429 H 138.466 -4.5748 4.55392 0
M  V30 1430 H 139.234 -4.82007 6.61522 0
M  V30 1431 N 141.898 -0.863906 -1.31812 0
M  V30 1432 C 143.128 -0.485406 -2.00817 0
M  V30 1433 C 143.536 0.925007 -1.65046 0
M  V30 1434 O 142.879 1.61653 -0.872574 0
M  V30 1435 C 142.941 -0.555589 -3.55181 0
M  V30 1436 C 142.605 -1.92654 -4.14407 0
M  V30 1437 C 143.602 -2.89324 -4.31958 0
M  V30 1438 C 141.287 -2.2262 -4.50273 0
M  V30 1439 C 143.281 -4.14108 -4.84555 0
M  V30 1440 C 140.968 -3.47654 -5.02573 0
M  V30 1441 C 141.966 -4.43214 -5.19664 0
M  V30 1442 O 141.654 -5.66033 -5.70843 0
M  V30 1443 H 141.386 -0.188224 -0.649267 0
M  V30 1444 H 143.94 -1.16514 -1.69156 0
M  V30 1445 H 142.17 0.181037 -3.86276 0
M  V30 1446 H 143.859 -0.19138 -4.05449 0
M  V30 1447 H 144.625 -2.6748 -4.04573 0
M  V30 1448 H 140.504 -1.4902 -4.3625 0
M  V30 1449 H 144.048 -4.88703 -4.9781 0
M  V30 1450 H 139.945 -3.69345 -5.29391 0
M  V30 1451 H 140.713 -5.6812 -5.89222 0
M  V30 1452 N 143.376 1.44774 -0.622745 0
M  V30 1453 C 144.306 2.33382 0.0741861 0
M  V30 1454 C 145.287 1.47719 0.843387 0
M  V30 1455 O 146.472 1.76458 0.810934 0
M  V30 1456 C 143.602 3.30663 1.06204 0
M  V30 1457 C 142.556 4.26079 0.405037 0
M  V30 1458 C 141.882 5.13165 1.5022 0
M  V30 1459 C 143.182 5.1781 -0.683414 0
M  V30 1460 H 144.876 2.91905 -0.665713 0
M  V30 1461 H 142.422 1.40363 -0.321587 0
M  V30 1462 H 144.375 3.9153 1.55827 0
M  V30 1463 H 143.099 2.70331 1.83272 0
M  V30 1464 H 141.758 3.66532 -0.0704683 0
M  V30 1465 H 141.406 4.49191 2.26355 0
M  V30 1466 H 141.106 5.77812 1.06803 0
M  V30 1467 H 142.63 5.76902 2.00041 0
M  V30 1468 H 144.044 5.72661 -0.270631 0
M  V30 1469 H 142.441 5.91015 -1.04023 0
M  V30 1470 H 143.511 4.59326 -1.55395 0
M  V30 1471 N 144.854 0.36279 1.53368 0
M  V30 1472 C 145.786 -0.519668 2.23231 0
M  V30 1473 C 146.799 -1.04844 1.24546 0
M  V30 1474 O 147.988 -0.955296 1.50786 0
M  V30 1475 C 145.088 -1.72995 2.9142 0
M  V30 1476 C 144.261 -1.33316 4.16588 0
M  V30 1477 C 143.32 -2.40521 4.68013 0
M  V30 1478 O 142.346 -2.03027 5.3176 0
M  V30 1479 N 143.548 -3.72065 4.45587 0
M  V30 1480 H 146.313 0.078751 2.99597 0
M  V30 1481 H 143.874 0.187833 1.60807 0
M  V30 1482 H 145.866 -2.44184 3.22733 0
M  V30 1483 H 144.436 -2.2353 2.18525 0
M  V30 1484 H 143.656 -0.451236 3.91609 0
M  V30 1485 H 144.944 -1.04432 4.97967 0
M  V30 1486 H 144.342 -4.05304 3.94646 0
M  V30 1487 H 142.899 -4.39366 4.81457 0
M  V30 1488 N 146.332 -1.57332 0.0918853 0
M  V30 1489 C 147.56 -1.98574 -0.581048 0
M  V30 1490 C 147.975 -0.970903 -1.61923 0
M  V30 1491 O 147.332 0.0399054 -1.82456 0
M  V30 1492 C 147.383 -3.39872 -1.23164 0
M  V30 1493 O 147.104 -4.37469 -0.234989 0
M  V30 1494 C 148.605 -3.96099 -1.99049 0
M  V30 1495 H 145.825 -0.65261 -0.156018 0
M  V30 1496 H 148.369 -2.0379 0.170225 0
M  V30 1497 H 146.524 -3.35679 -1.93386 0
M  V30 1498 H 146.938 -5.19751 -0.70418 0
M  V30 1499 H 148.412 -4.97127 -2.39934 0
M  V30 1500 H 148.889 -3.3374 -2.85507 0
M  V30 1501 H 149.495 -4.03755 -1.3365 0
M  V30 1502 N 147.81 0.181792 -1.56548 0
M  V30 1503 C 149.057 0.900097 -1.81396 0
M  V30 1504 C 149.385 1.82695 -0.667281 0
M  V30 1505 O 148.64 1.92614 0.346146 0
M  V30 1506 C 148.939 1.73728 -3.12335 0
M  V30 1507 C 148.605 0.960255 -4.40556 0
M  V30 1508 C 147.267 0.745766 -4.75386 0
M  V30 1509 C 149.619 0.414477 -5.19549 0
M  V30 1510 C 146.947 -0.0257694 -5.86694 0
M  V30 1511 C 149.299 -0.343916 -6.31664 0
M  V30 1512 C 147.963 -0.569301 -6.65068 0
M  V30 1513 H 147.233 0.329369 -0.663775 0
M  V30 1514 H 149.88 0.165647 -1.90782 0
M  V30 1515 H 148.185 2.54081 -2.98245 0
M  V30 1516 H 149.882 2.29591 -3.28769 0
M  V30 1517 H 146.472 1.13746 -4.13231 0
M  V30 1518 H 150.656 0.567554 -4.93044 0
M  V30 1519 H 145.912 -0.210233 -6.11038 0
M  V30 1520 H 150.086 -0.774133 -6.92084 0
M  V30 1521 H 147.713 -1.16903 -7.51158 0
M  V30 1522 N 149.288 1.51039 0.449983 0
M  V30 1523 C 150.536 1.62759 1.19808 0
M  V30 1524 C 150.857 0.339981 1.92013 0
M  V30 1525 O 150.127 -0.643606 1.85026 0
M  V30 1526 H 148.707 0.599811 0.445237 0
M  V30 1527 H 151.369 1.87914 0.517138 0
M  V30 1528 H 150.465 2.44911 1.93455 0
M  V30 1529 N 150.766 -0.704594 1.40972 0
M  V30 1530 C 151.716 -1.81051 1.38581 0
M  V30 1531 C 152.7 -1.58759 0.261585 0
M  V30 1532 O 153.892 -1.69745 0.501556 0
M  V30 1533 C 151.021 -3.19279 1.26157 0
M  V30 1534 C 150.107 -3.47296 2.43405 0
M  V30 1535 N 150.498 -3.46064 3.68881 0
M  V30 1536 C 148.796 -3.77804 2.37023 0
M  V30 1537 C 149.497 -3.72733 4.46592 0
M  V30 1538 N 148.473 -3.9203 3.76581 0
M  V30 1539 H 152.275 -1.78448 2.33525 0
M  V30 1540 H 149.789 -0.904198 1.349 0
M  V30 1541 H 151.786 -3.98488 1.22526 0
M  V30 1542 H 150.446 -3.231 0.321902 0
M  V30 1543 H 151.457 -3.26656 4.01891 0
M  V30 1544 H 148.134 -3.8905 1.51481 0
M  V30 1545 H 149.524 -3.77993 5.55492 0
M  V30 1546 N 152.244 -1.26651 -0.937939 0
M  V30 1547 C 153.192 -1.08308 -2.05845 0
M  V30 1548 C 154.186 -0.0090757 -1.69398 0
M  V30 1549 O 155.392 -0.166007 -1.79233 0
M  V30 1550 H 151.767 -0.333416 -0.674046 0
M  V30 1551 H 153.738 -2.03261 -2.18467 0
M  V30 1552 C 152.487 -0.736229 -3.39816 0
M  V30 1553 H 151.81 -1.55453 -3.6834 0
M  V30 1554 H 153.25 -0.64769 -4.19024 0
M  V30 1555 C 151.709 0.558824 -3.32233 0
M  V30 1556 O 152.239 1.59621 -3.68624 0
M  V30 1557 N 150.445 0.550657 -2.85335 0
M  V30 1558 H 149.992 -0.293943 -2.55917 0
M  V30 1559 H 149.95 1.41726 -2.80644 0
M  V30 1560 N 153.722 1.14298 -1.08507 0
M  V30 1561 C 154.95 1.89219 -0.836876 0
M  V30 1562 C 155.365 1.78638 0.611054 0
M  V30 1563 O 154.722 1.14643 1.41998 0
M  V30 1564 C 154.773 3.39158 -1.25116 0
M  V30 1565 O 154.494 3.49449 -2.64229 0
M  V30 1566 C 155.995 4.31073 -1.03398 0
M  V30 1567 H 153.215 0.599328 -0.301739 0
M  V30 1568 H 155.759 1.44746 -1.44461 0
M  V30 1569 H 153.914 3.81251 -0.687514 0
M  V30 1570 H 154.328 4.42589 -2.81452 0
M  V30 1571 H 155.802 5.34646 -1.37323 0
M  V30 1572 H 156.279 4.3919 0.0289259 0
M  V30 1573 H 156.885 3.94738 -1.58311 0
M  V30 1574 N 155.201 0.870884 1.31352 0
M  V30 1575 C 156.134 0.271983 2.26573 0
M  V30 1576 C 157.112 -0.599385 1.51149 0
M  V30 1577 O 158.296 -0.552605 1.80218 0
M  V30 1578 C 155.423 -0.614801 3.33073 0
M  V30 1579 C 154.469 0.185342 4.26097 0
M  V30 1580 S 155.302 1.56444 5.12138 0
M  V30 1581 C 156.458 0.683807 6.22153 0
M  V30 1582 H 156.691 1.07916 2.77023 0
M  V30 1583 H 154.224 0.669459 1.39132 0
M  V30 1584 H 156.182 -1.12074 3.94905 0
M  V30 1585 H 154.843 -1.39593 2.81376 0
M  V30 1586 H 154.036 -0.490771 5.01605 0
M  V30 1587 H 153.638 0.623415 3.68768 0
M  V30 1588 H 155.93 -0.10521 6.77418 0
M  V30 1589 H 156.873 1.41004 6.93919 0
M  V30 1590 H 157.281 0.250952 5.63942 0
M  V30 1591 N 156.679 -1.44442 0.630414 0
M  V30 1592 C 157.956 -1.9549 0.0655657 0
M  V30 1593 C 158.336 -1.5724 -1.40851 0
M  V30 1594 O 157.684 -0.846116 -2.12257 0
M  V30 1595 C 157.894 -3.47812 0.287691 0
M  V30 1596 C 159.242 -4.24216 0.180513 0
M  V30 1597 O 160.266 -3.55526 0.219019 0
M  V30 1598 O 159.125 -5.46434 0.0848493 0
M  V30 1599 H 156.219 -0.826688 -0.0227177 0
M  V30 1600 H 158.765 -1.54496 0.702068 0
M  V30 1601 H 157.537 -3.687 1.31056 0
M  V30 1602 H 157.16 -3.95751 -0.382984 0
M  V30 1603 N 158.157 -0.370918 -1.53173 0
M  V30 1604 C 159.12 0.460778 -2.24521 0
M  V30 1605 C 160.12 1.00536 -1.25496 0
M  V30 1606 O 161.31 0.890266 -1.49733 0
M  V30 1607 C 158.442 1.64457 -2.98608 0
M  V30 1608 H 159.635 -0.163613 -2.99453 0
M  V30 1609 H 157.188 -0.122699 -1.55818 0
M  V30 1610 H 157.923 2.30691 -2.2793 0
M  V30 1611 H 157.708 1.26099 -3.7127 0
M  V30 1612 H 159.198 2.23384 -3.5283 0
M  V30 1613 N 159.635 1.57281 -0.100228 0
M  V30 1614 C 160.881 1.94826 0.563101 0
M  V30 1615 C 161.214 0.982475 1.67514 0
M  V30 1616 O 160.489 0.0164069 1.94493 0
M  V30 1617 C 160.772 3.42453 1.11346 0
M  V30 1618 C 160.625 4.498 0.00612081 0
M  V30 1619 C 161.944 3.91506 2.01024 0
M  V30 1620 H 159.063 0.708428 0.203221 0
M  V30 1621 H 161.705 1.8922 -0.171979 0
M  V30 1622 H 159.855 3.47361 1.7399 0
M  V30 1623 H 161.527 4.57 -0.628357 0
M  V30 1624 H 159.77 4.28756 -0.659581 0
M  V30 1625 H 160.441 5.50306 0.432109 0
M  V30 1626 H 162.917 3.88784 1.48278 0
M  V30 1627 H 161.793 4.95358 2.36457 0
M  V30 1628 H 162.054 3.31099 2.92961 0
M  V30 1629 N 161.113 -0.173488 1.56642 0
M  V30 1630 C 162.524 -0.736155 1.71574 0
M  V30 1631 C 162.875 -1.82888 0.710389 0
M  V30 1632 O 162 -2.16017 -0.1287 0
M  V30 1633 C 162.595 -1.34211 3.11083 0
M  V30 1634 C 161.154 -1.85162 3.27707 0
M  V30 1635 C 160.301 -0.729765 2.67525 0
M  V30 1636 H 163.252 0.0518786 1.58615 0
M  V30 1637 H 163.273 -2.21178 3.09613 0
M  V30 1638 H 162.785 -0.546579 3.84232 0
M  V30 1639 H 160.886 -2.67366 2.59512 0
M  V30 1640 H 160.999 -1.99855 4.35425 0
M  V30 1641 H 159.363 -1.14965 2.27278 0
M  V30 1642 H 160.146 0.0538806 3.43258 0
M  V30 1643 N 162.591 -1.51276 -0.441967 0
M  V30 1644 C 163.538 -1.72256 -1.53612 0
M  V30 1645 C 164.508 -0.564164 -1.56225 0
M  V30 1646 O 165.693 -0.798074 -1.73307 0
M  V30 1647 C 162.833 -1.84932 -2.91366 0
M  V30 1648 C 161.946 -3.12459 -2.98317 0
M  V30 1649 C 161.081 -3.15758 -4.27166 0
M  V30 1650 C 160.12 -4.37619 -4.27967 0
M  V30 1651 N 159.257 -4.38493 -5.48333 0
M  V30 1652 H 164.097 -2.65654 -1.35026 0
M  V30 1653 H 161.634 -1.31662 -0.656009 0
M  V30 1654 H 163.592 -1.90263 -3.7129 0
M  V30 1655 H 162.222 -0.949461 -3.08521 0
M  V30 1656 H 161.274 -3.1646 -2.11086 0
M  V30 1657 H 162.586 -4.02382 -2.94771 0
M  V30 1658 H 161.74 -3.19979 -5.15459 0
M  V30 1659 H 160.479 -2.23715 -4.33362 0
M  V30 1660 H 159.484 -4.33579 -3.38067 0
M  V30 1661 H 160.709 -5.30921 -4.23438 0
M  V30 1662 H 158.655 -3.49318 -5.55259 0
M  V30 1663 H 158.572 -5.22219 -5.46647 0
M  V30 1664 H 159.84 -4.469 -6.38671 0
M  V30 1665 N 164.069 0.697108 -1.41344 0
M  V30 1666 C 165.318 1.45279 -1.39918 0
M  V30 1667 C 165.631 1.95597 -0.0109624 0
M  V30 1668 O 166.837 2.71208 0.125919 0
M  V30 1669 C 165.293 2.62695 -2.46007 0
M  V30 1670 C 164.901 2.19169 -3.90729 0
M  V30 1671 C 166.645 3.40336 -2.53715 0
M  V30 1672 C 164.552 3.33535 -4.88373 0
M  V30 1673 H 163.482 0.545692 -0.520323 0
M  V30 1674 H 166.133 0.756929 -1.67161 0
M  V30 1675 H 164.515 3.34541 -2.11892 0
M  V30 1676 H 165.689 1.54623 -4.34083 0
M  V30 1677 H 164.004 1.54525 -3.86666 0
M  V30 1678 H 166.601 4.2547 -3.2385 0
M  V30 1679 H 166.944 3.85418 -1.5735 0
M  V30 1680 H 167.477 2.75546 -2.86913 0
M  V30 1681 H 164.216 2.93468 -5.86137 0
M  V30 1682 H 163.736 3.96936 -4.49668 0
M  V30 1683 H 165.415 3.99335 -5.09059 0
M  V30 1684 N 165.547 1.27147 0.931209 0
M  V30 1685 C 166.457 1.11372 2.06478 0
M  V30 1686 C 167.473 0.044645 1.73943 0
M  V30 1687 O 168.649 0.250417 1.99837 0
M  V30 1688 C 165.714 0.758838 3.38294 0
M  V30 1689 C 164.775 1.90841 3.84549 0
M  V30 1690 C 164.008 1.57036 5.10074 0
M  V30 1691 O 164.231 0.476645 5.68405 0
M  V30 1692 O 163.165 2.40839 5.51616 0
M  V30 1693 H 166.991 2.06493 2.22698 0
M  V30 1694 H 164.576 1.06301 1.04978 0
M  V30 1695 H 166.458 0.574098 4.17471 0
M  V30 1696 H 165.133 -0.162879 3.2329 0
M  V30 1697 H 164.04 2.14819 3.06274 0
M  V30 1698 H 165.373 2.81021 4.04089 0
M  V30 1699 N 167.025 -1.13721 1.09112 0
M  V30 1700 C 168.255 -1.88499 0.845671 0
M  V30 1701 C 168.663 -1.79218 -0.606432 0
M  V30 1702 O 168.006 -1.1544 -1.42896 0
M  V30 1703 C 168.068 -3.38954 1.19793 0
M  V30 1704 C 167.732 -3.72018 2.65428 0
M  V30 1705 C 168.729 -3.7153 3.63677 0
M  V30 1706 C 166.414 -4.01775 3.01467 0
M  V30 1707 C 168.408 -4.00336 4.95994 0
M  V30 1708 C 166.095 -4.30243 4.33975 0
M  V30 1709 C 167.093 -4.29508 5.31048 0
M  V30 1710 O 166.781 -4.5728 6.61173 0
M  V30 1711 H 166.513 -0.603702 0.304171 0
M  V30 1712 H 169.067 -1.44903 1.45576 0
M  V30 1713 H 167.297 -3.83039 0.530871 0
M  V30 1714 H 168.986 -3.95052 0.932146 0
M  V30 1715 H 169.752 -3.4862 3.37179 0
M  V30 1716 H 165.631 -4.01496 2.26544 0
M  V30 1717 H 169.175 -3.99678 5.71755 0
M  V30 1718 H 165.072 -4.52625 4.60219 0
M  V30 1719 H 165.84 -4.74964 6.66597 0
M  V30 1720 N 168.503 -0.877838 -1.30888 0
M  V30 1721 C 169.733 -0.506678 -2.00291 0
M  V30 1722 C 170.141 0.907449 -1.66018 0
M  V30 1723 O 169.484 1.60719 -0.88967 0
M  V30 1724 C 169.546 -0.59323 -3.54572 0
M  V30 1725 C 169.21 -1.97038 -4.12341 0
M  V30 1726 C 170.207 -2.93889 -4.28865 0
M  V30 1727 C 167.892 -2.27383 -4.47886 0
M  V30 1728 C 169.886 -4.19224 -4.80136 0
M  V30 1729 C 167.573 -3.52965 -4.98857 0
M  V30 1730 C 168.571 -4.48701 -5.14934 0
M  V30 1731 O 168.259 -5.72056 -5.64808 0
M  V30 1732 H 167.991 -0.1951 -0.647234 0
M  V30 1733 H 170.545 -1.18301 -1.6791 0
M  V30 1734 H 168.775 0.140057 -3.86446 0
M  V30 1735 H 170.464 -0.234372 -4.05223 0
M  V30 1736 H 171.23 -2.71756 -4.01714 0
M  V30 1737 H 167.109 -1.53639 -4.34645 0
M  V30 1738 H 170.653 -4.93956 -4.92599 0
M  V30 1739 H 166.55 -3.74939 -5.25443 0
M  V30 1740 H 167.318 -5.74337 -5.83163 0
M  V30 1741 N 169.982 1.44106 -0.638065 0
M  V30 1742 C 171.398 1.56672 -0.304286 0
M  V30 1743 C 171.598 1.6244 1.19228 0
M  V30 1744 O 170.654 1.57121 1.9766 0
M  V30 1745 C 171.967 2.83503 -1.00231 0
M  V30 1746 C 173.515 2.97226 -0.981116 0
M  V30 1747 C 173.99 4.26868 -1.65974 0
M  V30 1748 N 175.481 4.33698 -1.62666 0
M  V30 1749 C 176.216 5.32745 -2.12063 0
M  V30 1750 N 175.712 6.38157 -2.6968 0
M  V30 1751 N 177.505 5.24299 -2.02651 0
M  V30 1752 H 169.656 1.38605 -1.60942 0
M  V30 1753 H 171.919 0.664661 -0.675965 0
M  V30 1754 H 171.625 2.85251 -2.0573 0
M  V30 1755 H 171.499 3.73251 -0.54439 0
M  V30 1756 H 173.886 2.95027 0.0654188 0
M  V30 1757 H 173.967 2.08808 -1.47759 0
M  V30 1758 H 173.611 4.29826 -2.70576 0
M  V30 1759 H 173.541 5.14156 -1.13804 0
M  V30 1760 H 176.032 3.58138 -1.20606 0
M  V30 1761 H 176.345 7.10029 -3.05087 0
M  V30 1762 H 174.69 6.38823 -2.73734 0
M  V30 1763 H 177.881 4.4086 -1.57353 0
M  V30 1764 H 178.054 6.01334 -2.41457 0
M  V30 1765 N 171.46 0.379036 1.52974 0
M  V30 1766 C 172.408 -0.476033 2.27677 0
M  V30 1767 C 173.402 -1.0719 1.31174 0
M  V30 1768 O 174.608 -1.01355 1.48752 0
M  V30 1769 H 170.983 -0.172255 0.732006 0
M  V30 1770 H 172.954 0.175615 2.97883 0
M  V30 1771 C 171.703 -1.5967 3.0887 0
M  V30 1772 H 171.026 -1.1475 3.82978 0
M  V30 1773 H 172.466 -2.16943 3.64296 0
M  V30 1774 C 170.925 -2.54682 2.20542 0
M  V30 1775 O 171.455 -3.57836 1.82527 0
M  V30 1776 N 169.661 -2.24183 1.84907 0
M  V30 1777 H 169.208 -1.40333 2.1602 0
M  V30 1778 H 169.166 -2.88006 1.26096 0
M  V30 1779 N 172.938 -1.57226 0.108567 0
M  V30 1780 C 174.166 -1.99179 -0.559954 0
M  V30 1781 C 174.581 -0.988022 -1.60884 0
M  V30 1782 O 173.938 0.0205512 -1.82488 0
M  V30 1783 C 173.989 -3.41159 -1.19552 0
M  V30 1784 O 173.71 -4.37694 -0.188577 0
M  V30 1785 C 175.211 -3.98188 -1.94837 0
M  V30 1786 H 172.431 -0.654228 -0.149088 0
M  V30 1787 H 174.975 -2.03598 0.19183 0
M  V30 1788 H 173.13 -3.37711 -1.89815 0
M  V30 1789 H 173.544 -5.20469 -0.649014 0
M  V30 1790 H 175.018 -4.99644 -2.34648 0
M  V30 1791 H 175.495 -3.3675 -2.81951 0
M  V30 1792 H 176.101 -4.0515 -1.2936 0
M  V30 1793 N 174.416 0.165178 -1.56732 0
M  V30 1794 C 175.664 0.879068 -1.8198 0
M  V30 1795 C 175.985 1.82514 -0.686561 0
M  V30 1796 O 175.255 1.93694 0.293146 0
M  V30 1797 H 173.835 0.327608 -0.671329 0
M  V30 1798 H 176.497 0.163526 -1.94213 0
M  V30 1799 H 175.593 1.45228 -2.76252 0
M  V30 1800 N 175.894 1.51508 0.433938 0
M  V30 1801 C 177.119 1.68443 1.21003 0
M  V30 1802 C 177.544 0.382636 1.84167 0
M  V30 1803 O 176.902 -0.65755 1.68956 0
M  V30 1804 C 176.95 2.80405 2.26727 0
M  V30 1805 O 176.054 2.44245 3.32292 0
M  V30 1806 H 175.395 0.561536 0.354363 0
M  V30 1807 H 177.925 1.9809 0.512024 0
M  V30 1808 H 177.935 3.0459 2.71457 0
M  V30 1809 H 176.61 3.74867 1.80132 0
M  V30 1810 H 175.187 2.30644 2.93015 0
M  V30 1811 N 177.372 -0.689602 1.41712 0
M  V30 1812 C 178.621 -1.44534 1.40686 0
M  V30 1813 C 178.934 -1.95588 0.0213352 0
M  V30 1814 O 180.14 -2.71271 -0.111534 0
M  V30 1815 C 178.596 -2.61387 2.47396 0
M  V30 1816 C 178.204 -2.17094 3.91885 0
M  V30 1817 C 179.948 -3.38986 2.55517 0
M  V30 1818 C 177.855 -3.3094 4.90135 0
M  V30 1819 H 176.785 -0.542925 0.52321 0
M  V30 1820 H 179.436 -0.748054 1.6756 0
M  V30 1821 H 177.818 -3.33412 2.13664 0
M  V30 1822 H 178.992 -1.52318 4.34897 0
M  V30 1823 H 177.307 -1.52473 3.8748 0
M  V30 1824 H 179.904 -4.23747 3.26102 0
M  V30 1825 H 180.247 -3.84578 1.59391 0
M  V30 1826 H 180.78 -2.74021 2.8837 0
M  V30 1827 H 177.519 -2.90355 5.87685 0
M  V30 1828 H 177.039 -3.94546 4.51767 0
M  V30 1829 H 178.718 -3.9663 5.11169 0
M  V30 1830 N 178.85 -1.27639 -0.924453 0
M  V30 1831 C 180.075 -1.17101 -1.71179 0
M  V30 1832 C 180.5 0.268134 -1.86179 0
M  V30 1833 O 179.858 1.19415 -1.36418 0
M  V30 1834 C 179.906 -1.86313 -3.08739 0
M  V30 1835 O 179.01 -1.16331 -3.95652 0
M  V30 1836 H 178.351 -0.407091 -0.524569 0
M  V30 1837 H 180.881 -1.68767 -1.15666 0
M  V30 1838 H 180.891 -1.938 -3.59034 0
M  V30 1839 H 179.566 -2.91001 -2.97138 0
M  V30 1840 H 178.143 -1.16935 -3.54091 0
M  V30 1841 N 180.328 1.1314 -1.09713 0
M  V30 1842 C 181.576 1.84119 -0.833338 0
M  V30 1843 C 181.897 1.84097 0.642904 0
M  V30 1844 O 181.167 1.29881 1.46655 0
M  V30 1845 H 179.747 0.681766 -0.305293 0
M  V30 1846 H 182.409 1.37038 -1.38588 0
M  V30 1847 H 181.505 2.88543 -1.18951 0
M  V30 1848 N 181.806 0.884767 1.30421 0
M  V30 1849 C 183.217 0.553656 1.78302 0
M  V30 1850 C 183.568 -0.930153 1.7275 0
M  V30 1851 O 182.693 -1.72681 1.30423 0
M  V30 1852 C 183.288 0.998234 3.2376 0
M  V30 1853 C 181.847 0.71854 3.69478 0
M  V30 1854 C 180.994 1.18132 2.50879 0
M  V30 1855 H 183.945 1.06901 1.17294 0
M  V30 1856 H 183.966 0.327118 3.79091 0
M  V30 1857 H 183.478 2.0782 3.27769 0
M  V30 1858 H 181.579 -0.349444 3.70958 0
M  V30 1859 H 181.692 1.30595 4.60958 0
M  V30 1860 H 180.056 0.600669 2.47516 0
M  V30 1861 H 180.839 2.26902 2.57624 0
M  V30 1862 N 183.284 -1.43765 0.645699 0
M  V30 1863 C 184.231 -2.30745 -0.0504648 0
M  V30 1864 C 185.201 -1.4432 -0.822241 0
M  V30 1865 O 186.386 -1.73202 -0.800358 0
M  V30 1866 C 183.526 -3.29802 -1.0161 0
M  V30 1867 C 182.639 -4.31326 -0.241219 0
M  V30 1868 C 181.774 -5.17469 -1.19998 0
M  V30 1869 C 180.813 -6.10691 -0.415094 0
M  V30 1870 N 179.95 -6.89483 -1.32506 0
M  V30 1871 H 184.79 -2.8973 0.697155 0
M  V30 1872 H 182.327 -1.42738 0.355563 0
M  V30 1873 H 184.285 -3.85734 -1.58949 0
M  V30 1874 H 182.915 -2.72483 -1.73069 0
M  V30 1875 H 181.967 -3.77749 0.448334 0
M  V30 1876 H 183.279 -4.9743 0.369437 0
M  V30 1877 H 182.433 -5.7799 -1.84424 0
M  V30 1878 H 181.172 -4.51473 -1.84455 0
M  V30 1879 H 180.177 -5.49265 0.242565 0
M  V30 1880 H 181.402 -6.78727 0.224966 0
M  V30 1881 H 179.348 -6.26142 -1.95657 0
M  V30 1882 H 179.265 -7.52081 -0.768783 0
M  V30 1883 H 180.533 -7.54516 -1.9577 0
M  V30 1884 N 184.763 -0.387143 -1.52771 0
M  V30 1885 C 186.009 0.196025 -2.0185 0
M  V30 1886 C 186.342 1.46641 -1.27319 0
M  V30 1887 O 185.617 1.90889 -0.373032 0
M  V30 1888 C 185.9 0.466136 -3.5707 0
M  V30 1889 C 185.753 -0.819385 -4.42274 0
M  V30 1890 C 187.072 1.25768 -4.21747 0
M  V30 1891 H 184.191 0.0697708 -0.73369 0
M  V30 1892 H 186.833 -0.516286 -1.82851 0
M  V30 1893 H 184.983 1.07293 -3.7339 0
M  V30 1894 H 186.655 -1.4563 -4.37709 0
M  V30 1895 H 184.898 -1.43517 -4.09372 0
M  V30 1896 H 185.569 -0.585065 -5.48891 0
M  V30 1897 H 188.045 0.744167 -4.09391 0
M  V30 1898 H 186.921 1.41541 -5.30337 0
M  V30 1899 H 187.182 2.27228 -3.79236 0
M  V30 1900 N 186.241 1.57166 -0.116904 0
M  V30 1901 C 187.189 2.16457 0.851418 0
M  V30 1902 C 188.183 1.11323 1.27686 0
M  V30 1903 O 189.389 1.2963 1.24884 0
M  V30 1904 H 185.764 0.69271 0.292672 0
M  V30 1905 H 187.735 2.96605 0.32685 0
M  V30 1906 C 186.484 2.77689 2.09246 0
M  V30 1907 H 185.807 3.58285 1.77402 0
M  V30 1908 H 187.247 3.22716 2.7501 0
M  V30 1909 C 185.706 1.74667 2.88085 0
M  V30 1910 O 186.236 1.19877 3.83396 0
M  V30 1911 N 184.442 1.44656 2.52038 0
M  V30 1912 H 183.989 1.89402 1.74599 0
M  V30 1913 H 183.947 0.759675 3.05084 0
M  V30 1914 N 187.719 -0.156864 1.56817 0
M  V30 1915 C 189.135 -0.50916 1.5126 0
M  V30 1916 C 189.335 -1.83897 0.823658 0
M  V30 1917 O 188.391 -2.49469 0.390055 0
M  V30 1918 C 189.704 -0.52857 2.96018 0
M  V30 1919 C 191.252 -0.614771 3.06903 0
M  V30 1920 C 191.727 -0.664938 4.53147 0
M  V30 1921 N 193.218 -0.727433 4.57452 0
M  V30 1922 C 193.953 -0.787067 5.67973 0
M  V30 1923 N 193.449 -0.806649 6.88088 0
M  V30 1924 N 195.242 -0.827195 5.5598 0
M  V30 1925 H 187.393 0.714935 2.00006 0
M  V30 1926 H 189.656 0.259526 0.911784 0
M  V30 1927 H 189.362 0.380154 3.49639 0
M  V30 1928 H 189.236 -1.36998 3.51442 0
M  V30 1929 H 191.623 -1.51392 2.53307 0
M  V30 1930 H 191.704 0.253597 2.5454 0
M  V30 1931 H 191.348 0.230011 5.07379 0
M  V30 1932 H 191.278 -1.54966 5.03282 0
M  V30 1933 H 193.769 -0.719998 3.70978 0
M  V30 1934 H 194.082 -0.853727 7.6807 0
M  V30 1935 H 192.427 -0.774687 6.90669 0
M  V30 1936 H 195.618 -0.808998 4.61056 0
M  V30 1937 H 195.791 -0.870206 6.4213 0
M  V30 1938 N 189.197 -1.51736 -0.425897 0
M  V30 1939 C 190.608 -1.5732 -1.00536 0
M  V30 1940 C 190.959 -0.403537 -1.92005 0
M  V30 1941 O 190.084 0.478256 -2.11049 0
M  V30 1942 C 190.679 -2.85119 -1.8301 0
M  V30 1943 C 189.238 -2.93236 -2.35987 0
M  V30 1944 C 188.385 -2.52098 -1.15508 0
M  V30 1945 H 191.336 -1.57348 -0.206739 0
M  V30 1946 H 191.357 -2.69526 -2.68581 0
M  V30 1947 H 190.869 -3.7023 -1.16411 0
M  V30 1948 H 188.97 -2.12581 -3.06007 0
M  V30 1949 H 189.083 -3.9713 -2.68001 0
M  V30 1950 H 187.447 -2.05558 -1.50393 0
M  V30 1951 H 188.23 -3.39565 -0.505014 0
M  V30 1952 N 190.675 0.682077 -1.42076 0
M  V30 1953 C 191.9 1.47558 -1.45744 0
M  V30 1954 C 192.325 1.87977 -0.0680981 0
M  V30 1955 O 191.683 1.55522 0.9318 0
M  V30 1956 C 191.731 2.70575 -2.38373 0
M  V30 1957 O 190.835 3.68573 -1.85007 0
M  V30 1958 H 190.176 0.443585 -0.494093 0
M  V30 1959 H 192.706 0.837238 -1.86686 0
M  V30 1960 H 192.716 3.18729 -2.54707 0
M  V30 1961 H 191.391 2.40495 -3.39315 0
M  V30 1962 H 189.968 3.2757 -1.78192 0
M  V30 1963 N 192.153 1.28127 0.917671 0
M  V30 1964 C 193.083 1.14248 2.03641 0
M  V30 1965 C 194.064 0.0412748 1.7005 0
M  V30 1966 O 195.249 0.217566 1.92977 0
M  V30 1967 C 192.379 0.799431 3.37974 0
M  V30 1968 C 191.333 1.85497 3.85713 0
M  V30 1969 C 190.659 1.36565 5.16966 0
M  V30 1970 C 191.959 3.26085 4.08002 0
M  V30 1971 H 193.653 2.07835 2.15511 0
M  V30 1972 H 191.199 1.00064 1.03553 0
M  V30 1973 H 193.152 0.689114 4.15727 0
M  V30 1974 H 191.876 -0.172145 3.26146 0
M  V30 1975 H 190.535 1.95437 3.10161 0
M  V30 1976 H 190.183 0.383253 5.01538 0
M  V30 1977 H 189.883 2.07143 5.49878 0
M  V30 1978 H 191.407 1.26848 5.97279 0
M  V30 1979 H 192.821 3.19089 4.76293 0
M  V30 1980 H 191.218 3.94462 4.52238 0
M  V30 1981 H 192.288 3.70394 3.12948 0
M  V30 1982 N 193.631 -1.12557 1.10312 0
M  V30 1983 C 194.561 -2.20341 0.772798 0
M  V30 1984 C 195.542 -1.68198 -0.25365 0
M  V30 1985 O 196.727 -1.93831 -0.119699 0
M  V30 1986 C 193.857 -3.46709 0.202443 0
M  V30 1987 C 192.811 -4.11996 1.15943 0
M  V30 1988 C 192.137 -5.328 0.450345 0
M  V30 1989 C 193.437 -4.5828 2.50552 0
M  V30 1990 H 195.131 -2.48229 1.674 0
M  V30 1991 H 192.677 -1.19308 0.806326 0
M  V30 1992 H 194.63 -4.2138 -0.0407752 0
M  V30 1993 H 193.354 -3.18245 -0.734001 0
M  V30 1994 H 192.013 -3.39305 1.38808 0
M  V30 1995 H 191.661 -5.00602 -0.490531 0
M  V30 1996 H 191.361 -5.7743 1.08851 0
M  V30 1997 H 192.885 -6.10219 0.215642 0
M  V30 1998 H 194.299 -5.2433 2.31843 0
M  V30 1999 H 192.696 -5.13683 3.10242 0
M  V30 2000 H 193.766 -3.72329 3.10643 0
M  V30 2001 N 195.109 -0.891671 -1.2995 0
M  V30 2002 C 196.019 -0.367691 -2.31701 0
M  V30 2003 C 197.035 0.533486 -1.6562 0
M  V30 2004 O 198.211 0.424997 -1.96865 0
M  V30 2005 C 195.276 0.403406 -3.44345 0
M  V30 2006 C 194.337 -0.528328 -4.26037 0
M  V30 2007 C 193.57 0.206063 -5.33302 0
M  V30 2008 O 193.793 1.43119 -5.52153 0
M  V30 2009 O 192.727 -0.447281 -6.00236 0
M  V30 2010 H 196.553 -1.21163 -2.78484 0
M  V30 2011 H 194.138 -0.655725 -1.34241 0
M  V30 2012 H 196.02 0.839753 -4.12948 0
M  V30 2013 H 194.695 1.22354 -2.99685 0
M  V30 2014 H 193.602 -1.01362 -3.60106 0
M  V30 2015 H 194.935 -1.31465 -4.74318 0
M  V30 2016 N 196.587 1.43421 -0.653314 0
M  V30 2017 C 197.836 2.01032 -0.164076 0
M  V30 2018 C 198.149 1.52147 1.22926 0
M  V30 2019 O 199.355 2.02031 1.81371 0
M  V30 2020 C 197.811 3.59082 -0.24252 0
M  V30 2021 C 197.419 4.1696 -1.63855 0
M  V30 2022 C 199.163 4.24079 0.18911 0
M  V30 2023 C 197.07 5.67304 -1.67092 0
M  V30 2024 H 196 0.751798 -0.0575769 0
M  V30 2025 H 198.651 1.6439 -0.815362 0
M  V30 2026 H 197.033 3.93125 0.476276 0
M  V30 2027 H 198.207 3.94416 -2.38271 0
M  V30 2028 H 196.522 3.64335 -2.01616 0
M  V30 2029 H 199.119 5.34381 0.184775 0
M  V30 2030 H 199.462 3.98005 1.22056 0
M  V30 2031 H 199.995 3.94918 -0.477938 0
M  V30 2032 H 196.734 5.98145 -2.68146 0
M  V30 2033 H 196.254 5.91904 -0.970014 0
M  V30 2034 H 197.933 6.31344 -1.4147 0
M  V30 2035 N 198.065 0.39524 1.52563 0
M  V30 2036 C 199.015 -0.4541 2.23432 0
M  V30 2037 C 199.999 -1.02482 1.24042 0
M  V30 2038 O 201.191 -0.949938 1.49349 0
M  V30 2039 C 198.32 -1.57769 3.049 0
M  V30 2040 C 197.406 -1.01842 4.1169 0
M  V30 2041 N 197.797 -0.184613 5.05463 0
M  V30 2042 C 196.095 -1.29033 4.26927 0
M  V30 2043 C 196.796 0.125013 5.81566 0
M  V30 2044 N 195.772 -0.480498 5.41472 0
M  V30 2045 H 199.574 0.189413 2.93289 0
M  V30 2046 H 197.088 0.204877 1.61102 0
M  V30 2047 H 199.085 -2.19862 3.54212 0
M  V30 2048 H 197.745 -2.22397 2.36579 0
M  V30 2049 H 198.756 0.178602 5.17592 0
M  V30 2050 H 195.433 -1.93721 3.69836 0
M  V30 2051 H 196.823 0.800962 6.67109 0
M  V30 2052 N 199.544 -1.57102 0.125237 0
M  V30 2053 C 200.454 -2.19191 -0.8362 0
M  V30 2054 C 201.47 -1.16985 -1.28805 0
M  V30 2055 O 202.646 -1.49479 -1.34974 0
M  V30 2056 C 199.711 -2.78407 -2.06617 0
M  V30 2057 C 198.772 -3.9567 -1.66565 0
M  V30 2058 C 198.005 -4.52052 -2.83698 0
M  V30 2059 O 198.228 -4.07326 -3.99302 0
M  V30 2060 O 197.162 -5.42645 -2.60423 0
M  V30 2061 H 200.988 -3.01816 -0.337776 0
M  V30 2062 H 198.573 -1.4906 -0.100695 0
M  V30 2063 H 200.455 -3.16129 -2.7864 0
M  V30 2064 H 199.13 -1.9881 -2.55453 0
M  V30 2065 H 198.037 -3.62705 -0.916296 0
M  V30 2066 H 199.37 -4.76722 -1.22464 0
M  V30 2067 N 201.022 0.148545 -1.56898 0
M  V30 2068 C 201.954 1.20852 -1.9475 0
M  V30 2069 C 202.967 1.39265 -0.843152 0
M  V30 2070 O 204.156 1.38864 -1.12156 0
M  V30 2071 C 201.256 2.57362 -2.20495 0
M  V30 2072 C 200.429 2.59947 -3.51776 0
M  V30 2073 C 199.488 3.77984 -3.6608 0
M  V30 2074 O 198.514 3.62929 -4.38487 0
M  V30 2075 N 199.716 4.95375 -3.02629 0
M  V30 2076 H 202.481 0.886804 -2.86279 0
M  V30 2077 H 200.042 0.338121 -1.5833 0
M  V30 2078 H 202.034 3.34833 -2.27307 0
M  V30 2079 H 200.604 2.81832 -1.35238 0
M  V30 2080 H 199.824 1.68403 -3.56419 0
M  V30 2081 H 201.112 2.58704 -4.38121 0
M  V30 2082 H 200.51 5.10509 -2.43715 0
M  V30 2083 H 199.067 5.70627 -3.15004 0
M  V30 2084 N 202.5 1.5196 0.417844 0
M  V30 2085 C 203.43 1.77634 1.51554 0
M  V30 2086 C 204.411 0.626918 1.58126 0
M  V30 2087 O 205.596 0.871632 1.7354 0
M  V30 2088 C 202.726 1.91911 2.8946 0
M  V30 2089 C 201.68 3.07463 2.97743 0
M  V30 2090 C 201.006 3.06951 4.37819 0
M  V30 2091 C 202.306 4.47082 2.70027 0
M  V30 2092 H 204 2.6955 1.3032 0
M  V30 2093 H 201.546 1.29706 0.625492 0
M  V30 2094 H 203.499 2.08455 3.6623 0
M  V30 2095 H 202.223 0.966598 3.11969 0
M  V30 2096 H 200.882 2.90656 2.23416 0
M  V30 2097 H 200.53 2.09438 4.57323 0
M  V30 2098 H 200.23 3.84556 4.44286 0
M  V30 2099 H 201.754 3.25613 5.16535 0
M  V30 2100 H 203.168 4.6414 3.36522 0
M  V30 2101 H 201.565 5.2654 2.87881 0
M  V30 2102 H 202.635 4.55777 1.65514 0
M  V30 2103 N 203.978 -0.674533 1.42435 0
M  V30 2104 C 204.941 -1.76986 1.45632 0
M  V30 2105 C 205.941 -1.5708 0.343871 0
M  V30 2106 O 207.131 -1.63367 0.604709 0
M  V30 2107 C 204.263 -3.15623 1.28822 0
M  V30 2108 H 205.456 -1.75539 2.43158 0
M  V30 2109 H 203.009 -0.884189 1.28887 0
M  V30 2110 H 203.744 -3.22696 0.322193 0
M  V30 2111 H 203.529 -3.31475 2.09444 0
M  V30 2112 H 205.019 -3.95537 1.33942 0
M  V30 2113 N 205.456 -1.28612 -0.910864 0
M  V30 2114 C 206.403 -1.12786 -2.01365 0
M  V30 2115 C 207.373 -0.024201 -1.66082 0
M  V30 2116 O 208.558 -0.189667 -1.89855 0
M  V30 2117 C 205.698 -0.798743 -3.35729 0
M  V30 2118 C 204.811 -1.98173 -3.83864 0
M  V30 2119 C 203.946 -1.59298 -5.06752 0
M  V30 2120 C 202.985 -2.74245 -5.47226 0
M  V30 2121 N 202.122 -2.35842 -6.61304 0
M  V30 2122 H 206.962 -2.07142 -2.14234 0
M  V30 2123 H 204.499 -1.03093 -1.0493 0
M  V30 2124 H 206.457 -0.588662 -4.13026 0
M  V30 2125 H 205.087 0.10789 -3.2262 0
M  V30 2126 H 204.139 -2.30386 -3.02699 0
M  V30 2127 H 205.451 -2.84343 -4.09818 0
M  V30 2128 H 204.605 -1.34513 -5.916 0
M  V30 2129 H 203.344 -0.702618 -4.82612 0
M  V30 2130 H 202.349 -2.99725 -4.60918 0
M  V30 2131 H 203.574 -3.63928 -5.73353 0
M  V30 2132 H 201.52 -1.49279 -6.38789 0
M  V30 2133 H 201.437 -3.15546 -6.86998 0
M  V30 2134 H 202.705 -2.14348 -7.4945 0
M  V30 2135 N 206.934 1.1197 -1.10907 0
M  V30 2136 C 207.882 2.19927 -0.757303 0
M  V30 2137 C 208.876 1.67564 0.248747 0
M  V30 2138 O 210.082 1.79672 0.108605 0
M  V30 2139 H 206.457 0.716925 -0.226987 0
M  V30 2140 H 208.428 2.46847 -1.67658 0
M  V30 2141 C 207.177 3.47061 -0.210671 0
M  V30 2142 H 206.5 3.87703 -0.976049 0
M  V30 2143 H 207.94 4.24 -0.0026584 0
M  V30 2144 C 206.399 3.19864 1.05777 0
M  V30 2145 O 206.929 3.40049 2.13845 0
M  V30 2146 N 205.135 2.73636 0.978349 0
M  V30 2147 H 204.682 2.5741 0.0988246 0
M  V30 2148 H 204.64 2.55815 1.82773 0
M  V30 2149 N 208.412 0.89855 1.29475 0
M  V30 2150 C 209.658 0.524658 1.95896 0
M  V30 2151 C 209.991 -0.926468 1.70676 0
M  V30 2152 O 209.266 -1.65665 1.01908 0
M  V30 2153 C 209.549 0.81633 3.50725 0
M  V30 2154 C 209.402 2.31907 3.85408 0
M  V30 2155 C 210.721 0.302038 4.39062 0
M  V30 2156 H 207.84 0.19209 0.711527 0
M  V30 2157 H 210.482 1.12502 1.53112 0
M  V30 2158 H 208.632 0.305369 3.87298 0
M  V30 2159 H 210.304 2.89949 3.58786 0
M  V30 2160 H 208.547 2.78027 3.32992 0
M  V30 2161 H 209.218 2.47373 4.93468 0
M  V30 2162 H 211.694 0.739551 4.09475 0
M  V30 2163 H 210.57 0.535331 5.46283 0
M  V30 2164 H 210.831 -0.797216 4.34853 0
M  V30 2165 N 209.89 -1.43072 0.660911 0
M  V30 2166 C 210.853 -2.29194 -0.0166406 0
M  V30 2167 C 211.853 -1.42609 -0.742912 0
M  V30 2168 O 213.043 -1.64155 -0.583004 0
M  V30 2169 C 210.175 -3.24831 -1.0343 0
M  V30 2170 H 211.368 -2.90596 0.741208 0
M  V30 2171 H 208.921 -1.5048 0.422532 0
M  V30 2172 H 209.656 -2.68339 -1.82111 0
M  V30 2173 H 209.441 -3.88676 -0.517082 0
M  V30 2174 H 210.931 -3.89451 -1.50723 0
M  V30 2175 N 211.368 -0.403325 -1.52352 0
M  V30 2176 C 212.614 0.174605 -2.02047 0
M  V30 2177 C 212.947 1.45282 -1.28867 0
M  V30 2178 O 212.222 1.90483 -0.393257 0
M  V30 2179 C 212.505 0.428238 -3.57545 0
M  V30 2180 C 212.358 -0.866248 -4.4138 0
M  V30 2181 C 213.677 1.21287 -4.23057 0
M  V30 2182 H 210.796 0.0619851 -0.734389 0
M  V30 2183 H 213.438 -0.53565 -1.82293 0
M  V30 2184 H 211.588 1.03327 -3.74507 0
M  V30 2185 H 213.26 -1.50265 -4.3614 0
M  V30 2186 H 211.503 -1.47851 -4.07827 0
M  V30 2187 H 212.174 -0.643249 -5.48239 0
M  V30 2188 H 214.65 0.700703 -4.10158 0
M  V30 2189 H 213.526 1.35909 -5.31808 0
M  V30 2190 H 213.787 2.23193 -3.81625 0
M  V30 2191 N 212.846 1.57033 -0.133567 0
M  V30 2192 C 214.074 2.00044 0.528195 0
M  V30 2193 C 214.489 1.01349 1.59291 0
M  V30 2194 O 213.846 0.00848369 1.82498 0
M  V30 2195 C 213.897 3.43018 1.1411 0
M  V30 2196 O 213.618 4.37939 0.11892 0
M  V30 2197 C 215.119 4.01237 1.88477 0
M  V30 2198 H 212.339 0.656517 0.138661 0
M  V30 2199 H 214.883 2.03267 -0.224196 0
M  V30 2200 H 213.038 3.40688 1.84418 0
M  V30 2201 H 213.452 5.21436 0.56613 0
M  V30 2202 H 214.926 5.03314 2.26669 0
M  V30 2203 H 215.403 3.41193 2.76558 0
M  V30 2204 H 216.009 4.07156 1.22898 0
M  V30 2205 N 214.325 -0.140222 1.56975 0
M  V30 2206 C 215.736 -0.699596 1.73097 0
M  V30 2207 C 216.087 -1.8134 0.749022 0
M  V30 2208 O 215.212 -2.16241 -0.0828503 0
M  V30 2209 C 215.807 -1.27582 3.1386 0
M  V30 2210 C 214.366 -1.78169 3.31561 0
M  V30 2211 C 213.513 -0.672855 2.69013 0
M  V30 2212 H 216.464 0.0855115 1.58469 0
M  V30 2213 H 216.485 -2.14561 3.14235 0
M  V30 2214 H 215.997 -0.464955 3.85305 0
M  V30 2215 H 214.098 -2.61801 2.65124 0
M  V30 2216 H 214.211 -1.90574 4.39566 0
M  V30 2217 H 212.575 -1.10118 2.29665 0
M  V30 2218 H 213.358 0.126679 3.43066 0
M  V30 2219 N 215.803 -1.52179 -0.40978 0
M  V30 2220 C 217.028 -1.70347 -1.18308 0
M  V30 2221 C 217.453 -0.411887 -1.83535 0
M  V30 2222 O 216.811 0.630587 -1.6998 0
M  V30 2223 C 216.859 -2.83977 -2.22238 0
M  V30 2224 O 215.963 -2.495 -3.28365 0
M  V30 2225 H 215.304 -0.567103 -0.345384 0
M  V30 2226 H 217.834 -1.98879 -0.480445 0
M  V30 2227 H 217.844 -3.0887 -2.66577 0
M  V30 2228 H 216.519 -3.77685 -1.74146 0
M  V30 2229 H 215.096 -2.35277 -2.89308 0
M  V30 2230 N 217.281 0.66697 -1.42791 0
M  V30 2231 C 218.506 1.46004 -1.47301 0
M  V30 2232 C 218.931 1.87894 -0.0880317 0
M  V30 2233 O 218.289 1.56502 0.915253 0
M  V30 2234 C 218.337 2.68031 -2.41229 0
M  V30 2235 O 217.441 3.6659 -1.88906 0
M  V30 2236 H 216.782 0.43832 -0.49877 0
M  V30 2237 H 219.312 0.817391 -1.87563 0
M  V30 2238 H 219.322 3.1601 -2.58073 0
M  V30 2239 H 217.997 2.36883 -3.41847 0
M  V30 2240 H 216.574 3.25661 -1.81656 0
M  V30 2241 N 218.759 1.29093 0.90403 0
M  V30 2242 C 219.722 1.1386 1.98919 0
M  V30 2243 C 220.722 0.0753457 1.60623 0
M  V30 2244 O 221.912 0.321931 1.71199 0
M  V30 2245 C 219.044 0.740198 3.32767 0
M  V30 2246 H 220.237 2.10246 2.13861 0
M  V30 2247 H 217.79 1.12218 1.08797 0
M  V30 2248 H 218.525 -0.223997 3.23525 0
M  V30 2249 H 218.31 1.50838 3.61926 0
M  V30 2250 H 219.8 0.656546 4.12407 0
M  V30 2251 N 220.237 -1.11381 1.11499 0
M  V30 2252 C 221.514 -1.7955 0.775965 0
M  V30 2253 C 221.894 -1.97859 -0.73588 0
M  V30 2254 O 221.242 -1.56376 -1.66609 0
M  V30 2255 C 221.452 -3.13196 1.53977 0
M  V30 2256 C 222.8 -3.88227 1.71944 0
M  V30 2257 O 223.824 -3.22887 1.50407 0
M  V30 2258 O 222.683 -5.05477 2.07738 0
M  V30 2259 H 219.777 -0.777728 0.28119 0
M  V30 2260 H 222.323 -1.18118 1.21845 0
M  V30 2261 H 221.095 -2.95229 2.56818 0
M  V30 2262 H 220.718 -3.82342 1.09088 0
M  V30 2263 N 221.715 -0.905404 -1.28997 0
M  V30 2264 C 223.131 -0.60233 -1.47798 0
M  V30 2265 C 223.331 0.854645 -1.82478 0
M  V30 2266 O 222.387 1.63439 -1.92468 0
M  V30 2267 C 223.7 -1.53306 -2.58685 0
M  V30 2268 C 225.248 -1.53887 -2.72558 0
M  V30 2269 C 225.723 -2.45602 -3.86579 0
M  V30 2270 N 227.214 -2.43681 -3.93921 0
M  V30 2271 C 227.949 -3.11347 -4.81509 0
M  V30 2272 N 227.445 -3.88313 -5.73746 0
M  V30 2273 N 229.238 -3.00476 -4.75048 0
M  V30 2274 H 221.389 -1.84765 -1.04764 0
M  V30 2275 H 223.652 -0.792025 -0.520961 0
M  V30 2276 H 223.358 -2.57141 -2.39941 0
M  V30 2277 H 223.232 -1.25787 -3.55609 0
M  V30 2278 H 225.619 -0.507941 -2.90696 0
M  V30 2279 H 225.7 -1.85447 -1.76191 0
M  V30 2280 H 225.344 -3.48792 -3.69197 0
M  V30 2281 H 225.274 -2.11349 -4.82327 0
M  V30 2282 H 227.765 -1.87767 -3.27951 0
M  V30 2283 H 228.078 -4.36985 -6.37389 0
M  V30 2284 H 226.423 -3.92419 -5.73614 0
M  V30 2285 H 229.614 -2.39858 -4.01977 0
M  V30 2286 H 229.787 -3.53485 -5.43095 0
M  V30 2287 N 223.193 1.4272 -0.668489 0
M  V30 2288 C 224.439 2.01923 -0.188419 0
M  V30 2289 C 224.772 1.52704 1.19979 0
M  V30 2290 O 224.047 0.726566 1.8042 0
M  V30 2291 C 224.33 3.59451 -0.216085 0
M  V30 2292 C 224.183 4.18864 -1.6393 0
M  V30 2293 C 225.502 4.37903 0.439179 0
M  V30 2294 H 222.621 0.733674 -0.0699412 0
M  V30 2295 H 225.263 1.69822 -0.852076 0
M  V30 2296 H 223.413 3.86929 0.349012 0
M  V30 2297 H 225.085 4.02362 -2.25616 0
M  V30 2298 H 223.328 3.74933 -2.18193 0
M  V30 2299 H 223.999 5.27987 -1.61039 0
M  V30 2300 H 226.475 4.16079 -0.0417878 0
M  V30 2301 H 225.351 5.47519 0.389157 0
M  V30 2302 H 225.612 4.15303 1.51577 0
M  V30 2303 N 224.671 0.411399 1.52136 0
M  V30 2304 C 225.634 -0.401089 2.25663 0
M  V30 2305 C 226.634 -0.971732 1.28117 0
M  V30 2306 O 227.824 -0.850254 1.52041 0
M  V30 2307 C 224.956 -1.56483 3.02863 0
M  V30 2308 H 226.149 0.24295 2.98914 0
M  V30 2309 H 223.702 0.163968 1.55438 0
M  V30 2310 H 224.437 -2.24567 2.33967 0
M  V30 2311 H 224.222 -1.16211 3.74483 0
M  V30 2312 H 225.712 -2.13951 3.58629 0
M  V30 2313 N 226.149 -1.5696 0.141893 0
M  V30 2314 C 227.097 -2.17784 -0.816874 0
M  V30 2315 C 228.091 -1.1334 -1.25899 0
M  V30 2316 O 229.297 -1.316 -1.22806 0
M  V30 2317 H 225.672 -0.697278 -0.281615 0
M  V30 2318 H 227.643 -2.97087 -0.279621 0
M  V30 2319 C 226.392 -2.80983 -2.04802 0
M  V30 2320 H 225.715 -3.61062 -1.7168 0
M  V30 2321 H 227.155 -3.2705 -2.69841 0
M  V30 2322 C 225.614 -1.79228 -2.8527 0
M  V30 2323 O 226.144 -1.25962 -3.8144 0
M  V30 2324 N 224.35 -1.48647 -2.49704 0
M  V30 2325 H 223.897 -1.92155 -1.71564 0
M  V30 2326 H 223.855 -0.808115 -3.03837 0
M  V30 2327 N 227.627 0.131896 -1.57047 0
M  V30 2328 C 228.875 0.840269 -1.83804 0
M  V30 2329 C 229.196 1.81017 -0.72512 0
M  V30 2330 O 228.466 1.94272 0.251995 0
M  V30 2331 H 227.046 0.313294 -0.678127 0
M  V30 2332 H 229.708 0.122294 -1.94516 0
M  V30 2333 H 228.804 1.39335 -2.79271 0
M  V30 2334 N 229.106 1.52395 0.401703 0
M  V30 2335 C 230.383 1.57387 1.16141 0
M  V30 2336 C 230.763 0.359359 2.08019 0
M  V30 2337 O 230.111 -0.65326 2.18963 0
M  V30 2338 C 230.321 2.90631 1.93221 0
M  V30 2339 C 231.669 3.43904 2.49028 0
M  V30 2340 O 232.693 2.92421 2.03393 0
M  V30 2341 O 231.552 4.33823 3.32356 0
M  V30 2342 H 228.646 0.634262 0.530698 0
M  V30 2343 H 231.192 1.64725 0.407883 0
M  V30 2344 H 229.964 3.70473 1.25958 0
M  V30 2345 H 229.587 2.8662 2.75563 0
M  V30 2346 N 230.584 -0.659388 1.43143 0
M  V30 2347 C 231.832 -1.41654 1.44147 0
M  V30 2348 C 232.153 -1.94893 0.0645739 0
M  V30 2349 O 231.423 -1.74044 -0.899198 0
M  V30 2350 H 230.003 -0.525708 0.530697 0
M  V30 2351 H 232.665 -0.778097 1.78694 0
M  V30 2352 H 231.761 -2.26195 2.1504 0
M  V30 2353 N 232.062 -1.29571 -0.897171 0
M  V30 2354 C 233.311 -1.1706 -1.64256 0
M  V30 2355 C 233.624 0.276476 -1.93636 0
M  V30 2356 O 234.83 0.52294 -2.66416 0
M  V30 2357 C 233.286 -2.0475 -2.95982 0
M  V30 2358 C 232.894 -3.54295 -2.74187 0
M  V30 2359 C 234.638 -2.0097 -3.73914 0
M  V30 2360 C 232.545 -4.34081 -4.01656 0
M  V30 2361 H 231.475 -0.43452 -0.616205 0
M  V30 2362 H 234.126 -1.54229 -0.994268 0
M  V30 2363 H 232.508 -1.60452 -3.62038 0
M  V30 2364 H 233.682 -4.06662 -2.1671 0
M  V30 2365 H 231.997 -3.59773 -2.09648 0
M  V30 2366 H 234.594 -2.57838 -4.68427 0
M  V30 2367 H 234.937 -0.990273 -4.0435 0
M  V30 2368 H 235.47 -2.43325 -3.14703 0
M  V30 2369 H 232.209 -5.36671 -3.76384 0
M  V30 2370 H 231.729 -3.86483 -4.58684 0
M  V30 2371 H 233.408 -4.44877 -4.69781 0
M  V30 2372 N 233.54 1.10788 -1.12088 0
M  V30 2373 C 234.951 1.64181 -0.88891 0
M  V30 2374 C 235.302 1.87508 0.577498 0
M  V30 2375 O 234.427 1.61434 1.44112 0
M  V30 2376 C 235.022 2.98257 -1.60712 0
M  V30 2377 C 233.581 3.4853 -1.42139 0
M  V30 2378 C 232.728 2.23208 -1.6454 0
M  V30 2379 H 235.679 0.943368 -1.27618 0
M  V30 2380 H 235.7 3.65552 -1.05604 0
M  V30 2381 H 235.212 2.81246 -2.67436 0
M  V30 2382 H 233.313 3.70692 -0.376552 0
M  V30 2383 H 233.426 4.26882 -2.17505 0
M  V30 2384 H 231.79 2.31169 -1.06925 0
M  V30 2385 H 232.573 2.08733 -2.72554 0
M  V30 2386 N 235.018 0.912232 1.28515 0
M  V30 2387 C 236.266 0.543523 1.94654 0
M  V30 2388 C 236.587 -0.9155 1.72173 0
M  V30 2389 O 235.857 -1.64708 1.06058 0
M  V30 2390 H 234.437 0.198017 0.720277 0
M  V30 2391 H 237.099 1.16126 1.56527 0
M  V30 2392 H 236.195 0.736684 3.03281 0
M  V30 2393 N 236.496 -1.42363 0.676048 0
M  V30 2394 C 237.773 -1.95183 0.127726 0
M  V30 2395 C 238.153 -1.61641 -1.35777 0
M  V30 2396 O 237.501 -0.913216 -2.09458 0
M  V30 2397 C 237.711 -3.46721 0.398199 0
M  V30 2398 C 239.059 -4.23427 0.315383 0
M  V30 2399 O 240.083 -3.54649 0.332016 0
M  V30 2400 O 238.942 -5.45888 0.25865 0
M  V30 2401 H 236.036 -0.826992 0.00359427 0
M  V30 2402 H 238.582 -1.52184 0.750864 0
M  V30 2403 H 237.354 -3.64344 1.4272 0
M  V30 2404 H 236.977 -3.96769 -0.256885 0
M  V30 2405 N 237.974 -0.419461 -1.51915 0
M  V30 2406 C 238.884 0.407528 -2.31033 0
M  V30 2407 C 239.9 1.04413 -1.3919 0
M  V30 2408 O 241.076 1.0434 -1.72265 0
M  V30 2409 C 238.141 1.50365 -3.12396 0
M  V30 2410 C 237.202 0.889029 -4.19994 0
M  V30 2411 C 236.435 1.93291 -4.97468 0
M  V30 2412 O 236.658 3.15259 -4.75361 0
M  V30 2413 O 235.592 1.53339 -5.8204 0
M  V30 2414 H 239.418 -0.237865 -3.02767 0
M  V30 2415 H 237.003 -0.182413 -1.48282 0
M  V30 2416 H 238.885 2.13975 -3.63032 0
M  V30 2417 H 237.56 2.13345 -2.43445 0
M  V30 2418 H 236.467 0.215353 -3.7348 0
M  V30 2419 H 237.8 0.302991 -4.91267 0
M  V30 2420 N 239.452 1.56882 -0.150215 0
M  V30 2421 C 240.384 2.14057 0.819286 0
M  V30 2422 C 241.397 1.09082 1.20851 0
M  V30 2423 O 242.586 1.36347 1.15203 0
M  V30 2424 C 239.686 2.65102 2.11127 0
M  V30 2425 C 238.859 3.94511 1.88891 0
M  V30 2426 C 237.918 4.30834 3.02107 0
M  V30 2427 O 236.944 4.99099 2.73659 0
M  V30 2428 N 238.146 3.90676 4.29363 0
M  V30 2429 H 240.911 2.97871 0.330618 0
M  V30 2430 H 238.472 1.61866 0.0332538 0
M  V30 2431 H 240.464 2.86411 2.85921 0
M  V30 2432 H 239.034 1.85994 2.51247 0
M  V30 2433 H 238.254 3.81795 0.981152 0
M  V30 2434 H 239.542 4.7907 1.71376 0
M  V30 2435 H 238.94 3.35677 4.55343 0
M  V30 2436 H 237.497 4.1703 5.00928 0
M  V30 2437 N 240.93 -0.123565 1.57115 0
M  V30 2438 C 241.893 -1.13583 1.99076 0
M  V30 2439 C 242.893 -1.34564 0.880296 0
M  V30 2440 O 244.083 -1.31158 1.14644 0
M  V30 2441 C 241.215 -2.49128 2.32698 0
M  V30 2442 H 242.408 -0.775287 2.89706 0
M  V30 2443 H 239.961 -0.36771 1.51913 0
M  V30 2444 H 240.696 -2.90111 1.44934 0
M  V30 2445 H 240.481 -2.35255 3.13684 0
M  V30 2446 H 241.971 -3.2199 2.65918 0
M  V30 2447 N 242.408 -1.52605 -0.393616 0
M  V30 2448 C 243.318 -1.79971 -1.50492 0
M  V30 2449 C 244.334 -0.686181 -1.59899 0
M  V30 2450 O 245.51 -0.973274 -1.76322 0
M  V30 2451 C 242.575 -1.95867 -2.86072 0
M  V30 2452 C 241.636 -3.19781 -2.86424 0
M  V30 2453 C 240.869 -3.34909 -4.15538 0
M  V30 2454 O 241.092 -2.54948 -5.10253 0
M  V30 2455 O 240.026 -4.28141 -4.23059 0
M  V30 2456 H 243.852 -2.74328 -1.30299 0
M  V30 2457 H 241.437 -1.3764 -0.581005 0
M  V30 2458 H 243.319 -2.08056 -3.66457 0
M  V30 2459 H 241.994 -1.04699 -3.063 0
M  V30 2460 H 240.901 -3.13038 -2.04837 0
M  V30 2461 H 242.234 -4.1078 -2.71147 0
M  V30 2462 N 243.887 0.651787 -1.4349 0
M  V30 2463 C 244.835 1.78586 -1.49029 0
M  V30 2464 C 245.829 1.65448 -0.363767 0
M  V30 2465 O 247.035 1.71777 -0.537821 0
M  V30 2466 H 243.41 0.589236 -0.467231 0
M  V30 2467 H 245.381 1.71035 -2.44519 0
M  V30 2468 C 244.13 3.16851 -1.43181 0
M  V30 2469 H 243.453 3.27598 -2.29171 0
M  V30 2470 H 244.893 3.96156 -1.51118 0
M  V30 2471 C 243.352 3.36568 -0.149616 0
M  V30 2472 O 243.882 3.93885 0.788509 0
M  V30 2473 N 242.088 2.90539 -0.0593484 0
M  V30 2474 H 241.635 2.4408 -0.823575 0
M  V30 2475 H 241.593 3.04108 0.797853 0
M  V30 2476 N 245.365 1.30045 0.890287 0
M  V30 2477 C 246.312 1.15976 1.99545 0
M  V30 2478 C 247.282 0.0506202 1.66023 0
M  V30 2479 O 248.467 0.219847 1.89529 0
M  V30 2480 C 245.607 0.852054 3.34416 0
M  V30 2481 C 244.72 2.04255 3.80662 0
M  V30 2482 C 243.855 1.6734 5.04154 0
M  V30 2483 C 242.894 2.82916 5.42794 0
M  V30 2484 N 242.031 2.46333 6.57468 0
M  V30 2485 H 246.871 2.10524 2.10911 0
M  V30 2486 H 244.408 1.04749 1.03276 0
M  V30 2487 H 246.366 0.654296 4.12037 0
M  V30 2488 H 244.996 -0.0565502 3.2275 0
M  V30 2489 H 244.048 2.35172 2.98995 0
M  V30 2490 H 245.36 2.90826 4.05242 0
M  V30 2491 H 244.514 1.43908 5.89386 0
M  V30 2492 H 243.253 0.779308 4.81433 0
M  V30 2493 H 242.258 3.0702 4.56091 0
M  V30 2494 H 243.483 3.73004 5.6749 0
M  V30 2495 H 241.429 1.59423 6.36334 0
M  V30 2496 H 241.346 3.26436 6.81891 0
M  V30 2497 H 242.614 2.26244 7.45945 0
M  V30 2498 N 246.843 -1.10192 1.12674 0
M  V30 2499 C 247.753 -2.20172 0.810026 0
M  V30 2500 C 248.769 -1.72821 -0.202188 0
M  V30 2501 O 249.945 -2.01369 -0.0351691 0
M  V30 2502 C 247.01 -3.45631 0.272007 0
M  V30 2503 C 246.071 -4.07704 1.34447 0
M  V30 2504 C 245.304 -5.27175 0.832029 0
M  V30 2505 O 245.527 -5.69425 -0.333284 0
M  V30 2506 O 244.461 -5.80168 1.60277 0
M  V30 2507 H 248.287 -2.49701 1.72867 0
M  V30 2508 H 245.872 -1.18977 0.903597 0
M  V30 2509 H 247.754 -4.21394 -0.0230219 0
M  V30 2510 H 246.429 -3.17723 -0.619164 0
M  V30 2511 H 245.336 -3.33614 1.6927 0
M  V30 2512 H 246.669 -4.3982 2.2095 0
M  V30 2513 N 248.321 -0.919034 -1.28029 0
M  V30 2514 C 249.598 -0.473668 -1.89778 0
M  V30 2515 C 249.978 1.04783 -1.83259 0
M  V30 2516 O 249.326 1.8982 -1.27202 0
M  V30 2517 C 249.536 -1.00998 -3.34066 0
M  V30 2518 C 250.884 -1.06525 -4.1102 0
M  V30 2519 O 251.908 -0.958996 -3.43048 0
M  V30 2520 O 250.767 -1.22776 -5.3253 0
M  V30 2521 H 247.861 -0.15098 -0.813101 0
M  V30 2522 H 250.407 -1.01016 -1.36359 0
M  V30 2523 H 249.179 -2.05392 -3.33061 0
M  V30 2524 H 248.802 -0.454626 -3.94992 0
M  V30 2525 N 249.799 1.42003 -0.683588 0
M  V30 2526 C 251.076 1.95112 -0.138075 0
M  V30 2527 C 251.456 1.62359 1.34918 0
M  V30 2528 O 250.804 0.924311 2.08971 0
M  V30 2529 C 251.014 3.46505 -0.416581 0
M  V30 2530 C 252.362 4.23254 -0.337834 0
M  V30 2531 O 253.386 3.54468 -0.35082 0
M  V30 2532 O 252.245 5.45743 -0.287596 0
M  V30 2533 H 249.339 0.826961 -0.00797996 0
M  V30 2534 H 251.885 1.51784 -0.758924 0
M  V30 2535 H 250.657 3.63582 -1.4465 0
M  V30 2536 H 250.28 3.969 0.235839 0
M  V30 2537 N 251.277 0.427512 1.51691 0
M  V30 2538 C 252.209 -0.424521 2.25234 0
M  V30 2539 C 253.222 -0.994671 1.2888 0
M  V30 2540 O 254.411 -0.890483 1.54702 0
M  V30 2541 C 251.511 -1.60479 2.98496 0
M  V30 2542 C 250.684 -1.15527 4.21868 0
M  V30 2543 C 249.743 -2.20454 4.77793 0
M  V30 2544 O 248.769 -1.8029 5.39893 0
M  V30 2545 N 249.971 -3.52831 4.60967 0
M  V30 2546 H 252.736 0.205749 2.98993 0
M  V30 2547 H 250.297 0.255867 1.59865 0
M  V30 2548 H 252.289 -2.30276 3.32799 0
M  V30 2549 H 250.859 -2.14061 2.27809 0
M  V30 2550 H 250.079 -0.284736 3.9317 0
M  V30 2551 H 251.367 -0.832173 5.01949 0
M  V30 2552 H 250.765 -3.88201 4.11481 0
M  V30 2553 H 249.322 -4.18551 4.99658 0
M  V30 2554 N 252.755 -1.56801 0.158532 0
M  V30 2555 C 253.718 -2.16138 -0.762705 0
M  V30 2556 C 254.718 -1.1061 -1.16713 0
M  V30 2557 O 255.908 -1.36191 -1.08617 0
M  V30 2558 C 253.04 -2.73386 -2.03649 0
M  V30 2559 H 254.233 -2.98886 -0.246354 0
M  V30 2560 H 251.786 -1.56035 -0.0909744 0
M  V30 2561 H 252.521 -1.94335 -2.59623 0
M  V30 2562 H 252.306 -3.50601 -1.75559 0
M  V30 2563 H 253.796 -3.19065 -2.6942 0
M  V30 2564 N 254.233 0.115231 -1.57178 0
M  V30 2565 C 255.481 0.820727 -1.84685 0
M  V30 2566 C 255.802 1.80237 -0.744279 0
M  V30 2567 O 255.072 1.94529 0.231375 0
M  V30 2568 H 253.652 0.306084 -0.681411 0
M  V30 2569 H 256.314 0.101656 -1.94635 0
M  V30 2570 H 255.41 1.36366 -2.80733 0
M  V30 2571 N 255.711 1.52812 0.385517 0
M  V30 2572 C 256.957 1.68275 1.13188 0
M  V30 2573 C 257.29 0.423179 1.89533 0
M  V30 2574 O 256.565 -0.579113 1.85679 0
M  V30 2575 C 256.848 2.92001 2.1073 0
M  V30 2576 C 256.701 4.28067 1.38125 0
M  V30 2577 C 258.02 3.11283 3.11113 0
M  V30 2578 H 255.139 0.612352 0.410115 0
M  V30 2579 H 257.781 1.85415 0.414869 0
M  V30 2580 H 255.931 2.77519 2.71874 0
M  V30 2581 H 257.603 4.54324 0.799187 0
M  V30 2582 H 255.846 4.28388 0.683092 0
M  V30 2583 H 256.517 5.10733 2.09417 0
M  V30 2584 H 258.993 3.2482 2.6006 0
M  V30 2585 H 257.869 3.99325 3.76605 0
M  V30 2586 H 258.13 2.25656 3.80173 0
M  V30 2587 N 257.189 -0.644168 1.43834 0
M  V30 2588 C 258.435 -1.40603 1.46146 0
M  V30 2589 C 258.768 -1.93997 0.0887717 0
M  V30 2590 O 258.043 -1.72854 -0.891724 0
M  V30 2591 C 258.326 -2.58086 2.51124 0
M  V30 2592 C 258.179 -2.10126 3.97702 0
M  V30 2593 C 259.498 -3.60291 2.52742 0
M  V30 2594 H 256.617 -0.509905 0.532134 0
M  V30 2595 H 259.259 -0.729502 1.75437 0
M  V30 2596 H 257.409 -3.15801 2.26278 0
M  V30 2597 H 259.081 -1.57342 4.33637 0
M  V30 2598 H 257.324 -1.41419 4.10101 0
M  V30 2599 H 257.995 -2.94649 4.66783 0
M  V30 2600 H 260.471 -3.12352 2.7491 0
M  V30 2601 H 259.347 -4.40032 3.28121 0
M  V30 2602 H 259.608 -4.1349 1.56455 0
M  V30 2603 N 258.668 -1.30515 -0.883378 0
M  V30 2604 C 259.615 -1.17032 -1.98927 0
M  V30 2605 C 260.585 -0.0594241 -1.65994 0
M  V30 2606 O 261.77 -0.229895 -1.8941 0
M  V30 2607 C 258.91 -0.869777 -3.33959 0
M  V30 2608 C 258.023 -2.06271 -3.79574 0
M  V30 2609 C 257.158 -1.70011 -5.03259 0
M  V30 2610 C 256.197 -2.8579 -5.41286 0
M  V30 2611 N 255.334 -2.49816 -6.56153 0
M  V30 2612 H 260.174 -2.1164 -2.09792 0
M  V30 2613 H 257.711 -1.05296 -1.02719 0
M  V30 2614 H 259.669 -0.676138 -4.11685 0
M  V30 2615 H 258.299 0.0394332 -3.22776 0
M  V30 2616 H 257.351 -2.36755 -2.97744 0
M  V30 2617 H 258.663 -2.92971 -4.03694 0
M  V30 2618 H 257.817 -1.47032 -5.88614 0
M  V30 2619 H 256.556 -0.804829 -4.81013 0
M  V30 2620 H 255.561 -3.09434 -4.54456 0
M  V30 2621 H 256.786 -3.76008 -5.65504 0
M  V30 2622 H 254.732 -1.62795 -6.35479 0
M  V30 2623 H 254.649 -3.30048 -6.8015 0
M  V30 2624 H 255.917 -2.30197 -7.44735 0
M  V30 2625 N 260.146 1.09593 -1.13257 0
M  V30 2626 C 261.393 1.81734 -0.893257 0
M  V30 2627 C 261.721 1.8563 0.580656 0
M  V30 2628 O 260.976 1.31906 1.44566 0
M  V30 2629 C 261.275 3.27802 -1.42411 0
M  V30 2630 C 260.941 3.44041 -2.91456 0
M  V30 2631 C 259.603 3.48181 -3.3215 0
M  V30 2632 C 261.955 3.48719 -3.87356 0
M  V30 2633 C 259.283 3.54575 -4.67433 0
M  V30 2634 C 261.635 3.56648 -5.2248 0
M  V30 2635 C 260.299 3.59055 -5.62704 0
M  V30 2636 H 259.569 0.665011 -0.326866 0
M  V30 2637 H 262.216 1.2912 -1.41422 0
M  V30 2638 H 260.521 3.83042 -0.823795 0
M  V30 2639 H 262.218 3.82149 -1.21503 0
M  V30 2640 H 258.808 3.41502 -2.58987 0
M  V30 2641 H 262.992 3.44763 -3.57004 0
M  V30 2642 H 258.248 3.54725 -4.97976 0
M  V30 2643 H 262.422 3.59212 -5.96607 0
M  V30 2644 H 260.049 3.63763 -6.67518 0
M  V30 2645 N 261.624 0.925811 1.2754 0
M  V30 2646 C 262.872 0.564138 1.94067 0
M  V30 2647 C 263.193 -0.897188 1.73134 0
M  V30 2648 O 262.463 -1.63573 1.07799 0
M  V30 2649 H 261.043 0.205645 0.718136 0
M  V30 2650 H 263.705 1.1778 1.55287 0
M  V30 2651 H 262.801 0.76881 3.02483 0
M  V30 2652 N 263.102 -1.41638 0.69111 0
M  V30 2653 C 264.348 -2.02104 0.229258 0
M  V30 2654 C 264.703 -1.53741 -1.15678 0
M  V30 2655 O 263.996 -0.736849 -1.76865 0
M  V30 2656 C 264.19 -3.56714 0.221277 0
M  V30 2657 C 264.019 -4.20083 1.605 0
M  V30 2658 C 262.789 -4.54566 2.20676 0
M  V30 2659 C 264.987 -4.46587 2.55078 0
M  V30 2660 N 262.969 -5.03199 3.5166 0
M  V30 2661 C 264.34 -4.96946 3.70735 0
M  V30 2662 C 266.395 -4.28593 2.53401 0
M  V30 2663 C 265.098 -5.31203 4.8499 0
M  V30 2664 C 267.124 -4.63936 3.66765 0
M  V30 2665 C 266.486 -5.14463 4.81152 0
M  V30 2666 H 262.585 -0.771256 0.12918 0
M  V30 2667 H 265.169 -1.72251 0.907626 0
M  V30 2668 H 263.34 -3.86051 -0.426562 0
M  V30 2669 H 265.072 -4.03896 -0.254983 0
M  V30 2670 H 261.827 -4.4087 1.73005 0
M  V30 2671 H 262.251 -5.31926 4.18789 0
M  V30 2672 H 266.893 -3.88771 1.66184 0
M  V30 2673 H 264.611 -5.69951 5.72871 0
M  V30 2674 H 268.197 -4.51677 3.66714 0
M  V30 2675 H 267.077 -5.41299 5.67419 0
M  V30 2676 N 264.58 -0.43555 -1.51462 0
M  V30 2677 C 265.826 0.131709 -2.02372 0
M  V30 2678 C 266.159 1.42516 -1.3192 0
M  V30 2679 O 265.434 1.89606 -0.433573 0
M  V30 2680 C 265.717 0.352301 -3.58373 0
M  V30 2681 C 265.57 -0.959676 -4.39443 0
M  V30 2682 C 266.889 1.12286 -4.25535 0
M  V30 2683 H 264.008 0.0463936 -0.735538 0
M  V30 2684 H 266.65 -0.574197 -1.81116 0
M  V30 2685 H 264.8 0.9536 -3.76615 0
M  V30 2686 H 266.472 -1.59482 -4.32855 0
M  V30 2687 H 264.715 -1.56468 -4.04599 0
M  V30 2688 H 265.386 -0.759394 -5.46752 0
M  V30 2689 H 267.862 0.613545 -4.11552 0
M  V30 2690 H 266.738 1.24598 -5.34571 0
M  V30 2691 H 266.999 2.15048 -3.86273 0
M  V30 2692 N 266.058 1.56714 -0.166846 0
M  V30 2693 C 267.005 2.17746 0.765193 0
M  V30 2694 C 267.975 1.11614 1.23011 0
M  V30 2695 O 269.16 1.39745 1.29908 0
M  V30 2696 C 266.3 2.81882 1.9909 0
M  V30 2697 C 265.413 4.02462 1.56997 0
M  V30 2698 C 264.548 4.54537 2.749 0
M  V30 2699 C 263.587 5.67538 2.29275 0
M  V30 2700 N 262.724 6.14142 3.40255 0
M  V30 2701 H 267.564 2.97048 0.237952 0
M  V30 2702 H 265.101 1.4672 0.105725 0
M  V30 2703 H 267.059 3.17221 2.70974 0
M  V30 2704 H 265.689 2.05191 2.49192 0
M  V30 2705 H 264.741 3.72973 0.748037 0
M  V30 2706 H 266.053 4.84273 1.19503 0
M  V30 2707 H 265.207 4.92035 3.54946 0
M  V30 2708 H 263.946 3.71774 3.1565 0
M  V30 2709 H 262.951 5.29597 1.47674 0
M  V30 2710 H 264.176 6.52099 1.89588 0
M  V30 2711 H 262.122 5.3431 3.8059 0
M  V30 2712 H 262.039 6.9093 3.06841 0
M  V30 2713 H 263.307 6.56289 4.206 0
M  V30 2714 N 267.536 -0.106894 1.57237 0
M  V30 2715 C 268.784 -0.810921 1.85117 0
M  V30 2716 C 269.105 -1.7984 0.753827 0
M  V30 2717 O 268.375 -1.94649 -0.221056 0
M  V30 2718 H 266.955 -0.302466 0.683025 0
M  V30 2719 H 269.617 -0.0913324 1.94686 0
M  V30 2720 H 268.713 -1.34875 2.81452 0
M  V30 2721 N 269.014 -1.53014 -0.377408 0
M  V30 2722 C 270.26 -1.68872 -1.12294 0
M  V30 2723 C 270.593 -0.433224 -1.89306 0
M  V30 2724 O 269.868 0.569258 -1.85983 0
M  V30 2725 C 270.151 -2.93115 -2.09179 0
M  V30 2726 C 270.004 -4.28794 -1.35853 0
M  V30 2727 C 271.323 -3.12928 -3.09458 0
M  V30 2728 H 268.442 -0.614518 -0.406862 0
M  V30 2729 H 271.084 -1.85633 -0.40503 0
M  V30 2730 H 269.234 -2.78956 -2.70399 0
M  V30 2731 H 270.906 -4.54742 -0.775082 0
M  V30 2732 H 269.149 -4.28744 -0.660364 0
M  V30 2733 H 269.82 -5.11837 -2.06706 0
M  V30 2734 H 272.296 -3.26194 -2.58334 0
M  V30 2735 H 271.172 -4.01316 -3.74482 0
M  V30 2736 H 271.433 -2.27669 -3.78971 0
M  V30 2737 N 270.492 0.636531 -1.44174 0
M  V30 2738 C 271.422 1.76003 -1.53444 0
M  V30 2739 C 272.403 1.65619 -0.387841 0
M  V30 2740 O 273.588 1.84461 -0.607257 0
M  V30 2741 C 270.718 3.14511 -1.4731 0
M  V30 2742 C 269.672 3.39677 -2.60391 0
M  V30 2743 C 268.998 4.78159 -2.39308 0
M  V30 2744 C 270.298 3.32772 -4.02567 0
M  V30 2745 H 271.992 1.68501 -2.47483 0
M  V30 2746 H 269.538 0.809237 -1.19111 0
M  V30 2747 H 271.491 3.92878 -1.52397 0
M  V30 2748 H 270.215 3.22783 -0.49785 0
M  V30 2749 H 268.874 2.63688 -2.54684 0
M  V30 2750 H 268.522 4.83128 -1.39988 0
M  V30 2751 H 268.222 4.95956 -3.15122 0
M  V30 2752 H 269.746 5.58762 -2.46205 0
M  V30 2753 H 271.16 4.01051 -4.09672 0
M  V30 2754 H 269.557 3.62104 -4.7854 0
M  V30 2755 H 270.627 2.30669 -4.2652 0
M  V30 2756 N 271.97 1.30982 0.876444 0
M  V30 2757 C 273.216 1.20474 1.63138 0
M  V30 2758 C 273.549 -0.238096 1.92735 0
M  V30 2759 O 272.824 -1.1692 1.55435 0
M  V30 2760 C 273.107 2.04244 2.96574 0
M  V30 2761 C 272.96 3.56793 2.73896 0
M  V30 2762 C 274.279 1.88684 3.97601 0
M  V30 2763 H 271.398 0.439001 0.591985 0
M  V30 2764 H 274.04 1.60704 1.01361 0
M  V30 2765 H 272.19 1.70063 3.493 0
M  V30 2766 H 273.862 4.01077 2.27892 0
M  V30 2767 H 272.105 3.80548 2.08245 0
M  V30 2768 H 272.776 4.10706 3.68815 0
M  V30 2769 H 275.252 2.18584 3.54062 0
M  V30 2770 H 274.128 2.4961 4.88862 0
M  V30 2771 H 274.389 0.848343 4.33884 0
M  V30 2772 N 273.449 -1.08991 1.13837 0
M  V30 2773 C 274.865 -1.33312 0.877506 0
M  V30 2774 C 275.065 -1.95587 -0.48456 0
M  V30 2775 O 274.121 -2.20509 -1.23013 0
M  V30 2776 C 275.434 -2.24045 2.0056 0
M  V30 2777 C 276.982 -2.37542 2.03821 0
M  V30 2778 C 277.457 -3.31614 3.15905 0
M  V30 2779 N 278.948 -3.39189 3.15445 0
M  V30 2780 C 279.683 -4.11992 3.98811 0
M  V30 2781 N 279.179 -4.87553 4.92203 0
M  V30 2782 N 280.972 -4.07762 3.86894 0
M  V30 2783 H 273.123 -0.669456 2.01574 0
M  V30 2784 H 275.386 -0.357482 0.878015 0
M  V30 2785 H 275.092 -1.85521 2.98789 0
M  V30 2786 H 274.966 -3.24466 1.92359 0
M  V30 2787 H 277.353 -2.75327 1.06202 0
M  V30 2788 H 277.434 -1.36884 2.16093 0
M  V30 2789 H 277.078 -2.94551 4.13766 0
M  V30 2790 H 277.008 -4.32186 3.0087 0
M  V30 2791 H 279.499 -2.85314 2.47799 0
M  V30 2792 H 279.812 -5.40549 5.52292 0
M  V30 2793 H 278.157 -4.86627 4.96205 0
M  V30 2794 H 281.348 -3.47833 3.13257 0
M  V30 2795 H 281.521 -4.64238 4.52092 0
M  V30 2796 N 274.927 -0.932562 -1.27047 0
M  V30 2797 C 276.167 -0.582919 -1.95912 0
M  V30 2798 C 276.531 0.860629 -1.71631 0
M  V30 2799 O 277.732 1.31878 -2.34225 0
M  V30 2800 C 276.003 -0.905673 -3.45734 0
M  V30 2801 S 277.562 -0.665277 -4.33727 0
M  V30 2802 H 274.38 -0.215 -0.677714 0
M  V30 2803 H 276.982 -1.20204 -1.54179 0
M  V30 2804 H 275.686 -1.95386 -3.60905 0
M  V30 2805 H 275.217 -0.275939 -3.92431 0
M  V30 2806 H 277.232 0.474635 -4.93925 0
M  V30 2807 N 276.405 1.4127 -0.698611 0
M  V30 2808 C 277.338 2.28195 0.0153898 0
M  V30 2809 C 278.316 1.42402 0.784883 0
M  V30 2810 O 279.5 1.71828 0.775067 0
M  V30 2811 C 276.627 3.22685 1.02918 0
M  V30 2812 C 275.673 4.25041 0.352501 0
M  V30 2813 S 276.506 5.27757 -0.907322 0
M  V30 2814 C 277.662 6.25812 0.104796 0
M  V30 2815 H 277.895 2.88403 -0.721858 0
M  V30 2816 H 275.428 1.46452 -0.488996 0
M  V30 2817 H 277.386 3.77655 1.60893 0
M  V30 2818 H 276.047 2.61566 1.73902 0
M  V30 2819 H 275.24 4.91437 1.11828 0
M  V30 2820 H 274.842 3.73682 -0.154254 0
M  V30 2821 H 277.134 6.70705 0.957103 0
M  V30 2822 H 278.077 7.06149 -0.525323 0
M  V30 2823 H 278.485 5.62615 0.460931 0
M  V30 2824 N 277.883 0.443576 1.51229 0
M  V30 2825 C 278.813 -0.355142 2.30783 0
M  V30 2826 C 279.794 -1.0154 1.36468 0
M  V30 2827 O 280.979 -1.01785 1.65389 0
M  V30 2828 C 278.109 -1.45312 3.15439 0
M  V30 2829 C 277.063 -0.916002 4.18083 0
M  V30 2830 C 276.389 -2.1102 4.91299 0
M  V30 2831 C 277.689 0.0538602 5.22272 0
M  V30 2832 H 279.383 0.308767 2.97804 0
M  V30 2833 H 276.929 0.149937 1.43217 0
M  V30 2834 H 278.882 -2.01914 3.69876 0
M  V30 2835 H 277.606 -2.14541 2.46252 0
M  V30 2836 H 276.265 -0.372145 3.64706 0
M  V30 2837 H 275.913 -2.78882 4.18609 0
M  V30 2838 H 275.613 -1.75717 5.60712 0
M  V30 2839 H 277.137 -2.68164 5.48562 0
M  V30 2840 H 278.551 -0.422069 5.71744 0
M  V30 2841 H 276.948 0.319776 5.99247 0
M  V30 2842 H 278.018 0.98858 4.74716 0
M  V30 2843 N 279.361 -1.56624 0.175154 0
M  V30 2844 C 280.309 -2.19468 -0.770495 0
M  V30 2845 C 281.303 -1.15985 -1.23466 0
M  V30 2846 O 282.509 -1.34176 -1.19987 0
M  V30 2847 H 278.884 -0.703095 -0.266761 0
M  V30 2848 H 280.855 -2.97613 -0.216542 0
M  V30 2849 C 279.604 -2.85264 -1.98796 0
M  V30 2850 H 278.927 -3.64623 -1.63983 0
M  V30 2851 H 280.367 -3.327 -2.62843 0
M  V30 2852 C 278.826 -1.85239 -2.81404 0
M  V30 2853 O 279.356 -1.34024 -3.78682 0
M  V30 2854 N 277.562 -1.53911 -2.46495 0
M  V30 2855 H 277.109 -1.95751 -1.67449 0
M  V30 2856 H 277.067 -0.872382 -3.02054 0
M  V30 2857 N 280.839 0.0985539 -1.57292 0
M  V30 2858 C 282.088 0.801358 -1.85098 0
M  V30 2859 C 282.401 1.80066 -0.763902 0
M  V30 2860 O 283.607 2.55112 -0.928981 0
M  V30 2861 C 282.063 1.47599 -3.28242 0
M  V30 2862 C 281.671 0.516624 -4.45011 0
M  V30 2863 C 283.415 2.16272 -3.65276 0
M  V30 2864 C 281.322 1.19564 -5.79188 0
M  V30 2865 H 280.252 0.303022 -0.69043 0
M  V30 2866 H 282.903 0.0542623 -1.8342 0
M  V30 2867 H 281.285 2.27042 -3.2445 0
M  V30 2868 H 282.459 -0.246065 -4.60143 0
M  V30 2869 H 280.774 -0.064227 -4.1635 0
M  V30 2870 H 283.371 2.67802 -4.62803 0
M  V30 2871 H 283.714 2.95009 -2.93727 0
M  V30 2872 H 284.247 1.43693 -3.70941 0
M  V30 2873 H 280.986 0.449157 -6.53959 0
M  V30 2874 H 280.506 1.92984 -5.67906 0
M  V30 2875 H 282.185 1.7231 -6.23633 0
M  V30 2876 N 282.317 1.53212 0.369288 0
M  V30 2877 C 283.563 1.70413 1.11046 0
M  V30 2878 C 283.918 0.448509 1.87099 0
M  V30 2879 O 283.211 -0.558382 1.83283 0
M  V30 2880 C 283.405 2.89101 2.10132 0
M  V30 2881 C 283.234 4.26084 1.43814 0
M  V30 2882 C 282.004 4.90994 1.19384 0
M  V30 2883 C 284.202 5.06754 0.877802 0
M  V30 2884 N 282.184 6.11911 0.49377 0
M  V30 2885 C 283.555 6.1924 0.306891 0
M  V30 2886 C 285.61 4.91814 0.776129 0
M  V30 2887 C 284.313 7.1842 -0.355774 0
M  V30 2888 C 286.339 5.91263 0.127252 0
M  V30 2889 C 285.701 7.03069 -0.432801 0
M  V30 2890 H 281.8 0.676872 0.391623 0
M  V30 2891 H 284.384 1.90603 0.397334 0
M  V30 2892 H 282.555 2.70456 2.78761 0
M  V30 2893 H 284.287 2.95142 2.76899 0
M  V30 2894 H 281.042 4.50074 1.47413 0
M  V30 2895 H 281.466 6.76813 0.159207 0
M  V30 2896 H 286.108 4.05564 1.19489 0
M  V30 2897 H 283.826 8.04264 -0.786499 0
M  V30 2898 H 287.412 5.81779 0.0495613 0
M  V30 2899 H 286.292 7.78702 -0.926958 0
M  V30 2900 N 283.795 -0.628877 1.44509 0
M  V30 2901 C 285.043 -1.38565 1.4712 0
M  V30 2902 C 285.364 -1.94712 0.105899 0
M  V30 2903 O 284.634 -1.75912 -0.862079 0
M  V30 2904 H 283.214 -0.514333 0.541729 0
M  V30 2905 H 285.876 -0.740018 1.80305 0
M  V30 2906 H 284.972 -2.21583 2.19789 0
M  V30 2907 N 285.273 -1.31445 -0.869486 0
M  V30 2908 C 286.519 -1.21337 -1.62496 0
M  V30 2909 C 286.852 0.227872 -1.92858 0
M  V30 2910 O 286.127 1.16094 -1.56053 0
M  V30 2911 C 286.41 -2.05814 -2.95487 0
M  V30 2912 C 286.263 -3.5824 -2.72 0
M  V30 2913 C 287.582 -1.9079 -3.96594 0
M  V30 2914 H 284.701 -0.442135 -0.589649 0
M  V30 2915 H 287.343 -1.6124 -1.00507 0
M  V30 2916 H 285.493 -1.71913 -3.48394 0
M  V30 2917 H 287.165 -4.0228 -2.25762 0
M  V30 2918 H 285.408 -3.81647 -2.06224 0
M  V30 2919 H 286.079 -4.12657 -3.66631 0
M  V30 2920 H 288.555 -2.20459 -3.52898 0
M  V30 2921 H 287.431 -2.52199 -4.87531 0
M  V30 2922 H 287.692 -0.871341 -4.33428 0
M  V30 2923 N 286.751 1.08385 -1.14413 0
M  V30 2924 C 287.684 2.14642 -0.774871 0
M  V30 2925 C 288.662 1.60761 0.243876 0
M  V30 2926 O 289.846 1.88031 0.132883 0
M  V30 2927 C 286.973 3.38366 -0.150491 0
M  V30 2928 C 286.019 4.10997 -1.13945 0
M  V30 2929 S 286.852 4.63797 -2.67679 0
M  V30 2930 C 288.008 5.90808 -2.06631 0
M  V30 2931 H 288.241 2.45633 -1.67487 0
M  V30 2932 H 285.774 1.20498 -0.96538 0
M  V30 2933 H 287.732 4.09996 0.203334 0
M  V30 2934 H 286.393 3.05572 0.72694 0
M  V30 2935 H 285.586 4.99783 -0.65059 0
M  V30 2936 H 285.188 3.4528 -1.43727 0
M  V30 2937 H 287.48 6.62411 -1.4219 0
M  V30 2938 H 288.423 6.4439 -2.93542 0
M  V30 2939 H 288.831 5.4383 -1.51357 0
M  V30 2940 N 288.23 0.939286 1.26551 0
M  V30 2941 C 289.16 0.465044 2.28822 0
M  V30 2942 C 290.141 -0.480692 1.63167 0
M  V30 2943 O 291.326 -0.382955 1.90387 0
M  V30 2944 C 288.456 -0.27234 3.46231 0
M  V30 2945 C 287.41 0.58666 4.2396 0
M  V30 2946 C 286.736 -0.280573 5.33963 0
M  V30 2947 C 288.036 1.85704 4.88171 0
M  V30 2948 H 289.73 1.31979 2.68741 0
M  V30 2949 H 287.276 0.636061 1.29191 0
M  V30 2950 H 289.229 -0.615133 4.16886 0
M  V30 2951 H 287.953 -1.16121 3.0526 0
M  V30 2952 H 286.612 0.91232 3.55067 0
M  V30 2953 H 286.26 -1.16874 4.89234 0
M  V30 2954 H 285.96 0.29076 5.8688 0
M  V30 2955 H 287.484 -0.618678 6.07458 0
M  V30 2956 H 288.898 1.58161 5.51052 0
M  V30 2957 H 287.295 2.37279 5.51197 0
M  V30 2958 H 288.365 2.56957 4.11219 0
M  V30 2959 N 289.708 -1.40897 0.706093 0
M  V30 2960 C 290.955 -2.01054 0.241531 0
M  V30 2961 C 291.283 -1.55956 -1.16223 0
M  V30 2962 O 290.538 -0.766336 -1.80072 0
M  V30 2963 C 290.837 -3.5646 0.259099 0
M  V30 2964 C 290.503 -4.21106 1.61184 0
M  V30 2965 C 289.165 -4.38479 1.98216 0
M  V30 2966 C 291.517 -4.57256 2.50132 0
M  V30 2967 C 288.845 -4.89282 3.2376 0
M  V30 2968 C 291.197 -5.09454 3.7502 0
M  V30 2969 C 289.861 -5.25037 4.12181 0
M  V30 2970 H 289.131 -0.73571 0.0883825 0
M  V30 2971 H 291.778 -1.68645 0.907257 0
M  V30 2972 H 290.083 -3.88721 -0.490189 0
M  V30 2973 H 291.78 -4.00826 -0.11804 0
M  V30 2974 H 288.37 -4.07966 1.31384 0
M  V30 2975 H 292.554 -4.43479 2.228 0
M  V30 2976 H 287.81 -4.99531 3.52532 0
M  V30 2977 H 291.984 -5.36404 4.44121 0
M  V30 2978 H 289.611 -5.64164 5.09532 0
M  V30 2979 N 291.186 -0.45159 -1.50991 0
M  V30 2980 C 292.435 0.111653 -2.01391 0
M  V30 2981 C 292.748 1.42529 -1.33959 0
M  V30 2982 O 293.954 2.07232 -1.75405 0
M  V30 2983 C 292.41 0.249514 -3.59034 0
M  V30 2984 C 292.018 -1.05453 -4.35412 0
M  V30 2985 C 293.762 0.765762 -4.17536 0
M  V30 2986 C 291.669 -0.881529 -5.84793 0
M  V30 2987 H 290.599 0.0455022 -0.752626 0
M  V30 2988 H 293.25 -0.583524 -1.73975 0
M  V30 2989 H 291.632 1.00803 -3.82955 0
M  V30 2990 H 292.806 -1.82248 -4.23229 0
M  V30 2991 H 291.121 -1.50039 -3.88429 0
M  V30 2992 H 293.718 0.911913 -5.26866 0
M  V30 2993 H 294.061 1.75201 -3.77638 0
M  V30 2994 H 294.594 0.0651744 -3.97747 0
M  V30 2995 H 291.333 -1.84057 -6.29129 0
M  V30 2996 H 290.853 -0.153625 -5.99603 0
M  V30 2997 H 292.532 -0.540363 -6.4474 0
M  V30 2998 N 292.664 1.56529 -0.183458 0
M  V30 2999 C 294.08 1.58664 0.172554 0
M  V30 3000 C 294.28 1.19925 1.61926 0
M  V30 3001 O 293.336 0.916534 2.35278 0
M  V30 3002 C 294.649 3.00463 -0.119262 0
M  V30 3003 C 296.197 3.12945 -0.0584396 0
M  V30 3004 C 296.672 4.56857 -0.323408 0
M  V30 3005 N 298.163 4.62403 -0.271612 0
M  V30 3006 C 298.898 5.71626 -0.450639 0
M  V30 3007 N 298.394 6.89362 -0.689384 0
M  V30 3008 N 300.187 5.60775 -0.385701 0
M  V30 3009 H 292.338 1.79994 -1.12765 0
M  V30 3010 H 294.601 0.834808 -0.449222 0
M  V30 3011 H 294.307 3.33326 -1.12192 0
M  V30 3012 H 294.181 3.72659 0.583544 0
M  V30 3013 H 296.568 2.79902 0.934805 0
M  V30 3014 H 296.649 2.4316 -0.794144 0
M  V30 3015 H 296.293 4.9061 -1.31392 0
M  V30 3016 H 296.223 5.24816 0.43305 0
M  V30 3017 H 298.714 3.77785 -0.0932256 0
M  V30 3018 H 299.027 7.68489 -0.815113 0
M  V30 3019 H 297.372 6.91196 -0.726142 0
M  V30 3020 H 300.563 4.67674 -0.199687 0
M  V30 3021 H 300.736 6.4584 -0.528646 0
M  V30 3022 N 294.142 -0.090211 1.57342 0
M  V30 3023 C 295.072 -1.10976 2.05443 0
M  V30 3024 C 296.053 -1.41482 0.944284 0
M  V30 3025 O 297.238 -1.51428 1.21586 0
M  V30 3026 C 294.368 -2.42831 2.48295 0
M  V30 3027 C 293.322 -2.26721 3.63018 0
M  V30 3028 C 292.648 -3.63796 3.91863 0
M  V30 3029 C 293.948 -1.7037 4.93732 0
M  V30 3030 H 295.642 -0.709564 2.9087 0
M  V30 3031 H 293.188 -0.339874 1.39932 0
M  V30 3032 H 295.141 -3.14431 2.80555 0
M  V30 3033 H 293.865 -2.84795 1.59873 0
M  V30 3034 H 292.524 -1.57565 3.31012 0
M  V30 3035 H 292.172 -4.03297 3.00601 0
M  V30 3036 H 291.872 -3.53861 4.69101 0
M  V30 3037 H 293.396 -4.36855 4.26603 0
M  V30 3038 H 294.81 -2.31816 5.24342 0
M  V30 3039 H 293.207 -1.71181 5.75167 0
M  V30 3040 H 294.277 -0.663542 4.80339 0
M  V30 3041 N 295.62 -1.53406 -0.361157 0
M  V30 3042 C 296.845 -1.74024 -1.12829 0
M  V30 3043 C 297.27 -0.470069 -1.82132 0
M  V30 3044 O 296.628 0.57619 -1.719 0
M  V30 3045 C 296.676 -2.90903 -2.13091 0
M  V30 3046 O 295.78 -2.59821 -3.20261 0
M  V30 3047 H 295.121 -0.577804 -0.327168 0
M  V30 3048 H 297.651 -2.00307 -0.41693 0
M  V30 3049 H 297.661 -3.17194 -2.56616 0
M  V30 3050 H 296.336 -3.83034 -1.62042 0
M  V30 3051 H 294.913 -2.44362 -2.81677 0
M  V30 3052 N 297.098 0.621204 -1.44841 0
M  V30 3053 C 298.344 1.38073 -1.49357 0
M  V30 3054 C 298.699 1.91973 -0.128115 0
M  V30 3055 O 297.992 1.71311 0.858087 0
M  V30 3056 C 298.186 2.55675 -2.4973 0
M  V30 3057 C 298.015 2.13289 -3.95901 0
M  V30 3058 C 296.785 2.001 -4.63991 0
M  V30 3059 C 298.983 1.7159 -4.84831 0
M  V30 3060 N 296.965 1.51381 -5.94943 0
M  V30 3061 C 298.336 1.34188 -6.05304 0
M  V30 3062 C 300.391 1.59059 -4.7181 0
M  V30 3063 C 299.094 0.855085 -7.14199 0
M  V30 3064 C 301.12 1.11784 -5.8074 0
M  V30 3065 C 300.482 0.753385 -7.0036 0
M  V30 3066 H 296.581 0.499675 -0.601539 0
M  V30 3067 H 299.165 0.711609 -1.8123 0
M  V30 3068 H 297.336 3.20201 -2.19832 0
M  V30 3069 H 299.068 3.22509 -2.4448 0
M  V30 3070 H 295.823 2.20863 -4.18947 0
M  V30 3071 H 296.247 1.29293 -6.64539 0
M  V30 3072 H 300.889 1.85865 -3.79755 0
M  V30 3073 H 298.607 0.574552 -8.06055 0
M  V30 3074 H 302.193 1.02533 -5.72694 0
M  V30 3075 H 301.073 0.393183 -7.83214 0
M  V30 3076 N 298.576 1.31904 0.862503 0
M  V30 3077 C 299.825 1.21373 1.61094 0
M  V30 3078 C 300.138 -0.22504 1.94301 0
M  V30 3079 O 301.344 -0.452121 2.67709 0
M  V30 3080 C 299.8 2.12525 2.9045 0
M  V30 3081 C 299.408 3.61441 2.64697 0
M  V30 3082 C 301.152 2.10813 3.68454 0
M  V30 3083 C 299.059 4.44578 3.90006 0
M  V30 3084 H 297.989 0.450705 0.604468 0
M  V30 3085 H 300.64 1.56811 0.953027 0
M  V30 3086 H 299.022 1.69994 3.57656 0
M  V30 3087 H 300.196 4.12264 2.05851 0
M  V30 3088 H 298.511 3.65205 2.00036 0
M  V30 3089 H 301.108 2.70167 4.61426 0
M  V30 3090 H 301.451 1.09713 4.01583 0
M  V30 3091 H 301.984 2.51583 3.08141 0
M  V30 3092 H 298.723 5.46461 3.62023 0
M  V30 3093 H 298.243 3.98508 4.48276 0
M  V30 3094 H 299.922 4.57176 4.5782 0
M  V30 3095 N 300.054 -1.07777 1.14986 0
M  V30 3096 C 301.3 -1.80557 0.923422 0
M  V30 3097 C 301.633 -1.86298 -0.548337 0
M  V30 3098 O 300.908 -1.34354 -1.40639 0
M  V30 3099 C 301.191 -3.25839 1.53299 0
M  V30 3100 C 301.044 -3.28269 3.07505 0
M  V30 3101 C 302.363 -4.22991 1.21518 0
M  V30 3102 H 299.482 -0.655493 0.336894 0
M  V30 3103 H 302.124 -1.26144 1.42083 0
M  V30 3104 H 300.274 -3.72306 1.10999 0
M  V30 3105 H 301.946 -2.90079 3.58681 0
M  V30 3106 H 300.189 -2.67355 3.4162 0
M  V30 3107 H 300.86 -4.30691 3.45266 0
M  V30 3108 H 303.336 -3.84894 1.581 0
M  V30 3109 H 302.212 -5.22945 1.66793 0
M  V30 3110 H 302.473 -4.41904 0.131505 0
M  V30 3111 N 301.532 -0.945985 -1.26051 0
M  V30 3112 C 302.78 -0.594941 -1.93145 0
M  V30 3113 C 303.101 0.86953 -1.7454 0
M  V30 3114 O 302.371 1.61838 -1.10387 0
M  V30 3115 H 300.951 -0.217044 -0.714773 0
M  V30 3116 H 303.613 -1.20235 -1.53393 0
M  V30 3117 H 302.709 -0.816835 -3.01221 0
M  V30 3118 N 303.011 1.40521 -0.713556 0
M  V30 3119 C 303.921 2.34522 -0.0606667 0
M  V30 3120 C 304.937 1.57193 0.74607 0
M  V30 3121 O 306.113 1.89591 0.679493 0
M  V30 3122 C 303.178 3.36081 0.851491 0
M  V30 3123 C 302.239 4.29286 0.0349339 0
M  V30 3124 C 301.472 5.25994 0.903649 0
M  V30 3125 O 301.695 5.28616 2.14292 0
M  V30 3126 O 300.629 6.00918 0.343723 0
M  V30 3127 H 304.455 2.91968 -0.835972 0
M  V30 3128 H 302.04 1.41681 -0.47402 0
M  V30 3129 H 303.922 3.98369 1.37404 0
M  V30 3130 H 302.597 2.81052 1.60598 0
M  V30 3131 H 301.504 3.70289 -0.532633 0
M  V30 3132 H 302.837 4.87462 -0.681287 0
M  V30 3133 N 304.489 0.459591 1.5075 0
M  V30 3134 C 305.452 -0.329093 2.26825 0
M  V30 3135 C 306.452 -0.930481 1.31144 0
M  V30 3136 O 307.642 -0.801453 1.54669 0
M  V30 3137 C 304.774 -1.46768 3.07688 0
M  V30 3138 H 305.967 0.337924 2.9799 0
M  V30 3139 H 303.52 0.213336 1.54837 0
M  V30 3140 H 304.255 -2.17009 2.40993 0
M  V30 3141 H 304.04 -1.04238 3.77991 0
M  V30 3142 H 305.53 -2.02433 3.65254 0
M  V30 3143 N 305.967 -1.56429 0.191757 0
M  V30 3144 C 307.215 -1.97095 -0.447006 0
M  V30 3145 C 307.536 -1.07967 -1.62383 0
M  V30 3146 O 306.806 -0.150248 -1.95323 0
M  V30 3147 H 305.386 -0.727832 -0.168135 0
M  V30 3148 H 308.048 -1.92911 0.27771 0
M  V30 3149 H 307.144 -3.01848 -0.793371 0
M  V30 3150 N 307.445 0.0818655 -1.57387 0
M  V30 3151 C 308.694 0.781681 -1.85937 0
M  V30 3152 C 309.007 1.79246 -0.782957 0
M  V30 3153 O 310.213 2.54112 -0.955987 0
M  V30 3154 C 308.669 1.44109 -3.29789 0
M  V30 3155 C 308.277 0.469396 -4.45534 0
M  V30 3156 C 310.021 2.12386 -3.67549 0
M  V30 3157 C 307.928 1.13415 -5.80423 0
M  V30 3158 H 306.858 0.295682 -0.693605 0
M  V30 3159 H 309.509 0.0348051 -1.83467 0
M  V30 3160 H 307.891 2.23588 -3.2684 0
M  V30 3161 H 309.065 -0.294856 -4.59856 0
M  V30 3162 H 307.38 -0.108383 -4.16259 0
M  V30 3163 H 309.977 2.62878 -4.65617 0
M  V30 3164 H 310.32 2.91877 -2.96839 0
M  V30 3165 H 310.853 1.39751 -3.72444 0
M  V30 3166 H 307.592 0.379771 -6.54399 0
M  V30 3167 H 307.112 1.8695 -5.69921 0
M  V30 3168 H 308.791 1.65686 -6.25426 0
M  V30 3169 N 308.923 1.53595 0.353017 0
M  V30 3170 C 310.171 1.70049 1.09215 0
M  V30 3171 C 310.492 0.461406 1.89463 0
M  V30 3172 O 309.762 -0.524633 1.88744 0
M  V30 3173 H 308.342 0.626912 0.40619 0
M  V30 3174 H 311.004 1.90822 0.396585 0
M  V30 3175 H 310.1 2.56718 1.77488 0
M  V30 3176 N 310.401 -0.613514 1.45168 0
M  V30 3177 C 311.331 -1.7354 1.56225 0
M  V30 3178 C 312.312 -1.64981 0.41414 0
M  V30 3179 O 313.497 -1.83472 0.636526 0
M  V30 3180 C 310.627 -3.12128 1.52295 0
M  V30 3181 C 309.581 -3.35491 2.65762 0
M  V30 3182 C 308.907 -4.74291 2.46885 0
M  V30 3183 C 310.207 -3.26325 4.0781 0
M  V30 3184 H 311.901 -1.64543 2.50132 0
M  V30 3185 H 309.447 -0.790185 1.20383 0
M  V30 3186 H 311.4 -3.90404 1.58628 0
M  V30 3187 H 310.124 -3.2195 0.549139 0
M  V30 3188 H 308.783 -2.59603 2.58847 0
M  V30 3189 H 308.431 -4.80839 1.47657 0
M  V30 3190 H 308.131 -4.9088 3.22972 0
M  V30 3191 H 309.655 -5.54775 2.55063 0
M  V30 3192 H 311.069 -3.94483 4.16 0
M  V30 3193 H 309.466 -3.54445 4.8424 0
M  V30 3194 H 310.536 -2.23855 4.30136 0
M  V30 3195 N 311.879 -1.3236 -0.855495 0
M  V30 3196 C 313.127 -1.22629 -1.60644 0
M  V30 3197 C 313.448 0.212136 -1.93843 0
M  V30 3198 O 312.718 1.13666 -1.59552 0
M  V30 3199 H 311.298 -0.450882 -0.595579 0
M  V30 3200 H 313.96 -1.65871 -1.02337 0
M  V30 3201 H 313.056 -1.80832 -2.54374 0
M  V30 3202 N 313.357 1.07166 -1.15556 0
M  V30 3203 C 314.603 1.80065 -0.932984 0
M  V30 3204 C 314.936 1.86586 0.53845 0
M  V30 3205 O 314.211 1.35098 1.39924 0
M  V30 3206 C 314.494 3.25022 -1.55025 0
M  V30 3207 C 314.347 3.26634 -3.09242 0
M  V30 3208 C 315.666 4.22341 -1.2376 0
M  V30 3209 H 312.785 0.653697 -0.340366 0
M  V30 3210 H 315.427 1.25389 -1.4275 0
M  V30 3211 H 313.577 3.71712 -1.12972 0
M  V30 3212 H 315.249 2.88173 -3.60214 0
M  V30 3213 H 313.492 2.65539 -3.43033 0
M  V30 3214 H 314.163 4.28854 -3.47546 0
M  V30 3215 H 316.639 3.8405 -1.60139 0
M  V30 3216 H 315.515 5.22053 -1.69564 0
M  V30 3217 H 315.776 4.41828 -0.154938 0
M  V30 3218 N 314.835 0.952656 1.25548 0
M  V30 3219 C 315.765 0.489287 2.28316 0
M  V30 3220 C 316.746 -0.463359 1.63667 0
M  V30 3221 O 317.931 -0.36274 1.90782 0
M  V30 3222 C 315.061 -0.235603 3.465 0
M  V30 3223 C 314.015 0.631593 4.23314 0
M  V30 3224 C 313.341 -0.223923 5.34231 0
M  V30 3225 C 314.641 1.90871 4.86174 0
M  V30 3226 H 316.335 1.34822 2.67326 0
M  V30 3227 H 313.881 0.649728 1.28509 0
M  V30 3228 H 315.834 -0.570882 4.17515 0
M  V30 3229 H 314.558 -1.12877 3.06474 0
M  V30 3230 H 313.217 0.949929 3.54079 0
M  V30 3231 H 312.865 -1.11678 4.90446 0
M  V30 3232 H 312.565 0.35299 5.86539 0
M  V30 3233 H 314.089 -0.554214 6.0808 0
M  V30 3234 H 315.503 1.63997 5.49343 0
M  V30 3235 H 313.9 2.43112 5.4865 0
M  V30 3236 H 314.97 2.61304 4.08471 0
M  V30 3237 N 316.313 -1.40141 0.720998 0
M  V30 3238 C 317.562 -2.0002 0.259804 0
M  V30 3239 C 317.875 -1.57839 -1.15526 0
M  V30 3240 O 319.081 -2.10455 -1.71525 0
M  V30 3241 C 317.537 -3.57516 0.413566 0
M  V30 3242 C 317.145 -4.08667 1.83562 0
M  V30 3243 C 318.889 -4.24498 0.0134387 0
M  V30 3244 C 316.796 -5.58686 1.93968 0
M  V30 3245 H 315.726 -0.748195 0.0933806 0
M  V30 3246 H 318.377 -1.60313 0.892866 0
M  V30 3247 H 316.759 -3.9495 -0.288169 0
M  V30 3248 H 317.933 -3.82598 2.56817 0
M  V30 3249 H 316.248 -3.543 2.1877 0
M  V30 3250 H 318.845 -5.34654 0.0703954 0
M  V30 3251 H 319.188 -4.03375 -1.02927 0
M  V30 3252 H 319.721 -3.92188 0.665815 0
M  V30 3253 H 316.46 -5.8467 2.96379 0
M  V30 3254 H 315.98 -5.86602 1.25131 0
M  V30 3255 H 317.659 -6.23875 1.71431 0
M  V30 3256 N 317.792 -0.46758 -1.50504 0
M  V30 3257 C 319.041 0.0902868 -2.01498 0
M  V30 3258 C 319.354 1.411 -1.35463 0
M  V30 3259 O 320.56 2.0536 -1.77594 0
M  V30 3260 C 319.016 0.21142 -3.59278 0
M  V30 3261 C 318.624 -1.10065 -4.34269 0
M  V30 3262 C 320.368 0.721433 -4.18325 0
M  V30 3263 C 318.275 -0.943505 -5.83825 0
M  V30 3264 H 317.205 0.037517 -0.753066 0
M  V30 3265 H 319.856 -0.601943 -1.73346 0
M  V30 3266 H 318.238 0.967352 -3.84003 0
M  V30 3267 H 319.412 -1.86726 -4.21272 0
M  V30 3268 H 317.727 -1.5415 -3.86816 0
M  V30 3269 H 320.324 0.85598 -5.27804 0
M  V30 3270 H 320.667 1.71186 -3.79475 0
M  V30 3271 H 321.2 0.0229843 -3.97793 0
M  V30 3272 H 317.939 -1.90719 -6.27141 0
M  V30 3273 H 317.459 -0.217213 -5.99407 0
M  V30 3274 H 319.138 -0.608715 -6.4413 0
M  V30 3275 N 319.27 1.56325 -0.20005 0
M  V30 3276 C 320.2 2.22318 0.713916 0
M  V30 3277 C 321.181 1.18788 1.21752 0
M  V30 3278 O 322.366 1.47309 1.26545 0
M  V30 3279 C 319.496 2.88639 1.93144 0
M  V30 3280 C 318.45 3.98457 1.56255 0
M  V30 3281 C 317.776 4.51967 2.85709 0
M  V30 3282 C 319.076 5.16612 0.768747 0
M  V30 3283 H 320.77 2.98952 0.163755 0
M  V30 3284 H 318.316 1.43792 0.0773219 0
M  V30 3285 H 320.269 3.33491 2.57608 0
M  V30 3286 H 318.993 2.09419 2.50621 0
M  V30 3287 H 317.652 3.54305 0.941471 0
M  V30 3288 H 317.3 3.69503 3.41287 0
M  V30 3289 H 317 5.26071 2.6177 0
M  V30 3290 H 318.524 4.99523 3.51154 0
M  V30 3291 H 319.938 5.57977 1.3166 0
M  V30 3292 H 318.335 5.96812 0.627286 0
M  V30 3293 H 319.405 4.84358 -0.229168 0
M  V30 3294 N 320.748 -0.0735177 1.57428 0
M  V30 3295 C 321.678 -1.0879 2.06608 0
M  V30 3296 C 322.659 -1.40473 0.959237 0
M  V30 3297 O 323.844 -1.5013 1.23185 0
M  V30 3298 C 320.974 -2.40183 2.50857 0
M  V30 3299 C 319.928 -2.22858 3.65402 0
M  V30 3300 C 319.254 -3.59619 3.957 0
M  V30 3301 C 320.554 -1.65123 4.95511 0
M  V30 3302 H 322.248 -0.678673 2.91607 0
M  V30 3303 H 319.794 -0.325013 1.40284 0
M  V30 3304 H 321.747 -3.11437 2.83874 0
M  V30 3305 H 320.471 -2.83083 1.62885 0
M  V30 3306 H 319.13 -1.54045 3.32664 0
M  V30 3307 H 318.778 -4.00086 3.04861 0
M  V30 3308 H 318.478 -3.48866 4.72828 0
M  V30 3309 H 320.002 -4.32306 4.31212 0
M  V30 3310 H 321.416 -2.26241 5.26771 0
M  V30 3311 H 319.813 -1.65071 5.7695 0
M  V30 3312 H 320.883 -0.612559 4.81015 0
M  V30 3313 N 322.226 -1.5378 -0.344866 0
M  V30 3314 C 323.451 -1.75211 -1.10977 0
M  V30 3315 C 323.876 -0.48936 -1.81623 0
M  V30 3316 O 323.234 0.557925 -1.72502 0
M  V30 3317 C 323.282 -2.93147 -2.09993 0
M  V30 3318 O 322.386 -2.63203 -3.17487 0
M  V30 3319 H 321.727 -0.581241 -0.321021 0
M  V30 3320 H 324.257 -2.00738 -0.395661 0
M  V30 3321 H 324.267 -3.19898 -2.53237 0
M  V30 3322 H 322.942 -3.84731 -1.5797 0
M  V30 3323 H 321.519 -2.47336 -2.79069 0
M  V30 3324 N 323.704 0.605807 -1.45491 0
M  V30 3325 C 324.932 1.39136 -1.5313 0
M  V30 3326 C 325.347 1.88082 -0.164507 0
M  V30 3327 O 324.704 1.62316 0.834247 0
M  V30 3328 C 324.755 2.59463 -2.51716 0
M  V30 3329 O 324.476 2.12551 -3.83084 0
M  V30 3330 C 325.977 3.52301 -2.6907 0
M  V30 3331 H 323.197 0.425849 -0.51855 0
M  V30 3332 H 325.741 0.73865 -1.90694 0
M  V30 3333 H 323.896 3.20772 -2.17219 0
M  V30 3334 H 324.31 2.90744 -4.36541 0
M  V30 3335 H 325.784 4.33271 -3.42024 0
M  V30 3336 H 326.261 4.02757 -1.75167 0
M  V30 3337 H 326.867 2.96845 -3.04571 0
M  V30 3338 N 325.182 1.32811 0.848464 0
M  V30 3339 C 326.115 1.16601 1.96162 0
M  V30 3340 C 327.093 0.0638855 1.62474 0
M  V30 3341 O 328.277 0.224348 1.8716 0
M  V30 3342 C 325.404 0.786333 3.29446 0
M  V30 3343 C 324.45 1.89459 3.8211 0
M  V30 3344 S 325.283 3.50395 4.04949 0
M  V30 3345 C 326.439 3.14413 5.41198 0
M  V30 3346 H 326.672 2.10832 2.09612 0
M  V30 3347 H 324.205 1.17543 1.00115 0
M  V30 3348 H 326.163 0.574044 4.06466 0
M  V30 3349 H 324.824 -0.137218 3.138 0
M  V30 3350 H 324.017 1.58207 4.78526 0
M  V30 3351 H 323.619 2.06304 3.11953 0
M  V30 3352 H 325.911 2.64642 6.23675 0
M  V30 3353 H 326.854 4.09874 5.77416 0
M  V30 3354 H 327.262 2.51266 5.05495 0
M  V30 3355 N 326.66 -1.06551 1.16123 0
M  V30 3356 C 327.906 -1.79567 0.94252 0
M  V30 3357 C 328.239 -1.86869 -0.528547 0
M  V30 3358 O 327.514 -1.35838 -1.39206 0
M  V30 3359 C 327.797 -3.24195 1.56747 0
M  V30 3360 C 327.65 -3.24989 3.10969 0
M  V30 3361 C 328.969 -4.21678 1.25998 0
M  V30 3362 H 326.088 -0.651883 0.343828 0
M  V30 3363 H 328.73 -1.2463 1.43413 0
M  V30 3364 H 326.88 -3.71107 1.14942 0
M  V30 3365 H 328.552 -2.86258 3.61737 0
M  V30 3366 H 326.795 -2.63716 3.44436 0
M  V30 3367 H 327.466 -4.27005 3.49815 0
M  V30 3368 H 329.942 -3.83196 1.62174 0
M  V30 3369 H 328.818 -5.21146 1.7233 0
M  V30 3370 H 329.079 -4.4174 0.178367 0
M  V30 3371 N 328.138 -0.959301 -1.25041 0
M  V30 3372 C 329.366 -0.633949 -1.96948 0
M  V30 3373 C 329.781 0.794916 -1.7125 0
M  V30 3374 O 329.138 1.53231 -0.991287 0
M  V30 3375 C 329.189 -0.888805 -3.50403 0
M  V30 3376 O 328.91 -2.26149 -3.75218 0
M  V30 3377 C 330.411 -0.576482 -4.39536 0
M  V30 3378 H 327.631 -0.237263 -0.627652 0
M  V30 3379 H 330.175 -1.28495 -1.59089 0
M  V30 3380 H 328.33 -0.284145 -3.86357 0
M  V30 3381 H 328.744 -2.33514 -4.6965 0
M  V30 3382 H 330.218 -0.805314 -5.46094 0
M  V30 3383 H 330.695 0.489075 -4.36468 0
M  V30 3384 H 331.301 -1.16067 -4.09156 0
M  V30 3385 N 329.616 1.39756 -0.72842 0
M  V30 3386 C 330.841 2.05472 -0.282159 0
M  V30 3387 C 331.266 1.54549 1.07221 0
M  V30 3388 O 330.624 0.686372 1.67805 0
M  V30 3389 C 330.672 3.59462 -0.286264 0
M  V30 3390 O 329.776 4.05918 0.728298 0
M  V30 3391 H 329.117 0.651226 -0.129618 0
M  V30 3392 H 331.647 1.78915 -0.992499 0
M  V30 3393 H 331.657 4.07798 -0.128373 0
M  V30 3394 H 330.332 3.95889 -1.27456 0
M  V30 3395 H 328.909 3.69012 0.537081 0
M  V30 3396 N 331.094 0.475555 1.50254 0
M  V30 3397 C 332.343 -0.0795996 2.01543 0
M  V30 3398 C 332.656 -1.4038 1.36209 0
M  V30 3399 O 333.862 -2.04415 1.7868 0
M  V30 3400 C 332.318 -0.192363 3.59386 0
M  V30 3401 C 331.926 1.12367 4.33679 0
M  V30 3402 C 333.67 -0.699238 4.18701 0
M  V30 3403 C 331.577 0.974453 5.83317 0
M  V30 3404 H 330.507 -0.0335228 0.753254 0
M  V30 3405 H 333.158 0.611128 1.73025 0
M  V30 3406 H 331.54 -0.946974 3.84511 0
M  V30 3407 H 332.714 1.88958 4.20276 0
M  V30 3408 H 331.029 1.562 3.85993 0
M  V30 3409 H 333.626 -0.827978 5.28251 0
M  V30 3410 H 333.969 -1.69171 3.80377 0
M  V30 3411 H 334.502 -0.00188807 3.978 0
M  V30 3412 H 331.241 1.94042 6.26121 0
M  V30 3413 H 330.761 0.248998 5.99283 0
M  V30 3414 H 332.44 0.642867 6.43798 0
M  V30 3415 N 332.573 -1.56217 0.208337 0
M  V30 3416 C 333.801 -2.02337 -0.43215 0
M  V30 3417 C 334.216 -1.08834 -1.54275 0
M  V30 3418 O 333.573 -0.0955462 -1.8225 0
M  V30 3419 C 333.624 -3.48072 -0.976138 0
M  V30 3420 O 333.345 -4.38007 0.0901621 0
M  V30 3421 C 334.846 -4.09773 -1.69119 0
M  V30 3422 H 332.066 -0.662385 -0.10718 0
M  V30 3423 H 334.61 -2.01966 0.320923 0
M  V30 3424 H 332.765 -3.49099 -1.67954 0
M  V30 3425 H 333.179 -5.23543 -0.316701 0
M  V30 3426 H 334.653 -5.13556 -2.02397 0
M  V30 3427 H 335.13 -3.53999 -2.59964 0
M  V30 3428 H 335.736 -4.12556 -1.03332 0
M  V30 3429 N 334.051 0.0651679 -1.57465 0
M  V30 3430 C 335.299 0.761555 -1.87202 0
M  V30 3431 C 335.62 1.77778 -0.801243 0
M  V30 3432 O 334.89 1.95166 0.16937 0
M  V30 3433 H 333.47 0.284251 -0.690804 0
M  V30 3434 H 336.132 0.0396827 -1.9486 0
M  V30 3435 H 335.228 1.27365 -2.84929 0
M  V30 3436 N 335.529 1.53961 0.336706 0
M  V30 3437 C 336.459 1.85417 1.41925 0
M  V30 3438 C 337.44 0.709856 1.5458 0
M  V30 3439 O 338.625 0.962396 1.68676 0
M  V30 3440 C 335.755 2.06985 2.78881 0
M  V30 3441 C 334.709 3.22813 2.81026 0
M  V30 3442 C 334.035 3.29727 4.20932 0
M  V30 3443 C 335.335 4.60767 2.45949 0
M  V30 3444 H 337.029 2.76079 1.15848 0
M  V30 3445 H 334.575 1.32839 0.555859 0
M  V30 3446 H 336.528 2.27575 3.54665 0
M  V30 3447 H 335.252 1.13061 3.06406 0
M  V30 3448 H 333.911 3.0209 2.07695 0
M  V30 3449 H 333.559 2.33385 4.45579 0
M  V30 3450 H 333.259 4.07566 4.23277 0
M  V30 3451 H 334.783 3.52536 4.98549 0
M  V30 3452 H 336.197 4.81325 3.11446 0
M  V30 3453 H 334.594 5.4106 2.59566 0
M  V30 3454 H 335.664 4.6391 1.41122 0
M  V30 3455 N 337.007 -0.598083 1.45811 0
M  V30 3456 C 338.232 -1.3881 1.54099 0
M  V30 3457 C 338.657 -1.8726 0.177578 0
M  V30 3458 O 338.015 -1.6069 -0.839541 0
M  V30 3459 C 338.063 -2.56217 2.53743 0
M  V30 3460 O 337.167 -3.5716 2.06182 0
M  V30 3461 H 336.508 -0.414024 0.519115 0
M  V30 3462 H 339.038 -0.726971 1.91249 0
M  V30 3463 H 339.048 -3.03337 2.72856 0
M  V30 3464 H 337.723 -2.20303 3.5276 0
M  V30 3465 H 336.3 -3.16624 1.96987 0
M  V30 3466 N 338.485 -1.33259 -0.841409 0
M  V30 3467 C 339.713 -1.27605 -1.62864 0
M  V30 3468 C 340.128 0.153507 -1.88175 0
M  V30 3469 O 339.485 1.09485 -1.46011 0
M  V30 3470 C 339.536 -2.04596 -2.98031 0
M  V30 3471 O 339.257 -3.41975 -2.73834 0
M  V30 3472 C 340.758 -2.06122 -3.92465 0
M  V30 3473 H 337.978 -0.439718 -0.506842 0
M  V30 3474 H 340.522 -1.75591 -1.04824 0
M  V30 3475 H 338.677 -1.60299 -3.5268 0
M  V30 3476 H 339.091 -3.81549 -3.59889 0
M  V30 3477 H 340.565 -2.64451 -4.84531 0
M  V30 3478 H 341.042 -1.05083 -4.26444 0
M  V30 3479 H 341.648 -2.50427 -3.43753 0
M  V30 3480 N 339.963 1.05934 -1.16686 0
M  V30 3481 C 341.188 1.83029 -0.975455 0
M  V30 3482 C 341.613 1.82096 0.471452 0
M  V30 3483 O 340.971 1.22443 1.33706 0
M  V30 3484 C 341.019 3.27372 -1.51195 0
M  V30 3485 O 340.123 4.06054 -0.720701 0
M  V30 3486 H 339.464 0.566194 -0.346872 0
M  V30 3487 H 341.994 1.33541 -1.55009 0
M  V30 3488 H 342.004 3.78186 -1.53099 0
M  V30 3489 H 340.679 3.27366 -2.56523 0
M  V30 3490 H 339.256 3.64812 -0.772458 0
M  V30 3491 N 341.441 0.965919 1.2453 0
M  V30 3492 C 342.404 0.499547 2.2369 0
M  V30 3493 C 343.404 -0.40294 1.5567 0
M  V30 3494 O 344.594 -0.19865 1.73064 0
M  V30 3495 C 341.726 -0.276792 3.39774 0
M  V30 3496 H 342.919 1.37613 2.66463 0
M  V30 3497 H 340.472 0.750324 1.37112 0
M  V30 3498 H 341.207 -1.17055 3.02438 0
M  V30 3499 H 340.992 0.370826 3.90343 0
M  V30 3500 H 342.482 -0.592175 4.1338 0
M  V30 3501 N 342.919 -1.39368 0.735821 0
M  V30 3502 C 344.168 -1.99733 0.281004 0
M  V30 3503 C 344.481 -1.59055 -1.13846 0
M  V30 3504 O 345.687 -2.12262 -1.69284 0
M  V30 3505 C 344.143 -3.57057 0.451462 0
M  V30 3506 C 343.751 -4.06697 1.87886 0
M  V30 3507 C 345.495 -4.2446 0.0584616 0
M  V30 3508 C 343.402 -5.56598 1.99883 0
M  V30 3509 H 342.332 -0.747163 0.101311 0
M  V30 3510 H 344.983 -1.59357 0.909819 0
M  V30 3511 H 343.365 -3.95234 -0.246263 0
M  V30 3512 H 344.539 -3.79853 2.60861 0
M  V30 3513 H 342.854 -3.5196 2.22515 0
M  V30 3514 H 345.451 -5.34549 0.127099 0
M  V30 3515 H 345.794 -4.04444 -0.986433 0
M  V30 3516 H 346.327 -3.9146 0.707374 0
M  V30 3517 H 343.066 -5.81494 3.02564 0
M  V30 3518 H 342.586 -5.85242 1.31346 0
M  V30 3519 H 344.265 -6.22022 1.78039 0
M  V30 3520 N 344.397 -0.483516 -1.5 0
M  V30 3521 C 345.36 0.292965 -2.2732 0
M  V30 3522 C 346.36 0.909499 -1.32608 0
M  V30 3523 O 347.55 0.776745 -1.55924 0
M  V30 3524 C 344.682 1.41854 -3.09984 0
M  V30 3525 H 345.875 -0.385289 -2.97415 0
M  V30 3526 H 343.428 -0.237942 -1.54478 0
M  V30 3527 H 344.163 2.13148 -2.44414 0
M  V30 3528 H 343.948 0.982114 -3.79601 0
M  V30 3529 H 345.438 1.96597 -3.68429 0
M  V30 3530 N 345.875 1.56104 -0.216619 0
M  V30 3531 C 347.103 2.02563 0.421413 0
M  V30 3532 C 347.518 1.0965 1.53695 0
M  V30 3533 O 346.875 0.10521 1.82196 0
M  V30 3534 C 346.926 3.48584 0.957665 0
M  V30 3535 O 346.647 4.37953 -0.113389 0
M  V30 3536 C 348.148 4.10664 1.66943 0
M  V30 3537 H 345.368 0.662944 0.103665 0
M  V30 3538 H 347.912 2.01793 -0.331629 0
M  V30 3539 H 346.067 3.49985 1.661 0
M  V30 3540 H 346.481 5.23704 0.288932 0
M  V30 3541 H 347.955 5.14622 1.99671 0
M  V30 3542 H 348.432 3.55373 2.58083 0
M  V30 3543 H 349.038 4.13098 1.01142 0
M  V30 3544 N 347.353 -0.0568162 1.57498 0
M  V30 3545 C 348.301 -1.08452 2.05769 0
M  V30 3546 C 349.295 -1.39164 0.965903 0
M  V30 3547 O 350.501 -1.38395 1.15095 0
M  V30 3548 H 346.876 -0.367148 0.656282 0
M  V30 3549 H 348.847 -0.651368 2.91204 0
M  V30 3550 C 347.596 -2.38543 2.52968 0
M  V30 3551 H 346.919 -2.15765 3.36579 0
M  V30 3552 H 348.359 -3.08863 2.90481 0
M  V30 3553 C 346.818 -3.05562 1.41893 0
M  V30 3554 O 347.348 -3.94262 0.769442 0
M  V30 3555 N 345.554 -2.6643 1.16032 0
M  V30 3556 H 345.101 -1.94387 1.6903 0
M  V30 3557 H 345.059 -3.11593 0.419219 0
M  V30 3558 N 348.832 -1.54138 -0.328536 0
M  V30 3559 C 350.08 -1.71765 -1.06496 0
M  V30 3560 C 350.401 -0.49149 -1.88704 0
M  V30 3561 O 349.671 0.494539 -1.89555 0
M  V30 3562 H 348.251 -0.633295 -0.396164 0
M  V30 3563 H 350.913 -1.91429 -0.366176 0
M  V30 3564 H 350.009 -2.5951 -1.73381 0
M  V30 3565 N 350.31 0.590341 -1.46126 0
M  V30 3566 C 351.557 1.34882 -1.5104 0
M  V30 3567 C 351.885 1.93849 -0.159021 0
M  V30 3568 O 351.14 1.76544 0.844436 0
M  V30 3569 C 351.439 2.5032 -2.55097 0
M  V30 3570 C 351.105 2.09394 -3.99331 0
M  V30 3571 C 349.767 1.97947 -4.38601 0
M  V30 3572 C 352.119 1.77712 -4.89967 0
M  V30 3573 C 349.447 1.53065 -5.66381 0
M  V30 3574 C 351.799 1.34312 -6.18177 0
M  V30 3575 C 350.463 1.21436 -6.56361 0
M  V30 3576 H 349.733 0.493568 -0.552695 0
M  V30 3577 H 352.38 0.665539 -1.79563 0
M  V30 3578 H 350.685 3.24062 -2.20207 0
M  V30 3579 H 352.382 3.08541 -2.56132 0
M  V30 3580 H 348.972 2.19235 -3.68285 0
M  V30 3581 H 353.156 1.85445 -4.60352 0
M  V30 3582 H 348.412 1.41733 -5.94745 0
M  V30 3583 H 352.586 1.08849 -6.87841 0
M  V30 3584 H 350.213 0.864345 -7.5527 0
M  V30 3585 N 351.788 1.33704 0.83433 0
M  V30 3586 C 353.034 1.25603 1.59222 0
M  V30 3587 C 353.367 -0.176659 1.93395 0
M  V30 3588 O 352.642 -1.11915 1.59076 0
M  V30 3589 C 352.925 2.13576 2.89926 0
M  V30 3590 C 352.778 3.65326 2.62406 0
M  V30 3591 C 354.097 2.01238 3.91397 0
M  V30 3592 H 351.216 0.457613 0.577719 0
M  V30 3593 H 353.858 1.63848 0.961972 0
M  V30 3594 H 352.008 1.8109 3.43713 0
M  V30 3595 H 353.68 4.08124 2.15017 0
M  V30 3596 H 351.923 3.8698 1.96033 0
M  V30 3597 H 352.594 4.22232 3.55562 0
M  V30 3598 H 355.07 2.29738 3.46929 0
M  V30 3599 H 353.946 2.65036 4.80673 0
M  V30 3600 H 354.207 0.985951 4.30966 0
M  V30 3601 N 353.266 -1.05314 1.17247 0
M  V30 3602 C 354.682 -1.30452 0.919473 0
M  V30 3603 C 354.882 -1.9703 -0.42209 0
M  V30 3604 O 353.938 -2.24311 -1.15935 0
M  V30 3605 C 355.251 -2.17551 2.07586 0
M  V30 3606 C 356.799 -2.30937 2.11275 0
M  V30 3607 C 357.274 -3.21396 3.26296 0
M  V30 3608 N 358.765 -3.28981 3.26076 0
M  V30 3609 C 359.5 -3.99095 4.11716 0
M  V30 3610 N 358.996 -4.71648 5.07465 0
M  V30 3611 N 360.789 -3.95247 3.9967 0
M  V30 3612 H 352.94 -0.604988 2.03602 0
M  V30 3613 H 355.203 -0.329368 0.888944 0
M  V30 3614 H 354.909 -1.75921 3.0454 0
M  V30 3615 H 354.783 -3.18182 2.02584 0
M  V30 3616 H 357.17 -2.71809 1.14907 0
M  V30 3617 H 357.251 -1.2994 2.20339 0
M  V30 3618 H 356.895 -2.81238 4.22927 0
M  V30 3619 H 356.825 -4.22395 3.14467 0
M  V30 3620 H 359.316 -2.77286 2.5675 0
M  V30 3621 H 359.629 -5.22705 5.6921 0
M  V30 3622 H 357.974 -4.70594 5.11435 0
M  V30 3623 H 361.165 -3.37691 3.24164 0
M  V30 3624 H 361.338 -4.4962 4.66632 0
M  V30 3625 N 354.744 -0.972509 -1.24016 0
M  V30 3626 C 355.992 -0.635776 -1.91839 0
M  V30 3627 C 356.313 0.832312 -1.76345 0
M  V30 3628 O 355.583 1.5946 -1.13795 0
M  V30 3629 H 354.163 -0.232157 -0.710009 0
M  V30 3630 H 356.825 -1.23462 -1.50809 0
M  V30 3631 H 355.921 -0.880545 -2.99421 0
M  V30 3632 N 356.222 1.38976 -0.743202 0
M  V30 3633 C 357.47 1.99948 -0.29417 0
M  V30 3634 C 357.791 1.59279 1.12495 0
M  V30 3635 O 357.061 0.844808 1.76748 0
M  V30 3636 H 355.641 0.739473 -0.105774 0
M  V30 3637 H 358.303 1.699 -0.954986 0
M  V30 3638 H 357.399 3.10142 -0.349056 0
M  V30 3639 N 357.7 0.491464 1.49741 0
M  V30 3640 C 358.948 -0.0563141 2.02022 0
M  V30 3641 C 359.269 -1.38363 1.37407 0
M  V30 3642 O 358.539 -1.88702 0.526166 0
M  V30 3643 H 357.119 -0.0238014 0.746621 0
M  V30 3644 H 359.781 0.646533 1.83864 0
M  V30 3645 H 358.877 -0.192967 3.11503 0
M  V30 3646 N 359.178 -1.55987 0.224894 0
M  V30 3647 C 360.141 -2.19178 -0.670348 0
M  V30 3648 C 361.141 -1.15461 -1.11917 0
M  V30 3649 O 362.331 -1.40675 -1.02743 0
M  V30 3650 C 359.463 -2.81777 -1.9187 0
M  V30 3651 H 360.656 -2.99662 -0.119364 0
M  V30 3652 H 358.209 -1.5628 -0.0247128 0
M  V30 3653 H 358.944 -2.05172 -2.51147 0
M  V30 3654 H 358.729 -3.57732 -1.60531 0
M  V30 3655 H 360.219 -3.30205 -2.55645 0
M  V30 3656 N 360.656 0.0484629 -1.57525 0
M  V30 3657 C 361.886 0.754326 -1.92337 0
M  V30 3658 C 362.294 1.70443 -0.82132 0
M  V30 3659 O 361.637 1.82466 0.21254 0
M  V30 3660 C 361.699 1.58231 -3.22805 0
M  V30 3661 C 361.363 0.799074 -4.4996 0
M  V30 3662 C 362.36 0.1079 -5.19788 0
M  V30 3663 C 360.045 0.759345 -4.96527 0
M  V30 3664 C 362.039 -0.612516 -6.3445 0
M  V30 3665 C 359.726 0.0351713 -6.1109 0
M  V30 3666 C 360.724 -0.649537 -6.79904 0
M  V30 3667 O 360.412 -1.36199 -7.92278 0
M  V30 3668 H 360.144 0.218257 -0.639797 0
M  V30 3669 H 362.698 0.0159295 -2.05394 0
M  V30 3670 H 360.928 2.36406 -3.06021 0
M  V30 3671 H 362.617 2.16898 -3.43089 0
M  V30 3672 H 363.383 0.129748 -4.84826 0
M  V30 3673 H 359.262 1.28177 -4.42822 0
M  V30 3674 H 362.806 -1.14751 -6.88097 0
M  V30 3675 H 358.703 0.0113314 -6.45499 0
M  V30 3676 H 359.471 -1.27366 -8.0853 0
M  V30 3677 N 362.134 1.5431 0.320358 0
M  V30 3678 C 363.364 1.7638 1.07582 0
M  V30 3679 C 363.772 0.513944 1.82086 0
M  V30 3680 O 363.115 -0.525123 1.76035 0
M  V30 3681 C 363.177 2.9055 2.1171 0
M  V30 3682 C 362.841 4.2934 1.56575 0
M  V30 3683 C 363.838 5.10077 1.00586 0
M  V30 3684 C 361.523 4.75893 1.60722 0
M  V30 3685 C 363.517 6.35477 0.494756 0
M  V30 3686 C 361.204 6.0126 1.09224 0
M  V30 3687 C 362.202 6.80886 0.53696 0
M  V30 3688 O 361.89 8.03894 0.0297371 0
M  V30 3689 H 361.622 0.592369 0.325692 0
M  V30 3690 H 364.176 2.02019 0.37116 0
M  V30 3691 H 362.406 2.60489 2.85801 0
M  V30 3692 H 364.095 3.00373 2.73003 0
M  V30 3693 H 364.861 4.75265 0.966869 0
M  V30 3694 H 360.74 4.13957 2.02882 0
M  V30 3695 H 364.284 6.97574 0.0606842 0
M  V30 3696 H 360.181 6.35562 1.12831 0
M  V30 3697 H 360.949 8.18372 0.14486 0
M  V30 3698 N 363.613 -0.582584 1.46437 0
M  V30 3699 C 364.543 -1.70187 1.59871 0
M  V30 3700 C 365.524 -1.64066 0.449042 0
M  V30 3701 O 366.709 -1.82081 0.6753 0
M  V30 3702 C 363.839 -3.08827 1.58881 0
M  V30 3703 C 362.793 -3.29779 2.72819 0
M  V30 3704 C 362.119 -4.68947 2.5689 0
M  V30 3705 C 363.419 -3.17601 4.1464 0
M  V30 3706 H 365.113 -1.592 2.53566 0
M  V30 3707 H 362.659 -0.764472 1.22032 0
M  V30 3708 H 364.612 -3.86951 1.66873 0
M  V30 3709 H 363.336 -3.20713 0.617306 0
M  V30 3710 H 361.995 -2.54054 2.64296 0
M  V30 3711 H 361.643 -4.77599 1.57823 0
M  V30 3712 H 361.343 -4.83919 3.33312 0
M  V30 3713 H 362.867 -5.4924 2.66773 0
M  V30 3714 H 364.281 -3.8557 4.24274 0
M  V30 3715 H 362.678 -3.44094 4.9165 0
M  V30 3716 H 363.748 -2.14681 4.34788 0
M  V30 3717 N 365.091 -1.34144 -0.827227 0
M  V30 3718 C 366.34 -1.25602 -1.5782 0
M  V30 3719 C 366.653 0.173445 -1.94829 0
M  V30 3720 O 367.859 0.380984 -2.68814 0
M  V30 3721 C 366.315 -2.20151 -2.84713 0
M  V30 3722 C 365.923 -3.68331 -2.55021 0
M  V30 3723 C 367.667 -2.20508 -3.62735 0
M  V30 3724 C 365.574 -4.54762 -3.78082 0
M  V30 3725 H 364.504 -0.466573 -0.592306 0
M  V30 3726 H 367.155 -1.59283 -0.911116 0
M  V30 3727 H 365.537 -1.79417 -3.53023 0
M  V30 3728 H 366.711 -4.17577 -1.94849 0
M  V30 3729 H 365.026 -3.7038 -1.90283 0
M  V30 3730 H 367.623 -2.82306 -4.54101 0
M  V30 3731 H 367.966 -1.20322 -3.98533 0
M  V30 3732 H 368.499 -2.59664 -3.01362 0
M  V30 3733 H 365.238 -5.55867 -3.47407 0
M  V30 3734 H 364.758 -4.10254 -4.37552 0
M  V30 3735 H 366.437 -4.69153 -4.45538 0
M  V30 3736 N 366.569 1.04691 -1.17803 0
M  V30 3737 C 367.794 1.81984 -0.994813 0
M  V30 3738 C 368.219 1.82586 0.452112 0
M  V30 3739 O 367.577 1.23854 1.324 0
M  V30 3740 C 367.625 3.2575 -1.54659 0
M  V30 3741 O 366.729 4.05267 -0.763728 0
M  V30 3742 H 366.07 0.562483 -0.352857 0
M  V30 3743 H 368.6 1.3189 -1.56417 0
M  V30 3744 H 368.61 3.76541 -1.57102 0
M  V30 3745 H 367.285 3.24627 -2.59981 0
M  V30 3746 H 365.862 3.63972 -0.811108 0
M  V30 3747 N 368.047 0.979072 1.23499 0
M  V30 3748 C 369.463 0.687475 1.44034 0
M  V30 3749 C 369.663 -0.746801 1.8715 0
M  V30 3750 O 368.719 -1.51939 2.0167 0
M  V30 3751 C 370.032 1.68127 2.49307 0
M  V30 3752 C 371.58 1.69516 2.63122 0
M  V30 3753 C 372.055 2.67723 3.71603 0
M  V30 3754 N 373.546 2.66233 3.79044 0
M  V30 3755 C 374.281 3.38891 4.62537 0
M  V30 3756 N 373.777 4.21103 5.50131 0
M  V30 3757 N 375.57 3.27661 4.56721 0
M  V30 3758 H 367.721 1.90559 0.938135 0
M  V30 3759 H 369.984 0.821051 0.473897 0
M  V30 3760 H 369.69 2.70693 2.2454 0
M  V30 3761 H 369.564 1.46306 3.4767 0
M  V30 3762 H 371.951 0.676561 2.8724 0
M  V30 3763 H 372.032 1.95404 1.65079 0
M  V30 3764 H 371.676 3.69724 3.48233 0
M  V30 3765 H 371.606 2.39111 4.69184 0
M  V30 3766 H 374.097 2.06568 3.16446 0
M  V30 3767 H 374.41 4.73403 6.10827 0
M  V30 3768 H 372.755 4.25195 5.49759 0
M  V30 3769 H 375.946 2.62887 3.87309 0
M  V30 3770 H 376.119 3.84547 5.21562 0
M  V30 3771 N 369.525 -1.3858 0.750561 0
M  V30 3772 C 370.75 -2.04997 0.314812 0
M  V30 3773 C 371.175 -1.56235 -1.04749 0
M  V30 3774 O 370.533 -0.712981 -1.66692 0
M  V30 3775 C 370.581 -3.58961 0.343415 0
M  V30 3776 O 369.685 -4.07025 -0.663628 0
M  V30 3777 H 369.026 -0.649081 0.139962 0
M  V30 3778 H 371.556 -1.77313 1.02084 0
M  V30 3779 H 371.566 -4.07542 0.193233 0
M  V30 3780 H 370.241 -3.93811 1.33738 0
M  V30 3781 H 368.818 -3.6982 -0.478307 0
M  V30 3782 N 371.003 -0.499398 -1.49478 0
M  V30 3783 C 371.933 0.269244 -2.31943 0
M  V30 3784 C 372.914 0.964054 -1.40143 0
M  V30 3785 O 374.099 0.955767 -1.69052 0
M  V30 3786 C 371.229 1.33504 -3.20615 0
M  V30 3787 C 370.183 0.760202 -4.21195 0
M  V30 3788 C 369.509 1.9264 -4.98792 0
M  V30 3789 C 370.809 -0.247661 -5.21712 0
M  V30 3790 H 372.503 -0.419082 -2.96452 0
M  V30 3791 H 370.049 -0.202988 -1.42562 0
M  V30 3792 H 372.002 1.88048 -3.77115 0
M  V30 3793 H 370.726 2.05253 -2.54045 0
M  V30 3794 H 369.385 0.23653 -3.65836 0
M  V30 3795 H 369.033 2.63154 -4.28671 0
M  V30 3796 H 368.733 1.54785 -5.66847 0
M  V30 3797 H 370.257 2.4762 -5.58137 0
M  V30 3798 H 371.671 0.209579 -5.72917 0
M  V30 3799 H 370.068 -0.541962 -5.97648 0
M  V30 3800 H 371.138 -1.16409 -4.7072 0
M  V30 3801 N 372.481 1.55866 -0.233164 0
M  V30 3802 C 373.729 1.9821 0.394593 0
M  V30 3803 C 374.05 1.12234 1.59463 0
M  V30 3804 O 373.32 0.201981 1.94856 0
M  V30 3805 H 371.9 0.732034 0.148778 0
M  V30 3806 H 374.562 1.92107 -0.32876 0
M  V30 3807 H 373.658 3.03845 0.713063 0
M  V30 3808 N 373.959 -0.0401083 1.57549 0
M  V30 3809 C 375.37 -0.588097 1.77196 0
M  V30 3810 C 375.721 -1.76209 0.862832 0
M  V30 3811 O 374.846 -2.16331 0.0548389 0
M  V30 3812 C 375.441 -1.07363 3.21339 0
M  V30 3813 C 374 -1.56723 3.42221 0
M  V30 3814 C 373.147 -0.50041 2.72747 0
M  V30 3815 H 376.098 0.186119 1.57605 0
M  V30 3816 H 376.119 -1.94143 3.27244 0
M  V30 3817 H 375.631 -0.218975 3.87482 0
M  V30 3818 H 373.732 -2.4441 2.81237 0
M  V30 3819 H 373.845 -1.62234 4.50796 0
M  V30 3820 H 372.209 -0.952894 2.36203 0
M  V30 3821 H 372.992 0.344599 3.41566 0
M  V30 3822 N 375.437 -1.54477 -0.31217 0
M  V30 3823 C 376.347 -1.87695 -1.4074 0
M  V30 3824 C 377.363 -0.769975 -1.56036 0
M  V30 3825 O 378.539 -1.06537 -1.70915 0
M  V30 3826 C 375.604 -2.10755 -2.75287 0
M  V30 3827 C 374.665 -3.34514 -2.69071 0
M  V30 3828 C 373.898 -3.56465 -3.97201 0
M  V30 3829 O 374.121 -2.81637 -4.96021 0
M  V30 3830 O 373.055 -4.49964 -3.9977 0
M  V30 3831 H 376.881 -2.80849 -1.15574 0
M  V30 3832 H 374.466 -1.40526 -0.507228 0
M  V30 3833 H 376.348 -2.27188 -3.54913 0
M  V30 3834 H 375.023 -1.20788 -3.0032 0
M  V30 3835 H 373.93 -3.23456 -1.87955 0
M  V30 3836 H 375.263 -4.24575 -2.48992 0
M  V30 3837 N 376.915 0.57481 -1.46744 0
M  V30 3838 C 378.162 1.33272 -1.52462 0
M  V30 3839 C 378.49 1.93669 -0.179572 0
M  V30 3840 O 377.745 1.7743 0.825664 0
M  V30 3841 C 378.044 2.476 -2.57738 0
M  V30 3842 C 377.71 2.05146 -4.01529 0
M  V30 3843 C 376.372 1.93284 -4.40676 0
M  V30 3844 C 378.724 1.72506 -4.91824 0
M  V30 3845 C 376.052 1.47049 -5.67973 0
M  V30 3846 C 378.404 1.27748 -6.19567 0
M  V30 3847 C 377.068 1.14468 -6.57612 0
M  V30 3848 H 376.338 0.487678 -0.557899 0
M  V30 3849 H 378.985 0.646456 -1.80259 0
M  V30 3850 H 377.29 3.21708 -2.23632 0
M  V30 3851 H 378.987 3.05807 -2.5939 0
M  V30 3852 H 375.577 2.15316 -3.7059 0
M  V30 3853 H 379.761 1.80552 -4.62293 0
M  V30 3854 H 375.017 1.35417 -5.96215 0
M  V30 3855 H 379.191 1.01547 -6.88957 0
M  V30 3856 H 376.818 0.78419 -7.56145 0
M  V30 3857 N 378.394 1.34581 0.820102 0
M  V30 3858 C 379.642 1.26845 1.57336 0
M  V30 3859 C 379.963 -0.160667 1.94337 0
M  V30 3860 O 379.233 -1.09396 1.6251 0
M  V30 3861 H 377.813 0.466514 0.583415 0
M  V30 3862 H 380.475 1.68526 0.979027 0
M  V30 3863 H 379.571 1.87513 2.4949 0
M  V30 3864 N 379.872 -1.04064 1.18357 0
M  V30 3865 C 381.12 -1.76915 0.977013 0
M  V30 3866 C 381.441 -1.88624 -0.494577 0
M  V30 3867 O 380.711 -1.41125 -1.3587 0
M  V30 3868 H 379.291 -0.65535 0.358504 0
M  V30 3869 H 381.953 -1.25592 1.49039 0
M  V30 3870 H 381.049 -2.78178 1.41504 0
M  V30 3871 N 381.35 -0.985608 -1.22978 0
M  V30 3872 C 382.575 -0.675254 -1.961 0
M  V30 3873 C 383 0.752154 -1.72407 0
M  V30 3874 O 382.358 1.5131 -0.998751 0
M  V30 3875 C 382.406 -0.977899 -3.47087 0
M  V30 3876 O 381.51 -0.072685 -4.12336 0
M  V30 3877 H 380.851 -0.253443 -0.613728 0
M  V30 3878 H 383.381 -1.32061 -1.56272 0
M  V30 3879 H 383.391 -0.916739 -3.97567 0
M  V30 3880 H 382.066 -2.01807 -3.63657 0
M  V30 3881 H 380.643 -0.188703 -3.72422 0
M  V30 3882 N 382.828 1.3818 -0.7579 0
M  V30 3883 C 384.077 1.99261 -0.312744 0
M  V30 3884 C 384.39 1.60846 1.11301 0
M  V30 3885 O 385.596 2.14929 1.65885 0
M  V30 3886 C 384.052 3.56294 -0.50821 0
M  V30 3887 C 383.66 4.03657 -1.94333 0
M  V30 3888 C 385.404 4.24313 -0.125982 0
M  V30 3889 C 383.311 5.53347 -2.08712 0
M  V30 3890 H 382.241 0.745456 -0.113185 0
M  V30 3891 H 384.892 1.57889 -0.935056 0
M  V30 3892 H 383.274 3.95575 0.183353 0
M  V30 3893 H 384.448 3.75655 -2.66871 0
M  V30 3894 H 382.763 3.48376 -2.28086 0
M  V30 3895 H 385.36 5.34279 -0.212125 0
M  V30 3896 H 385.703 4.05962 0.921964 0
M  V30 3897 H 386.236 3.90285 -0.769563 0
M  V30 3898 H 382.975 5.76607 -3.11777 0
M  V30 3899 H 382.495 5.83078 -1.4064 0
M  V30 3900 H 384.174 6.19111 -1.87912 0
M  V30 3901 N 384.306 0.507319 1.49211 0
M  V30 3902 C 385.554 -0.0348839 2.0207 0
M  V30 3903 C 385.875 -1.36898 1.38866 0
M  V30 3904 O 385.145 -1.88133 0.546151 0
M  V30 3905 H 383.725 -0.0158812 0.746831 0
M  V30 3906 H 386.387 0.665998 1.83168 0
M  V30 3907 H 385.483 -0.159917 3.1169 0
M  V30 3908 N 385.784 -1.5574 0.241426 0
M  V30 3909 C 386.714 -2.24133 -0.654722 0
M  V30 3910 C 387.695 -1.21974 -1.1856 0
M  V30 3911 O 388.88 -1.50612 -1.22595 0
M  V30 3912 C 386.01 -2.93659 -1.85423 0
M  V30 3913 C 384.964 -4.0246 -1.45636 0
M  V30 3914 C 384.29 -4.59383 -2.73626 0
M  V30 3915 C 385.59 -5.18468 -0.631506 0
M  V30 3916 H 387.284 -2.99281 -0.0844353 0
M  V30 3917 H 384.83 -1.43947 -0.0391707 0
M  V30 3918 H 386.783 -3.40203 -2.48676 0
M  V30 3919 H 385.507 -2.15991 -2.44981 0
M  V30 3920 H 384.166 -3.56676 -0.847202 0
M  V30 3921 H 383.814 -3.78422 -3.3137 0
M  V30 3922 H 383.514 -5.32826 -2.4773 0
M  V30 3923 H 385.038 -5.08658 -3.37786 0
M  V30 3924 H 386.452 -5.61272 -1.1682 0
M  V30 3925 H 384.849 -5.98266 -0.468831 0
M  V30 3926 H 385.919 -4.8358 0.357506 0
M  V30 3927 N 387.262 0.0317525 -1.57568 0
M  V30 3928 C 388.511 0.722131 -1.8833 0
M  V30 3929 C 388.824 1.76664 -0.839587 0
M  V30 3930 O 390.03 2.50942 -1.03635 0
M  V30 3931 C 388.486 1.33544 -3.34207 0
M  V30 3932 C 388.094 0.327415 -4.46802 0
M  V30 3933 C 389.838 2.00585 -3.7412 0
M  V30 3934 C 387.745 0.948915 -5.83738 0
M  V30 3935 H 386.675 0.273466 -0.702661 0
M  V30 3936 H 389.326 -0.0235811 -1.83485 0
M  V30 3937 H 387.708 2.13077 -3.33788 0
M  V30 3938 H 388.882 -0.441006 -4.58685 0
M  V30 3939 H 387.197 -0.240758 -4.15703 0
M  V30 3940 H 389.794 2.47932 -4.73744 0
M  V30 3941 H 390.137 2.82285 -3.05975 0
M  V30 3942 H 390.67 1.27831 -3.76702 0
M  V30 3943 H 387.409 0.171387 -6.55276 0
M  V30 3944 H 386.929 1.68724 -5.7558 0
M  V30 3945 H 388.608 1.45705 -6.3038 0
M  V30 3946 N 388.74 1.54641 0.303973 0
M  V30 3947 C 389.987 1.7378 1.03955 0
M  V30 3948 C 390.315 0.521986 1.87365 0
M  V30 3949 O 389.57 -0.496099 1.89308 0
M  V30 3950 C 389.869 2.97753 1.97681 0
M  V30 3951 C 389.535 4.31671 1.30271 0
M  V30 3952 C 388.197 4.68075 1.11619 0
M  V30 3953 C 390.549 5.147 0.82055 0
M  V30 3954 C 387.877 5.8509 0.434304 0
M  V30 3955 C 390.229 6.32416 0.152395 0
M  V30 3956 C 388.893 6.67484 -0.0461067 0
M  V30 3957 H 388.163 0.635908 0.380398 0
M  V30 3958 H 390.81 1.88896 0.314718 0
M  V30 3959 H 389.115 2.77406 2.76682 0
M  V30 3960 H 390.812 3.09756 2.54661 0
M  V30 3961 H 387.402 4.03041 1.45795 0
M  V30 3962 H 391.586 4.87077 0.952374 0
M  V30 3963 H 386.842 6.10806 0.269495 0
M  V30 3964 H 391.016 6.96023 -0.229126 0
M  V30 3965 H 388.643 7.58011 -0.576494 0
M  V30 3966 N 390.218 -0.567019 1.47046 0
M  V30 3967 C 391.181 -1.65696 1.58359 0
M  V30 3968 C 392.181 -1.54097 0.459441 0
M  V30 3969 O 393.371 -1.58432 0.724225 0
M  V30 3970 C 390.503 -3.05197 1.51879 0
M  V30 3971 H 391.696 -1.57019 2.5551 0
M  V30 3972 H 389.249 -0.786148 1.3509 0
M  V30 3973 H 389.984 -3.19417 0.560673 0
M  V30 3974 H 389.769 -3.15025 2.33455 0
M  V30 3975 H 391.259 -3.84511 1.62913 0
M  V30 3976 N 391.696 -1.35014 -0.812953 0
M  V30 3977 C 392.943 -1.27931 -1.56971 0
M  V30 3978 C 393.271 0.148034 -1.93936 0
M  V30 3979 O 392.526 1.11175 -1.61054 0
M  V30 3980 C 392.825 -2.12524 -2.87347 0
M  V30 3981 C 392.491 -3.61401 -2.6963 0
M  V30 3982 C 391.153 -4.01983 -2.64506 0
M  V30 3983 C 393.505 -4.55894 -2.52607 0
M  V30 3984 C 390.833 -5.35235 -2.40293 0
M  V30 3985 C 393.185 -5.89336 -2.29925 0
M  V30 3986 C 391.849 -6.2907 -2.23219 0
M  V30 3987 H 391.119 -0.468131 -0.574399 0
M  V30 3988 H 393.766 -1.66851 -0.939836 0
M  V30 3989 H 392.071 -1.66463 -3.54679 0
M  V30 3990 H 393.768 -2.04383 -3.45005 0
M  V30 3991 H 390.358 -3.29193 -2.74463 0
M  V30 3992 H 394.542 -4.25431 -2.55583 0
M  V30 3993 H 389.798 -5.65028 -2.33566 0
M  V30 3994 H 393.972 -6.62139 -2.15743 0
M  V30 3995 H 391.599 -7.32256 -2.04219 0
M  V30 3996 N 393.175 1.03435 -1.18907 0
M  V30 3997 C 394.138 2.09756 -0.923844 0
M  V30 3998 C 395.138 1.60528 0.093416 0
M  V30 3999 O 396.328 1.73631 -0.140727 0
M  V30 4000 C 393.46 3.38692 -0.387354 0
M  V30 4001 H 394.653 2.34719 -1.86674 0
M  V30 4002 H 392.206 1.19959 -1.00197 0
M  V30 4003 H 392.941 3.19396 0.561845 0
M  V30 4004 H 392.726 3.75742 -1.12074 0
M  V30 4005 H 394.216 4.17016 -0.220694 0
M  V30 4006 N 394.653 0.992116 1.22453 0
M  V30 4007 C 395.601 0.534644 2.26372 0
M  V30 4008 C 396.595 -0.414293 1.64256 0
M  V30 4009 O 397.801 -0.286899 1.77699 0
M  V30 4010 H 394.176 0.154502 0.735957 0
M  V30 4011 H 396.147 1.42256 2.62309 0
M  V30 4012 C 394.896 -0.135815 3.47435 0
M  V30 4013 H 394.219 0.585311 3.95492 0
M  V30 4014 H 395.659 -0.419374 4.21921 0
M  V30 4015 C 394.118 -1.37089 3.07747 0
M  V30 4016 O 394.648 -2.46629 3.17076 0
M  V30 4017 N 392.854 -1.24585 2.62539 0
M  V30 4018 H 392.401 -0.354542 2.55149 0
M  V30 4019 H 392.359 -2.07327 2.36353 0
M  V30 4020 N 396.131 -1.37776 0.765217 0
M  V30 4021 C 397.094 -2.28686 0.153416 0
M  V30 4022 C 398.094 -1.47727 -0.635081 0
M  V30 4023 O 399.284 -1.68027 -0.459632 0
M  V30 4024 C 396.416 -3.31608 -0.790495 0
M  V30 4025 H 397.609 -2.84297 0.954723 0
M  V30 4026 H 395.162 -1.46932 0.53299 0
M  V30 4027 H 395.897 -2.81109 -1.61705 0
M  V30 4028 H 395.682 -3.9144 -0.227348 0
M  V30 4029 H 397.172 -3.99559 -1.21419 0
M  V30 4030 N 397.609 -0.515225 -1.4894 0
M  V30 4031 C 398.855 0.0242508 -2.02785 0
M  V30 4032 C 399.188 1.35323 -1.39289 0
M  V30 4033 O 398.463 1.87041 -0.533469 0
M  V30 4034 C 398.746 0.16184 -3.59736 0
M  V30 4035 C 398.599 -1.19127 -4.33738 0
M  V30 4036 C 399.918 0.895719 -4.30888 0
M  V30 4037 H 397.037 0.00733914 -0.736963 0
M  V30 4038 H 399.679 -0.669395 -1.77818 0
M  V30 4039 H 397.829 0.752624 -3.8114 0
M  V30 4040 H 399.501 -1.82202 -4.23792 0
M  V30 4041 H 397.744 -1.77695 -3.95736 0
M  V30 4042 H 398.415 -1.04815 -5.41957 0
M  V30 4043 H 400.891 0.394528 -4.14225 0
M  V30 4044 H 399.767 0.960859 -5.40425 0
M  V30 4045 H 400.028 1.9427 -3.97129 0
M  V30 4046 N 399.087 1.5561 -0.249682 0
M  V30 4047 C 400.05 2.20217 0.635394 0
M  V30 4048 C 401.05 1.17227 1.10066 0
M  V30 4049 O 402.24 1.42292 1.00492 0
M  V30 4050 C 399.372 2.84794 1.87363 0
M  V30 4051 H 400.565 2.99814 0.0716752 0
M  V30 4052 H 398.118 1.563 -0.000153234 0
M  V30 4053 H 398.853 2.09142 2.47851 0
M  V30 4054 H 398.638 3.60241 1.5482 0
M  V30 4055 H 400.128 3.3423 2.5036 0
M  V30 4056 N 400.565 -0.0233959 1.57583 0
M  V30 4057 C 401.811 -0.714119 1.89811 0
M  V30 4058 C 402.144 -1.74702 0.848113 0
M  V30 4059 O 401.419 -1.94023 -0.136135 0
M  V30 4060 C 401.702 -1.37853 3.32669 0
M  V30 4061 C 401.555 -0.358764 4.48367 0
M  V30 4062 C 402.874 -2.31101 3.7454 0
M  V30 4063 H 399.993 -0.25814 0.690314 0
M  V30 4064 H 402.635 0.0230927 1.89986 0
M  V30 4065 H 400.785 -2.00689 3.3265 0
M  V30 4066 H 402.457 0.268115 4.6052 0
M  V30 4067 H 400.7 0.321387 4.32608 0
M  V30 4068 H 401.371 -0.862242 5.45224 0
M  V30 4069 H 403.847 -1.78304 3.75961 0
M  V30 4070 H 402.723 -2.74567 4.75294 0
M  V30 4071 H 402.984 -3.18018 3.0711 0
M  V30 4072 N 402.043 -1.548 -0.295768 0
M  V30 4073 C 403.006 -1.85363 -1.34808 0
M  V30 4074 C 404.006 -0.726817 -1.43436 0
M  V30 4075 O 405.196 -0.995088 -1.42981 0
M  V30 4076 C 402.328 -2.03859 -2.73229 0
M  V30 4077 H 403.521 -2.7941 -1.08949 0
M  V30 4078 H 401.074 -1.46942 -0.532702 0
M  V30 4079 H 401.809 -1.12117 -3.04303 0
M  V30 4080 H 401.594 -2.8588 -2.68356 0
M  V30 4081 H 403.084 -2.28857 -3.49305 0
M  V30 4082 N 403.521 0.559213 -1.47345 0
M  V30 4083 C 404.454 1.68201 -1.5422 0
M  V30 4084 C 405.432 1.57742 -0.394497 0
M  V30 4085 O 406.616 1.78628 -0.60201 0
M  V30 4086 C 403.743 3.0643 -1.44285 0
M  V30 4087 C 402.789 3.3534 -2.63532 0
M  V30 4088 S 403.622 3.24816 -4.25741 0
M  V30 4089 C 404.778 4.65542 -4.18355 0
M  V30 4090 H 405.011 1.62114 -2.49211 0
M  V30 4091 H 402.544 0.739871 -1.35519 0
M  V30 4092 H 404.502 3.86164 -1.3924 0
M  V30 4093 H 403.163 3.09984 -0.506816 0
M  V30 4094 H 402.356 4.36107 -2.52639 0
M  V30 4095 H 401.958 2.63221 -2.65689 0
M  V30 4096 H 404.25 5.56449 -3.86485 0
M  V30 4097 H 405.193 4.81493 -5.19202 0
M  V30 4098 H 405.601 4.43495 -3.49246 0
M  V30 4099 N 404.999 1.35443 0.805782 0
M  V30 4100 C 406.229 1.31687 1.59192 0
M  V30 4101 C 406.637 -0.10756 1.88894 0
M  V30 4102 O 405.98 -1.07017 1.49309 0
M  V30 4103 C 406.042 2.05686 2.94845 0
M  V30 4104 C 405.706 3.54868 2.87954 0
M  V30 4105 C 406.703 4.49444 2.61335 0
M  V30 4106 C 404.388 3.97528 3.07046 0
M  V30 4107 C 406.382 5.84655 2.53885 0
M  V30 4108 C 404.069 5.32833 2.99219 0
M  V30 4109 C 405.067 6.26209 2.72674 0
M  V30 4110 O 404.755 7.59032 2.64811 0
M  V30 4111 H 404.487 0.453878 0.50097 0
M  V30 4112 H 407.041 1.78892 1.0093 0
M  V30 4113 H 405.271 1.5312 3.55093 0
M  V30 4114 H 406.96 1.94998 3.55993 0
M  V30 4115 H 407.726 4.17804 2.46303 0
M  V30 4116 H 403.605 3.25233 3.26718 0
M  V30 4117 H 407.149 6.57508 2.33086 0
M  V30 4118 H 403.046 5.64087 3.13809 0
M  V30 4119 H 403.814 7.68967 2.80413 0
M  V30 4120 N 406.477 -1.02803 1.19454 0
M  V30 4121 C 407.723 -1.76478 0.999171 0
M  V30 4122 C 408.056 -1.88456 -0.468828 0
M  V30 4123 O 407.331 -1.40198 -1.34814 0
M  V30 4124 C 407.614 -3.19044 1.66981 0
M  V30 4125 C 407.467 -3.14932 3.21151 0
M  V30 4126 C 408.786 -4.17456 1.39349 0
M  V30 4127 H 405.905 -0.640614 0.364393 0
M  V30 4128 H 408.547 -1.20005 1.47305 0
M  V30 4129 H 406.697 -3.67263 1.2669 0
M  V30 4130 H 408.369 -2.74605 3.70661 0
M  V30 4131 H 406.612 -2.52625 3.52652 0
M  V30 4132 H 407.283 -4.1566 3.63223 0
M  V30 4133 H 409.759 -3.77842 1.74283 0
M  V30 4134 H 408.635 -5.154 1.88823 0
M  V30 4135 H 408.896 -4.40949 0.318813 0
M  V30 4136 N 407.956 -0.998596 -1.21925 0
M  V30 4137 C 409.202 -0.678667 -1.91107 0
M  V30 4138 C 409.535 0.78791 -1.77498 0
M  V30 4139 O 408.81 1.57043 -1.1475 0
M  V30 4140 C 409.093 -1.09245 -3.43129 0
M  V30 4141 C 408.946 -2.61801 -3.6576 0
M  V30 4142 C 410.265 -0.649984 -4.35274 0
M  V30 4143 H 407.384 -0.248025 -0.694012 0
M  V30 4144 H 410.026 -1.24314 -1.43688 0
M  V30 4145 H 408.176 -0.612171 -3.83647 0
M  V30 4146 H 409.848 -3.17543 -3.34611 0
M  V30 4147 H 408.091 -3.03609 -3.09845 0
M  V30 4148 H 408.762 -2.85804 -4.7225 0
M  V30 4149 H 411.238 -1.0626 -4.02303 0
M  V30 4150 H 410.114 -0.967743 -5.40302 0
M  V30 4151 H 410.375 0.449139 -4.39813 0
M  V30 4152 N 409.434 1.37368 -0.772513 0
M  V30 4153 C 410.682 1.99279 -0.336516 0
M  V30 4154 C 411.003 1.6163 1.09091 0
M  V30 4155 O 410.273 0.882109 1.74916 0
M  V30 4156 H 408.853 0.737063 -0.121435 0
M  V30 4157 H 411.515 1.67836 -0.990809 0
M  V30 4158 H 410.611 3.09332 -0.414763 0
M  V30 4159 N 410.912 0.523116 1.48665 0
M  V30 4160 C 412.159 -0.0134763 2.02496 0
M  V30 4161 C 412.487 -1.3493 1.40086 0
M  V30 4162 O 411.742 -1.88286 0.533567 0
M  V30 4163 C 412.041 -0.191671 3.56886 0
M  V30 4164 C 411.707 1.06893 4.38046 0
M  V30 4165 C 410.369 1.41443 4.59943 0
M  V30 4166 C 412.721 1.90584 4.85106 0
M  V30 4167 C 410.049 2.59594 5.26144 0
M  V30 4168 C 412.401 3.07907 5.52609 0
M  V30 4169 C 411.065 3.42811 5.72745 0
M  V30 4170 H 410.335 -0.00493133 0.740984 0
M  V30 4171 H 412.982 0.687751 1.78724 0
M  V30 4172 H 411.287 -0.97561 3.79459 0
M  V30 4173 H 412.984 -0.621659 3.96152 0
M  V30 4174 H 409.574 0.789848 4.21259 0
M  V30 4175 H 413.758 1.65203 4.67997 0
M  V30 4176 H 409.014 2.86847 5.39934 0
M  V30 4177 H 413.188 3.73066 5.88043 0
M  V30 4178 H 410.815 4.34462 6.23816 0
M  V30 4179 N 412.39 -1.55475 0.257931 0
M  V30 4180 C 413.353 -2.20551 -0.623706 0
M  V30 4181 C 414.353 -1.17809 -1.09443 0
M  V30 4182 O 415.543 -1.42823 -0.997362 0
M  V30 4183 C 412.675 -2.85784 -1.8585 0
M  V30 4184 H 413.868 -2.99848 -0.0557743 0
M  V30 4185 H 411.421 -1.56298 0.0084422 0
M  V30 4186 H 412.156 -2.10453 -2.46739 0
M  V30 4187 H 411.941 -3.61057 -1.52907 0
M  V30 4188 H 413.431 -3.35553 -2.48584 0
M  V30 4189 N 413.868 0.0150385 -1.57593 0
M  V30 4190 C 414.778 1.02791 -2.10882 0
M  V30 4191 C 415.794 1.38702 -1.0506 0
M  V30 4192 O 416.97 1.47739 -1.36877 0
M  V30 4193 C 414.035 2.30568 -2.58919 0
M  V30 4194 C 413.096 2.01108 -3.79281 0
M  V30 4195 C 412.329 3.22794 -4.25018 0
M  V30 4196 O 412.552 4.33959 -3.70183 0
M  V30 4197 O 411.486 3.07672 -5.17322 0
M  V30 4198 H 415.312 0.604973 -2.97613 0
M  V30 4199 H 412.897 0.23292 -1.47573 0
M  V30 4200 H 414.779 3.05662 -2.90084 0
M  V30 4201 H 413.454 2.72129 -1.75293 0
M  V30 4202 H 412.361 1.23537 -3.53114 0
M  V30 4203 H 413.694 1.64394 -4.63935 0
M  V30 4204 N 415.346 1.54954 0.287554 0
M  V30 4205 C 416.574 1.78881 1.03967 0
M  V30 4206 C 416.989 0.554894 1.80462 0
M  V30 4207 O 416.346 -0.475676 1.76192 0
M  V30 4208 C 416.397 3.00488 2.0097 0
M  V30 4209 O 416.118 4.19113 1.27577 0
M  V30 4210 C 417.619 3.36907 2.88112 0
M  V30 4211 H 414.839 0.596259 0.307761 0
M  V30 4212 H 417.383 2.01937 0.322749 0
M  V30 4213 H 415.538 2.79601 2.68145 0
M  V30 4214 H 415.952 4.87765 1.92835 0
M  V30 4215 H 417.426 4.25205 3.52001 0
M  V30 4216 H 417.903 2.55659 3.57121 0
M  V30 4217 H 418.509 3.60001 2.26449 0
M  V30 4218 N 416.824 -0.551391 1.4764 0
M  V30 4219 C 418.07 -1.31024 1.54792 0
M  V30 4220 C 418.403 -1.9304 0.211967 0
M  V30 4221 O 417.678 -1.78175 -0.77999 0
M  V30 4222 C 417.961 -2.41593 2.67029 0
M  V30 4223 C 417.814 -1.84408 4.10261 0
M  V30 4224 C 419.133 -3.43488 2.75143 0
M  V30 4225 H 416.252 -0.475031 0.563485 0
M  V30 4226 H 418.894 -0.616454 1.79722 0
M  V30 4227 H 417.044 -3.00772 2.45904 0
M  V30 4228 H 418.716 -1.29445 4.42766 0
M  V30 4229 H 416.959 -1.15051 4.18265 0
M  V30 4230 H 417.63 -2.64367 4.84576 0
M  V30 4231 H 420.106 -2.94236 2.94218 0
M  V30 4232 H 418.982 -4.18274 3.55441 0
M  V30 4233 H 419.243 -4.02703 1.82435 0
M  V30 4234 N 418.302 -1.35869 -0.798587 0
M  V30 4235 C 419.548 -1.2978 -1.55836 0
M  V30 4236 C 419.881 0.125322 -1.93795 0
M  V30 4237 O 419.156 1.07658 -1.61987 0
M  V30 4238 C 419.439 -2.21188 -2.84162 0
M  V30 4239 C 419.292 -3.72155 -2.52628 0
M  V30 4240 C 420.611 -2.11545 -3.85923 0
M  V30 4241 H 417.73 -0.472769 -0.565383 0
M  V30 4242 H 420.372 -1.66341 -0.918192 0
M  V30 4243 H 418.522 -1.90139 -3.38791 0
M  V30 4244 H 420.194 -4.13682 -2.04121 0
M  V30 4245 H 418.437 -3.92042 -1.85704 0
M  V30 4246 H 419.108 -4.31511 -3.44242 0
M  V30 4247 H 421.584 -2.38855 -3.40716 0
M  V30 4248 H 420.46 -2.77688 -4.73477 0
M  V30 4249 H 420.721 -1.09987 -4.282 0
M  V30 4250 N 419.78 1.02168 -1.19998 0
M  V30 4251 C 421.057 1.72816 -0.916191 0
M  V30 4252 C 421.437 2.03081 0.576325 0
M  V30 4253 O 420.785 1.69122 1.53656 0
M  V30 4254 C 420.995 2.9997 -1.78378 0
M  V30 4255 C 422.343 3.73336 -2.02251 0
M  V30 4256 O 423.367 3.09914 -1.75589 0
M  V30 4257 O 422.226 4.87371 -2.47249 0
M  V30 4258 H 419.32 0.752924 -0.342103 0
M  V30 4259 H 421.866 1.08062 -1.30846 0
M  V30 4260 H 420.638 2.73888 -2.79466 0
M  V30 4261 H 420.261 3.72464 -1.39126 0
M  V30 4262 N 421.258 1.00505 1.21394 0
M  V30 4263 C 422.188 0.585684 2.26035 0
M  V30 4264 C 423.169 -0.393525 1.65485 0
M  V30 4265 O 424.354 -0.281497 1.92149 0
M  V30 4266 C 421.484 -0.0884283 3.47187 0
M  V30 4267 C 420.438 0.810567 4.20254 0
M  V30 4268 C 419.764 0.00286382 5.347 0
M  V30 4269 C 421.064 2.1132 4.77641 0
M  V30 4270 H 422.758 1.46039 2.61368 0
M  V30 4271 H 420.304 0.703648 1.25638 0
M  V30 4272 H 422.257 -0.393286 4.19561 0
M  V30 4273 H 420.981 -0.997766 3.10986 0
M  V30 4274 H 419.64 1.09925 3.49731 0
M  V30 4275 H 419.288 -0.907765 4.94741 0
M  V30 4276 H 418.988 0.601444 5.84514 0
M  V30 4277 H 420.512 -0.295808 6.09883 0
M  V30 4278 H 421.926 1.87148 5.41893 0
M  V30 4279 H 420.323 2.66164 5.37845 0
M  V30 4280 H 421.393 2.78393 3.9702 0
M  V30 4281 N 422.737 -1.36956 0.779787 0
M  V30 4282 C 423.667 -2.32761 0.185651 0
M  V30 4283 C 424.648 -1.56177 -0.673989 0
M  V30 4284 O 425.833 -1.84378 -0.609797 0
M  V30 4285 C 422.963 -3.40418 -0.687964 0
M  V30 4286 C 421.917 -4.27941 0.0710102 0
M  V30 4287 C 421.243 -5.26681 -0.922573 0
M  V30 4288 C 422.543 -5.07006 1.25467 0
M  V30 4289 H 424.237 -2.82698 0.986008 0
M  V30 4290 H 421.783 -1.3592 0.475592 0
M  V30 4291 H 423.736 -4.06423 -1.11348 0
M  V30 4292 H 422.46 -2.89025 -1.52093 0
M  V30 4293 H 421.119 -3.63478 0.47739 0
M  V30 4294 H 420.767 -4.71565 -1.7503 0
M  V30 4295 H 420.467 -5.86103 -0.419237 0
M  V30 4296 H 421.991 -5.9556 -1.34686 0
M  V30 4297 H 423.405 -5.66105 0.905401 0
M  V30 4298 H 421.802 -5.75793 1.69063 0
M  V30 4299 H 422.872 -4.3921 2.05481 0
M  V30 4300 N 424.215 -0.530993 -1.48385 0
M  V30 4301 C 425.162 0.231223 -2.29639 0
M  V30 4302 C 426.132 0.932864 -1.37429 0
M  V30 4303 O 427.317 0.933692 -1.66394 0
M  V30 4304 C 424.457 1.27155 -3.2082 0
M  V30 4305 C 423.57 0.578655 -4.28107 0
M  V30 4306 C 422.705 1.602 -5.06467 0
M  V30 4307 C 421.744 0.892625 -6.05556 0
M  V30 4308 N 420.881 1.86157 -6.76971 0
M  V30 4309 H 425.721 -0.467848 -2.94305 0
M  V30 4310 H 423.258 -0.242556 -1.45086 0
M  V30 4311 H 425.216 1.88703 -3.72085 0
M  V30 4312 H 423.846 1.939 -2.58075 0
M  V30 4313 H 422.898 -0.150782 -3.80101 0
M  V30 4314 H 424.21 0.0217065 -4.98795 0
M  V30 4315 H 423.364 2.29173 -5.61751 0
M  V30 4316 H 422.103 2.19285 -4.35621 0
M  V30 4317 H 421.108 0.188829 -5.49476 0
M  V30 4318 H 422.333 0.307878 -6.78402 0
M  V30 4319 H 420.279 2.44147 -6.08875 0
M  V30 4320 H 420.196 1.35608 -7.43738 0
M  V30 4321 H 421.464 2.54325 -7.36844 0
M  V30 4322 N 425.693 1.55336 -0.266172 0
M  V30 4323 C 426.603 2.2583 0.635458 0
M  V30 4324 C 427.619 1.28106 1.17749 0
M  V30 4325 O 428.795 1.61024 1.20968 0
M  V30 4326 C 425.86 2.95879 1.80712 0
M  V30 4327 C 424.921 4.09059 1.30265 0
M  V30 4328 C 424.154 4.75759 2.41846 0
M  V30 4329 O 424.377 4.41622 3.61007 0
M  V30 4330 O 423.311 5.63888 2.1051 0
M  V30 4331 H 427.137 3.03631 0.0646693 0
M  V30 4332 H 424.722 1.49361 -0.0339177 0
M  V30 4333 H 426.604 3.39932 2.49047 0
M  V30 4334 H 425.279 2.21002 2.36516 0
M  V30 4335 H 424.186 3.69482 0.586019 0
M  V30 4336 H 425.519 4.85811 0.790458 0
M  V30 4337 N 427.171 -0.0066808 1.57599 0
M  V30 4338 C 428.396 -0.707738 1.94951 0
M  V30 4339 C 428.821 -1.66882 0.867868 0
M  V30 4340 O 428.179 -1.80457 -0.17458 0
M  V30 4341 C 428.227 -1.42162 3.31394 0
M  V30 4342 O 427.331 -2.53578 3.25226 0
M  V30 4343 H 426.672 -0.188752 0.636607 0
M  V30 4344 H 429.202 0.0445193 2.04552 0
M  V30 4345 H 429.212 -1.78655 3.66806 0
M  V30 4346 H 427.887 -0.716903 4.09675 0
M  V30 4347 H 426.464 -2.19463 3.01481 0
M  V30 4348 N 428.649 -1.55105 -0.279332 0
M  V30 4349 C 429.926 -1.66119 -1.03267 0
M  V30 4350 C 430.306 -0.523525 -2.04505 0
M  V30 4351 O 429.654 0.477194 -2.23462 0
M  V30 4352 C 429.864 -3.05067 -1.69515 0
M  V30 4353 C 431.212 -3.62606 -2.20912 0
M  V30 4354 O 432.236 -3.07659 -1.79512 0
M  V30 4355 O 431.095 -4.58861 -2.96831 0
M  V30 4356 H 428.189 -0.674429 -0.478618 0
M  V30 4357 H 430.735 -1.67446 -0.275694 0
M  V30 4358 H 429.507 -3.79311 -0.9612 0
M  V30 4359 H 429.13 -3.07611 -2.51915 0
M  V30 4360 N 430.127 0.543554 -1.4793 0
M  V30 4361 C 431.352 1.32995 -1.59145 0
M  V30 4362 C 431.777 1.86472 -0.246956 0
M  V30 4363 O 431.135 1.63696 0.779324 0
M  V30 4364 C 431.183 2.46623 -2.63077 0
M  V30 4365 O 430.287 3.49261 -2.19295 0
M  V30 4366 H 429.628 0.394472 -0.534124 0
M  V30 4367 H 432.158 0.655489 -1.93816 0
M  V30 4368 H 432.168 2.93001 -2.83926 0
M  V30 4369 H 430.843 2.07059 -3.60693 0
M  V30 4370 H 429.42 3.09094 -2.08603 0
M  V30 4371 N 431.605 1.3629 0.791371 0
M  V30 4372 C 432.538 1.24816 1.9104 0
M  V30 4373 C 433.516 0.132739 1.62057 0
M  V30 4374 O 434.7 0.303527 1.8604 0
M  V30 4375 C 431.827 0.925355 3.25814 0
M  V30 4376 C 430.873 2.05495 3.7373 0
M  V30 4377 S 431.706 3.67255 3.89723 0
M  V30 4378 C 432.862 3.37084 5.27376 0
M  V30 4379 H 433.095 2.19533 2.00481 0
M  V30 4380 H 430.628 1.21684 0.950393 0
M  V30 4381 H 432.586 0.745924 4.03666 0
M  V30 4382 H 431.247 -0.00400098 3.141 0
M  V30 4383 H 430.44 1.7836 4.71385 0
M  V30 4384 H 430.042 2.1935 3.02922 0
M  V30 4385 H 432.334 2.90856 6.1189 0
M  V30 4386 H 433.277 4.33995 5.59512 0
M  V30 4387 H 433.685 2.7248 4.94383 0
M  V30 4388 N 433.083 -1.0153 1.20538 0
M  V30 4389 C 434.016 -2.09759 0.898695 0
M  V30 4390 C 434.994 -1.61909 -0.149733 0
M  V30 4391 O 436.178 -1.88486 -0.0230293 0
M  V30 4392 C 433.305 -3.36913 0.347512 0
M  V30 4393 C 432.351 -4.03655 1.37713 0
M  V30 4394 S 433.184 -4.47402 2.94265 0
M  V30 4395 C 434.34 -5.77756 2.40726 0
M  V30 4396 H 434.573 -2.3545 1.81523 0
M  V30 4397 H 432.106 -1.14665 1.03399 0
M  V30 4398 H 434.064 -4.10484 0.0360518 0
M  V30 4399 H 432.725 -3.09291 -0.547546 0
M  V30 4400 H 431.918 -4.9514 0.940872 0
M  V30 4401 H 431.52 -3.36313 1.63614 0
M  V30 4402 H 433.812 -6.52994 1.80569 0
M  V30 4403 H 434.755 -6.2618 3.30612 0
M  V30 4404 H 435.163 -5.34081 1.82806 0
M  V30 4405 N 434.561 -1.01147 -1.20859 0
M  V30 4406 C 435.807 -0.698899 -1.90377 0
M  V30 4407 C 436.14 0.76904 -1.78324 0
M  V30 4408 O 435.415 1.55817 -1.16409 0
M  V30 4409 C 435.698 -1.12878 -3.41951 0
M  V30 4410 C 435.551 -2.65665 -3.62963 0
M  V30 4411 C 436.87 -0.696114 -4.3456 0
M  V30 4412 H 433.989 -0.255372 -0.691342 0
M  V30 4413 H 436.631 -1.25831 -1.42361 0
M  V30 4414 H 434.781 -0.652827 -3.82976 0
M  V30 4415 H 436.453 -3.21074 -3.31224 0
M  V30 4416 H 434.696 -3.06878 -3.06608 0
M  V30 4417 H 435.367 -2.90797 -4.69192 0
M  V30 4418 H 437.843 -1.10521 -4.01154 0
M  V30 4419 H 436.719 -1.025 -5.39245 0
M  V30 4420 H 436.98 0.402465 -4.40264 0
M  V30 4421 N 436.039 1.36541 -0.78704 0
M  V30 4422 C 437.316 1.9355 -0.282424 0
M  V30 4423 C 437.696 1.71919 1.22503 0
M  V30 4424 O 437.044 1.07677 2.01539 0
M  V30 4425 C 437.254 3.4246 -0.672462 0
M  V30 4426 C 438.602 4.19582 -0.650863 0
M  V30 4427 O 439.626 3.50889 -0.612789 0
M  V30 4428 O 438.485 5.42106 -0.691623 0
M  V30 4429 H 435.579 0.824091 -0.0693 0
M  V30 4430 H 438.125 1.45736 -0.869423 0
M  V30 4431 H 436.897 3.51851 -1.71221 0
M  V30 4432 H 436.52 3.97556 -0.0592211 0
M  V30 4433 N 437.518 0.538854 1.48102 0
M  V30 4434 C 438.929 0.100679 1.86428 0
M  V30 4435 C 439.28 -1.32447 1.44749 0
M  V30 4436 O 438.405 -1.99339 0.842199 0
M  V30 4437 C 439 0.175933 3.38343 0
M  V30 4438 C 437.559 -0.207098 3.7583 0
M  V30 4439 C 436.706 0.531741 2.72154 0
M  V30 4440 H 439.657 0.749614 1.3988 0
M  V30 4441 H 439.678 -0.610144 3.75576 0
M  V30 4442 H 439.19 1.21328 3.68648 0
M  V30 4443 H 437.291 -1.24626 3.5114 0
M  V30 4444 H 437.404 0.138687 4.78899 0
M  V30 4445 H 435.768 -0.0230462 2.5469 0
M  V30 4446 H 436.551 1.56989 3.05302 0
M  V30 4447 N 438.996 -1.55193 0.274407 0
M  V30 4448 C 440.224 -2.03987 -0.345943 0
M  V30 4449 C 440.639 -1.15279 -1.4952 0
M  V30 4450 O 439.996 -0.172759 -1.8168 0
M  V30 4451 C 440.047 -3.51898 -0.827631 0
M  V30 4452 O 439.768 -4.37231 0.275855 0
M  V30 4453 C 441.269 -4.16577 -1.51587 0
M  V30 4454 H 438.489 -0.666335 -0.0789892 0
M  V30 4455 H 441.033 -2.00423 0.406294 0
M  V30 4456 H 439.188 -3.55909 -1.52996 0
M  V30 4457 H 439.602 -5.24415 -0.0943638 0
M  V30 4458 H 441.076 -5.21678 -1.80433 0
M  V30 4459 H 441.553 -3.64707 -2.44716 0
M  V30 4460 H 442.159 -4.16568 -0.857409 0
M  V30 4461 N 440.474 -0.00167713 -1.576 0
M  V30 4462 C 441.422 1.0074 -2.09652 0
M  V30 4463 C 442.416 1.35483 -1.01689 0
M  V30 4464 O 443.622 1.34028 -1.20152 0
M  V30 4465 H 439.997 0.342537 -0.669457 0
M  V30 4466 H 441.968 0.542841 -2.93421 0
M  V30 4467 C 440.717 2.2899 -2.61647 0
M  V30 4468 H 440.04 2.03124 -3.44355 0
M  V30 4469 H 441.48 2.9787 -3.01744 0
M  V30 4470 C 439.939 3.00085 -1.53136 0
M  V30 4471 O 440.469 3.91135 -0.91524 0
M  V30 4472 N 438.675 2.6194 -1.25841 0
M  V30 4473 H 438.222 1.8798 -1.76129 0
M  V30 4474 H 438.18 3.09822 -0.534576 0
M  V30 4475 N 441.952 1.55251 0.271103 0
M  V30 4476 C 443.229 1.66664 1.02384 0
M  V30 4477 C 443.609 0.534363 2.04225 0
M  V30 4478 O 442.957 -0.465337 2.23712 0
M  V30 4479 C 443.167 3.05961 1.67895 0
M  V30 4480 C 444.515 3.63772 2.18986 0
M  V30 4481 O 445.539 3.08606 1.77878 0
M  V30 4482 O 444.398 4.60429 2.94393 0
M  V30 4483 H 441.492 0.676957 0.475035 0
M  V30 4484 H 444.038 1.67589 0.26681 0
M  V30 4485 H 442.81 3.79815 0.941071 0
M  V30 4486 H 442.433 3.08943 2.5028 0
M  V30 4487 N 443.43 -0.535701 1.48216 0
M  V30 4488 C 444.679 -1.28828 1.55197 0
M  V30 4489 C 444.992 -1.94263 0.228278 0
M  V30 4490 O 446.198 -2.70927 0.176278 0
M  V30 4491 C 444.654 -2.33727 2.73678 0
M  V30 4492 C 444.262 -1.74386 4.12666 0
M  V30 4493 C 446.006 -3.1003 2.89968 0
M  V30 4494 C 443.913 -2.77192 5.22416 0
M  V30 4495 H 442.843 -0.484484 0.577747 0
M  V30 4496 H 445.494 -0.56646 1.74538 0
M  V30 4497 H 443.876 -3.08919 2.4776 0
M  V30 4498 H 445.05 -1.05421 4.48579 0
M  V30 4499 H 443.365 -1.10595 4.01445 0
M  V30 4500 H 445.962 -3.86842 3.6913 0
M  V30 4501 H 446.305 -3.65542 1.9921 0
M  V30 4502 H 446.838 -2.41952 3.15759 0
M  V30 4503 H 443.577 -2.26507 6.15122 0
M  V30 4504 H 443.097 -3.44502 4.90998 0
M  V30 4505 H 444.776 -3.40285 5.50286 0
M  V30 4506 N 444.908 -1.36708 -0.784132 0
M  V30 4507 C 446.324 -1.17237 -1.08294 0
M  V30 4508 C 446.524 -5.93947e-05 -2.015 0
M  V30 4509 O 445.58 0.663686 -2.43622 0
M  V30 4510 C 446.893 -2.48557 -1.69233 0
M  V30 4511 C 448.441 -2.54968 -1.8155 0
M  V30 4512 C 448.916 -3.86388 -2.45904 0
M  V30 4513 N 450.407 -3.87762 -2.53367 0
M  V30 4514 C 451.142 -4.86191 -3.03983 0
M  V30 4515 N 450.638 -5.95015 -3.54866 0
M  V30 4516 N 452.431 -4.73606 -3.02743 0
M  V30 4517 H 444.582 -2.11758 -0.16501 0
M  V30 4518 H 446.845 -0.93822 -0.135822 0
M  V30 4519 H 446.551 -3.34638 -1.08215 0
M  V30 4520 H 446.425 -2.64748 -2.68679 0
M  V30 4521 H 448.812 -1.69302 -2.41704 0
M  V30 4522 H 448.893 -2.42672 -0.80895 0
M  V30 4523 H 448.537 -4.72462 -1.86392 0
M  V30 4524 H 448.467 -3.95982 -3.4714 0
M  V30 4525 H 450.958 -3.09145 -2.17343 0
M  V30 4526 H 451.271 -6.66086 -3.91854 0
M  V30 4527 H 449.616 -5.98676 -3.53003 0
M  V30 4528 H 452.807 -3.87717 -2.62284 0
M  V30 4529 H 452.98 -5.50473 -3.41881 0
M  V30 4530 N 446.386 1.0089 -1.21074 0
M  V30 4531 C 447.635 1.74019 -1.01981 0
M  V30 4532 C 447.948 1.90408 0.447665 0
M  V30 4533 O 449.154 2.60707 0.757906 0
M  V30 4534 C 447.61 3.13026 -1.77603 0
M  V30 4535 C 447.218 3.04623 -3.28495 0
M  V30 4536 C 448.962 3.90312 -1.66904 0
M  V30 4537 C 446.869 4.38685 -3.96623 0
M  V30 4538 H 445.799 0.652422 -0.377971 0
M  V30 4539 H 448.45 1.12755 -1.44771 0
M  V30 4540 H 446.832 3.74878 -1.27604 0
M  V30 4541 H 448.006 2.52032 -3.85767 0
M  V30 4542 H 446.321 2.40827 -3.39693 0
M  V30 4543 H 448.918 4.8951 -2.15138 0
M  V30 4544 H 449.261 4.11558 -0.62658 0
M  V30 4545 H 449.794 3.35104 -2.14359 0
M  V30 4546 H 446.533 4.22641 -5.01054 0
M  V30 4547 H 446.053 4.91252 -3.4414 0
M  V30 4548 H 447.732 5.075 -4.01314 0
M  V30 4549 N 447.864 1.01787 1.20321 0
M  V30 4550 C 449.113 0.703249 1.89043 0
M  V30 4551 C 449.426 -0.770445 1.79787 0
M  V30 4552 O 450.632 -1.19767 2.43656 0
M  V30 4553 C 449.088 1.20749 3.3904 0
M  V30 4554 C 448.696 2.70817 3.56878 0
M  V30 4555 C 450.44 0.968352 4.13308 0
M  V30 4556 C 448.347 3.14716 5.00708 0
M  V30 4557 H 447.277 0.259354 0.707991 0
M  V30 4558 H 449.928 1.23072 1.36108 0
M  V30 4559 H 448.31 0.607989 3.91305 0
M  V30 4560 H 449.484 3.36327 3.14993 0
M  V30 4561 H 447.799 2.92888 2.95983 0
M  V30 4562 H 450.396 1.27173 5.19356 0
M  V30 4563 H 450.739 -0.095149 4.16191 0
M  V30 4564 H 451.272 1.53129 3.67146 0
M  V30 4565 H 448.011 4.20347 5.02979 0
M  V30 4566 H 447.531 2.53927 5.43398 0
M  V30 4567 H 449.21 3.07426 5.69296 0
M  V30 4568 N 449.342 -1.36122 0.79427 0
M  V30 4569 C 450.59 -1.98718 0.368177 0
M  V30 4570 C 450.911 -1.63345 -1.06506 0
M  V30 4571 O 450.181 -0.909825 -1.73491 0
M  V30 4572 H 448.761 -0.735038 0.133146 0
M  V30 4573 H 451.423 -1.66239 1.01739 0
M  V30 4574 H 450.519 -3.08633 0.463923 0
M  V30 4575 N 450.82 -0.546701 -1.47814 0
M  V30 4576 C 452.045 -0.021268 -2.07389 0
M  V30 4577 C 452.47 1.25822 -1.39822 0
M  V30 4578 O 451.828 1.75111 -0.46968 0
M  V30 4579 C 451.876 0.168502 -3.60206 0
M  V30 4580 O 450.98 1.23347 -3.93522 0
M  V30 4581 H 450.321 -0.0466108 -0.662362 0
M  V30 4582 H 452.851 -0.759387 -1.89985 0
M  V30 4583 H 452.861 0.385982 -4.0617 0
M  V30 4584 H 451.536 -0.766075 -4.08784 0
M  V30 4585 H 450.113 0.997319 -3.59316 0
M  V30 4586 N 452.299 1.55045 -0.282633 0
M  V30 4587 C 453.548 1.98938 0.332667 0
M  V30 4588 C 453.861 1.17455 1.56409 0
M  V30 4589 O 455.067 1.51527 2.25282 0
M  V30 4590 C 453.523 3.54105 0.643226 0
M  V30 4591 C 453.131 4.44374 -0.568814 0
M  V30 4592 C 454.875 4.06569 1.22074 0
M  V30 4593 C 452.782 5.90943 -0.232426 0
M  V30 4594 H 451.712 0.743043 0.128075 0
M  V30 4595 H 454.363 1.79341 -0.388464 0
M  V30 4596 H 452.745 3.69532 1.42346 0
M  V30 4597 H 453.919 4.40718 -1.34551 0
M  V30 4598 H 452.234 4.02585 -1.06369 0
M  V30 4599 H 454.831 5.13626 1.48635 0
M  V30 4600 H 455.174 3.56057 2.15707 0
M  V30 4601 H 455.707 3.94612 0.502621 0
M  V30 4602 H 452.446 6.45567 -1.13683 0
M  V30 4603 H 451.966 5.9765 0.507357 0
M  V30 4604 H 453.645 6.4677 0.172657 0
M  V30 4605 N 453.777 0.010035 1.57597 0
M  V30 4606 C 455.005 -0.683413 1.95287 0
M  V30 4607 C 455.42 -1.66747 0.885481 0
M  V30 4608 O 454.777 -1.82003 -0.134629 0
M  V30 4609 C 454.828 -1.40652 3.33015 0
M  V30 4610 O 454.549 -0.461916 4.35658 0
M  V30 4611 C 456.05 -2.19356 3.85225 0
M  V30 4612 H 453.27 -0.189708 0.643624 0
M  V30 4613 H 455.814 0.0641359 2.04399 0
M  V30 4614 H 453.969 -2.10562 3.2518 0
M  V30 4615 H 454.383 -0.973215 5.15392 0
M  V30 4616 H 455.857 -2.65433 4.83993 0
M  V30 4617 H 456.334 -3.02457 3.18459 0
M  V30 4618 H 456.94 -1.54442 3.96267 0
M  V30 4619 N 455.255 -1.55392 -0.262866 0
M  V30 4620 C 456.501 -1.76737 -0.99458 0
M  V30 4621 C 456.834 -0.572453 -1.85571 0
M  V30 4622 O 456.109 0.429732 -1.89693 0
M  V30 4623 C 456.392 -3.07824 -1.8686 0
M  V30 4624 C 456.245 -4.3769 -1.03672 0
M  V30 4625 C 457.564 -3.35021 -2.85393 0
M  V30 4626 H 454.683 -0.643005 -0.360157 0
M  V30 4627 H 457.325 -1.88126 -0.266216 0
M  V30 4628 H 455.475 -2.98245 -2.48962 0
M  V30 4629 H 457.147 -4.59238 -0.43563 0
M  V30 4630 H 455.39 -4.32461 -0.340513 0
M  V30 4631 H 456.061 -5.25759 -1.6817 0
M  V30 4632 H 458.537 -3.44458 -2.33426 0
M  V30 4633 H 457.413 -4.27989 -3.43681 0
M  V30 4634 H 457.674 -2.55153 -3.61039 0
M  V30 4635 N 456.733 0.527833 -1.48498 0
M  V30 4636 C 457.979 1.28545 -1.56857 0
M  V30 4637 C 458.312 1.92678 -0.242651 0
M  V30 4638 O 457.587 1.79394 0.751545 0
M  V30 4639 C 457.87 2.37314 -2.70839 0
M  V30 4640 C 457.723 1.77858 -4.13142 0
M  V30 4641 C 459.042 3.39068 -2.80573 0
M  V30 4642 H 456.161 0.466006 -0.570971 0
M  V30 4643 H 458.803 0.587784 -1.8068 0
M  V30 4644 H 456.953 2.96821 -2.50658 0
M  V30 4645 H 458.625 1.22385 -4.44769 0
M  V30 4646 H 456.868 1.08383 -4.20042 0
M  V30 4647 H 457.539 2.56624 -4.88721 0
M  V30 4648 H 460.015 2.89518 -2.98862 0
M  V30 4649 H 458.891 4.12566 -3.6205 0
M  V30 4650 H 459.152 3.9975 -1.88818 0
M  V30 4651 N 458.211 1.37122 0.776871 0
M  V30 4652 C 459.46 1.31373 1.53049 0
M  V30 4653 C 459.773 -0.101016 1.95339 0
M  V30 4654 O 460.979 -0.280953 2.70042 0
M  V30 4655 C 459.435 2.30567 2.76346 0
M  V30 4656 C 459.043 3.77543 2.41175 0
M  V30 4657 C 460.787 2.33818 3.54301 0
M  V30 4658 C 458.694 4.68481 3.60943 0
M  V30 4659 H 457.624 0.488234 0.574581 0
M  V30 4660 H 460.275 1.62554 0.851372 0
M  V30 4661 H 458.657 1.92396 3.46121 0
M  V30 4662 H 459.831 4.24521 1.79216 0
M  V30 4663 H 458.146 3.77187 1.76405 0
M  V30 4664 H 460.743 2.98965 4.4331 0
M  V30 4665 H 461.086 1.3503 3.93793 0
M  V30 4666 H 461.619 2.7067 2.91518 0
M  V30 4667 H 458.358 5.68378 3.26537 0
M  V30 4668 H 457.878 4.2621 4.22025 0
M  V30 4669 H 459.557 4.85366 4.27819 0
M  V30 4670 N 459.689 -1.00246 1.21608 0
M  V30 4671 C 460.619 -2.10921 1.00172 0
M  V30 4672 C 461.6 -1.69938 -0.0741587 0
M  V30 4673 O 462.785 -1.94009 0.0861753 0
M  V30 4674 C 459.915 -3.42618 0.568355 0
M  V30 4675 C 458.869 -3.97407 1.58909 0
M  V30 4676 C 458.195 -5.25038 1.01187 0
M  V30 4677 C 459.495 -4.2918 2.97661 0
M  V30 4678 H 461.189 -2.29112 1.92739 0
M  V30 4679 H 458.735 -1.10101 0.928102 0
M  V30 4680 H 460.688 -4.19444 0.405555 0
M  V30 4681 H 459.412 -3.24227 -0.392961 0
M  V30 4682 H 458.071 -3.22703 1.73949 0
M  V30 4683 H 457.719 -5.02982 0.0421965 0
M  V30 4684 H 457.419 -5.62661 1.6937 0
M  V30 4685 H 458.943 -6.04507 0.860448 0
M  V30 4686 H 460.357 -4.96839 2.86049 0
M  V30 4687 H 458.754 -4.77952 3.6288 0
M  V30 4688 H 459.824 -3.3735 3.48315 0
M  V30 4689 N 461.167 -1.02423 -1.1978 0
M  V30 4690 C 462.097 -0.62157 -2.25075 0
M  V30 4691 C 463.078 0.367148 -1.6609 0
M  V30 4692 O 464.263 0.250892 -1.92573 0
M  V30 4693 C 461.393 0.0331826 -3.47284 0
M  V30 4694 C 460.347 -0.877323 -4.18912 0
M  V30 4695 C 459.673 -0.0879296 -5.34628 0
M  V30 4696 C 460.973 -2.18892 -4.74219 0
M  V30 4697 H 462.667 -1.50179 -2.59011 0
M  V30 4698 H 460.213 -0.723547 -1.24502 0
M  V30 4699 H 462.166 0.326488 -4.20133 0
M  V30 4700 H 460.89 0.948164 -3.12534 0
M  V30 4701 H 459.549 -1.15475 -3.47938 0
M  V30 4702 H 459.197 0.828941 -4.96123 0
M  V30 4703 H 458.897 -0.694359 -5.83483 0
M  V30 4704 H 460.421 0.198743 -6.10276 0
M  V30 4705 H 461.835 -1.95746 -5.38847 0
M  V30 4706 H 460.232 -2.74686 -5.33542 0
M  V30 4707 H 461.302 -2.84674 -3.92541 0
M  V30 4708 N 462.645 1.35699 -0.801477 0
M  V30 4709 C 463.893 1.9852 -0.37871 0
M  V30 4710 C 464.214 1.63907 1.05638 0
M  V30 4711 O 463.484 0.919013 1.73006 0
M  V30 4712 H 462.064 0.734322 -0.137042 0
M  V30 4713 H 464.726 1.65697 -1.02619 0
M  V30 4714 H 463.822 3.08382 -0.480284 0
M  V30 4715 N 464.123 0.554532 1.47522 0
M  V30 4716 C 465.372 0.0273458 2.01681 0
M  V30 4717 C 465.685 -1.32962 1.43459 0
M  V30 4718 O 466.891 -1.94657 1.89265 0
M  V30 4719 C 465.347 -0.00159057 3.599 0
M  V30 4720 C 464.955 1.35197 4.27113 0
M  V30 4721 C 466.699 -0.476311 4.21819 0
M  V30 4722 C 464.606 1.28229 5.77331 0
M  V30 4723 H 463.536 0.00645269 0.753972 0
M  V30 4724 H 466.187 0.701985 1.69542 0
M  V30 4725 H 464.569 -0.741821 3.8899 0
M  V30 4726 H 465.743 2.1097 4.09668 0
M  V30 4727 H 464.058 1.76441 3.77171 0
M  V30 4728 H 466.655 -0.5468 5.31897 0
M  V30 4729 H 466.998 -1.4877 3.8881 0
M  V30 4730 H 467.531 0.20898 3.97251 0
M  V30 4731 H 464.27 2.26959 6.14955 0
M  V30 4732 H 463.79 0.566314 5.97121 0
M  V30 4733 H 465.469 0.983226 6.39485 0
M  V30 4734 N 465.601 -1.54893 0.290851 0
M  V30 4735 C 466.826 -2.04804 -0.32712 0
M  V30 4736 C 467.251 -1.16721 -1.47506 0
M  V30 4737 O 466.609 -0.169107 -1.8051 0
M  V30 4738 C 466.657 -3.52268 -0.770689 0
M  V30 4739 O 465.761 -3.67236 -1.87647 0
M  V30 4740 H 465.102 -0.660789 -0.0652227 0
M  V30 4741 H 467.632 -2.00036 0.429739 0
M  V30 4742 H 467.642 -3.9393 -1.06223 0
M  V30 4743 H 466.317 -4.15843 0.069096 0
M  V30 4744 H 464.894 -3.37479 -1.58626 0
M  V30 4745 N 467.08 -0.0183926 -1.57589 0
M  V30 4746 C 468.326 0.663543 -1.91638 0
M  V30 4747 C 468.659 1.72392 -0.894134 0
M  V30 4748 O 467.934 1.94316 0.0846449 0
M  V30 4749 C 468.217 1.28984 -3.36207 0
M  V30 4750 C 468.07 0.239761 -4.49161 0
M  V30 4751 C 469.389 2.2109 -3.80536 0
M  V30 4752 H 466.508 0.239746 -0.696915 0
M  V30 4753 H 469.15 -0.073456 -1.89858 0
M  V30 4754 H 467.3 1.91799 -3.37854 0
M  V30 4755 H 468.972 -0.390119 -4.59647 0
M  V30 4756 H 467.215 -0.435972 -4.31604 0
M  V30 4757 H 467.886 0.717383 -5.47319 0
M  V30 4758 H 470.362 1.68273 -3.80557 0
M  V30 4759 H 469.238 2.61869 -4.82406 0
M  V30 4760 H 469.499 3.09764 -3.15434 0
M  V30 4761 N 468.558 1.5553 0.254621 0
M  V30 4762 C 469.521 1.88872 1.29846 0
M  V30 4763 C 470.521 0.764591 1.41459 0
M  V30 4764 O 471.711 1.03265 1.40293 0
M  V30 4765 C 468.843 2.11032 2.67728 0
M  V30 4766 H 470.036 2.82201 1.01502 0
M  V30 4767 H 467.589 1.48303 0.493556 0
M  V30 4768 H 468.324 1.20146 3.01223 0
M  V30 4769 H 468.109 2.92895 2.60682 0
M  V30 4770 H 469.599 2.38038 3.43115 0
M  V30 4771 N 470.036 -0.519951 1.48776 0
M  V30 4772 C 471.284 -1.2727 1.56993 0
M  V30 4773 C 471.605 -1.9339 0.25004 0
M  V30 4774 O 470.875 -1.81822 -0.729216 0
M  V30 4775 H 469.455 -0.472732 0.578389 0
M  V30 4776 H 472.117 -0.604234 1.85297 0
M  V30 4777 H 471.213 -2.04669 2.3562 0
M  V30 4778 N 471.514 -1.37532 -0.769588 0
M  V30 4779 C 472.447 -1.27839 -1.8903 0
M  V30 4780 C 473.425 -0.158504 -1.61826 0
M  V30 4781 O 474.609 -0.333086 -1.85534 0
M  V30 4782 C 471.736 -0.977072 -3.24301 0
M  V30 4783 C 470.782 -2.11414 -3.70414 0
M  V30 4784 S 471.615 -3.73409 -3.83831 0
M  V30 4785 C 472.771 -3.45432 -5.21946 0
M  V30 4786 H 473.004 -2.22694 -1.96963 0
M  V30 4787 H 470.537 -1.2318 -0.930914 0
M  V30 4788 H 472.495 -0.810049 -4.02428 0
M  V30 4789 H 471.156 -0.0459701 -3.14066 0
M  V30 4790 H 470.349 -1.85837 -4.68488 0
M  V30 4791 H 469.951 -2.24141 -2.99394 0
M  V30 4792 H 472.243 -3.00554 -6.07185 0
M  V30 4793 H 473.186 -4.42841 -5.52537 0
M  V30 4794 H 473.594 -2.80311 -4.89986 0
M  V30 4795 N 472.992 0.995999 -1.22138 0
M  V30 4796 C 473.902 2.11985 -1.00496 0
M  V30 4797 C 474.918 1.7394 0.0457701 0
M  V30 4798 O 476.094 2.00868 -0.146273 0
M  V30 4799 C 473.159 3.41779 -0.582086 0
M  V30 4800 C 472.22 3.93943 -1.70608 0
M  V30 4801 C 471.453 5.17542 -1.30328 0
M  V30 4802 O 471.676 5.70114 -0.180743 0
M  V30 4803 O 470.61 5.63382 -2.11861 0
M  V30 4804 H 474.436 2.33123 -1.94647 0
M  V30 4805 H 472.021 1.10358 -1.00705 0
M  V30 4806 H 473.903 4.1989 -0.356467 0
M  V30 4807 H 472.578 3.22007 0.330592 0
M  V30 4808 H 471.485 3.17019 -1.98619 0
M  V30 4809 H 472.818 4.18141 -2.59651 0
M  V30 4810 N 474.47 1.03057 1.19235 0
M  V30 4811 C 475.716 0.738841 1.89506 0
M  V30 4812 C 476.071 -0.724807 1.78225 0
M  V30 4813 O 475.364 -1.52118 1.16494 0
M  V30 4814 C 475.558 1.1268 3.39172 0
M  V30 4815 C 475.387 2.62662 3.65019 0
M  V30 4816 C 474.157 3.29658 3.82954 0
M  V30 4817 C 476.355 3.60873 3.66436 0
M  V30 4818 N 474.337 4.68726 3.96446 0
M  V30 4819 C 475.708 4.85566 3.8552 0
M  V30 4820 C 477.763 3.54647 3.49471 0
M  V30 4821 C 476.466 6.04783 3.89397 0
M  V30 4822 C 478.492 4.73281 3.54625 0
M  V30 4823 C 477.854 5.96789 3.74196 0
M  V30 4824 H 473.953 0.322256 0.712513 0
M  V30 4825 H 476.537 1.31822 1.43287 0
M  V30 4826 H 474.708 0.575612 3.84111 0
M  V30 4827 H 476.44 0.787145 3.96971 0
M  V30 4828 H 473.195 2.8007 3.81913 0
M  V30 4829 H 473.619 5.40971 4.07037 0
M  V30 4830 H 478.261 2.60143 3.33295 0
M  V30 4831 H 475.979 6.99654 4.04364 0
M  V30 4832 H 479.565 4.70094 3.42787 0
M  V30 4833 H 478.445 6.87051 3.78061 0
M  V30 4834 N 475.948 -1.35272 0.808662 0
M  V30 4835 C 476.858 -2.33546 0.222079 0
M  V30 4836 C 477.874 -1.6196 -0.636011 0
M  V30 4837 O 479.05 -1.93822 -0.547274 0
M  V30 4838 C 476.115 -3.41148 -0.61795 0
M  V30 4839 C 475.176 -4.28507 0.260875 0
M  V30 4840 C 474.409 -5.3097 -0.539156 0
M  V30 4841 O 474.632 -5.42123 -1.77367 0
M  V30 4842 O 473.566 -6.01858 0.0710526 0
M  V30 4843 H 477.392 -2.85515 1.03512 0
M  V30 4844 H 474.977 -1.38079 0.570495 0
M  V30 4845 H 476.859 -4.06889 -1.09634 0
M  V30 4846 H 475.534 -2.91447 -1.40855 0
M  V30 4847 H 474.441 -3.6574 0.786451 0
M  V30 4848 H 475.774 -4.81611 1.01547 0
M  V30 4849 N 477.426 -0.562348 -1.47226 0
M  V30 4850 C 478.389 0.172056 -2.28553 0
M  V30 4851 C 479.389 0.837928 -1.37242 0
M  V30 4852 O 480.579 0.693001 -1.59822 0
M  V30 4853 C 477.711 1.25223 -3.17068 0
M  V30 4854 H 478.904 -0.542401 -2.94954 0
M  V30 4855 H 476.457 -0.319493 -1.53 0
M  V30 4856 H 477.192 1.99892 -2.55369 0
M  V30 4857 H 476.977 0.779515 -3.84273 0
M  V30 4858 H 478.467 1.76791 -3.78332 0
M  V30 4859 N 478.904 1.54736 -0.299062 0
M  V30 4860 C 479.851 2.23448 0.577899 0
M  V30 4861 C 480.821 1.21637 1.13109 0
M  V30 4862 O 482.006 1.50252 1.17597 0
M  V30 4863 C 479.146 2.9774 1.74484 0
M  V30 4864 C 478.259 4.1432 1.22323 0
M  V30 4865 C 477.394 4.76199 2.35388 0
M  V30 4866 C 476.433 5.84927 1.80351 0
M  V30 4867 N 475.57 6.4077 2.86982 0
M  V30 4868 H 480.41 2.97996 -0.0146545 0
M  V30 4869 H 477.947 1.47088 -0.0190013 0
M  V30 4870 H 479.905 3.39045 2.43114 0
M  V30 4871 H 478.535 2.25572 2.30905 0
M  V30 4872 H 477.587 3.7797 0.429249 0
M  V30 4873 H 478.899 4.92659 0.780309 0
M  V30 4874 H 478.053 5.20346 3.11969 0
M  V30 4875 H 476.792 3.97188 2.83006 0
M  V30 4876 H 475.797 5.40207 1.02259 0
M  V30 4877 H 477.022 6.65821 1.3364 0
M  V30 4878 H 474.968 5.64643 3.33938 0
M  V30 4879 H 474.885 7.1445 2.4718 0
M  V30 4880 H 476.153 6.89574 3.63466 0
M  V30 4881 N 480.382 0.0267497 1.57577 0
M  V30 4882 C 481.345 -0.940916 2.08996 0
M  V30 4883 C 482.345 -1.25561 1.00455 0
M  V30 4884 O 483.535 -1.19634 1.26623 0
M  V30 4885 C 480.667 -2.25814 2.55384 0
M  V30 4886 H 481.86 -0.495628 2.95776 0
M  V30 4887 H 479.413 -0.221241 1.54726 0
M  V30 4888 H 480.148 -2.74976 1.71926 0
M  V30 4889 H 479.933 -2.04285 3.34679 0
M  V30 4890 H 481.423 -2.95178 2.95398 0
M  V30 4891 N 481.861 -1.55662 -0.24637 0
M  V30 4892 C 482.793 -1.86811 -1.32794 0
M  V30 4893 C 483.806 -0.754413 -1.44265 0
M  V30 4894 O 484.995 -1.03253 -1.45606 0
M  V30 4895 C 482.095 -2.0397 -2.70646 0
M  V30 4896 C 481.268 -3.34832 -2.81436 0
M  V30 4897 C 480.327 -3.41727 -4.00136 0
M  V30 4898 O 479.353 -4.14934 -3.89639 0
M  V30 4899 N 480.555 -2.71058 -5.1333 0
M  V30 4900 H 483.32 -2.80174 -1.06409 0
M  V30 4901 H 480.881 -1.55906 -0.43647 0
M  V30 4902 H 482.873 -2.05924 -3.48393 0
M  V30 4903 H 481.443 -1.1735 -2.89738 0
M  V30 4904 H 480.663 -3.4519 -1.90361 0
M  V30 4905 H 481.951 -4.21085 -2.85595 0
M  V30 4906 H 481.349 -2.11314 -5.2475 0
M  V30 4907 H 479.906 -2.78704 -5.89209 0
M  V30 4908 N 483.339 0.512053 -1.4905 0
M  V30 4909 C 484.585 1.26874 -1.58212 0
M  V30 4910 C 484.918 1.9241 -0.263073 0
M  V30 4911 O 484.193 1.80181 0.732476 0
M  V30 4912 C 484.476 2.34428 -2.73341 0
M  V30 4913 C 484.329 1.73466 -4.15006 0
M  V30 4914 C 485.648 3.36073 -2.84154 0
M  V30 4915 H 482.767 0.459924 -0.575881 0
M  V30 4916 H 485.409 0.568587 -1.81293 0
M  V30 4917 H 483.559 2.94146 -2.53792 0
M  V30 4918 H 485.231 1.17661 -4.46042 0
M  V30 4919 H 483.474 1.03921 -4.21168 0
M  V30 4920 H 484.145 2.51426 -4.91415 0
M  V30 4921 H 486.621 2.86332 -3.01916 0
M  V30 4922 H 485.497 4.08703 -3.66406 0
M  V30 4923 H 485.758 3.97725 -1.93048 0
M  V30 4924 N 484.817 1.37938 0.762283 0
M  V30 4925 C 486.066 1.32989 1.51647 0
M  V30 4926 C 486.379 -0.0802922 1.95435 0
M  V30 4927 O 487.585 -0.252295 2.70325 0
M  V30 4928 C 486.041 2.33485 2.73885 0
M  V30 4929 C 485.649 3.80079 2.37157 0
M  V30 4930 C 487.393 2.37563 3.51801 0
M  V30 4931 C 485.3 4.72283 3.55954 0
M  V30 4932 H 484.23 0.494301 0.56937 0
M  V30 4933 H 486.881 1.63448 0.834083 0
M  V30 4934 H 485.263 1.96056 3.44061 0
M  V30 4935 H 486.437 4.26398 1.74704 0
M  V30 4936 H 484.752 3.79037 1.72395 0
M  V30 4937 H 487.349 3.0365 4.40114 0
M  V30 4938 H 487.692 1.39199 3.92338 0
M  V30 4939 H 488.225 2.73747 2.8863 0
M  V30 4940 H 484.964 5.7181 3.2049 0
M  V30 4941 H 484.484 4.30663 4.1748 0
M  V30 4942 H 486.163 4.89876 4.22647 0
M  V30 4943 N 486.295 -0.989507 1.22664 0
M  V30 4944 C 487.225 -2.09847 1.02404 0
M  V30 4945 C 488.206 -1.70007 -0.0561303 0
M  V30 4946 O 489.391 -1.93906 0.106748 0
M  V30 4947 C 486.521 -3.41996 0.604663 0
M  V30 4948 C 485.475 -3.95699 1.63115 0
M  V30 4949 C 484.801 -5.23936 1.0675 0
M  V30 4950 C 486.101 -4.25999 3.02196 0
M  V30 4951 H 487.795 -2.27054 1.95158 0
M  V30 4952 H 485.341 -1.09111 0.939727 0
M  V30 4953 H 487.294 -4.1899 0.45002 0
M  V30 4954 H 486.018 -3.24626 -0.35855 0
M  V30 4955 H 484.677 -3.2084 1.77362 0
M  V30 4956 H 484.325 -5.02909 0.0955422 0
M  V30 4957 H 484.025 -5.60833 1.75328 0
M  V30 4958 H 485.549 -6.0356 0.924516 0
M  V30 4959 H 486.963 -4.93777 2.91303 0
M  V30 4960 H 485.36 -4.74076 3.67929 0
M  V30 4961 H 486.43 -3.33636 3.51873 0
M  V30 4962 N 487.773 -1.03688 -1.18687 0
M  V30 4963 C 488.703 -0.645407 -2.24403 0
M  V30 4964 C 489.684 0.349511 -1.66471 0
M  V30 4965 O 490.869 0.230453 -1.92828 0
M  V30 4966 C 487.999 -0.00365337 -3.473 0
M  V30 4967 C 486.953 -0.921705 -4.17958 0
M  V30 4968 C 486.279 -0.144629 -5.34504 0
M  V30 4969 C 487.579 -2.23909 -4.71871 0
M  V30 4970 H 489.273 -1.52917 -2.57404 0
M  V30 4971 H 486.819 -0.736711 -1.23728 0
M  V30 4972 H 488.772 0.281908 -4.20456 0
M  V30 4973 H 487.496 0.914963 -3.13522 0
M  V30 4974 H 486.155 -1.19159 -3.46694 0
M  V30 4975 H 485.803 0.776274 -4.96974 0
M  V30 4976 H 485.503 -0.756206 -5.82714 0
M  V30 4977 H 487.027 0.134004 -6.10453 0
M  V30 4978 H 488.441 -2.0145 -5.36741 0
M  V30 4979 H 486.838 -2.8033 -5.30599 0
M  V30 4980 H 487.908 -2.88822 -3.895 0
M  V30 4981 N 489.251 1.34841 -0.815825 0
M  V30 4982 C 490.497 1.98793 -0.401129 0
M  V30 4983 C 490.83 1.64548 1.03139 0
M  V30 4984 O 490.105 0.913487 1.71714 0
M  V30 4985 C 490.388 3.55143 -0.595409 0
M  V30 4986 C 490.241 3.99155 -2.07352 0
M  V30 4987 C 491.56 4.40092 -0.0268823 0
M  V30 4988 H 488.679 0.722146 -0.14722 0
M  V30 4989 H 491.321 1.59847 -1.02707 0
M  V30 4990 H 489.471 3.8845 -0.0625779 0
M  V30 4991 H 491.143 3.76216 -2.66945 0
M  V30 4992 H 489.386 3.49726 -2.56659 0
M  V30 4993 H 490.057 5.07971 -2.1603 0
M  V30 4994 H 492.533 4.13298 -0.482042 0
M  V30 4995 H 491.409 5.48562 -0.19267 0
M  V30 4996 H 491.67 4.29016 1.06759 0
M  V30 4997 N 490.729 0.570148 1.46925 0
M  V30 4998 C 491.978 0.0487352 2.01641 0
M  V30 4999 C 492.291 -1.31433 1.44861 0
M  V30 5000 O 493.497 -1.92638 1.91318 0
M  V30 5001 C 491.953 0.0365817 3.59881 0
M  V30 5002 C 491.561 1.39719 4.25655 0
M  V30 5003 C 493.305 -0.431545 4.22301 0
M  V30 5004 C 491.212 1.34345 5.75939 0
M  V30 5005 H 490.142 0.0144492 0.753862 0
M  V30 5006 H 492.793 0.719928 1.68788 0
M  V30 5007 H 491.175 -0.700522 3.89755 0
M  V30 5008 H 492.349 2.15303 4.07408 0
M  V30 5009 H 490.664 1.80431 3.75278 0
M  V30 5010 H 493.261 -0.490354 5.32447 0
M  V30 5011 H 493.604 -1.44638 3.90366 0
M  V30 5012 H 494.137 0.251102 3.97007 0
M  V30 5013 H 490.876 2.33469 6.12513 0
M  V30 5014 H 490.396 0.629615 5.96486 0
M  V30 5015 H 492.075 1.051 6.38407 0
M  V30 5016 N 492.207 -1.54576 0.307264 0
M  V30 5017 C 493.137 -2.26708 -0.55907 0
M  V30 5018 C 494.118 -1.26893 -1.1328 0
M  V30 5019 O 495.303 -1.55677 -1.16097 0
M  V30 5020 C 492.433 -3.01259 -1.72801 0
M  V30 5021 C 491.387 -4.08275 -1.28435 0
M  V30 5022 C 490.713 -4.70575 -2.53895 0
M  V30 5023 C 492.013 -5.2068 -0.411038 0
M  V30 5024 H 493.707 -2.9937 0.042576 0
M  V30 5025 H 491.253 -1.43983 0.0219173 0
M  V30 5026 H 493.206 -3.50444 -2.34023 0
M  V30 5027 H 491.93 -2.26187 -2.356 0
M  V30 5028 H 490.589 -3.59949 -0.695161 0
M  V30 5029 H 490.237 -3.92136 -3.15021 0
M  V30 5030 H 489.937 -5.42854 -2.24908 0
M  V30 5031 H 491.461 -5.22527 -3.15908 0
M  V30 5032 H 492.875 -5.65721 -0.929097 0
M  V30 5033 H 491.272 -5.99716 -0.214664 0
M  V30 5034 H 492.342 -4.81629 0.562287 0
M  V30 5035 N 493.685 -0.035106 -1.57561 0
M  V30 5036 C 494.615 0.942993 -2.13612 0
M  V30 5037 C 495.596 1.33531 -1.05373 0
M  V30 5038 O 496.781 1.41287 -1.33235 0
M  V30 5039 C 493.911 2.22332 -2.66807 0
M  V30 5040 C 492.865 1.97156 -3.79886 0
M  V30 5041 C 492.191 3.31506 -4.19533 0
M  V30 5042 C 493.491 1.30596 -5.05709 0
M  V30 5043 H 495.185 0.476179 -2.95589 0
M  V30 5044 H 492.731 0.227602 -1.4219 0
M  V30 5045 H 494.684 2.91142 -3.04654 0
M  V30 5046 H 493.408 2.7119 -1.81999 0
M  V30 5047 H 492.067 1.30763 -3.42486 0
M  V30 5048 H 491.715 3.78134 -3.31698 0
M  V30 5049 H 491.415 3.15465 -4.95738 0
M  V30 5050 H 492.939 4.01574 -4.59968 0
M  V30 5051 H 494.353 1.89416 -5.41105 0
M  V30 5052 H 492.75 1.24934 -5.86951 0
M  V30 5053 H 493.82 0.279742 -4.84092 0
M  V30 5054 N 495.163 1.55791 0.238111 0
M  V30 5055 C 496.412 1.77234 0.962868 0
M  V30 5056 C 496.725 0.600661 1.86149 0
M  V30 5057 O 497.931 0.698315 2.62366 0
M  V30 5058 C 496.387 3.13808 1.76218 0
M  V30 5059 C 495.995 4.3865 0.910518 0
M  V30 5060 C 497.739 3.44585 2.47914 0
M  V30 5061 C 495.646 5.66252 1.70623 0
M  V30 5062 H 494.576 0.660731 0.36325 0
M  V30 5063 H 497.227 1.8221 0.217242 0
M  V30 5064 H 495.609 3.02963 2.55009 0
M  V30 5065 H 496.783 4.60507 0.164316 0
M  V30 5066 H 495.098 4.15271 0.30647 0
M  V30 5067 H 497.695 4.3714 3.07917 0
M  V30 5068 H 498.038 2.66314 3.19973 0
M  V30 5069 H 498.571 3.56685 1.76127 0
M  V30 5070 H 495.31 6.47369 1.02923 0
M  V30 5071 H 494.83 5.48483 2.42748 0
M  V30 5072 H 496.509 6.05829 2.27114 0
M  V30 5073 N 496.642 -0.504142 1.49319 0
M  V30 5074 C 497.605 -1.5883 1.65244 0
M  V30 5075 C 498.605 -1.52009 0.524386 0
M  V30 5076 O 499.795 -1.55218 0.79077 0
M  V30 5077 C 496.927 -2.98481 1.64687 0
M  V30 5078 H 498.12 -1.4604 2.61939 0
M  V30 5079 H 495.673 -0.728144 1.38303 0
M  V30 5080 H 496.408 -3.16751 0.695644 0
M  V30 5081 H 496.193 -3.0484 2.46607 0
M  V30 5082 H 497.683 -3.77256 1.79075 0
M  V30 5083 N 498.12 -1.38341 -0.754957 0
M  V30 5084 C 499.369 -1.33791 -1.5094 0
M  V30 5085 C 499.682 0.0699267 -1.95475 0
M  V30 5086 O 500.888 0.237956 -2.70455 0
M  V30 5087 C 499.344 -2.34934 -2.72643 0
M  V30 5088 C 498.952 -3.81332 -2.35138 0
M  V30 5089 C 500.696 -2.39425 -3.50536 0
M  V30 5090 C 498.603 -4.74164 -3.53444 0
M  V30 5091 H 497.533 -0.497314 -0.566741 0
M  V30 5092 H 500.184 -1.63888 -0.825403 0
M  V30 5093 H 498.566 -1.97878 -3.43017 0
M  V30 5094 H 499.74 -4.27319 -1.7244 0
M  V30 5095 H 498.055 -3.79946 -1.70382 0
M  V30 5096 H 500.652 -3.0598 -4.38498 0
M  V30 5097 H 500.995 -1.41278 -3.91594 0
M  V30 5098 H 501.528 -2.75274 -2.87174 0
M  V30 5099 H 498.267 -5.73501 -3.17453 0
M  V30 5100 H 497.787 -4.3287 -4.15191 0
M  V30 5101 H 499.466 -4.92111 -4.20043 0
M  V30 5102 N 499.598 0.982988 -1.23187 0
M  V30 5103 C 500.561 2.05649 -1.01198 0
M  V30 5104 C 501.561 1.6078 0.0252464 0
M  V30 5105 O 502.751 1.72878 -0.214243 0
M  V30 5106 C 499.883 3.36744 -0.530656 0
M  V30 5107 H 501.076 2.2659 -1.96461 0
M  V30 5108 H 498.629 1.15602 -1.05195 0
M  V30 5109 H 499.364 3.21492 0.425873 0
M  V30 5110 H 499.149 3.7065 -1.2791 0
M  V30 5111 H 500.639 4.15705 -0.397366 0
M  V30 5112 N 501.076 1.04316 1.18135 0
M  V30 5113 C 502.024 0.630175 2.23901 0
M  V30 5114 C 503.018 -0.344254 1.65865 0
M  V30 5115 O 504.224 -0.211273 1.78756 0
M  V30 5116 H 500.599 0.185578 0.728742 0
M  V30 5117 H 502.57 1.53253 2.56039 0
M  V30 5118 C 501.319 0.011666 3.47698 0
M  V30 5119 H 500.642 0.752526 3.92654 0
M  V30 5120 H 502.082 -0.240046 4.2332 0
M  V30 5121 C 500.541 -1.23913 3.13285 0
M  V30 5122 O 501.071 -2.32959 3.27251 0
M  V30 5123 N 499.277 -1.13338 2.67587 0
M  V30 5124 H 498.824 -0.246006 2.56423 0
M  V30 5125 H 498.782 -1.97116 2.44934 0
M  V30 5126 N 502.554 -1.34406 0.822964 0
M  V30 5127 C 503.801 -1.98284 0.411057 0
M  V30 5128 C 504.129 -1.65245 -1.02588 0
M  V30 5129 O 503.384 -0.91619 -1.72929 0
M  V30 5130 C 503.683 -3.52981 0.560268 0
M  V30 5131 C 503.349 -4.05931 1.96293 0
M  V30 5132 C 502.011 -4.20103 2.34664 0
M  V30 5133 C 504.363 -4.34412 2.87985 0
M  V30 5134 C 501.691 -4.60082 3.64062 0
M  V30 5135 C 504.043 -4.75838 4.16847 0
M  V30 5136 C 502.707 -4.88215 4.55195 0
M  V30 5137 H 501.977 -0.725573 0.150416 0
M  V30 5138 H 504.624 -1.60349 1.04692 0
M  V30 5139 H 502.929 -3.91477 -0.158982 0
M  V30 5140 H 504.626 -4.00385 0.222087 0
M  V30 5141 H 501.216 -3.95363 1.65487 0
M  V30 5142 H 505.4 -4.23001 2.59584 0
M  V30 5143 H 500.656 -4.67856 3.93599 0
M  V30 5144 H 504.83 -4.96834 4.87984 0
M  V30 5145 H 502.457 -5.18952 5.55512 0
M  V30 5146 N 504.032 -0.577932 -1.46621 0
M  V30 5147 C 505.279 -0.0616879 -2.02406 0
M  V30 5148 C 505.607 1.29638 -1.44997 0
M  V30 5149 O 504.862 1.86176 -0.60308 0
M  V30 5150 C 505.161 0.0590832 -3.57351 0
M  V30 5151 C 504.827 -1.23077 -4.33777 0
M  V30 5152 C 503.489 -1.58416 -4.54376 0
M  V30 5153 C 505.841 -2.08457 -4.77698 0
M  V30 5154 C 503.169 -2.78943 -5.16147 0
M  V30 5155 C 505.521 -3.28204 -5.408 0
M  V30 5156 C 504.185 -3.63832 -5.59627 0
M  V30 5157 H 503.455 -0.0225732 -0.740656 0
M  V30 5158 H 506.102 -0.753609 -1.76048 0
M  V30 5159 H 504.407 0.834104 -3.82818 0
M  V30 5160 H 506.104 0.474202 -3.98186 0
M  V30 5161 H 502.694 -0.945652 -4.18038 0
M  V30 5162 H 506.878 -1.82459 -4.61544 0
M  V30 5163 H 502.134 -3.06689 -5.28916 0
M  V30 5164 H 506.308 -3.94634 -5.73792 0
M  V30 5165 H 503.935 -4.57315 -6.07262 0
M  V30 5166 N 505.51 1.54411 -0.315457 0
M  V30 5167 C 506.759 1.99599 0.290395 0
M  V30 5168 C 507.072 1.20746 1.53882 0
M  V30 5169 O 508.278 1.56272 2.22017 0
M  V30 5170 C 506.734 3.5539 0.56797 0
M  V30 5171 C 506.342 4.43068 -0.662945 0
M  V30 5172 C 508.086 4.09067 1.13422 0
M  V30 5173 C 505.993 5.90317 -0.357722 0
M  V30 5174 H 504.923 0.745592 0.112286 0
M  V30 5175 H 507.574 1.78477 -0.426418 0
M  V30 5176 H 505.956 3.72468 1.34476 0
M  V30 5177 H 507.13 4.37765 -1.43869 0
M  V30 5178 H 505.445 4.00238 -1.14884 0
M  V30 5179 H 508.042 5.16663 1.37707 0
M  V30 5180 H 508.385 3.60552 2.08106 0
M  V30 5181 H 508.918 3.95589 0.418805 0
M  V30 5182 H 505.657 6.4301 -1.27351 0
M  V30 5183 H 505.177 5.98592 0.380472 0
M  V30 5184 H 506.856 6.4699 0.0354284 0
M  V30 5185 N 506.988 0.0434614 1.5754 0
M  V30 5186 C 508.236 -0.630786 1.92004 0
M  V30 5187 C 508.557 -1.71836 0.921807 0
M  V30 5188 O 507.827 -1.9587 -0.034522 0
M  V30 5189 H 506.407 -0.235988 0.708745 0
M  V30 5190 H 509.069 0.0946462 1.9467 0
M  V30 5191 H 508.165 -1.07434 2.93026 0
M  V30 5192 N 508.466 -1.55915 -0.229846 0
M  V30 5193 C 509.694 -1.82617 -0.972562 0
M  V30 5194 C 510.109 -0.621488 -1.78278 0
M  V30 5195 O 509.466 0.409956 -1.77836 0
M  V30 5196 C 509.517 -3.0774 -1.89679 0
M  V30 5197 O 509.238 -4.23559 -1.11934 0
M  V30 5198 C 510.739 -3.47368 -2.75409 0
M  V30 5199 H 507.959 -0.60727 -0.285419 0
M  V30 5200 H 510.503 -2.02996 -0.247579 0
M  V30 5201 H 508.658 -2.89361 -2.57583 0
M  V30 5202 H 509.072 -4.94586 -1.74599 0
M  V30 5203 H 510.546 -4.37977 -3.35977 0
M  V30 5204 H 511.023 -2.68737 -3.47386 0
M  V30 5205 H 511.629 -3.68158 -2.12931 0
M  V30 5206 N 509.944 0.496216 -1.49584 0
M  V30 5207 C 511.19 1.25189 -1.59548 0
M  V30 5208 C 511.523 1.9212 -0.283466 0
M  V30 5209 O 510.798 1.80947 0.713324 0
M  V30 5210 C 511.081 2.31516 -2.75812 0
M  V30 5211 C 510.934 1.69054 -4.16822 0
M  V30 5212 C 512.253 3.3304 -2.87702 0
M  V30 5213 H 509.372 0.45379 -0.580727 0
M  V30 5214 H 512.014 0.549327 -1.81886 0
M  V30 5215 H 510.164 2.91438 -2.56897 0
M  V30 5216 H 511.836 1.12923 -4.47265 0
M  V30 5217 H 510.079 0.994485 -4.22247 0
M  V30 5218 H 510.75 2.462 -4.94054 0
M  V30 5219 H 513.226 2.83114 -3.04936 0
M  V30 5220 H 512.102 4.04794 -3.7072 0
M  V30 5221 H 512.363 3.95655 -1.97255 0
M  V30 5222 N 511.423 1.38739 0.74761 0
M  V30 5223 C 512.672 1.3459 1.50228 0
M  V30 5224 C 512.985 -0.0595592 1.95509 0
M  V30 5225 O 514.191 -0.22361 2.70578 0
M  V30 5226 C 512.647 2.36377 2.71393 0
M  V30 5227 C 512.255 3.82573 2.33113 0
M  V30 5228 C 513.999 2.41281 3.49262 0
M  V30 5229 C 511.906 4.76032 3.50924 0
M  V30 5230 H 510.836 0.500312 0.564096 0
M  V30 5231 H 513.487 1.64324 0.8167 0
M  V30 5232 H 511.869 1.99694 3.41962 0
M  V30 5233 H 513.043 4.28227 1.70171 0
M  V30 5234 H 511.358 3.80844 1.68365 0
M  V30 5235 H 513.955 3.08301 4.36869 0
M  V30 5236 H 514.298 1.43353 3.9084 0
M  V30 5237 H 514.831 2.76793 2.85711 0
M  V30 5238 H 511.57 5.75177 3.14408 0
M  V30 5239 H 511.09 4.35066 4.12889 0
M  V30 5240 H 512.769 4.94331 4.17427 0
M  V30 5241 N 512.901 -0.976442 1.23707 0
M  V30 5242 C 514.312 -1.53284 1.06587 0
M  V30 5243 C 514.663 -1.92765 -0.365526 0
M  V30 5244 O 513.788 -1.7645 -1.25277 0
M  V30 5245 C 514.383 -2.78548 1.92864 0
M  V30 5246 C 512.942 -3.30574 1.79994 0
M  V30 5247 C 512.089 -2.03538 1.88328 0
M  V30 5248 H 515.04 -0.795692 1.37311 0
M  V30 5249 H 515.061 -3.5155 1.45577 0
M  V30 5250 H 514.573 -2.49782 2.97037 0
M  V30 5251 H 512.674 -3.64211 0.786202 0
M  V30 5252 H 512.787 -4.00065 2.636 0
M  V30 5253 H 511.151 -2.17853 1.31954 0
M  V30 5254 H 511.934 -1.77149 2.94063 0
M  V30 5255 N 514.379 -1.04941 -1.1758 0
M  V30 5256 C 515.604 -0.778253 -1.92245 0
M  V30 5257 C 516.029 0.659707 -1.76152 0
M  V30 5258 O 515.387 1.45803 -1.07755 0
M  V30 5259 C 515.435 -1.16051 -3.41416 0
M  V30 5260 O 514.539 -0.291153 -4.11371 0
M  V30 5261 H 513.88 -0.285619 -0.599431 0
M  V30 5262 H 516.41 -1.40159 -1.49052 0
M  V30 5263 H 516.42 -1.12619 -3.92149 0
M  V30 5264 H 515.095 -2.208 -3.52449 0
M  V30 5265 H 513.672 -0.385851 -3.70898 0
M  V30 5266 N 515.857 1.33968 -0.830081 0
M  V30 5267 C 516.805 2.31301 -0.245435 0
M  V30 5268 C 517.799 1.57734 0.617762 0
M  V30 5269 O 519.005 1.72674 0.508303 0
M  V30 5270 H 515.38 0.749552 -0.0606316 0
M  V30 5271 H 517.351 2.78129 -1.08105 0
M  V30 5272 C 516.1 3.42961 0.572084 0
M  V30 5273 H 515.423 3.99714 -0.0828118 0
M  V30 5274 H 516.863 4.13286 0.94715 0
M  V30 5275 C 515.322 2.88043 1.74737 0
M  V30 5276 O 515.852 2.83508 2.8458 0
M  V30 5277 N 514.058 2.44768 1.56642 0
M  V30 5278 H 513.605 2.48656 0.672901 0
M  V30 5279 H 513.563 2.08375 2.3543 0
M  V30 5280 N 517.335 0.585699 1.46312 0
M  V30 5281 C 518.283 -0.158577 2.32059 0
M  V30 5282 C 519.277 -0.881427 1.44662 0
M  V30 5283 O 520.483 -0.799476 1.61271 0
M  V30 5284 H 516.858 -0.0700066 0.748734 0
M  V30 5285 H 518.829 0.583383 2.92642 0
M  V30 5286 C 517.578 -1.15701 3.27885 0
M  V30 5287 H 516.901 -0.610215 3.95116 0
M  V30 5288 H 518.341 -1.64812 3.90657 0
M  V30 5289 C 516.8 -2.21951 2.53455 0
M  V30 5290 O 517.33 -3.29352 2.29978 0
M  V30 5291 N 515.536 -1.9664 2.13965 0
M  V30 5292 H 515.083 -1.09309 2.33258 0
M  V30 5293 H 515.041 -2.6794 1.64485 0
M  V30 5294 N 518.813 -1.54241 0.323641 0
M  V30 5295 C 519.723 -2.28033 -0.551205 0
M  V30 5296 C 520.739 -1.32388 -1.12913 0
M  V30 5297 O 521.915 -1.65403 -1.14908 0
M  V30 5298 C 518.98 -3.02382 -1.69606 0
M  V30 5299 C 518.041 -4.13612 -1.14993 0
M  V30 5300 C 517.274 -4.84407 -2.24022 0
M  V30 5301 O 517.497 -4.54716 -3.44368 0
M  V30 5302 O 516.431 -5.71312 -1.89436 0
M  V30 5303 H 520.257 -3.03662 0.048066 0
M  V30 5304 H 517.842 -1.49133 0.0893289 0
M  V30 5305 H 519.724 -3.48941 -2.36259 0
M  V30 5306 H 518.399 -2.29628 -2.28151 0
M  V30 5307 H 517.306 -3.71402 -0.448484 0
M  V30 5308 H 518.639 -4.8841 -0.609608 0
M  V30 5309 N 520.291 -0.0518155 -1.57515 0
M  V30 5310 C 521.238 0.922352 -2.11569 0
M  V30 5311 C 522.208 1.30842 -1.02321 0
M  V30 5312 O 523.393 1.39778 -1.29872 0
M  V30 5313 C 520.533 2.19167 -2.6657 0
M  V30 5314 C 519.646 1.86003 -3.89906 0
M  V30 5315 C 518.781 3.07398 -4.33221 0
M  V30 5316 C 517.82 2.70158 -5.49255 0
M  V30 5317 N 516.957 3.84248 -5.8762 0
M  V30 5318 H 521.797 0.454506 -2.94514 0
M  V30 5319 H 519.334 0.212718 -1.45554 0
M  V30 5320 H 521.292 2.93443 -2.96559 0
M  V30 5321 H 519.922 2.63528 -1.86421 0
M  V30 5322 H 518.974 1.01874 -3.66505 0
M  V30 5323 H 520.286 1.54592 -4.74239 0
M  V30 5324 H 519.44 3.89972 -4.64765 0
M  V30 5325 H 518.179 3.41988 -3.477 0
M  V30 5326 H 517.184 1.86001 -5.17382 0
M  V30 5327 H 518.409 2.36759 -6.36492 0
M  V30 5328 H 516.355 4.18638 -5.05053 0
M  V30 5329 H 516.272 3.56538 -6.66646 0
M  V30 5330 H 517.54 4.6746 -6.2378 0
M  V30 5331 N 521.769 1.56035 0.221574 0
M  V30 5332 C 522.716 1.92413 1.27459 0
M  V30 5333 C 523.686 0.781323 1.46576 0
M  V30 5334 O 524.871 1.03721 1.60145 0
M  V30 5335 C 522.011 2.24617 2.61995 0
M  V30 5336 C 521.124 3.51831 2.50677 0
M  V30 5337 C 520.259 3.73482 3.77736 0
M  V30 5338 C 519.298 4.94211 3.6114 0
M  V30 5339 N 518.435 5.12252 4.80148 0
M  V30 5340 H 523.275 2.82203 0.957355 0
M  V30 5341 H 520.812 1.39676 0.461415 0
M  V30 5342 H 522.77 2.41298 3.40339 0
M  V30 5343 H 521.4 1.38 2.91815 0
M  V30 5344 H 520.452 3.43343 1.63767 0
M  V30 5345 H 521.764 4.40328 2.34334 0
M  V30 5346 H 520.918 3.9026 4.64523 0
M  V30 5347 H 519.657 2.83266 3.97003 0
M  V30 5348 H 518.662 4.77384 2.72736 0
M  V30 5349 H 519.887 5.85912 3.43343 0
M  V30 5350 H 517.833 4.24978 4.99729 0
M  V30 5351 H 517.75 5.94881 4.66532 0
M  V30 5352 H 519.018 5.33465 5.68362 0
M  V30 5353 N 523.247 -0.488276 1.49845 0
M  V30 5354 C 524.472 -1.26997 1.63971 0
M  V30 5355 C 524.897 -1.85427 0.315994 0
M  V30 5356 O 524.255 -1.66475 -0.718032 0
M  V30 5357 C 524.303 -2.36689 2.72049 0
M  V30 5358 O 523.407 -3.40882 2.32107 0
M  V30 5359 H 522.748 -0.374376 0.548396 0
M  V30 5360 H 525.278 -0.583104 1.96115 0
M  V30 5361 H 525.288 -2.82262 2.94605 0
M  V30 5362 H 523.963 -1.93529 3.68129 0
M  V30 5363 H 522.54 -3.01139 2.19931 0
M  V30 5364 N 524.725 -1.39134 -0.740242 0
M  V30 5365 C 526.141 -1.20623 -1.0451 0
M  V30 5366 C 526.341 -0.0641651 -2.01398 0
M  V30 5367 O 525.397 0.585843 -2.4561 0
M  V30 5368 C 526.71 -2.53815 -1.6124 0
M  V30 5369 C 528.258 -2.60615 -1.73346 0
M  V30 5370 C 528.733 -3.94015 -2.33486 0
M  V30 5371 N 530.224 -3.95627 -2.40902 0
M  V30 5372 C 530.959 -4.95616 -2.88361 0
M  V30 5373 N 530.455 -6.06003 -3.35756 0
M  V30 5374 N 532.248 -4.82998 -2.87523 0
M  V30 5375 H 524.399 -2.12176 -0.0975576 0
M  V30 5376 H 526.662 -0.942066 -0.105904 0
M  V30 5377 H 526.368 -3.37911 -0.975144 0
M  V30 5378 H 526.242 -2.73162 -2.6012 0
M  V30 5379 H 528.629 -1.76906 -2.36195 0
M  V30 5380 H 528.71 -2.45123 -0.731336 0
M  V30 5381 H 528.354 -4.78153 -1.71267 0
M  V30 5382 H 528.284 -4.06825 -3.34366 0
M  V30 5383 H 530.775 -3.15903 -2.07398 0
M  V30 5384 H 531.088 -6.78215 -3.70464 0
M  V30 5385 H 529.433 -6.09604 -3.33778 0
M  V30 5386 H 532.624 -3.95866 -2.49816 0
M  V30 5387 H 532.797 -5.61072 -3.24196 0
M  V30 5388 N 526.204 0.969867 -1.24223 0
M  V30 5389 C 527.452 1.70918 -1.0785 0
M  V30 5390 C 527.773 1.91186 0.383763 0
M  V30 5391 O 527.043 1.48806 1.27411 0
M  V30 5392 H 525.623 0.633334 -0.396103 0
M  V30 5393 H 528.285 1.16689 -1.56108 0
M  V30 5394 H 527.381 2.69455 -1.57482 0
M  V30 5395 N 527.682 1.05563 1.17022 0
M  V30 5396 C 528.929 0.767937 1.87374 0
M  V30 5397 C 529.257 -0.705224 1.81265 0
M  V30 5398 O 528.512 -1.5318 1.21796 0
M  V30 5399 C 528.811 1.19849 3.36706 0
M  V30 5400 C 528.477 2.6745 3.63017 0
M  V30 5401 C 527.139 3.0777 3.69907 0
M  V30 5402 C 529.491 3.62811 3.74189 0
M  V30 5403 C 526.819 4.42307 3.85463 0
M  V30 5404 C 529.171 4.97087 3.91264 0
M  V30 5405 C 527.835 5.37055 3.96394 0
M  V30 5406 H 527.105 0.281008 0.68565 0
M  V30 5407 H 529.752 1.32339 1.38415 0
M  V30 5408 H 528.057 0.562096 3.87747 0
M  V30 5409 H 529.754 0.953038 3.8951 0
M  V30 5410 H 526.344 2.35228 3.58282 0
M  V30 5411 H 530.528 3.32798 3.68183 0
M  V30 5412 H 525.784 4.72769 3.87684 0
M  V30 5413 H 529.958 5.70869 3.9885 0
M  V30 5414 H 527.585 6.41308 4.082 0
M  V30 5415 N 529.16 -1.33526 0.837174 0
M  V30 5416 C 530.407 -1.97837 0.432064 0
M  V30 5417 C 530.735 -1.66324 -1.00829 0
M  V30 5418 O 529.99 -0.93448 -1.71948 0
M  V30 5419 C 530.289 -3.52367 0.597675 0
M  V30 5420 C 529.955 -4.03826 2.00587 0
M  V30 5421 C 528.617 -4.1759 2.39106 0
M  V30 5422 C 530.969 -4.31333 2.92576 0
M  V30 5423 C 528.297 -4.56195 3.68921 0
M  V30 5424 C 530.649 -4.7139 4.2187 0
M  V30 5425 C 529.313 -4.8336 4.60347 0
M  V30 5426 H 528.583 -0.723937 0.158104 0
M  V30 5427 H 531.23 -1.5923 1.06387 0
M  V30 5428 H 529.535 -3.91624 -0.117452 0
M  V30 5429 H 531.232 -4.00126 0.26454 0
M  V30 5430 H 527.822 -3.93586 1.69671 0
M  V30 5431 H 532.006 -4.20224 2.64056 0
M  V30 5432 H 527.262 -4.63655 3.9854 0
M  V30 5433 H 531.436 -4.91631 4.93226 0
M  V30 5434 H 529.063 -5.1303 5.60985 0
M  V30 5435 N 530.638 -0.59345 -1.46 0
M  V30 5436 C 531.586 0.146268 -2.3214 0
M  V30 5437 C 532.58 0.873743 -1.45128 0
M  V30 5438 O 533.786 0.790912 -1.61693 0
M  V30 5439 H 530.161 0.0660349 -0.749095 0
M  V30 5440 H 532.132 -0.598895 -2.92328 0
M  V30 5441 C 530.881 1.1396 -3.28494 0
M  V30 5442 H 530.204 0.589252 -3.95434 0
M  V30 5443 H 531.644 1.62738 -3.91526 0
M  V30 5444 C 530.103 2.20604 -2.54628 0
M  V30 5445 O 530.633 3.28128 -2.31722 0
M  V30 5446 N 528.839 1.95502 -2.15005 0
M  V30 5447 H 528.386 1.0807 -2.33834 0
M  V30 5448 H 528.344 2.67064 -1.65904 0
M  V30 5449 N 532.116 1.54067 -0.331816 0
M  V30 5450 C 533.346 2.04833 0.269605 0
M  V30 5451 C 533.754 1.20714 1.45687 0
M  V30 5452 O 533.097 0.232539 1.82222 0
M  V30 5453 C 533.159 3.51386 0.759499 0
M  V30 5454 C 532.823 4.55971 -0.306557 0
M  V30 5455 C 533.82 5.07126 -1.14538 0
M  V30 5456 C 531.505 5.00216 -0.457116 0
M  V30 5457 C 533.499 6.01096 -2.12042 0
M  V30 5458 C 531.186 5.93999 -1.43556 0
M  V30 5459 C 532.184 6.44326 -2.26568 0
M  V30 5460 O 531.872 7.36267 -3.22749 0
M  V30 5461 H 531.604 0.673509 0.0579763 0
M  V30 5462 H 534.158 1.99748 -0.478521 0
M  V30 5463 H 532.388 3.53896 1.55867 0
M  V30 5464 H 534.077 3.85184 1.28017 0
M  V30 5465 H 534.843 4.73716 -1.04009 0
M  V30 5466 H 530.722 4.60652 0.179142 0
M  V30 5467 H 534.266 6.40302 -2.76873 0
M  V30 5468 H 530.163 6.26825 -1.54146 0
M  V30 5469 H 530.931 7.54165 -3.18083 0
M  V30 5470 N 533.594 0.0601682 1.57485 0
M  V30 5471 C 534.526 -0.94047 2.09016 0
M  V30 5472 C 535.539 -1.26897 1.01985 0
M  V30 5473 O 536.728 -1.22819 1.29529 0
M  V30 5474 C 533.828 -2.25955 2.52582 0
M  V30 5475 C 533.001 -2.11163 3.83052 0
M  V30 5476 C 532.06 -3.26273 4.12835 0
M  V30 5477 O 531.086 -3.01779 4.82616 0
M  V30 5478 N 532.288 -4.51022 3.65458 0
M  V30 5479 H 535.053 -0.500578 2.9549 0
M  V30 5480 H 532.614 -0.125852 1.6141 0
M  V30 5481 H 534.606 -3.01846 2.69575 0
M  V30 5482 H 533.176 -2.61481 1.71308 0
M  V30 5483 H 532.396 -1.19808 3.75552 0
M  V30 5484 H 533.684 -1.98517 4.68475 0
M  V30 5485 H 533.082 -4.73811 3.09062 0
M  V30 5486 H 531.639 -5.23978 3.87673 0
M  V30 5487 N 535.072 -1.5615 -0.213296 0
M  V30 5488 C 536.035 -1.92249 -1.24792 0
M  V30 5489 C 537.035 -0.801828 -1.39382 0
M  V30 5490 O 538.225 -1.06948 -1.37506 0
M  V30 5491 C 535.357 -2.18056 -2.62039 0
M  V30 5492 H 536.55 -2.84793 -0.939845 0
M  V30 5493 H 534.103 -1.49559 -0.454062 0
M  V30 5494 H 534.838 -1.2809 -2.97932 0
M  V30 5495 H 534.623 -2.99703 -2.52825 0
M  V30 5496 H 536.113 -2.47051 -3.36683 0
M  V30 5497 N 536.55 0.480323 -1.50102 0
M  V30 5498 C 537.775 1.26126 -1.64642 0
M  V30 5499 C 538.2 1.85257 -0.325823 0
M  V30 5500 O 537.558 1.66854 0.709194 0
M  V30 5501 C 537.606 2.35243 -2.73301 0
M  V30 5502 O 536.71 3.39646 -2.33911 0
M  V30 5503 H 536.051 0.371463 -0.550374 0
M  V30 5504 H 538.581 0.572696 -1.96421 0
M  V30 5505 H 538.591 2.80695 -2.96098 0
M  V30 5506 H 537.266 1.91574 -3.6915 0
M  V30 5507 H 535.843 2.99969 -2.21525 0
M  V30 5508 N 538.028 1.39524 0.732853 0
M  V30 5509 C 539.277 1.36175 1.48792 0
M  V30 5510 C 539.59 -0.0388195 1.95561 0
M  V30 5511 O 540.796 -0.194899 2.708 0
M  V30 5512 C 539.252 2.39242 2.68871 0
M  V30 5513 C 538.86 3.85024 2.29042 0
M  V30 5514 C 540.604 2.44972 3.46683 0
M  V30 5515 C 538.511 4.79727 3.45856 0
M  V30 5516 H 537.441 0.506267 0.558757 0
M  V30 5517 H 540.092 1.65181 0.799226 0
M  V30 5518 H 538.474 2.0331 3.39825 0
M  V30 5519 H 539.648 4.30008 1.6562 0
M  V30 5520 H 537.963 3.82609 1.64316 0
M  V30 5521 H 540.56 3.12918 4.33574 0
M  V30 5522 H 540.903 1.4749 3.89297 0
M  V30 5523 H 541.436 2.79808 2.82759 0
M  V30 5524 H 538.175 5.78479 3.08289 0
M  V30 5525 H 537.695 4.39421 4.08251 0
M  V30 5526 H 539.374 4.98731 4.12161 0
M  V30 5527 N 539.506 -0.963266 1.24736 0
M  V30 5528 C 540.753 -1.7068 1.0897 0
M  V30 5529 C 541.081 -1.90934 -0.370751 0
M  V30 5530 O 540.336 -1.47155 -1.29011 0
M  V30 5531 C 540.635 -3.09944 1.7796 0
M  V30 5532 C 540.301 -3.09518 3.27887 0
M  V30 5533 C 538.963 -3.09109 3.68789 0
M  V30 5534 C 541.315 -3.03509 4.23712 0
M  V30 5535 C 538.643 -3.00429 5.03944 0
M  V30 5536 C 540.995 -2.96371 5.5888 0
M  V30 5537 C 539.659 -2.94293 5.99123 0
M  V30 5538 H 538.929 -0.624564 0.398749 0
M  V30 5539 H 541.576 -1.12603 1.54896 0
M  V30 5540 H 539.881 -3.71513 1.2444 0
M  V30 5541 H 541.578 -3.66278 1.63222 0
M  V30 5542 H 538.168 -3.10603 2.95337 0
M  V30 5543 H 542.352 -3.0295 3.93109 0
M  V30 5544 H 537.608 -2.97183 5.34314 0
M  V30 5545 H 541.782 -2.90681 6.32833 0
M  V30 5546 H 539.409 -2.87322 7.03811 0
M  V30 5547 N 540.985 -1.06182 -1.16461 0
M  V30 5548 C 541.948 -0.675723 -2.19013 0
M  V30 5549 C 542.948 0.277963 -1.58379 0
M  V30 5550 O 544.138 0.0604962 -1.74095 0
M  V30 5551 C 541.27 0.00591459 -3.40899 0
M  V30 5552 H 542.463 -1.58353 -2.54685 0
M  V30 5553 H 540.016 -0.856908 -1.30716 0
M  V30 5554 H 540.751 0.92652 -3.10783 0
M  V30 5555 H 540.536 -0.67984 -3.86161 0
M  V30 5556 H 542.026 0.26181 -4.16778 0
M  V30 5557 N 542.463 1.3308 -0.844243 0
M  V30 5558 C 543.373 2.32876 -0.283922 0
M  V30 5559 C 544.389 1.63589 0.592846 0
M  V30 5560 O 545.565 1.95205 0.495693 0
M  V30 5561 C 542.63 3.42667 0.527283 0
M  V30 5562 C 541.691 4.27664 -0.374394 0
M  V30 5563 C 540.924 5.32212 0.39819 0
M  V30 5564 O 541.147 5.46635 1.62932 0
M  V30 5565 O 540.081 6.01458 -0.2306 0
M  V30 5566 H 543.907 2.82671 -1.11045 0
M  V30 5567 H 541.492 1.36518 -0.606903 0
M  V30 5568 H 543.374 4.09652 0.988078 0
M  V30 5569 H 542.049 2.95079 1.33078 0
M  V30 5570 H 540.956 3.63526 -0.883144 0
M  V30 5571 H 542.289 4.78749 -1.1428 0
M  V30 5572 N 543.941 0.601185 1.45683 0
M  V30 5573 C 544.889 -0.133955 2.32214 0
M  V30 5574 C 545.883 -0.866034 1.45589 0
M  V30 5575 O 547.089 -0.782326 1.6211 0
M  V30 5576 H 543.464 -0.0620613 0.749435 0
M  V30 5577 H 545.435 0.614389 2.92007 0
M  V30 5578 C 544.184 -1.12216 3.29094 0
M  V30 5579 H 543.507 -0.568273 3.95741 0
M  V30 5580 H 544.947 -1.60659 3.92383 0
M  V30 5581 C 543.406 -2.19251 2.55794 0
M  V30 5582 O 543.936 -3.26894 2.33459 0
M  V30 5583 N 542.142 -1.9436 2.16039 0
M  V30 5584 H 541.689 -1.06829 2.34404 0
M  V30 5585 H 541.647 -2.66181 1.67318 0
M  V30 5586 N 545.419 -1.53889 0.339982 0
M  V30 5587 C 546.666 -2.00855 -0.257621 0
M  V30 5588 C 546.994 -1.22788 -1.50842 0
M  V30 5589 O 546.249 -0.302567 -1.93347 0
M  V30 5590 C 546.548 -3.51968 -0.620735 0
M  V30 5591 C 546.214 -4.47741 0.532771 0
M  V30 5592 C 544.876 -4.73645 0.849339 0
M  V30 5593 C 547.228 -5.04551 1.3068 0
M  V30 5594 C 544.556 -5.53614 1.94237 0
M  V30 5595 C 546.908 -5.85713 2.39005 0
M  V30 5596 C 545.572 -6.09912 2.71225 0
M  V30 5597 H 544.842 -0.734979 -0.0942703 0
M  V30 5598 H 547.489 -1.85714 0.467159 0
M  V30 5599 H 545.794 -3.64921 -1.42618 0
M  V30 5600 H 547.491 -3.85762 -1.09495 0
M  V30 5601 H 544.081 -4.27711 0.275973 0
M  V30 5602 H 548.265 -4.84507 1.07549 0
M  V30 5603 H 543.521 -5.7059 2.19628 0
M  V30 5604 H 547.695 -6.28748 2.99415 0
M  V30 5605 H 545.322 -6.71665 3.56047 0
M  V30 5606 N 546.897 -0.0685191 -1.57451 0
M  V30 5607 C 548.145 0.60016 -1.92983 0
M  V30 5608 C 548.466 1.70348 -0.949028 0
M  V30 5609 O 547.736 1.959 0.00335647 0
M  V30 5610 H 546.316 0.224682 -0.712409 0
M  V30 5611 H 548.978 -0.125605 -1.94495 0
M  V30 5612 H 548.074 1.02759 -2.94698 0
M  V30 5613 N 548.375 1.56261 0.205012 0
M  V30 5614 C 549.786 1.70056 0.770574 0
M  V30 5615 C 550.137 0.673398 1.84282 0
M  V30 5616 O 549.262 -0.172196 2.15714 0
M  V30 5617 C 549.857 3.08316 1.40451 0
M  V30 5618 C 548.416 3.2391 1.91727 0
M  V30 5619 C 547.563 2.66001 0.783516 0
M  V30 5620 H 550.514 1.58688 -0.019911 0
M  V30 5621 H 550.535 3.05094 2.27371 0
M  V30 5622 H 550.047 3.83053 0.623882 0
M  V30 5623 H 548.148 2.54072 2.7254 0
M  V30 5624 H 548.261 4.3131 2.08588 0
M  V30 5625 H 546.625 2.24915 1.19521 0
M  V30 5626 H 547.408 3.43297 0.0152883 0
M  V30 5627 N 549.853 -0.472356 1.50355 0
M  V30 5628 C 551.269 -0.806001 1.37753 0
M  V30 5629 C 551.469 -1.968 0.432649 0
M  V30 5630 O 550.525 -2.52189 -0.12519 0
M  V30 5631 C 551.838 -1.11926 2.79093 0
M  V30 5632 C 553.386 -1.22579 2.87999 0
M  V30 5633 C 553.861 -1.57218 4.3017 0
M  V30 5634 N 555.352 -1.64212 4.33115 0
M  V30 5635 C 556.087 -1.92517 5.40116 0
M  V30 5636 N 555.583 -2.1885 6.57325 0
M  V30 5637 N 557.376 -1.94008 5.27558 0
M  V30 5638 H 549.527 0.293451 2.10363 0
M  V30 5639 H 551.79 0.0687672 0.945503 0
M  V30 5640 H 551.496 -0.338504 3.50067 0
M  V30 5641 H 551.37 -2.05577 3.16256 0
M  V30 5642 H 553.757 -1.99722 2.17245 0
M  V30 5643 H 553.838 -0.269107 2.54381 0
M  V30 5644 H 553.482 -0.806154 5.01461 0
M  V30 5645 H 553.412 -2.54034 4.61275 0
M  V30 5646 H 555.903 -1.45906 3.48597 0
M  V30 5647 H 556.216 -2.39718 7.3468 0
M  V30 5648 H 554.561 -2.16245 6.60502 0
M  V30 5649 H 557.752 -1.72931 4.34986 0
M  V30 5650 H 557.925 -2.15731 6.11035 0
M  V30 5651 N 551.331 -1.39911 -0.725443 0
M  V30 5652 C 552.578 -1.37654 -1.48518 0
M  V30 5653 C 552.906 0.0243982 -1.94485 0
M  V30 5654 O 552.161 1.00708 -1.67799 0
M  V30 5655 C 552.46 -2.30368 -2.7325 0
M  V30 5656 C 552.126 -3.77817 -2.461 0
M  V30 5657 C 550.788 -4.17991 -2.38405 0
M  V30 5658 C 553.14 -4.71036 -2.23103 0
M  V30 5659 C 550.468 -5.49433 -2.05768 0
M  V30 5660 C 552.82 -6.02766 -1.9198 0
M  V30 5661 C 551.484 -6.41993 -1.82761 0
M  V30 5662 H 550.754 -0.503713 -0.543465 0
M  V30 5663 H 553.401 -1.7249 -0.831822 0
M  V30 5664 H 551.706 -1.88683 -3.43375 0
M  V30 5665 H 553.403 -2.2591 -3.31309 0
M  V30 5666 H 549.993 -3.45982 -2.52972 0
M  V30 5667 H 554.177 -4.40823 -2.2801 0
M  V30 5668 H 549.433 -5.78738 -1.9716 0
M  V30 5669 H 553.607 -6.74519 -1.73197 0
M  V30 5670 H 551.234 -7.43761 -1.57237 0
M  V30 5671 N 552.809 0.956637 -1.25245 0
M  V30 5672 C 554.037 1.73571 -1.12608 0
M  V30 5673 C 554.452 1.86063 0.320324 0
M  V30 5674 O 553.809 1.35691 1.22042 0
M  V30 5675 C 553.86 3.15053 -1.77268 0
M  V30 5676 O 553.581 3.03174 -3.16255 0
M  V30 5677 C 555.082 4.09248 -1.70386 0
M  V30 5678 H 552.302 0.543955 -0.392879 0
M  V30 5679 H 554.846 1.20031 -1.65568 0
M  V30 5680 H 553.001 3.65543 -1.28284 0
M  V30 5681 H 553.415 3.9241 -3.48015 0
M  V30 5682 H 554.889 5.06138 -2.20291 0
M  V30 5683 H 555.366 4.34102 -0.667239 0
M  V30 5684 H 555.972 3.64672 -2.18849 0
M  V30 5685 N 554.287 1.06798 1.15896 0
M  V30 5686 C 555.234 0.683314 2.20453 0
M  V30 5687 C 556.204 -0.32255 1.62938 0
M  V30 5688 O 557.389 -0.210276 1.89638 0
M  V30 5689 C 554.529 0.0813266 3.45004 0
M  V30 5690 C 553.642 1.13799 4.16742 0
M  V30 5691 C 552.777 0.501598 5.28826 0
M  V30 5692 C 551.816 1.54144 5.92373 0
M  V30 5693 N 550.953 0.928038 6.9594 0
M  V30 5694 H 555.793 1.57932 2.52708 0
M  V30 5695 H 553.33 0.789544 1.24115 0
M  V30 5696 H 555.288 -0.285274 4.16224 0
M  V30 5697 H 553.918 -0.77806 3.13283 0
M  V30 5698 H 552.97 1.62223 3.44075 0
M  V30 5699 H 554.282 1.92664 4.60089 0
M  V30 5700 H 553.436 0.0823162 6.06644 0
M  V30 5701 H 552.175 -0.318883 4.86656 0
M  V30 5702 H 551.18 1.97056 5.13273 0
M  V30 5703 H 552.405 2.3641 6.36621 0
M  V30 5704 H 550.351 0.12836 6.55874 0
M  V30 5705 H 550.268 1.65401 7.37685 0
M  V30 5706 H 551.536 0.534071 7.77668 0
M  V30 5707 N 555.766 -1.3263 0.851289 0
M  V30 5708 C 557.014 -1.96978 0.452128 0
M  V30 5709 C 557.335 -1.67715 -0.99482 0
M  V30 5710 O 556.605 -0.98259 -1.69476 0
M  V30 5711 H 555.185 -0.72873 0.164202 0
M  V30 5712 H 557.847 -1.61774 1.08698 0
M  V30 5713 H 556.943 -3.06387 0.594407 0
M  V30 5714 N 557.244 -0.608902 -1.45362 0
M  V30 5715 C 558.154 0.110969 -2.34337 0
M  V30 5716 C 559.17 0.859007 -1.51318 0
M  V30 5717 O 560.346 0.816296 -1.84116 0
M  V30 5718 C 557.411 1.09494 -3.28956 0
M  V30 5719 C 556.472 0.348718 -4.27881 0
M  V30 5720 C 555.705 1.28582 -5.17979 0
M  V30 5721 O 555.928 2.52369 -5.11533 0
M  V30 5722 O 554.862 0.782172 -5.96796 0
M  V30 5723 H 558.688 -0.620258 -2.97299 0
M  V30 5724 H 556.273 -0.36916 -1.44767 0
M  V30 5725 H 558.155 1.66163 -3.87257 0
M  V30 5726 H 556.83 1.80717 -2.68557 0
M  V30 5727 H 555.737 -0.260465 -3.73192 0
M  V30 5728 H 557.07 -0.323049 -4.91139 0
M  V30 5729 N 558.722 1.53707 -0.348139 0
M  V30 5730 C 559.97 2.00591 0.246478 0
M  V30 5731 C 560.291 1.23753 1.50699 0
M  V30 5732 O 559.561 0.345964 1.92821 0
M  V30 5733 H 558.141 0.741053 0.0940679 0
M  V30 5734 H 560.803 1.89139 -0.470354 0
M  V30 5735 H 559.899 3.08297 0.485714 0
M  V30 5736 N 560.2 0.0768682 1.57412 0
M  V30 5737 C 561.447 -0.591085 1.93681 0
M  V30 5738 C 561.775 -1.69311 0.957286 0
M  V30 5739 O 561.03 -1.95682 -0.0262428 0
M  V30 5740 C 561.329 -1.20268 3.36557 0
M  V30 5741 C 560.995 -0.226286 4.50332 0
M  V30 5742 C 559.657 0.0423142 4.81181 0
M  V30 5743 C 562.009 0.441415 5.19327 0
M  V30 5744 C 559.337 0.985616 5.78362 0
M  V30 5745 C 561.689 1.37307 6.17519 0
M  V30 5746 C 560.353 1.65009 6.46783 0
M  V30 5747 H 559.623 -0.216293 0.70873 0
M  V30 5748 H 562.27 0.148824 1.90921 0
M  V30 5749 H 560.575 -2.01844 3.35807 0
M  V30 5750 H 562.272 -1.72688 3.61911 0
M  V30 5751 H 558.862 -0.445821 4.26275 0
M  V30 5752 H 563.046 0.247023 4.95685 0
M  V30 5753 H 558.302 1.20743 5.99359 0
M  V30 5754 H 562.476 1.89637 6.70083 0
M  V30 5755 H 560.103 2.38263 7.21897 0
M  V30 5756 N 561.678 -1.56367 -0.196722 0
M  V30 5757 C 562.925 -1.80529 -0.917366 0
M  V30 5758 C 563.253 -0.649817 -1.83324 0
M  V30 5759 O 562.508 0.36451 -1.92275 0
M  V30 5760 C 562.807 -3.10663 -1.767 0
M  V30 5761 C 562.473 -4.3962 -1.00225 0
M  V30 5762 C 561.135 -4.74653 -0.791095 0
M  V30 5763 C 563.487 -5.1913 -0.464035 0
M  V30 5764 C 560.815 -5.86692 -0.0302155 0
M  V30 5765 C 563.167 -6.31964 0.283625 0
M  V30 5766 C 561.831 -6.65581 0.505813 0
M  V30 5767 H 561.101 -0.660602 -0.335688 0
M  V30 5768 H 563.748 -1.90615 -0.183844 0
M  V30 5769 H 562.053 -2.95807 -2.56915 0
M  V30 5770 H 563.75 -3.26563 -2.32718 0
M  V30 5771 H 560.34 -4.12127 -1.17684 0
M  V30 5772 H 564.524 -4.9248 -0.614575 0
M  V30 5773 H 559.78 -6.11211 0.151917 0
M  V30 5774 H 563.954 -6.92791 0.708057 0
M  V30 5775 H 561.581 -7.52239 1.0973 0
M  V30 5776 N 563.156 0.464375 -1.50603 0
M  V30 5777 C 564.381 1.24372 -1.65971 0
M  V30 5778 C 564.806 1.84901 -0.345453 0
M  V30 5779 O 564.164 1.67596 0.691457 0
M  V30 5780 C 564.212 2.32331 -2.7578 0
M  V30 5781 O 563.316 3.37146 -2.375 0
M  V30 5782 H 562.657 0.365604 -0.554283 0
M  V30 5783 H 565.187 0.55183 -1.97018 0
M  V30 5784 H 565.197 2.77539 -2.99059 0
M  V30 5785 H 563.872 1.87648 -3.71162 0
M  V30 5786 H 562.449 2.97602 -2.24694 0
M  V30 5787 N 564.634 1.40294 0.718013 0
M  V30 5788 C 565.88 1.38645 1.48005 0
M  V30 5789 C 566.213 -0.0121202 1.94196 0
M  V30 5790 O 565.488 -0.980309 1.67989 0
M  V30 5791 C 565.771 2.37379 2.70782 0
M  V30 5792 C 565.624 3.8625 2.30501 0
M  V30 5793 C 566.943 2.33685 3.72933 0
M  V30 5794 H 564.062 0.504928 0.536858 0
M  V30 5795 H 566.704 1.71411 0.819649 0
M  V30 5796 H 564.854 2.09568 3.27129 0
M  V30 5797 H 566.526 4.24879 1.79655 0
M  V30 5798 H 564.769 4.02202 1.6253 0
M  V30 5799 H 565.44 4.50847 3.18498 0
M  V30 5800 H 567.916 2.58314 3.2621 0
M  V30 5801 H 566.792 3.0482 4.56482 0
M  V30 5802 H 567.053 1.34765 4.21059 0
M  V30 5803 N 566.112 -0.949982 1.2575 0
M  V30 5804 C 567.359 -1.69515 1.10774 0
M  V30 5805 C 567.687 -1.91316 -0.350479 0
M  V30 5806 O 566.942 -1.48515 -1.27443 0
M  V30 5807 C 567.241 -3.08039 1.81237 0
M  V30 5808 C 566.907 -3.06023 3.31151 0
M  V30 5809 C 565.569 -3.0518 3.72047 0
M  V30 5810 C 567.921 -2.98998 4.26907 0
M  V30 5811 C 565.249 -2.95067 5.07102 0
M  V30 5812 C 567.601 -2.90426 5.61992 0
M  V30 5813 C 566.265 -2.87922 6.0221 0
M  V30 5814 H 565.535 -0.6203 0.405351 0
M  V30 5815 H 568.182 -1.10953 1.56082 0
M  V30 5816 H 566.487 -3.70172 1.28373 0
M  V30 5817 H 568.184 -3.64526 1.67098 0
M  V30 5818 H 564.774 -3.07453 2.98614 0
M  V30 5819 H 568.958 -2.98764 3.963 0
M  V30 5820 H 564.214 -2.915 5.37436 0
M  V30 5821 H 568.388 -2.83952 6.35881 0
M  V30 5822 H 566.015 -2.79841 7.06819 0
M  V30 5823 N 567.59 -1.07411 -1.15328 0
M  V30 5824 C 568.553 -0.698914 -2.18284 0
M  V30 5825 C 569.553 0.261149 -1.58665 0
M  V30 5826 O 570.743 0.0420277 -1.74149 0
M  V30 5827 C 567.875 -0.0302427 -3.40887 0
M  V30 5828 H 569.068 -1.61045 -2.52991 0
M  V30 5829 H 566.621 -0.870724 -1.298 0
M  V30 5830 H 567.356 0.893505 -3.11748 0
M  V30 5831 H 567.141 -0.720759 -3.85419 0
M  V30 5832 H 568.631 0.21759 -4.17033 0
M  V30 5833 N 569.068 1.32177 -0.85831 0
M  V30 5834 C 570.317 1.96392 -0.459689 0
M  V30 5835 C 570.63 1.68659 0.990632 0
M  V30 5836 O 571.836 2.26641 1.49485 0
M  V30 5837 C 570.292 3.51542 -0.7711 0
M  V30 5838 C 569.9 3.8813 -2.2374 0
M  V30 5839 C 571.644 4.2221 -0.44038 0
M  V30 5840 C 569.551 5.36341 -2.49183 0
M  V30 5841 H 568.481 0.735007 -0.168169 0
M  V30 5842 H 571.132 1.50518 -1.0496 0
M  V30 5843 H 569.514 3.95846 -0.11058 0
M  V30 5844 H 570.688 3.54824 -2.94001 0
M  V30 5845 H 569.003 3.30497 -2.533 0
M  V30 5846 H 571.6 5.31234 -0.607855 0
M  V30 5847 H 571.943 4.11683 0.618291 0
M  V30 5848 H 572.476 3.83502 -1.05695 0
M  V30 5849 H 569.215 5.51892 -3.53689 0
M  V30 5850 H 568.735 5.7104 -1.83504 0
M  V30 5851 H 570.414 6.03466 -2.33318 0
M  V30 5852 N 570.547 0.616602 1.45037 0
M  V30 5853 C 571.794 0.115331 2.02171 0
M  V30 5854 C 572.122 -1.25748 1.48383 0
M  V30 5855 O 571.377 -1.84511 0.652229 0
M  V30 5856 C 571.676 0.0356829 3.57382 0
M  V30 5857 C 571.342 1.34535 4.30362 0
M  V30 5858 C 570.004 1.70408 4.50016 0
M  V30 5859 C 572.356 2.21049 4.72003 0
M  V30 5860 C 569.684 2.92529 5.0857 0
M  V30 5861 C 572.036 3.42427 5.31908 0
M  V30 5862 C 570.7 3.78541 5.49784 0
M  V30 5863 H 569.97 0.0422024 0.739797 0
M  V30 5864 H 572.617 0.80002 1.73988 0
M  V30 5865 H 570.922 -0.732314 3.84895 0
M  V30 5866 H 572.619 -0.368463 3.99304 0
M  V30 5867 H 569.209 1.05615 4.15383 0
M  V30 5868 H 573.393 1.94632 4.56544 0
M  V30 5869 H 568.649 3.20605 5.20598 0
M  V30 5870 H 572.823 4.09709 5.63127 0
M  V30 5871 H 570.45 4.73255 5.94923 0
M  V30 5872 N 572.025 -1.5352 0.356285 0
M  V30 5873 C 573.272 -2.01117 -0.236303 0
M  V30 5874 C 573.6 -1.24381 -1.49531 0
M  V30 5875 O 572.855 -0.323057 -1.93015 0
M  V30 5876 C 573.154 -3.52607 -0.583369 0
M  V30 5877 C 572.82 -4.47151 0.58023 0
M  V30 5878 C 571.482 -4.72718 0.899528 0
M  V30 5879 C 573.834 -5.03137 1.36024 0
M  V30 5880 C 571.162 -5.51523 2.00098 0
M  V30 5881 C 573.514 -5.83145 2.45204 0
M  V30 5882 C 572.178 -6.07001 2.77679 0
M  V30 5883 H 571.448 -0.735938 -0.0864695 0
M  V30 5884 H 574.095 -1.85209 0.48683 0
M  V30 5885 H 572.4 -3.66413 -1.38739 0
M  V30 5886 H 574.097 -3.86901 -1.05397 0
M  V30 5887 H 570.687 -4.27394 0.321322 0
M  V30 5888 H 574.871 -4.83339 1.12682 0
M  V30 5889 H 570.127 -5.68229 2.25668 0
M  V30 5890 H 574.301 -6.25537 3.06067 0
M  V30 5891 H 571.928 -6.67851 3.63151 0
M  V30 5892 N 573.503 -0.0852151 -1.57369 0
M  V30 5893 C 574.914 0.445428 -1.81309 0
M  V30 5894 C 575.265 1.68795 -1.00013 0
M  V30 5895 O 574.39 2.15211 -0.226573 0
M  V30 5896 C 574.985 0.814887 -3.28854 0
M  V30 5897 C 573.544 1.29032 -3.53592 0
M  V30 5898 C 572.691 0.282089 -2.75861 0
M  V30 5899 H 575.642 -0.310771 -1.55627 0
M  V30 5900 H 575.663 1.67524 -3.41637 0
M  V30 5901 H 575.175 -0.0896309 -3.87996 0
M  V30 5902 H 573.276 2.21289 -2.9977 0
M  V30 5903 H 573.389 1.25898 -4.62262 0
M  V30 5904 H 571.753 0.762182 -2.43029 0
M  V30 5905 H 572.536 -0.614936 -3.37748 0
M  V30 5906 N 574.981 1.5647 0.188427 0
M  V30 5907 C 575.944 1.9421 1.21718 0
M  V30 5908 C 576.944 0.823901 1.38089 0
M  V30 5909 O 578.134 1.09122 1.35787 0
M  V30 5910 C 575.266 2.22197 2.58537 0
M  V30 5911 H 576.459 2.86252 0.894418 0
M  V30 5912 H 574.012 1.50263 0.430211 0
M  V30 5913 H 574.747 1.32814 2.95856 0
M  V30 5914 H 574.532 3.03688 2.48025 0
M  V30 5915 H 576.022 2.52376 3.3271 0
M  V30 5916 N 576.459 -0.456382 1.50847 0
M  V30 5917 C 577.422 -1.53493 1.70213 0
M  V30 5918 C 578.422 -1.50264 0.572481 0
M  V30 5919 O 579.612 -1.52623 0.839751 0
M  V30 5920 C 576.744 -2.93091 1.741 0
M  V30 5921 H 577.937 -1.37633 2.66453 0
M  V30 5922 H 575.49 -0.683776 1.4055 0
M  V30 5923 H 576.225 -3.14378 0.796063 0
M  V30 5924 H 576.01 -2.9684 2.5618 0
M  V30 5925 H 577.5 -3.71368 1.90987 0
M  V30 5926 N 577.937 -1.40673 -0.710563 0
M  V30 5927 C 579.165 -1.42547 -1.4996 0
M  V30 5928 C 579.58 -0.0265485 -1.88781 0
M  V30 5929 O 578.937 0.950694 -1.55782 0
M  V30 5930 C 578.988 -2.32071 -2.77173 0
M  V30 5931 O 578.709 -3.66518 -2.39992 0
M  V30 5932 C 580.21 -2.42591 -3.71032 0
M  V30 5933 H 577.43 -0.486025 -0.462623 0
M  V30 5934 H 579.974 -1.84783 -0.876102 0
M  V30 5935 H 578.129 -1.93184 -3.35795 0
M  V30 5936 H 578.543 -4.14115 -3.21884 0
M  V30 5937 H 580.017 -3.09429 -4.57119 0
M  V30 5938 H 580.494 -1.4525 -4.14486 0
M  V30 5939 H 581.1 -2.82051 -3.18319 0
M  V30 5940 N 579.415 0.9433 -1.26252 0
M  V30 5941 C 580.663 1.68592 -1.11451 0
M  V30 5942 C 580.984 1.91957 0.343123 0
M  V30 5943 O 580.254 1.51475 1.24226 0
M  V30 5944 H 578.834 0.624789 -0.409448 0
M  V30 5945 H 581.496 1.13351 -1.58548 0
M  V30 5946 H 580.592 2.66054 -1.63162 0
M  V30 5947 N 580.893 1.08022 1.14757 0
M  V30 5948 C 582.142 0.802468 1.8505 0
M  V30 5949 C 582.455 -0.674061 1.83619 0
M  V30 5950 O 583.661 -1.06683 2.49662 0
M  V30 5951 C 582.117 1.38551 3.32162 0
M  V30 5952 C 581.725 2.89354 3.42021 0
M  V30 5953 C 583.469 1.18608 4.07594 0
M  V30 5954 C 581.376 3.40815 4.83321 0
M  V30 5955 H 580.306 0.296518 0.693248 0
M  V30 5956 H 582.957 1.30114 1.29393 0
M  V30 5957 H 581.339 0.814556 3.87532 0
M  V30 5958 H 582.513 3.52552 2.96722 0
M  V30 5959 H 580.828 3.08165 2.80041 0
M  V30 5960 H 583.425 1.54525 5.11885 0
M  V30 5961 H 583.768 0.125599 4.1611 0
M  V30 5962 H 584.301 1.72375 3.58513 0
M  V30 5963 H 581.04 4.46418 4.79991 0
M  V30 5964 H 580.56 2.82374 5.29174 0
M  V30 5965 H 582.239 3.37171 5.522 0
M  V30 5966 N 582.371 -1.3172 0.865308 0
M  V30 5967 C 583.301 -2.31109 0.333302 0
M  V30 5968 C 584.282 -1.60148 -0.573301 0
M  V30 5969 O 585.467 -1.87882 -0.491305 0
M  V30 5970 C 582.597 -3.44104 -0.470078 0
M  V30 5971 C 581.551 -4.26623 0.343021 0
M  V30 5972 C 580.877 -5.31482 -0.585756 0
M  V30 5973 C 582.177 -4.98001 1.57456 0
M  V30 5974 H 583.871 -2.75855 1.1638 0
M  V30 5975 H 581.417 -1.3262 0.561069 0
M  V30 5976 H 583.37 -4.12682 -0.852752 0
M  V30 5977 H 582.094 -2.98112 -1.33404 0
M  V30 5978 H 580.753 -3.59707 0.707583 0
M  V30 5979 H 580.401 -4.81741 -1.44686 0
M  V30 5980 H 580.101 -5.87582 -0.0456494 0
M  V30 5981 H 581.625 -6.0292 -0.965375 0
M  V30 5982 H 583.039 -5.59201 1.26359 0
M  V30 5983 H 581.436 -5.63876 2.05339 0
M  V30 5984 H 582.506 -4.25253 2.32997 0
M  V30 5985 N 583.85 -0.624285 -1.44708 0
M  V30 5986 C 584.812 0.0749638 -2.29077 0
M  V30 5987 C 585.812 0.778965 -1.40673 0
M  V30 5988 O 587.003 0.624591 -1.62618 0
M  V30 5989 C 584.135 1.11663 -3.22094 0
M  V30 5990 H 585.327 -0.667013 -2.92388 0
M  V30 5991 H 582.88 -0.384098 -1.51507 0
M  V30 5992 H 583.615 1.88881 -2.63618 0
M  V30 5993 H 583.401 0.61583 -3.87234 0
M  V30 5994 H 584.891 1.60585 -3.8549 0
M  V30 5995 N 585.328 1.53329 -0.364422 0
M  V30 5996 C 586.576 2.00842 0.225189 0
M  V30 5997 C 586.897 1.25345 1.49378 0
M  V30 5998 O 586.167 0.366396 1.92443 0
M  V30 5999 H 584.747 0.742009 0.0862027 0
M  V30 6000 H 587.409 1.8863 -0.490389 0
M  V30 6001 H 586.505 3.08795 0.452987 0
M  V30 6002 N 586.806 0.0935595 1.57322 0
M  V30 6003 C 587.769 -0.851426 2.12799 0
M  V30 6004 C 588.769 -1.21187 1.0569 0
M  V30 6005 O 589.959 -1.14156 1.31583 0
M  V30 6006 C 587.091 -2.14779 2.64731 0
M  V30 6007 H 588.284 -0.369733 2.97612 0
M  V30 6008 H 585.837 -0.155417 1.55525 0
M  V30 6009 H 586.572 -2.67437 1.83434 0
M  V30 6010 H 586.357 -1.89907 3.43042 0
M  V30 6011 H 587.847 -2.82383 3.07651 0
M  V30 6012 N 588.284 -1.56567 -0.180126 0
M  V30 6013 C 589.232 -1.96632 -1.24251 0
M  V30 6014 C 590.226 -0.853818 -1.46309 0
M  V30 6015 O 591.432 -1.0389 -1.46993 0
M  V30 6016 H 587.807 -0.625476 -0.417473 0
M  V30 6017 H 589.778 -2.85201 -0.877679 0
M  V30 6018 C 588.527 -2.33486 -2.57642 0
M  V30 6019 H 587.85 -3.18626 -2.4149 0
M  V30 6020 H 589.29 -2.65371 -3.30688 0
M  V30 6021 C 587.749 -1.17499 -3.15746 0
M  V30 6022 O 588.279 -0.457956 -3.99081 0
M  V30 6023 N 586.485 -0.94786 -2.74707 0
M  V30 6024 H 586.032 -1.53269 -2.07042 0
M  V30 6025 H 585.99 -0.173626 -3.1392 0
M  V30 6026 N 589.762 0.448376 -1.51087 0
M  V30 6027 C 591.011 1.19561 -1.62444 0
M  V30 6028 C 591.324 1.92602 -0.341151 0
M  V30 6029 O 592.53 2.69439 -0.333936 0
M  V30 6030 C 590.986 2.17373 -2.8684 0
M  V30 6031 C 590.594 1.5003 -4.22131 0
M  V30 6032 C 592.338 2.92597 -3.0755 0
M  V30 6033 C 590.245 2.46262 -5.37689 0
M  V30 6034 H 589.175 0.449975 -0.605011 0
M  V30 6035 H 591.826 0.463735 -1.77544 0
M  V30 6036 H 590.208 2.93948 -2.65349 0
M  V30 6037 H 591.382 0.790886 -4.53962 0
M  V30 6038 H 589.697 0.870011 -4.0721 0
M  V30 6039 H 592.294 3.64663 -3.91056 0
M  V30 6040 H 592.637 3.53306 -2.20183 0
M  V30 6041 H 593.17 2.23131 -3.29329 0
M  V30 6042 H 589.909 1.90258 -6.27281 0
M  V30 6043 H 589.429 3.15289 -5.10248 0
M  V30 6044 H 591.108 3.07623 -5.6919 0
M  V30 6045 N 591.24 1.41047 0.703093 0
M  V30 6046 C 592.465 1.43537 1.49706 0
M  V30 6047 C 592.89 0.0401853 1.88057 0
M  V30 6048 O 592.248 -0.954785 1.54122 0
M  V30 6049 C 592.296 2.3433 2.74084 0
M  V30 6050 O 591.4 1.79515 3.71279 0
M  V30 6051 H 590.741 0.487454 0.450871 0
M  V30 6052 H 593.271 1.85422 0.86486 0
M  V30 6053 H 593.281 2.49947 3.22476 0
M  V30 6054 H 591.956 3.35708 2.45506 0
M  V30 6055 H 590.533 1.7331 3.30179 0
M  V30 6056 N 592.718 -0.936591 1.26751 0
M  V30 6057 C 593.966 -1.67998 1.12343 0
M  V30 6058 C 594.287 -1.92137 -0.332938 0
M  V30 6059 O 593.557 -1.52132 -1.23421 0
M  V30 6060 H 592.137 -0.622609 0.412756 0
M  V30 6061 H 594.799 -1.12509 1.59147 0
M  V30 6062 H 593.895 -2.65185 1.64571 0
M  V30 6063 N 594.196 -1.08629 -1.14182 0
M  V30 6064 C 595.473 -0.73002 -1.81466 0
M  V30 6065 C 595.853 0.785996 -1.95922 0
M  V30 6066 O 595.201 1.70535 -1.52086 0
M  V30 6067 C 595.411 -1.45957 -3.17014 0
M  V30 6068 C 596.759 -1.62008 -3.92477 0
M  V30 6069 O 597.783 -1.42141 -3.26611 0
M  V30 6070 O 596.642 -1.94806 -5.106 0
M  V30 6071 H 593.736 -0.261307 -0.784632 0
M  V30 6072 H 596.282 -1.188 -1.2118 0
M  V30 6073 H 595.054 -2.49221 -3.01669 0
M  V30 6074 H 594.677 -0.993222 -3.84995 0
M  V30 6075 N 595.674 1.31259 -0.872281 0
M  V30 6076 C 596.604 2.30929 -0.345554 0
M  V30 6077 C 597.585 1.60449 0.5648 0
M  V30 6078 O 598.77 1.8814 0.481335 0
M  V30 6079 C 595.9 3.44348 0.451823 0
M  V30 6080 C 594.854 4.26435 -0.365641 0
M  V30 6081 C 594.18 5.31785 0.557562 0
M  V30 6082 C 595.48 4.97159 -1.60095 0
M  V30 6083 H 597.174 2.75234 -1.17841 0
M  V30 6084 H 594.72 1.3232 -0.568094 0
M  V30 6085 H 596.673 4.13128 0.830854 0
M  V30 6086 H 595.397 2.98816 1.31821 0
M  V30 6087 H 594.056 3.59326 -0.726649 0
M  V30 6088 H 593.704 4.82502 1.4213 0
M  V30 6089 H 593.404 5.87598 0.0144878 0
M  V30 6090 H 594.928 6.03424 0.933387 0
M  V30 6091 H 596.342 5.58523 -1.29323 0
M  V30 6092 H 594.739 5.62779 -2.08327 0
M  V30 6093 H 595.809 4.24012 -2.35249 0
M  V30 6094 N 597.152 0.631951 1.44375 0
M  V30 6095 C 598.062 -0.073674 2.34484 0
M  V30 6096 C 599.078 -0.834825 1.52665 0
M  V30 6097 O 600.254 -0.786902 1.85391 0
M  V30 6098 C 597.319 -1.04247 3.30656 0
M  V30 6099 C 596.38 -0.280602 4.28382 0
M  V30 6100 C 595.613 -1.20325 5.19959 0
M  V30 6101 O 595.836 -2.44199 5.15484 0
M  V30 6102 O 594.77 -0.687128 5.97965 0
M  V30 6103 H 598.596 0.667477 2.96274 0
M  V30 6104 H 596.181 0.392144 1.44162 0
M  V30 6105 H 598.063 -1.59981 3.89851 0
M  V30 6106 H 596.738 -1.76422 2.71398 0
M  V30 6107 H 595.645 0.319804 3.72731 0
M  V30 6108 H 596.978 0.401144 4.90563 0
M  V30 6109 N 598.631 -1.53133 0.372548 0
M  V30 6110 C 599.908 -1.93704 -0.271693 0
M  V30 6111 C 600.288 -1.30667 -1.65799 0
M  V30 6112 O 599.636 -0.46838 -2.23648 0
M  V30 6113 C 599.846 -3.47576 -0.314903 0
M  V30 6114 C 601.194 -4.20998 -0.551912 0
M  V30 6115 O 602.218 -3.53994 -0.39582 0
M  V30 6116 O 601.077 -5.39748 -0.85639 0
M  V30 6117 H 598.171 -0.810457 -0.164586 0
M  V30 6118 H 600.717 -1.6427 0.425838 0
M  V30 6119 H 599.489 -3.85749 0.656792 0
M  V30 6120 H 599.112 -3.83264 -1.05804 0
M  V30 6121 N 600.109 -0.101901 -1.5727 0
M  V30 6122 C 601.52 0.426173 -1.81771 0
M  V30 6123 C 601.871 1.67725 -1.01797 0
M  V30 6124 O 600.996 2.14958 -0.249386 0
M  V30 6125 C 601.591 0.779962 -3.297 0
M  V30 6126 C 600.15 1.25275 -3.54941 0
M  V30 6127 C 599.297 0.252814 -2.76145 0
M  V30 6128 H 602.248 -0.32726 -1.55289 0
M  V30 6129 H 602.269 1.63891 -3.43395 0
M  V30 6130 H 601.781 -0.130778 -3.8788 0
M  V30 6131 H 599.882 2.18097 -3.021 0
M  V30 6132 H 599.995 1.20988 -4.63572 0
M  V30 6133 H 598.359 0.736362 -2.43823 0
M  V30 6134 H 599.142 -0.650724 -3.37076 0
M  V30 6135 N 601.587 1.56661 0.17182 0
M  V30 6136 C 602.519 1.92934 1.2373 0
M  V30 6137 C 603.532 0.822385 1.40502 0
M  V30 6138 O 604.721 1.10083 1.40514 0
M  V30 6139 C 601.821 2.16651 2.60607 0
M  V30 6140 C 600.994 3.47878 2.6514 0
M  V30 6141 C 600.053 3.60429 3.83377 0
M  V30 6142 O 599.079 4.33051 3.69398 0
M  V30 6143 N 600.281 2.95241 4.99813 0
M  V30 6144 H 603.046 2.84931 0.929205 0
M  V30 6145 H 600.607 1.5781 0.361588 0
M  V30 6146 H 602.599 2.22312 3.38171 0
M  V30 6147 H 601.169 1.3104 2.83809 0
M  V30 6148 H 600.389 3.53879 1.73675 0
M  V30 6149 H 601.677 4.34232 2.6518 0
M  V30 6150 H 601.075 2.3611 5.14071 0
M  V30 6151 H 599.632 3.06499 5.75241 0
M  V30 6152 N 603.065 -0.440357 1.51323 0
M  V30 6153 C 604.342 -1.20109 1.5438 0
M  V30 6154 C 604.722 -2.08866 0.306303 0
M  V30 6155 O 604.07 -2.1723 -0.708773 0
M  V30 6156 C 604.28 -2.00555 2.8562 0
M  V30 6157 C 605.628 -2.577 3.37455 0
M  V30 6158 O 606.652 -2.10769 2.8715 0
M  V30 6159 O 605.511 -3.43289 4.25224 0
M  V30 6160 H 602.605 -0.546668 0.620551 0
M  V30 6161 H 605.151 -0.449672 1.63634 0
M  V30 6162 H 603.923 -1.35346 3.67147 0
M  V30 6163 H 603.546 -2.82768 2.79514 0
M  V30 6164 N 604.543 -1.41418 -0.695603 0
M  V30 6165 C 605.506 -1.42988 -1.79129 0
M  V30 6166 C 606.506 -0.320514 -1.57573 0
M  V30 6167 O 607.696 -0.58039 -1.64247 0
M  V30 6168 C 604.828 -1.24122 -3.175 0
M  V30 6169 H 606.021 -2.40526 -1.7913 0
M  V30 6170 H 603.574 -1.2756 -0.903225 0
M  V30 6171 H 604.309 -0.274253 -3.23138 0
M  V30 6172 H 604.094 -2.045 -3.34547 0
M  V30 6173 H 605.584 -1.28056 -3.97481 0
M  V30 6174 N 606.021 0.929856 -1.27246 0
M  V30 6175 C 607.27 1.67182 -1.12842 0
M  V30 6176 C 607.583 1.9287 0.325666 0
M  V30 6177 O 608.789 2.64999 0.590572 0
M  V30 6178 C 607.245 3.01097 -1.97151 0
M  V30 6179 C 606.853 2.83115 -3.47203 0
M  V30 6180 C 608.597 3.78907 -1.91389 0
M  V30 6181 C 606.504 4.12573 -4.23719 0
M  V30 6182 H 605.434 0.627064 -0.418697 0
M  V30 6183 H 608.085 1.0332 -1.51649 0
M  V30 6184 H 606.467 3.66004 -1.51186 0
M  V30 6185 H 607.641 2.26989 -4.01015 0
M  V30 6186 H 605.956 2.18736 -3.54321 0
M  V30 6187 H 608.553 4.74837 -2.45834 0
M  V30 6188 H 608.896 4.0674 -0.887047 0
M  V30 6189 H 609.429 3.20794 -2.35237 0
M  V30 6190 H 606.168 3.8992 -5.26918 0
M  V30 6191 H 605.688 4.68371 -3.74685 0
M  V30 6192 H 607.367 4.8095 -4.32777 0
M  V30 6193 N 607.499 1.09233 1.13605 0
M  V30 6194 C 608.91 0.846839 1.6639 0
M  V30 6195 C 609.261 -0.625031 1.85978 0
M  V30 6196 O 608.386 -1.48173 1.57714 0
M  V30 6197 C 608.981 1.5307 3.0225 0
M  V30 6198 C 607.54 1.33223 3.52035 0
M  V30 6199 C 606.687 1.58806 2.27323 0
M  V30 6200 H 609.638 1.25175 0.975541 0
M  V30 6201 H 609.659 0.96267 3.68121 0
M  V30 6202 H 609.171 2.60192 2.87961 0
M  V30 6203 H 607.272 0.282091 3.71531 0
M  V30 6204 H 607.385 2.0657 4.32279 0
M  V30 6205 H 605.749 1.01007 2.33815 0
M  V30 6206 H 606.532 2.67153 2.15602 0
M  V30 6207 N 608.977 -1.30795 0.87923 0
M  V30 6208 C 610.393 -1.48981 0.57243 0
M  V30 6209 C 610.593 -1.80719 -0.891236 0
M  V30 6210 O 609.649 -1.89136 -1.67283 0
M  V30 6211 C 610.962 -2.61721 1.48063 0
M  V30 6212 C 612.51 -2.75603 1.48365 0
M  V30 6213 C 612.985 -3.91449 2.37763 0
M  V30 6214 N 614.476 -3.98751 2.35695 0
M  V30 6215 C 615.211 -4.87684 3.01583 0
M  V30 6216 N 614.707 -5.81454 3.76674 0
M  V30 6217 N 616.5 -4.81005 2.90844 0
M  V30 6218 H 608.651 -1.08465 1.82617 0
M  V30 6219 H 610.914 -0.536813 0.781368 0
M  V30 6220 H 610.62 -2.45073 2.52254 0
M  V30 6221 H 610.494 -3.58071 1.18596 0
M  V30 6222 H 612.881 -2.9166 0.44927 0
M  V30 6223 H 612.962 -1.79891 1.81859 0
M  V30 6224 H 612.606 -3.76149 3.41283 0
M  V30 6225 H 612.536 -4.86487 2.01589 0
M  V30 6226 H 615.027 -3.31668 1.81121 0
M  V30 6227 H 615.34 -6.46063 4.24054 0
M  V30 6228 H 613.685 -5.81403 3.80782 0
M  V30 6229 H 616.876 -4.06728 2.31711 0
M  V30 6230 H 617.049 -5.50107 3.42471 0
M  V30 6231 N 610.455 -0.639598 -1.44038 0
M  V30 6232 C 611.703 -0.147188 -2.01563 0
M  V30 6233 C 612.024 1.2384 -1.50628 0
M  V30 6234 O 611.294 1.82452 -0.713316 0
M  V30 6235 H 609.874 -0.0514231 -0.745228 0
M  V30 6236 H 612.536 -0.828205 -1.76428 0
M  V30 6237 H 611.632 -0.121358 -3.11864 0
M  V30 6238 N 611.933 1.52934 -0.380664 0
M  V30 6239 C 613.161 2.05886 0.204599 0
M  V30 6240 C 613.576 1.25305 1.41223 0
M  V30 6241 O 612.933 0.297504 1.80059 0
M  V30 6242 C 612.984 3.56764 0.583249 0
M  V30 6243 O 612.705 4.34292 -0.576398 0
M  V30 6244 C 614.206 4.2603 1.2253 0
M  V30 6245 H 611.426 0.670193 0.0328991 0
M  V30 6246 H 613.97 1.97148 -0.543397 0
M  V30 6247 H 612.125 3.65603 1.28115 0
M  V30 6248 H 612.539 5.23819 -0.267119 0
M  V30 6249 H 614.013 5.32868 1.44068 0
M  V30 6250 H 614.49 3.80698 2.19011 0
M  V30 6251 H 615.096 4.21485 0.568407 0
M  V30 6252 N 613.412 0.11024 1.57214 0
M  V30 6253 C 614.345 -0.880224 2.1054 0
M  V30 6254 C 615.323 -1.26658 1.01964 0
M  V30 6255 O 616.507 -1.36917 1.29561 0
M  V30 6256 C 613.634 -2.17676 2.59489 0
M  V30 6257 C 612.68 -1.93914 3.79868 0
M  V30 6258 S 613.513 -1.16336 5.2271 0
M  V30 6259 C 614.669 -2.47188 5.75021 0
M  V30 6260 H 614.902 -0.426614 2.94223 0
M  V30 6261 H 612.435 -0.10336 1.54054 0
M  V30 6262 H 614.393 -2.92175 2.88347 0
M  V30 6263 H 613.054 -2.60156 1.76005 0
M  V30 6264 H 612.247 -2.8996 4.12236 0
M  V30 6265 H 611.849 -1.27539 3.51582 0
M  V30 6266 H 614.141 -3.43079 5.84211 0
M  V30 6267 H 615.084 -2.19377 6.7326 0
M  V30 6268 H 615.492 -2.56154 5.03036 0
M  V30 6269 N 614.89 -1.56749 -0.16351 0
M  V30 6270 C 615.82 -2.00042 -1.20438 0
M  V30 6271 C 616.801 -0.877256 -1.45733 0
M  V30 6272 O 617.986 -1.1439 -1.56935 0
M  V30 6273 C 615.116 -2.36697 -2.54149 0
M  V30 6274 C 614.07 -3.52046 -2.43408 0
M  V30 6275 C 613.396 -3.74466 -3.81679 0
M  V30 6276 C 614.696 -4.85247 -1.93216 0
M  V30 6277 H 616.39 -2.87244 -0.844477 0
M  V30 6278 H 613.936 -1.38194 -0.40478 0
M  V30 6279 H 615.889 -2.65582 -3.27176 0
M  V30 6280 H 614.613 -1.46414 -2.91943 0
M  V30 6281 H 613.272 -3.23301 -1.72834 0
M  V30 6282 H 612.92 -2.81461 -4.1688 0
M  V30 6283 H 612.62 -4.52084 -3.75359 0
M  V30 6284 H 614.144 -4.0576 -4.5628 0
M  V30 6285 H 615.558 -5.12957 -2.56023 0
M  V30 6286 H 613.955 -5.66556 -1.97825 0
M  V30 6287 H 615.025 -4.7672 -0.88689 0
M  V30 6288 N 616.368 0.432326 -1.51554 0
M  V30 6289 C 617.331 1.50765 -1.72634 0
M  V30 6290 C 618.331 1.49334 -0.596314 0
M  V30 6291 O 619.521 1.51268 -0.863925 0
M  V30 6292 C 616.653 2.90284 -1.7874 0
M  V30 6293 H 617.846 1.33377 -2.68609 0
M  V30 6294 H 615.399 0.661329 -1.4162 0
M  V30 6295 H 616.134 3.13071 -0.845977 0
M  V30 6296 H 615.919 2.92727 -2.6087 0
M  V30 6297 H 617.409 3.68282 -1.96871 0
M  V30 6298 N 617.846 1.41785 0.688094 0
M  V30 6299 C 619.095 1.4084 1.44385 0
M  V30 6300 C 619.408 0.0234166 1.95586 0
M  V30 6301 O 620.614 -0.108647 2.71283 0
M  V30 6302 C 619.07 2.47675 2.61123 0
M  V30 6303 C 618.678 3.92116 2.16677 0
M  V30 6304 C 620.422 2.55877 3.38714 0
M  V30 6305 C 618.329 4.90487 3.30419 0
M  V30 6306 H 617.259 0.523787 0.542368 0
M  V30 6307 H 619.91 1.6764 0.74627 0
M  V30 6308 H 618.292 2.14018 3.33185 0
M  V30 6309 H 619.466 4.35059 1.51856 0
M  V30 6310 H 617.781 3.87642 1.5206 0
M  V30 6311 H 620.378 3.26553 4.234 0
M  V30 6312 H 620.721 1.59801 3.84408 0
M  V30 6313 H 621.254 2.88662 2.73714 0
M  V30 6314 H 617.993 5.87994 2.89729 0
M  V30 6315 H 617.513 4.52187 3.94065 0
M  V30 6316 H 619.192 5.11591 3.96085 0
M  V30 6317 N 619.324 -0.923095 1.27737 0
M  V30 6318 C 620.571 -1.67127 1.14345 0
M  V30 6319 C 620.899 -1.92017 -0.30982 0
M  V30 6320 O 620.154 -1.51185 -1.24264 0
M  V30 6321 C 620.453 -3.04125 1.8773 0
M  V30 6322 C 620.119 -2.98929 3.37568 0
M  V30 6323 C 618.781 -2.9722 3.78436 0
M  V30 6324 C 621.133 -2.89875 4.33154 0
M  V30 6325 C 618.461 -2.84244 5.13247 0
M  V30 6326 C 620.813 -2.7844 5.68026 0
M  V30 6327 C 619.477 -2.75083 6.08182 0
M  V30 6328 H 618.747 -0.611562 0.418417 0
M  V30 6329 H 621.394 -1.07618 1.584 0
M  V30 6330 H 619.699 -3.67366 1.36196 0
M  V30 6331 H 621.396 -3.609 1.74792 0
M  V30 6332 H 617.986 -3.0105 3.05069 0
M  V30 6333 H 622.17 -2.9029 4.02548 0
M  V30 6334 H 617.426 -2.80034 5.43499 0
M  V30 6335 H 621.6 -2.70401 6.4176 0
M  V30 6336 H 619.227 -2.64786 7.12596 0
M  V30 6337 N 620.802 -1.09834 -1.13024 0
M  V30 6338 C 622.051 -0.831806 -1.83749 0
M  V30 6339 C 622.364 0.644763 -1.84668 0
M  V30 6340 O 623.57 1.02697 -2.51327 0
M  V30 6341 C 622.026 -1.43817 -3.29916 0
M  V30 6342 C 621.634 -2.94759 -3.37374 0
M  V30 6343 C 623.378 -1.25077 -4.05655 0
M  V30 6344 C 621.285 -3.48461 -4.77838 0
M  V30 6345 H 620.215 -0.30751 -0.688443 0
M  V30 6346 H 622.866 -1.32156 -1.27307 0
M  V30 6347 H 621.248 -0.876106 -3.86187 0
M  V30 6348 H 622.422 -3.57228 -2.91076 0
M  V30 6349 H 620.737 -3.12581 -2.75103 0
M  V30 6350 H 623.334 -1.62649 -5.09362 0
M  V30 6351 H 623.677 -0.191782 -4.15858 0
M  V30 6352 H 624.21 -1.78057 -3.55725 0
M  V30 6353 H 620.949 -4.53998 -4.72828 0
M  V30 6354 H 620.469 -2.90757 -5.24615 0
M  V30 6355 H 622.148 -3.45914 -5.46766 0
M  V30 6356 N 622.28 1.30327 -0.886154 0
M  V30 6357 C 623.508 2.00254 -0.520176 0
M  V30 6358 C 623.923 1.66419 0.891637 0
M  V30 6359 O 623.28 0.901951 1.58654 0
M  V30 6360 C 623.331 3.54916 -0.686775 0
M  V30 6361 O 623.052 3.87547 -2.04301 0
M  V30 6362 C 624.553 4.42115 -0.323945 0
M  V30 6363 H 621.773 0.640204 -0.200947 0
M  V30 6364 H 624.317 1.66183 -1.19178 0
M  V30 6365 H 622.472 3.8735 -0.0625273 0
M  V30 6366 H 622.886 4.82247 -2.06249 0
M  V30 6367 H 624.36 5.49808 -0.491407 0
M  V30 6368 H 624.837 4.32953 0.73811 0
M  V30 6369 H 625.443 4.15129 -0.924565 0
M  V30 6370 N 623.758 0.647228 1.43697 0
M  V30 6371 C 624.986 0.16575 2.06235 0
M  V30 6372 C 625.401 -1.1662 1.48476 0
M  V30 6373 O 624.758 -1.7187 0.613762 0
M  V30 6374 C 624.809 0.0621651 3.61447 0
M  V30 6375 O 624.53 1.34146 4.17057 0
M  V30 6376 C 626.031 -0.446102 4.4105 0
M  V30 6377 H 623.251 0.0871158 0.665321 0
M  V30 6378 H 625.795 0.886183 1.84301 0
M  V30 6379 H 623.95 -0.608794 3.82587 0
M  V30 6380 H 624.364 1.19675 5.10664 0
M  V30 6381 H 625.838 -0.46755 5.50016 0
M  V30 6382 H 626.315 -1.47627 4.13646 0
M  V30 6383 H 626.921 0.192159 4.24866 0
M  V30 6384 N 625.236 -1.5273 0.388769 0
M  V30 6385 C 626.482 -2.01871 -0.193877 0
M  V30 6386 C 626.815 -1.27475 -1.46505 0
M  V30 6387 O 626.09 -0.375063 -1.90849 0
M  V30 6388 C 626.373 -3.5712 -0.462336 0
M  V30 6389 C 626.226 -4.42186 0.824091 0
M  V30 6390 C 627.545 -4.21881 -1.25319 0
M  V30 6391 H 624.664 -0.733764 -0.0689899 0
M  V30 6392 H 627.306 -1.82796 0.518231 0
M  V30 6393 H 625.456 -3.73504 -1.06896 0
M  V30 6394 H 627.128 -4.37554 1.46096 0
M  V30 6395 H 625.371 -4.09219 1.43952 0
M  V30 6396 H 626.042 -5.48828 0.590905 0
M  V30 6397 H 628.518 -4.0947 -0.73981 0
M  V30 6398 H 627.394 -5.30487 -1.40977 0
M  V30 6399 H 627.655 -3.79478 -2.26824 0
M  V30 6400 N 626.714 -0.118576 -1.57153 0
M  V30 6401 C 627.677 0.817464 -2.14127 0
M  V30 6402 C 628.677 1.1949 -1.07604 0
M  V30 6403 O 629.867 1.12048 -1.33382 0
M  V30 6404 C 626.999 2.10541 -2.68115 0
M  V30 6405 H 628.192 0.322339 -2.98163 0
M  V30 6406 H 625.745 0.130655 -1.55753 0
M  V30 6407 H 626.48 2.64485 -1.87665 0
M  V30 6408 H 626.265 1.84425 -3.4602 0
M  V30 6409 H 627.755 2.77453 -3.12105 0
M  V30 6410 N 628.193 1.56834 0.155195 0
M  V30 6411 C 629.423 1.86778 0.883044 0
M  V30 6412 C 629.831 0.703824 1.75622 0
M  V30 6413 O 629.174 -0.33581 1.80605 0
M  V30 6414 C 629.236 3.1133 1.79761 0
M  V30 6415 C 628.9 4.43504 1.10242 0
M  V30 6416 C 629.897 5.17859 0.460204 0
M  V30 6417 C 627.582 4.90233 1.09437 0
M  V30 6418 C 629.576 6.37144 -0.180782 0
M  V30 6419 C 627.263 6.09444 0.449569 0
M  V30 6420 C 628.261 6.82744 -0.186888 0
M  V30 6421 O 627.949 7.99692 -0.821486 0
M  V30 6422 H 627.681 0.62352 0.261149 0
M  V30 6423 H 630.235 2.04813 0.155204 0
M  V30 6424 H 628.465 2.89282 2.56618 0
M  V30 6425 H 630.154 3.27587 2.39669 0
M  V30 6426 H 630.92 4.8283 0.458289 0
M  V30 6427 H 626.799 4.33109 1.57917 0
M  V30 6428 H 630.343 6.94296 -0.678154 0
M  V30 6429 H 626.24 6.43936 0.449123 0
M  V30 6430 H 627.008 8.15306 -0.722337 0
M  V30 6431 N 629.671 -0.424282 1.51781 0
M  V30 6432 C 630.601 -1.52305 1.7699 0
M  V30 6433 C 631.582 -1.5839 0.620209 0
M  V30 6434 O 632.767 -1.73908 0.864268 0
M  V30 6435 C 629.897 -2.90271 1.90683 0
M  V30 6436 C 628.851 -2.99043 3.06198 0
M  V30 6437 C 628.177 -4.39116 3.05092 0
M  V30 6438 C 629.477 -2.7192 4.45934 0
M  V30 6439 H 631.171 -1.31461 2.68995 0
M  V30 6440 H 628.717 -0.630985 1.29439 0
M  V30 6441 H 630.67 -3.6711 2.06901 0
M  V30 6442 H 629.394 -3.12376 0.953365 0
M  V30 6443 H 628.053 -2.24646 2.89706 0
M  V30 6444 H 627.701 -4.58207 2.07498 0
M  V30 6445 H 627.401 -4.45912 3.82669 0
M  V30 6446 H 628.925 -5.17911 3.2342 0
M  V30 6447 H 630.339 -3.38487 4.62709 0
M  V30 6448 H 628.736 -2.90111 5.25315 0
M  V30 6449 H 629.806 -1.67445 4.55072 0
M  V30 6450 N 631.149 -1.42148 -0.680565 0
M  V30 6451 C 632.397 -1.42029 -1.43779 0
M  V30 6452 C 632.718 -0.0356347 -1.94967 0
M  V30 6453 O 631.988 0.924936 -1.7269 0
M  V30 6454 H 630.568 -0.522835 -0.533529 0
M  V30 6455 H 633.23 -1.7752 -0.804538 0
M  V30 6456 H 632.326 -2.11658 -2.29363 0
M  V30 6457 N 632.627 0.916307 -1.28225 0
M  V30 6458 C 633.873 1.66765 -1.154 0
M  V30 6459 C 634.206 1.91912 0.297251 0
M  V30 6460 O 633.481 1.51766 1.21644 0
M  V30 6461 C 633.764 3.02715 -1.95028 0
M  V30 6462 C 633.617 2.84738 -3.48201 0
M  V30 6463 C 634.936 4.03215 -1.76369 0
M  V30 6464 H 632.055 0.605205 -0.42059 0
M  V30 6465 H 634.697 1.06255 -1.57512 0
M  V30 6466 H 632.847 3.54365 -1.59242 0
M  V30 6467 H 634.519 2.40118 -3.9388 0
M  V30 6468 H 632.762 2.19848 -3.73964 0
M  V30 6469 H 633.433 3.8127 -3.99171 0
M  V30 6470 H 635.909 3.60617 -2.07593 0
M  V30 6471 H 634.785 4.96306 -2.34459 0
M  V30 6472 H 635.046 4.36288 -0.71452 0
M  V30 6473 N 634.105 1.10431 1.1244 0
M  V30 6474 C 635.068 0.756542 2.16354 0
M  V30 6475 C 636.068 -0.21899 1.59302 0
M  V30 6476 O 637.258 0.00415969 1.742 0
M  V30 6477 C 634.39 0.120612 3.40687 0
M  V30 6478 H 635.583 1.67696 2.48632 0
M  V30 6479 H 633.136 0.904832 1.27446 0
M  V30 6480 H 633.871 -0.810536 3.14008 0
M  V30 6481 H 633.656 0.822693 3.83372 0
M  V30 6482 H 635.146 -0.106945 4.17463 0
M  V30 6483 N 635.583 -1.29855 0.893053 0
M  V30 6484 C 636.832 -1.95104 0.511597 0
M  V30 6485 C 637.145 -1.71226 -0.945567 0
M  V30 6486 O 638.351 -2.30525 -1.43424 0
M  V30 6487 C 636.807 -3.49374 0.864034 0
M  V30 6488 C 636.415 -3.82061 2.33952 0
M  V30 6489 C 638.159 -4.20894 0.552167 0
M  V30 6490 C 636.066 -5.29546 2.63316 0
M  V30 6491 H 634.996 -0.73029 0.187597 0
M  V30 6492 H 637.647 -1.47682 1.08914 0
M  V30 6493 H 636.029 -3.95413 0.215493 0
M  V30 6494 H 637.203 -3.46904 3.03305 0
M  V30 6495 H 635.518 -3.23665 2.61973 0
M  V30 6496 H 638.115 -5.29435 0.748489 0
M  V30 6497 H 638.458 -4.13178 -0.508924 0
M  V30 6498 H 638.991 -3.80564 1.15825 0
M  V30 6499 H 635.73 -5.4232 3.68197 0
M  V30 6500 H 635.25 -5.65974 1.9858 0
M  V30 6501 H 636.929 -5.97068 2.49236 0
M  V30 6502 N 637.061 -0.65484 -1.43351 0
M  V30 6503 C 638.301 -0.172514 -2.03671 0
M  V30 6504 C 638.665 1.19154 -1.50553 0
M  V30 6505 O 639.866 1.76737 -2.02528 0
M  V30 6506 C 638.137 -0.183982 -3.56926 0
M  V30 6507 S 639.696 0.230262 -4.38195 0
M  V30 6508 H 636.514 -0.0727503 -0.707268 0
M  V30 6509 H 639.116 -0.863537 -1.75395 0
M  V30 6510 H 637.82 -1.17945 -3.93087 0
M  V30 6511 H 637.351 0.527527 -3.89847 0
M  V30 6512 H 639.366 1.46874 -4.73965 0
M  V30 6513 N 638.539 1.52521 -0.396863 0
M  V30 6514 C 639.785 2.01971 0.183169 0
M  V30 6515 C 640.118 1.2825 1.45827 0
M  V30 6516 O 639.393 0.385179 1.90648 0
M  V30 6517 C 639.676 3.5736 0.443391 0
M  V30 6518 C 639.529 4.41743 -0.84753 0
M  V30 6519 C 640.848 4.22539 1.2308 0
M  V30 6520 H 637.967 0.734119 0.0650976 0
M  V30 6521 H 640.609 1.82519 -0.527918 0
M  V30 6522 H 638.759 3.74066 1.04914 0
M  V30 6523 H 640.431 4.36773 -1.48414 0
M  V30 6524 H 638.674 4.0845 -1.4612 0
M  V30 6525 H 639.345 5.48507 -0.620003 0
M  V30 6526 H 641.821 4.09857 0.718084 0
M  V30 6527 H 640.697 5.31227 1.38162 0
M  V30 6528 H 640.958 3.80675 2.24808 0
M  V30 6529 N 640.017 0.126909 1.57088 0
M  V30 6530 C 641.265 -0.528123 1.95078 0
M  V30 6531 C 641.586 -1.66708 1.0116 0
M  V30 6532 O 640.856 -1.95777 0.0693527 0
M  V30 6533 H 639.436 -0.198087 0.720257 0
M  V30 6534 H 642.098 0.197703 1.93895 0
M  V30 6535 H 641.194 -0.917507 2.98309 0
M  V30 6536 N 641.495 -1.56914 -0.146875 0
M  V30 6537 C 642.458 -1.97368 -1.16526 0
M  V30 6538 C 643.458 -0.860223 -1.35856 0
M  V30 6539 O 644.648 -1.12684 -1.32846 0
M  V30 6540 C 641.78 -2.28974 -2.52555 0
M  V30 6541 H 642.973 -2.88523 -0.818209 0
M  V30 6542 H 640.526 -1.5135 -0.390221 0
M  V30 6543 H 641.261 -1.40611 -2.92231 0
M  V30 6544 H 641.046 -3.10157 -2.39886 0
M  V30 6545 H 642.536 -2.61109 -3.25902 0
M  V30 6546 N 642.974 0.416227 -1.52004 0
M  V30 6547 C 644.214 1.17307 -1.67387 0
M  V30 6548 C 644.578 1.87959 -0.39183 0
M  V30 6549 O 645.779 2.65472 -0.421671 0
M  V30 6550 C 644.05 2.14661 -2.85754 0
M  V30 6551 S 645.609 2.98549 -3.21581 0
M  V30 6552 H 642.427 0.397505 -0.5895 0
M  V30 6553 H 645.029 0.461431 -1.89976 0
M  V30 6554 H 643.733 1.61431 -3.77317 0
M  V30 6555 H 643.264 2.90375 -2.65417 0
M  V30 6556 H 645.279 4.16536 -2.69652 0
M  V30 6557 N 644.452 1.42507 0.673017 0
M  V30 6558 C 645.698 1.43284 1.43519 0
M  V30 6559 C 646.031 0.049668 1.94136 0
M  V30 6560 O 645.306 -0.926369 1.71022 0
M  V30 6561 C 645.589 2.45874 2.63093 0
M  V30 6562 C 645.442 3.93388 2.18096 0
M  V30 6563 C 646.761 2.45431 3.6531 0
M  V30 6564 H 643.88 0.521752 0.520522 0
M  V30 6565 H 646.522 1.73932 0.764701 0
M  V30 6566 H 644.672 2.19869 3.20296 0
M  V30 6567 H 646.344 4.30379 1.66046 0
M  V30 6568 H 644.587 4.07169 1.49652 0
M  V30 6569 H 645.258 4.60752 3.03993 0
M  V30 6570 H 647.734 2.68561 3.17827 0
M  V30 6571 H 646.61 3.19189 4.46553 0
M  V30 6572 H 646.871 1.48092 4.16559 0
M  V30 6573 N 645.93 -0.909495 1.28709 0
M  V30 6574 C 647.176 -1.66151 1.16283 0
M  V30 6575 C 647.509 -1.92067 -0.287069 0
M  V30 6576 O 646.784 -1.52409 -1.20837 0
M  V30 6577 C 647.067 -3.01676 1.9663 0
M  V30 6578 C 646.92 -2.82888 3.49707 0
M  V30 6579 C 648.239 -4.02274 1.78504 0
M  V30 6580 H 645.358 -0.602966 0.423793 0
M  V30 6581 H 648 -1.05418 1.58073 0
M  V30 6582 H 646.15 -3.53515 1.61119 0
M  V30 6583 H 647.822 -2.38026 3.95147 0
M  V30 6584 H 646.065 -2.17862 3.75125 0
M  V30 6585 H 646.736 -3.79147 4.01187 0
M  V30 6586 H 649.212 -3.59511 2.09503 0
M  V30 6587 H 648.088 -4.95056 2.37088 0
M  V30 6588 H 648.349 -4.35903 0.737647 0
M  V30 6589 N 647.408 -1.11026 -1.11852 0
M  V30 6590 C 648.824 -0.843294 -1.35502 0
M  V30 6591 C 649.024 0.534179 -1.9429 0
M  V30 6592 O 648.08 1.28585 -2.17307 0
M  V30 6593 C 649.393 -1.94793 -2.29077 0
M  V30 6594 C 650.941 -1.97709 -2.42652 0
M  V30 6595 C 651.416 -3.07364 -3.39546 0
M  V30 6596 N 652.907 -3.0671 -3.47107 0
M  V30 6597 C 653.642 -3.88197 -4.22008 0
M  V30 6598 N 653.138 -4.79635 -4.99922 0
M  V30 6599 N 654.931 -3.76391 -4.17476 0
M  V30 6600 H 647.082 -1.99805 -0.720538 0
M  V30 6601 H 649.345 -0.868633 -0.379711 0
M  V30 6602 H 649.051 -2.93971 -1.93065 0
M  V30 6603 H 648.925 -1.84039 -3.29256 0
M  V30 6604 H 651.312 -0.991604 -2.77941 0
M  V30 6605 H 651.393 -2.1254 -1.4234 0
M  V30 6606 H 651.037 -4.06136 -3.04985 0
M  V30 6607 H 650.967 -2.89774 -4.39703 0
M  V30 6608 H 653.458 -2.40457 -2.91528 0
M  V30 6609 H 653.771 -5.38357 -5.54429 0
M  V30 6610 H 652.116 -4.8366 -4.99097 0
M  V30 6611 H 655.307 -3.04303 -3.55693 0
M  V30 6612 H 655.48 -4.40131 -4.75593 0
M  V30 6613 N 648.886 1.2938 -0.899927 0
M  V30 6614 C 650.163 1.9046 -0.445443 0
M  V30 6615 C 650.543 1.81683 1.07492 0
M  V30 6616 O 649.891 1.24371 1.91688 0
M  V30 6617 C 650.101 3.35529 -0.960279 0
M  V30 6618 C 651.449 4.12556 -1.00412 0
M  V30 6619 O 652.473 3.44434 -0.907965 0
M  V30 6620 O 651.332 5.34294 -1.14857 0
M  V30 6621 H 648.426 0.815253 -0.138893 0
M  V30 6622 H 650.972 1.37844 -0.989808 0
M  V30 6623 H 649.744 3.36074 -2.00425 0
M  V30 6624 H 649.367 3.95624 -0.395939 0
M  V30 6625 N 650.364 0.662433 1.43002 0
M  V30 6626 C 651.327 -0.0142016 2.29196 0
M  V30 6627 C 652.327 -0.741394 1.42688 0
M  V30 6628 O 653.517 -0.581257 1.64216 0
M  V30 6629 C 650.649 -1.03084 3.24941 0
M  V30 6630 H 651.842 0.7443 2.90517 0
M  V30 6631 H 649.395 0.424133 1.50435 0
M  V30 6632 H 650.13 -1.81826 2.68533 0
M  V30 6633 H 649.915 -0.512946 3.8873 0
M  V30 6634 H 651.405 -1.50308 3.89612 0
M  V30 6635 N 651.842 -1.52309 0.404946 0
M  V30 6636 C 653.07 -2.06185 -0.171818 0
M  V30 6637 C 653.485 -1.27536 -1.39212 0
M  V30 6638 O 652.842 -0.326112 -1.79563 0
M  V30 6639 C 652.893 -3.57647 -0.526417 0
M  V30 6640 O 652.614 -4.3332 0.645417 0
M  V30 6641 C 654.115 -4.27925 -1.15736 0
M  V30 6642 H 651.335 -0.670632 -0.0222328 0
M  V30 6643 H 653.879 -1.96259 0.574692 0
M  V30 6644 H 652.034 -3.67595 -1.22282 0
M  V30 6645 H 652.448 -5.23328 0.35042 0
M  V30 6646 H 653.922 -5.35093 -1.35572 0
M  V30 6647 H 654.399 -3.84134 -2.12926 0
M  V30 6648 H 655.005 -4.22335 -0.501281 0
M  V30 6649 N 653.32 -0.135238 -1.57019 0
M  V30 6650 C 654.568 0.51777 -1.95355 0
M  V30 6651 C 654.889 1.6617 -1.02042 0
M  V30 6652 O 654.159 1.95738 -0.0797343 0
M  V30 6653 H 652.739 0.194264 -0.721298 0
M  V30 6654 H 655.401 -0.207983 -1.93787 0
M  V30 6655 H 654.497 0.901675 -2.98791 0
M  V30 6656 N 654.798 1.5699 0.138552 0
M  V30 6657 C 655.746 1.99858 1.18994 0
M  V30 6658 C 656.74 0.89231 1.43994 0
M  V30 6659 O 657.946 1.0775 1.44187 0
M  V30 6660 H 654.321 0.636325 0.400743 0
M  V30 6661 H 656.292 2.87427 0.801755 0
M  V30 6662 C 655.041 2.40235 2.51361 0
M  V30 6663 H 654.364 3.24917 2.32957 0
M  V30 6664 H 655.804 2.74045 3.23535 0
M  V30 6665 C 654.263 1.25829 3.1252 0
M  V30 6666 O 654.793 0.563604 3.97727 0
M  V30 6667 N 652.999 1.02036 2.72097 0
M  V30 6668 H 652.546 1.58705 2.02905 0
M  V30 6669 H 652.504 0.256796 3.1335 0
M  V30 6670 N 656.276 -0.40816 1.52223 0
M  V30 6671 C 657.209 -1.51834 1.70357 0
M  V30 6672 C 658.187 -1.52973 0.551171 0
M  V30 6673 O 659.371 -1.71667 0.778642 0
M  V30 6674 C 656.498 -2.90362 1.74378 0
M  V30 6675 C 655.544 -3.0713 2.95928 0
M  V30 6676 S 656.377 -2.80342 4.56255 0
M  V30 6677 C 657.533 -4.21098 4.63063 0
M  V30 6678 H 657.766 -1.36223 2.64255 0
M  V30 6679 H 655.299 -0.599798 1.42274 0
M  V30 6680 H 657.257 -3.70199 1.77379 0
M  V30 6681 H 655.918 -3.03314 0.816063 0
M  V30 6682 H 655.111 -4.08482 2.95226 0
M  V30 6683 H 654.713 -2.3516 2.90819 0
M  V30 6684 H 657.005 -5.14749 4.40499 0
M  V30 6685 H 657.948 -4.26823 5.65002 0
M  V30 6686 H 658.356 -4.06114 3.92086 0
M  V30 6687 N 657.755 -1.42862 -0.66545 0
M  V30 6688 C 658.703 -1.47319 -1.8 0
M  V30 6689 C 659.697 -0.347963 -1.65788 0
M  V30 6690 O 660.903 -0.521406 -1.72283 0
M  V30 6691 H 657.278 -0.461588 -0.593667 0
M  V30 6692 H 659.249 -2.42876 -1.7336 0
M  V30 6693 C 657.998 -1.40152 -3.18203 0
M  V30 6694 H 657.321 -2.26035 -3.2977 0
M  V30 6695 H 658.761 -1.47331 -3.9758 0
M  V30 6696 C 657.22 -0.117493 -3.36695 0
M  V30 6697 O 657.75 0.826058 -3.93115 0
M  V30 6698 N 655.956 -0.0316218 -2.90583 0
M  V30 6699 H 655.503 -0.800247 -2.44855 0
M  V30 6700 H 655.461 0.826835 -3.03333 0
M  V30 6701 N 659.233 0.902656 -1.29189 0
M  V30 6702 C 660.51 1.63296 -1.07674 0
M  V30 6703 C 660.89 2.07649 0.380137 0
M  V30 6704 O 660.238 1.82997 1.36837 0
M  V30 6705 C 660.448 2.81603 -2.06158 0
M  V30 6706 C 661.796 3.52359 -2.36914 0
M  V30 6707 O 662.82 2.91767 -2.04329 0
M  V30 6708 O 661.679 4.61586 -2.92576 0
M  V30 6709 H 658.773 0.716889 -0.41231 0
M  V30 6710 H 661.319 0.950984 -1.4055 0
M  V30 6711 H 660.091 2.46004 -3.04299 0
M  V30 6712 H 659.714 3.57508 -1.73993 0
M  V30 6713 N 660.711 1.11618 1.11262 0
M  V30 6714 C 661.939 0.888739 1.8684 0
M  V30 6715 C 662.354 -0.561558 1.80255 0
M  V30 6716 O 661.711 -1.38782 1.18515 0
M  V30 6717 C 661.762 1.34422 3.35579 0
M  V30 6718 O 661.483 2.73766 3.42029 0
M  V30 6719 C 662.984 1.15246 4.28058 0
M  V30 6720 H 660.204 0.318152 0.590779 0
M  V30 6721 H 662.748 1.48398 1.40707 0
M  V30 6722 H 660.903 0.79239 3.7921 0
M  V30 6723 H 661.317 2.9355 4.34659 0
M  V30 6724 H 662.791 1.52015 5.30656 0
M  V30 6725 H 663.268 0.0922007 4.39103 0
M  V30 6726 H 663.874 1.69136 3.90222 0
M  V30 6727 N 662.189 -1.289 0.906776 0
M  V30 6728 C 663.438 -1.9455 0.532262 0
M  V30 6729 C 663.751 -1.72219 -0.927353 0
M  V30 6730 O 664.957 -2.32033 -1.40971 0
M  V30 6731 C 663.413 -3.48438 0.901041 0
M  V30 6732 C 663.021 -3.79558 2.37991 0
M  V30 6733 C 664.765 -4.20284 0.596777 0
M  V30 6734 C 662.672 -5.26723 2.68918 0
M  V30 6735 H 661.602 -0.728259 0.195333 0
M  V30 6736 H 664.253 -1.46519 1.10474 0
M  V30 6737 H 662.635 -3.95162 0.257419 0
M  V30 6738 H 663.809 -3.43668 3.06967 0
M  V30 6739 H 662.124 -3.20868 2.65391 0
M  V30 6740 H 664.721 -5.28612 0.8046 0
M  V30 6741 H 665.064 -4.13694 -0.465072 0
M  V30 6742 H 665.597 -3.79315 1.19855 0
M  V30 6743 H 662.336 -5.38384 3.73928 0
M  V30 6744 H 661.856 -5.63836 2.04571 0
M  V30 6745 H 663.535 -5.94391 2.55555 0
M  V30 6746 N 663.667 -0.670007 -1.42649 0
M  V30 6747 C 664.916 -0.187526 -2.00826 0
M  V30 6748 C 665.229 1.21142 -1.53571 0
M  V30 6749 O 666.435 1.79001 -2.04134 0
M  V30 6750 C 664.891 -0.284409 -3.58774 0
M  V30 6751 C 664.499 -1.6871 -4.15019 0
M  V30 6752 C 666.243 0.139605 -4.2427 0
M  V30 6753 C 664.15 -1.73701 -5.65316 0
M  V30 6754 H 663.08 -0.0663468 -0.751075 0
M  V30 6755 H 665.731 -0.834492 -1.63427 0
M  V30 6756 H 664.113 0.430364 -3.93655 0
M  V30 6757 H 665.287 -2.42857 -3.91608 0
M  V30 6758 H 663.602 -2.05855 -3.61957 0
M  V30 6759 H 666.199 0.122398 -5.3456 0
M  V30 6760 H 666.542 1.17403 -3.99402 0
M  V30 6761 H 667.075 -0.523995 -3.94334 0
M  V30 6762 H 663.814 -2.75109 -5.94975 0
M  V30 6763 H 663.334 -1.03903 -5.90732 0
M  V30 6764 H 665.013 -1.48829 -6.2965 0
M  V30 6765 N 665.145 1.52092 -0.413018 0
M  V30 6766 C 666.37 2.06756 0.163338 0
M  V30 6767 C 666.795 1.28073 1.37764 0
M  V30 6768 O 666.153 0.312015 1.78595 0
M  V30 6769 C 666.201 3.57278 0.488322 0
M  V30 6770 O 665.305 3.80986 1.57871 0
M  V30 6771 H 664.646 0.663882 0.0125068 0
M  V30 6772 H 667.176 1.95988 -0.587339 0
M  V30 6773 H 667.186 4.01125 0.745836 0
M  V30 6774 H 665.861 4.13978 -0.399327 0
M  V30 6775 H 664.438 3.49017 1.31306 0
M  V30 6776 N 666.623 0.143563 1.56945 0
M  V30 6777 C 667.871 -0.507402 1.95627 0
M  V30 6778 C 668.192 -1.65626 1.02922 0
M  V30 6779 O 667.462 -1.95693 0.0901136 0
M  V30 6780 H 666.042 -0.190436 0.722318 0
M  V30 6781 H 668.704 0.218257 1.93674 0
M  V30 6782 H 667.8 -0.885816 2.99265 0
M  V30 6783 N 668.101 -1.57061 -0.130224 0
M  V30 6784 C 669.034 -1.94698 -1.19029 0
M  V30 6785 C 670.012 -0.815074 -1.40696 0
M  V30 6786 O 671.196 -1.07223 -1.55034 0
M  V30 6787 C 668.323 -2.23352 -2.5462 0
M  V30 6788 C 667.369 -3.45945 -2.49448 0
M  V30 6789 S 668.202 -4.98927 -1.94505 0
M  V30 6790 C 669.358 -5.30721 -3.31792 0
M  V30 6791 H 669.591 -2.84308 -0.869272 0
M  V30 6792 H 667.124 -1.50688 -0.336531 0
M  V30 6793 H 669.082 -2.40539 -3.32643 0
M  V30 6794 H 667.743 -1.34376 -2.83905 0
M  V30 6795 H 666.936 -3.63324 -3.49302 0
M  V30 6796 H 666.538 -3.28086 -1.79543 0
M  V30 6797 H 668.83 -5.25215 -4.27966 0
M  V30 6798 H 669.773 -6.32048 -3.19251 0
M  V30 6799 H 670.181 -4.5821 -3.29703 0
M  V30 6800 N 669.579 0.400081 -1.52437 0
M  V30 6801 C 670.527 1.50851 -1.7705 0
M  V30 6802 C 671.521 1.56928 -0.637969 0
M  V30 6803 O 672.727 1.60226 -0.820212 0
M  V30 6804 H 669.102 0.50186 -0.560036 0
M  V30 6805 H 671.073 1.27281 -2.69893 0
M  V30 6806 C 669.822 2.88117 -1.94638 0
M  V30 6807 H 669.145 2.84187 -2.81208 0
M  V30 6808 H 670.585 3.64942 -2.15855 0
M  V30 6809 C 669.044 3.29206 -0.715899 0
M  V30 6810 O 669.574 4.01544 0.111944 0
M  V30 6811 N 667.78 2.85363 -0.549191 0
M  V30 6812 H 667.327 2.26664 -1.22397 0
M  V30 6813 H 667.285 3.13214 0.27278 0
M  V30 6814 N 671.057 1.43213 0.657864 0
M  V30 6815 C 672.297 1.46083 1.42965 0
M  V30 6816 C 672.661 0.0809712 1.91829 0
M  V30 6817 O 673.862 -0.0156305 2.68795 0
M  V30 6818 C 672.133 2.47044 2.58271 0
M  V30 6819 S 673.692 2.68753 3.46868 0
M  V30 6820 H 670.51 0.517015 0.488074 0
M  V30 6821 H 673.112 1.79945 0.764213 0
M  V30 6822 H 671.816 3.46044 2.20639 0
M  V30 6823 H 671.347 2.14665 3.2967 0
M  V30 6824 H 673.362 1.98329 4.54841 0
M  V30 6825 N 672.536 -0.895792 1.29666 0
M  V30 6826 C 673.484 -2.02173 1.15017 0
M  V30 6827 C 674.478 -1.69276 0.0647651 0
M  V30 6828 O 675.684 -1.7859 0.224846 0
M  V30 6829 H 672.059 -0.662719 0.355397 0
M  V30 6830 H 674.03 -2.11666 2.10334 0
M  V30 6831 C 672.779 -3.37212 0.847555 0
M  V30 6832 H 672.102 -3.6303 1.67479 0
M  V30 6833 H 673.542 -4.16668 0.785106 0
M  V30 6834 C 672.001 -3.33891 -0.44929 0
M  V30 6835 O 672.531 -3.73673 -1.47415 0
M  V30 6836 N 670.737 -2.86991 -0.456547 0
M  V30 6837 H 670.284 -2.54813 0.377925 0
M  V30 6838 H 670.242 -2.85152 -1.32423 0
M  V30 6839 N 674.014 -1.12206 -1.10668 0
M  V30 6840 C 675.262 -0.874144 -1.82217 0
M  V30 6841 C 675.583 0.601736 -1.85484 0
M  V30 6842 O 674.853 1.43725 -1.33116 0
M  V30 6843 H 673.433 -0.320404 -0.674797 0
M  V30 6844 H 676.095 -1.41606 -1.33917 0
M  V30 6845 H 675.191 -1.25349 -2.85822 0
M  V30 6846 N 675.492 1.28418 -0.913599 0
M  V30 6847 C 676.717 1.99643 -0.561899 0
M  V30 6848 C 677.142 1.67819 0.849608 0
M  V30 6849 O 676.5 0.910503 1.56779 0
M  V30 6850 C 676.548 3.52116 -0.777622 0
M  V30 6851 O 675.652 4.12076 0.163457 0
M  V30 6852 H 674.993 0.627229 -0.217898 0
M  V30 6853 H 677.523 1.63575 -1.229 0
M  V30 6854 H 677.533 4.02163 -0.687666 0
M  V30 6855 H 676.208 3.74613 -1.8066 0
M  V30 6856 H 674.785 3.72892 0.0247827 0
M  V30 6857 N 676.97 0.677563 1.42291 0
M  V30 6858 C 677.933 0.0101085 2.29198 0
M  V30 6859 C 678.933 -0.726219 1.43467 0
M  V30 6860 O 680.123 -0.563807 1.64824 0
M  V30 6861 C 677.255 -0.996316 3.26016 0
M  V30 6862 H 678.448 0.775071 2.89711 0
M  V30 6863 H 676.001 0.440065 1.49977 0
M  V30 6864 H 676.736 -1.78967 2.70446 0
M  V30 6865 H 676.521 -0.471687 3.89253 0
M  V30 6866 H 678.011 -1.46167 3.91184 0
M  V30 6867 N 678.448 -1.51871 0.421078 0
M  V30 6868 C 679.411 -2.25914 -0.386712 0
M  V30 6869 C 680.411 -1.28733 -0.963555 0
M  V30 6870 O 681.601 -1.52579 -0.840556 0
M  V30 6871 C 678.733 -3.03853 -1.54551 0
M  V30 6872 H 679.926 -2.98754 0.261978 0
M  V30 6873 H 677.479 -1.5533 0.173862 0
M  V30 6874 H 678.214 -2.35392 -2.23072 0
M  V30 6875 H 677.999 -3.75215 -1.13824 0
M  V30 6876 H 679.489 -3.59984 -2.11663 0
M  V30 6877 N 679.926 -0.151884 -1.56866 0
M  V30 6878 C 681.166 0.500695 -1.98173 0
M  V30 6879 C 681.53 1.61715 -1.03499 0
M  V30 6880 O 682.731 2.33093 -1.33869 0
M  V30 6881 C 681.002 0.989333 -3.43434 0
M  V30 6882 S 682.561 1.64583 -4.06765 0
M  V30 6883 H 679.379 0.16173 -0.692361 0
M  V30 6884 H 681.981 -0.244754 -1.93962 0
M  V30 6885 H 680.685 0.166072 -4.10064 0
M  V30 6886 H 680.216 1.76929 -3.51368 0
M  V30 6887 H 682.231 2.93326 -4.00218 0
M  V30 6888 N 681.404 1.57128 0.121893 0
M  V30 6889 C 682.652 1.84335 0.828548 0
M  V30 6890 C 682.973 0.736632 1.80551 0
M  V30 6891 O 682.243 -0.23962 1.94429 0
M  V30 6892 H 680.823 0.680108 0.30897 0
M  V30 6893 H 683.485 1.9459 0.109906 0
M  V30 6894 H 682.581 2.80152 1.37554 0
M  V30 6895 N 682.882 -0.391992 1.52647 0
M  V30 6896 C 683.812 -1.48517 1.8018 0
M  V30 6897 C 684.793 -1.57039 0.653667 0
M  V30 6898 O 685.978 -1.72036 0.900962 0
M  V30 6899 C 683.108 -2.86161 1.96797 0
M  V30 6900 C 682.062 -2.92481 3.12472 0
M  V30 6901 C 681.388 -4.32546 3.14338 0
M  V30 6902 C 682.688 -2.624 4.51601 0
M  V30 6903 H 684.382 -1.25726 2.71723 0
M  V30 6904 H 681.928 -0.603387 1.30749 0
M  V30 6905 H 683.881 -3.62639 2.14641 0
M  V30 6906 H 682.605 -3.10283 1.01941 0
M  V30 6907 H 681.264 -2.18451 2.94406 0
M  V30 6908 H 680.912 -4.53703 2.1717 0
M  V30 6909 H 680.612 -4.37695 3.92042 0
M  V30 6910 H 682.136 -5.10934 3.34333 0
M  V30 6911 H 683.55 -3.28596 4.69785 0
M  V30 6912 H 681.947 -2.78903 5.3135 0
M  V30 6913 H 683.017 -1.57754 4.58521 0
M  V30 6914 N 684.36 -1.4356 -0.65026 0
M  V30 6915 C 685.608 -1.45046 -1.40734 0
M  V30 6916 C 685.929 -0.0769822 -1.94848 0
M  V30 6917 O 685.199 0.888098 -1.74613 0
M  V30 6918 H 683.779 -0.534034 -0.522318 0
M  V30 6919 H 686.441 -1.79186 -0.766703 0
M  V30 6920 H 685.537 -2.16476 -2.24822 0
M  V30 6921 N 685.838 0.888903 -1.30139 0
M  V30 6922 C 687.068 1.67115 -1.21474 0
M  V30 6923 C 687.476 1.87852 0.225472 0
M  V30 6924 O 686.819 1.42324 1.16145 0
M  V30 6925 C 686.881 3.0713 -1.86846 0
M  V30 6926 C 686.545 3.09582 -3.36167 0
M  V30 6927 C 687.542 2.88929 -4.32222 0
M  V30 6928 C 685.227 3.31304 -3.77549 0
M  V30 6929 C 687.221 2.89949 -5.67634 0
M  V30 6930 C 684.908 3.31954 -5.13079 0
M  V30 6931 C 685.906 3.113 -6.07932 0
M  V30 6932 O 685.594 3.11758 -7.40987 0
M  V30 6933 H 685.326 0.528372 -0.421662 0
M  V30 6934 H 687.88 1.11919 -1.7223 0
M  V30 6935 H 686.11 3.63973 -1.30615 0
M  V30 6936 H 687.799 3.6749 -1.72354 0
M  V30 6937 H 688.565 2.71948 -4.01584 0
M  V30 6938 H 684.444 3.46417 -3.04165 0
M  V30 6939 H 687.988 2.73746 -6.41645 0
M  V30 6940 H 683.885 3.48469 -5.43359 0
M  V30 6941 H 684.653 3.27951 -7.49927 0
M  V30 6942 N 687.317 1.12792 1.10072 0
M  V30 6943 C 688.594 0.796867 1.78632 0
M  V30 6944 C 688.974 -0.712739 1.98704 0
M  V30 6945 O 688.322 -1.64773 1.5831 0
M  V30 6946 C 688.532 1.57622 3.11378 0
M  V30 6947 C 689.88 1.76463 3.86194 0
M  V30 6948 O 690.904 1.54165 3.2111 0
M  V30 6949 O 689.763 2.13623 5.03018 0
M  V30 6950 H 686.857 0.290248 0.774394 0
M  V30 6951 H 689.403 1.23215 1.16688 0
M  V30 6952 H 688.175 2.60246 2.92212 0
M  V30 6953 H 687.798 1.13543 3.81043 0
M  V30 6954 N 688.795 -1.27931 0.920396 0
M  V30 6955 C 690.042 -1.94689 0.557007 0
M  V30 6956 C 690.37 -1.724 -0.900476 0
M  V30 6957 O 689.625 -1.04194 -1.65657 0
M  V30 6958 C 689.924 -3.47853 0.820558 0
M  V30 6959 C 689.59 -3.90252 2.25863 0
M  V30 6960 C 688.252 -4.01539 2.65179 0
M  V30 6961 C 690.604 -4.11853 3.19415 0
M  V30 6962 C 687.932 -4.3181 3.97187 0
M  V30 6963 C 690.284 -4.43606 4.50995 0
M  V30 6964 C 688.948 -4.53105 4.90155 0
M  V30 6965 H 688.218 -0.712416 0.203823 0
M  V30 6966 H 690.865 -1.52142 1.16298 0
M  V30 6967 H 689.17 -3.91578 0.131844 0
M  V30 6968 H 690.867 -3.97634 0.51847 0
M  V30 6969 H 687.457 -3.81999 1.94358 0
M  V30 6970 H 691.641 -4.0258 2.90246 0
M  V30 6971 H 686.897 -4.37371 4.2722 0
M  V30 6972 H 691.071 -4.59268 5.23494 0
M  V30 6973 H 688.698 -4.76315 5.92476 0
M  V30 6974 N 690.273 -0.685099 -1.4193 0
M  V30 6975 C 691.498 -0.218842 -2.06242 0
M  V30 6976 C 691.923 1.11923 -1.51178 0
M  V30 6977 O 691.281 1.69837 -0.634446 0
M  V30 6978 C 691.329 -0.175592 -3.60172 0
M  V30 6979 O 690.433 0.852776 -4.03487 0
M  V30 6980 H 689.774 -0.109531 -0.654904 0
M  V30 6981 H 692.304 -0.937013 -1.81882 0
M  V30 6982 H 692.314 -0.00291151 -4.08 0
M  V30 6983 H 690.989 -1.15222 -3.99621 0
M  V30 6984 H 689.566 0.650301 -3.67186 0
M  V30 6985 N 691.751 1.51645 -0.429126 0
M  V30 6986 C 693.167 1.59394 -0.080994 0
M  V30 6987 C 693.367 1.44064 1.40882 0
M  V30 6988 O 692.423 1.27771 2.17786 0
M  V30 6989 C 693.736 2.94779 -0.593773 0
M  V30 6990 C 695.284 3.08067 -0.553494 0
M  V30 6991 C 695.759 4.45963 -1.04311 0
M  V30 6992 N 697.25 4.5226 -1.00076 0
M  V30 6993 C 697.985 5.57268 -1.35056 0
M  V30 6994 N 697.481 6.69734 -1.77282 0
M  V30 6995 N 699.274 5.47582 -1.26925 0
M  V30 6996 H 691.425 1.59856 -1.39857 0
M  V30 6997 H 693.688 0.753095 -0.575805 0
M  V30 6998 H 693.394 3.11342 -1.63583 0
M  V30 6999 H 693.268 3.77197 -0.0142202 0
M  V30 7000 H 695.655 2.91177 0.479556 0
M  V30 7001 H 695.736 2.27508 -1.16935 0
M  V30 7002 H 695.38 4.63598 -2.07459 0
M  V30 7003 H 695.31 5.25049 -0.403873 0
M  V30 7004 H 697.801 3.71537 -0.690564 0
M  V30 7005 H 698.114 7.4587 -2.02232 0
M  V30 7006 H 696.459 6.70963 -1.81202 0
M  V30 7007 H 699.65 4.58604 -0.93809 0
M  V30 7008 H 699.823 6.29308 -1.54516 0
M  V30 7009 N 693.229 0.160201 1.56784 0
M  V30 7010 C 694.469 -0.490179 1.98435 0
M  V30 7011 C 694.833 -1.61164 1.04355 0
M  V30 7012 O 696.034 -2.3238 1.35103 0
M  V30 7013 C 694.305 -0.971106 3.43954 0
M  V30 7014 S 695.864 -1.62423 4.07632 0
M  V30 7015 H 692.682 -0.158056 0.693209 0
M  V30 7016 H 695.284 0.255036 1.93829 0
M  V30 7017 H 693.988 -0.144323 4.10146 0
M  V30 7018 H 693.519 -1.75063 3.52302 0
M  V30 7019 H 695.534 -2.91199 4.01768 0
M  V30 7020 N 694.707 -1.5719 -0.113559 0
M  V30 7021 C 696.123 -1.52607 -0.467253 0
M  V30 7022 C 696.323 -0.874058 -1.81556 0
M  V30 7023 O 695.379 -0.458703 -2.48299 0
M  V30 7024 C 696.692 -2.97363 -0.446736 0
M  V30 7025 C 698.24 -3.08482 -0.529903 0
M  V30 7026 C 698.715 -4.54809 -0.539721 0
M  V30 7027 N 700.206 -4.59284 -0.601005 0
M  V30 7028 C 700.941 -5.69927 -0.630138 0
M  V30 7029 N 700.437 -6.90051 -0.616589 0
M  V30 7030 N 702.23 -5.5805 -0.673558 0
M  V30 7031 H 694.381 -1.97958 0.769819 0
M  V30 7032 H 696.644 -0.90428 0.284572 0
M  V30 7033 H 696.35 -3.48458 0.47643 0
M  V30 7034 H 696.224 -3.55086 -1.27254 0
M  V30 7035 H 698.611 -2.57386 -1.44349 0
M  V30 7036 H 698.692 -2.53744 0.323695 0
M  V30 7037 H 698.336 -5.06552 0.369843 0
M  V30 7038 H 698.266 -5.07364 -1.41028 0
M  V30 7039 H 700.757 -3.72822 -0.617419 0
M  V30 7040 H 701.07 -7.70132 -0.641592 0
M  V30 7041 H 699.415 -6.92543 -0.583927 0
M  V30 7042 H 702.606 -4.63112 -0.681544 0
M  V30 7043 H 702.779 -6.44286 -0.692794 0
M  V30 7044 N 696.185 0.383891 -1.52853 0
M  V30 7045 C 697.135 1.46892 -1.74375 0
M  V30 7046 C 698.119 1.49378 -0.597909 0
M  V30 7047 O 699.311 1.54929 -0.855929 0
M  V30 7048 C 696.44 2.84547 -1.92063 0
M  V30 7049 C 695.526 2.8661 -3.12594 0
M  V30 7050 N 695.917 2.58339 -4.3485 0
M  V30 7051 C 694.215 3.17777 -3.12944 0
M  V30 7052 C 694.916 2.67616 -5.16485 0
M  V30 7053 N 693.892 3.01561 -4.52285 0
M  V30 7054 H 697.694 1.23869 -2.66522 0
M  V30 7055 H 695.208 0.591895 -1.51229 0
M  V30 7056 H 697.205 3.62674 -2.05604 0
M  V30 7057 H 695.865 3.08549 -1.01133 0
M  V30 7058 H 696.876 2.32266 -4.62896 0
M  V30 7059 H 693.553 3.47211 -2.31842 0
M  V30 7060 H 694.943 2.4926 -6.23955 0
M  V30 7061 N 697.663 1.43903 0.642637 0
M  V30 7062 C 698.573 1.52349 1.78401 0
M  V30 7063 C 699.589 0.409869 1.69104 0
M  V30 7064 O 700.765 0.665548 1.90085 0
M  V30 7065 C 697.83 1.45408 3.14734 0
M  V30 7066 C 696.891 2.67528 3.35749 0
M  V30 7067 C 696.124 2.60909 4.65577 0
M  V30 7068 O 696.347 1.6627 5.45628 0
M  V30 7069 O 695.281 3.5158 4.88544 0
M  V30 7070 H 699.107 2.48752 1.7423 0
M  V30 7071 H 696.692 1.26021 0.802439 0
M  V30 7072 H 698.574 1.44019 3.96026 0
M  V30 7073 H 697.249 0.521437 3.19473 0
M  V30 7074 H 696.156 2.74487 2.5418 0
M  V30 7075 H 697.489 3.598 3.35864 0
M  V30 7076 N 699.141 -0.881989 1.30609 0
M  V30 7077 C 700.552 -1.44956 1.17664 0
M  V30 7078 C 700.903 -1.94945 -0.221531 0
M  V30 7079 O 700.028 -1.85257 -1.11844 0
M  V30 7080 C 700.623 -2.63474 2.12995 0
M  V30 7081 C 699.182 -3.16312 2.04019 0
M  V30 7082 C 698.329 -1.89008 2.02907 0
M  V30 7083 H 701.28 -0.691645 1.42835 0
M  V30 7084 H 701.301 -3.39783 1.71253 0
M  V30 7085 H 700.813 -2.2706 3.14746 0
M  V30 7086 H 698.914 -3.57376 1.0542 0
M  V30 7087 H 699.027 -3.79409 2.9255 0
M  V30 7088 H 697.391 -2.07465 1.47751 0
M  V30 7089 H 698.174 -1.54848 3.06394 0
M  V30 7090 N 700.619 -1.13374 -1.09472 0
M  V30 7091 C 701.859 -0.905422 -1.83252 0
M  V30 7092 C 702.223 0.558396 -1.83701 0
M  V30 7093 O 703.424 0.904254 -2.53134 0
M  V30 7094 C 701.695 -1.47658 -3.25472 0
M  V30 7095 S 703.254 -1.38825 -4.16261 0
M  V30 7096 H 700.072 -0.326371 -0.631667 0
M  V30 7097 H 702.674 -1.44517 -1.31663 0
M  V30 7098 H 701.378 -2.53533 -3.22722 0
M  V30 7099 H 700.909 -0.934756 -3.82133 0
M  V30 7100 H 702.924 -0.366379 -4.94846 0
M  V30 7101 N 702.098 1.27442 -0.927168 0
M  V30 7102 C 703.03 2.25975 -0.383158 0
M  V30 7103 C 704.043 1.55382 0.485832 0
M  V30 7104 O 705.232 1.75986 0.298541 0
M  V30 7105 C 702.332 3.35629 0.469688 0
M  V30 7106 C 701.505 4.35747 -0.379886 0
M  V30 7107 C 700.564 5.24598 0.410227 0
M  V30 7108 O 699.59 5.68909 -0.181888 0
M  V30 7109 N 700.792 5.54737 1.71017 0
M  V30 7110 H 703.557 2.7329 -1.23015 0
M  V30 7111 H 701.118 1.41063 -0.794539 0
M  V30 7112 H 703.11 3.92015 1.00532 0
M  V30 7113 H 701.68 2.87919 1.21744 0
M  V30 7114 H 700.9 3.78634 -1.09682 0
M  V30 7115 H 702.188 4.99648 -0.960717 0
M  V30 7116 H 701.586 5.20594 2.21356 0
M  V30 7117 H 700.143 6.13824 2.19234 0
M  V30 7118 N 703.576 0.692616 1.41565 0
M  V30 7119 C 704.806 0.230943 2.05305 0
M  V30 7120 C 705.214 -1.12379 1.52209 0
M  V30 7121 O 704.557 -1.71281 0.663968 0
M  V30 7122 C 704.619 0.107894 3.59338 0
M  V30 7123 C 704.283 1.39419 4.35214 0
M  V30 7124 C 705.28 2.33143 4.64694 0
M  V30 7125 C 702.965 1.64674 4.74539 0
M  V30 7126 C 704.959 3.50385 5.32456 0
M  V30 7127 C 702.646 2.82202 5.42038 0
M  V30 7128 C 703.644 3.74881 5.70923 0
M  V30 7129 O 703.332 4.90351 6.37033 0
M  V30 7130 H 703.064 0.105708 0.667684 0
M  V30 7131 H 705.618 0.94488 1.82376 0
M  V30 7132 H 703.848 -0.661785 3.80995 0
M  V30 7133 H 705.537 -0.316213 4.04666 0
M  V30 7134 H 706.303 2.14887 4.34797 0
M  V30 7135 H 702.182 0.934007 4.51439 0
M  V30 7136 H 705.726 4.22743 5.54918 0
M  V30 7137 H 701.623 3.00376 5.71353 0
M  V30 7138 H 702.391 4.90128 6.55528 0
M  V30 7139 N 705.054 -1.51416 0.437162 0
M  V30 7140 C 706.302 -2.01687 -0.129108 0
M  V30 7141 C 706.623 -1.32329 -1.43227 0
M  V30 7142 O 705.893 -0.457796 -1.90476 0
M  V30 7143 H 704.473 -0.745277 -0.0507023 0
M  V30 7144 H 707.135 -1.86075 0.579828 0
M  V30 7145 H 706.231 -3.10605 -0.305141 0
M  V30 7146 N 706.532 -0.168513 -1.56696 0
M  V30 7147 C 707.462 0.758563 -2.20835 0
M  V30 7148 C 708.443 1.24121 -1.1631 0
M  V30 7149 O 709.628 1.29487 -1.4473 0
M  V30 7150 C 706.758 1.9892 -2.8469 0
M  V30 7151 C 705.712 1.64252 -3.95228 0
M  V30 7152 C 705.038 2.94757 -4.46119 0
M  V30 7153 C 706.338 0.872675 -5.14958 0
M  V30 7154 H 708.032 0.223953 -2.98561 0
M  V30 7155 H 705.578 0.106277 -1.43607 0
M  V30 7156 H 707.531 2.64275 -3.28233 0
M  V30 7157 H 706.255 2.5479 -2.04327 0
M  V30 7158 H 704.914 1.01266 -3.52336 0
M  V30 7159 H 704.562 3.48662 -3.62552 0
M  V30 7160 H 704.262 2.72316 -5.2069 0
M  V30 7161 H 705.786 3.61147 -4.92347 0
M  V30 7162 H 707.2 1.42875 -5.55211 0
M  V30 7163 H 705.597 0.747402 -5.95428 0
M  V30 7164 H 706.667 -0.131535 -4.84722 0
M  V30 7165 N 708.01 1.57248 0.105221 0
M  V30 7166 C 708.943 1.96567 1.15916 0
M  V30 7167 C 709.921 0.837355 1.39381 0
M  V30 7168 O 711.105 1.09676 1.53308 0
M  V30 7169 C 708.232 2.27375 2.51035 0
M  V30 7170 C 707.278 3.49869 2.43913 0
M  V30 7171 S 708.111 5.01958 1.86543 0
M  V30 7172 C 709.267 5.35932 3.23307 0
M  V30 7173 H 709.5 2.85655 0.823931 0
M  V30 7174 H 707.033 1.51204 0.312515 0
M  V30 7175 H 708.991 2.45801 3.28774 0
M  V30 7176 H 707.652 1.38876 2.81731 0
M  V30 7177 H 706.845 3.68835 3.43477 0
M  V30 7178 H 706.447 3.30901 1.743 0
M  V30 7179 H 708.739 5.31958 4.19556 0
M  V30 7180 H 709.682 6.37047 3.09155 0
M  V30 7181 H 710.09 4.63397 3.22372 0
M  V30 7182 N 709.488 -0.375779 1.53054 0
M  V30 7183 C 710.436 -1.48015 1.79428 0
M  V30 7184 C 711.43 -1.55893 0.662854 0
M  V30 7185 O 712.636 -1.58901 0.845599 0
M  V30 7186 H 709.011 -0.492887 0.56795 0
M  V30 7187 H 710.982 -1.22971 2.71884 0
M  V30 7188 C 709.731 -2.84984 1.99197 0
M  V30 7189 H 709.054 -2.79677 2.85693 0
M  V30 7190 H 710.494 -3.61462 2.21633 0
M  V30 7191 C 708.953 -3.28025 0.768183 0
M  V30 7192 O 709.483 -4.01671 -0.0480482 0
M  V30 7193 N 707.689 -2.84454 0.594521 0
M  V30 7194 H 707.236 -2.24688 1.25988 0
M  V30 7195 H 707.194 -3.13609 -0.222916 0
M  V30 7196 N 710.966 -1.44241 -0.634997 0
M  V30 7197 C 711.914 -1.51103 -1.76835 0
M  V30 7198 C 712.908 -0.383051 -1.65012 0
M  V30 7199 O 714.114 -0.557832 -1.71138 0
M  V30 7200 H 710.489 -0.474076 -0.583743 0
M  V30 7201 H 712.46 -2.46499 -1.68169 0
M  V30 7202 C 711.209 -1.4687 -3.15158 0
M  V30 7203 H 710.532 -2.32979 -3.24901 0
M  V30 7204 H 711.972 -1.55731 -3.94365 0
M  V30 7205 C 710.431 -0.188884 -3.3637 0
M  V30 7206 O 710.961 0.742487 -3.94778 0
M  V30 7207 N 709.167 -0.0932516 -2.9045 0
M  V30 7208 H 708.714 -0.852004 -2.43102 0
M  V30 7209 H 708.672 0.762308 -3.05018 0
M  V30 7210 N 712.444 0.87505 -1.31075 0
M  V30 7211 C 713.691 1.62768 -1.20469 0
M  V30 7212 C 714.019 1.93034 0.23834 0
M  V30 7213 O 713.274 1.55693 1.18567 0
M  V30 7214 C 713.573 2.96948 -1.98888 0
M  V30 7215 C 713.239 2.86195 -3.4843 0
M  V30 7216 C 711.901 2.82969 -3.89207 0
M  V30 7217 C 714.253 2.73599 -4.43614 0
M  V30 7218 C 711.581 2.64999 -5.23443 0
M  V30 7219 C 713.933 2.57166 -5.77969 0
M  V30 7220 C 712.597 2.52321 -6.17973 0
M  V30 7221 H 711.867 0.595611 -0.440827 0
M  V30 7222 H 714.514 1.01665 -1.62285 0
M  V30 7223 H 712.819 3.62058 -1.49737 0
M  V30 7224 H 714.516 3.54164 -1.88067 0
M  V30 7225 H 711.106 2.8952 -3.16032 0
M  V30 7226 H 715.29 2.7515 -4.13045 0
M  V30 7227 H 710.546 2.5967 -5.53517 0
M  V30 7228 H 714.72 2.46396 -6.51354 0
M  V30 7229 H 712.347 2.38156 -7.21932 0
M  V30 7230 N 713.922 1.13953 1.08869 0
M  V30 7231 C 714.854 0.779906 2.15523 0
M  V30 7232 C 715.867 -0.20102 1.61554 0
M  V30 7233 O 717.056 0.0200049 1.78489 0
M  V30 7234 C 714.156 0.136226 3.38626 0
M  V30 7235 C 713.329 1.15069 4.21993 0
M  V30 7236 C 712.388 0.531645 5.23507 0
M  V30 7237 O 711.414 1.19327 5.56552 0
M  V30 7238 N 712.616 -0.693734 5.7634 0
M  V30 7239 H 715.381 1.69769 2.46979 0
M  V30 7240 H 712.942 1.03331 1.24637 0
M  V30 7241 H 714.934 -0.290295 4.03658 0
M  V30 7242 H 713.504 -0.684603 3.05011 0
M  V30 7243 H 712.724 1.75431 3.53012 0
M  V30 7244 H 714.012 1.83614 4.74514 0
M  V30 7245 H 713.41 -1.24994 5.51718 0
M  V30 7246 H 711.967 -1.06283 6.43076 0
M  V30 7247 N 715.4 -1.26948 0.933913 0
M  V30 7248 C 716.646 -1.94374 0.57848 0
M  V30 7249 C 716.979 -1.73166 -0.879048 0
M  V30 7250 O 716.254 -1.06438 -1.62792 0
M  V30 7251 C 716.537 -3.4834 0.912739 0
M  V30 7252 C 716.39 -3.78866 2.42448 0
M  V30 7253 C 717.709 -4.38062 0.423003 0
M  V30 7254 H 714.828 -0.705959 0.211639 0
M  V30 7255 H 717.47 -1.49951 1.16682 0
M  V30 7256 H 715.62 -3.86309 0.412058 0
M  V30 7257 H 717.292 -3.50654 2.99733 0
M  V30 7258 H 715.535 -3.25198 2.87104 0
M  V30 7259 H 716.206 -4.86458 2.60887 0
M  V30 7260 H 718.682 -4.0728 0.852191 0
M  V30 7261 H 717.558 -5.44599 0.685776 0
M  V30 7262 H 717.819 -4.36886 -0.676994 0
M  V30 7263 N 716.879 -0.700114 -1.41195 0
M  V30 7264 C 717.812 0.0129614 -2.28196 0
M  V30 7265 C 718.79 0.783367 -1.42486 0
M  V30 7266 O 719.974 0.773238 -1.71911 0
M  V30 7267 C 717.101 1.02575 -3.22794 0
M  V30 7268 C 716.147 0.347977 -4.25078 0
M  V30 7269 S 716.98 -0.912938 -5.27661 0
M  V30 7270 C 718.136 0.0981362 -6.25823 0
M  V30 7271 H 718.369 -0.724927 -2.88326 0
M  V30 7272 H 715.902 -0.490554 -1.464 0
M  V30 7273 H 717.86 1.60491 -3.77826 0
M  V30 7274 H 716.521 1.73624 -2.61751 0
M  V30 7275 H 715.714 1.11305 -4.91556 0
M  V30 7276 H 715.316 -0.15823 -3.73665 0
M  V30 7277 H 717.608 0.949965 -6.70807 0
M  V30 7278 H 718.551 -0.532838 -7.06092 0
M  V30 7279 H 718.959 0.454944 -5.62664 0
M  V30 7280 N 718.357 1.51182 -0.445186 0
M  V30 7281 C 719.582 2.07056 0.119445 0
M  V30 7282 C 720.007 1.30966 1.35016 0
M  V30 7283 O 719.365 0.349827 1.77893 0
M  V30 7284 C 719.413 3.58234 0.412428 0
M  V30 7285 O 718.517 3.84249 1.49754 0
M  V30 7286 H 717.858 0.663998 -0.00157797 0
M  V30 7287 H 720.388 1.94699 -0.628779 0
M  V30 7288 H 720.398 4.02617 0.660583 0
M  V30 7289 H 719.073 4.13038 -0.487049 0
M  V30 7290 H 717.65 3.51724 1.23873 0
M  V30 7291 N 719.835 0.176821 1.56605 0
M  V30 7292 C 720.768 -0.790135 2.14084 0
M  V30 7293 C 721.746 -1.22219 1.07244 0
M  V30 7294 O 722.93 -1.31298 1.35252 0
M  V30 7295 C 720.057 -2.06475 2.68488 0
M  V30 7296 C 719.103 -1.77628 3.87751 0
M  V30 7297 S 719.936 -0.940612 5.27174 0
M  V30 7298 C 721.092 -2.22577 5.84988 0
M  V30 7299 H 721.325 -0.30144 2.95768 0
M  V30 7300 H 718.858 -0.0379279 1.54353 0
M  V30 7301 H 720.816 -2.79683 3.00479 0
M  V30 7302 H 719.477 -2.52457 1.8688 0
M  V30 7303 H 718.67 -2.72215 4.24164 0
M  V30 7304 H 718.272 -1.12512 3.56675 0
M  V30 7305 H 720.564 -3.17992 5.98237 0
M  V30 7306 H 721.507 -1.90624 6.81959 0
M  V30 7307 H 721.915 -2.34588 5.13448 0
M  V30 7308 N 721.313 -1.57302 -0.09688 0
M  V30 7309 C 722.559 -1.86273 -0.801885 0
M  V30 7310 C 722.892 -0.765694 -1.78468 0
M  V30 7311 O 722.167 0.226495 -1.93177 0
M  V30 7312 C 722.45 -3.25876 -1.53221 0
M  V30 7313 C 722.303 -4.46205 -0.567529 0
M  V30 7314 C 723.622 -3.63352 -2.48321 0
M  V30 7315 H 720.741 -0.67752 -0.29006 0
M  V30 7316 H 723.383 -1.89887 -0.0655577 0
M  V30 7317 H 721.533 -3.22926 -2.15988 0
M  V30 7318 H 723.205 -4.6127 0.0529982 0
M  V30 7319 H 721.448 -4.33636 0.119233 0
M  V30 7320 H 722.119 -5.40608 -1.11564 0
M  V30 7321 H 724.595 -3.67234 -1.95648 0
M  V30 7322 H 723.471 -4.61968 -2.9644 0
M  V30 7323 H 723.732 -2.91941 -3.31998 0
M  V30 7324 N 722.791 0.367657 -1.53252 0
M  V30 7325 C 724.016 1.13566 -1.73544 0
M  V30 7326 C 724.441 1.82329 -0.462344 0
M  V30 7327 O 723.799 1.71655 0.583472 0
M  V30 7328 C 723.847 2.14322 -2.89997 0
M  V30 7329 O 722.951 3.21359 -2.58461 0
M  V30 7330 H 722.292 0.329614 -0.576412 0
M  V30 7331 H 724.822 0.425417 -2.00128 0
M  V30 7332 H 724.832 2.57958 -3.16104 0
M  V30 7333 H 723.507 1.63664 -3.82344 0
M  V30 7334 H 722.084 2.8271 -2.43165 0
M  V30 7335 N 724.269 1.44576 0.627338 0
M  V30 7336 C 725.517 1.47267 1.38408 0
M  V30 7337 C 725.838 0.107971 1.94701 0
M  V30 7338 O 725.108 -0.860206 1.76004 0
M  V30 7339 H 723.688 0.542276 0.513756 0
M  V30 7340 H 726.35 1.80383 0.738099 0
M  V30 7341 H 725.446 2.20025 2.21349 0
M  V30 7342 N 725.747 -0.868086 1.31537 0
M  V30 7343 C 726.994 -1.62127 1.2133 0
M  V30 7344 C 727.322 -1.93158 -0.2281 0
M  V30 7345 O 726.577 -1.5632 -1.1774 0
M  V30 7346 C 726.876 -2.95889 2.0046 0
M  V30 7347 C 726.542 -2.84343 3.49943 0
M  V30 7348 C 725.204 -2.80901 3.90702 0
M  V30 7349 C 727.556 -2.71243 4.45058 0
M  V30 7350 C 724.884 -2.6222 5.24841 0
M  V30 7351 C 727.236 -2.54098 5.79325 0
M  V30 7352 C 725.9 -2.4904 6.19302 0
M  V30 7353 H 725.17 -0.593265 0.443979 0
M  V30 7354 H 727.817 -1.00803 1.62822 0
M  V30 7355 H 726.122 -3.61259 1.51655 0
M  V30 7356 H 727.819 -3.53161 1.89942 0
M  V30 7357 H 724.409 -2.8784 3.17563 0
M  V30 7358 H 728.593 -2.72956 4.14498 0
M  V30 7359 H 723.849 -2.56731 5.54887 0
M  V30 7360 H 728.023 -2.42938 6.52652 0
M  V30 7361 H 725.65 -2.34324 7.23185 0
M  V30 7362 N 727.225 -1.14528 -1.08264 0
M  V30 7363 C 728.473 -0.912599 -1.80322 0
M  V30 7364 C 728.794 0.562256 -1.86718 0
M  V30 7365 O 728.064 1.40869 -1.36135 0
M  V30 7366 H 726.644 -0.334645 -0.667849 0
M  V30 7367 H 729.306 -1.44415 -1.30883 0
M  V30 7368 H 728.402 -1.31384 -2.83098 0
M  V30 7369 N 728.703 1.26451 -0.940633 0
M  V30 7370 C 730.114 1.75726 -0.630653 0
M  V30 7371 C 730.465 1.76631 0.854167 0
M  V30 7372 O 729.59 1.37807 1.66848 0
M  V30 7373 C 730.185 3.19114 -1.13805 0
M  V30 7374 C 728.744 3.66005 -0.878497 0
M  V30 7375 C 727.891 2.45505 -1.28928 0
M  V30 7376 H 730.842 1.12535 -1.119 0
M  V30 7377 H 730.863 3.77311 -0.491625 0
M  V30 7378 H 730.375 3.18424 -2.21874 0
M  V30 7379 H 728.476 3.72126 0.187833 0
M  V30 7380 H 728.589 4.54844 -1.50512 0
M  V30 7381 H 726.953 2.4467 -0.707713 0
M  V30 7382 H 727.736 2.47516 -2.37888 0
M  V30 7383 N 730.181 0.707592 1.40822 0
M  V30 7384 C 731.111 0.0644925 2.33411 0
M  V30 7385 C 732.092 -0.754205 1.52466 0
M  V30 7386 O 733.277 -0.704749 1.80961 0
M  V30 7387 C 730.407 -0.863865 3.36385 0
M  V30 7388 C 729.361 -0.15138 4.27732 0
M  V30 7389 C 728.687 -1.19491 5.21177 0
M  V30 7390 C 729.987 0.989607 5.12839 0
M  V30 7391 H 731.681 0.837829 2.87438 0
M  V30 7392 H 729.227 0.404346 1.38207 0
M  V30 7393 H 731.18 -1.32309 4.0009 0
M  V30 7394 H 729.904 -1.66901 2.80734 0
M  V30 7395 H 728.563 0.287937 3.65467 0
M  V30 7396 H 728.211 -1.9929 4.61836 0
M  V30 7397 H 727.911 -0.723123 5.83134 0
M  V30 7398 H 729.435 -1.6544 5.8776 0
M  V30 7399 H 730.849 0.610114 5.70044 0
M  V30 7400 H 729.246 1.38926 5.83798 0
M  V30 7401 H 730.316 1.82389 4.49291 0
M  V30 7402 N 731.66 -1.50943 0.453197 0
M  V30 7403 C 732.909 -2.01402 -0.10951 0
M  V30 7404 C 733.222 -1.3411 -1.42386 0
M  V30 7405 O 734.428 -1.75626 -2.07045 0
M  V30 7406 C 732.884 -3.5906 -0.245693 0
M  V30 7407 C 732.492 -4.353 1.05916 0
M  V30 7408 C 734.236 -4.17617 -0.761318 0
M  V30 7409 C 732.143 -5.84699 0.887752 0
M  V30 7410 H 731.073 -0.752674 -0.0447013 0
M  V30 7411 H 733.724 -1.73913 0.585375 0
M  V30 7412 H 732.106 -3.83062 -1.00395 0
M  V30 7413 H 733.28 -4.23034 1.82698 0
M  V30 7414 H 731.595 -3.88269 1.50452 0
M  V30 7415 H 734.192 -5.26963 -0.906306 0
M  V30 7416 H 734.535 -3.77824 -1.74799 0
M  V30 7417 H 735.068 -3.97753 -0.0609416 0
M  V30 7418 H 731.807 -6.28933 1.84726 0
M  V30 7419 H 731.327 -5.99587 0.160006 0
M  V30 7420 H 733.006 -6.44682 0.547223 0
M  V30 7421 N 733.138 -0.185124 -1.56509 0
M  V30 7422 C 734.366 0.462139 -2.01673 0
M  V30 7423 C 734.781 1.55873 -1.06532 0
M  V30 7424 O 734.138 1.82371 -0.0684805 0
M  V30 7425 C 734.189 1.0277 -3.46584 0
M  V30 7426 O 733.91 -0.0251296 -4.38093 0
M  V30 7427 C 735.411 1.75183 -4.07217 0
M  V30 7428 H 732.631 0.117001 -0.660721 0
M  V30 7429 H 735.175 -0.290905 -2.0242 0
M  V30 7430 H 733.33 1.73118 -3.46568 0
M  V30 7431 H 733.744 0.394387 -5.23015 0
M  V30 7432 H 735.218 2.09999 -5.10494 0
M  V30 7433 H 735.695 2.6519 -3.50101 0
M  V30 7434 H 736.301 1.09445 -4.10977 0
M  V30 7435 N 734.616 1.57351 0.0885366 0
M  V30 7436 C 735.579 2.01557 1.09121 0
M  V30 7437 C 736.579 0.910052 1.3257 0
M  V30 7438 O 737.769 1.17537 1.28572 0
M  V30 7439 C 734.901 2.38189 2.43883 0
M  V30 7440 H 736.094 2.91361 0.710562 0
M  V30 7441 H 733.647 1.52694 0.333779 0
M  V30 7442 H 734.382 1.5136 2.86811 0
M  V30 7443 H 734.167 3.18846 2.28209 0
M  V30 7444 H 735.657 2.73025 3.15986 0
M  V30 7445 N 736.094 -0.359525 1.53444 0
M  V30 7446 C 737.342 -1.09935 1.69584 0
M  V30 7447 C 737.663 -1.89656 0.453371 0
M  V30 7448 O 736.933 -1.8852 -0.53263 0
M  V30 7449 H 735.513 -0.408843 0.625185 0
M  V30 7450 H 738.175 -0.40467 1.90653 0
M  V30 7451 H 737.271 -1.78575 2.55964 0
M  V30 7452 N 737.572 -1.44907 -0.619662 0
M  V30 7453 C 738.821 -1.47569 -1.37501 0
M  V30 7454 C 739.134 -0.116707 -1.95252 0
M  V30 7455 O 740.34 -0.020909 -2.71492 0
M  V30 7456 C 738.796 -2.59851 -2.49009 0
M  V30 7457 C 738.404 -4.02008 -1.97722 0
M  V30 7458 C 740.148 -2.71746 -3.2612 0
M  V30 7459 C 738.055 -5.05693 -3.0664 0
M  V30 7460 H 736.985 -0.549068 -0.51676 0
M  V30 7461 H 739.636 -1.71009 -0.665437 0
M  V30 7462 H 738.018 -2.29671 -3.22594 0
M  V30 7463 H 739.192 -4.41809 -1.30925 0
M  V30 7464 H 737.507 -3.94456 -1.33392 0
M  V30 7465 H 740.104 -3.46382 -4.07337 0
M  V30 7466 H 740.447 -1.77959 -3.76346 0
M  V30 7467 H 740.98 -3.01392 -2.5963 0
M  V30 7468 H 737.719 -6.01148 -2.61345 0
M  V30 7469 H 737.239 -4.70473 -3.72042 0
M  V30 7470 H 738.918 -5.29906 -3.71226 0
M  V30 7471 N 739.05 0.861098 -1.31996 0
M  V30 7472 C 740.297 1.61481 -1.22188 0
M  V30 7473 C 740.625 1.93276 0.217853 0
M  V30 7474 O 739.88 1.56942 1.16909 0
M  V30 7475 C 740.179 2.94822 -2.02027 0
M  V30 7476 C 739.845 2.82483 -3.51446 0
M  V30 7477 C 738.507 2.78825 -3.92186 0
M  V30 7478 C 740.859 2.68878 -4.46491 0
M  V30 7479 C 738.187 2.59433 -5.26224 0
M  V30 7480 C 740.539 2.51022 -5.80664 0
M  V30 7481 C 739.203 2.45753 -6.20614 0
M  V30 7482 H 738.473 0.590902 -0.447119 0
M  V30 7483 H 741.12 0.999376 -1.63355 0
M  V30 7484 H 739.425 3.6045 -1.53569 0
M  V30 7485 H 741.122 3.52149 -1.91812 0
M  V30 7486 H 737.712 2.86152 -3.19085 0
M  V30 7487 H 741.896 2.70754 -4.1594 0
M  V30 7488 H 737.152 2.53784 -5.5624 0
M  V30 7489 H 741.326 2.39473 -6.53931 0
M  V30 7490 H 738.953 2.30485 -7.24417 0
M  V30 7491 N 740.528 1.15101 1.07655 0
M  V30 7492 C 741.753 0.948177 1.84457 0
M  V30 7493 C 742.178 -0.498432 1.81376 0
M  V30 7494 O 741.536 -1.35509 1.20445 0
M  V30 7495 C 741.584 1.46318 3.29581 0
M  V30 7496 O 740.688 0.660342 4.07079 0
M  V30 7497 H 740.029 0.338428 0.571281 0
M  V30 7498 H 742.559 1.5301 1.35828 0
M  V30 7499 H 742.569 1.47468 3.80417 0
M  V30 7500 H 741.244 2.51635 3.31138 0
M  V30 7501 H 739.821 0.718216 3.65918 0
M  V30 7502 N 742.006 -1.2595 0.947325 0
M  V30 7503 C 742.969 -2.24407 0.466285 0
M  V30 7504 C 743.969 -1.55054 -0.426005 0
M  V30 7505 O 745.159 -1.7275 -0.224319 0
M  V30 7506 C 742.291 -3.39326 -0.327201 0
M  V30 7507 H 743.484 -2.68477 1.33642 0
M  V30 7508 H 741.037 -1.38211 0.729887 0
M  V30 7509 H 741.772 -3.00667 -1.21532 0
M  V30 7510 H 741.557 -3.9085 0.312839 0
M  V30 7511 H 743.047 -4.12455 -0.653477 0
M  V30 7512 N 743.484 -0.715051 -1.40445 0
M  V30 7513 C 744.712 -0.263959 -2.05209 0
M  V30 7514 C 745.127 1.09403 -1.53871 0
M  V30 7515 O 744.484 1.68746 -0.695064 0
M  V30 7516 C 744.535 -0.234545 -3.60738 0
M  V30 7517 O 744.256 -1.53891 -4.10182 0
M  V30 7518 C 745.757 0.235164 -4.42676 0
M  V30 7519 H 742.977 -0.11876 -0.660407 0
M  V30 7520 H 745.521 -0.973107 -1.79864 0
M  V30 7521 H 743.676 0.425563 -3.85055 0
M  V30 7522 H 744.09 -1.43903 -5.04373 0
M  V30 7523 H 745.564 0.204598 -5.51621 0
M  V30 7524 H 746.041 1.27724 -4.20218 0
M  V30 7525 H 746.647 -0.394649 -4.23465 0
M  V30 7526 N 744.962 1.50701 -0.461195 0
M  V30 7527 C 745.892 2.31182 0.328184 0
M  V30 7528 C 746.873 1.37644 0.999408 0
M  V30 7529 O 748.058 1.66565 0.99848 0
M  V30 7530 C 745.188 3.17113 1.41621 0
M  V30 7531 C 744.142 4.19124 0.867148 0
M  V30 7532 C 743.468 4.93728 2.05272 0
M  V30 7533 C 744.768 5.22174 -0.114808 0
M  V30 7534 H 746.462 2.97423 -0.343501 0
M  V30 7535 H 744.008 1.43033 -0.166641 0
M  V30 7536 H 745.961 3.72208 1.97584 0
M  V30 7537 H 744.685 2.48739 2.11652 0
M  V30 7538 H 743.344 3.65116 0.329557 0
M  V30 7539 H 742.992 4.21835 2.73978 0
M  V30 7540 H 742.692 5.62724 1.69161 0
M  V30 7541 H 744.216 5.51654 2.61744 0
M  V30 7542 H 745.63 5.72198 0.355316 0
M  V30 7543 H 744.027 5.98833 -0.389689 0
M  V30 7544 H 745.097 4.7353 -1.04391 0
M  V30 7545 N 746.441 0.193421 1.56409 0
M  V30 7546 C 747.666 -0.454552 2.02358 0
M  V30 7547 C 748.091 -1.54516 1.07268 0
M  V30 7548 O 747.449 -1.81214 0.0558962 0
M  V30 7549 C 747.497 -0.989469 3.46759 0
M  V30 7550 O 746.601 -2.10244 3.54783 0
M  V30 7551 H 745.942 -0.106417 0.655417 0
M  V30 7552 H 748.472 0.303807 2.02332 0
M  V30 7553 H 748.482 -1.30649 3.86516 0
M  V30 7554 H 747.157 -0.191083 4.15461 0
M  V30 7555 H 745.734 -1.79419 3.26899 0
M  V30 7556 N 747.919 -1.57396 -0.0801906 0
M  V30 7557 C 749.144 -1.91437 -0.797909 0
M  V30 7558 C 749.569 -0.789075 -1.70749 0
M  V30 7559 O 748.927 0.25857 -1.79447 0
M  V30 7560 C 748.975 -3.24402 -1.57467 0
M  V30 7561 O 748.079 -3.13043 -2.68473 0
M  V30 7562 H 747.42 -0.627109 -0.218243 0
M  V30 7563 H 749.95 -2.04537 -0.050949 0
M  V30 7564 H 749.96 -3.58072 -1.95571 0
M  V30 7565 H 748.635 -4.05884 -0.907229 0
M  V30 7566 H 747.212 -2.90915 -2.33287 0
M  V30 7567 N 749.397 0.351382 -1.53633 0
M  V30 7568 C 750.36 1.41403 -1.80383 0
M  V30 7569 C 751.36 1.45963 -0.674635 0
M  V30 7570 O 752.55 1.46476 -0.942895 0
M  V30 7571 C 749.682 2.80401 -1.93876 0
M  V30 7572 H 750.875 1.18951 -2.75301 0
M  V30 7573 H 748.428 0.58533 -1.44926 0
M  V30 7574 H 749.163 3.08147 -1.01074 0
M  V30 7575 H 748.948 2.78488 -2.7602 0
M  V30 7576 H 750.438 3.57329 -2.16116 0
M  V30 7577 N 750.875 1.45233 0.611969 0
M  V30 7578 C 751.805 1.5641 1.73373 0
M  V30 7579 C 752.786 0.415896 1.64937 0
M  V30 7580 O 753.971 0.638478 1.83404 0
M  V30 7581 C 751.101 1.52627 3.11965 0
M  V30 7582 C 750.055 2.66119 3.35208 0
M  V30 7583 C 749.381 2.4739 4.74028 0
M  V30 7584 C 750.681 4.08157 3.25891 0
M  V30 7585 H 752.375 2.50307 1.64277 0
M  V30 7586 H 749.921 1.20467 0.788904 0
M  V30 7587 H 751.874 1.59043 3.90235 0
M  V30 7588 H 750.598 0.552564 3.21892 0
M  V30 7589 H 749.257 2.59123 2.59327 0
M  V30 7590 H 748.905 1.48168 4.80682 0
M  V30 7591 H 748.605 3.23494 4.90536 0
M  V30 7592 H 750.129 2.55653 5.54503 0
M  V30 7593 H 751.543 4.1642 3.9404 0
M  V30 7594 H 749.94 4.84617 3.5393 0
M  V30 7595 H 751.01 4.30374 2.23397 0
M  V30 7596 N 752.353 -0.854086 1.3245 0
M  V30 7597 C 753.316 -1.94427 1.21371 0
M  V30 7598 C 754.316 -1.60219 0.136613 0
M  V30 7599 O 755.506 -1.69846 0.387057 0
M  V30 7600 C 752.638 -3.29698 0.866701 0
M  V30 7601 H 753.831 -2.05679 2.18257 0
M  V30 7602 H 751.384 -1.04434 1.1629 0
M  V30 7603 H 752.119 -3.24145 -0.100319 0
M  V30 7604 H 751.904 -3.55903 1.64545 0
M  V30 7605 H 753.394 -4.09599 0.813515 0
M  V30 7606 N 753.831 -1.1567 -1.07043 0
M  V30 7607 C 755.056 -0.957946 -1.83952 0
M  V30 7608 C 755.481 0.488807 -1.81638 0
M  V30 7609 O 754.839 1.34869 -1.21162 0
M  V30 7610 C 754.887 -1.48064 -3.288 0
M  V30 7611 O 753.991 -0.681921 -4.06723 0
M  V30 7612 H 753.332 -0.341453 -0.569479 0
M  V30 7613 H 755.862 -1.53728 -1.35015 0
M  V30 7614 H 755.872 -1.49484 -3.7963 0
M  V30 7615 H 754.547 -2.53388 -3.29799 0
M  V30 7616 H 753.124 -0.737612 -3.65532 0
M  V30 7617 N 755.309 1.25446 -0.953992 0
M  V30 7618 C 756.239 2.28264 -0.491717 0
M  V30 7619 C 757.22 1.63717 0.461617 0
M  V30 7620 O 758.405 1.90821 0.36071 0
M  V30 7621 C 755.535 3.46525 0.231915 0
M  V30 7622 C 754.489 4.23247 -0.636098 0
M  V30 7623 C 753.815 5.34254 0.218238 0
M  V30 7624 C 755.115 4.85971 -1.91389 0
M  V30 7625 H 756.809 2.67183 -1.35106 0
M  V30 7626 H 754.355 1.2844 -0.651095 0
M  V30 7627 H 756.308 4.17576 0.566439 0
M  V30 7628 H 755.032 3.06594 1.12551 0
M  V30 7629 H 753.691 3.53978 -0.953696 0
M  V30 7630 H 753.339 4.90564 1.11156 0
M  V30 7631 H 753.039 5.86501 -0.359232 0
M  V30 7632 H 754.563 6.08138 0.547743 0
M  V30 7633 H 755.977 5.49168 -1.64581 0
M  V30 7634 H 754.374 5.48391 -2.43696 0
M  V30 7635 H 755.444 4.08192 -2.61738 0
M  V30 7636 N 756.787 0.722489 1.40064 0
M  V30 7637 C 758.033 0.265371 2.01056 0
M  V30 7638 C 758.366 -1.14062 1.57174 0
M  V30 7639 O 757.641 -1.77514 0.794916 0
M  V30 7640 C 757.924 0.353157 3.58364 0
M  V30 7641 C 757.777 1.79802 4.123 0
M  V30 7642 C 759.096 -0.271677 4.39261 0
M  V30 7643 H 756.215 0.0979002 0.730469 0
M  V30 7644 H 758.857 0.916289 1.66446 0
M  V30 7645 H 757.007 -0.201037 3.87979 0
M  V30 7646 H 758.679 2.40813 3.93455 0
M  V30 7647 H 756.922 2.32348 3.66329 0
M  V30 7648 H 757.593 1.81079 5.21454 0
M  V30 7649 H 760.069 0.200607 4.15616 0
M  V30 7650 H 758.945 -0.179843 5.48605 0
M  V30 7651 H 759.206 -1.35611 4.20787 0
M  V30 7652 N 758.265 -1.50454 0.469181 0
M  V30 7653 C 759.49 -2.0722 -0.0864892 0
M  V30 7654 C 759.915 -1.33098 -1.32916 0
M  V30 7655 O 759.273 -0.378084 -1.77314 0
M  V30 7656 C 759.321 -3.58845 -0.355384 0
M  V30 7657 O 758.425 -3.86583 -1.43622 0
M  V30 7658 H 757.766 -0.663889 0.0121414 0
M  V30 7659 H 760.296 -1.93674 0.659674 0
M  V30 7660 H 760.306 -4.03617 -0.596447 0
M  V30 7661 H 758.981 -4.12211 0.552698 0
M  V30 7662 H 757.558 -3.5365 -1.18262 0
M  V30 7663 N 759.743 -0.201713 -1.56304 0
M  V30 7664 C 760.706 0.702811 -2.18159 0
M  V30 7665 C 761.706 1.13619 -1.13787 0
M  V30 7666 O 762.896 1.0482 -1.39134 0
M  V30 7667 C 760.028 1.96032 -2.78898 0
M  V30 7668 H 761.221 0.163836 -2.99452 0
M  V30 7669 H 758.774 0.04791 -1.56227 0
M  V30 7670 H 759.509 2.54165 -2.01421 0
M  V30 7671 H 759.294 1.65824 -3.55309 0
M  V30 7672 H 760.784 2.60519 -3.26373 0
M  V30 7673 N 761.222 1.57436 0.0718424 0
M  V30 7674 C 762.633 1.75975 0.623678 0
M  V30 7675 C 762.984 0.827155 1.77912 0
M  V30 7676 O 762.109 0.0112425 2.16397 0
M  V30 7677 C 762.704 3.1911 1.13816 0
M  V30 7678 C 761.263 3.38994 1.63586 0
M  V30 7679 C 760.41 2.71684 0.555261 0
M  V30 7680 H 763.361 1.57948 -0.154328 0
M  V30 7681 H 763.382 3.23267 2.00696 0
M  V30 7682 H 762.894 3.86962 0.296998 0
M  V30 7683 H 760.995 2.76256 2.50027 0
M  V30 7684 H 761.108 4.47436 1.71283 0
M  V30 7685 H 759.472 2.34236 1.00029 0
M  V30 7686 H 760.255 3.42191 -0.275712 0
M  V30 7687 N 762.7 -0.34323 1.53817 0
M  V30 7688 C 763.647 -1.42153 1.81827 0
M  V30 7689 C 764.617 -1.52251 0.663996 0
M  V30 7690 O 765.802 -1.67784 0.908461 0
M  V30 7691 C 762.942 -2.78799 2.03384 0
M  V30 7692 C 762.055 -2.7749 3.31094 0
M  V30 7693 C 761.19 -4.05856 3.42717 0
M  V30 7694 C 760.229 -3.98776 4.64375 0
M  V30 7695 N 759.366 -5.18833 4.73029 0
M  V30 7696 H 764.206 -1.17567 2.73829 0
M  V30 7697 H 761.743 -0.569506 1.35628 0
M  V30 7698 H 763.701 -3.58211 2.13872 0
M  V30 7699 H 762.331 -3.01736 1.14696 0
M  V30 7700 H 761.383 -1.90182 3.29446 0
M  V30 7701 H 762.695 -2.68137 4.206 0
M  V30 7702 H 761.849 -4.93691 3.52638 0
M  V30 7703 H 760.588 -4.1799 2.51267 0
M  V30 7704 H 759.593 -3.09325 4.5453 0
M  V30 7705 H 760.818 -3.88224 5.57189 0
M  V30 7706 H 758.764 -5.31511 3.84489 0
M  V30 7707 H 758.681 -5.11737 5.56472 0
M  V30 7708 H 759.949 -6.08439 4.87261 0
M  V30 7709 N 764.178 -1.45556 -0.604258 0
M  V30 7710 C 765.424 -1.49968 -1.36519 0
M  V30 7711 C 765.757 -0.142236 -1.93678 0
M  V30 7712 O 765.032 0.843717 -1.75247 0
M  V30 7713 C 765.315 -2.58146 -2.51063 0
M  V30 7714 C 765.168 -4.03346 -1.99078 0
M  V30 7715 C 766.487 -2.62581 -3.53184 0
M  V30 7716 H 763.606 -0.545993 -0.495036 0
M  V30 7717 H 766.248 -1.77382 -0.680845 0
M  V30 7718 H 764.398 -2.34901 -3.09441 0
M  V30 7719 H 766.07 -4.37811 -1.45323 0
M  V30 7720 H 764.313 -4.13845 -1.30055 0
M  V30 7721 H 764.984 -4.74731 -2.81664 0
M  V30 7722 H 767.46 -2.83419 -3.04652 0
M  V30 7723 H 766.336 -3.40131 -4.30816 0
M  V30 7724 H 766.597 -1.67798 -4.09019 0
M  V30 7725 N 765.656 0.84705 -1.32902 0
M  V30 7726 C 766.903 1.60176 -1.23894 0
M  V30 7727 C 767.231 1.93496 0.197341 0
M  V30 7728 O 766.486 1.58173 1.15238 0
M  V30 7729 C 766.785 2.92663 -2.05142 0
M  V30 7730 C 766.451 2.7874 -3.54422 0
M  V30 7731 C 765.113 2.7465 -3.95121 0
M  V30 7732 C 767.465 2.64128 -4.49317 0
M  V30 7733 C 764.793 2.53837 -5.28946 0
M  V30 7734 C 767.145 2.44849 -5.83294 0
M  V30 7735 C 765.809 2.39156 -6.23186 0
M  V30 7736 H 765.079 0.586127 -0.453361 0
M  V30 7737 H 767.726 0.981994 -1.64405 0
M  V30 7738 H 766.031 3.588 -1.57383 0
M  V30 7739 H 767.728 3.50095 -1.95537 0
M  V30 7740 H 764.318 2.82751 -3.22102 0
M  V30 7741 H 768.502 2.66327 -4.18788 0
M  V30 7742 H 763.758 2.4787 -5.58901 0
M  V30 7743 H 767.932 2.32524 -6.56434 0
M  V30 7744 H 765.559 2.22789 -7.26821 0
M  V30 7745 N 767.134 1.16236 1.06428 0
M  V30 7746 C 768.066 0.825446 2.1382 0
M  V30 7747 C 769.079 -0.166707 1.61944 0
M  V30 7748 O 770.268 0.0578606 1.78406 0
M  V30 7749 C 767.368 0.208023 3.38261 0
M  V30 7750 C 766.541 1.23994 4.19457 0
M  V30 7751 C 765.6 0.642569 5.22262 0
M  V30 7752 O 764.626 1.31106 5.53895 0
M  V30 7753 N 765.828 -0.571327 5.77682 0
M  V30 7754 H 768.593 1.7497 2.43322 0
M  V30 7755 H 766.154 1.05951 1.22417 0
M  V30 7756 H 768.146 -0.204608 4.04182 0
M  V30 7757 H 766.716 -0.619752 3.06395 0
M  V30 7758 H 765.936 1.82879 3.49212 0
M  V30 7759 H 767.224 1.93638 4.70512 0
M  V30 7760 H 766.622 -1.13263 5.54245 0
M  V30 7761 H 765.179 -0.926187 6.45186 0
M  V30 7762 N 768.612 -1.24939 0.960631 0
M  V30 7763 C 769.575 -2.239 0.49006 0
M  V30 7764 C 770.575 -1.55497 -0.409535 0
M  V30 7765 O 771.765 -1.72978 -0.205984 0
M  V30 7766 C 768.897 -3.39654 -0.291193 0
M  V30 7767 H 770.09 -2.67044 1.36482 0
M  V30 7768 H 767.643 -1.37429 0.744505 0
M  V30 7769 H 768.378 -3.01939 -1.18336 0
M  V30 7770 H 768.163 -3.90496 0.354276 0
M  V30 7771 H 769.653 -4.13125 -0.609693 0
M  V30 7772 N 770.09 -0.729906 -1.39679 0
M  V30 7773 C 771.02 -0.101618 -2.33279 0
M  V30 7774 C 772.001 0.729854 -1.53646 0
M  V30 7775 O 773.186 0.67587 -1.82059 0
M  V30 7776 C 770.316 0.81024 -3.37716 0
M  V30 7777 C 769.27 0.0833126 -4.27919 0
M  V30 7778 C 768.596 1.11185 -5.23012 0
M  V30 7779 C 769.896 -1.07107 -5.112 0
M  V30 7780 H 771.59 -0.883452 -2.86069 0
M  V30 7781 H 769.136 -0.426283 -1.37546 0
M  V30 7782 H 771.089 1.25927 -4.02145 0
M  V30 7783 H 769.813 1.62413 -2.83354 0
M  V30 7784 H 768.472 -0.346043 -3.64963 0
M  V30 7785 H 768.12 1.91917 -4.64948 0
M  V30 7786 H 767.82 0.63026 -5.8421 0
M  V30 7787 H 769.344 1.56068 -5.90318 0
M  V30 7788 H 770.758 -0.700726 -5.69002 0
M  V30 7789 H 769.155 -1.48196 -5.81514 0
M  V30 7790 H 770.225 -1.89513 -4.46332 0
M  V30 7791 N 771.568 1.50203 -0.477153 0
M  V30 7792 C 772.808 2.04265 0.0744065 0
M  V30 7793 C 773.172 1.35082 1.36443 0
M  V30 7794 O 774.373 1.79732 1.99875 0
M  V30 7795 C 772.644 3.56539 0.247874 0
M  V30 7796 S 774.203 4.32219 0.757117 0
M  V30 7797 H 771.021 0.71088 0.0130891 0
M  V30 7798 H 773.623 1.8453 -0.645678 0
M  V30 7799 H 772.327 4.04443 -0.696709 0
M  V30 7800 H 771.858 3.80638 0.993896 0
M  V30 7801 H 773.873 4.52789 2.0297 0
M  V30 7802 N 773.046 0.209999 1.56195 0
M  V30 7803 C 773.993 -0.704854 2.19774 0
M  V30 7804 C 774.963 -1.19886 1.14964 0
M  V30 7805 O 776.148 -1.26005 1.43274 0
M  V30 7806 C 773.288 -1.91241 2.87265 0
M  V30 7807 C 772.401 -1.45838 4.06639 0
M  V30 7808 C 771.536 -2.6226 4.61945 0
M  V30 7809 C 770.575 -2.13537 5.73645 0
M  V30 7810 N 769.712 -3.2319 6.23292 0
M  V30 7811 H 774.552 -0.155944 2.97592 0
M  V30 7812 H 772.089 -0.0652235 1.46955 0
M  V30 7813 H 774.047 -2.62123 3.24573 0
M  V30 7814 H 772.677 -2.43439 2.11985 0
M  V30 7815 H 771.729 -0.644897 3.74894 0
M  V30 7816 H 773.041 -1.06103 4.87384 0
M  V30 7817 H 772.195 -3.41243 5.01636 0
M  V30 7818 H 770.934 -3.05278 3.80338 0
M  V30 7819 H 769.939 -1.33013 5.33468 0
M  V30 7820 H 771.164 -1.71533 6.57079 0
M  V30 7821 H 769.11 -3.65711 5.44602 0
M  V30 7822 H 769.027 -2.8767 6.99129 0
M  V30 7823 H 770.295 -4.02342 6.67639 0
M  V30 7824 N 774.524 -1.57472 -0.0634922 0
M  V30 7825 C 775.801 -1.78736 -0.794538 0
M  V30 7826 C 776.181 -0.799645 -1.95369 0
M  V30 7827 O 775.529 0.165521 -2.279 0
M  V30 7828 C 775.739 -3.25471 -1.25975 0
M  V30 7829 C 777.087 -3.89528 -1.68976 0
M  V30 7830 O 778.111 -3.29412 -1.35521 0
M  V30 7831 O 776.97 -4.95305 -2.30944 0
M  V30 7832 H 774.064 -0.733813 -0.381376 0
M  V30 7833 H 776.61 -1.69646 -0.0429258 0
M  V30 7834 H 775.382 -3.88922 -0.430721 0
M  V30 7835 H 775.005 -3.39317 -2.07243 0
M  V30 7836 N 776.003 0.335068 -1.53997 0
M  V30 7837 C 776.951 1.43206 -1.83289 0
M  V30 7838 C 777.945 1.54081 -0.703953 0
M  V30 7839 O 779.151 1.56603 -0.887432 0
M  V30 7840 H 775.526 0.477655 -0.580818 0
M  V30 7841 H 777.497 1.15719 -2.75049 0
M  V30 7842 C 776.246 2.79602 -2.06683 0
M  V30 7843 H 775.569 2.72004 -2.93008 0
M  V30 7844 H 777.009 3.55459 -2.31139 0
M  V30 7845 C 775.468 3.25873 -0.854883 0
M  V30 7846 O 775.998 4.01657 -0.0584648 0
M  V30 7847 N 774.204 2.82777 -0.669729 0
M  V30 7848 H 773.751 2.21269 -1.31901 0
M  V30 7849 H 773.709 3.1409 0.13969 0
M  V30 7850 N 777.481 1.45874 0.596531 0
M  V30 7851 C 778.73 1.49737 1.35135 0
M  V30 7852 C 779.043 0.147755 1.95041 0
M  V30 7853 O 780.249 0.0640984 2.71424 0
M  V30 7854 C 778.705 2.6378 2.44843 0
M  V30 7855 C 778.313 4.05102 1.91301 0
M  V30 7856 C 780.057 2.769 3.21755 0
M  V30 7857 C 777.964 5.10508 2.98557 0
M  V30 7858 H 776.894 0.557219 0.507959 0
M  V30 7859 H 779.545 1.72046 0.638147 0
M  V30 7860 H 777.927 2.34774 3.189 0
M  V30 7861 H 779.101 4.43836 1.2388 0
M  V30 7862 H 777.416 3.96528 1.271 0
M  V30 7863 H 780.013 3.52819 4.01775 0
M  V30 7864 H 780.356 1.83924 3.73467 0
M  V30 7865 H 780.889 3.05485 2.54802 0
M  V30 7866 H 777.628 6.0523 2.51749 0
M  V30 7867 H 777.148 4.76332 3.6451 0
M  V30 7868 H 778.827 5.35745 3.62748 0
M  V30 7869 N 778.959 -0.83999 1.33349 0
M  V30 7870 C 780.189 -1.62492 1.27593 0
M  V30 7871 C 780.597 -1.88559 -0.155597 0
M  V30 7872 O 779.94 -1.46537 -1.10782 0
M  V30 7873 C 780.002 -2.99984 1.98116 0
M  V30 7874 C 779.666 -2.96892 3.47425 0
M  V30 7875 C 780.663 -2.72688 4.42648 0
M  V30 7876 C 778.348 -3.17063 3.89585 0
M  V30 7877 C 780.342 -2.68681 5.78004 0
M  V30 7878 C 778.029 -3.12682 5.25046 0
M  V30 7879 C 779.027 -2.88522 6.19067 0
M  V30 7880 O 778.715 -2.84042 7.52047 0
M  V30 7881 H 778.447 -0.512358 0.440982 0
M  V30 7882 H 781.001 -1.0545 1.76265 0
M  V30 7883 H 779.231 -3.58875 1.44034 0
M  V30 7884 H 780.92 -3.6084 1.85875 0
M  V30 7885 H 781.686 -2.56856 4.114 0
M  V30 7886 H 777.565 -3.34889 3.16813 0
M  V30 7887 H 781.109 -2.49743 6.51363 0
M  V30 7888 H 777.006 -3.28063 5.55918 0
M  V30 7889 H 777.774 -2.99892 7.61582 0
M  V30 7890 N 780.437 -1.16799 -1.0581 0
M  V30 7891 C 781.384 -0.87902 -2.13405 0
M  V30 7892 C 782.354 0.174541 -1.6518 0
M  V30 7893 O 783.539 0.0386843 -1.90761 0
M  V30 7894 C 780.679 -0.391616 -3.42871 0
M  V30 7895 C 779.792 -1.50857 -4.04804 0
M  V30 7896 C 778.927 -0.975682 -5.22163 0
M  V30 7897 C 777.966 -2.06851 -5.76089 0
M  V30 7898 N 777.103 -1.55085 -6.84758 0
M  V30 7899 H 781.943 -1.80043 -2.37463 0
M  V30 7900 H 779.48 -0.898083 -1.16503 0
M  V30 7901 H 781.438 -0.0906247 -4.17102 0
M  V30 7902 H 780.068 0.49284 -3.19016 0
M  V30 7903 H 779.12 -1.92542 -3.28073 0
M  V30 7904 H 780.432 -2.33305 -4.40874 0
M  V30 7905 H 779.586 -0.628165 -6.03439 0
M  V30 7906 H 778.325 -0.120566 -4.87551 0
M  V30 7907 H 777.33 -2.42467 -4.93447 0
M  V30 7908 H 778.555 -2.92768 -6.12751 0
M  V30 7909 H 776.501 -0.718345 -6.52055 0
M  V30 7910 H 776.418 -2.31145 -7.19797 0
M  V30 7911 H 777.686 -1.23206 -7.69702 0
M  V30 7912 N 781.915 1.24427 -0.967243 0
M  V30 7913 C 782.878 2.23637 -0.501927 0
M  V30 7914 C 783.878 1.55712 0.401283 0
M  V30 7915 O 785.068 1.73085 0.196808 0
M  V30 7916 C 782.2 3.39804 0.273176 0
M  V30 7917 H 783.393 2.66317 -1.37897 0
M  V30 7918 H 780.946 1.37033 -0.751783 0
M  V30 7919 H 781.681 3.02562 1.16733 0
M  V30 7920 H 781.466 3.90303 -0.37498 0
M  V30 7921 H 782.956 4.13443 0.587776 0
M  V30 7922 N 783.393 0.737304 1.3929 0
M  V30 7923 C 784.323 0.113988 2.33222 0
M  V30 7924 C 785.304 -0.721695 1.54031 0
M  V30 7925 O 786.489 -0.666206 1.82415 0
M  V30 7926 C 783.619 -0.792319 3.38141 0
M  V30 7927 C 782.573 -0.0606178 4.27957 0
M  V30 7928 C 781.899 -1.08409 5.23595 0
M  V30 7929 C 783.199 1.09817 5.10625 0
M  V30 7930 H 784.893 0.898611 2.85596 0
M  V30 7931 H 782.439 0.433571 1.37318 0
M  V30 7932 H 784.392 -1.23793 4.02807 0
M  V30 7933 H 783.116 -1.60908 2.84211 0
M  V30 7934 H 781.775 0.365393 3.64775 0
M  V30 7935 H 781.423 -1.89449 4.6596 0
M  V30 7936 H 781.123 -0.599269 5.84536 0
M  V30 7937 H 782.647 -1.52936 5.91137 0
M  V30 7938 H 784.061 0.730892 5.68622 0
M  V30 7939 H 782.458 1.51278 5.80719 0
M  V30 7940 H 783.528 1.91878 4.45321 0
M  V30 7941 N 784.871 -1.49948 0.485112 0
M  V30 7942 C 785.803 -2.26691 -0.338222 0
M  V30 7943 C 786.816 -1.32584 -0.944742 0
M  V30 7944 O 788.005 -1.57989 -0.830772 0
M  V30 7945 C 785.105 -3.04405 -1.48966 0
M  V30 7946 C 784.278 -4.25971 -0.993371 0
M  V30 7947 C 783.337 -4.85861 -2.02052 0
M  V30 7948 O 782.363 -5.46382 -1.59547 0
M  V30 7949 N 783.565 -4.74101 -3.34975 0
M  V30 7950 H 786.33 -2.97989 0.319748 0
M  V30 7951 H 783.891 -1.58772 0.316714 0
M  V30 7952 H 785.883 -3.41348 -2.17403 0
M  V30 7953 H 784.453 -2.35815 -2.05207 0
M  V30 7954 H 783.673 -3.93971 -0.134424 0
M  V30 7955 H 784.961 -5.0476 -0.639934 0
M  V30 7956 H 784.359 -4.26002 -3.72208 0
M  V30 7957 H 782.916 -5.15274 -3.9917 0
M  V30 7958 N 786.349 -0.21828 -1.56081 0
M  V30 7959 C 787.596 0.414307 -1.98216 0
M  V30 7960 C 787.924 1.60005 -1.10584 0
M  V30 7961 O 787.179 1.95124 -0.150043 0
M  V30 7962 C 787.478 0.894782 -3.46018 0
M  V30 7963 C 787.144 -0.180083 -4.5054 0
M  V30 7964 C 785.806 -0.475367 -4.78846 0
M  V30 7965 C 788.158 -0.907191 -5.13244 0
M  V30 7966 C 785.486 -1.50233 -5.67139 0
M  V30 7967 C 787.838 -1.92347 -6.02649 0
M  V30 7968 C 786.502 -2.22571 -6.293 0
M  V30 7969 H 785.772 0.151606 -0.725325 0
M  V30 7970 H 788.419 -0.320113 -1.88806 0
M  V30 7971 H 786.724 1.7079 -3.52616 0
M  V30 7972 H 788.421 1.39403 -3.75989 0
M  V30 7973 H 785.011 0.06022 -4.28558 0
M  V30 7974 H 789.195 -0.692303 -4.91448 0
M  V30 7975 H 784.451 -1.74215 -5.86054 0
M  V30 7976 H 788.625 -2.49197 -6.50288 0
M  V30 7977 H 786.252 -3.0229 -6.97513 0
M  V30 7978 N 787.827 1.57504 0.0551401 0
M  V30 7979 C 789.074 1.88055 0.751104 0
M  V30 7980 C 789.402 0.812231 1.76729 0
M  V30 7981 O 788.657 -0.189918 1.94776 0
M  V30 7982 C 788.956 3.25311 1.48013 0
M  V30 7983 C 788.622 4.46858 0.602375 0
M  V30 7984 C 787.284 4.79847 0.360536 0
M  V30 7985 C 789.636 5.212 -0.00524047 0
M  V30 7986 C 786.964 5.84582 -0.498127 0
M  V30 7987 C 789.316 6.26844 -0.851453 0
M  V30 7988 C 787.98 6.58324 -1.103 0
M  V30 7989 H 787.25 0.688142 0.274848 0
M  V30 7990 H 789.897 1.91497 0.0114795 0
M  V30 7991 H 788.202 3.17737 2.29239 0
M  V30 7992 H 789.899 3.46189 2.02371 0
M  V30 7993 H 786.489 4.21049 0.801007 0
M  V30 7994 H 790.673 4.96013 0.168682 0
M  V30 7995 H 785.929 6.07361 -0.701594 0
M  V30 7996 H 790.103 6.83603 -1.32893 0
M  V30 7997 H 787.73 7.39304 -1.77011 0
M  V30 7998 N 789.305 -0.326896 1.54172 0
M  V30 7999 C 790.268 -1.38515 1.8261 0
M  V30 8000 C 791.268 -1.44872 0.697771 0
M  V30 8001 O 792.458 -1.44957 0.966078 0
M  V30 8002 C 789.59 -2.77281 1.98313 0
M  V30 8003 H 790.783 -1.14556 2.77159 0
M  V30 8004 H 788.336 -0.562199 1.45839 0
M  V30 8005 H 789.071 -3.065 1.05964 0
M  V30 8006 H 788.856 -2.74061 2.80416 0
M  V30 8007 H 790.346 -3.53845 2.21773 0
M  V30 8008 N 790.784 -1.46188 -0.588786 0
M  V30 8009 C 791.731 -1.56292 -1.69828 0
M  V30 8010 C 792.701 -0.407581 -1.61022 0
M  V30 8011 O 793.886 -0.623532 -1.80324 0
M  V30 8012 C 791.026 -1.55341 -3.08161 0
M  V30 8013 C 790.139 -2.81564 -3.27636 0
M  V30 8014 C 789.274 -2.72158 -4.56183 0
M  V30 8015 C 788.313 -3.93348 -4.68981 0
M  V30 8016 N 787.45 -3.82365 -5.88848 0
M  V30 8017 H 792.29 -2.51066 -1.6053 0
M  V30 8018 H 789.827 -1.24562 -0.782474 0
M  V30 8019 H 791.785 -1.52776 -3.88221 0
M  V30 8020 H 790.415 -0.641034 -3.16371 0
M  V30 8021 H 789.467 -2.94136 -2.41223 0
M  V30 8022 H 790.779 -3.714 -3.32962 0
M  V30 8023 H 789.933 -2.67665 -5.44464 0
M  V30 8024 H 788.672 -1.79953 -4.53286 0
M  V30 8025 H 787.677 -3.98181 -3.7912 0
M  V30 8026 H 788.902 -4.86643 -4.73662 0
M  V30 8027 H 786.848 -2.92942 -5.86959 0
M  V30 8028 H 786.765 -4.65851 -5.95415 0
M  V30 8029 H 788.033 -3.81836 -6.79575 0
M  V30 8030 N 792.262 0.832906 -1.33792 0
M  V30 8031 C 793.51 1.58539 -1.25338 0
M  V30 8032 C 793.831 1.94175 0.179204 0
M  V30 8033 O 793.101 1.61458 1.10941 0
M  V30 8034 H 791.681 0.58784 -0.460926 0
M  V30 8035 H 794.343 0.995064 -1.67584 0
M  V30 8036 H 793.439 2.51268 -1.85123 0
M  V30 8037 N 793.74 1.17359 1.05189 0
M  V30 8038 C 794.97 0.985099 1.81602 0
M  V30 8039 C 795.378 -0.469872 1.83273 0
M  V30 8040 O 794.721 -1.33806 1.25864 0
M  V30 8041 C 794.783 1.44956 3.2898 0
M  V30 8042 C 794.447 2.92666 3.50993 0
M  V30 8043 C 795.444 3.906 3.43115 0
M  V30 8044 C 793.129 3.30841 3.77954 0
M  V30 8045 C 795.123 5.24709 3.61883 0
M  V30 8046 C 792.81 4.65116 3.96371 0
M  V30 8047 C 793.808 5.61859 3.88335 0
M  V30 8048 O 793.496 6.93704 4.06238 0
M  V30 8049 H 793.228 0.348731 0.579105 0
M  V30 8050 H 795.782 1.56066 1.33539 0
M  V30 8051 H 794.012 0.817559 3.77959 0
M  V30 8052 H 795.701 1.22674 3.86919 0
M  V30 8053 H 796.467 3.62453 3.22262 0
M  V30 8054 H 792.346 2.5611 3.83313 0
M  V30 8055 H 795.89 6.00205 3.55527 0
M  V30 8056 H 791.787 4.92969 4.16715 0
M  V30 8057 H 792.555 7.00443 4.23463 0
M  V30 8058 N 795.218 -1.23913 0.973828 0
M  V30 8059 C 796.466 -1.91771 0.637817 0
M  V30 8060 C 796.787 -1.76434 -0.830435 0
M  V30 8061 O 796.057 -1.13965 -1.59339 0
M  V30 8062 H 794.637 -0.709761 0.232912 0
M  V30 8063 H 797.299 -1.50677 1.23622 0
M  V30 8064 H 796.395 -2.99327 0.883731 0
M  V30 8065 N 796.696 -0.74468 -1.38897 0
M  V30 8066 C 797.643 -0.111064 -2.30533 0
M  V30 8067 C 798.613 0.719276 -1.49719 0
M  V30 8068 O 799.798 0.677244 -1.78376 0
M  V30 8069 C 796.938 0.78292 -3.36102 0
M  V30 8070 C 796.051 -0.0610817 -4.31957 0
M  V30 8071 C 795.186 0.835075 -5.24595 0
M  V30 8072 C 794.225 -0.0130974 -6.12099 0
M  V30 8073 N 793.362 0.839525 -6.97063 0
M  V30 8074 H 798.202 -0.898113 -2.84144 0
M  V30 8075 H 795.739 -0.454537 -1.39901 0
M  V30 8076 H 797.697 1.31578 -3.95908 0
M  V30 8077 H 796.327 1.53585 -2.83922 0
M  V30 8078 H 795.379 -0.711469 -3.73687 0
M  V30 8079 H 796.691 -0.716482 -4.93627 0
M  V30 8080 H 795.845 1.43542 -5.89475 0
M  V30 8081 H 794.584 1.52423 -4.63269 0
M  V30 8082 H 793.589 -0.626179 -5.46223 0
M  V30 8083 H 794.814 -0.699181 -6.75491 0
M  V30 8084 H 792.76 1.5138 -6.38295 0
M  V30 8085 H 792.677 0.240823 -7.55616 0
M  V30 8086 H 793.945 1.42513 -7.66362 0
M  V30 8087 N 798.174 1.49689 -0.493057 0
M  V30 8088 C 799.122 2.30613 0.303383 0
M  V30 8089 C 800.116 1.38867 0.970165 0
M  V30 8090 O 801.322 1.55956 0.898761 0
M  V30 8091 H 797.697 0.742891 0.116691 0
M  V30 8092 H 799.668 2.95717 -0.39924 0
M  V30 8093 C 798.417 3.20008 1.35978 0
M  V30 8094 H 797.74 3.90526 0.856103 0
M  V30 8095 H 799.18 3.79586 1.88919 0
M  V30 8096 C 797.639 2.39079 2.37367 0
M  V30 8097 O 798.169 2.08933 3.43089 0
M  V30 8098 N 796.375 2.0125 2.09635 0
M  V30 8099 H 795.922 2.25966 1.23682 0
M  V30 8100 H 795.88 1.47408 2.77702 0
M  V30 8101 N 799.652 0.226554 1.55963 0
M  V30 8102 C 800.6 -0.697922 2.21882 0
M  V30 8103 C 801.594 -1.19586 1.19981 0
M  V30 8104 O 802.8 -1.15511 1.38048 0
M  V30 8105 H 799.175 -0.243501 0.711485 0
M  V30 8106 H 801.146 -0.118576 2.98164 0
M  V30 8107 C 799.895 -1.89309 2.91646 0
M  V30 8108 H 799.218 -1.51906 3.69817 0
M  V30 8109 H 800.658 -2.51762 3.41162 0
M  V30 8110 C 799.117 -2.75162 1.94391 0
M  V30 8111 O 799.647 -3.74071 1.46402 0
M  V30 8112 N 797.853 -2.41302 1.61932 0
M  V30 8113 H 797.4 -1.60923 2.01151 0
M  V30 8114 H 797.358 -2.99023 0.971219 0
M  V30 8115 N 801.13 -1.57531 -0.0467866 0
M  V30 8116 C 802.04 -2.08768 -1.07018 0
M  V30 8117 C 803.056 -1.02245 -1.40791 0
M  V30 8118 O 804.232 -1.33873 -1.50466 0
M  V30 8119 C 801.297 -2.54221 -2.35738 0
M  V30 8120 C 800.358 -3.75152 -2.08709 0
M  V30 8121 C 799.591 -4.18428 -3.31291 0
M  V30 8122 O 799.814 -3.61365 -4.4133 0
M  V30 8123 O 798.748 -5.11018 -3.18032 0
M  V30 8124 H 802.574 -2.96334 -0.664812 0
M  V30 8125 H 800.159 -1.47074 -0.262605 0
M  V30 8126 H 802.041 -2.83866 -3.11445 0
M  V30 8127 H 800.716 -1.69774 -2.75605 0
M  V30 8128 H 799.623 -3.50553 -1.30627 0
M  V30 8129 H 800.956 -4.60528 -1.73708 0
M  V30 8130 N 802.608 0.318715 -1.54344 0
M  V30 8131 C 804.019 0.89285 -1.63967 0
M  V30 8132 C 804.37 1.88712 -0.536855 0
M  V30 8133 O 803.495 2.13877 0.329457 0
M  V30 8134 C 804.09 1.62618 -2.97222 0
M  V30 8135 C 802.649 2.14897 -3.09025 0
M  V30 8136 C 801.796 0.975909 -2.5956 0
M  V30 8137 H 804.747 0.0961687 -1.58408 0
M  V30 8138 H 804.768 2.4907 -2.87653 0
M  V30 8139 H 804.28 0.902286 -3.77466 0
M  V30 8140 H 802.381 2.90387 -2.33465 0
M  V30 8141 H 802.494 2.39565 -4.14904 0
M  V30 8142 H 800.858 1.35646 -2.15574 0
M  V30 8143 H 801.641 0.266253 -3.42266 0
M  V30 8144 N 804.086 1.46499 0.581025 0
M  V30 8145 C 805.016 1.60052 1.70017 0
M  V30 8146 C 805.997 0.450788 1.64018 0
M  V30 8147 O 807.182 0.677237 1.82009 0
M  V30 8148 C 804.312 1.5921 3.08658 0
M  V30 8149 C 803.266 2.73169 3.29488 0
M  V30 8150 C 802.592 2.57389 4.68674 0
M  V30 8151 C 803.892 4.14978 3.1716 0
M  V30 8152 H 805.586 2.53735 1.5893 0
M  V30 8153 H 803.132 1.22113 0.763173 0
M  V30 8154 H 805.085 1.67285 3.86773 0
M  V30 8155 H 803.809 0.620718 3.20647 0
M  V30 8156 H 802.468 2.64566 2.53773 0
M  V30 8157 H 802.116 1.58331 4.77431 0
M  V30 8158 H 801.816 3.33826 4.83564 0
M  V30 8159 H 803.34 2.67358 5.48956 0
M  V30 8160 H 804.754 4.24684 3.85119 0
M  V30 8161 H 803.151 4.92016 3.4357 0
M  V30 8162 H 804.221 4.35016 2.14218 0
M  V30 8163 N 805.565 -0.825799 1.34232 0
M  V30 8164 C 806.981 -1.11848 1.13851 0
M  V30 8165 C 807.181 -2.01405 -0.0619031 0
M  V30 8166 O 806.237 -2.41465 -0.738287 0
M  V30 8167 C 807.55 -1.76797 2.43235 0
M  V30 8168 C 809.098 -1.89304 2.49265 0
M  V30 8169 C 809.573 -2.57669 3.78643 0
M  V30 8170 N 811.064 -2.65171 3.79788 0
M  V30 8171 C 811.799 -3.1879 4.76614 0
M  V30 8172 N 811.295 -3.72995 5.83821 0
M  V30 8173 N 813.088 -3.17164 4.64073 0
M  V30 8174 H 805.239 -0.230049 2.11151 0
M  V30 8175 H 807.502 -0.164609 0.9336 0
M  V30 8176 H 807.208 -1.18455 3.31152 0
M  V30 8177 H 807.082 -2.76693 2.56361 0
M  V30 8178 H 809.469 -2.46796 1.6179 0
M  V30 8179 H 809.55 -0.883191 2.4007 0
M  V30 8180 H 809.194 -2.00833 4.66507 0
M  V30 8181 H 809.124 -3.59152 3.8512 0
M  V30 8182 H 811.615 -2.26746 3.02315 0
M  V30 8183 H 811.928 -4.12151 6.53721 0
M  V30 8184 H 810.273 -3.71246 5.87538 0
M  V30 8185 H 813.464 -2.74082 3.79469 0
M  V30 8186 H 813.637 -3.58647 5.397 0
M  V30 8187 N 807.043 -1.17915 -1.04565 0
M  V30 8188 C 808.291 -0.969505 -1.77327 0
M  V30 8189 C 808.612 0.502569 -1.88412 0
M  V30 8190 O 807.882 1.36467 -1.40547 0
M  V30 8191 H 806.462 -0.355723 -0.656864 0
M  V30 8192 H 809.124 -1.48506 -1.26223 0
M  V30 8193 H 808.22 -1.40324 -2.78775 0
M  V30 8194 N 808.521 1.23394 -0.980386 0
M  V30 8195 C 809.751 1.9556 -0.666319 0
M  V30 8196 C 810.159 1.72786 0.770815 0
M  V30 8197 O 809.502 1.0162 1.53033 0
M  V30 8198 C 809.564 3.48643 -0.876825 0
M  V30 8199 C 809.228 3.95135 -2.29602 0
M  V30 8200 C 810.225 4.03806 -3.2747 0
M  V30 8201 C 807.91 4.28122 -2.62711 0
M  V30 8202 C 809.904 4.44818 -4.56526 0
M  V30 8203 C 807.591 4.68814 -3.9199 0
M  V30 8204 C 808.589 4.77129 -4.88709 0
M  V30 8205 O 808.277 5.16908 -6.15679 0
M  V30 8206 H 808.009 0.629422 -0.246585 0
M  V30 8207 H 810.563 1.57839 -1.31438 0
M  V30 8208 H 808.793 3.86319 -0.171587 0
M  V30 8209 H 810.482 4.0202 -0.55992 0
M  V30 8210 H 811.248 3.78526 -3.03222 0
M  V30 8211 H 807.127 4.20861 -1.8814 0
M  V30 8212 H 810.671 4.51223 -5.32018 0
M  V30 8213 H 806.568 4.93545 -4.16033 0
M  V30 8214 H 807.336 5.3502 -6.19432 0
M  V30 8215 N 809.999 0.752036 1.385 0
M  V30 8216 C 811.248 0.304294 1.99391 0
M  V30 8217 C 811.561 -1.11982 1.60373 0
M  V30 8218 O 812.767 -1.66795 2.14223 0
M  V30 8219 C 811.223 0.493101 3.56506 0
M  V30 8220 C 810.831 1.9262 4.04477 0
M  V30 8221 C 812.575 0.107994 4.24363 0
M  V30 8222 C 810.482 2.06365 5.54227 0
M  V30 8223 H 809.412 0.110024 0.745929 0
M  V30 8224 H 812.063 0.928355 1.58284 0
M  V30 8225 H 810.445 -0.20012 3.95494 0
M  V30 8226 H 811.619 2.65276 3.76783 0
M  V30 8227 H 809.934 2.26608 3.49339 0
M  V30 8228 H 812.531 0.189474 5.34364 0
M  V30 8229 H 812.874 -0.939165 4.05568 0
M  V30 8230 H 813.407 0.753011 3.90608 0
M  V30 8231 H 810.146 3.0933 5.77923 0
M  V30 8232 H 809.666 1.38167 5.83669 0
M  V30 8233 H 811.345 1.85286 6.19902 0
M  V30 8234 N 811.477 -1.49425 0.500989 0
M  V30 8235 C 812.407 -2.31971 -0.266775 0
M  V30 8236 C 813.388 -1.40245 -0.962563 0
M  V30 8237 O 814.573 -1.69154 -0.953968 0
M  V30 8238 C 811.703 -3.20757 -1.33163 0
M  V30 8239 C 810.657 -4.21275 -0.75572 0
M  V30 8240 C 809.983 -4.98997 -1.92109 0
M  V30 8241 C 811.283 -5.21686 0.253213 0
M  V30 8242 H 812.977 -2.96408 0.422237 0
M  V30 8243 H 810.523 -1.4254 0.204505 0
M  V30 8244 H 812.476 -3.77315 -1.87646 0
M  V30 8245 H 811.2 -2.54263 -2.04983 0
M  V30 8246 H 809.859 -3.65861 -0.232637 0
M  V30 8247 H 809.507 -4.28951 -2.62698 0
M  V30 8248 H 809.207 -5.67011 -1.54182 0
M  V30 8249 H 810.731 -5.584 -2.47026 0
M  V30 8250 H 812.145 -5.72939 -0.203483 0
M  V30 8251 H 810.542 -5.9759 0.548322 0
M  V30 8252 H 811.612 -4.70596 1.16909 0
M  V30 8253 N 812.955 -0.234822 -1.55841 0
M  V30 8254 C 814.183 0.397745 -2.03041 0
M  V30 8255 C 814.598 1.52405 -1.11437 0
M  V30 8256 O 813.955 1.82061 -0.126466 0
M  V30 8257 C 814.006 0.916919 -3.49678 0
M  V30 8258 O 813.727 -0.164493 -4.37791 0
M  V30 8259 C 815.228 1.62139 -4.12584 0
M  V30 8260 H 812.448 0.0959214 -0.664108 0
M  V30 8261 H 814.992 -0.355156 -2.01392 0
M  V30 8262 H 813.147 1.62004 -3.519 0
M  V30 8263 H 813.561 0.227794 -5.24005 0
M  V30 8264 H 815.035 1.93651 -5.16917 0
M  V30 8265 H 815.512 2.53918 -3.58361 0
M  V30 8266 H 816.118 0.963145 -4.14251 0
M  V30 8267 N 814.433 1.57553 0.0384317 0
M  V30 8268 C 815.68 1.88841 0.731116 0
M  V30 8269 C 816.008 0.83093 1.75857 0
M  V30 8270 O 815.263 -0.169248 1.94967 0
M  V30 8271 C 815.562 3.26862 1.44554 0
M  V30 8272 C 815.228 4.47472 0.554946 0
M  V30 8273 C 813.89 4.80203 0.309621 0
M  V30 8274 C 816.242 5.21165 -0.0605204 0
M  V30 8275 C 813.57 5.8402 -0.560101 0
M  V30 8276 C 815.922 6.25905 -0.91789 0
M  V30 8277 C 814.586 6.57117 -1.17277 0
M  V30 8278 H 813.856 0.691018 0.267534 0
M  V30 8279 H 816.503 1.91498 -0.00883195 0
M  V30 8280 H 814.808 3.2015 2.25856 0
M  V30 8281 H 816.505 3.48316 1.98688 0
M  V30 8282 H 813.095 4.21874 0.756304 0
M  V30 8283 H 817.279 4.96164 0.116064 0
M  V30 8284 H 812.535 6.06583 -0.765974 0
M  V30 8285 H 816.709 6.82155 -1.40136 0
M  V30 8286 H 814.336 7.37385 -1.84843 0
M  V30 8287 N 815.911 -0.310526 1.54511 0
M  V30 8288 C 816.841 -1.38757 1.878 0
M  V30 8289 C 817.822 -1.53353 0.735991 0
M  V30 8290 O 819.007 -1.67018 0.990887 0
M  V30 8291 C 816.137 -2.75327 2.11689 0
M  V30 8292 C 815.091 -2.75506 3.27537 0
M  V30 8293 C 814.417 -4.15275 3.36824 0
M  V30 8294 C 815.717 -2.38093 4.64875 0
M  V30 8295 H 817.411 -1.11146 2.78005 0
M  V30 8296 H 814.957 -0.533232 1.33763 0
M  V30 8297 H 816.91 -3.50752 2.33562 0
M  V30 8298 H 815.634 -3.04443 1.18245 0
M  V30 8299 H 814.293 -2.02538 3.05572 0
M  V30 8300 H 813.941 -4.41553 2.40915 0
M  V30 8301 H 813.641 -4.16299 4.14692 0
M  V30 8302 H 815.165 -4.92493 3.60947 0
M  V30 8303 H 816.579 -3.03232 4.86542 0
M  V30 8304 H 814.976 -2.50345 5.45387 0
M  V30 8305 H 816.046 -1.33227 4.66239 0
M  V30 8306 N 817.389 -1.46805 -0.573248 0
M  V30 8307 C 818.638 -1.51868 -1.32736 0
M  V30 8308 C 818.951 -0.178765 -1.94781 0
M  V30 8309 O 820.157 -0.107272 -2.71288 0
M  V30 8310 C 818.613 -2.67641 -2.40616 0
M  V30 8311 C 818.221 -4.08094 -1.84832 0
M  V30 8312 C 819.965 -2.81984 -3.17309 0
M  V30 8313 C 817.872 -5.15193 -2.90397 0
M  V30 8314 H 816.802 -0.56523 -0.49903 0
M  V30 8315 H 819.453 -1.7304 -0.610695 0
M  V30 8316 H 817.835 -2.39818 -3.15124 0
M  V30 8317 H 819.009 -4.45751 -1.16803 0
M  V30 8318 H 817.324 -3.985 -1.20775 0
M  V30 8319 H 819.921 -3.59166 -3.96111 0
M  V30 8320 H 820.264 -1.89842 -3.70494 0
M  V30 8321 H 820.797 -3.095 -2.4991 0
M  V30 8322 H 817.536 -6.09158 -2.42088 0
M  V30 8323 H 817.056 -4.82071 -3.56886 0
M  V30 8324 H 818.735 -5.41448 -3.54179 0
M  V30 8325 N 818.867 0.818669 -1.34668 0
M  V30 8326 C 819.83 1.9114 -1.26483 0
M  V30 8327 C 820.83 1.598 -0.179044 0
M  V30 8328 O 822.02 1.6876 -0.431952 0
M  V30 8329 C 819.152 3.27285 -0.95381 0
M  V30 8330 H 820.345 1.9982 -2.23634 0
M  V30 8331 H 817.898 1.01314 -1.19018 0
M  V30 8332 H 818.633 3.24297 0.0143428 0
M  V30 8333 H 818.418 3.51416 -1.73924 0
M  V30 8334 H 819.908 4.07299 -0.921827 0
M  V30 8335 N 820.346 1.18468 1.03938 0
M  V30 8336 C 821.279 0.856251 2.11527 0
M  V30 8337 C 822.257 -0.182323 1.61575 0
M  V30 8338 O 823.441 -0.061 1.88401 0
M  V30 8339 C 820.568 0.279562 3.37544 0
M  V30 8340 C 819.614 1.29552 4.06348 0
M  V30 8341 S 820.447 2.85191 4.5324 0
M  V30 8342 C 821.603 2.29037 5.82489 0
M  V30 8343 H 821.836 1.76742 2.39059 0
M  V30 8344 H 819.369 1.01068 1.16725 0
M  V30 8345 H 821.327 -0.0466579 4.10473 0
M  V30 8346 H 819.988 -0.60975 3.08125 0
M  V30 8347 H 819.181 0.840922 4.96935 0
M  V30 8348 H 818.783 1.56804 3.39541 0
M  V30 8349 H 821.075 1.67376 6.565 0
M  V30 8350 H 822.018 3.17929 6.32714 0
M  V30 8351 H 822.426 1.72009 5.37655 0
M  V30 8352 N 821.824 -1.22873 0.986916 0
M  V30 8353 C 822.787 -2.2281 0.537442 0
M  V30 8354 C 823.787 -1.56331 -0.37646 0
M  V30 8355 O 824.977 -1.73376 -0.169247 0
M  V30 8356 C 822.109 -3.40195 -0.219082 0
M  V30 8357 H 823.302 -2.64089 1.42116 0
M  V30 8358 H 820.855 -1.35819 0.773488 0
M  V30 8359 H 821.59 -3.04381 -1.11905 0
M  V30 8360 H 821.375 -3.89657 0.437026 0
M  V30 8361 H 822.865 -4.14326 -0.521926 0
M  V30 8362 N 823.302 -0.75937 -1.38099 0
M  V30 8363 C 824.549 -0.318113 -1.99986 0
M  V30 8364 C 824.877 1.10184 -1.6028 0
M  V30 8365 O 824.132 1.77015 -0.834524 0
M  V30 8366 C 824.431 -0.394999 -3.55211 0
M  V30 8367 C 824.097 -1.77143 -4.14646 0
M  V30 8368 C 822.759 -2.14811 -4.30592 0
M  V30 8369 C 825.111 -2.67407 -4.47373 0
M  V30 8370 C 822.439 -3.42203 -4.76565 0
M  V30 8371 C 824.791 -3.94196 -4.94765 0
M  V30 8372 C 823.455 -4.31925 -5.08918 0
M  V30 8373 H 822.725 -0.116406 -0.7318 0
M  V30 8374 H 825.372 -0.97098 -1.65058 0
M  V30 8375 H 823.677 0.341426 -3.9031 0
M  V30 8376 H 825.374 -0.0350722 -4.00985 0
M  V30 8377 H 821.964 -1.46864 -4.02652 0
M  V30 8378 H 826.148 -2.39569 -4.3465 0
M  V30 8379 H 821.404 -3.71346 -4.85708 0
M  V30 8380 H 825.578 -4.64276 -5.19057 0
M  V30 8381 H 823.205 -5.30699 -5.443 0
M  V30 8382 N 824.78 1.49157 -0.508906 0
M  V30 8383 C 826.029 2.0167 0.0346854 0
M  V30 8384 C 826.342 1.39302 1.37311 0
M  V30 8385 O 827.548 1.83189 2.00385 0
M  V30 8386 C 826.004 3.59725 0.112261 0
M  V30 8387 C 825.612 4.31069 -1.21999 0
M  V30 8388 C 827.356 4.20155 0.605798 0
M  V30 8389 C 825.263 5.81001 -1.10415 0
M  V30 8390 H 824.193 0.753814 0.0167355 0
M  V30 8391 H 826.844 1.7162 -0.649518 0
M  V30 8392 H 825.226 3.86525 0.861087 0
M  V30 8393 H 826.4 4.15962 -1.98273 0
M  V30 8394 H 824.715 3.82418 -1.64759 0
M  V30 8395 H 827.312 5.29964 0.710102 0
M  V30 8396 H 827.655 3.84051 1.60656 0
M  V30 8397 H 828.188 3.97705 -0.0867239 0
M  V30 8398 H 824.927 6.21643 -2.07941 0
M  V30 8399 H 824.447 5.9858 -0.382428 0
M  V30 8400 H 826.126 6.42207 -0.786116 0
M  V30 8401 N 826.258 0.243083 1.55714 0
M  V30 8402 C 827.188 -0.652336 2.24203 0
M  V30 8403 C 828.169 -1.1843 1.221 0
M  V30 8404 O 829.354 -1.22435 1.50743 0
M  V30 8405 C 826.484 -1.85111 2.93856 0
M  V30 8406 C 825.438 -1.45208 4.02615 0
M  V30 8407 C 824.764 -2.73137 4.59674 0
M  V30 8408 C 826.064 -0.625988 5.18535 0
M  V30 8409 H 827.758 -0.0812504 2.9929 0
M  V30 8410 H 825.304 -0.0376388 1.43951 0
M  V30 8411 H 827.257 -2.48314 3.40468 0
M  V30 8412 H 825.981 -2.44751 2.16251 0
M  V30 8413 H 824.64 -0.843406 3.56766 0
M  V30 8414 H 824.288 -3.30967 3.78774 0
M  V30 8415 H 823.988 -2.47163 5.33089 0
M  V30 8416 H 825.512 -3.37245 5.09017 0
M  V30 8417 H 826.926 -1.16223 5.61396 0
M  V30 8418 H 825.323 -0.462465 5.98315 0
M  V30 8419 H 826.393 0.362652 4.83542 0
M  V30 8420 N 827.736 -1.57571 -0.0300757 0
M  V30 8421 C 828.985 -1.88407 -0.720126 0
M  V30 8422 C 829.298 -0.841466 -1.76575 0
M  V30 8423 O 830.504 -1.03902 -2.50832 0
M  V30 8424 C 828.96 -3.34348 -1.33188 0
M  V30 8425 C 828.568 -4.46837 -0.32266 0
M  V30 8426 C 830.312 -3.74333 -2.00187 0
M  V30 8427 C 828.219 -5.83838 -0.942703 0
M  V30 8428 H 827.149 -0.702952 -0.272718 0
M  V30 8429 H 829.8 -1.83482 0.0255337 0
M  V30 8430 H 828.182 -3.34014 -2.12721 0
M  V30 8431 H 829.356 -4.58638 0.445887 0
M  V30 8432 H 827.671 -4.15678 0.245181 0
M  V30 8433 H 830.268 -4.74008 -2.47428 0
M  V30 8434 H 830.611 -3.06275 -2.81959 0
M  V30 8435 H 831.144 -3.76837 -1.2743 0
M  V30 8436 H 827.883 -6.55294 -0.164413 0
M  V30 8437 H 827.403 -5.75759 -1.68111 0
M  V30 8438 H 829.082 -6.30535 -1.45034 0
M  V30 8439 N 829.214 0.302327 -1.54673 0
M  V30 8440 C 830.177 1.35592 -1.8479 0
M  V30 8441 C 831.177 1.43743 -0.72073 0
M  V30 8442 O 832.367 1.43402 -0.989017 0
M  V30 8443 C 829.499 2.74091 -2.02699 0
M  V30 8444 H 830.692 1.10132 -2.78946 0
M  V30 8445 H 828.245 0.538926 -1.46715 0
M  V30 8446 H 828.98 3.04775 -1.10826 0
M  V30 8447 H 828.765 2.69565 -2.8474 0
M  V30 8448 H 830.255 3.50272 -2.27374 0
M  V30 8449 N 830.692 1.47107 0.565454 0
M  V30 8450 C 831.602 1.61591 1.70075 0
M  V30 8451 C 832.618 0.498931 1.66693 0
M  V30 8452 O 833.794 0.765372 1.8629 0
M  V30 8453 C 830.859 1.61887 3.06583 0
M  V30 8454 C 829.92 2.84949 3.21096 0
M  V30 8455 C 829.153 2.85221 4.51093 0
M  V30 8456 O 829.376 1.94959 5.36048 0
M  V30 8457 O 828.31 3.76982 4.69221 0
M  V30 8458 H 832.136 2.57638 1.60799 0
M  V30 8459 H 829.721 1.30097 0.73451 0
M  V30 8460 H 831.603 1.64809 3.87835 0
M  V30 8461 H 830.278 0.69005 3.16259 0
M  V30 8462 H 829.185 2.87575 2.39273 0
M  V30 8463 H 830.518 3.77098 3.1632 0
M  V30 8464 N 832.17 -0.811516 1.35101 0
M  V30 8465 C 833.1 -1.9378 1.30275 0
M  V30 8466 C 834.081 -1.69165 0.178075 0
M  V30 8467 O 835.266 -1.90599 0.372256 0
M  V30 8468 C 832.396 -3.30439 1.06899 0
M  V30 8469 C 831.35 -3.69523 2.15955 0
M  V30 8470 C 830.676 -5.0429 1.77751 0
M  V30 8471 C 831.976 -3.80419 3.57881 0
M  V30 8472 H 833.67 -1.98075 2.24514 0
M  V30 8473 H 831.216 -0.951586 1.08078 0
M  V30 8474 H 833.169 -4.08828 1.02164 0
M  V30 8475 H 831.893 -3.26473 0.0910462 0
M  V30 8476 H 830.552 -2.93416 2.19778 0
M  V30 8477 H 830.2 -4.96823 0.785876 0
M  V30 8478 H 829.9 -5.31411 2.5075 0
M  V30 8479 H 831.424 -5.85125 1.74533 0
M  V30 8480 H 832.838 -4.49051 3.56407 0
M  V30 8481 H 831.235 -4.19005 4.29598 0
M  V30 8482 H 832.305 -2.82105 3.94391 0
M  V30 8483 N 833.648 -1.19017 -1.03309 0
M  V30 8484 C 834.596 -0.920627 -2.13605 0
M  V30 8485 C 835.59 0.121969 -1.6896 0
M  V30 8486 O 836.796 -0.0268854 -1.7998 0
M  V30 8487 H 833.171 -0.280284 -0.697814 0
M  V30 8488 H 835.142 -1.85755 -2.33533 0
M  V30 8489 C 833.891 -0.471198 -3.44492 0
M  V30 8490 H 833.214 -1.26499 -3.7926 0
M  V30 8491 H 834.654 -0.321663 -4.22778 0
M  V30 8492 C 833.113 0.81411 -3.26916 0
M  V30 8493 O 833.643 1.87654 -3.55175 0
M  V30 8494 N 831.849 0.769695 -2.80221 0
M  V30 8495 H 831.396 -0.0951278 -2.57424 0
M  V30 8496 H 831.354 1.63008 -2.68842 0
M  V30 8497 N 835.127 1.22348 -0.993418 0
M  V30 8498 C 836.355 1.95125 -0.688021 0
M  V30 8499 C 836.77 1.73377 0.747388 0
M  V30 8500 O 836.127 1.03317 1.50439 0
M  V30 8501 C 836.178 3.47819 -0.985097 0
M  V30 8502 O 835.899 3.68838 -2.3641 0
M  V30 8503 C 837.4 4.37779 -0.697474 0
M  V30 8504 H 834.62 0.62087 -0.254481 0
M  V30 8505 H 837.164 1.55485 -1.32833 0
M  V30 8506 H 835.319 3.85426 -0.390583 0
M  V30 8507 H 835.733 4.63032 -2.46377 0
M  V30 8508 H 837.207 5.43666 -0.955604 0
M  V30 8509 H 837.684 4.37651 0.368524 0
M  V30 8510 H 838.29 4.05799 -1.27306 0
M  V30 8511 N 836.605 0.766683 1.37694 0
M  V30 8512 C 837.854 0.325425 1.99057 0
M  V30 8513 C 838.167 -1.10275 1.61551 0
M  V30 8514 O 839.373 -1.64513 2.1598 0
M  V30 8515 C 837.829 0.530886 3.55963 0
M  V30 8516 C 837.437 1.96899 4.02411 0
M  V30 8517 C 839.181 0.152997 4.24224 0
M  V30 8518 C 837.088 2.12232 5.52007 0
M  V30 8519 H 836.018 0.117929 0.744721 0
M  V30 8520 H 838.669 0.945091 1.5729 0
M  V30 8521 H 837.051 -0.158162 3.95684 0
M  V30 8522 H 838.225 2.69258 3.73948 0
M  V30 8523 H 836.54 2.303 3.46916 0
M  V30 8524 H 839.137 0.24614 5.34133 0
M  V30 8525 H 839.48 -0.896096 4.06541 0
M  V30 8526 H 840.013 0.794398 3.89787 0
M  V30 8527 H 836.752 3.15442 5.7461 0
M  V30 8528 H 836.272 1.4435 5.82171 0
M  V30 8529 H 837.951 1.9185 6.17902 0
M  V30 8530 N 838.083 -1.48885 0.516809 0
M  V30 8531 C 839.046 -2.27916 -0.242256 0
M  V30 8532 C 840.046 -1.34601 -0.879735 0
M  V30 8533 O 841.236 -1.57616 -0.74182 0
M  V30 8534 C 838.368 -3.13067 -1.34914 0
M  V30 8535 H 839.561 -2.96483 0.451444 0
M  V30 8536 H 837.114 -1.5391 0.272294 0
M  V30 8537 H 837.849 -2.49102 -2.07651 0
M  V30 8538 H 837.634 -3.81695 -0.897313 0
M  V30 8539 H 839.124 -3.72716 -1.88341 0
M  V30 8540 N 839.561 -0.251338 -1.55583 0
M  V30 8541 C 840.972 0.25098 -1.85005 0
M  V30 8542 C 841.323 1.57259 -1.17321 0
M  V30 8543 O 840.448 2.11603 -0.453136 0
M  V30 8544 C 841.043 0.462161 -3.35633 0
M  V30 8545 C 839.602 0.908737 -3.65266 0
M  V30 8546 C 838.749 -0.0115418 -2.77298 0
M  V30 8547 H 841.7 -0.473782 -1.51463 0
M  V30 8548 H 841.721 1.30415 -3.57452 0
M  V30 8549 H 841.233 -0.499886 -3.84867 0
M  V30 8550 H 839.334 1.8831 -3.21512 0
M  V30 8551 H 839.447 0.762526 -4.72993 0
M  V30 8552 H 837.811 0.500612 -2.49732 0
M  V30 8553 H 838.594 -0.969042 -3.29339 0
M  V30 8554 N 841.039 1.57585 0.0217189 0
M  V30 8555 C 842.288 1.88786 0.710125 0
M  V30 8556 C 842.601 0.850819 1.76126 0
M  V30 8557 O 843.807 1.0523 2.50277 0
M  V30 8558 C 842.263 3.3505 1.31413 0
M  V30 8559 C 841.871 4.47001 0.298959 0
M  V30 8560 C 843.615 3.7539 1.98199 0
M  V30 8561 C 841.522 5.8433 0.911727 0
M  V30 8562 H 840.452 0.704388 0.268986 0
M  V30 8563 H 843.103 1.83466 -0.0352638 0
M  V30 8564 H 841.485 3.35138 2.10947 0
M  V30 8565 H 842.659 4.58395 -0.470203 0
M  V30 8566 H 840.974 4.15542 -0.267222 0
M  V30 8567 H 843.571 4.75314 2.4491 0
M  V30 8568 H 843.914 3.07766 2.80331 0
M  V30 8569 H 844.447 3.77508 1.2543 0
M  V30 8570 H 841.186 6.55372 0.129659 0
M  V30 8571 H 840.706 5.76643 1.65056 0
M  V30 8572 H 842.385 6.31295 1.41688 0
M  V30 8573 N 842.517 -0.29412 1.54831 0
M  V30 8574 C 843.766 -1.02614 1.73647 0
M  V30 8575 C 844.079 -1.88193 0.533162 0
M  V30 8576 O 845.285 -2.64713 0.603275 0
M  V30 8577 C 843.741 -1.87417 3.07251 0
M  V30 8578 C 843.349 -1.06806 4.35082 0
M  V30 8579 C 845.093 -2.60176 3.35423 0
M  V30 8580 C 843 -1.90926 5.59733 0
M  V30 8581 H 841.93 -0.386834 0.647206 0
M  V30 8582 H 844.581 -0.282789 1.81308 0
M  V30 8583 H 842.963 -2.65765 2.93572 0
M  V30 8584 H 844.137 -0.330226 4.59615 0
M  V30 8585 H 842.452 -0.455979 4.13896 0
M  V30 8586 H 845.049 -3.23476 4.25755 0
M  V30 8587 H 845.392 -3.29365 2.54606 0
M  V30 8588 H 845.925 -1.88871 3.50103 0
M  V30 8589 H 842.664 -1.26194 6.43238 0
M  V30 8590 H 842.184 -2.62363 5.39375 0
M  V30 8591 H 843.863 -2.48807 5.97247 0
M  V30 8592 N 843.995 -1.47404 -0.557645 0
M  V30 8593 C 845.22 -1.57868 -1.34508 0
M  V30 8594 C 845.645 -0.229151 -1.86699 0
M  V30 8595 O 845.003 0.794908 -1.62944 0
M  V30 8596 C 845.051 -2.60712 -2.49122 0
M  V30 8597 O 844.155 -2.15952 -3.51338 0
M  V30 8598 H 843.496 -0.530335 -0.399551 0
M  V30 8599 H 846.026 -1.93181 -0.673954 0
M  V30 8600 H 846.036 -2.81118 -2.95697 0
M  V30 8601 H 844.711 -3.58701 -2.10491 0
M  V30 8602 H 843.288 -2.05644 -3.11071 0
M  V30 8603 N 845.473 0.80434 -1.35529 0
M  V30 8604 C 846.421 1.93769 -1.28671 0
M  V30 8605 C 847.415 1.68428 -0.181222 0
M  V30 8606 O 848.621 1.76617 -0.347338 0
M  V30 8607 H 844.996 0.636663 -0.400206 0
M  V30 8608 H 846.967 1.96673 -2.24415 0
M  V30 8609 C 845.716 3.30572 -1.07784 0
M  V30 8610 H 845.039 3.5063 -1.9209 0
M  V30 8611 H 846.479 4.1027 -1.07027 0
M  V30 8612 C 844.938 3.36193 0.218213 0
M  V30 8613 O 845.468 3.82941 1.21323 0
M  V30 8614 N 843.674 2.89455 0.257761 0
M  V30 8615 H 843.221 2.51604 -0.552562 0
M  V30 8616 H 843.179 2.93597 1.12465 0
M  V30 8617 N 846.951 1.19563 1.02676 0
M  V30 8618 C 848.198 0.999568 1.7611 0
M  V30 8619 C 848.526 -0.469432 1.8875 0
M  V30 8620 O 847.781 -1.36481 1.40255 0
M  V30 8621 C 848.08 1.61619 3.18769 0
M  V30 8622 C 847.746 3.11366 3.26132 0
M  V30 8623 C 846.408 3.52234 3.27848 0
M  V30 8624 C 848.76 4.07374 3.25109 0
M  V30 8625 C 846.088 4.87658 3.26201 0
M  V30 8626 C 848.44 5.42731 3.25002 0
M  V30 8627 C 847.104 5.83027 3.25017 0
M  V30 8628 H 846.374 0.365768 0.644434 0
M  V30 8629 H 849.021 1.48838 1.20497 0
M  V30 8630 H 847.326 1.04974 3.77476 0
M  V30 8631 H 849.023 1.43975 3.74262 0
M  V30 8632 H 845.613 2.78804 3.25525 0
M  V30 8633 H 849.797 3.76842 3.22961 0
M  V30 8634 H 845.053 5.18156 3.24537 0
M  V30 8635 H 849.227 6.16879 3.23161 0
M  V30 8636 H 846.854 6.87936 3.23494 0
M  V30 8637 N 848.429 -1.21819 0.999893 0
M  V30 8638 C 849.676 -1.90752 0.679694 0
M  V30 8639 C 850.004 -1.77777 -0.789014 0
M  V30 8640 O 849.259 -1.14518 -1.58695 0
M  V30 8641 C 849.558 -3.4193 1.04012 0
M  V30 8642 C 849.224 -3.75098 2.50225 0
M  V30 8643 C 847.886 -3.83861 2.90179 0
M  V30 8644 C 850.238 -3.90706 3.44961 0
M  V30 8645 C 847.566 -4.05676 4.23844 0
M  V30 8646 C 849.918 -4.14027 4.78294 0
M  V30 8647 C 848.582 -4.21016 5.17979 0
M  V30 8648 H 847.852 -0.698012 0.248718 0
M  V30 8649 H 850.499 -1.44437 1.25738 0
M  V30 8650 H 848.804 -3.89947 0.380606 0
M  V30 8651 H 850.501 -3.93532 0.770301 0
M  V30 8652 H 847.091 -3.68865 2.18258 0
M  V30 8653 H 851.275 -3.83307 3.15261 0
M  V30 8654 H 846.531 -4.09316 4.5417 0
M  V30 8655 H 850.705 -4.25046 5.51642 0
M  V30 8656 H 848.332 -4.37672 6.21568 0
M  V30 8657 N 849.908 -0.773975 -1.37286 0
M  V30 8658 C 850.838 -0.175782 -2.32837 0
M  V30 8659 C 851.819 0.680603 -1.5589 0
M  V30 8660 O 853.004 0.617607 -1.84117 0
M  V30 8661 C 850.134 0.702388 -3.40123 0
M  V30 8662 C 849.088 -0.0528687 -4.27967 0
M  V30 8663 C 848.414 0.944891 -5.26285 0
M  V30 8664 C 849.714 -1.23316 -5.07534 0
M  V30 8665 H 851.408 -0.974016 -2.83114 0
M  V30 8666 H 848.954 -0.469826 -1.3612 0
M  V30 8667 H 850.907 1.13069 -4.05947 0
M  V30 8668 H 849.631 1.53316 -2.88378 0
M  V30 8669 H 848.29 -0.461978 -3.63678 0
M  V30 8670 H 847.938 1.77028 -4.70819 0
M  V30 8671 H 847.638 0.444079 -5.8592 0
M  V30 8672 H 849.162 1.37209 -5.94984 0
M  V30 8673 H 850.576 -0.881395 -5.66484 0
M  V30 8674 H 848.973 -1.66621 -5.76504 0
M  V30 8675 H 850.043 -2.03617 -4.40077 0
M  V30 8676 N 851.386 1.48609 -0.524698 0
M  V30 8677 C 852.349 2.28041 0.230166 0
M  V30 8678 C 853.349 1.35065 0.872584 0
M  V30 8679 O 854.539 1.58007 0.73345 0
M  V30 8680 C 851.671 3.13778 1.33252 0
M  V30 8681 H 852.864 2.96239 -0.467161 0
M  V30 8682 H 850.417 1.53763 -0.280452 0
M  V30 8683 H 851.152 2.502 2.06327 0
M  V30 8684 H 850.937 3.82165 0.877058 0
M  V30 8685 H 852.427 3.7371 1.86362 0
M  V30 8686 N 852.864 0.259585 1.55447 0
M  V30 8687 C 854.089 -0.368317 2.04103 0
M  V30 8688 C 854.514 -1.49827 1.13725 0
M  V30 8689 O 853.872 -1.80814 0.132705 0
M  V30 8690 C 853.92 -0.841506 3.50644 0
M  V30 8691 O 853.024 -1.95008 3.63381 0
M  V30 8692 H 852.365 -0.0785227 0.659341 0
M  V30 8693 H 854.895 0.389349 2.00861 0
M  V30 8694 H 854.905 -1.14138 3.9171 0
M  V30 8695 H 853.58 -0.0147001 4.15897 0
M  V30 8696 H 852.157 -1.65393 3.34215 0
M  V30 8697 N 854.342 -1.57594 -0.0133615 0
M  V30 8698 C 855.572 -1.93969 -0.711295 0
M  V30 8699 C 855.98 -0.859084 -1.68572 0
M  V30 8700 O 855.323 0.171842 -1.82894 0
M  V30 8701 C 855.385 -3.2625 -1.51001 0
M  V30 8702 C 855.049 -4.51628 -0.698645 0
M  V30 8703 C 856.046 -5.19899 0.00791185 0
M  V30 8704 C 853.731 -4.98095 -0.648553 0
M  V30 8705 C 855.725 -6.32928 0.753691 0
M  V30 8706 C 853.412 -6.11017 0.10096 0
M  V30 8707 C 854.41 -6.78289 0.800828 0
M  V30 8708 O 854.098 -7.89048 1.53814 0
M  V30 8709 H 853.83 -0.6445 -0.203951 0
M  V30 8710 H 856.384 -2.05378 0.0298267 0
M  V30 8711 H 854.614 -3.11211 -2.29531 0
M  V30 8712 H 856.303 -3.47835 -2.09202 0
M  V30 8713 H 857.069 -4.84995 -0.0217192 0
M  V30 8714 H 852.948 -4.45568 -1.18282 0
M  V30 8715 H 856.492 -6.85371 1.3005 0
M  V30 8716 H 852.389 -6.45364 0.132459 0
M  V30 8717 H 853.157 -8.05492 1.45345 0
M  V30 8718 N 855.82 0.285905 -1.54985 0
M  V30 8719 C 856.783 1.33625 -1.86218 0
M  V30 8720 C 857.783 1.42971 -0.735936 0
M  V30 8721 O 858.973 1.42345 -1.00417 0
M  V30 8722 C 856.105 2.71926 -2.05595 0
M  V30 8723 H 857.298 1.07167 -2.80099 0
M  V30 8724 H 854.851 0.523335 -1.47278 0
M  V30 8725 H 855.586 3.03583 -1.14053 0
M  V30 8726 H 855.371 2.6653 -2.87583 0
M  V30 8727 H 856.861 3.47841 -2.31077 0
M  V30 8728 N 857.298 1.47698 0.54982 0
M  V30 8729 C 858.228 1.63622 1.66583 0
M  V30 8730 C 859.209 0.485477 1.63025 0
M  V30 8731 O 860.394 0.715692 1.80531 0
M  V30 8732 C 857.524 1.65721 3.05211 0
M  V30 8733 C 856.478 2.80097 3.2362 0
M  V30 8734 C 855.804 2.67272 4.63109 0
M  V30 8735 C 857.104 4.21612 3.08286 0
M  V30 8736 H 858.798 2.57049 1.53512 0
M  V30 8737 H 856.344 1.23705 0.737099 0
M  V30 8738 H 858.297 1.75451 3.83138 0
M  V30 8739 H 857.021 0.688593 3.19258 0
M  V30 8740 H 855.68 2.69889 2.48104 0
M  V30 8741 H 855.328 1.68422 4.73965 0
M  V30 8742 H 855.028 3.44008 4.76374 0
M  V30 8743 H 856.552 2.78942 5.43161 0
M  V30 8744 H 857.966 4.32758 3.76024 0
M  V30 8745 H 856.363 4.99193 3.33057 0
M  V30 8746 H 857.433 4.39462 2.04942 0
M  V30 8747 N 858.776 -0.797141 1.35954 0
M  V30 8748 C 860.025 -1.54983 1.29086 0
M  V30 8749 C 860.338 -1.95167 -0.130003 0
M  V30 8750 O 861.544 -2.69596 -0.32101 0
M  V30 8751 C 860 -2.79738 2.26439 0
M  V30 8752 C 859.608 -2.46753 3.73921 0
M  V30 8753 C 861.352 -3.57733 2.28533 0
M  V30 8754 C 859.259 -3.67858 4.63071 0
M  V30 8755 H 858.189 -0.581766 0.479651 0
M  V30 8756 H 860.84 -0.87541 1.61273 0
M  V30 8757 H 859.222 -3.48939 1.87236 0
M  V30 8758 H 860.396 -1.85499 4.21814 0
M  V30 8759 H 858.711 -1.81985 3.74527 0
M  V30 8760 H 861.308 -4.47699 2.92351 0
M  V30 8761 H 861.651 -3.95754 1.29169 0
M  V30 8762 H 862.184 -2.95504 2.66313 0
M  V30 8763 H 858.923 -3.34939 5.63468 0
M  V30 8764 H 858.443 -4.28305 4.19898 0
M  V30 8765 H 860.122 -4.34977 4.78961 0
M  V30 8766 N 860.254 -1.20106 -1.0204 0
M  V30 8767 C 861.202 -0.943231 -2.12617 0
M  V30 8768 C 862.196 0.104042 -1.6908 0
M  V30 8769 O 863.402 -0.0459732 -1.79941 0
M  V30 8770 H 859.777 -0.28767 -0.694802 0
M  V30 8771 H 861.748 -1.88221 -2.3155 0
M  V30 8772 C 860.497 -0.50771 -3.43973 0
M  V30 8773 H 859.82 -1.30514 -3.77897 0
M  V30 8774 H 861.26 -0.366486 -4.22413 0
M  V30 8775 C 859.719 0.77939 -3.27761 0
M  V30 8776 O 860.249 1.83876 -3.57145 0
M  V30 8777 N 858.455 0.739931 -2.81022 0
M  V30 8778 H 858.002 -0.122426 -2.57309 0
M  V30 8779 H 857.96 1.60147 -2.70556 0
M  V30 8780 N 861.732 1.21287 -1.00634 0
M  V30 8781 C 862.979 1.90389 -0.6898 0
M  V30 8782 C 863.307 1.78193 0.779574 0
M  V30 8783 O 862.562 1.15358 1.58085 0
M  V30 8784 C 862.861 3.41374 -1.05824 0
M  V30 8785 C 862.527 3.73766 -2.5221 0
M  V30 8786 C 861.189 3.82317 -2.92211 0
M  V30 8787 C 863.541 3.88871 -3.47028 0
M  V30 8788 C 860.869 4.03423 -4.2599 0
M  V30 8789 C 863.221 4.11484 -4.80483 0
M  V30 8790 C 861.885 4.18263 -5.20204 0
M  V30 8791 H 861.155 0.696683 -0.252416 0
M  V30 8792 H 863.802 1.43769 -1.26502 0
M  V30 8793 H 862.107 3.8974 -0.401281 0
M  V30 8794 H 863.804 3.93118 -0.79116 0
M  V30 8795 H 860.394 3.67702 -2.20212 0
M  V30 8796 H 864.578 3.8163 -3.17289 0
M  V30 8797 H 859.834 4.06902 -4.56334 0
M  V30 8798 H 864.008 4.22115 -5.53888 0
M  V30 8799 H 861.635 4.34369 -6.23881 0
M  V30 8800 N 863.21 0.781244 1.36873 0
M  V30 8801 C 864.435 0.360398 2.04245 0
M  V30 8802 C 864.86 -1.01242 1.58529 0
M  V30 8803 O 864.218 -1.65063 0.749936 0
M  V30 8804 C 864.266 0.42329 3.58107 0
M  V30 8805 O 863.37 -0.572796 4.08403 0
M  V30 8806 H 862.711 0.154386 0.645803 0
M  V30 8807 H 865.241 1.06008 1.74996 0
M  V30 8808 H 865.251 0.283967 4.07011 0
M  V30 8809 H 863.926 1.42477 3.90734 0
M  V30 8810 H 862.503 -0.395809 3.70793 0
M  V30 8811 N 864.689 -1.48329 0.532571 0
M  V30 8812 C 865.929 -2.044 0.00145618 0
M  V30 8813 C 866.293 -1.40053 -1.31336 0
M  V30 8814 O 867.494 -1.87026 -1.93066 0
M  V30 8815 C 865.765 -3.57214 -0.115376 0
M  V30 8816 S 867.324 -4.34731 -0.59618 0
M  V30 8817 H 864.142 -0.710876 0.0133038 0
M  V30 8818 H 866.744 -1.82006 0.71372 0
M  V30 8819 H 865.448 -4.01579 0.846335 0
M  V30 8820 H 864.979 -3.84065 -0.85194 0
M  V30 8821 H 866.994 -4.6001 -1.86025 0
M  V30 8822 N 866.167 -0.267825 -1.55308 0
M  V30 8823 C 867.414 0.351036 -1.99434 0
M  V30 8824 C 867.742 1.56406 -1.15618 0
M  V30 8825 O 866.997 1.94548 -0.212045 0
M  V30 8826 C 867.296 0.784247 -3.48689 0
M  V30 8827 C 866.962 -0.323328 -4.49739 0
M  V30 8828 C 865.624 -0.627467 -4.77091 0
M  V30 8829 C 867.976 -1.07002 -5.10098 0
M  V30 8830 C 865.304 -1.682 -5.62073 0
M  V30 8831 C 867.656 -2.11422 -5.96224 0
M  V30 8832 C 866.32 -2.42479 -6.21901 0
M  V30 8833 H 865.59 0.128453 -0.729781 0
M  V30 8834 H 868.237 -0.380018 -1.87692 0
M  V30 8835 H 866.542 1.59485 -3.57871 0
M  V30 8836 H 868.239 1.2737 -3.80234 0
M  V30 8837 H 864.829 -0.0761528 -4.28532 0
M  V30 8838 H 869.013 -0.848302 -4.88996 0
M  V30 8839 H 864.269 -1.92772 -5.80215 0
M  V30 8840 H 868.443 -2.69759 -6.4203 0
M  V30 8841 H 866.07 -3.24328 -6.87543 0
M  V30 8842 N 867.645 1.57599 0.00500368 0
M  V30 8843 C 868.595 2.04585 1.00643 0
M  V30 8844 C 869.579 0.939622 1.30614 0
M  V30 8845 O 870.771 1.20342 1.29796 0
M  V30 8846 C 867.9 2.5486 2.30002 0
M  V30 8847 C 866.986 3.7235 2.03017 0
M  V30 8848 N 867.377 4.84218 1.46173 0
M  V30 8849 C 865.675 3.80185 2.33185 0
M  V30 8850 C 866.376 5.65688 1.35544 0
M  V30 8851 N 865.352 5.11536 1.83933 0
M  V30 8852 H 869.154 2.8849 0.561332 0
M  V30 8853 H 866.668 1.61026 0.210808 0
M  V30 8854 H 868.665 2.86794 3.0258 0
M  V30 8855 H 867.325 1.72372 2.75169 0
M  V30 8856 H 868.336 5.0517 1.1412 0
M  V30 8857 H 865.013 3.08543 2.81261 0
M  V30 8858 H 866.403 6.65588 0.918791 0
M  V30 8859 N 869.123 -0.277682 1.55134 0
M  V30 8860 C 870.086 -1.32635 1.86924 0
M  V30 8861 C 871.086 -1.42578 0.743507 0
M  V30 8862 O 872.276 -1.4181 1.01171 0
M  V30 8863 C 869.408 -2.70832 2.07034 0
M  V30 8864 H 870.601 -1.0568 2.80663 0
M  V30 8865 H 868.154 -0.515517 1.47554 0
M  V30 8866 H 868.889 -3.02974 1.15661 0
M  V30 8867 H 868.674 -2.65001 2.88993 0
M  V30 8868 H 870.164 -3.46611 2.32918 0
M  V30 8869 N 870.601 -1.47988 -0.541979 0
M  V30 8870 C 871.826 -1.59286 -1.32826 0
M  V30 8871 C 872.251 -0.24894 -1.86445 0
M  V30 8872 O 871.609 0.777581 -1.63778 0
M  V30 8873 C 871.657 -2.6334 -2.46343 0
M  V30 8874 O 870.761 -2.19667 -3.49028 0
M  V30 8875 H 870.102 -0.534543 -0.393903 0
M  V30 8876 H 872.632 -1.93885 -0.653427 0
M  V30 8877 H 872.642 -2.84238 -2.92699 0
M  V30 8878 H 871.317 -3.60913 -2.06675 0
M  V30 8879 H 869.894 -2.08932 -3.08872 0
M  V30 8880 N 872.079 0.78992 -1.36375 0
M  V30 8881 C 873.309 1.57644 -1.33536 0
M  V30 8882 C 873.717 1.89007 0.0855075 0
M  V30 8883 O 873.06 1.50547 1.05267 0
M  V30 8884 C 873.122 2.92424 -2.09113 0
M  V30 8885 C 872.786 2.83793 -3.58205 0
M  V30 8886 C 873.783 2.56072 -4.52464 0
M  V30 8887 C 871.468 3.02386 -4.01084 0
M  V30 8888 C 873.462 2.47044 -5.87578 0
M  V30 8889 C 871.149 2.9298 -5.36289 0
M  V30 8890 C 872.147 2.65347 -6.29349 0
M  V30 8891 O 871.835 2.55935 -7.62071 0
M  V30 8892 H 871.567 0.495639 -0.459694 0
M  V30 8893 H 874.121 0.988354 -1.80058 0
M  V30 8894 H 872.351 3.53282 -1.57254 0
M  V30 8895 H 874.04 3.53693 -1.99139 0
M  V30 8896 H 874.806 2.4141 -4.2065 0
M  V30 8897 H 870.685 3.229 -3.29023 0
M  V30 8898 H 874.229 2.25396 -6.60184 0
M  V30 8899 H 870.126 3.07204 -5.67711 0
M  V30 8900 H 870.894 2.7142 -7.72187 0
M  V30 8901 N 873.557 1.20646 1.01402 0
M  V30 8902 C 874.52 0.959314 2.08158 0
M  V30 8903 C 875.52 -0.0661558 1.60664 0
M  V30 8904 O 876.71 0.170177 1.73367 0
M  V30 8905 C 873.842 0.444785 3.37986 0
M  V30 8906 H 875.035 1.90631 2.31517 0
M  V30 8907 H 872.588 1.02219 1.18241 0
M  V30 8908 H 873.323 -0.507553 3.20304 0
M  V30 8909 H 873.108 1.18435 3.73785 0
M  V30 8910 H 874.598 0.291443 4.16582 0
M  V30 8911 N 875.035 -1.20752 1.01276 0
M  V30 8912 C 875.982 -2.234 0.579732 0
M  V30 8913 C 876.952 -1.61256 -0.398206 0
M  V30 8914 O 878.137 -1.8845 -0.29851 0
M  V30 8915 C 875.277 -3.45008 -0.0797006 0
M  V30 8916 C 874.39 -4.21597 0.942343 0
M  V30 8917 C 873.525 -5.30591 0.254364 0
M  V30 8918 C 872.564 -5.98919 1.26343 0
M  V30 8919 N 871.701 -6.99511 0.602384 0
M  V30 8920 H 876.541 -2.59801 1.45971 0
M  V30 8921 H 874.078 -1.27663 0.730787 0
M  V30 8922 H 876.036 -4.1444 -0.479125 0
M  V30 8923 H 874.666 -3.09312 -0.923354 0
M  V30 8924 H 873.718 -3.51268 1.45996 0
M  V30 8925 H 875.03 -4.68576 1.70992 0
M  V30 8926 H 874.184 -6.06368 -0.200763 0
M  V30 8927 H 872.923 -4.84639 -0.545553 0
M  V30 8928 H 871.928 -5.21906 1.72898 0
M  V30 8929 H 873.153 -6.46957 2.06456 0
M  V30 8930 H 871.099 -6.55759 -0.177734 0
M  V30 8931 H 871.016 -7.44597 1.30809 0
M  V30 8932 H 872.284 -7.79313 0.17072 0
M  V30 8933 N 876.513 -0.788492 -1.36457 0
M  V30 8934 C 877.738 -0.371224 -2.04051 0
M  V30 8935 C 878.163 1.004 -1.59064 0
M  V30 8936 O 877.521 1.64663 -0.758679 0
M  V30 8937 C 877.569 -0.442275 -3.57877 0
M  V30 8938 O 876.673 0.55113 -4.08701 0
M  V30 8939 H 876.014 -0.157808 -0.644975 0
M  V30 8940 H 878.544 -1.06935 -1.74431 0
M  V30 8941 H 878.554 -0.305548 -4.06854 0
M  V30 8942 H 877.229 -1.44547 -3.89973 0
M  V30 8943 H 875.806 0.37614 -3.70998 0
M  V30 8944 N 877.991 1.48044 -0.54043 0
M  V30 8945 C 879.402 1.86418 -0.102662 0
M  V30 8946 C 879.753 1.4489 1.32293 0
M  V30 8947 O 878.878 0.844319 1.99249 0
M  V30 8948 C 879.473 3.38324 -0.179533 0
M  V30 8949 C 878.032 3.75852 0.203098 0
M  V30 8950 C 877.179 2.72097 -0.534637 0
M  V30 8951 H 880.13 1.398 -0.751103 0
M  V30 8952 H 880.151 3.75641 0.606147 0
M  V30 8953 H 879.663 3.68518 -1.21721 0
M  V30 8954 H 877.764 3.51272 1.24252 0
M  V30 8955 H 877.877 4.78884 -0.143784 0
M  V30 8956 H 876.241 2.54692 0.0203358 0
M  V30 8957 H 877.024 3.05135 -1.57314 0
M  V30 8958 N 879.47 0.276058 1.55163 0
M  V30 8959 C 880.718 -0.339782 1.99223 0
M  V30 8960 C 881.039 -1.56307 1.16589 0
M  V30 8961 O 880.309 -1.94225 0.25564 0
M  V30 8962 H 878.889 -0.128534 0.735859 0
M  V30 8963 H 881.551 0.381612 1.91128 0
M  V30 8964 H 880.647 -0.629 3.05696 0
M  V30 8965 N 880.948 -1.576 0.00335426 0
M  V30 8966 C 882.194 -1.91833 -0.676149 0
M  V30 8967 C 882.549 -0.878079 -1.71194 0
M  V30 8968 O 881.842 0.109297 -1.91288 0
M  V30 8969 C 882.036 -3.3058 -1.35837 0
M  V30 8970 C 881.865 -4.48004 -0.390171 0
M  V30 8971 C 880.635 -5.053 0.000648493 0
M  V30 8972 C 882.833 -5.13142 0.344982 0
M  V30 8973 N 880.815 -6.06241 0.966709 0
M  V30 8974 C 882.186 -6.08944 1.16562 0
M  V30 8975 C 884.241 -4.96222 0.408457 0
M  V30 8976 C 882.944 -6.89649 2.04395 0
M  V30 8977 C 884.97 -5.77514 1.27403 0
M  V30 8978 C 884.332 -6.72912 2.08251 0
M  V30 8979 H 880.431 -0.750263 -0.220519 0
M  V30 8980 H 883.015 -1.94593 0.0644891 0
M  V30 8981 H 881.186 -3.28687 -2.06928 0
M  V30 8982 H 882.918 -3.52233 -1.99284 0
M  V30 8983 H 879.673 -4.72165 -0.368428 0
M  V30 8984 H 880.097 -6.61394 1.44521 0
M  V30 8985 H 884.739 -4.22316 -0.202324 0
M  V30 8986 H 882.457 -7.62878 2.66539 0
M  V30 8987 H 886.043 -5.66462 1.3271 0
M  V30 8988 H 884.923 -7.34721 2.74145 0
M  V30 8989 N 882.426 0.269451 -1.5528 0
M  V30 8990 C 883.842 0.616827 -1.47199 0
M  V30 8991 C 884.042 1.89354 -0.68901 0
M  V30 8992 O 883.098 2.51631 -0.209287 0
M  V30 8993 C 884.411 0.740492 -2.9144 0
M  V30 8994 C 885.959 0.834312 -3.01676 0
M  V30 8995 C 886.434 0.989725 -4.47178 0
M  V30 8996 N 887.925 1.05516 -4.51022 0
M  V30 8997 C 888.66 1.19427 -5.60825 0
M  V30 8998 N 888.156 1.30035 -6.80487 0
M  V30 8999 N 889.949 1.22566 -5.48575 0
M  V30 9000 H 882.1 -0.568962 -2.04638 0
M  V30 9001 H 884.363 -0.193153 -0.928114 0
M  V30 9002 H 884.069 -0.127234 -3.5147 0
M  V30 9003 H 883.943 1.61965 -3.40657 0
M  V30 9004 H 886.33 1.6925 -2.4174 0
M  V30 9005 H 886.411 -0.0695298 -2.55705 0
M  V30 9006 H 886.055 0.136179 -5.07717 0
M  V30 9007 H 885.985 1.90827 -4.90808 0
M  V30 9008 H 888.476 0.985434 -3.64825 0
M  V30 9009 H 888.789 1.40494 -7.59922 0
M  V30 9010 H 887.134 1.27033 -6.83292 0
M  V30 9011 H 890.325 1.13911 -4.54029 0
M  V30 9012 H 890.498 1.33063 -6.34191 0
M  V30 9013 N 883.904 1.48273 0.534124 0
M  V30 9014 C 885.315 1.49667 1.1161 0
M  V30 9015 C 885.666 0.264139 1.94414 0
M  V30 9016 O 884.791 -0.629084 2.07054 0
M  V30 9017 C 885.386 2.71191 2.03079 0
M  V30 9018 C 883.945 2.7547 2.56502 0
M  V30 9019 C 883.092 2.43119 1.33373 0
M  V30 9020 H 886.043 1.55449 0.319578 0
M  V30 9021 H 886.064 2.49473 2.87304 0
M  V30 9022 H 885.576 3.60879 1.42785 0
M  V30 9023 H 883.677 1.89979 3.20529 0
M  V30 9024 H 883.79 3.76787 2.95919 0
M  V30 9025 H 882.154 1.94187 1.64813 0
M  V30 9026 H 882.937 3.35044 0.748375 0
M  V30 9027 N 885.382 -0.782676 1.36792 0
M  V30 9028 C 886.345 -1.8772 1.31507 0
M  V30 9029 C 887.345 -1.59269 0.221349 0
M  V30 9030 O 888.535 -1.67555 0.476544 0
M  V30 9031 C 885.667 -3.24641 1.04025 0
M  V30 9032 H 886.86 -1.9382 2.28853 0
M  V30 9033 H 884.413 -0.981226 1.21662 0
M  V30 9034 H 885.148 -3.24221 0.0716439 0
M  V30 9035 H 884.933 -3.46681 1.8318 0
M  V30 9036 H 886.423 -4.04711 1.02949 0
M  V30 9037 N 886.86 -1.21182 -1.00761 0
M  V30 9038 C 888.09 -1.05182 -1.77821 0
M  V30 9039 C 888.498 0.401527 -1.8489 0
M  V30 9040 O 887.841 1.29042 -1.30743 0
M  V30 9041 C 887.903 -1.57066 -3.23374 0
M  V30 9042 C 887.567 -3.05491 -3.39889 0
M  V30 9043 C 888.564 -4.03065 -3.28381 0
M  V30 9044 C 886.249 -3.44641 -3.65415 0
M  V30 9045 C 888.243 -5.37778 -3.4216 0
M  V30 9046 C 885.93 -4.79507 -3.78836 0
M  V30 9047 C 886.928 -5.75884 -3.67214 0
M  V30 9048 O 886.616 -7.08304 -3.80212 0
M  V30 9049 H 886.348 -0.369983 -0.565763 0
M  V30 9050 H 888.902 -1.60914 -1.27655 0
M  V30 9051 H 887.132 -0.957273 -3.74664 0
M  V30 9052 H 888.821 -1.36949 -3.82099 0
M  V30 9053 H 889.587 -3.74163 -3.08588 0
M  V30 9054 H 885.466 -2.7016 -3.73544 0
M  V30 9055 H 889.01 -6.12987 -3.33005 0
M  V30 9056 H 884.907 -5.08096 -3.98132 0
M  V30 9057 H 885.675 -7.15677 -3.97175 0
M  V30 9058 N 888.338 1.20213 -1.01915 0
M  V30 9059 C 889.586 1.89272 -0.708552 0
M  V30 9060 C 889.907 1.79394 0.76438 0
M  V30 9061 O 889.177 1.198 1.54999 0
M  V30 9062 H 887.757 0.700628 -0.259094 0
M  V30 9063 H 890.419 1.45985 -1.29129 0
M  V30 9064 H 889.515 2.95841 -0.994215 0
M  V30 9065 N 889.816 0.795718 1.36037 0
M  V30 9066 C 891.065 0.367575 1.98322 0
M  V30 9067 C 891.378 -1.06823 1.63854 0
M  V30 9068 O 892.584 -1.59895 2.19421 0
M  V30 9069 C 891.04 0.606272 3.54757 0
M  V30 9070 C 890.648 2.0539 3.98144 0
M  V30 9071 C 892.392 0.242947 4.23804 0
M  V30 9072 C 890.299 2.23893 5.47381 0
M  V30 9073 H 889.229 0.133699 0.742052 0
M  V30 9074 H 891.88 0.978242 1.5525 0
M  V30 9075 H 890.262 -0.0741957 3.9593 0
M  V30 9076 H 891.436 2.77129 3.68152 0
M  V30 9077 H 889.751 2.37607 3.41953 0
M  V30 9078 H 892.348 0.359382 5.33491 0
M  V30 9079 H 892.691 -0.809661 4.08351 0
M  V30 9080 H 893.224 0.876899 3.88015 0
M  V30 9081 H 889.963 3.27559 5.6779 0
M  V30 9082 H 889.483 1.56666 5.78978 0
M  V30 9083 H 891.162 2.04914 6.13693 0
M  V30 9084 N 891.294 -1.47756 0.548274 0
M  V30 9085 C 892.524 -2.06584 0.0254503 0
M  V30 9086 C 892.932 -1.40268 -1.26971 0
M  V30 9087 O 892.275 -0.49019 -1.77039 0
M  V30 9088 C 892.337 -3.58628 -0.250301 0
M  V30 9089 C 892.001 -4.4693 0.954087 0
M  V30 9090 C 892.998 -4.85592 1.85733 0
M  V30 9091 C 890.683 -4.88573 1.16624 0
M  V30 9092 C 892.677 -5.64686 2.95648 0
M  V30 9093 C 890.364 -5.67435 2.2685 0
M  V30 9094 C 891.362 -6.05401 3.16194 0
M  V30 9095 O 891.05 -6.82676 4.24511 0
M  V30 9096 H 890.782 -0.67489 0.0387264 0
M  V30 9097 H 893.336 -1.90876 0.758663 0
M  V30 9098 H 891.566 -3.72516 -1.03771 0
M  V30 9099 H 893.255 -3.9951 -0.717419 0
M  V30 9100 H 894.021 -4.54026 1.70544 0
M  V30 9101 H 889.9 -4.58494 0.480039 0
M  V30 9102 H 893.444 -5.9424 3.65411 0
M  V30 9103 H 889.341 -5.98413 2.42016 0
M  V30 9104 H 890.109 -7.01057 4.22447 0
M  V30 9105 N 892.772 -0.284283 -1.55015 0
M  V30 9106 C 893.72 0.615091 -2.2432 0
M  V30 9107 C 894.714 1.15051 -1.24337 0
M  V30 9108 O 895.92 1.10308 -1.4224 0
M  V30 9109 H 892.295 0.216927 -0.720033 0
M  V30 9110 H 894.266 0.00783216 -2.98399 0
M  V30 9111 C 893.015 1.78355 -2.98471 0
M  V30 9112 H 892.338 1.38076 -3.752 0
M  V30 9113 H 893.778 2.38927 -3.50271 0
M  V30 9114 C 892.237 2.67757 -2.04469 0
M  V30 9115 O 892.767 3.6838 -1.60185 0
M  V30 9116 N 890.973 2.35125 -1.70776 0
M  V30 9117 H 890.52 1.53346 -2.06985 0
M  V30 9118 H 890.478 2.95212 -1.08153 0
M  V30 9119 N 894.251 1.57596 -0.0117121 0
M  V30 9120 C 895.184 2.04624 1.01016 0
M  V30 9121 C 896.162 0.938437 1.32786 0
M  V30 9122 O 897.346 1.20746 1.44751 0
M  V30 9123 C 894.473 2.45369 2.33477 0
M  V30 9124 C 893.519 3.66998 2.17289 0
M  V30 9125 S 894.352 5.14412 1.48795 0
M  V30 9126 C 895.508 5.58438 2.82662 0
M  V30 9127 H 895.741 2.9098 0.60977 0
M  V30 9128 H 893.274 1.53106 0.199494 0
M  V30 9129 H 895.232 2.69511 3.09635 0
M  V30 9130 H 893.893 1.59391 2.70653 0
M  V30 9131 H 893.086 3.93297 3.15172 0
M  V30 9132 H 892.688 3.42918 1.49275 0
M  V30 9133 H 894.98 5.61614 3.78941 0
M  V30 9134 H 895.923 6.58224 2.61049 0
M  V30 9135 H 896.331 4.86033 2.8711 0
M  V30 9136 N 895.729 -0.261212 1.5542 0
M  V30 9137 C 896.975 -0.988533 1.77763 0
M  V30 9138 C 897.33 -1.83504 0.578286 0
M  V30 9139 O 896.623 -1.8674 -0.428808 0
M  V30 9140 C 896.817 -1.89395 3.03091 0
M  V30 9141 C 896.646 -1.13658 4.351 0
M  V30 9142 C 895.416 -0.847467 4.98143 0
M  V30 9143 C 897.614 -0.52118 5.11652 0
M  V30 9144 N 895.596 -0.0645324 6.13866 0
M  V30 9145 C 896.967 0.127016 6.1987 0
M  V30 9146 C 899.022 -0.430206 4.96038 0
M  V30 9147 C 897.725 0.857433 7.14171 0
M  V30 9148 C 899.751 0.286645 5.90705 0
M  V30 9149 C 899.113 0.923534 6.9832 0
M  V30 9150 H 895.212 -0.343317 0.702608 0
M  V30 9151 H 897.796 -0.263035 1.92915 0
M  V30 9152 H 895.967 -2.5916 2.89293 0
M  V30 9153 H 897.699 -2.55576 3.13788 0
M  V30 9154 H 894.454 -1.15569 4.59283 0
M  V30 9155 H 894.878 0.31461 6.76269 0
M  V30 9156 H 899.52 -0.908278 4.12929 0
M  V30 9157 H 897.238 1.34715 7.96792 0
M  V30 9158 H 900.824 0.357511 5.80701 0
M  V30 9159 H 899.704 1.46939 7.70311 0
M  V30 9160 N 897.207 -1.48554 -0.526253 0
M  V30 9161 C 898.453 -1.56994 -1.28378 0
M  V30 9162 C 898.786 -0.244701 -1.92652 0
M  V30 9163 O 898.061 0.749636 -1.79473 0
M  V30 9164 C 898.344 -2.71092 -2.37026 0
M  V30 9165 C 898.197 -4.13331 -1.77418 0
M  V30 9166 C 899.516 -2.80934 -3.38769 0
M  V30 9167 H 896.635 -0.571466 -0.465398 0
M  V30 9168 H 899.277 -1.80742 -0.585861 0
M  V30 9169 H 897.427 -2.50973 -2.96555 0
M  V30 9170 H 899.099 -4.44899 -1.21912 0
M  V30 9171 H 897.342 -4.20158 -1.07936 0
M  V30 9172 H 898.013 -4.88994 -2.56104 0
M  V30 9173 H 900.489 -2.9917 -2.892 0
M  V30 9174 H 899.365 -3.62489 -4.12181 0
M  V30 9175 H 899.626 -1.89244 -3.99549 0
M  V30 9176 N 898.685 0.775411 -1.37205 0
M  V30 9177 C 899.91 1.5696 -1.35567 0
M  V30 9178 C 900.335 1.88012 0.0575554 0
M  V30 9179 O 899.693 1.48954 1.03355 0
M  V30 9180 C 899.741 2.85886 -2.19776 0
M  V30 9181 O 898.845 3.80103 -1.59987 0
M  V30 9182 H 898.186 0.475583 -0.463375 0
M  V30 9183 H 900.716 0.96001 -1.80679 0
M  V30 9184 H 900.726 3.35024 -2.32859 0
M  V30 9185 H 899.401 2.62613 -3.22502 0
M  V30 9186 H 897.978 3.38736 -1.55924 0
M  V30 9187 N 900.163 1.21714 1.00117 0
M  V30 9188 C 901.093 1.00397 2.10815 0
M  V30 9189 C 902.074 -0.0723502 1.69946 0
M  V30 9190 O 903.259 0.0882398 1.93999 0
M  V30 9191 C 900.389 0.572001 3.42557 0
M  V30 9192 C 899.343 1.59331 3.97237 0
M  V30 9193 C 898.669 1.01746 5.2493 0
M  V30 9194 C 899.969 2.98117 4.28863 0
M  V30 9195 H 901.663 1.92983 2.28906 0
M  V30 9196 H 899.209 0.929273 1.10002 0
M  V30 9197 H 901.162 0.410018 4.19401 0
M  V30 9198 H 899.886 -0.38951 3.24269 0
M  V30 9199 H 898.545 1.74293 3.22518 0
M  V30 9200 H 898.193 0.0475491 5.02978 0
M  V30 9201 H 897.893 1.69969 5.62481 0
M  V30 9202 H 899.417 0.866881 6.04415 0
M  V30 9203 H 900.831 2.86578 4.96534 0
M  V30 9204 H 899.228 3.63389 4.77565 0
M  V30 9205 H 900.298 3.48674 3.36979 0
M  V30 9206 N 901.641 -1.19671 1.02551 0
M  V30 9207 C 902.888 -1.89268 0.720002 0
M  V30 9208 C 903.216 -1.79411 -0.751127 0
M  V30 9209 O 902.471 -1.17859 -1.5623 0
M  V30 9210 C 902.77 -3.39647 1.11241 0
M  V30 9211 C 902.436 -3.69706 2.58125 0
M  V30 9212 C 901.098 -3.7762 2.98256 0
M  V30 9213 C 903.45 -3.83301 3.53171 0
M  V30 9214 C 900.778 -3.96594 4.32354 0
M  V30 9215 C 903.13 -4.03788 4.86968 0
M  V30 9216 C 901.794 -4.09934 5.26793 0
M  V30 9217 H 901.064 -0.692579 0.263467 0
M  V30 9218 H 903.711 -1.41738 1.28774 0
M  V30 9219 H 902.016 -3.89052 0.463234 0
M  V30 9220 H 903.713 -3.91809 0.853602 0
M  V30 9221 H 900.303 -3.64152 2.26033 0
M  V30 9222 H 904.487 -3.76534 3.2332 0
M  V30 9223 H 899.743 -3.9959 4.6275 0
M  V30 9224 H 903.917 -4.1325 5.60533 0
M  V30 9225 H 901.544 -4.24389 6.30712 0
M  V30 9226 N 903.119 -0.802921 -1.35613 0
M  V30 9227 C 904.367 -0.380822 -1.9848 0
M  V30 9228 C 904.688 1.05464 -1.6402 0
M  V30 9229 O 903.958 1.72908 -0.920854 0
M  V30 9230 H 902.538 -0.137824 -0.734176 0
M  V30 9231 H 905.2 -1.02795 -1.65587 0
M  V30 9232 H 904.296 -0.483565 -3.08331 0
M  V30 9233 N 904.597 1.47463 -0.556102 0
M  V30 9234 C 905.56 2.28478 0.181743 0
M  V30 9235 C 906.56 1.36886 0.843738 0
M  V30 9236 O 907.75 1.59527 0.69977 0
M  V30 9237 C 904.882 3.16534 1.26566 0
M  V30 9238 H 906.075 2.95182 -0.529892 0
M  V30 9239 H 903.628 1.53134 -0.313005 0
M  V30 9240 H 904.363 2.5452 2.00973 0
M  V30 9241 H 904.148 3.83939 0.795798 0
M  V30 9242 H 905.638 3.77579 1.78393 0
M  V30 9243 N 906.075 0.2925 1.54862 0
M  V30 9244 C 907.321 -0.319736 2.00264 0
M  V30 9245 C 907.654 -1.5419 1.18064 0
M  V30 9246 O 906.929 -1.92821 0.254983 0
M  V30 9247 C 907.212 -0.684753 3.5353 0
M  V30 9248 C 907.065 0.545961 4.46474 0
M  V30 9249 C 908.384 -1.51456 4.13218 0
M  V30 9250 H 905.503 -0.11474 0.728014 0
M  V30 9251 H 908.145 0.402907 1.85679 0
M  V30 9252 H 906.295 -1.30044 3.66089 0
M  V30 9253 H 907.967 1.18448 4.45834 0
M  V30 9254 H 906.21 1.1808 4.1742 0
M  V30 9255 H 906.881 0.246544 5.51449 0
M  V30 9256 H 909.357 -0.994421 4.04043 0
M  V30 9257 H 908.233 -1.73875 5.20633 0
M  V30 9258 H 908.494 -2.5011 3.64551 0
M  V30 9259 N 907.553 -1.57587 0.0200696 0
M  V30 9260 C 908.483 -2.12702 -0.963333 0
M  V30 9261 C 909.464 -1.04094 -1.34531 0
M  V30 9262 O 910.649 -1.31881 -1.42552 0
M  V30 9263 C 907.779 -2.64673 -2.24868 0
M  V30 9264 C 906.733 -3.77987 -2.00772 0
M  V30 9265 C 906.059 -4.16351 -3.35494 0
M  V30 9266 C 907.359 -5.0444 -1.35416 0
M  V30 9267 H 909.053 -2.95121 -0.504363 0
M  V30 9268 H 906.599 -1.41966 -0.24116 0
M  V30 9269 H 908.552 -3.01862 -2.94036 0
M  V30 9270 H 907.276 -1.79403 -2.72914 0
M  V30 9271 H 905.935 -3.41223 -1.34025 0
M  V30 9272 H 905.583 -3.28075 -3.81282 0
M  V30 9273 H 905.283 -4.92705 -3.20181 0
M  V30 9274 H 906.807 -4.56115 -4.05945 0
M  V30 9275 H 908.221 -5.39273 -1.94571 0
M  V30 9276 H 906.618 -5.85732 -1.30529 0
M  V30 9277 H 907.688 -4.83803 -0.325923 0
M  V30 9278 N 909.032 0.252966 -1.55557 0
M  V30 9279 C 910.272 0.989276 -1.78865 0
M  V30 9280 C 910.636 1.82755 -0.588615 0
M  V30 9281 O 911.837 2.59516 -0.700347 0
M  V30 9282 C 910.108 1.83203 -3.06874 0
M  V30 9283 S 911.667 2.62826 -3.5138 0
M  V30 9284 H 908.485 0.332863 -0.62827 0
M  V30 9285 H 911.087 0.257716 -1.93794 0
M  V30 9286 H 909.791 1.20579 -3.92287 0
M  V30 9287 H 909.322 2.60644 -2.94666 0
M  V30 9288 H 911.337 3.85648 -3.12234 0
M  V30 9289 N 910.51 1.48831 0.518367 0
M  V30 9290 C 911.75 1.59045 1.28391 0
M  V30 9291 C 912.114 0.263443 1.90184 0
M  V30 9292 O 913.315 0.24064 2.67721 0
M  V30 9293 C 911.586 2.70536 2.33548 0
M  V30 9294 S 913.145 3.00591 3.19673 0
M  V30 9295 H 909.963 0.561182 0.436573 0
M  V30 9296 H 912.565 1.86409 0.589222 0
M  V30 9297 H 911.269 3.65499 1.86652 0
M  V30 9298 H 910.8 2.4511 3.07708 0
M  V30 9299 H 912.815 2.40779 4.33866 0
M  V30 9300 N 911.988 -0.768124 1.37614 0
M  V30 9301 C 912.951 -1.86314 1.3349 0
M  V30 9302 C 913.951 -1.59025 0.23823 0
M  V30 9303 O 915.141 -1.6704 0.494288 0
M  V30 9304 C 912.273 -3.23519 1.07462 0
M  V30 9305 H 913.466 -1.91382 2.30896 0
M  V30 9306 H 911.019 -0.968267 1.22696 0
M  V30 9307 H 911.754 -3.24127 0.106028 0
M  V30 9308 H 911.539 -3.44719 1.86846 0
M  V30 9309 H 913.029 -4.03597 1.07236 0
M  V30 9310 N 913.466 -1.22244 -0.994698 0
M  V30 9311 C 914.712 -1.04746 -1.73655 0
M  V30 9312 C 915.045 0.41668 -1.89677 0
M  V30 9313 O 914.32 1.30897 -1.43862 0
M  V30 9314 C 914.603 -1.75716 -3.14318 0
M  V30 9315 C 914.456 -3.29714 -3.05955 0
M  V30 9316 C 915.775 -1.50809 -4.13455 0
M  V30 9317 H 912.894 -0.381921 -0.630322 0
M  V30 9318 H 915.536 -1.50559 -1.15897 0
M  V30 9319 H 913.686 -1.3677 -3.63629 0
M  V30 9320 H 915.358 -3.78093 -2.64279 0
M  V30 9321 H 913.601 -3.59484 -2.42804 0
M  V30 9322 H 914.272 -3.74547 -4.05485 0
M  V30 9323 H 916.748 -1.84636 -3.72892 0
M  V30 9324 H 915.624 -2.02964 -5.09997 0
M  V30 9325 H 915.885 -0.440292 -4.39902 0
M  V30 9326 N 914.944 1.19125 -1.03184 0
M  V30 9327 C 915.877 2.21229 -0.559739 0
M  V30 9328 C 916.855 1.57578 0.400998 0
M  V30 9329 O 918.039 1.85809 0.317399 0
M  V30 9330 C 915.166 3.38203 0.183442 0
M  V30 9331 C 914.212 4.2022 -0.729182 0
M  V30 9332 S 915.045 4.87903 -2.20706 0
M  V30 9333 C 916.201 6.08284 -1.47448 0
M  V30 9334 H 916.434 2.60932 -1.42484 0
M  V30 9335 H 913.967 1.29419 -0.842028 0
M  V30 9336 H 915.925 4.06001 0.606084 0
M  V30 9337 H 914.586 2.96929 1.02432 0
M  V30 9338 H 913.779 5.03761 -0.155272 0
M  V30 9339 H 913.381 3.57755 -1.09028 0
M  V30 9340 H 915.673 6.73193 -0.762687 0
M  V30 9341 H 916.616 6.70165 -2.28659 0
M  V30 9342 H 917.024 5.56092 -0.97068 0
M  V30 9343 N 916.422 0.810101 1.35185 0
M  V30 9344 C 917.669 0.392117 1.98667 0
M  V30 9345 C 917.997 -1.0416 1.64259 0
M  V30 9346 O 917.252 -1.73795 0.899647 0
M  V30 9347 C 917.551 0.526561 3.535 0
M  V30 9348 C 917.217 1.92411 4.07785 0
M  V30 9349 C 915.879 2.30644 4.22323 0
M  V30 9350 C 918.231 2.83827 4.37141 0
M  V30 9351 C 915.559 3.59655 4.63536 0
M  V30 9352 C 917.911 4.12287 4.79794 0
M  V30 9353 C 916.575 4.50515 4.92536 0
M  V30 9354 H 915.845 0.143486 0.726975 0
M  V30 9355 H 918.492 1.03157 1.61341 0
M  V30 9356 H 916.797 -0.19633 3.91308 0
M  V30 9357 H 918.494 0.183871 4.00578 0
M  V30 9358 H 915.084 1.61707 3.96924 0
M  V30 9359 H 919.268 2.55536 4.25459 0
M  V30 9360 H 914.524 3.89117 4.71591 0
M  V30 9361 H 918.698 4.83221 5.01468 0
M  V30 9362 H 916.325 5.50535 5.24229 0
M  V30 9363 N 917.9 -1.47166 0.563914 0
M  V30 9364 C 919.146 -2.02756 0.0424338 0
M  V30 9365 C 919.479 -1.43662 -1.3067 0
M  V30 9366 O 918.754 -0.594676 -1.85186 0
M  V30 9367 C 919.037 -3.60074 -0.0434793 0
M  V30 9368 C 918.89 -4.29587 1.33323 0
M  V30 9369 C 920.209 -4.336 -0.753568 0
M  V30 9370 H 917.328 -0.736806 0.0168946 0
M  V30 9371 H 919.97 -1.75521 0.727496 0
M  V30 9372 H 918.12 -3.83409 -0.626906 0
M  V30 9373 H 919.792 -4.17573 1.96037 0
M  V30 9374 H 918.035 -3.8968 1.9061 0
M  V30 9375 H 918.706 -5.38218 1.22576 0
M  V30 9376 H 921.182 -4.15299 -0.258126 0
M  V30 9377 H 920.058 -5.43291 -0.782659 0
M  V30 9378 H 920.319 -4.03302 -1.81108 0
M  V30 9379 N 919.378 -0.300708 -1.54705 0
M  V30 9380 C 920.627 0.309428 -1.99312 0
M  V30 9381 C 920.94 1.55027 -1.19272 0
M  V30 9382 O 922.146 2.23498 -1.54146 0
M  V30 9383 C 920.602 0.601856 -3.54832 0
M  V30 9384 C 920.21 -0.620636 -4.4368 0
M  V30 9385 C 921.954 1.1732 -4.07966 0
M  V30 9386 C 919.861 -0.301376 -5.90632 0
M  V30 9387 H 918.791 0.119395 -0.744487 0
M  V30 9388 H 921.442 -0.409368 -1.78875 0
M  V30 9389 H 919.824 1.38024 -3.71168 0
M  V30 9390 H 920.998 -1.39685 -4.39118 0
M  V30 9391 H 919.313 -1.1106 -4.01316 0
M  V30 9392 H 921.91 1.42631 -5.15326 0
M  V30 9393 H 922.253 2.11537 -3.5855 0
M  V30 9394 H 922.786 0.456534 -3.95172 0
M  V30 9395 H 919.525 -1.21209 -6.44196 0
M  V30 9396 H 919.045 0.437574 -5.98202 0
M  V30 9397 H 920.724 0.097164 -6.46927 0
M  V30 9398 N 920.856 1.57574 -0.0284266 0
M  V30 9399 C 921.804 2.11332 0.971675 0
M  V30 9400 C 922.798 1.03974 1.33738 0
M  V30 9401 O 924.004 1.22409 1.31969 0
M  V30 9402 H 920.379 0.675174 0.331125 0
M  V30 9403 H 922.35 2.943 0.49296 0
M  V30 9404 C 921.099 2.65496 2.24516 0
M  V30 9405 H 920.422 3.47753 1.9725 0
M  V30 9406 H 921.862 3.06757 2.92705 0
M  V30 9407 C 920.321 1.58207 2.97443 0
M  V30 9408 O 920.851 0.981496 3.89525 0
M  V30 9409 N 919.057 1.30269 2.59766 0
M  V30 9410 H 918.604 1.79294 1.84963 0
M  V30 9411 H 918.562 0.587085 3.0887 0
M  V30 9412 N 922.334 -0.244713 1.55689 0
M  V30 9413 C 923.58 -0.969623 1.78801 0
M  V30 9414 C 923.935 -1.8288 0.597716 0
M  V30 9415 O 923.228 -1.87184 -0.408978 0
M  V30 9416 C 923.422 -1.8617 3.05083 0
M  V30 9417 C 923.251 -1.09036 4.36281 0
M  V30 9418 C 922.021 -0.794585 4.99013 0
M  V30 9419 C 924.219 -0.466883 5.12176 0
M  V30 9420 N 922.201 0.000579944 6.139 0
M  V30 9421 C 923.572 0.192755 6.197 0
M  V30 9422 C 925.627 -0.377571 4.96466 0
M  V30 9423 C 924.33 0.933132 7.13222 0
M  V30 9424 C 926.356 0.349281 5.90368 0
M  V30 9425 C 925.718 0.997549 6.97301 0
M  V30 9426 H 921.817 -0.335845 0.70621 0
M  V30 9427 H 924.401 -0.242559 1.93183 0
M  V30 9428 H 922.572 -2.56077 2.92026 0
M  V30 9429 H 924.304 -2.52234 3.16481 0
M  V30 9430 H 921.059 -1.10691 4.60483 0
M  V30 9431 H 921.483 0.38632 6.75897 0
M  V30 9432 H 926.125 -0.86443 4.13869 0
M  V30 9433 H 923.843 1.43159 7.95318 0
M  V30 9434 H 927.429 0.419082 5.80289 0
M  V30 9435 H 926.309 1.551 7.68709 0
M  V30 9436 N 923.813 -1.49104 -0.510467 0
M  V30 9437 C 925.059 -1.59322 -1.26444 0
M  V30 9438 C 925.414 -0.27219 -1.90465 0
M  V30 9439 O 924.707 0.726762 -1.77281 0
M  V30 9440 C 924.901 -2.68259 -2.36161 0
M  V30 9441 C 924.73 -4.10827 -1.82897 0
M  V30 9442 C 923.5 -4.77732 -1.64623 0
M  V30 9443 C 925.698 -4.96367 -1.34625 0
M  V30 9444 N 923.68 -6.04646 -1.06189 0
M  V30 9445 C 925.051 -6.13685 -0.882656 0
M  V30 9446 C 927.106 -4.8244 -1.2311 0
M  V30 9447 C 925.809 -7.18609 -0.315306 0
M  V30 9448 C 927.835 -5.87504 -0.677726 0
M  V30 9449 C 927.197 -7.04043 -0.224308 0
M  V30 9450 H 923.296 -0.637429 -0.453 0
M  V30 9451 H 925.88 -1.8607 -0.573237 0
M  V30 9452 H 924.051 -2.433 -3.02753 0
M  V30 9453 H 925.783 -2.68052 -3.032 0
M  V30 9454 H 922.538 -4.34377 -1.88716 0
M  V30 9455 H 922.962 -6.72383 -0.78927 0
M  V30 9456 H 927.604 -3.92663 -1.56766 0
M  V30 9457 H 925.322 -8.08093 0.0335425 0
M  V30 9458 H 928.908 -5.78785 -0.591535 0
M  V30 9459 H 927.788 -7.83952 0.197212 0
M  V30 9460 N 925.291 0.760815 -1.38019 0
M  V30 9461 C 926.254 1.85604 -1.34476 0
M  V30 9462 C 927.254 1.58897 -0.24666 0
M  V30 9463 O 928.444 1.66776 -0.50314 0
M  V30 9464 C 925.576 3.22945 -1.09176 0
M  V30 9465 H 926.769 1.90155 -2.31908 0
M  V30 9466 H 924.322 0.961746 -1.23208 0
M  V30 9467 H 925.057 3.24066 -0.123216 0
M  V30 9468 H 924.842 3.43723 -1.88672 0
M  V30 9469 H 926.332 4.03022 -1.09375 0
M  V30 9470 N 926.769 1.22769 0.988202 0
M  V30 9471 C 927.732 1.00325 2.06076 0
M  V30 9472 C 928.732 -0.0320618 1.60768 0
M  V30 9473 O 929.922 0.206912 1.72967 0
M  V30 9474 C 927.054 0.516376 3.36966 0
M  V30 9475 H 928.247 1.95499 2.27421 0
M  V30 9476 H 925.8 1.04704 1.16047 0
M  V30 9477 H 926.535 -0.439498 3.21308 0
M  V30 9478 H 926.32 1.26337 3.71189 0
M  V30 9479 H 927.81 0.37974 4.1587 0
M  V30 9480 N 928.247 -1.18576 1.03814 0
M  V30 9481 C 929.493 -1.88773 0.741132 0
M  V30 9482 C 929.826 -1.79993 -0.729127 0
M  V30 9483 O 929.101 -1.19851 -1.53186 0
M  V30 9484 C 929.384 -3.39352 1.20468 0
M  V30 9485 C 929.237 -3.56955 2.73684 0
M  V30 9486 C 930.556 -4.32901 0.792741 0
M  V30 9487 H 927.675 -0.685482 0.270708 0
M  V30 9488 H 930.317 -1.39523 1.2897 0
M  V30 9489 H 928.467 -3.81427 0.737974 0
M  V30 9490 H 930.139 -3.2399 3.28372 0
M  V30 9491 H 928.382 -2.99696 3.13632 0
M  V30 9492 H 929.053 -4.62598 3.01176 0
M  V30 9493 H 931.529 -3.98592 1.1943 0
M  V30 9494 H 930.405 -5.36828 1.14486 0
M  V30 9495 H 930.666 -4.41052 -0.304295 0
M  V30 9496 N 929.725 -0.817259 -1.34754 0
M  V30 9497 C 930.974 -0.39908 -1.97713 0
M  V30 9498 C 931.287 1.04203 -1.65533 0
M  V30 9499 O 932.493 1.56384 -2.21937 0
M  V30 9500 C 930.949 -0.662634 -3.53747 0
M  V30 9501 C 930.557 -2.11699 -3.94826 0
M  V30 9502 C 932.301 -0.31034 -4.23364 0
M  V30 9503 C 930.208 -2.32573 -5.4375 0
M  V30 9504 H 929.138 -0.145488 -0.739831 0
M  V30 9505 H 931.789 -1.00282 -1.53674 0
M  V30 9506 H 930.171 0.0111972 -3.95998 0
M  V30 9507 H 931.345 -2.82951 -3.63697 0
M  V30 9508 H 929.66 -2.43017 -3.3813 0
M  V30 9509 H 932.257 -0.44421 -5.32852 0
M  V30 9510 H 932.6 0.744594 -4.09587 0
M  V30 9511 H 933.133 -0.938518 -3.8657 0
M  V30 9512 H 929.872 -3.36551 -5.62507 0
M  V30 9513 H 929.392 -1.65858 -5.76412 0
M  V30 9514 H 931.071 -2.14651 -6.10356 0
M  V30 9515 N 931.203 1.46865 -0.571711 0
M  V30 9516 C 932.431 2.06818 -0.0583975 0
M  V30 9517 C 932.846 1.42218 1.24175 0
M  V30 9518 O 932.203 0.523655 1.74826 0
M  V30 9519 C 932.254 3.61281 0.125673 0
M  V30 9520 O 931.975 4.23462 -1.123 0
M  V30 9521 C 933.476 4.38137 0.674604 0
M  V30 9522 H 930.696 0.668948 -0.052438 0
M  V30 9523 H 933.24 1.88656 -0.789251 0
M  V30 9524 H 931.395 3.78908 0.806707 0
M  V30 9525 H 931.809 5.16192 -0.929869 0
M  V30 9526 H 933.283 5.46845 0.752626 0
M  V30 9527 H 933.76 4.05419 1.68915 0
M  V30 9528 H 934.366 4.2529 0.0287979 0
M  V30 9529 N 932.681 0.308908 1.54543 0
M  V30 9530 C 933.911 -0.299983 2.04411 0
M  V30 9531 C 934.319 -1.47463 1.18538 0
M  V30 9532 O 933.662 -1.82547 0.205463 0
M  V30 9533 C 933.724 -0.811579 3.50219 0
M  V30 9534 C 933.388 0.238834 4.56375 0
M  V30 9535 C 934.385 1.06997 5.08771 0
M  V30 9536 C 932.07 0.382808 5.00839 0
M  V30 9537 C 934.064 2.03096 6.04178 0
M  V30 9538 C 931.751 1.34723 5.96065 0
M  V30 9539 C 932.749 2.16978 6.47618 0
M  V30 9540 O 932.437 3.11783 7.40977 0
M  V30 9541 H 932.169 -0.0679682 0.672574 0
M  V30 9542 H 934.723 0.448815 2.00437 0
M  V30 9543 H 932.953 -1.61104 3.51543 0
M  V30 9544 H 934.642 -1.33721 3.83241 0
M  V30 9545 H 935.408 0.969654 4.75208 0
M  V30 9546 H 931.287 -0.247507 4.60335 0
M  V30 9547 H 934.831 2.67338 6.44342 0
M  V30 9548 H 930.728 1.44824 6.29044 0
M  V30 9549 H 931.496 3.06853 7.58804 0
M  V30 9550 N 934.159 -1.57557 0.0367827 0
M  V30 9551 C 935.405 -1.92399 -0.641133 0
M  V30 9552 C 935.738 -0.914191 -1.71336 0
M  V30 9553 O 935.013 0.0619616 -1.94401 0
M  V30 9554 C 935.296 -3.37689 -1.25052 0
M  V30 9555 C 935.149 -4.4941 -0.187326 0
M  V30 9556 C 936.468 -3.8309 -2.16634 0
M  V30 9557 H 933.587 -0.699666 -0.231597 0
M  V30 9558 H 936.229 -1.89759 0.0956083 0
M  V30 9559 H 934.379 -3.40069 -1.87843 0
M  V30 9560 H 936.051 -4.59161 0.443736 0
M  V30 9561 H 934.294 -4.31065 0.486313 0
M  V30 9562 H 934.965 -5.48119 -0.653459 0
M  V30 9563 H 937.441 -3.82494 -1.63821 0
M  V30 9564 H 936.317 -4.85429 -2.56222 0
M  V30 9565 H 936.578 -3.19028 -3.06062 0
M  V30 9566 N 935.637 0.236453 -1.55816 0
M  V30 9567 C 936.886 0.960981 -1.77336 0
M  V30 9568 C 937.199 1.86085 -0.602641 0
M  V30 9569 O 938.405 2.62291 -0.701106 0
M  V30 9570 C 936.861 1.75884 -3.13995 0
M  V30 9571 C 936.469 0.905849 -4.38746 0
M  V30 9572 C 938.213 2.47548 -3.44848 0
M  V30 9573 C 936.12 1.7002 -5.66434 0
M  V30 9574 H 935.05 0.362547 -0.661117 0
M  V30 9575 H 937.701 0.215303 -1.82233 0
M  V30 9576 H 936.083 2.54687 -3.03234 0
M  V30 9577 H 937.257 0.159415 -4.60524 0
M  V30 9578 H 935.572 0.30205 -4.15303 0
M  V30 9579 H 938.169 3.07452 -4.37467 0
M  V30 9580 H 938.512 3.19689 -2.66655 0
M  V30 9581 H 939.045 1.75747 -3.56872 0
M  V30 9582 H 935.784 1.02234 -6.47479 0
M  V30 9583 H 935.304 2.42164 -5.48741 0
M  V30 9584 H 936.983 2.26469 -6.0607 0
M  V30 9585 N 937.115 1.49373 0.502552 0
M  V30 9586 C 938.025 1.68659 1.63068 0
M  V30 9587 C 939.041 0.569182 1.64427 0
M  V30 9588 O 940.217 0.843695 1.82876 0
M  V30 9589 C 937.282 1.74745 2.99441 0
M  V30 9590 C 936.343 2.98311 3.08721 0
M  V30 9591 C 935.576 3.04097 4.38589 0
M  V30 9592 O 935.799 2.17519 5.27297 0
M  V30 9593 O 934.733 3.96544 4.52809 0
M  V30 9594 H 938.559 2.64226 1.49727 0
M  V30 9595 H 936.144 1.33096 0.67867 0
M  V30 9596 H 938.026 1.8111 3.80496 0
M  V30 9597 H 936.701 0.823565 3.13048 0
M  V30 9598 H 935.608 2.97465 2.2686 0
M  V30 9599 H 936.941 3.90174 3.00041 0
M  V30 9600 N 938.594 -0.753485 1.38421 0
M  V30 9601 C 939.841 -1.51261 1.34634 0
M  V30 9602 C 940.169 -1.94396 -0.0635771 0
M  V30 9603 O 939.424 -1.65736 -1.04068 0
M  V30 9604 C 939.723 -2.77836 2.24816 0
M  V30 9605 C 939.389 -2.53662 3.72782 0
M  V30 9606 C 938.051 -2.46779 4.13103 0
M  V30 9607 C 940.403 -2.32548 4.66445 0
M  V30 9608 C 937.731 -2.16796 5.45176 0
M  V30 9609 C 940.083 -2.04085 5.98775 0
M  V30 9610 C 938.747 -1.95658 6.3818 0
M  V30 9611 H 938.017 -0.553503 0.492661 0
M  V30 9612 H 940.664 -0.866406 1.7078 0
M  V30 9613 H 938.969 -3.47106 1.81726 0
M  V30 9614 H 940.666 -3.35793 2.19189 0
M  V30 9615 H 937.256 -2.59891 3.40815 0
M  V30 9616 H 941.44 -2.36845 4.3614 0
M  V30 9617 H 936.696 -2.0878 5.74648 0
M  V30 9618 H 940.87 -1.86751 6.70893 0
M  V30 9619 H 938.497 -1.7219 7.40442 0
M  V30 9620 N 940.072 -1.23292 -0.981677 0
M  V30 9621 C 941.319 -1.06424 -1.72279 0
M  V30 9622 C 941.647 0.399055 -1.90362 0
M  V30 9623 O 940.902 1.31181 -1.45224 0
M  V30 9624 C 941.201 -1.73339 -3.12551 0
M  V30 9625 C 940.867 -3.23256 -3.14351 0
M  V30 9626 C 939.529 -3.64159 -3.14549 0
M  V30 9627 C 941.881 -4.1916 -3.09765 0
M  V30 9628 C 939.209 -4.99428 -3.07877 0
M  V30 9629 C 941.561 -5.54419 -3.04635 0
M  V30 9630 C 940.225 -5.94688 -3.03154 0
M  V30 9631 H 939.495 -0.389434 -0.630415 0
M  V30 9632 H 942.142 -1.53208 -1.1489 0
M  V30 9633 H 940.447 -1.18911 -3.73319 0
M  V30 9634 H 942.144 -1.57767 -3.68661 0
M  V30 9635 H 938.734 -2.90693 -3.14953 0
M  V30 9636 H 942.918 -3.88569 -3.08753 0
M  V30 9637 H 938.174 -5.29844 -3.05083 0
M  V30 9638 H 942.348 -6.28448 -3.00043 0
M  V30 9639 H 939.975 -6.99468 -2.97739 0
M  V30 9640 N 941.55 1.18024 -1.04442 0
M  V30 9641 C 942.48 2.23988 -0.659683 0
M  V30 9642 C 943.461 1.6669 0.338904 0
M  V30 9643 O 944.646 1.92971 0.21817 0
M  V30 9644 C 941.776 3.4729 -0.0257672 0
M  V30 9645 C 940.73 4.17362 -0.948299 0
M  V30 9646 C 940.056 5.34401 -0.17866 0
M  V30 9647 C 941.356 4.70435 -2.26909 0
M  V30 9648 H 943.05 2.56425 -1.54553 0
M  V30 9649 H 940.596 1.23256 -0.744575 0
M  V30 9650 H 942.549 4.20627 0.255131 0
M  V30 9651 H 941.273 3.14098 0.894981 0
M  V30 9652 H 939.932 3.45928 -1.21364 0
M  V30 9653 H 939.58 4.97458 0.744614 0
M  V30 9654 H 939.28 5.8222 -0.793294 0
M  V30 9655 H 940.804 6.10526 0.0951315 0
M  V30 9656 H 942.218 5.35447 -2.04864 0
M  V30 9657 H 940.615 5.28803 -2.83703 0
M  V30 9658 H 941.685 3.87653 -2.91296 0
M  V30 9659 N 943.028 0.824394 1.34319 0
M  V30 9660 C 944.258 0.425576 2.02169 0
M  V30 9661 C 944.666 -0.973596 1.62227 0
M  V30 9662 O 944.009 -1.64173 0.824199 0
M  V30 9663 C 944.071 0.449902 3.56674 0
M  V30 9664 C 943.735 1.80266 4.19944 0
M  V30 9665 C 944.732 2.76373 4.40357 0
M  V30 9666 C 942.417 2.09155 4.56683 0
M  V30 9667 C 944.411 3.9954 4.96635 0
M  V30 9668 C 942.098 3.32581 5.12672 0
M  V30 9669 C 943.096 4.27591 5.32592 0
M  V30 9670 O 942.784 5.48837 5.87395 0
M  V30 9671 H 942.516 0.168866 0.654569 0
M  V30 9672 H 945.07 1.11441 1.7254 0
M  V30 9673 H 943.3 -0.295631 3.85568 0
M  V30 9674 H 944.989 0.0709302 4.05838 0
M  V30 9675 H 945.755 2.55351 4.12336 0
M  V30 9676 H 941.634 1.36004 4.40481 0
M  V30 9677 H 945.178 4.73709 5.12099 0
M  V30 9678 H 941.075 3.53466 5.40122 0
M  V30 9679 H 941.843 5.50377 6.05828 0
M  V30 9680 N 944.506 -1.46559 0.579492 0
M  V30 9681 C 945.752 -2.02699 0.0639363 0
M  V30 9682 C 946.085 -1.4504 -1.29139 0
M  V30 9683 O 945.36 -0.614284 -1.84545 0
M  V30 9684 C 945.643 -3.601 -0.00528618 0
M  V30 9685 C 945.496 -4.28149 1.37871 0
M  V30 9686 C 946.815 -4.34375 -0.707537 0
M  V30 9687 H 943.934 -0.736586 0.0247085 0
M  V30 9688 H 946.576 -1.74739 0.746071 0
M  V30 9689 H 944.726 -3.84052 -0.586206 0
M  V30 9690 H 946.398 -4.1547 2.00455 0
M  V30 9691 H 944.641 -3.87636 1.94732 0
M  V30 9692 H 945.312 -5.36888 1.28278 0
M  V30 9693 H 947.788 -4.15549 -0.214064 0
M  V30 9694 H 946.664 -5.44091 -0.724992 0
M  V30 9695 H 946.925 -4.052 -1.7682 0
M  V30 9696 N 945.984 -0.3171 -1.54377 0
M  V30 9697 C 947.214 0.289138 -2.04567 0
M  V30 9698 C 947.622 1.46833 -1.19318 0
M  V30 9699 O 946.965 1.82436 -0.215141 0
M  V30 9700 C 947.027 0.792994 -3.50645 0
M  V30 9701 C 946.691 -0.263033 -4.56242 0
M  V30 9702 C 947.688 -1.09694 -5.08196 0
M  V30 9703 C 945.373 -0.409364 -5.00629 0
M  V30 9704 C 947.367 -2.06297 -6.03092 0
M  V30 9705 C 945.054 -1.37882 -5.95342 0
M  V30 9706 C 946.052 -2.20409 -6.46459 0
M  V30 9707 O 945.74 -3.15708 -7.39313 0
M  V30 9708 H 945.472 0.0644005 -0.672925 0
M  V30 9709 H 948.026 -0.459438 -2.00196 0
M  V30 9710 H 946.256 1.59237 -3.52392 0
M  V30 9711 H 947.945 1.31687 -3.83944 0
M  V30 9712 H 948.711 -0.994842 -4.74687 0
M  V30 9713 H 944.59 0.223091 -4.6046 0
M  V30 9714 H 948.134 -2.70751 -6.42915 0
M  V30 9715 H 944.031 -1.48158 -6.28267 0
M  V30 9716 H 944.799 -3.10873 -7.57166 0
M  V30 9717 N 947.462 1.57535 -0.0451378 0
M  V30 9718 C 948.708 1.92736 0.630921 0
M  V30 9719 C 949.041 0.923265 1.70849 0
M  V30 9720 O 948.316 -0.0516512 1.94431 0
M  V30 9721 C 948.599 3.38348 1.23259 0
M  V30 9722 C 948.452 4.49503 0.16349 0
M  V30 9723 C 949.771 3.84233 2.14599 0
M  V30 9724 H 946.89 0.700884 0.227883 0
M  V30 9725 H 949.532 1.89706 -0.10567 0
M  V30 9726 H 947.682 3.41061 1.86037 0
M  V30 9727 H 949.354 4.58919 -0.46808 0
M  V30 9728 H 947.597 4.30802 -0.509166 0
M  V30 9729 H 948.268 5.48457 0.624382 0
M  V30 9730 H 950.744 3.83358 1.6179 0
M  V30 9731 H 949.62 4.86781 2.53644 0
M  V30 9732 H 949.881 3.20646 3.04366 0
M  V30 9733 N 948.94 -0.228186 1.55939 0
M  V30 9734 C 950.168 -0.970618 1.8272 0
M  V30 9735 C 950.583 -1.78212 0.623385 0
M  V30 9736 O 949.94 -1.77879 -0.408063 0
M  V30 9737 C 949.991 -1.89352 3.07942 0
M  V30 9738 O 949.712 -1.11483 4.23678 0
M  V30 9739 C 951.213 -2.75039 3.47661 0
M  V30 9740 H 948.433 -0.284772 0.607574 0
M  V30 9741 H 950.977 -0.245419 2.03022 0
M  V30 9742 H 949.132 -2.57275 2.89635 0
M  V30 9743 H 949.546 -1.74073 4.94772 0
M  V30 9744 H 951.02 -3.35511 4.38334 0
M  V30 9745 H 951.497 -3.471 2.69106 0
M  V30 9746 H 952.103 -2.1254 3.68384 0
M  V30 9747 N 950.418 -1.49637 -0.494624 0
M  V30 9748 C 951.658 -1.61067 -1.25844 0
M  V30 9749 C 952.022 -0.293666 -1.89741 0
M  V30 9750 O 953.223 -0.283202 -2.67304 0
M  V30 9751 C 951.494 -2.74218 -2.29215 0
M  V30 9752 S 953.053 -3.05639 -3.1485 0
M  V30 9753 H 949.871 -0.568056 -0.42759 0
M  V30 9754 H 952.473 -1.87323 -0.559491 0
M  V30 9755 H 951.177 -3.68422 -1.80813 0
M  V30 9756 H 950.708 -2.49975 -3.0377 0
M  V30 9757 H 952.723 -2.47651 -4.29981 0
M  V30 9758 N 951.896 0.746133 -1.38819 0
M  V30 9759 C 952.843 1.86001 -1.36647 0
M  V30 9760 C 953.813 1.6453 -0.227849 0
M  V30 9761 O 954.998 1.86092 -0.421241 0
M  V30 9762 C 952.138 3.23388 -1.20474 0
M  V30 9763 C 951.251 3.5664 -2.43786 0
M  V30 9764 C 950.386 4.8337 -2.20287 0
M  V30 9765 C 949.425 5.09431 -3.39332 0
M  V30 9766 N 948.562 6.2736 -3.1522 0
M  V30 9767 H 953.402 1.87192 -2.31869 0
M  V30 9768 H 950.939 0.914838 -1.15192 0
M  V30 9769 H 952.897 4.02679 -1.09112 0
M  V30 9770 H 951.527 3.21505 -0.288874 0
M  V30 9771 H 950.579 2.72135 -2.65794 0
M  V30 9772 H 951.891 3.71823 -3.3249 0
M  V30 9773 H 951.045 5.70619 -2.06103 0
M  V30 9774 H 949.784 4.70341 -1.28961 0
M  V30 9775 H 948.789 4.20648 -3.54027 0
M  V30 9776 H 950.014 5.24354 -4.31544 0
M  V30 9777 H 947.96 6.15639 -2.26549 0
M  V30 9778 H 947.877 6.43078 -3.97476 0
M  V30 9779 H 949.145 7.17477 -3.04707 0
M  V30 9780 N 953.375 1.23811 0.975125 0
M  V30 9781 C 954.322 1.02394 2.06843 0
M  V30 9782 C 955.292 -0.060337 1.6599 0
M  V30 9783 O 956.477 0.0928187 1.90574 0
M  V30 9784 C 953.617 0.626882 3.39359 0
M  V30 9785 C 952.73 1.78385 3.9345 0
M  V30 9786 C 951.865 1.33307 5.14201 0
M  V30 9787 C 950.904 2.46045 5.60471 0
M  V30 9788 N 950.041 2.01888 6.72448 0
M  V30 9789 H 954.881 1.95973 2.24496 0
M  V30 9790 H 952.418 0.976206 1.10039 0
M  V30 9791 H 954.376 0.377742 4.15486 0
M  V30 9792 H 953.006 -0.271907 3.21653 0
M  V30 9793 H 952.058 2.14685 3.14029 0
M  V30 9794 H 953.37 2.63122 4.23755 0
M  V30 9795 H 952.524 1.04237 5.97678 0
M  V30 9796 H 951.263 0.456143 4.85562 0
M  V30 9797 H 950.268 2.75884 4.75571 0
M  V30 9798 H 951.493 3.34283 5.91127 0
M  V30 9799 H 949.439 1.16583 6.45558 0
M  V30 9800 H 949.356 2.80182 7.02164 0
M  V30 9801 H 950.624 1.75937 7.59386 0
M  V30 9802 N 954.853 -1.17469 1.05066 0
M  V30 9803 C 956.264 -1.69334 0.786304 0
M  V30 9804 C 956.615 -1.83604 -0.691671 0
M  V30 9805 O 955.74 -1.52269 -1.53763 0
M  V30 9806 C 956.335 -3.07572 1.42074 0
M  V30 9807 C 954.894 -3.56609 1.20446 0
M  V30 9808 C 954.041 -2.329 1.50508 0
M  V30 9809 H 956.992 -1.02003 1.21577 0
M  V30 9810 H 957.013 -3.71352 0.829334 0
M  V30 9811 H 956.525 -2.97154 2.49642 0
M  V30 9812 H 954.626 -3.72306 0.147968 0
M  V30 9813 H 954.739 -4.39446 1.90852 0
M  V30 9814 H 953.103 -2.37305 0.925124 0
M  V30 9815 H 953.886 -2.25093 2.59207 0
M  V30 9816 N 956.331 -0.831506 -1.3388 0
M  V30 9817 C 957.608 -0.345907 -1.92517 0
M  V30 9818 C 957.988 1.16784 -1.75854 0
M  V30 9819 O 957.336 1.97889 -1.14245 0
M  V30 9820 C 957.546 -0.784692 -3.40064 0
M  V30 9821 C 958.894 -0.78846 -4.17215 0
M  V30 9822 O 959.918 -0.727823 -3.48685 0
M  V30 9823 O 958.777 -0.869481 -5.39539 0
M  V30 9824 H 955.871 -0.0963568 -0.821367 0
M  V30 9825 H 958.417 -0.916868 -1.42799 0
M  V30 9826 H 957.189 -1.82697 -3.46031 0
M  V30 9827 H 956.812 -0.189897 -3.97146 0
M  V30 9828 N 957.809 1.4625 -0.587256 0
M  V30 9829 C 959.055 2.02662 -0.0746851 0
M  V30 9830 C 959.388 1.45723 1.28368 0
M  V30 9831 O 958.663 0.624062 1.84216 0
M  V30 9832 C 958.946 3.60097 -0.0138109 0
M  V30 9833 C 958.799 4.27412 -1.4014 0
M  V30 9834 C 960.118 4.34744 0.684491 0
M  V30 9835 H 957.237 0.736444 -0.0286144 0
M  V30 9836 H 959.879 1.74341 -0.755328 0
M  V30 9837 H 958.029 3.84357 0.56583 0
M  V30 9838 H 959.701 4.14401 -2.02656 0
M  V30 9839 H 957.944 3.86598 -1.96785 0
M  V30 9840 H 958.615 5.362 -1.31124 0
M  V30 9841 H 961.091 4.15657 0.192023 0
M  V30 9842 H 959.967 5.44468 0.696127 0
M  V30 9843 H 960.228 4.06132 1.74669 0
M  V30 9844 N 959.287 0.325282 1.54207 0
M  V30 9845 C 960.235 -0.5554 2.25872 0
M  V30 9846 C 961.229 -1.11714 1.27344 0
M  V30 9847 O 962.435 -1.06498 1.45115 0
M  V30 9848 H 958.81 -0.19776 0.725531 0
M  V30 9849 H 960.781 0.0712858 2.98315 0
M  V30 9850 C 959.53 -1.70379 3.03095 0
M  V30 9851 H 958.853 -1.2808 3.78729 0
M  V30 9852 H 960.293 -2.29556 3.56483 0
M  V30 9853 C 958.752 -2.62242 2.11496 0
M  V30 9854 O 959.282 -3.64003 1.69895 0
M  V30 9855 N 957.488 -2.30515 1.7695 0
M  V30 9856 H 957.035 -1.47805 2.10978 0
M  V30 9857 H 956.993 -2.92241 1.15942 0
M  V30 9858 N 960.765 -1.57509 0.0534917 0
M  V30 9859 C 962.011 -1.93887 -0.614776 0
M  V30 9860 C 962.366 -0.932098 -1.68314 0
M  V30 9861 O 961.659 0.0483848 -1.91539 0
M  V30 9862 C 961.853 -3.34734 -1.25251 0
M  V30 9863 C 961.682 -4.49019 -0.247444 0
M  V30 9864 C 960.452 -5.05042 0.161406 0
M  V30 9865 C 962.65 -5.11784 0.508059 0
M  V30 9866 N 960.632 -6.02858 1.15909 0
M  V30 9867 C 962.003 -6.04928 1.35876 0
M  V30 9868 C 964.058 -4.94671 0.56612 0
M  V30 9869 C 962.761 -6.82797 2.26232 0
M  V30 9870 C 964.787 -5.73168 1.45712 0
M  V30 9871 C 964.149 -6.65946 2.29554 0
M  V30 9872 H 960.248 -0.756899 -0.196538 0
M  V30 9873 H 962.832 -1.94289 0.126365 0
M  V30 9874 H 961.003 -3.35104 -1.96367 0
M  V30 9875 H 962.735 -3.58395 -1.87977 0
M  V30 9876 H 959.49 -4.73098 -0.218025 0
M  V30 9877 H 959.914 -6.56462 1.6549 0
M  V30 9878 H 964.556 -4.22746 -0.0678652 0
M  V30 9879 H 962.274 -7.54012 2.90675 0
M  V30 9880 H 965.86 -5.61953 1.50664 0
M  V30 9881 H 964.74 -7.25627 2.97381 0
M  V30 9882 N 962.243 0.219913 -1.56058 0
M  V30 9883 C 963.491 0.942199 -1.78793 0
M  V30 9884 C 963.812 1.84804 -0.622284 0
M  V30 9885 O 963.082 1.9255 0.360735 0
M  V30 9886 H 961.662 0.350895 -0.659455 0
M  V30 9887 H 964.324 0.231376 -1.93522 0
M  V30 9888 H 963.42 1.54804 -2.71002 0
M  V30 9889 N 963.721 1.49897 0.486681 0
M  V30 9890 C 964.946 1.64106 1.26823 0
M  V30 9891 C 965.371 0.317967 1.85393 0
M  V30 9892 O 964.729 -0.71626 1.66551 0
M  V30 9893 C 964.777 2.72301 2.36399 0
M  V30 9894 O 963.881 2.32469 3.40634 0
M  V30 9895 H 963.222 0.548794 0.373793 0
M  V30 9896 H 965.752 1.96177 0.581017 0
M  V30 9897 H 965.762 2.94906 2.81948 0
M  V30 9898 H 964.437 3.68335 1.93137 0
M  V30 9899 H 963.014 2.20251 3.00905 0
M  V30 9900 N 965.199 -0.738761 1.39212 0
M  V30 9901 C 966.424 -1.5331 1.39681 0
M  V30 9902 C 966.849 -1.88098 -0.00768715 0
M  V30 9903 O 966.207 -1.51642 -0.993699 0
M  V30 9904 C 966.255 -2.79958 2.27279 0
M  V30 9905 O 965.359 -3.75727 1.70008 0
M  V30 9906 H 964.7 -0.463131 0.475821 0
M  V30 9907 H 967.23 -0.911768 1.83161 0
M  V30 9908 H 967.24 -3.28732 2.41659 0
M  V30 9909 H 965.915 -2.5397 3.29351 0
M  V30 9910 H 964.492 -3.34483 1.64851 0
M  V30 9911 N 966.677 -1.24326 -0.968545 0
M  V30 9912 C 967.905 -1.10947 -1.74638 0
M  V30 9913 C 968.32 0.338064 -1.85749 0
M  V30 9914 O 967.677 1.23331 -1.3452 0
M  V30 9915 C 967.728 -1.74254 -3.1673 0
M  V30 9916 O 967.449 -3.13347 -3.06178 0
M  V30 9917 C 968.95 -1.66473 -4.10855 0
M  V30 9918 H 966.17 -0.38767 -0.547679 0
M  V30 9919 H 968.714 -1.64415 -1.21605 0
M  V30 9920 H 966.869 -1.2479 -3.66751 0
M  V30 9921 H 967.283 -3.44255 -3.95713 0
M  V30 9922 H 968.757 -2.15452 -5.08217 0
M  V30 9923 H 969.234 -0.625785 -4.34719 0
M  V30 9924 H 969.84 -2.15359 -3.66743 0
M  V30 9925 N 968.156 1.1691 -1.05688 0
M  V30 9926 C 969.088 2.20648 -0.620237 0
M  V30 9927 C 970.101 1.59652 0.318604 0
M  V30 9928 O 971.29 1.78157 0.110553 0
M  V30 9929 C 968.39 3.38716 0.111729 0
M  V30 9930 C 967.563 4.29277 -0.839062 0
M  V30 9931 C 966.622 5.25993 -0.147453 0
M  V30 9932 O 965.648 5.63787 -0.783151 0
M  V30 9933 N 966.85 5.69725 1.11327 0
M  V30 9934 H 969.615 2.58731 -1.51256 0
M  V30 9935 H 967.176 1.31858 -0.939412 0
M  V30 9936 H 969.168 4.00455 0.584657 0
M  V30 9937 H 967.738 2.99189 0.905784 0
M  V30 9938 H 966.958 3.64894 -1.4915 0
M  V30 9939 H 968.246 4.86669 -1.48428 0
M  V30 9940 H 967.644 5.41103 1.64999 0
M  V30 9941 H 966.201 6.33584 1.53018 0
M  V30 9942 N 969.634 0.838594 1.33437 0
M  V30 9943 C 970.597 0.276843 2.27522 0
M  V30 9944 C 971.597 -0.554275 1.50945 0
M  V30 9945 O 972.787 -0.368107 1.70266 0
M  V30 9946 C 969.919 -0.610036 3.35397 0
M  V30 9947 H 971.112 1.10705 2.78719 0
M  V30 9948 H 968.665 0.611657 1.43835 0
M  V30 9949 H 969.4 -1.46269 2.89441 0
M  V30 9950 H 969.185 -0.0153615 3.92097 0
M  V30 9951 H 970.675 -0.996368 4.05539 0
M  V30 9952 N 971.112 -1.45937 0.595003 0
M  V30 9953 C 972.042 -2.33198 -0.11871 0
M  V30 9954 C 973.023 -1.46083 -0.871423 0
M  V30 9955 O 974.208 -1.74879 -0.844461 0
M  V30 9956 C 971.338 -3.28576 -1.12495 0
M  V30 9957 C 970.292 -4.25229 -0.486275 0
M  V30 9958 C 969.618 -5.10204 -1.59986 0
M  V30 9959 C 970.918 -5.19019 0.584473 0
M  V30 9960 H 972.612 -2.93122 0.609886 0
M  V30 9961 H 970.158 -1.40951 0.294742 0
M  V30 9962 H 972.111 -3.88485 -1.6327 0
M  V30 9963 H 970.835 -2.66784 -1.88398 0
M  V30 9964 H 969.494 -3.666 0.000507962 0
M  V30 9965 H 969.142 -4.44789 -2.34886 0
M  V30 9966 H 968.842 -5.75669 -1.1781 0
M  V30 9967 H 970.366 -5.7298 -2.11014 0
M  V30 9968 H 971.78 -5.73073 0.161297 0
M  V30 9969 H 970.177 -5.92893 0.927256 0
M  V30 9970 H 971.247 -4.62208 1.46601 0
M  V30 9971 N 972.59 -0.333456 -1.54032 0
M  V30 9972 C 973.815 0.270517 -2.05628 0
M  V30 9973 C 974.24 1.44231 -1.20744 0
M  V30 9974 O 973.598 1.79975 -0.218822 0
M  V30 9975 C 973.646 0.673251 -3.54259 0
M  V30 9976 O 972.75 1.77448 -3.72271 0
M  V30 9977 H 972.091 0.0469753 -0.662336 0
M  V30 9978 H 974.621 -0.484739 -1.98775 0
M  V30 9979 H 974.631 0.953194 -3.96709 0
M  V30 9980 H 973.306 -0.183747 -4.15494 0
M  V30 9981 H 971.883 1.49259 -3.41725 0
M  V30 9982 N 974.068 1.57479 -0.061844 0
M  V30 9983 C 975.298 1.97142 0.61794 0
M  V30 9984 C 975.706 0.938533 1.64281 0
M  V30 9985 O 975.049 -0.084385 1.83506 0
M  V30 9986 C 975.111 3.33083 1.35263 0
M  V30 9987 C 974.775 4.54447 0.482372 0
M  V30 9988 C 975.772 5.1927 -0.255954 0
M  V30 9989 C 973.457 5.00623 0.410167 0
M  V30 9990 C 975.451 6.28612 -1.05481 0
M  V30 9991 C 973.138 6.09839 -0.392369 0
M  V30 9992 C 974.136 6.73696 -1.12354 0
M  V30 9993 O 973.824 7.80811 -1.91285 0
M  V30 9994 H 973.556 0.653497 0.172969 0
M  V30 9995 H 976.11 2.05002 -0.127781 0
M  V30 9996 H 974.34 3.21808 2.14421 0
M  V30 9997 H 976.029 3.5742 1.92368 0
M  V30 9998 H 976.795 4.84546 -0.209703 0
M  V30 9999 H 972.674 4.50704 0.968883 0
M  V30 10000 H 976.218 6.78385 -1.62602 0
M  V30 10001 H 972.115 6.43997 -0.44022 0
M  V30 10002 H 972.883 7.9764 -1.83611 0
M  V30 10003 N 975.546 -0.211634 1.56173 0
M  V30 10004 C 976.792 -0.935935 1.79911 0
M  V30 10005 C 977.125 -1.83589 0.633155 0
M  V30 10006 O 976.4 -1.91004 -0.367132 0
M  V30 10007 C 976.683 -1.76638 3.13801 0
M  V30 10008 C 976.536 -0.892259 4.40861 0
M  V30 10009 C 977.855 -2.74224 3.44223 0
M  V30 10010 H 974.974 -0.338822 0.654499 0
M  V30 10011 H 977.616 -0.20422 1.88899 0
M  V30 10012 H 975.766 -2.39021 3.0627 0
M  V30 10013 H 977.438 -0.284407 4.60422 0
M  V30 10014 H 975.681 -0.198145 4.33347 0
M  V30 10015 H 976.352 -1.50793 5.31004 0
M  V30 10016 H 978.828 -2.21975 3.51946 0
M  V30 10017 H 977.704 -3.29424 4.39057 0
M  V30 10018 H 977.965 -3.52455 2.66885 0
M  V30 10019 N 977.024 -1.50153 -0.478725 0
M  V30 10020 C 978.249 -1.64776 -1.2595 0
M  V30 10021 C 978.674 -0.327794 -1.85222 0
M  V30 10022 O 978.032 0.707418 -1.66929 0
M  V30 10023 C 978.08 -2.73551 -2.34952 0
M  V30 10024 O 977.184 -2.34273 -3.39397 0
M  V30 10025 H 976.525 -0.550769 -0.370877 0
M  V30 10026 H 979.055 -1.96482 -0.570605 0
M  V30 10027 H 979.065 -2.96397 -2.8038 0
M  V30 10028 H 977.74 -3.69354 -1.91181 0
M  V30 10029 H 976.317 -2.21844 -2.99733 0
M  V30 10030 N 978.502 0.731368 -1.39602 0
M  V30 10031 C 979.465 1.8271 -1.38383 0
M  V30 10032 C 980.465 1.58338 -0.280309 0
M  V30 10033 O 981.655 1.65671 -0.538402 0
M  V30 10034 C 978.787 3.20556 -1.16002 0
M  V30 10035 H 979.98 1.85193 -2.35889 0
M  V30 10036 H 977.533 0.935396 -1.2522 0
M  V30 10037 H 978.268 3.23732 -0.191927 0
M  V30 10038 H 978.053 3.39643 -1.9592 0
M  V30 10039 H 979.543 4.00612 -1.17899 0
M  V30 10040 N 979.98 1.24838 0.961938 0
M  V30 10041 C 980.91 1.07053 2.07514 0
M  V30 10042 C 981.891 -0.0182465 1.7009 0
M  V30 10043 O 983.076 0.149915 1.9362 0
M  V30 10044 C 980.206 0.680693 3.40564 0
M  V30 10045 C 979.16 1.71889 3.91967 0
M  V30 10046 C 978.486 1.18395 5.21428 0
M  V30 10047 C 979.786 3.1161 4.19161 0
M  V30 10048 H 981.48 2.00167 2.22651 0
M  V30 10049 H 979.026 0.963799 1.0699 0
M  V30 10050 H 980.979 0.54324 4.17884 0
M  V30 10051 H 979.703 -0.28615 3.25344 0
M  V30 10052 H 978.362 1.84465 3.16809 0
M  V30 10053 H 978.01 0.207543 5.02572 0
M  V30 10054 H 977.71 1.87778 5.56788 0
M  V30 10055 H 979.234 1.05873 6.01351 0
M  V30 10056 H 980.648 3.0223 4.87165 0
M  V30 10057 H 979.045 3.78398 4.65763 0
M  V30 10058 H 980.115 3.59218 3.25715 0
M  V30 10059 N 981.458 -1.16348 1.06306 0
M  V30 10060 C 982.735 -1.829 0.69331 0
M  V30 10061 C 983.115 -1.94298 -0.82531 0
M  V30 10062 O 982.463 -1.48619 -1.73565 0
M  V30 10063 C 982.673 -3.1989 1.3954 0
M  V30 10064 C 984.021 -3.95662 1.54068 0
M  V30 10065 O 985.045 -3.29408 1.35532 0
M  V30 10066 O 983.904 -5.14422 1.84479 0
M  V30 10067 H 980.998 -0.789738 0.245445 0
M  V30 10068 H 983.544 -1.23549 1.16334 0
M  V30 10069 H 982.316 -3.06629 2.43093 0
M  V30 10070 H 981.939 -3.86918 0.915453 0
M  V30 10071 N 982.937 -0.845659 -1.3299 0
M  V30 10072 C 983.885 -0.272412 -2.30999 0
M  V30 10073 C 984.879 0.599311 -1.58444 0
M  V30 10074 O 986.085 0.488117 -1.73255 0
M  V30 10075 H 982.46 -0.0693751 -0.748793 0
M  V30 10076 H 984.431 -1.11343 -2.76849 0
M  V30 10077 C 983.18 0.532019 -3.43606 0
M  V30 10078 H 982.503 -0.129455 -3.9959 0
M  V30 10079 H 983.943 0.898853 -4.14363 0
M  V30 10080 C 982.402 1.71364 -2.90062 0
M  V30 10081 O 982.932 2.81252 -2.8681 0
M  V30 10082 N 981.138 1.53775 -2.4658 0
M  V30 10083 H 980.685 0.643836 -2.49424 0
M  V30 10084 H 980.643 2.32982 -2.11108 0
M  V30 10085 N 984.415 1.45619 -0.602734 0
M  V30 10086 C 985.378 2.28941 0.108962 0
M  V30 10087 C 986.378 1.39501 0.799762 0
M  V30 10088 O 987.568 1.61673 0.648663 0
M  V30 10089 C 984.7 3.204 1.16432 0
M  V30 10090 H 985.893 2.93346 -0.623534 0
M  V30 10091 H 983.446 1.52061 -0.361565 0
M  V30 10092 H 984.181 2.60785 1.92774 0
M  V30 10093 H 983.966 3.86277 0.673248 0
M  V30 10094 H 985.456 3.83063 1.6629 0
M  V30 10095 N 985.893 0.34162 1.53853 0
M  V30 10096 C 986.823 -0.508431 2.27897 0
M  V30 10097 C 987.804 -1.10425 1.29384 0
M  V30 10098 O 988.989 -1.126 1.58224 0
M  V30 10099 C 986.119 -1.66048 3.05034 0
M  V30 10100 C 985.073 -1.19309 4.11035 0
M  V30 10101 C 984.399 -2.4335 4.76114 0
M  V30 10102 C 985.699 -0.294952 5.21467 0
M  V30 10103 H 987.393 0.109251 2.99201 0
M  V30 10104 H 984.939 0.0539847 1.43899 0
M  V30 10105 H 986.892 -2.26158 3.5557 0
M  V30 10106 H 985.616 -2.30503 2.31379 0
M  V30 10107 H 984.275 -0.614809 3.61408 0
M  V30 10108 H 983.923 -3.06208 3.99056 0
M  V30 10109 H 983.623 -2.1276 5.47729 0
M  V30 10110 H 985.147 -3.0419 5.29434 0
M  V30 10111 H 986.561 -0.80285 5.67651 0
M  V30 10112 H 984.958 -0.0810221 6.00045 0
M  V30 10113 H 986.028 0.669433 4.80257 0
M  V30 10114 N 987.371 -1.57444 0.0701946 0
M  V30 10115 C 988.281 -2.16132 -0.912377 0
M  V30 10116 C 989.297 -1.12406 -1.32819 0
M  V30 10117 O 990.473 -1.44665 -1.40121 0
M  V30 10118 C 987.538 -2.71008 -2.16231 0
M  V30 10119 C 986.599 -3.896 -1.80306 0
M  V30 10120 C 985.832 -4.4185 -2.9934 0
M  V30 10121 O 986.055 -3.93106 -4.13309 0
M  V30 10122 O 984.989 -5.33201 -2.7925 0
M  V30 10123 H 988.815 -3.00449 -0.443167 0
M  V30 10124 H 986.4 -1.48617 -0.152786 0
M  V30 10125 H 988.282 -3.06186 -2.8953 0
M  V30 10126 H 986.957 -1.8975 -2.62253 0
M  V30 10127 H 985.864 -3.59277 -1.04264 0
M  V30 10128 H 987.197 -4.72145 -1.39068 0
M  V30 10129 N 988.849 0.203349 -1.56283 0
M  V30 10130 C 989.779 1.2549 -1.96912 0
M  V30 10131 C 990.76 1.47919 -0.839884 0
M  V30 10132 O 991.945 1.59795 -1.10359 0
M  V30 10133 C 989.075 2.6009 -2.30153 0
M  V30 10134 C 988.029 2.52289 -3.45738 0
M  V30 10135 C 987.355 3.91086 -3.64632 0
M  V30 10136 C 988.655 2.05503 -4.80173 0
M  V30 10137 H 990.349 0.917306 -2.85002 0
M  V30 10138 H 987.895 0.439818 -1.37119 0
M  V30 10139 H 989.848 3.33829 -2.5717 0
M  V30 10140 H 988.572 2.95574 -1.38937 0
M  V30 10141 H 987.231 1.81006 -3.18798 0
M  V30 10142 H 986.879 4.23908 -2.7076 0
M  V30 10143 H 986.579 3.86742 -4.42385 0
M  V30 10144 H 988.103 4.66459 -3.94016 0
M  V30 10145 H 989.517 2.68995 -5.06275 0
M  V30 10146 H 987.914 2.1218 -5.61337 0
M  V30 10147 H 988.984 1.00793 -4.74309 0
M  V30 10148 N 990.327 1.50405 0.470755 0
M  V30 10149 C 991.555 1.65168 1.24608 0
M  V30 10150 C 991.97 0.335153 1.85801 0
M  V30 10151 O 991.327 -0.682919 1.69241 0
M  V30 10152 C 991.378 2.74305 2.35455 0
M  V30 10153 O 991.099 4.00854 1.76771 0
M  V30 10154 C 992.6 3.00044 3.26326 0
M  V30 10155 H 989.82 0.555186 0.376842 0
M  V30 10156 H 992.364 1.9663 0.56187 0
M  V30 10157 H 990.519 2.45536 2.99651 0
M  V30 10158 H 990.933 4.61211 2.49769 0
M  V30 10159 H 992.407 3.8007 4.00313 0
M  V30 10160 H 992.884 2.11128 3.85126 0
M  V30 10161 H 993.49 3.30345 2.67866 0
M  V30 10162 N 991.805 -0.723954 1.39988 0
M  V30 10163 C 993.033 -1.51313 1.4111 0
M  V30 10164 C 993.448 -1.88798 0.00853333 0
M  V30 10165 O 992.805 -1.54868 -0.965516 0
M  V30 10166 C 992.856 -2.79375 2.29416 0
M  V30 10167 O 992.577 -2.43478 3.64211 0
M  V30 10168 C 994.078 -3.7333 2.3904 0
M  V30 10169 H 991.298 -0.46724 0.481589 0
M  V30 10170 H 993.842 -0.893694 1.83938 0
M  V30 10171 H 991.997 -3.37624 1.89971 0
M  V30 10172 H 992.411 -3.25821 4.11024 0
M  V30 10173 H 993.885 -4.60051 3.05053 0
M  V30 10174 H 994.362 -4.15854 1.41289 0
M  V30 10175 H 994.968 -3.20996 2.79001 0
M  V30 10176 N 993.283 -1.25346 -0.955304 0
M  V30 10177 C 994.529 -1.10218 -1.70235 0
M  V30 10178 C 994.862 0.356124 -1.90907 0
M  V30 10179 O 994.137 1.26253 -1.47954 0
M  V30 10180 C 994.42 -1.85627 -3.08569 0
M  V30 10181 C 994.273 -3.39281 -2.95311 0
M  V30 10182 C 995.592 -1.63886 -4.08448 0
M  V30 10183 H 992.711 -0.401781 -0.617852 0
M  V30 10184 H 995.353 -1.5417 -1.11048 0
M  V30 10185 H 993.503 -1.48269 -3.59094 0
M  V30 10186 H 995.175 -3.8631 -2.52116 0
M  V30 10187 H 993.418 -3.67027 -2.31244 0
M  V30 10188 H 994.089 -3.87258 -3.93364 0
M  V30 10189 H 996.565 -1.96406 -3.6683 0
M  V30 10190 H 995.441 -2.19087 -5.03281 0
M  V30 10191 H 995.702 -0.580021 -4.38279 0
M  V30 10192 N 994.761 1.15782 -1.06922 0
M  V30 10193 C 995.671 2.24008 -0.696948 0
M  V30 10194 C 996.687 1.71569 0.289862 0
M  V30 10195 O 997.863 2.00929 0.137585 0
M  V30 10196 C 994.928 3.46568 -0.0957895 0
M  V30 10197 C 993.989 4.14017 -1.13528 0
M  V30 10198 C 993.222 5.30725 -0.562713 0
M  V30 10199 O 993.445 5.66992 0.62259 0
M  V30 10200 O 992.379 5.87572 -1.30549 0
M  V30 10201 H 996.205 2.58174 -1.59938 0
M  V30 10202 H 993.79 1.2342 -0.841889 0
M  V30 10203 H 995.672 4.20731 0.237407 0
M  V30 10204 H 994.347 3.14161 0.780027 0
M  V30 10205 H 993.254 3.41795 -1.52076 0
M  V30 10206 H 994.587 4.50493 -1.98285 0
M  V30 10207 N 996.239 0.8527 1.3254 0
M  V30 10208 C 997.516 0.376491 1.91942 0
M  V30 10209 C 997.896 -1.13972 1.7769 0
M  V30 10210 O 997.244 -1.96047 1.17379 0
M  V30 10211 C 997.454 0.838694 3.38773 0
M  V30 10212 C 998.802 0.854736 4.15908 0
M  V30 10213 O 999.826 0.783203 3.47483 0
M  V30 10214 O 998.685 0.955207 5.38087 0
M  V30 10215 H 995.779 0.109412 0.81973 0
M  V30 10216 H 998.325 0.93947 1.41322 0
M  V30 10217 H 997.097 1.88179 3.43081 0
M  V30 10218 H 996.72 0.253055 3.96794 0
M  V30 10219 N 997.718 -1.45297 0.610449 0
M  V30 10220 C 998.668 -2.27639 -0.128194 0
M  V30 10221 C 999.652 -1.37485 -0.835861 0
M  V30 10222 O 1000.84 -1.61454 -0.725378 0
M  V30 10223 C 997.973 -3.24413 -1.123 0
M  V30 10224 C 997.059 -4.22055 -0.416029 0
M  V30 10225 N 997.45 -5.02867 0.543921 0
M  V30 10226 C 995.748 -4.41041 -0.663208 0
M  V30 10227 C 996.449 -5.73728 0.959731 0
M  V30 10228 N 995.425 -5.42756 0.302873 0
M  V30 10229 H 999.227 -2.8752 0.609056 0
M  V30 10230 H 996.741 -1.56484 0.434338 0
M  V30 10231 H 998.738 -3.82139 -1.6666 0
M  V30 10232 H 997.398 -2.66092 -1.86078 0
M  V30 10233 H 998.409 -5.09649 0.920799 0
M  V30 10234 H 995.086 -3.93842 -1.38544 0
M  V30 10235 H 996.476 -6.48666 1.75163 0
M  V30 10236 N 999.196 -0.349774 -1.5367 0
M  V30 10237 C 1000.44 0.245189 -2.01312 0
M  V30 10238 C 1000.77 1.49702 -1.23705 0
M  V30 10239 O 1000.05 1.91742 -0.326371 0
M  V30 10240 C 1000.33 0.553071 -3.55827 0
M  V30 10241 C 1000.19 -0.71129 -4.4414 0
M  V30 10242 C 1001.5 1.36015 -4.18555 0
M  V30 10243 H 998.624 0.0876415 -0.73177 0
M  V30 10244 H 1001.27 -0.471543 -1.84056 0
M  V30 10245 H 999.416 1.16367 -3.70663 0
M  V30 10246 H 1001.09 -1.34913 -4.41131 0
M  V30 10247 H 999.331 -1.33491 -4.1275 0
M  V30 10248 H 1000 -0.45104 -5.50154 0
M  V30 10249 H 1002.48 0.843778 -4.07455 0
M  V30 10250 H 1001.35 1.54432 -5.26728 0
M  V30 10251 H 1001.61 2.36408 -3.73582 0
M  V30 10252 N 1000.67 1.57404 -0.0785433 0
M  V30 10253 C 1001.62 2.13104 0.88631 0
M  V30 10254 C 1002.59 1.04527 1.29086 0
M  V30 10255 O 1003.78 1.32226 1.37553 0
M  V30 10256 C 1000.92 2.70252 2.14611 0
M  V30 10257 C 1000.03 3.93007 1.79358 0
M  V30 10258 C 999.164 4.38376 3 0
M  V30 10259 C 998.203 5.53761 2.60796 0
M  V30 10260 N 997.34 5.94058 3.74219 0
M  V30 10261 H 1002.18 2.95243 0.404452 0
M  V30 10262 H 999.717 1.45894 0.187982 0
M  V30 10263 H 1001.67 3.01497 2.88367 0
M  V30 10264 H 1000.3 1.90868 2.60326 0
M  V30 10265 H 999.357 3.68181 0.956384 0
M  V30 10266 H 1000.67 4.76795 1.4652 0
M  V30 10267 H 999.823 4.71317 3.82027 0
M  V30 10268 H 998.562 3.53455 3.36037 0
M  V30 10269 H 997.567 5.20464 1.77192 0
M  V30 10270 H 998.792 6.40419 2.25922 0
M  V30 10271 H 996.738 5.12085 4.10005 0
M  V30 10272 H 996.655 6.72602 3.45171 0
M  V30 10273 H 997.923 6.31624 4.56805 0
M  V30 10274 N 1002.15 -0.195058 1.56388 0
M  V30 10275 C 1003.1 -1.26122 1.95438 0
M  V30 10276 C 1004.09 -1.47117 0.839818 0
M  V30 10277 O 1005.3 -1.47978 1.02482 0
M  V30 10278 H 1001.67 -0.423422 0.621464 0
M  V30 10279 H 1003.65 -0.904854 2.8435 0
M  V30 10280 C 1002.39 -2.59858 2.31017 0
M  V30 10281 H 1001.72 -2.44519 3.16308 0
M  V30 10282 H 1003.16 -3.33205 2.62203 0
M  V30 10283 C 1001.62 -3.16853 1.14481 0
M  V30 10284 O 1002.15 -3.995 0.419853 0
M  V30 10285 N 1000.35 -2.75599 0.921604 0
M  V30 10286 H 999.9 -2.08495 1.51287 0
M  V30 10287 H 999.858 -3.14072 0.143663 0
M  V30 10288 N 1003.63 -1.50653 -0.462772 0
M  V30 10289 C 1004.88 -1.62057 -1.21424 0
M  V30 10290 C 1005.2 -0.324778 -1.91769 0
M  V30 10291 O 1004.46 0.689828 -1.83139 0
M  V30 10292 C 1004.76 -2.75637 -2.27507 0
M  V30 10293 C 1004.42 -4.15826 -1.74354 0
M  V30 10294 C 1003.09 -4.53969 -1.5958 0
M  V30 10295 C 1005.44 -5.03409 -1.35012 0
M  V30 10296 C 1002.77 -5.77427 -1.03899 0
M  V30 10297 C 1005.12 -6.27422 -0.807704 0
M  V30 10298 C 1003.78 -6.6436 -0.646657 0
M  V30 10299 H 1003.05 -0.59301 -0.44432 0
M  V30 10300 H 1005.7 -1.84612 -0.508999 0
M  V30 10301 H 1004 -2.47203 -3.0397 0
M  V30 10302 H 1005.7 -2.81663 -2.85424 0
M  V30 10303 H 1002.29 -3.85739 -1.86823 0
M  V30 10304 H 1006.48 -4.74567 -1.45258 0
M  V30 10305 H 1001.73 -6.04713 -0.901751 0
M  V30 10306 H 1005.91 -6.94644 -0.494234 0
M  V30 10307 H 1003.53 -7.59901 -0.213053 0
M  V30 10308 N 1005.11 0.71652 -1.4037 0
M  V30 10309 C 1006.52 1.02447 -1.22379 0
M  V30 10310 C 1006.72 2.0126 -0.0983394 0
M  V30 10311 O 1005.78 2.46569 0.544071 0
M  V30 10312 C 1007.09 1.56909 -2.56515 0
M  V30 10313 C 1008.64 1.68898 -2.6352 0
M  V30 10314 C 1009.12 2.26765 -3.97922 0
M  V30 10315 N 1010.61 2.34152 -3.99658 0
M  V30 10316 C 1011.34 2.79907 -5.00439 0
M  V30 10317 N 1010.84 3.25422 -6.11615 0
M  V30 10318 N 1012.63 2.79283 -4.87809 0
M  V30 10319 H 1004.78 0.0615306 -2.12311 0
M  V30 10320 H 1007.05 0.0898994 -0.943728 0
M  V30 10321 H 1006.75 0.917649 -3.39517 0
M  V30 10322 H 1006.63 2.55446 -2.77538 0
M  V30 10323 H 1009.01 2.33159 -1.8089 0
M  V30 10324 H 1009.09 0.689626 -2.46329 0
M  V30 10325 H 1008.74 1.63126 -4.80991 0
M  V30 10326 H 1008.67 3.27413 -4.12442 0
M  V30 10327 H 1011.16 2.02006 -3.19378 0
M  V30 10328 H 1011.47 3.58899 -6.84406 0
M  V30 10329 H 1009.82 3.23383 -6.15181 0
M  V30 10330 H 1013.01 2.43061 -4.00049 0
M  V30 10331 H 1013.18 3.14626 -5.66493 0
M  V30 10332 N 1006.59 1.25851 0.948643 0
M  V30 10333 C 1008 1.09975 1.50872 0
M  V30 10334 C 1008.35 -0.322497 1.93531 0
M  V30 10335 O 1007.47 -1.21316 1.79197 0
M  V30 10336 C 1008.07 1.99021 2.74182 0
M  V30 10337 C 1006.63 1.87313 3.26483 0
M  V30 10338 C 1005.77 1.92815 1.99293 0
M  V30 10339 H 1008.73 1.3905 0.764908 0
M  V30 10340 H 1008.75 1.53372 3.4822 0
M  V30 10341 H 1008.26 3.02527 2.43103 0
M  V30 10342 H 1006.36 0.867136 3.62369 0
M  V30 10343 H 1006.47 2.72446 3.94094 0
M  V30 10344 H 1004.84 1.36774 2.1486 0
M  V30 10345 H 1005.62 2.97936 1.70554 0
M  V30 10346 N 1008.06 -1.15214 1.07534 0
M  V30 10347 C 1009 -2.19634 0.655261 0
M  V30 10348 C 1010.01 -1.60139 -0.293165 0
M  V30 10349 O 1011.2 -1.78311 -0.0821957 0
M  V30 10350 C 1008.3 -3.38851 -0.0578281 0
M  V30 10351 C 1007.47 -4.27888 0.90725 0
M  V30 10352 C 1006.53 -5.25692 0.231115 0
M  V30 10353 O 1005.56 -5.62469 0.872746 0
M  V30 10354 N 1006.76 -5.71424 -1.0225 0
M  V30 10355 H 1009.52 -2.56292 1.55353 0
M  V30 10356 H 1007.08 -1.30347 0.960271 0
M  V30 10357 H 1009.08 -4.01334 -0.520874 0
M  V30 10358 H 1007.65 -3.00593 -0.858071 0
M  V30 10359 H 1006.87 -3.62475 1.54937 0
M  V30 10360 H 1008.15 -4.84246 1.56151 0
M  V30 10361 H 1007.55 -5.43659 -1.56369 0
M  V30 10362 H 1006.11 -6.35938 -1.42919 0
M  V30 10363 N 1009.54 -0.859717 -1.32086 0
M  V30 10364 C 1010.78 -0.471939 -1.98877 0
M  V30 10365 C 1011.15 0.955689 -1.66525 0
M  V30 10366 O 1012.35 1.44829 -2.26447 0
M  V30 10367 C 1010.62 -0.710016 -3.50276 0
M  V30 10368 S 1012.18 -0.420566 -4.3678 0
M  V30 10369 H 1009 -0.176588 -0.688722 0
M  V30 10370 H 1011.6 -1.11352 -1.60689 0
M  V30 10371 H 1010.3 -1.74803 -3.71311 0
M  V30 10372 H 1009.83 -0.0550429 -3.93361 0
M  V30 10373 H 1011.85 0.751362 -4.90478 0
M  V30 10374 N 1011.02 1.44971 -0.618145 0
M  V30 10375 C 1012.27 2.01372 -0.115004 0
M  V30 10376 C 1012.58 1.49104 1.26599 0
M  V30 10377 O 1013.79 1.97549 1.86244 0
M  V30 10378 C 1012.24 3.59567 -0.154883 0
M  V30 10379 C 1011.85 4.20832 -1.53639 0
M  V30 10380 C 1013.6 4.23491 0.292468 0
M  V30 10381 C 1011.5 5.7121 -1.53208 0
M  V30 10382 H 1010.43 0.752979 -0.0392267 0
M  V30 10383 H 1013.08 1.66329 -0.775032 0
M  V30 10384 H 1011.47 3.91847 0.572001 0
M  V30 10385 H 1012.64 4.00109 -2.28582 0
M  V30 10386 H 1010.96 3.69143 -1.92672 0
M  V30 10387 H 1013.55 5.33771 0.315032 0
M  V30 10388 H 1013.9 3.9491 1.31725 0
M  V30 10389 H 1014.43 3.95967 -0.381493 0
M  V30 10390 H 1011.17 6.04506 -2.53481 0
M  V30 10391 H 1010.69 5.94094 -0.825387 0
M  V30 10392 H 1012.37 6.34606 -1.26032 0
M  V30 10393 N 1012.5 0.357919 1.53482 0
M  V30 10394 C 1013.74 -0.23451 2.0144 0
M  V30 10395 C 1014.08 -1.49044 1.24497 0
M  V30 10396 O 1013.35 -1.91566 0.336535 0
M  V30 10397 C 1013.64 -0.534193 3.56116 0
M  V30 10398 C 1013.49 0.734834 4.43757 0
M  V30 10399 C 1014.81 -1.33793 4.1927 0
M  V30 10400 H 1011.93 -0.0837595 0.732225 0
M  V30 10401 H 1014.57 0.481297 1.83803 0
M  V30 10402 H 1012.72 -1.144 3.71275 0
M  V30 10403 H 1014.39 1.37251 4.40409 0
M  V30 10404 H 1012.63 1.35678 4.12036 0
M  V30 10405 H 1013.3 0.48021 5.49907 0
M  V30 10406 H 1015.78 -0.822158 4.07897 0
M  V30 10407 H 1014.66 -1.51636 5.27539 0
M  V30 10408 H 1014.92 -2.34423 3.74831 0
M  V30 10409 N 1013.98 -1.5736 0.0868897 0
M  V30 10410 C 1014.91 -2.16596 -0.872252 0
M  V30 10411 C 1015.89 -1.09706 -1.29995 0
M  V30 10412 O 1017.07 -1.37808 -1.36831 0
M  V30 10413 C 1014.2 -2.73972 -2.1344 0
M  V30 10414 C 1013.16 -3.86163 -1.8456 0
M  V30 10415 C 1012.48 -4.30206 -3.17533 0
M  V30 10416 C 1013.78 -5.0973 -1.13899 0
M  V30 10417 H 1015.48 -2.96995 -0.378738 0
M  V30 10418 H 1013.02 -1.42861 -0.18073 0
M  V30 10419 H 1014.98 -3.14062 -2.80968 0
M  V30 10420 H 1013.7 -1.90817 -2.6506 0
M  V30 10421 H 1012.36 -3.466 -1.19432 0
M  V30 10422 H 1012.01 -3.43951 -3.67024 0
M  V30 10423 H 1011.71 -5.05841 -2.98996 0
M  V30 10424 H 1013.23 -4.72922 -3.86234 0
M  V30 10425 H 1014.64 -5.4704 -1.71523 0
M  V30 10426 H 1013.04 -5.90741 -1.05569 0
M  V30 10427 H 1014.11 -4.8475 -0.120432 0
M  V30 10428 N 1015.45 0.186762 -1.56489 0
M  V30 10429 C 1016.68 0.921832 -1.85229 0
M  V30 10430 C 1017.1 1.76496 -0.670416 0
M  V30 10431 O 1016.45 1.78899 0.360758 0
M  V30 10432 C 1016.51 1.81121 -3.12854 0
M  V30 10433 O 1016.23 1.00211 -4.26485 0
M  V30 10434 C 1017.73 2.65725 -3.54831 0
M  V30 10435 H 1014.95 0.268563 -0.61491 0
M  V30 10436 H 1017.49 0.191505 -2.03601 0
M  V30 10437 H 1015.65 2.49506 -2.96354 0
M  V30 10438 H 1016.06 1.60893 -4.99213 0
M  V30 10439 H 1017.53 3.23771 -4.47075 0
M  V30 10440 H 1018.01 3.39843 -2.78215 0
M  V30 10441 H 1018.62 2.02698 -3.7389 0
M  V30 10442 N 1016.93 1.50896 0.454776 0
M  V30 10443 C 1018.18 1.62378 1.20324 0
M  V30 10444 C 1018.5 0.333883 1.9212 0
M  V30 10445 O 1017.77 -0.649477 1.8482 0
M  V30 10446 H 1016.35 0.598395 0.447139 0
M  V30 10447 H 1019.01 1.87749 0.523102 0
M  V30 10448 H 1018.11 2.44296 1.94232 0
M  V30 10449 N 1018.41 -0.709066 1.40748 0
M  V30 10450 C 1019.66 -1.46611 1.39103 0
M  V30 10451 C 1019.98 -1.95 -0.00365366 0
M  V30 10452 O 1019.25 -1.70791 -0.959541 0
M  V30 10453 H 1017.83 -0.543954 0.511979 0
M  V30 10454 H 1020.49 -0.840141 1.75863 0
M  V30 10455 H 1019.59 -2.33581 2.06994 0
M  V30 10456 N 1019.89 -1.26353 -0.941956 0
M  V30 10457 C 1021.3 -1.10774 -1.50287 0
M  V30 10458 C 1021.65 0.312229 -1.937 0
M  V30 10459 O 1020.78 1.20364 -1.79838 0
M  V30 10460 C 1021.37 -2.00473 -2.73123 0
M  V30 10461 C 1019.93 -1.89042 -3.25485 0
M  V30 10462 C 1019.08 -1.93869 -1.98267 0
M  V30 10463 H 1022.03 -1.39454 -0.757523 0
M  V30 10464 H 1022.05 -1.55216 -3.47402 0
M  V30 10465 H 1021.56 -3.03812 -2.41495 0
M  V30 10466 H 1019.66 -0.886341 -3.61904 0
M  V30 10467 H 1019.78 -2.74533 -3.92643 0
M  V30 10468 H 1018.14 -1.37912 -2.14132 0
M  V30 10469 H 1018.92 -2.98837 -1.68972 0
M  V30 10470 N 1021.37 1.14642 -1.08144 0
M  V30 10471 C 1022.3 2.18656 -0.653066 0
M  V30 10472 C 1023.28 1.59137 0.333803 0
M  V30 10473 O 1024.46 1.86988 0.238305 0
M  V30 10474 C 1021.59 3.38677 0.0398337 0
M  V30 10475 C 1020.64 4.1675 -0.906755 0
M  V30 10476 S 1021.47 4.78103 -2.41201 0
M  V30 10477 C 1022.62 6.01483 -1.73115 0
M  V30 10478 H 1022.86 2.54654 -1.53423 0
M  V30 10479 H 1020.39 1.25731 -0.896162 0
M  V30 10480 H 1022.35 4.08206 0.43334 0
M  V30 10481 H 1021.01 3.01006 0.897457 0
M  V30 10482 H 1020.2 5.02649 -0.368795 0
M  V30 10483 H 1019.8 3.52809 -1.24103 0
M  V30 10484 H 1022.1 6.69353 -1.04752 0
M  V30 10485 H 1023.04 6.59863 -2.56878 0
M  V30 10486 H 1023.45 5.51474 -1.20566 0
M  V30 10487 N 1022.85 0.866709 1.31628 0
M  V30 10488 C 1024.07 0.49039 2.01004 0
M  V30 10489 C 1024.49 -0.916244 1.65077 0
M  V30 10490 O 1023.85 -1.59975 0.8783 0
M  V30 10491 C 1023.9 0.634011 3.55897 0
M  V30 10492 O 1023.62 1.98525 3.90537 0
M  V30 10493 C 1025.12 0.258277 4.42547 0
M  V30 10494 H 1022.34 0.191421 0.643117 0
M  V30 10495 H 1024.88 1.16698 1.67934 0
M  V30 10496 H 1023.04 0.00501801 3.874 0
M  V30 10497 H 1023.45 1.99067 4.85255 0
M  V30 10498 H 1024.93 0.409733 5.50477 0
M  V30 10499 H 1025.4 -0.802301 4.3181 0
M  V30 10500 H 1026.01 0.862837 4.16456 0
M  V30 10501 N 1024.32 -1.44642 0.625825 0
M  V30 10502 C 1025.74 -1.56925 0.290992 0
M  V30 10503 C 1025.94 -1.61424 -1.20601 0
M  V30 10504 O 1025 -1.55439 -1.98985 0
M  V30 10505 C 1026.31 -2.84343 0.978242 0
M  V30 10506 C 1027.86 -2.98047 0.955882 0
M  V30 10507 C 1028.33 -4.2826 1.62349 0
M  V30 10508 N 1029.82 -4.35062 1.58983 0
M  V30 10509 C 1030.56 -5.34524 2.07538 0
M  V30 10510 N 1030.05 -6.4042 2.6426 0
M  V30 10511 N 1031.85 -5.25998 1.98198 0
M  V30 10512 H 1024 -1.39965 1.59761 0
M  V30 10513 H 1026.26 -0.670368 0.670306 0
M  V30 10514 H 1025.97 -2.86985 2.03304 0
M  V30 10515 H 1025.84 -3.73699 0.512726 0
M  V30 10516 H 1028.23 -2.94961 -0.0904292 0
M  V30 10517 H 1028.31 -2.10053 1.45984 0
M  V30 10518 H 1027.95 -4.32105 2.66923 0
M  V30 10519 H 1027.88 -5.15102 1.09441 0
M  V30 10520 H 1030.37 -3.59147 1.17565 0
M  V30 10521 H 1030.69 -7.1259 2.99056 0
M  V30 10522 H 1029.03 -6.41121 2.68308 0
M  V30 10523 H 1032.22 -4.42178 1.5361 0
M  V30 10524 H 1032.4 -6.03359 2.3635 0
M  V30 10525 N 1025.8 -0.366053 -1.5329 0
M  V30 10526 C 1027.21 0.113056 -1.86357 0
M  V30 10527 C 1027.56 1.48123 -1.28662 0
M  V30 10528 O 1026.69 2.07658 -0.608849 0
M  V30 10529 C 1027.28 0.211923 -3.38137 0
M  V30 10530 C 1025.84 0.635289 -3.71 0
M  V30 10531 C 1024.99 -0.217203 -2.76448 0
M  V30 10532 H 1027.94 -0.584829 -1.47531 0
M  V30 10533 H 1027.96 1.0354 -3.66142 0
M  V30 10534 H 1027.47 -0.783994 -3.80099 0
M  V30 10535 H 1025.57 1.63942 -3.34595 0
M  V30 10536 H 1025.69 0.409571 -4.77346 0
M  V30 10537 H 1024.05 0.313988 -2.52757 0
M  V30 10538 H 1024.83 -1.21067 -3.21244 0
M  V30 10539 N 1027.28 1.57312 -0.0952337 0
M  V30 10540 C 1028.24 2.12889 0.849161 0
M  V30 10541 C 1029.24 1.05819 1.21075 0
M  V30 10542 O 1030.43 1.31704 1.14016 0
M  V30 10543 C 1027.56 2.6496 2.14498 0
M  V30 10544 H 1028.76 2.97651 0.366566 0
M  V30 10545 H 1026.31 1.55542 0.153762 0
M  V30 10546 H 1027.05 1.83718 2.67242 0
M  V30 10547 H 1026.83 3.43244 1.89542 0
M  V30 10548 H 1028.32 3.07952 2.82056 0
M  V30 10549 N 1028.76 -0.17846 1.56586 0
M  V30 10550 C 1029.69 -1.22342 1.98884 0
M  V30 10551 C 1030.67 -1.46564 0.86331 0
M  V30 10552 O 1031.85 -1.58019 1.12887 0
M  V30 10553 C 1028.98 -2.56396 2.34261 0
M  V30 10554 C 1027.94 -2.46756 3.49708 0
M  V30 10555 C 1027.26 -3.85235 3.70807 0
M  V30 10556 C 1028.56 -1.97838 4.83381 0
M  V30 10557 H 1030.26 -0.871848 2.86425 0
M  V30 10558 H 1027.8 -0.417948 1.37801 0
M  V30 10559 H 1029.76 -3.29695 2.62448 0
M  V30 10560 H 1028.48 -2.93327 1.43621 0
M  V30 10561 H 1027.14 -1.75912 3.21637 0
M  V30 10562 H 1026.79 -4.19547 2.7747 0
M  V30 10563 H 1026.49 -3.79655 4.48481 0
M  V30 10564 H 1028.01 -4.60131 4.01387 0
M  V30 10565 H 1029.43 -2.60906 5.10491 0
M  V30 10566 H 1027.82 -2.03223 5.64642 0
M  V30 10567 H 1028.89 -0.932339 4.75852 0
M  V30 10568 N 1030.24 -1.51135 -0.446768 0
M  V30 10569 C 1031.17 -1.74709 -1.54916 0
M  V30 10570 C 1032.15 -0.596628 -1.59293 0
M  V30 10571 O 1033.33 -0.838356 -1.75172 0
M  V30 10572 C 1030.46 -1.86353 -2.9307 0
M  V30 10573 C 1029.42 -3.01725 -3.03556 0
M  V30 10574 C 1028.74 -2.9854 -4.43597 0
M  V30 10575 C 1030.04 -4.41848 -2.7851 0
M  V30 10576 H 1031.74 -2.67014 -1.3544 0
M  V30 10577 H 1029.28 -1.28489 -0.650131 0
M  V30 10578 H 1031.23 -2.01428 -3.70141 0
M  V30 10579 H 1029.96 -0.906887 -3.13756 0
M  V30 10580 H 1028.62 -2.86339 -2.28922 0
M  V30 10581 H 1028.27 -2.00673 -4.61237 0
M  V30 10582 H 1027.97 -3.76008 -4.51544 0
M  V30 10583 H 1029.49 -3.15696 -5.22655 0
M  V30 10584 H 1030.9 -4.57633 -3.45319 0
M  V30 10585 H 1029.3 -5.2095 -2.97877 0
M  V30 10586 H 1030.37 -4.52536 -1.74182 0
M  V30 10587 N 1031.71 0.701592 -1.41122 0
M  V30 10588 C 1032.99 1.45569 -1.30648 0
M  V30 10589 C 1033.37 2.10988 0.068744 0
M  V30 10590 O 1032.72 2.01228 1.08257 0
M  V30 10591 C 1032.93 2.48003 -2.45551 0
M  V30 10592 C 1034.28 3.13431 -2.86437 0
M  V30 10593 O 1035.3 2.58327 -2.45247 0
M  V30 10594 O 1034.16 4.13221 -3.57646 0
M  V30 10595 H 1031.25 0.648 -0.513834 0
M  V30 10596 H 1033.8 0.73258 -1.53073 0
M  V30 10597 H 1032.57 1.98276 -3.37346 0
M  V30 10598 H 1032.19 3.27832 -2.24971 0
M  V30 10599 N 1033.19 1.2685 0.935242 0
M  V30 10600 C 1034.44 1.12132 1.67658 0
M  V30 10601 C 1034.75 -0.333839 1.9273 0
M  V30 10602 O 1035.96 -0.601801 2.64746 0
M  V30 10603 C 1034.42 1.95873 3.0193 0
M  V30 10604 C 1034.02 3.46 2.84584 0
M  V30 10605 C 1035.77 1.89781 3.79715 0
M  V30 10606 C 1033.67 4.21966 4.14365 0
M  V30 10607 H 1032.6 0.416035 0.628833 0
M  V30 10608 H 1035.26 1.51209 1.03962 0
M  V30 10609 H 1033.64 1.49633 3.66641 0
M  V30 10610 H 1034.81 4.00049 2.28687 0
M  V30 10611 H 1033.13 3.53391 2.20236 0
M  V30 10612 H 1035.72 2.43819 4.75875 0
M  V30 10613 H 1036.07 0.869797 4.07112 0
M  V30 10614 H 1036.6 2.33875 3.21788 0
M  V30 10615 H 1033.34 5.2526 3.9215 0
M  V30 10616 H 1032.86 3.72696 4.69955 0
M  V30 10617 H 1034.54 4.30734 4.82781 0
M  V30 10618 N 1034.67 -1.14067 1.0875 0
M  V30 10619 C 1035.9 -1.89041 0.840902 0
M  V30 10620 C 1036.31 -1.78768 -0.60725 0
M  V30 10621 O 1035.67 -1.14945 -1.41753 0
M  V30 10622 C 1035.72 -3.38891 1.25838 0
M  V30 10623 O 1035.44 -3.48886 2.64972 0
M  V30 10624 C 1036.94 -4.30852 1.04315 0
M  V30 10625 H 1034.16 -0.598685 0.303014 0
M  V30 10626 H 1036.71 -1.44438 1.44769 0
M  V30 10627 H 1034.86 -3.81103 0.695627 0
M  V30 10628 H 1035.28 -4.41989 2.82393 0
M  V30 10629 H 1036.75 -5.34353 1.38461 0
M  V30 10630 H 1037.23 -4.39196 -0.0195784 0
M  V30 10631 H 1037.83 -3.944 1.59151 0
M  V30 10632 N 1036.15 -0.873678 -1.31166 0
M  V30 10633 C 1037.1 -0.303699 -2.25968 0
M  V30 10634 C 1038.08 0.561387 -1.50789 0
M  V30 10635 O 1039.27 0.407658 -1.72242 0
M  V30 10636 C 1036.4 0.490612 -3.39776 0
M  V30 10637 C 1035.49 -0.387927 -4.22322 0
M  V30 10638 N 1035.88 -1.48313 -4.83567 0
M  V30 10639 C 1034.18 -0.18102 -4.45632 0
M  V30 10640 C 1034.88 -2.0252 -5.45308 0
M  V30 10641 N 1033.86 -1.32169 -5.27288 0
M  V30 10642 H 1037.66 -1.14071 -2.7086 0
M  V30 10643 H 1035.17 -0.721843 -1.45476 0
M  V30 10644 H 1037.17 0.9155 -4.06724 0
M  V30 10645 H 1035.83 1.32519 -2.96427 0
M  V30 10646 H 1036.84 -1.86604 -4.83114 0
M  V30 10647 H 1033.52 0.617304 -4.12911 0
M  V30 10648 H 1034.91 -2.94429 -6.03955 0
M  V30 10649 N 1037.63 1.44308 -0.633487 0
M  V30 10650 C 1038.59 2.2912 0.060376 0
M  V30 10651 C 1039.59 1.41166 0.769992 0
M  V30 10652 O 1040.78 1.63012 0.614224 0
M  V30 10653 C 1037.91 3.22798 1.0961 0
M  V30 10654 H 1039.1 2.91958 -0.685617 0
M  V30 10655 H 1036.66 1.51259 -0.393738 0
M  V30 10656 H 1037.39 2.64815 1.87199 0
M  V30 10657 H 1037.18 3.87618 0.591161 0
M  V30 10658 H 1038.67 3.86504 1.58127 0
M  V30 10659 N 1039.1 0.374177 1.53094 0
M  V30 10660 C 1040.35 -0.212816 2.01379 0
M  V30 10661 C 1040.68 -1.48069 1.26118 0
M  V30 10662 O 1039.93 -1.92625 0.345561 0
M  V30 10663 C 1040.23 -0.542179 3.53264 0
M  V30 10664 C 1039.9 0.632375 4.46444 0
M  V30 10665 C 1038.56 0.954635 4.71636 0
M  V30 10666 C 1040.91 1.41887 5.01515 0
M  V30 10667 C 1038.24 2.06521 5.4915 0
M  V30 10668 C 1040.59 2.51993 5.80243 0
M  V30 10669 C 1039.26 2.84744 6.03719 0
M  V30 10670 H 1038.53 -0.0778749 0.736897 0
M  V30 10671 H 1041.17 0.508412 1.84628 0
M  V30 10672 H 1039.48 -1.34454 3.68007 0
M  V30 10673 H 1041.18 -1.00874 3.88105 0
M  V30 10674 H 1037.77 0.371179 4.2699 0
M  V30 10675 H 1041.95 1.18315 4.81991 0
M  V30 10676 H 1037.21 2.32284 5.65557 0
M  V30 10677 H 1041.38 3.13346 6.21922 0
M  V30 10678 H 1039.01 3.70921 6.63568 0
M  V30 10679 N 1040.58 -1.57259 0.103575 0
M  V30 10680 C 1041.81 -1.99 -0.566275 0
M  V30 10681 C 1042.23 -0.982909 -1.61197 0
M  V30 10682 O 1041.58 0.026345 -1.82481 0
M  V30 10683 C 1041.63 -3.40778 -1.20635 0
M  V30 10684 O 1041.35 -4.37632 -0.202472 0
M  V30 10685 C 1042.86 -3.97567 -1.961 0
M  V30 10686 H 1040.08 -0.653751 -0.151164 0
M  V30 10687 H 1042.62 -2.03658 0.185365 0
M  V30 10688 H 1040.77 -3.37107 -1.90886 0
M  V30 10689 H 1041.19 -5.2026 -0.665535 0
M  V30 10690 H 1042.66 -4.98897 -2.36233 0
M  V30 10691 H 1043.14 -3.35853 -2.83018 0
M  V30 10692 H 1043.75 -4.04737 -1.30645 0
M  V30 10693 N 1042.06 0.170153 -1.56679 0
M  V30 10694 C 1043.01 1.21064 -1.965 0
M  V30 10695 C 1043.98 1.43928 -0.829092 0
M  V30 10696 O 1045.16 1.56649 -1.08931 0
M  V30 10697 C 1042.3 2.54468 -2.33109 0
M  V30 10698 C 1041.42 2.38974 -3.59883 0
M  V30 10699 C 1040.55 3.65252 -3.857 0
M  V30 10700 C 1039.59 3.44696 -5.05817 0
M  V30 10701 N 1038.73 4.63047 -5.27761 0
M  V30 10702 H 1043.57 0.864055 -2.85198 0
M  V30 10703 H 1041.1 0.415243 -1.41117 0
M  V30 10704 H 1043.06 3.32222 -2.52358 0
M  V30 10705 H 1041.69 2.8712 -1.4752 0
M  V30 10706 H 1040.74 1.5239 -3.48542 0
M  V30 10707 H 1042.06 2.19731 -4.47794 0
M  V30 10708 H 1041.21 4.51441 -4.05322 0
M  V30 10709 H 1039.95 3.87475 -2.96166 0
M  V30 10710 H 1038.95 2.56893 -4.86092 0
M  V30 10711 H 1040.18 3.23894 -5.96883 0
M  V30 10712 H 1038.12 4.85487 -4.41179 0
M  V30 10713 H 1038.04 4.46722 -6.09898 0
M  V30 10714 H 1039.31 5.50516 -5.51863 0
M  V30 10715 N 1043.54 1.5137 0.438746 0
M  V30 10716 C 1044.49 1.73154 1.55308 0
M  V30 10717 C 1045.48 0.597825 1.58501 0
M  V30 10718 O 1046.69 0.77917 1.62262 0
M  V30 10719 H 1043.06 0.547083 0.51595 0
M  V30 10720 H 1045.03 2.66566 1.34108 0
M  V30 10721 C 1043.78 1.87242 2.92977 0
M  V30 10722 H 1043.1 2.73884 2.91252 0
M  V30 10723 H 1044.54 2.06497 3.70317 0
M  V30 10724 C 1043 0.631887 3.30921 0
M  V30 10725 O 1043.53 -0.214099 4.01129 0
M  V30 10726 N 1041.74 0.47639 2.86669 0
M  V30 10727 H 1041.29 1.16589 2.29706 0
M  V30 10728 H 1041.24 -0.352403 3.12419 0
M  V30 10729 N 1045.02 -0.694098 1.41492 0
M  V30 10730 C 1046.24 -1.48789 1.44488 0
M  V30 10731 C 1046.67 -1.88028 0.0521588 0
M  V30 10732 O 1046.02 -1.54727 -0.944952 0
M  V30 10733 C 1046.07 -2.72586 2.3607 0
M  V30 10734 O 1045.18 -3.70128 1.81876 0
M  V30 10735 H 1044.52 -0.447758 0.490315 0
M  V30 10736 H 1047.05 -0.853036 1.85969 0
M  V30 10737 H 1047.06 -3.20877 2.51995 0
M  V30 10738 H 1045.73 -2.43363 3.37264 0
M  V30 10739 H 1044.31 -3.29069 1.75408 0
M  V30 10740 N 1046.49 -1.27344 -0.928501 0
M  V30 10741 C 1047.74 -1.13411 -1.67279 0
M  V30 10742 C 1048.06 0.320698 -1.92345 0
M  V30 10743 O 1047.33 1.2245 -1.52915 0
M  V30 10744 H 1045.91 -0.416712 -0.619968 0
M  V30 10745 H 1048.58 -1.5986 -1.11493 0
M  V30 10746 H 1047.67 -1.66256 -2.64131 0
M  V30 10747 N 1047.97 1.13488 -1.09353 0
M  V30 10748 C 1048.9 2.20988 -0.75409 0
M  V30 10749 C 1049.88 1.67977 0.267901 0
M  V30 10750 O 1051.07 1.93722 0.136128 0
M  V30 10751 C 1048.2 3.46869 -0.173042 0
M  V30 10752 C 1047.15 4.12965 -1.12446 0
M  V30 10753 C 1046.48 5.33163 -0.405157 0
M  V30 10754 C 1047.78 4.60388 -2.46658 0
M  V30 10755 H 1049.47 2.49639 -1.6529 0
M  V30 10756 H 1047.02 1.19987 -0.796182 0
M  V30 10757 H 1048.97 4.21331 0.0764988 0
M  V30 10758 H 1047.7 3.17611 0.760956 0
M  V30 10759 H 1046.35 3.40469 -1.35927 0
M  V30 10760 H 1046 5.00169 0.532955 0
M  V30 10761 H 1045.7 5.78332 -1.03952 0
M  V30 10762 H 1047.23 6.1038 -0.163899 0
M  V30 10763 H 1048.64 5.26276 -2.27389 0
M  V30 10764 H 1047.04 5.16294 -3.05876 0
M  V30 10765 H 1048.11 3.74949 -3.07476 0
M  V30 10766 N 1049.45 0.880621 1.30701 0
M  V30 10767 C 1050.69 0.503519 1.98101 0
M  V30 10768 C 1051.06 -0.929075 1.68024 0
M  V30 10769 O 1052.26 -1.41208 2.28722 0
M  V30 10770 C 1050.53 0.765652 3.49102 0
M  V30 10771 S 1052.09 0.490001 4.36056 0
M  V30 10772 H 1048.9 0.187522 0.685825 0
M  V30 10773 H 1051.51 1.13895 1.58897 0
M  V30 10774 H 1050.21 1.80688 3.68484 0
M  V30 10775 H 1049.74 0.117616 3.93224 0
M  V30 10776 H 1051.76 -0.673236 4.91612 0
M  V30 10777 N 1050.93 -1.4397 0.641131 0
M  V30 10778 C 1052.18 -2.01163 0.147026 0
M  V30 10779 C 1052.49 -1.51099 -1.24211 0
M  V30 10780 O 1053.7 -2.00487 -1.83078 0
M  V30 10781 C 1052.15 -3.59275 0.212068 0
M  V30 10782 C 1051.76 -4.18334 1.60314 0
M  V30 10783 C 1053.51 -4.23903 -0.225057 0
M  V30 10784 C 1051.41 -5.68701 1.62276 0
M  V30 10785 H 1050.34 -0.75226 0.051201 0
M  V30 10786 H 1052.99 -1.65075 0.801396 0
M  V30 10787 H 1051.38 -3.92708 -0.509589 0
M  V30 10788 H 1052.55 -3.96422 2.34918 0
M  V30 10789 H 1050.86 -3.66031 1.9852 0
M  V30 10790 H 1053.46 -5.34205 -0.230074 0
M  V30 10791 H 1053.8 -3.96956 -1.25426 0
M  V30 10792 H 1054.34 -3.95309 0.44444 0
M  V30 10793 H 1051.08 -6.00397 2.63066 0
M  V30 10794 H 1050.6 -5.92705 0.919797 0
M  V30 10795 H 1052.28 -6.32521 1.36112 0
M  V30 10796 N 1052.41 -0.382291 -1.52893 0
M  V30 10797 C 1053.65 0.201996 -2.03399 0
M  V30 10798 C 1054.01 1.44624 -1.26286 0
M  V30 10799 O 1055.21 2.10723 -1.66881 0
M  V30 10800 C 1053.48 0.470348 -3.54292 0
M  V30 10801 S 1055.04 1.02592 -4.26638 0
M  V30 10802 H 1051.86 0.0575178 -0.70867 0
M  V30 10803 H 1054.46 -0.52902 -1.88206 0
M  V30 10804 H 1053.17 -0.44243 -4.08008 0
M  V30 10805 H 1052.7 1.22998 -3.73678 0
M  V30 10806 H 1054.71 2.30887 -4.3921 0
M  V30 10807 N 1053.89 1.57202 -0.111913 0
M  V30 10808 C 1055.13 1.96834 0.550967 0
M  V30 10809 C 1055.49 0.993502 1.64297 0
M  V30 10810 O 1056.69 1.27894 2.36425 0
M  V30 10811 C 1054.96 3.40805 1.07641 0
M  V30 10812 S 1056.52 4.02445 1.74881 0
M  V30 10813 H 1053.34 0.688021 0.179298 0
M  V30 10814 H 1055.94 1.94522 -0.195312 0
M  V30 10815 H 1054.64 4.09508 0.270377 0
M  V30 10816 H 1054.18 3.46752 1.85814 0
M  V30 10817 H 1056.19 3.92623 3.03416 0
M  V30 10818 N 1055.36 -0.161842 1.56767 0
M  V30 10819 C 1056.27 -1.21996 2.00385 0
M  V30 10820 C 1057.29 -1.4789 0.916768 0
M  V30 10821 O 1058.47 -1.59852 1.22513 0
M  V30 10822 C 1055.53 -2.53695 2.36305 0
M  V30 10823 C 1054.59 -2.3558 3.58888 0
M  V30 10824 C 1053.82 -3.60998 3.93085 0
M  V30 10825 O 1054.05 -4.6657 3.28129 0
M  V30 10826 O 1052.98 -3.54544 4.86397 0
M  V30 10827 H 1056.81 -0.879701 2.9068 0
M  V30 10828 H 1054.39 -0.369437 1.4476 0
M  V30 10829 H 1056.27 -3.31366 2.60335 0
M  V30 10830 H 1054.95 -2.87281 1.49169 0
M  V30 10831 H 1053.86 -1.55908 3.40064 0
M  V30 10832 H 1055.19 -2.06915 4.46595 0
M  V30 10833 N 1056.84 -1.516 -0.430713 0
M  V30 10834 C 1058.09 -1.6484 -1.18134 0
M  V30 10835 C 1058.42 -0.366725 -1.90706 0
M  V30 10836 O 1057.7 0.63398 -1.83878 0
M  V30 10837 C 1057.98 -2.85617 -2.19306 0
M  V30 10838 C 1057.83 -4.23778 -1.50773 0
M  V30 10839 C 1059.15 -3.01909 -3.20217 0
M  V30 10840 H 1056.27 -0.599907 -0.428113 0
M  V30 10841 H 1058.91 -1.84102 -0.46973 0
M  V30 10842 H 1057.06 -2.69325 -2.79993 0
M  V30 10843 H 1058.73 -4.51752 -0.93371 0
M  V30 10844 H 1056.98 -4.26171 -0.809966 0
M  V30 10845 H 1057.65 -5.04291 -2.24487 0
M  V30 10846 H 1060.12 -3.16956 -2.69589 0
M  V30 10847 H 1059 -3.87968 -3.88293 0
M  V30 10848 H 1059.26 -2.1427 -3.86705 0
M  V30 10849 N 1058.32 0.686584 -1.41858 0
M  V30 10850 C 1059.57 1.44665 -1.41698 0
M  V30 10851 C 1059.89 1.94478 -0.0292442 0
M  V30 10852 O 1059.15 1.70512 0.960421 0
M  V30 10853 C 1059.45 2.66793 -2.37816 0
M  V30 10854 C 1059.11 2.35587 -3.8446 0
M  V30 10855 C 1057.78 2.26788 -4.24406 0
M  V30 10856 C 1060.13 2.10028 -4.77009 0
M  V30 10857 C 1057.46 1.90538 -5.54898 0
M  V30 10858 C 1059.81 1.75285 -6.07831 0
M  V30 10859 C 1058.47 1.64987 -6.46789 0
M  V30 10860 H 1057.74 0.529367 -0.518509 0
M  V30 10861 H 1060.39 0.783938 -1.74719 0
M  V30 10862 H 1058.69 3.38041 -1.9808 0
M  V30 10863 H 1060.39 3.24953 -2.34961 0
M  V30 10864 H 1056.98 2.43334 -3.52826 0
M  V30 10865 H 1061.17 2.15766 -4.46944 0
M  V30 10866 H 1056.42 1.81125 -5.83955 0
M  V30 10867 H 1060.6 1.5453 -6.79039 0
M  V30 10868 H 1058.22 1.36667 -7.47814 0
M  V30 10869 N 1059.8 1.27835 0.921735 0
M  V30 10870 C 1061.04 1.14692 1.67253 0
M  V30 10871 C 1061.38 -0.305384 1.91784 0
M  V30 10872 O 1060.65 -1.22286 1.51249 0
M  V30 10873 C 1060.93 1.93743 3.03539 0
M  V30 10874 C 1060.79 3.46991 2.86212 0
M  V30 10875 C 1062.11 1.74658 4.03959 0
M  V30 10876 H 1059.23 0.418021 0.606983 0
M  V30 10877 H 1061.87 1.5706 1.06922 0
M  V30 10878 H 1060.02 1.57738 3.55037 0
M  V30 10879 H 1061.69 3.92858 2.41785 0
M  V30 10880 H 1059.93 3.73029 2.21432 0
M  V30 10881 H 1060.6 3.97551 3.82958 0
M  V30 10882 H 1063.08 2.06063 3.61493 0
M  V30 10883 H 1061.96 2.32353 4.97296 0
M  V30 10884 H 1062.22 0.696019 4.36587 0
M  V30 10885 N 1061.28 -1.12907 1.09954 0
M  V30 10886 C 1062.52 -1.83941 0.837255 0
M  V30 10887 C 1062.84 -1.84234 -0.638984 0
M  V30 10888 O 1062.11 -1.30193 -1.46378 0
M  V30 10889 H 1060.69 -0.681115 0.306743 0
M  V30 10890 H 1063.36 -1.36743 1.38879 0
M  V30 10891 H 1062.45 -2.88289 1.19565 0
M  V30 10892 N 1062.75 -0.88754 -1.30232 0
M  V30 10893 C 1064.16 -0.55745 -1.78184 0
M  V30 10894 C 1064.52 0.926474 -1.72948 0
M  V30 10895 O 1063.64 1.72403 -1.3079 0
M  V30 10896 C 1064.24 -1.00512 -3.23547 0
M  V30 10897 C 1062.79 -0.726402 -3.69324 0
M  V30 10898 C 1061.94 -1.18666 -2.50627 0
M  V30 10899 H 1064.89 -1.07151 -1.17066 0
M  V30 10900 H 1064.91 -0.335185 -3.79021 0
M  V30 10901 H 1064.43 -2.08517 -3.27326 0
M  V30 10902 H 1062.53 0.341548 -3.71031 0
M  V30 10903 H 1062.64 -1.31575 -4.60679 0
M  V30 10904 H 1061 -0.605936 -2.47387 0
M  V30 10905 H 1061.79 -2.2745 -2.57141 0
M  V30 10906 N 1064.23 1.43628 -0.648757 0
M  V30 10907 C 1065.65 1.56442 -0.315921 0
M  V30 10908 C 1065.85 1.63322 1.18018 0
M  V30 10909 O 1064.9 1.58585 1.96487 0
M  V30 10910 C 1066.22 2.82751 -1.02335 0
M  V30 10911 C 1067.77 2.96488 -1.00318 0
M  V30 10912 C 1068.24 4.25623 -1.69142 0
M  V30 10913 N 1069.73 4.32477 -1.65885 0
M  V30 10914 C 1070.47 5.31154 -2.16016 0
M  V30 10915 N 1069.96 6.36135 -2.74415 0
M  V30 10916 N 1071.76 5.22778 -2.06541 0
M  V30 10917 H 1063.91 1.37405 -1.61968 0
M  V30 10918 H 1066.17 0.65962 -0.680886 0
M  V30 10919 H 1065.88 2.83714 -2.07844 0
M  V30 10920 H 1065.75 3.72836 -0.572114 0
M  V30 10921 H 1068.14 2.95068 0.0434919 0
M  V30 10922 H 1068.22 2.07704 -1.49307 0
M  V30 10923 H 1067.86 4.27804 -2.73763 0
M  V30 10924 H 1067.79 5.13296 -1.17622 0
M  V30 10925 H 1070.28 3.57232 -1.23264 0
M  V30 10926 H 1070.6 7.07743 -3.10355 0
M  V30 10927 H 1068.94 6.36771 -2.78474 0
M  V30 10928 H 1072.13 4.39678 -1.60625 0
M  V30 10929 H 1072.3 5.99523 -2.45919 0
M  V30 10930 N 1065.71 0.390394 1.52688 0
M  V30 10931 C 1066.66 -0.444229 2.26485 0
M  V30 10932 C 1067.63 -1.05688 1.28138 0
M  V30 10933 O 1068.81 -1.0847 1.56968 0
M  V30 10934 C 1065.95 -1.56501 3.07574 0
M  V30 10935 C 1065.07 -0.975111 4.20851 0
M  V30 10936 C 1064.2 -2.06704 4.89333 0
M  V30 10937 C 1063.24 -1.45309 5.94602 0
M  V30 10938 N 1062.38 -2.48437 6.56676 0
M  V30 10939 H 1067.22 0.191535 2.97384 0
M  V30 10940 H 1064.75 0.106287 1.46716 0
M  V30 10941 H 1066.71 -2.22558 3.52879 0
M  V30 10942 H 1065.34 -2.17107 2.38881 0
M  V30 10943 H 1064.39 -0.204109 3.79852 0
M  V30 10944 H 1065.71 -0.486465 4.96422 0
M  V30 10945 H 1064.86 -2.80528 5.37949 0
M  V30 10946 H 1063.6 -2.58928 4.13289 0
M  V30 10947 H 1062.6 -0.700091 5.45324 0
M  V30 10948 H 1063.83 -0.938775 6.7258 0
M  V30 10949 H 1061.77 -2.99829 5.83471 0
M  V30 10950 H 1061.69 -2.04331 7.27863 0
M  V30 10951 H 1062.96 -3.21888 7.09935 0
M  V30 10952 N 1067.19 -1.57141 0.120249 0
M  V30 10953 C 1068.12 -2.18398 -0.826112 0
M  V30 10954 C 1069.1 -1.12439 -1.27638 0
M  V30 10955 O 1070.28 -1.40679 -1.33877 0
M  V30 10956 C 1067.41 -2.78438 -2.0758 0
M  V30 10957 C 1066.37 -3.89991 -1.76327 0
M  V30 10958 C 1065.69 -4.36844 -3.08336 0
M  V30 10959 C 1066.99 -5.12031 -1.03062 0
M  V30 10960 H 1068.69 -2.97731 -0.315656 0
M  V30 10961 H 1066.23 -1.43213 -0.150387 0
M  V30 10962 H 1068.19 -3.19951 -2.74243 0
M  V30 10963 H 1066.91 -1.96396 -2.60953 0
M  V30 10964 H 1065.57 -3.49055 -1.12053 0
M  V30 10965 H 1065.22 -3.51659 -3.59646 0
M  V30 10966 H 1064.92 -5.1207 -2.88199 0
M  V30 10967 H 1066.44 -4.81009 -3.76116 0
M  V30 10968 H 1067.86 -5.50555 -1.59881 0
M  V30 10969 H 1066.25 -5.92848 -0.930146 0
M  V30 10970 H 1067.32 -4.84897 -0.017582 0
M  V30 10971 N 1068.67 0.153526 -1.5685 0
M  V30 10972 C 1069.91 0.873522 -1.84794 0
M  V30 10973 C 1070.27 1.78642 -0.703648 0
M  V30 10974 O 1071.47 2.54537 -0.863972 0
M  V30 10975 C 1069.74 1.63316 -3.17904 0
M  V30 10976 S 1071.3 2.39948 -3.67383 0
M  V30 10977 H 1068.12 0.292233 -0.648167 0
M  V30 10978 H 1070.72 0.133949 -1.95041 0
M  V30 10979 H 1069.43 0.95387 -3.99161 0
M  V30 10980 H 1068.96 2.41377 -3.10646 0
M  V30 10981 H 1070.97 3.65011 -3.36127 0
M  V30 10982 N 1070.14 1.51827 0.422667 0
M  V30 10983 C 1071.39 1.65464 1.17258 0
M  V30 10984 C 1071.72 0.376834 1.90509 0
M  V30 10985 O 1071 -0.624219 1.84211 0
M  V30 10986 C 1071.28 2.86776 2.17788 0
M  V30 10987 C 1071.13 4.24571 1.48523 0
M  V30 10988 C 1072.45 3.03603 3.18611 0
M  V30 10989 H 1069.57 0.602169 0.424925 0
M  V30 10990 H 1072.21 1.84349 0.45996 0
M  V30 10991 H 1070.36 2.70806 2.78561 0
M  V30 10992 H 1072.04 4.5224 0.909739 0
M  V30 10993 H 1070.28 4.26595 0.787354 0
M  V30 10994 H 1070.95 5.05475 2.2181 0
M  V30 10995 H 1073.43 3.18381 2.67904 0
M  V30 10996 H 1072.3 3.90022 3.8623 0
M  V30 10997 H 1072.56 2.16318 3.85563 0
M  V30 10998 N 1071.62 -0.679052 1.4222 0
M  V30 10999 C 1072.57 -1.79269 1.45366 0
M  V30 11000 C 1073.54 -1.63255 0.306089 0
M  V30 11001 O 1074.72 -1.8387 0.509548 0
M  V30 11002 C 1071.86 -3.17272 1.35766 0
M  V30 11003 C 1070.98 -3.44603 2.60525 0
M  V30 11004 C 1070.11 -4.7231 2.43098 0
M  V30 11005 C 1069.15 -4.92661 3.63251 0
M  V30 11006 N 1068.29 -6.11606 3.44794 0
M  V30 11007 H 1073.13 -1.75916 2.40536 0
M  V30 11008 H 1070.67 -0.858836 1.19425 0
M  V30 11009 H 1072.62 -3.97015 1.282 0
M  V30 11010 H 1071.25 -3.1976 0.441939 0
M  V30 11011 H 1070.31 -2.59144 2.78475 0
M  V30 11012 H 1071.62 -3.55536 3.49851 0
M  V30 11013 H 1070.77 -5.60136 2.33093 0
M  V30 11014 H 1069.51 -4.63652 1.51255 0
M  V30 11015 H 1068.52 -4.03278 3.73693 0
M  V30 11016 H 1069.74 -5.03167 4.5607 0
M  V30 11017 H 1067.69 -6.04129 2.55663 0
M  V30 11018 H 1067.6 -6.23381 4.27705 0
M  V30 11019 H 1068.87 -7.02122 3.38592 0
M  V30 11020 N 1073.1 -1.28322 -0.914942 0
M  V30 11021 C 1074.01 -1.13993 -2.05043 0
M  V30 11022 C 1075.03 -0.0667921 -1.73872 0
M  V30 11023 O 1076.2 -0.275845 -1.99502 0
M  V30 11024 C 1073.27 -0.801856 -3.373 0
M  V30 11025 C 1072.33 -1.95723 -3.82088 0
M  V30 11026 C 1071.56 -1.63519 -5.08033 0
M  V30 11027 O 1071.78 -0.54899 -5.67752 0
M  V30 11028 O 1070.72 -2.47844 -5.48504 0
M  V30 11029 H 1074.54 -2.09313 -2.2005 0
M  V30 11030 H 1072.13 -1.0763 -1.03616 0
M  V30 11031 H 1074.01 -0.627214 -4.16706 0
M  V30 11032 H 1072.69 0.121696 -3.23471 0
M  V30 11033 H 1071.59 -2.18702 -3.03514 0
M  V30 11034 H 1072.93 -2.86144 -4.00478 0
M  V30 11035 N 1074.58 1.12322 -1.10551 0
M  V30 11036 C 1075.51 2.17221 -0.699299 0
M  V30 11037 C 1076.49 1.59809 0.299973 0
M  V30 11038 O 1077.67 1.87451 0.198589 0
M  V30 11039 C 1074.8 3.38685 -0.0320136 0
M  V30 11040 C 1073.85 4.14732 -0.99495 0
M  V30 11041 S 1074.68 4.72879 -2.51288 0
M  V30 11042 C 1075.84 5.97676 -1.85834 0
M  V30 11043 H 1076.07 2.51342 -1.5879 0
M  V30 11044 H 1073.6 1.23802 -0.92263 0
M  V30 11045 H 1075.56 4.09034 0.346656 0
M  V30 11046 H 1074.22 3.02842 0.833407 0
M  V30 11047 H 1073.41 5.01754 -0.475331 0
M  V30 11048 H 1073.02 3.50098 -1.31559 0
M  V30 11049 H 1075.31 6.6698 -1.18927 0
M  V30 11050 H 1076.25 6.54266 -2.70817 0
M  V30 11051 H 1076.66 5.48793 -1.32237 0
M  V30 11052 N 1076.06 0.894434 1.2976 0
M  V30 11053 C 1077 0.357958 2.29829 0
M  V30 11054 C 1078 -0.540093 1.6056 0
M  V30 11055 O 1079.2 -0.423478 1.74948 0
M  V30 11056 H 1075.58 0.0971183 0.745702 0
M  V30 11057 H 1077.55 1.21542 2.72526 0
M  V30 11058 C 1076.3 -0.404126 3.45343 0
M  V30 11059 H 1075.62 0.277671 3.98835 0
M  V30 11060 H 1077.06 -0.744446 4.17413 0
M  V30 11061 C 1075.52 -1.6048 2.96222 0
M  V30 11062 O 1076.05 -2.70414 2.97051 0
M  V30 11063 N 1074.26 -1.44517 2.52117 0
M  V30 11064 H 1073.8 -0.55082 2.51642 0
M  V30 11065 H 1073.76 -2.24987 2.1961 0
M  V30 11066 N 1077.53 -1.43282 0.656365 0
M  V30 11067 C 1078.76 -2.06641 0.177245 0
M  V30 11068 C 1079.18 -1.48893 -1.14946 0
M  V30 11069 O 1078.54 -0.600099 -1.7108 0
M  V30 11070 C 1078.59 -3.60453 0.10299 0
M  V30 11071 O 1077.69 -4.01687 -0.933895 0
M  V30 11072 H 1077.04 -0.656978 0.096314 0
M  V30 11073 H 1079.57 -1.83733 0.900178 0
M  V30 11074 H 1079.58 -4.07923 -0.079291 0
M  V30 11075 H 1078.25 -4.01861 1.07147 0
M  V30 11076 H 1076.83 -3.65801 -0.724148 0
M  V30 11077 N 1079.01 -0.398486 -1.52479 0
M  V30 11078 C 1080.26 0.180394 -2.01293 0
M  V30 11079 C 1080.58 1.46548 -1.28641 0
M  V30 11080 O 1079.85 1.91579 -0.409173 0
M  V30 11081 H 1078.43 0.0696528 -0.743746 0
M  V30 11082 H 1081.09 -0.532285 -1.87491 0
M  V30 11083 H 1080.19 0.38409 -3.09728 0
M  V30 11084 N 1080.49 1.57075 -0.12858 0
M  V30 11085 C 1081.42 2.11553 0.855593 0
M  V30 11086 C 1082.4 1.03435 1.25459 0
M  V30 11087 O 1083.59 1.3115 1.35395 0
M  V30 11088 C 1080.71 2.62012 2.14633 0
M  V30 11089 C 1079.76 3.82105 1.89467 0
M  V30 11090 S 1080.59 5.24033 1.10228 0
M  V30 11091 C 1081.75 5.77867 2.4046 0
M  V30 11092 H 1081.98 2.94701 0.392248 0
M  V30 11093 H 1079.51 1.54164 0.0853746 0
M  V30 11094 H 1081.47 2.91737 2.8879 0
M  V30 11095 H 1080.13 1.79029 2.58084 0
M  V30 11096 H 1079.33 4.15592 2.8513 0
M  V30 11097 H 1078.93 3.53047 1.23427 0
M  V30 11098 H 1081.22 5.88175 3.36238 0
M  V30 11099 H 1082.16 6.75775 2.11504 0
M  V30 11100 H 1082.57 5.05991 2.50266 0
M  V30 11101 N 1081.97 -0.145205 1.5693 0
M  V30 11102 C 1082.93 -1.16316 1.97492 0
M  V30 11103 C 1083.93 -1.35764 0.861668 0
M  V30 11104 O 1085.12 -1.32726 1.12825 0
M  V30 11105 C 1082.25 -2.52311 2.29242 0
M  V30 11106 H 1083.45 -0.815138 2.8861 0
M  V30 11107 H 1081 -0.38861 1.51392 0
M  V30 11108 H 1081.74 -2.92081 1.40922 0
M  V30 11109 H 1081.52 -2.39555 3.10412 0
M  V30 11110 H 1083.01 -3.25624 2.61456 0
M  V30 11111 N 1083.45 -1.52049 -0.414609 0
M  V30 11112 C 1084.39 -1.74998 -1.5048 0
M  V30 11113 C 1085.36 -0.592251 -1.55182 0
M  V30 11114 O 1086.55 -0.829203 -1.7184 0
M  V30 11115 C 1083.69 -1.90157 -2.87983 0
M  V30 11116 C 1082.8 -3.17789 -2.92633 0
M  V30 11117 C 1081.94 -3.23411 -4.21401 0
M  V30 11118 C 1080.98 -4.45267 -4.20004 0
M  V30 11119 N 1080.11 -4.48312 -5.40334 0
M  V30 11120 H 1084.95 -2.68046 -1.30212 0
M  V30 11121 H 1082.49 -1.32824 -0.632154 0
M  V30 11122 H 1084.45 -1.96929 -3.67797 0
M  V30 11123 H 1083.08 -1.00496 -3.06758 0
M  V30 11124 H 1082.13 -3.20216 -2.05343 0
M  V30 11125 H 1083.44 -4.07634 -2.87465 0
M  V30 11126 H 1082.6 -3.29224 -5.09604 0
M  V30 11127 H 1081.34 -2.31495 -4.29257 0
M  V30 11128 H 1080.34 -4.39606 -3.30192 0
M  V30 11129 H 1081.57 -5.38472 -4.13793 0
M  V30 11130 H 1079.51 -3.59277 -5.48868 0
M  V30 11131 H 1079.43 -5.31994 -5.37139 0
M  V30 11132 H 1080.7 -4.58347 -6.30506 0
M  V30 11133 N 1084.93 0.6715 -1.42579 0
M  V30 11134 C 1085.87 1.78496 -1.46314 0
M  V30 11135 C 1086.84 1.63091 -0.314743 0
M  V30 11136 O 1088.03 1.83597 -0.519292 0
M  V30 11137 C 1085.17 3.16548 -1.37447 0
M  V30 11138 C 1084.28 3.43216 -2.62348 0
M  V30 11139 C 1083.42 4.71014 -2.456 0
M  V30 11140 C 1082.45 4.90728 -3.65859 0
M  V30 11141 N 1081.59 6.09769 -3.48032 0
M  V30 11142 H 1086.43 1.74638 -2.41466 0
M  V30 11143 H 1083.97 0.852491 -1.19879 0
M  V30 11144 H 1085.93 3.96329 -1.30303 0
M  V30 11145 H 1084.56 3.19522 -0.458891 0
M  V30 11146 H 1083.61 2.57664 -2.79846 0
M  V30 11147 H 1084.92 3.53675 -3.51732 0
M  V30 11148 H 1084.07 5.58892 -2.3606 0
M  V30 11149 H 1082.81 4.62843 -1.53712 0
M  V30 11150 H 1081.82 4.01291 -3.75827 0
M  V30 11151 H 1083.04 5.00741 -4.58732 0
M  V30 11152 H 1080.99 6.02765 -2.58864 0
M  V30 11153 H 1080.91 6.21104 -4.31005 0
M  V30 11154 H 1082.17 7.00317 -3.42311 0
M  V30 11155 N 1086.4 1.28806 0.908124 0
M  V30 11156 C 1087.34 1.09018 2.01613 0
M  V30 11157 C 1088.35 0.0402059 1.6275 0
M  V30 11158 O 1089.54 0.283853 1.76229 0
M  V30 11159 C 1086.64 0.635712 3.32884 0
M  V30 11160 C 1085.81 1.76235 4.00325 0
M  V30 11161 C 1084.87 1.3003 5.09881 0
M  V30 11162 O 1083.9 2.00354 5.32773 0
M  V30 11163 N 1085.1 0.166575 5.80261 0
M  V30 11164 H 1087.86 2.0444 2.19144 0
M  V30 11165 H 1085.42 1.20633 1.07978 0
M  V30 11166 H 1087.42 0.310097 4.0351 0
M  V30 11167 H 1085.99 -0.225816 3.11783 0
M  V30 11168 H 1085.21 2.25727 3.23173 0
M  V30 11169 H 1086.49 2.51796 4.42127 0
M  V30 11170 H 1085.89 -0.419934 5.64139 0
M  V30 11171 H 1084.45 -0.0997281 6.51724 0
M  V30 11172 N 1087.88 -1.11734 1.11145 0
M  V30 11173 C 1088.84 -2.15868 0.770303 0
M  V30 11174 C 1089.84 -1.59438 -0.208842 0
M  V30 11175 O 1091.03 -1.74193 0.0152516 0
M  V30 11176 C 1088.17 -3.40603 0.142303 0
M  V30 11177 H 1089.36 -2.4756 1.69276 0
M  V30 11178 H 1086.91 -1.26867 0.912929 0
M  V30 11179 H 1087.65 -3.14517 -0.790526 0
M  V30 11180 H 1087.43 -3.8284 0.847087 0
M  V30 11181 H 1088.92 -4.17523 -0.0803608 0
M  V30 11182 N 1089.36 -0.901303 -1.29284 0
M  V30 11183 C 1090.61 -0.538241 -1.96149 0
M  V30 11184 C 1090.96 0.905804 -1.69744 0
M  V30 11185 O 1090.25 1.63383 -1.00083 0
M  V30 11186 C 1090.45 -0.768828 -3.49033 0
M  V30 11187 C 1090.28 -2.23373 -3.903 0
M  V30 11188 C 1089.05 -2.88148 -4.15089 0
M  V30 11189 C 1091.24 -3.20907 -4.01899 0
M  V30 11190 N 1089.23 -4.25065 -4.42937 0
M  V30 11191 C 1090.6 -4.42948 -4.33817 0
M  V30 11192 C 1092.65 -3.16475 -3.8438 0
M  V30 11193 C 1091.36 -5.6112 -4.50041 0
M  V30 11194 C 1093.38 -4.33934 -4.01815 0
M  V30 11195 C 1092.74 -5.54745 -4.34093 0
M  V30 11196 H 1088.84 -0.246593 -0.742102 0
M  V30 11197 H 1091.43 -1.16245 -1.5619 0
M  V30 11198 H 1089.6 -0.17399 -3.8801 0
M  V30 11199 H 1091.33 -0.37104 -4.02996 0
M  V30 11200 H 1088.08 -2.38935 -4.0891 0
M  V30 11201 H 1088.51 -4.95822 -4.60966 0
M  V30 11202 H 1093.15 -2.2416 -3.58486 0
M  V30 11203 H 1090.87 -6.53925 -4.74771 0
M  V30 11204 H 1094.45 -4.31993 -3.89709 0
M  V30 11205 H 1093.33 -6.4412 -4.47302 0
M  V30 11206 N 1090.84 1.42931 -0.663954 0
M  V30 11207 C 1091.77 2.33499 0.00731327 0
M  V30 11208 C 1092.75 1.50074 0.800733 0
M  V30 11209 O 1093.93 1.78708 0.760062 0
M  V30 11210 C 1091.06 3.33569 0.966897 0
M  V30 11211 C 1090.02 4.27064 0.282839 0
M  V30 11212 C 1089.34 5.17257 1.35461 0
M  V30 11213 C 1090.64 5.1564 -0.831438 0
M  V30 11214 H 1092.34 2.89879 -0.749044 0
M  V30 11215 H 1089.88 1.39385 -0.361656 0
M  V30 11216 H 1091.84 3.95833 1.44549 0
M  V30 11217 H 1090.56 2.75469 1.75455 0
M  V30 11218 H 1089.22 3.6618 -0.175417 0
M  V30 11219 H 1088.87 4.5549 2.13397 0
M  V30 11220 H 1088.57 5.80634 0.902098 0
M  V30 11221 H 1090.09 5.82395 1.83436 0
M  V30 11222 H 1091.51 5.71651 -0.434534 0
M  V30 11223 H 1089.9 5.87794 -1.20908 0
M  V30 11224 H 1090.97 4.54687 -1.68487 0
M  V30 11225 N 1092.32 0.406567 1.52266 0
M  V30 11226 C 1093.56 -0.171391 2.00971 0
M  V30 11227 C 1093.88 -1.46443 1.29668 0
M  V30 11228 O 1095.08 -2.12348 1.69176 0
M  V30 11229 C 1093.54 -0.35599 3.58135 0
M  V30 11230 C 1093.15 0.924803 4.38351 0
M  V30 11231 C 1094.89 -0.889378 4.15079 0
M  V30 11232 C 1092.8 0.707534 5.87152 0
M  V30 11233 H 1091.73 -0.0678253 0.750943 0
M  V30 11234 H 1094.38 0.531619 1.7563 0
M  V30 11235 H 1092.76 -1.12127 3.79794 0
M  V30 11236 H 1093.94 1.69603 4.28452 0
M  V30 11237 H 1092.25 1.38442 3.92712 0
M  V30 11238 H 1094.85 -1.06792 5.23927 0
M  V30 11239 H 1095.19 -1.86334 3.7227 0
M  V30 11240 H 1095.72 -0.183224 3.97378 0
M  V30 11241 H 1092.46 1.65299 6.34316 0
M  V30 11242 H 1091.98 -0.024446 5.99795 0
M  V30 11243 H 1093.66 0.348721 6.4606 0
M  V30 11244 N 1093.79 -1.57004 0.136909 0
M  V30 11245 C 1094.74 -2.16246 -0.806607 0
M  V30 11246 C 1095.71 -1.09246 -1.25118 0
M  V30 11247 O 1096.9 -1.3724 -1.32551 0
M  V30 11248 C 1094.04 -2.78031 -2.04433 0
M  V30 11249 C 1093.15 -3.99393 -1.64649 0
M  V30 11250 C 1092.28 -4.49208 -2.83524 0
M  V30 11251 C 1091.32 -5.63059 -2.40064 0
M  V30 11252 N 1090.46 -6.07537 -3.51913 0
M  V30 11253 H 1095.3 -2.9654 -0.294596 0
M  V30 11254 H 1092.84 -1.46491 -0.133705 0
M  V30 11255 H 1094.8 -3.11992 -2.76978 0
M  V30 11256 H 1093.43 -2.00398 -2.53062 0
M  V30 11257 H 1092.48 -3.71477 -0.819077 0
M  V30 11258 H 1093.79 -4.81904 -1.28723 0
M  V30 11259 H 1092.94 -4.85171 -3.64271 0
M  V30 11260 H 1091.68 -3.65683 -3.22688 0
M  V30 11261 H 1090.69 -5.26682 -1.57754 0
M  V30 11262 H 1091.91 -6.48362 -2.01997 0
M  V30 11263 H 1089.86 -5.2695 -3.90717 0
M  V30 11264 H 1089.78 -6.84949 -3.1997 0
M  V30 11265 H 1091.04 -6.48143 -4.33048 0
M  V30 11266 N 1095.27 0.136881 -1.57004 0
M  V30 11267 C 1096.22 1.18782 -1.99984 0
M  V30 11268 C 1097.21 1.43899 -0.893841 0
M  V30 11269 O 1098.42 1.44072 -1.07904 0
M  V30 11270 H 1094.8 0.400065 -0.636751 0
M  V30 11271 H 1096.77 0.798696 -2.87512 0
M  V30 11272 C 1095.52 2.51105 -2.40502 0
M  V30 11273 H 1094.84 2.32611 -3.25165 0
M  V30 11274 H 1096.28 3.23244 -2.74389 0
M  V30 11275 C 1094.74 3.12386 -1.26161 0
M  V30 11276 O 1095.27 3.97666 -0.567836 0
M  V30 11277 N 1093.47 2.71989 -1.02326 0
M  V30 11278 H 1093.02 2.02736 -1.58921 0
M  V30 11279 H 1092.98 3.13322 -0.26013 0
M  V30 11280 N 1096.75 1.52266 0.40654 0
M  V30 11281 C 1097.7 1.75794 1.4955 0
M  V30 11282 C 1098.67 0.600472 1.54866 0
M  V30 11283 O 1099.85 0.838305 1.71397 0
M  V30 11284 C 1096.99 1.91682 2.86971 0
M  V30 11285 C 1096.11 3.19337 2.90943 0
M  V30 11286 C 1095.24 3.25641 4.1968 0
M  V30 11287 C 1094.28 4.47488 4.17637 0
M  V30 11288 N 1093.42 4.51171 5.37949 0
M  V30 11289 H 1098.26 2.68733 1.28789 0
M  V30 11290 H 1095.79 1.33157 0.625102 0
M  V30 11291 H 1097.75 1.98877 3.66748 0
M  V30 11292 H 1096.38 1.02121 3.06221 0
M  V30 11293 H 1095.43 3.21301 2.03642 0
M  V30 11294 H 1096.75 4.09153 2.85299 0
M  V30 11295 H 1095.9 3.31922 5.07851 0
M  V30 11296 H 1094.64 2.33769 4.28023 0
M  V30 11297 H 1093.64 4.41351 3.27856 0
M  V30 11298 H 1094.87 5.40659 4.10932 0
M  V30 11299 H 1092.81 3.62182 5.46955 0
M  V30 11300 H 1092.73 5.34835 5.3431 0
M  V30 11301 H 1094 4.61685 6.28066 0
M  V30 11302 N 1098.23 -0.663929 1.42933 0
M  V30 11303 C 1099.48 -1.41973 1.43271 0
M  V30 11304 C 1099.79 -1.95518 0.0566103 0
M  V30 11305 O 1101 -2.71428 -0.0625862 0
M  V30 11306 C 1099.45 -2.56882 2.52071 0
M  V30 11307 C 1099.06 -2.0999 3.95737 0
M  V30 11308 C 1100.8 -3.34322 2.61589 0
M  V30 11309 C 1098.71 -3.22046 4.96025 0
M  V30 11310 H 1097.64 -0.5334 0.532917 0
M  V30 11311 H 1100.29 -0.717709 1.68882 0
M  V30 11312 H 1098.67 -3.29504 2.19643 0
M  V30 11313 H 1099.85 -1.44449 4.37574 0
M  V30 11314 H 1098.16 -1.45459 3.90168 0
M  V30 11315 H 1100.76 -4.17796 3.33692 0
M  V30 11316 H 1101.1 -3.8164 1.66302 0
M  V30 11317 H 1101.64 -2.68775 2.93266 0
M  V30 11318 H 1098.38 -2.79708 5.92827 0
M  V30 11319 H 1097.9 -3.86333 4.5881 0
M  V30 11320 H 1099.57 -3.87345 5.1824 0
M  V30 11321 N 1099.71 -1.29285 -0.901281 0
M  V30 11322 C 1100.65 -1.1428 -2.00521 0
M  V30 11323 C 1101.62 -0.0365428 -1.6606 0
M  V30 11324 O 1102.81 -0.203771 -1.89709 0
M  V30 11325 C 1099.95 -0.823671 -3.35126 0
M  V30 11326 C 1099.06 -2.01021 -3.8238 0
M  V30 11327 C 1098.2 -1.6306 -5.05554 0
M  V30 11328 C 1097.24 -2.78304 -5.45173 0
M  V30 11329 N 1096.37 -2.4075 -6.59533 0
M  V30 11330 H 1101.21 -2.08729 -2.12688 0
M  V30 11331 H 1098.75 -1.0387 -1.04161 0
M  V30 11332 H 1100.71 -0.61934 -4.12577 0
M  V30 11333 H 1099.34 0.0839113 -3.22691 0
M  V30 11334 H 1098.39 -2.32629 -3.00978 0
M  V30 11335 H 1099.7 -2.8738 -4.07694 0
M  V30 11336 H 1098.86 -1.38906 -5.90584 0
M  V30 11337 H 1097.59 -0.738464 -4.82077 0
M  V30 11338 H 1096.6 -3.03142 -4.58678 0
M  V30 11339 H 1097.82 -3.68179 -5.70632 0
M  V30 11340 H 1095.77 -1.54022 -6.37662 0
M  V30 11341 H 1095.69 -3.20643 -6.84634 0
M  V30 11342 H 1096.96 -2.19912 -7.47836 0
M  V30 11343 N 1101.18 1.11143 -1.11736 0
M  V30 11344 C 1102.15 2.15456 -0.78174 0
M  V30 11345 C 1103.15 1.59547 0.200383 0
M  V30 11346 O 1104.34 1.74183 -0.0244893 0
M  V30 11347 C 1101.47 3.40523 -0.160364 0
M  V30 11348 H 1102.66 2.46658 -1.70586 0
M  V30 11349 H 1100.22 1.26381 -0.919644 0
M  V30 11350 H 1100.95 3.14932 0.773835 0
M  V30 11351 H 1100.74 3.82386 -0.867378 0
M  V30 11352 H 1102.23 4.17559 0.0582175 0
M  V30 11353 N 1102.66 0.908147 1.28804 0
M  V30 11354 C 1103.91 0.538404 1.95211 0
M  V30 11355 C 1104.24 -0.916886 1.71533 0
M  V30 11356 O 1103.49 -1.66643 1.02609 0
M  V30 11357 C 1103.79 0.787327 3.4862 0
M  V30 11358 C 1103.46 2.22129 3.92389 0
M  V30 11359 C 1102.12 2.61336 4.04051 0
M  V30 11360 C 1104.47 3.15471 4.14883 0
M  V30 11361 C 1101.8 3.93048 4.3558 0
M  V30 11362 C 1104.15 4.46741 4.47889 0
M  V30 11363 C 1102.82 4.85809 4.57761 0
M  V30 11364 H 1102.09 0.197016 0.714329 0
M  V30 11365 H 1104.73 1.14841 1.53244 0
M  V30 11366 H 1103.04 0.0944731 3.91686 0
M  V30 11367 H 1104.73 0.480503 3.98111 0
M  V30 11368 H 1101.32 1.90704 3.83836 0
M  V30 11369 H 1105.51 2.86391 4.05332 0
M  V30 11370 H 1100.76 4.23027 4.41428 0
M  V30 11371 H 1104.94 5.19087 4.64243 0
M  V30 11372 H 1102.57 5.87904 4.81947 0
M  V30 11373 N 1104.14 -1.42577 0.671525 0
M  V30 11374 C 1105.37 -2.05625 0.20044 0
M  V30 11375 C 1105.78 -1.50524 -1.14626 0
M  V30 11376 O 1105.12 -0.638468 -1.72248 0
M  V30 11377 C 1105.18 -3.59459 0.0545385 0
M  V30 11378 C 1104.85 -4.37236 1.32943 0
M  V30 11379 C 1105.84 -4.68104 2.26219 0
M  V30 11380 C 1103.53 -4.76932 1.57612 0
M  V30 11381 C 1105.52 -5.37599 3.42442 0
M  V30 11382 C 1103.21 -5.46167 2.74125 0
M  V30 11383 C 1104.21 -5.76425 3.66364 0
M  V30 11384 O 1103.9 -6.44242 4.8084 0
M  V30 11385 H 1103.63 -0.66918 0.0957843 0
M  V30 11386 H 1106.18 -1.83759 0.917701 0
M  V30 11387 H 1104.41 -3.79971 -0.718271 0
M  V30 11388 H 1106.1 -4.04152 -0.376251 0
M  V30 11389 H 1106.87 -4.37939 2.08409 0
M  V30 11390 H 1102.75 -4.52776 0.866887 0
M  V30 11391 H 1106.29 -5.61133 4.14458 0
M  V30 11392 H 1102.19 -5.75749 2.91861 0
M  V30 11393 H 1102.96 -6.62732 4.80342 0
M  V30 11394 N 1105.62 -0.414636 -1.52048 0
M  V30 11395 C 1106.58 0.396285 -2.25748 0
M  V30 11396 C 1107.58 0.969003 -1.28324 0
M  V30 11397 O 1108.77 0.847016 -1.52221 0
M  V30 11398 C 1105.9 1.55838 -3.03195 0
M  V30 11399 H 1107.1 -0.249311 -2.98862 0
M  V30 11400 H 1104.65 -0.167276 -1.55402 0
M  V30 11401 H 1105.38 2.24068 -2.34444 0
M  V30 11402 H 1105.17 1.15414 -3.74729 0
M  V30 11403 H 1106.66 2.13187 -3.59084 0
M  V30 11404 N 1107.1 1.56929 -0.145233 0
M  V30 11405 C 1108.06 2.15483 0.781002 0
M  V30 11406 C 1109.06 1.09617 1.17647 0
M  V30 11407 O 1110.25 1.35265 1.09768 0
M  V30 11408 C 1107.38 2.7165 2.05959 0
M  V30 11409 H 1108.57 2.98667 0.271685 0
M  V30 11410 H 1106.13 1.55952 0.1042 0
M  V30 11411 H 1106.86 1.92127 2.61262 0
M  V30 11412 H 1106.65 3.491 1.78526 0
M  V30 11413 H 1108.14 3.16769 2.72116 0
M  V30 11414 N 1108.58 -0.128553 1.57075 0
M  V30 11415 C 1109.82 -0.839252 1.8462 0
M  V30 11416 C 1110.15 -1.79974 0.729582 0
M  V30 11417 O 1109.43 -1.92681 -0.265369 0
M  V30 11418 C 1109.71 -1.59756 3.22723 0
M  V30 11419 C 1109.57 -0.657313 4.44971 0
M  V30 11420 C 1110.88 -2.55592 3.58275 0
M  V30 11421 H 1108 -0.303652 0.671539 0
M  V30 11422 H 1110.65 -0.103802 1.89716 0
M  V30 11423 H 1108.8 -2.22451 3.18509 0
M  V30 11424 H 1110.47 -0.0399471 4.61283 0
M  V30 11425 H 1108.71 0.0318416 4.33788 0
M  V30 11426 H 1109.38 -1.22433 5.38251 0
M  V30 11427 H 1111.86 -2.03007 3.63218 0
M  V30 11428 H 1110.73 -3.05687 4.55902 0
M  V30 11429 H 1110.99 -3.37813 2.85193 0
M  V30 11430 N 1110.05 -1.5248 -0.398459 0
M  V30 11431 C 1111.02 -1.75949 -1.46883 0
M  V30 11432 C 1112.02 -0.629431 -1.47969 0
M  V30 11433 O 1113.21 -0.897407 -1.49306 0
M  V30 11434 C 1110.34 -1.85162 -2.8623 0
M  V30 11435 H 1111.53 -2.71513 -1.2736 0
M  V30 11436 H 1109.08 -1.43058 -0.629619 0
M  V30 11437 H 1109.82 -0.915505 -3.11109 0
M  V30 11438 H 1109.6 -2.67326 -2.86844 0
M  V30 11439 H 1111.09 -2.05025 -3.63805 0
M  V30 11440 N 1111.53 0.65634 -1.43283 0
M  V30 11441 C 1112.49 1.75117 -1.47874 0
M  V30 11442 C 1113.49 1.56629 -0.363846 0
M  V30 11443 O 1114.68 1.62584 -0.625464 0
M  V30 11444 C 1111.82 3.13957 -1.32831 0
M  V30 11445 H 1113.01 1.72429 -2.45374 0
M  V30 11446 H 1110.56 0.867704 -1.30002 0
M  V30 11447 H 1111.3 3.22259 -0.36326 0
M  V30 11448 H 1111.08 3.28781 -2.13649 0
M  V30 11449 H 1112.57 3.93799 -1.38969 0
M  V30 11450 N 1113.01 1.29761 0.894412 0
M  V30 11451 C 1114.29 1.08711 1.62608 0
M  V30 11452 C 1114.67 -0.366907 2.07887 0
M  V30 11453 O 1114.01 -1.35669 1.83865 0
M  V30 11454 C 1114.22 2.07947 2.80284 0
M  V30 11455 C 1115.57 2.39153 3.50843 0
M  V30 11456 O 1116.6 2.06183 2.9046 0
M  V30 11457 O 1115.46 2.95509 4.59713 0
M  V30 11458 H 1112.55 0.416866 0.714249 0
M  V30 11459 H 1115.1 1.41153 0.942015 0
M  V30 11460 H 1113.87 3.05859 2.44061 0
M  V30 11461 H 1113.49 1.76266 3.56393 0
M  V30 11462 N 1114.49 -1.10549 1.12324 0
M  V30 11463 C 1115.73 -1.84108 0.887895 0
M  V30 11464 C 1116.09 -1.83159 -0.5759 0
M  V30 11465 O 1117.29 -2.52259 -0.928367 0
M  V30 11466 C 1115.56 -3.26866 1.44545 0
M  V30 11467 S 1117.12 -4.17567 1.34846 0
M  V30 11468 H 1113.94 -0.634752 0.320329 0
M  V30 11469 H 1116.54 -1.33036 1.43254 0
M  V30 11470 H 1115.25 -3.25126 2.50442 0
M  V30 11471 H 1114.78 -3.83008 0.89825 0
M  V30 11472 H 1116.79 -4.95173 0.319143 0
M  V30 11473 N 1115.97 -0.914965 -1.28321 0
M  V30 11474 C 1117.21 -0.548749 -1.94923 0
M  V30 11475 C 1117.54 0.907776 -1.72016 0
M  V30 11476 O 1116.8 1.66097 -1.03491 0
M  V30 11477 C 1117.09 -0.805805 -3.48198 0
M  V30 11478 C 1116.76 -2.24207 -3.91206 0
M  V30 11479 C 1115.42 -2.63475 -4.02659 0
M  V30 11480 C 1117.77 -3.17667 -4.13204 0
M  V30 11481 C 1115.1 -3.95353 -4.3349 0
M  V30 11482 C 1117.45 -4.4911 -4.45514 0
M  V30 11483 C 1116.12 -4.8823 -4.55179 0
M  V30 11484 H 1115.39 -0.200801 -0.713274 0
M  V30 11485 H 1118.04 -1.15652 -1.52633 0
M  V30 11486 H 1116.34 -0.115244 -3.9163 0
M  V30 11487 H 1118.04 -0.501609 -3.9785 0
M  V30 11488 H 1114.63 -1.92737 -3.82819 0
M  V30 11489 H 1118.81 -2.88537 -4.03807 0
M  V30 11490 H 1114.07 -4.25362 -4.39178 0
M  V30 11491 H 1118.24 -5.21542 -4.61483 0
M  V30 11492 H 1115.87 -5.90451 -4.78823 0
M  V30 11493 N 1117.44 1.42219 -0.679077 0
M  V30 11494 C 1118.86 1.55737 -0.349034 0
M  V30 11495 C 1119.06 1.65789 1.14527 0
M  V30 11496 O 1118.12 1.62717 1.93079 0
M  V30 11497 C 1119.43 2.80516 -1.0831 0
M  V30 11498 C 1120.98 2.94294 -1.06584 0
M  V30 11499 C 1121.45 4.2194 -1.78132 0
M  V30 11500 N 1122.94 4.28861 -1.75021 0
M  V30 11501 C 1123.68 5.26453 -2.27234 0
M  V30 11502 N 1123.17 6.30171 -2.87847 0
M  V30 11503 N 1124.97 5.1828 -2.17584 0
M  V30 11504 H 1117.12 1.33939 -1.64846 0
M  V30 11505 H 1119.38 0.645029 -0.694725 0
M  V30 11506 H 1119.09 2.79241 -2.13816 0
M  V30 11507 H 1118.96 3.71539 -0.651069 0
M  V30 11508 H 1121.35 2.95094 -0.0191061 0
M  V30 11509 H 1121.43 2.04491 -1.53679 0
M  V30 11510 H 1121.07 4.21901 -2.82776 0
M  V30 11511 H 1121 5.10685 -1.28483 0
M  V30 11512 H 1123.49 3.54537 -1.30814 0
M  V30 11513 H 1123.81 7.01 -3.25298 0
M  V30 11514 H 1122.15 6.30721 -2.91918 0
M  V30 11515 H 1125.34 4.36172 -1.69916 0
M  V30 11516 H 1125.52 5.94172 -2.58581 0
M  V30 11517 N 1118.92 0.422693 1.51826 0
M  V30 11518 C 1120.2 -0.20786 1.94492 0
M  V30 11519 C 1120.58 -1.61414 1.36047 0
M  V30 11520 O 1119.93 -2.21987 0.541657 0
M  V30 11521 C 1120.14 -0.200457 3.48424 0
M  V30 11522 C 1121.48 -0.413199 4.22585 0
M  V30 11523 O 1122.51 -0.27922 3.55104 0
M  V30 11524 O 1121.37 -0.678469 5.42272 0
M  V30 11525 H 1118.46 -0.137851 0.81543 0
M  V30 11526 H 1121.01 0.479617 1.62781 0
M  V30 11527 H 1119.78 0.783263 3.83381 0
M  V30 11528 H 1119.4 -0.931464 3.86535 0
M  V30 11529 N 1120.4 -1.5685 0.153553 0
M  V30 11530 C 1121.65 -1.95946 -0.494936 0
M  V30 11531 C 1121.97 -1.03975 -1.64967 0
M  V30 11532 O 1121.24 -0.102572 -1.95631 0
M  V30 11533 H 1119.82 -0.723516 -0.185833 0
M  V30 11534 H 1122.48 -1.93531 0.230585 0
M  V30 11535 H 1121.58 -2.99823 -0.866743 0
M  V30 11536 N 1121.88 0.120221 -1.57141 0
M  V30 11537 C 1123.12 0.829449 -1.85062 0
M  V30 11538 C 1123.46 1.79585 -0.739116 0
M  V30 11539 O 1122.73 1.92819 0.255147 0
M  V30 11540 C 1123.01 1.58042 -3.23566 0
M  V30 11541 C 1122.87 0.633706 -4.45314 0
M  V30 11542 C 1124.19 2.53688 -3.59625 0
M  V30 11543 H 1121.31 0.300086 -0.67314 0
M  V30 11544 H 1123.95 0.0937393 -1.89769 0
M  V30 11545 H 1122.1 2.20758 -3.19684 0
M  V30 11546 H 1123.77 0.0154836 -4.61297 0
M  V30 11547 H 1122.01 -0.054846 -4.33765 0
M  V30 11548 H 1122.68 1.19577 -5.38893 0
M  V30 11549 H 1125.16 2.01078 -3.6429 0
M  V30 11550 H 1124.04 3.03265 -4.57516 0
M  V30 11551 H 1124.3 3.36296 -2.8698 0
M  V30 11552 N 1123.36 1.52689 0.390367 0
M  V30 11553 C 1124.77 1.41909 0.730338 0
M  V30 11554 C 1124.97 0.538427 1.94173 0
M  V30 11555 O 1124.03 0.0113527 2.52497 0
M  V30 11556 C 1125.34 2.84737 0.966714 0
M  V30 11557 C 1126.89 2.94206 1.06827 0
M  V30 11558 C 1127.36 4.38042 1.33728 0
M  V30 11559 N 1128.86 4.4136 1.40553 0
M  V30 11560 C 1129.59 5.49735 1.63031 0
M  V30 11561 N 1129.09 6.68197 1.82988 0
M  V30 11562 N 1130.88 5.37276 1.65199 0
M  V30 11563 H 1123.03 2.08469 -0.406766 0
M  V30 11564 H 1125.29 0.940401 -0.11979 0
M  V30 11565 H 1125 3.51385 0.148725 0
M  V30 11566 H 1124.87 3.26909 1.88176 0
M  V30 11567 H 1127.26 2.27726 1.87683 0
M  V30 11568 H 1127.34 2.55463 0.131168 0
M  V30 11569 H 1126.99 5.05087 0.533832 0
M  V30 11570 H 1126.92 4.74336 2.28721 0
M  V30 11571 H 1129.41 3.55976 1.26844 0
M  V30 11572 H 1129.72 7.46567 1.99643 0
M  V30 11573 H 1128.06 6.71228 1.80215 0
M  V30 11574 H 1131.26 4.437 1.49158 0
M  V30 11575 H 1131.43 6.21806 1.82377 0
M  V30 11576 N 1124.83 -0.648732 1.43629 0
M  V30 11577 C 1126.06 -1.44117 1.49148 0
M  V30 11578 C 1126.48 -1.87767 0.111952 0
M  V30 11579 O 1125.84 -1.57655 -0.895249 0
M  V30 11580 C 1125.89 -2.64938 2.44623 0
M  V30 11581 O 1124.99 -3.64155 1.93559 0
M  V30 11582 H 1124.34 -0.431933 0.504312 0
M  V30 11583 H 1126.87 -0.793439 1.88589 0
M  V30 11584 H 1126.88 -3.12698 2.62076 0
M  V30 11585 H 1125.55 -2.3251 3.44836 0
M  V30 11586 H 1124.13 -3.23322 1.85789 0
M  V30 11587 N 1126.31 -1.30234 -0.887518 0
M  V30 11588 C 1127.24 -1.18969 -2.00919 0
M  V30 11589 C 1128.22 -0.080952 -1.69907 0
M  V30 11590 O 1129.41 -0.262546 -1.92417 0
M  V30 11591 C 1126.54 -0.878094 -3.36016 0
M  V30 11592 C 1125.49 -1.94449 -3.81279 0
M  V30 11593 C 1124.82 -1.48594 -5.13638 0
M  V30 11594 C 1126.12 -3.35519 -4.00281 0
M  V30 11595 H 1127.81 -2.12808 -2.10602 0
M  V30 11596 H 1125.36 -1.02454 -1.01189 0
M  V30 11597 H 1127.31 -0.785954 -4.14006 0
M  V30 11598 H 1126.04 0.0959779 -3.26459 0
M  V30 11599 H 1124.69 -2.02622 -3.05516 0
M  V30 11600 H 1124.34 -0.500204 -5.00507 0
M  V30 11601 H 1124.04 -2.19921 -5.44893 0
M  V30 11602 H 1125.57 -1.40754 -5.94156 0
M  V30 11603 H 1126.98 -3.30119 -4.68716 0
M  V30 11604 H 1125.38 -4.0491 -4.42909 0
M  V30 11605 H 1126.45 -3.77597 -3.04218 0
M  V30 11606 N 1127.79 1.09952 -1.12909 0
M  V30 11607 C 1128.72 2.18477 -0.824014 0
M  V30 11608 C 1129.7 1.68744 0.214324 0
M  V30 11609 O 1130.89 1.94057 0.0744281 0
M  V30 11610 C 1128.02 3.46143 -0.283308 0
M  V30 11611 C 1126.97 4.09178 -1.25528 0
M  V30 11612 C 1126.3 5.31604 -0.574574 0
M  V30 11613 C 1127.6 4.52308 -2.6118 0
M  V30 11614 H 1129.29 2.44254 -1.73148 0
M  V30 11615 H 1126.84 1.17394 -0.833952 0
M  V30 11616 H 1128.79 4.21361 -0.057583 0
M  V30 11617 H 1127.51 3.19872 0.659525 0
M  V30 11618 H 1126.17 3.35973 -1.4669 0
M  V30 11619 H 1125.82 5.01611 0.37356 0
M  V30 11620 H 1125.52 5.74732 -1.22299 0
M  V30 11621 H 1127.04 6.0955 -0.358004 0
M  V30 11622 H 1128.46 5.18776 -2.44017 0
M  V30 11623 H 1126.86 5.06302 -3.22147 0
M  V30 11624 H 1127.93 3.64977 -3.19249 0
M  V30 11625 N 1129.27 0.921757 1.27833 0
M  V30 11626 C 1130.2 0.373575 2.26135 0
M  V30 11627 C 1131.21 -0.492414 1.55174 0
M  V30 11628 O 1132.4 -0.305998 1.75858 0
M  V30 11629 C 1129.5 -0.483911 3.35427 0
M  V30 11630 C 1128.68 0.361411 4.35904 0
M  V30 11631 C 1127.73 -0.432461 5.2442 0
M  V30 11632 O 1126.76 0.15777 5.68981 0
M  V30 11633 N 1127.96 -1.73367 5.54007 0
M  V30 11634 H 1130.73 1.21856 2.73809 0
M  V30 11635 H 1128.29 0.788552 1.41398 0
M  V30 11636 H 1130.28 -1.02193 3.91585 0
M  V30 11637 H 1128.85 -1.22963 2.874 0
M  V30 11638 H 1128.07 1.08076 3.79095 0
M  V30 11639 H 1129.36 0.939528 5.0005 0
M  V30 11640 H 1128.76 -2.23561 5.19651 0
M  V30 11641 H 1127.31 -2.21834 6.12889 0
M  V30 11642 N 1130.75 -1.41857 0.686609 0
M  V30 11643 C 1131.71 -2.29187 0.0247022 0
M  V30 11644 C 1132.71 -1.43926 -0.717069 0
M  V30 11645 O 1133.9 -1.65179 -0.5533 0
M  V30 11646 C 1131.03 -3.26644 -0.975537 0
M  V30 11647 H 1132.22 -2.89212 0.793503 0
M  V30 11648 H 1129.78 -1.49694 0.449605 0
M  V30 11649 H 1130.51 -2.7158 -1.77242 0
M  V30 11650 H 1130.3 -3.89545 -0.446892 0
M  V30 11651 H 1131.79 -3.92107 -1.43673 0
M  V30 11652 N 1132.22 -0.430739 -1.51599 0
M  V30 11653 C 1133.45 0.139197 -2.06932 0
M  V30 11654 C 1133.87 1.3626 -1.29672 0
M  V30 11655 O 1133.23 1.78219 -0.332836 0
M  V30 11656 C 1133.28 0.446593 -3.57824 0
M  V30 11657 O 1132.38 1.53414 -3.82803 0
M  V30 11658 H 1131.73 0.00475812 -0.663983 0
M  V30 11659 H 1134.26 -0.610171 -1.9529 0
M  V30 11660 H 1134.27 0.698972 -4.01968 0
M  V30 11661 H 1132.94 -0.447613 -4.13484 0
M  V30 11662 H 1131.52 1.27224 -3.50526 0
M  V30 11663 N 1133.7 1.56767 -0.161869 0
M  V30 11664 C 1134.95 1.96206 0.484537 0
M  V30 11665 C 1135.27 1.04848 1.64414 0
M  V30 11666 O 1134.54 0.112946 1.95574 0
M  V30 11667 H 1133.12 0.724491 0.181994 0
M  V30 11668 H 1135.78 1.93406 -0.240845 0
M  V30 11669 H 1134.88 3.00279 0.85083 0
M  V30 11670 N 1135.18 -0.111886 1.57202 0
M  V30 11671 C 1136.11 -1.13796 2.03894 0
M  V30 11672 C 1137.09 -1.4277 0.924696 0
M  V30 11673 O 1138.28 -1.53089 1.19488 0
M  V30 11674 C 1135.41 -2.46229 2.44925 0
M  V30 11675 C 1134.36 -2.31702 3.59859 0
M  V30 11676 C 1133.69 -3.69161 3.86813 0
M  V30 11677 C 1134.99 -1.77158 4.91337 0
M  V30 11678 H 1136.68 -0.749581 2.89865 0
M  V30 11679 H 1134.23 -0.359126 1.3945 0
M  V30 11680 H 1136.18 -3.18267 2.76195 0
M  V30 11681 H 1134.9 -2.86971 1.55933 0
M  V30 11682 H 1133.56 -1.62112 3.28809 0
M  V30 11683 H 1133.21 -4.07401 2.95015 0
M  V30 11684 H 1132.91 -3.60292 4.6418 0
M  V30 11685 H 1134.43 -4.42693 4.20542 0
M  V30 11686 H 1135.85 -2.3902 5.21097 0
M  V30 11687 H 1134.25 -1.79091 5.72753 0
M  V30 11688 H 1135.32 -0.729675 4.79379 0
M  V30 11689 N 1136.66 -1.52894 -0.382264 0
M  V30 11690 C 1137.91 -1.67933 -1.1244 0
M  V30 11691 C 1138.23 -0.425166 -1.90309 0
M  V30 11692 O 1137.5 0.560557 -1.87709 0
M  V30 11693 H 1136.08 -0.619047 -0.418079 0
M  V30 11694 H 1138.74 -1.90031 -0.432928 0
M  V30 11695 H 1137.84 -2.53285 -1.82355 0
M  V30 11696 N 1138.14 0.641106 -1.43971 0
M  V30 11697 C 1139.55 0.958161 -1.27638 0
M  V30 11698 C 1139.75 2.00456 -0.204885 0
M  V30 11699 O 1138.81 2.49106 0.412606 0
M  V30 11700 C 1140.12 1.43091 -2.64472 0
M  V30 11701 C 1141.67 1.54692 -2.72102 0
M  V30 11702 C 1142.15 2.05353 -4.09382 0
M  V30 11703 N 1143.64 2.12638 -4.11509 0
M  V30 11704 C 1144.37 2.52987 -5.14573 0
M  V30 11705 N 1143.87 2.92544 -6.28005 0
M  V30 11706 N 1145.66 2.53033 -5.01927 0
M  V30 11707 H 1137.81 -0.0510973 -2.12339 0
M  V30 11708 H 1140.07 0.039748 -0.947166 0
M  V30 11709 H 1139.78 0.736389 -3.43904 0
M  V30 11710 H 1139.65 2.40375 -2.90688 0
M  V30 11711 H 1142.04 2.23242 -1.92994 0
M  V30 11712 H 1142.12 0.558083 -2.49638 0
M  V30 11713 H 1141.77 1.37401 -4.88962 0
M  V30 11714 H 1141.7 3.0509 -4.29218 0
M  V30 11715 H 1144.19 1.84792 -3.29636 0
M  V30 11716 H 1144.5 3.22116 -7.02468 0
M  V30 11717 H 1142.85 2.90319 -6.31458 0
M  V30 11718 H 1146.04 2.21514 -4.1237 0
M  V30 11719 H 1146.21 2.84155 -5.82375 0
M  V30 11720 N 1139.62 1.30703 0.880598 0
M  V30 11721 C 1140.55 1.11783 1.98947 0
M  V30 11722 C 1141.53 0.0242461 1.62582 0
M  V30 11723 O 1142.71 0.178641 1.87652 0
M  V30 11724 C 1139.84 0.705762 3.31265 0
M  V30 11725 C 1138.88 1.80084 3.86616 0
M  V30 11726 S 1139.72 3.40416 4.13373 0
M  V30 11727 C 1140.87 3.01122 5.48704 0
M  V30 11728 H 1141.11 2.05658 2.14691 0
M  V30 11729 H 1138.64 1.15067 1.02951 0
M  V30 11730 H 1140.6 0.474754 4.07745 0
M  V30 11731 H 1139.26 -0.213699 3.13372 0
M  V30 11732 H 1138.45 1.4649 4.82241 0
M  V30 11733 H 1138.05 1.98636 3.16891 0
M  V30 11734 H 1140.34 2.49355 6.29943 0
M  V30 11735 H 1141.29 3.95671 5.87239 0
M  V30 11736 H 1141.7 2.38865 5.11472 0
M  V30 11737 N 1141.09 -1.09351 1.1349 0
M  V30 11738 C 1142.04 -2.16008 0.812981 0
M  V30 11739 C 1143.01 -1.64566 -0.225252 0
M  V30 11740 O 1144.2 -1.90552 -0.0973261 0
M  V30 11741 C 1141.34 -3.43913 0.285996 0
M  V30 11742 C 1140.45 -4.09251 1.38338 0
M  V30 11743 C 1139.58 -5.24916 0.814652 0
M  V30 11744 C 1138.62 -5.82178 1.89038 0
M  V30 11745 N 1137.76 -6.89203 1.33955 0
M  V30 11746 H 1142.6 -2.42887 1.72655 0
M  V30 11747 H 1140.14 -1.19209 0.861833 0
M  V30 11748 H 1142.09 -4.17183 -0.0376794 0
M  V30 11749 H 1140.72 -3.17349 -0.590707 0
M  V30 11750 H 1139.78 -3.33838 1.82363 0
M  V30 11751 H 1141.09 -4.4784 2.19638 0
M  V30 11752 H 1140.24 -6.05086 0.442306 0
M  V30 11753 H 1138.98 -4.87691 -0.029416 0
M  V30 11754 H 1137.99 -5.00669 2.27179 0
M  V30 11755 H 1139.21 -6.21464 2.73787 0
M  V30 11756 H 1137.16 -6.53956 0.517494 0
M  V30 11757 H 1137.07 -7.26565 2.08902 0
M  V30 11758 H 1138.34 -7.73126 0.994793 0
M  V30 11759 N 1142.57 -0.928524 -1.27343 0
M  V30 11760 C 1143.98 -0.613856 -1.7632 0
M  V30 11761 C 1144.33 0.870983 -1.75808 0
M  V30 11762 O 1143.46 1.68155 -1.36209 0
M  V30 11763 C 1144.05 -1.10755 -3.20186 0
M  V30 11764 C 1142.61 -0.843532 -3.66826 0
M  V30 11765 C 1141.76 -1.26579 -2.46724 0
M  V30 11766 H 1144.71 -1.10821 -1.13598 0
M  V30 11767 H 1144.73 -0.455598 -3.77763 0
M  V30 11768 H 1144.24 -2.18825 -3.20526 0
M  V30 11769 H 1142.34 0.223334 -3.7193 0
M  V30 11770 H 1142.46 -1.46165 -4.56259 0
M  V30 11771 H 1140.82 -0.684334 -2.45334 0
M  V30 11772 H 1141.6 -2.35516 -2.49774 0
M  V30 11773 N 1144.05 1.41491 -0.694123 0
M  V30 11774 C 1145 2.32594 -0.0164704 0
M  V30 11775 C 1145.99 1.50884 0.770086 0
M  V30 11776 O 1147.2 1.66829 0.675871 0
M  V30 11777 H 1143.57 0.751879 0.0134743 0
M  V30 11778 H 1145.54 2.87423 -0.80191 0
M  V30 11779 C 1144.29 3.35661 0.90703 0
M  V30 11780 H 1143.62 3.98587 0.311205 0
M  V30 11781 H 1145.06 4.0195 1.34952 0
M  V30 11782 C 1143.51 2.69436 2.02253 0
M  V30 11783 O 1144.04 2.54107 3.11115 0
M  V30 11784 N 1142.25 2.28154 1.79984 0
M  V30 11785 H 1141.8 2.40821 0.914492 0
M  V30 11786 H 1141.76 1.84178 2.54805 0
M  V30 11787 N 1145.53 0.438773 1.51369 0
M  V30 11788 C 1146.76 -0.125847 2.06517 0
M  V30 11789 C 1147.17 -1.36336 1.30606 0
M  V30 11790 O 1146.53 -1.78792 0.36603 0
M  V30 11791 C 1146.58 -0.446619 3.5873 0
M  V30 11792 O 1146.3 0.741781 4.31775 0
M  V30 11793 C 1147.8 -1.06175 4.30397 0
M  V30 11794 H 1145.02 -0.00728868 0.67096 0
M  V30 11795 H 1147.56 0.618267 1.9493 0
M  V30 11796 H 1145.72 -1.14064 3.70227 0
M  V30 11797 H 1146.13 0.466907 5.22418 0
M  V30 11798 H 1147.61 -1.23619 5.3798 0
M  V30 11799 H 1148.08 -2.04317 3.88782 0
M  V30 11800 H 1148.69 -0.40708 4.23347 0
M  V30 11801 N 1147.01 -1.56678 0.170181 0
M  V30 11802 C 1147.94 -2.20916 -0.756213 0
M  V30 11803 C 1148.92 -1.16442 -1.23997 0
M  V30 11804 O 1150.1 -1.44867 -1.29333 0
M  V30 11805 C 1147.23 -2.84901 -1.98617 0
M  V30 11806 C 1146.19 -3.95403 -1.63831 0
M  V30 11807 C 1145.51 -4.46432 -2.94282 0
M  V30 11808 C 1146.81 -5.15051 -0.867195 0
M  V30 11809 H 1148.51 -2.98585 -0.220776 0
M  V30 11810 H 1146.05 -1.43619 -0.104748 0
M  V30 11811 H 1148 -3.28514 -2.63926 0
M  V30 11812 H 1146.73 -2.04598 -2.54572 0
M  V30 11813 H 1145.39 -3.52444 -1.00891 0
M  V30 11814 H 1145.04 -3.62923 -3.48276 0
M  V30 11815 H 1144.74 -5.20979 -2.71762 0
M  V30 11816 H 1146.26 -4.92731 -3.60622 0
M  V30 11817 H 1147.67 -5.55363 -1.42285 0
M  V30 11818 H 1146.07 -5.95507 -0.741065 0
M  V30 11819 H 1147.14 -4.84707 0.136693 0
M  V30 11820 N 1148.48 0.103547 -1.57259 0
M  V30 11821 C 1149.73 0.809774 -1.85931 0
M  V30 11822 C 1150.06 1.78791 -0.758122 0
M  V30 11823 O 1149.34 1.93079 0.234682 0
M  V30 11824 C 1149.62 1.54601 -3.25224 0
M  V30 11825 C 1149.47 0.586439 -4.45961 0
M  V30 11826 C 1150.79 2.4986 -3.62296 0
M  V30 11827 H 1147.91 0.29293 -0.676285 0
M  V30 11828 H 1150.55 0.0736065 -1.89857 0
M  V30 11829 H 1148.7 2.17355 -3.22008 0
M  V30 11830 H 1150.38 -0.0334441 -4.61288 0
M  V30 11831 H 1148.62 -0.10085 -4.33683 0
M  V30 11832 H 1149.29 1.13855 -5.40131 0
M  V30 11833 H 1151.77 1.97203 -3.66402 0
M  V30 11834 H 1150.64 2.98396 -4.60707 0
M  V30 11835 H 1150.9 3.33233 -2.90531 0
M  V30 11836 N 1149.96 1.53094 0.37415 0
M  V30 11837 C 1151.21 1.68082 1.11495 0
M  V30 11838 C 1151.52 0.434685 1.90709 0
M  V30 11839 O 1152.73 0.464956 2.67489 0
M  V30 11840 C 1151.19 2.97101 2.03124 0
M  V30 11841 C 1150.79 4.28947 1.29262 0
M  V30 11842 C 1152.54 3.21456 2.77248 0
M  V30 11843 C 1150.44 5.4906 2.19743 0
M  V30 11844 H 1149.37 0.626238 0.419931 0
M  V30 11845 H 1152.03 1.79594 0.376588 0
M  V30 11846 H 1150.41 2.79371 2.80656 0
M  V30 11847 H 1151.58 4.57279 0.568528 0
M  V30 11848 H 1149.9 4.10968 0.670362 0
M  V30 11849 H 1152.49 4.08377 3.45155 0
M  V30 11850 H 1152.84 2.37153 3.42146 0
M  V30 11851 H 1153.37 3.3982 2.06803 0
M  V30 11852 H 1150.11 6.35815 1.59437 0
M  V30 11853 H 1149.63 5.25019 2.90027 0
M  V30 11854 H 1151.31 5.83517 2.79495 0
M  V30 11855 N 1151.44 -0.633461 1.44309 0
M  V30 11856 C 1152.69 -1.39031 1.46679 0
M  V30 11857 C 1153.01 -1.94745 0.0997165 0
M  V30 11858 O 1152.28 -1.75637 -0.867659 0
M  V30 11859 H 1150.86 -0.516051 0.540093 0
M  V30 11860 H 1153.52 -0.745739 1.80069 0
M  V30 11861 H 1152.62 -2.2228 2.19085 0
M  V30 11862 N 1152.92 -1.31168 -0.873655 0
M  V30 11863 C 1154.15 -1.23416 -1.65686 0
M  V30 11864 C 1154.56 0.203534 -1.88102 0
M  V30 11865 O 1153.9 1.14476 -1.4367 0
M  V30 11866 C 1153.96 -1.90418 -3.04929 0
M  V30 11867 C 1153.63 -3.39757 -3.05637 0
M  V30 11868 C 1154.62 -4.35565 -2.83865 0
M  V30 11869 C 1152.31 -3.81389 -3.26875 0
M  V30 11870 C 1154.3 -5.70979 -2.83304 0
M  V30 11871 C 1151.99 -5.16918 -3.25943 0
M  V30 11872 C 1152.99 -6.11524 -3.04184 0
M  V30 11873 O 1152.67 -7.44575 -3.0309 0
M  V30 11874 H 1152.41 -0.4278 -0.523415 0
M  V30 11875 H 1154.96 -1.73525 -1.09902 0
M  V30 11876 H 1153.19 -1.34854 -3.62424 0
M  V30 11877 H 1154.88 -1.76631 -3.65453 0
M  V30 11878 H 1155.65 -4.0473 -2.67243 0
M  V30 11879 H 1151.52 -3.08187 -3.42844 0
M  V30 11880 H 1155.07 -6.44796 -2.66239 0
M  V30 11881 H 1150.97 -5.47389 -3.42104 0
M  V30 11882 H 1151.73 -7.53703 -3.19177 0
M  V30 11883 N 1154.4 1.08748 -1.14068 0
M  V30 11884 C 1155.34 2.15573 -0.824425 0
M  V30 11885 C 1156.31 1.64683 0.216522 0
M  V30 11886 O 1157.5 1.90601 0.0872193 0
M  V30 11887 C 1154.64 3.43756 -0.30423 0
M  V30 11888 C 1153.75 4.08512 -1.40506 0
M  V30 11889 C 1152.89 5.24477 -0.842479 0
M  V30 11890 C 1151.93 5.81167 -1.92123 0
M  V30 11891 N 1151.06 6.88483 -1.37608 0
M  V30 11892 H 1155.9 2.41968 -1.73941 0
M  V30 11893 H 1153.44 1.18751 -0.868143 0
M  V30 11894 H 1155.4 4.17197 0.0155546 0
M  V30 11895 H 1154.03 3.17658 0.573868 0
M  V30 11896 H 1153.08 3.32866 -1.84131 0
M  V30 11897 H 1154.39 4.46669 -2.2201 0
M  V30 11898 H 1153.55 6.04842 -0.474389 0
M  V30 11899 H 1152.28 4.877 0.00355212 0
M  V30 11900 H 1151.29 4.99458 -2.29831 0
M  V30 11901 H 1152.51 6.20003 -2.77079 0
M  V30 11902 H 1150.46 6.53672 -0.552168 0
M  V30 11903 H 1150.38 7.25446 -2.12752 0
M  V30 11904 H 1151.65 7.72588 -1.03578 0
M  V30 11905 N 1155.87 0.935264 1.26849 0
M  V30 11906 C 1156.82 0.438896 2.26588 0
M  V30 11907 C 1157.79 -0.498267 1.5845 0
M  V30 11908 O 1158.98 -0.415771 1.86215 0
M  V30 11909 C 1156.12 -0.295293 3.43834 0
M  V30 11910 C 1155.23 0.676857 4.26665 0
M  V30 11911 C 1154.36 -0.0779349 5.31143 0
M  V30 11912 C 1153.4 0.886425 6.05648 0
M  V30 11913 N 1152.54 0.163771 7.01909 0
M  V30 11914 H 1157.38 1.29439 2.6842 0
M  V30 11915 H 1154.92 0.649523 1.31983 0
M  V30 11916 H 1156.88 -0.737354 4.10632 0
M  V30 11917 H 1155.51 -1.11497 3.02933 0
M  V30 11918 H 1154.56 1.23744 3.5971 0
M  V30 11919 H 1155.87 1.41355 4.78351 0
M  V30 11920 H 1155.02 -0.579557 6.03926 0
M  V30 11921 H 1153.76 -0.84755 4.80279 0
M  V30 11922 H 1152.77 1.39923 5.31697 0
M  V30 11923 H 1153.99 1.65595 6.58601 0
M  V30 11924 H 1151.94 -0.58746 6.53364 0
M  V30 11925 H 1151.86 0.839902 7.5132 0
M  V30 11926 H 1153.12 -0.316951 7.78855 0
M  V30 11927 N 1157.35 -1.41121 0.701616 0
M  V30 11928 C 1158.3 -2.32582 0.0288052 0
M  V30 11929 C 1159.29 -1.5129 -0.762074 0
M  V30 11930 O 1160.5 -1.67185 -0.667014 0
M  V30 11931 H 1156.88 -0.75194 -0.00948675 0
M  V30 11932 H 1158.85 -2.86994 0.817141 0
M  V30 11933 C 1157.6 -3.36137 -0.889217 0
M  V30 11934 H 1156.92 -3.98746 -0.290062 0
M  V30 11935 H 1158.36 -4.0266 -1.32819 0
M  V30 11936 C 1156.82 -2.70504 -2.00821 0
M  V30 11937 O 1157.35 -2.55753 -3.09763 0
M  V30 11938 N 1155.55 -2.29105 -1.78772 0
M  V30 11939 H 1155.1 -2.41303 -0.901708 0
M  V30 11940 H 1155.06 -1.85527 -2.53825 0
M  V30 11941 N 1158.83 -0.446794 -1.51134 0
M  V30 11942 C 1160.08 0.108888 -2.03108 0
M  V30 11943 C 1160.43 1.3956 -1.32442 0
M  V30 11944 O 1159.72 1.86631 -0.433515 0
M  V30 11945 C 1159.92 0.373015 -3.55448 0
M  V30 11946 C 1159.75 -0.886542 -4.40875 0
M  V30 11947 C 1158.52 -1.42283 -4.84854 0
M  V30 11948 C 1160.72 -1.77531 -4.82688 0
M  V30 11949 N 1158.7 -2.63394 -5.54524 0
M  V30 11950 C 1160.07 -2.83241 -5.5152 0
M  V30 11951 C 1162.12 -1.7886 -4.64665 0
M  V30 11952 C 1160.83 -3.90239 -6.0424 0
M  V30 11953 C 1162.85 -2.84798 -5.18309 0
M  V30 11954 C 1162.21 -3.89228 -5.87095 0
M  V30 11955 H 1158.31 0.000437421 -0.782 0
M  V30 11956 H 1160.9 -0.609578 -1.84911 0
M  V30 11957 H 1159.07 1.06052 -3.73641 0
M  V30 11958 H 1160.8 0.920889 -3.94083 0
M  V30 11959 H 1157.56 -0.975408 -4.63447 0
M  V30 11960 H 1157.98 -3.24833 -5.9398 0
M  V30 11961 H 1162.62 -0.994493 -4.10938 0
M  V30 11962 H 1160.34 -4.70482 -6.57018 0
M  V30 11963 H 1163.93 -2.8678 -5.0621 0
M  V30 11964 H 1162.81 -4.69854 -6.27859 0
M  V30 11965 N 1160.31 1.56586 -0.178487 0
M  V30 11966 C 1161.72 1.58609 0.17759 0
M  V30 11967 C 1161.92 1.19411 1.62306 0
M  V30 11968 O 1160.98 0.90906 2.35568 0
M  V30 11969 C 1162.29 3.005 -0.109722 0
M  V30 11970 C 1163.84 3.12962 -0.0485036 0
M  V30 11971 C 1164.32 4.56957 -0.308901 0
M  V30 11972 N 1165.81 4.62487 -0.25693 0
M  V30 11973 C 1166.54 5.71767 -0.432488 0
M  V30 11974 N 1166.04 6.89577 -0.667494 0
M  V30 11975 N 1167.83 5.60895 -0.367895 0
M  V30 11976 H 1159.98 1.80351 -1.12193 0
M  V30 11977 H 1162.25 0.83623 -0.446569 0
M  V30 11978 H 1161.95 3.3368 -1.11133 0
M  V30 11979 H 1161.83 3.72472 0.595373 0
M  V30 11980 H 1164.21 2.79604 0.943687 0
M  V30 11981 H 1164.29 2.43411 -0.78642 0
M  V30 11982 H 1163.94 4.91025 -1.29833 0
M  V30 11983 H 1163.87 5.24676 0.449711 0
M  V30 11984 H 1166.36 3.77813 -0.0812308 0
M  V30 11985 H 1166.67 7.68744 -0.79071 0
M  V30 11986 H 1165.02 6.91423 -0.704193 0
M  V30 11987 H 1168.21 4.67735 -0.184837 0
M  V30 11988 H 1168.38 6.46005 -0.508138 0
M  V30 11989 N 1161.79 -0.095206 1.57312 0
M  V30 11990 C 1162.73 -1.11551 2.02052 0
M  V30 11991 C 1163.7 -1.39808 0.896818 0
M  V30 11992 O 1164.89 -1.51273 1.1628 0
M  V30 11993 C 1162.03 -2.43056 2.44985 0
M  V30 11994 C 1161.14 -2.21531 3.70875 0
M  V30 11995 C 1160.28 -3.46434 4.02687 0
M  V30 11996 C 1159.32 -3.2017 5.21687 0
M  V30 11997 N 1158.45 -4.37339 5.49253 0
M  V30 11998 H 1163.29 -0.727 2.88996 0
M  V30 11999 H 1160.83 -0.347441 1.42938 0
M  V30 12000 H 1162.79 -3.19803 2.67921 0
M  V30 12001 H 1161.42 -2.79754 1.61051 0
M  V30 12002 H 1160.47 -1.35587 3.55416 0
M  V30 12003 H 1161.78 -1.98116 4.57768 0
M  V30 12004 H 1160.94 -4.31589 4.26399 0
M  V30 12005 H 1159.67 -3.72904 3.14315 0
M  V30 12006 H 1158.68 -2.33409 4.97796 0
M  V30 12007 H 1159.9 -2.95047 6.11657 0
M  V30 12008 H 1157.85 -4.63885 4.6384 0
M  V30 12009 H 1157.77 -4.17114 6.30517 0
M  V30 12010 H 1159.04 -5.23559 5.775 0
M  V30 12011 N 1163.26 -1.53291 -0.366026 0
M  V30 12012 C 1164.23 -1.79025 -1.43117 0
M  V30 12013 C 1165.23 -0.660676 -1.46601 0
M  V30 12014 O 1166.42 -0.928875 -1.47369 0
M  V30 12015 C 1163.55 -1.91192 -2.82238 0
M  V30 12016 H 1164.74 -2.74154 -1.21572 0
M  V30 12017 H 1162.3 -1.44361 -0.599132 0
M  V30 12018 H 1163.03 -0.98129 -3.09097 0
M  V30 12019 H 1162.82 -2.7335 -2.81109 0
M  V30 12020 H 1164.31 -2.12696 -3.59375 0
M  V30 12021 N 1164.74 0.6258 -1.44643 0
M  V30 12022 C 1166.15 1.20751 -1.42394 0
M  V30 12023 C 1166.5 1.95685 -0.142047 0
M  V30 12024 O 1165.63 2.02715 0.757332 0
M  V30 12025 C 1166.22 2.1964 -2.57961 0
M  V30 12026 C 1164.78 2.73227 -2.5889 0
M  V30 12027 C 1163.93 1.48315 -2.34303 0
M  V30 12028 H 1166.88 0.416162 -1.53146 0
M  V30 12029 H 1166.9 3.02342 -2.31019 0
M  V30 12030 H 1166.41 1.65073 -3.51244 0
M  V30 12031 H 1164.52 3.31782 -1.69563 0
M  V30 12032 H 1164.63 3.18902 -3.57545 0
M  V30 12033 H 1162.99 1.76634 -1.83501 0
M  V30 12034 H 1163.78 0.956427 -3.29708 0
M  V30 12035 N 1166.22 1.31629 0.866686 0
M  V30 12036 C 1167.15 1.22151 1.99001 0
M  V30 12037 C 1168.13 0.107972 1.69757 0
M  V30 12038 O 1169.32 0.293125 1.91975 0
M  V30 12039 C 1166.45 0.93144 3.34577 0
M  V30 12040 C 1165.4 2.0049 3.78137 0
M  V30 12041 C 1164.73 1.56747 5.11209 0
M  V30 12042 C 1166.03 3.41844 3.94892 0
M  V30 12043 H 1167.72 2.16132 2.0719 0
M  V30 12044 H 1165.27 1.04051 0.995463 0
M  V30 12045 H 1167.22 0.851719 4.12703 0
M  V30 12046 H 1165.94 -0.0440289 3.2657 0
M  V30 12047 H 1164.6 2.07457 3.02253 0
M  V30 12048 H 1164.25 0.579767 4.99648 0
M  V30 12049 H 1163.95 2.28562 5.41326 0
M  V30 12050 H 1165.47 1.50188 5.91841 0
M  V30 12051 H 1166.89 3.37534 4.63405 0
M  V30 12052 H 1165.29 4.11905 4.36411 0
M  V30 12053 H 1166.36 3.82389 2.98172 0
M  V30 12054 N 1167.7 -1.08142 1.14644 0
M  V30 12055 C 1168.93 -1.84318 0.939926 0
M  V30 12056 C 1169.34 -1.81735 -0.511636 0
M  V30 12057 O 1168.7 -1.22297 -1.35461 0
M  V30 12058 C 1168.75 -3.31744 1.43625 0
M  V30 12059 O 1168.47 -3.3435 2.83094 0
M  V30 12060 C 1169.97 -4.24717 1.27007 0
M  V30 12061 H 1167.19 -0.581781 0.334323 0
M  V30 12062 H 1169.74 -1.36561 1.52221 0
M  V30 12063 H 1167.89 -3.7688 0.896664 0
M  V30 12064 H 1168.31 -4.26399 3.05425 0
M  V30 12065 H 1169.78 -5.26262 1.66591 0
M  V30 12066 H 1170.26 -4.38682 0.213257 0
M  V30 12067 H 1170.86 -3.85409 1.79833 0
M  V30 12068 N 1169.18 -0.941978 -1.26351 0
M  V30 12069 C 1170.09 -0.45833 -2.30079 0
M  V30 12070 C 1171.1 0.468084 -1.67586 0
M  V30 12071 O 1172.28 0.347418 -1.98381 0
M  V30 12072 C 1169.34 0.26797 -3.45663 0
M  V30 12073 C 1168.41 -0.695102 -4.23635 0
M  V30 12074 C 1167.64 -0.003369 -5.337 0
M  V30 12075 O 1167.86 1.21342 -5.57344 0
M  V30 12076 O 1166.8 -0.682476 -5.98018 0
M  V30 12077 H 1170.62 -1.31998 -2.73514 0
M  V30 12078 H 1168.21 -0.707897 -1.31564 0
M  V30 12079 H 1170.09 0.677061 -4.15925 0
M  V30 12080 H 1168.76 1.105 -3.04256 0
M  V30 12081 H 1167.67 -1.15415 -3.55851 0
M  V30 12082 H 1169 -1.49977 -4.68794 0
M  V30 12083 N 1170.66 1.40747 -0.709091 0
M  V30 12084 C 1171.9 2.00233 -0.242836 0
M  V30 12085 C 1172.22 1.56853 1.1686 0
M  V30 12086 O 1173.42 2.08993 1.73304 0
M  V30 12087 C 1171.88 3.57854 -0.383241 0
M  V30 12088 C 1171.49 4.10209 -1.80091 0
M  V30 12089 C 1173.23 4.24494 0.0225511 0
M  V30 12090 C 1171.14 5.60311 -1.89225 0
M  V30 12091 H 1170.07 0.74896 -0.087034 0
M  V30 12092 H 1172.72 1.61064 -0.879243 0
M  V30 12093 H 1171.1 3.94692 0.321642 0
M  V30 12094 H 1172.28 3.84762 -2.53564 0
M  V30 12095 H 1170.59 3.56142 -2.15758 0
M  V30 12096 H 1173.19 5.34694 -0.0250644 0
M  V30 12097 H 1173.53 4.02488 1.06344 0
M  V30 12098 H 1174.06 3.92739 -0.632541 0
M  V30 12099 H 1170.8 5.87162 -2.91412 0
M  V30 12100 H 1170.32 5.87642 -1.20154 0
M  V30 12101 H 1172 6.25306 -1.66136 0
M  V30 12102 N 1172.13 0.454803 1.50895 0
M  V30 12103 C 1173.04 -0.353495 2.31921 0
M  V30 12104 C 1174.06 -1.01136 1.41589 0
M  V30 12105 O 1175.24 -1.00291 1.74653 0
M  V30 12106 C 1172.3 -1.43032 3.15821 0
M  V30 12107 C 1171.36 -0.790763 4.21954 0
M  V30 12108 C 1170.59 -1.81628 5.01843 0
M  V30 12109 O 1170.82 -3.04078 4.8259 0
M  V30 12110 O 1169.75 -1.39713 5.8546 0
M  V30 12111 H 1173.58 0.308463 3.02129 0
M  V30 12112 H 1171.16 0.216971 1.47816 0
M  V30 12113 H 1173.04 -2.05444 3.67927 0
M  V30 12114 H 1171.72 -2.07605 2.48358 0
M  V30 12115 H 1170.63 -0.128127 3.73881 0
M  V30 12116 H 1171.96 -0.188251 4.9184 0
M  V30 12117 N 1173.61 -1.56489 0.186789 0
M  V30 12118 C 1174.56 -2.20034 -0.754164 0
M  V30 12119 C 1175.55 -1.16899 -1.22601 0
M  V30 12120 O 1176.76 -1.35064 -1.18987 0
M  V30 12121 H 1173.13 -0.705058 -0.261529 0
M  V30 12122 H 1175.11 -2.97766 -0.194418 0
M  V30 12123 C 1173.85 -2.86733 -1.9667 0
M  V30 12124 H 1173.18 -3.65831 -1.61268 0
M  V30 12125 H 1174.62 -3.34645 -2.60363 0
M  V30 12126 C 1173.08 -1.87325 -2.8002 0
M  V30 12127 O 1173.61 -1.36835 -3.77676 0
M  V30 12128 N 1171.81 -1.55738 -2.45345 0
M  V30 12129 H 1171.36 -1.9699 -1.6599 0
M  V30 12130 H 1171.32 -0.894805 -3.01398 0
M  V30 12131 N 1175.09 0.086862 -1.5736 0
M  V30 12132 C 1176.32 0.801004 -1.9044 0
M  V30 12133 C 1176.73 1.72396 -0.779513 0
M  V30 12134 O 1176.07 1.81894 0.256972 0
M  V30 12135 C 1176.13 1.66055 -3.18851 0
M  V30 12136 C 1175.8 0.908561 -4.47877 0
M  V30 12137 C 1176.79 0.234621 -5.1937 0
M  V30 12138 C 1174.48 0.8802 -4.94528 0
M  V30 12139 C 1176.47 -0.45762 -6.35755 0
M  V30 12140 C 1174.16 0.184179 -6.10822 0
M  V30 12141 C 1175.16 -0.483545 -6.81286 0
M  V30 12142 O 1174.85 -1.16839 -7.95364 0
M  V30 12143 H 1174.58 0.233794 -0.634284 0
M  V30 12144 H 1177.13 0.0660113 -2.05294 0
M  V30 12145 H 1175.36 2.43798 -3.00165 0
M  V30 12146 H 1177.05 2.252 -3.37698 0
M  V30 12147 H 1177.82 0.247938 -4.84366 0
M  V30 12148 H 1173.7 1.38938 -4.39565 0
M  V30 12149 H 1177.24 -0.979369 -6.90691 0
M  V30 12150 H 1173.14 0.168737 -6.45279 0
M  V30 12151 H 1173.9 -1.07612 -8.11395 0
M  V30 12152 N 1176.57 1.53483 0.357892 0
M  V30 12153 C 1177.81 1.70289 1.10134 0
M  V30 12154 C 1178.15 0.457296 1.88739 0
M  V30 12155 O 1177.42 -0.545527 1.86693 0
M  V30 12156 C 1177.7 2.95755 2.05429 0
M  V30 12157 C 1177.56 4.30489 1.30382 0
M  V30 12158 C 1178.88 3.16844 3.05447 0
M  V30 12159 H 1176 0.61965 0.399003 0
M  V30 12160 H 1178.64 1.86133 0.381357 0
M  V30 12161 H 1176.79 2.82377 2.66825 0
M  V30 12162 H 1178.46 4.55692 0.71711 0
M  V30 12163 H 1176.7 4.2955 0.605712 0
M  V30 12164 H 1177.37 5.14427 2.00171 0
M  V30 12165 H 1179.85 3.29458 2.54159 0
M  V30 12166 H 1178.73 4.06053 3.69341 0
M  V30 12167 H 1178.99 2.32476 3.76041 0
M  V30 12168 N 1178.05 -0.61812 1.44973 0
M  V30 12169 C 1179.29 -1.37468 1.48145 0
M  V30 12170 C 1179.61 -1.94628 0.120366 0
M  V30 12171 O 1178.88 -1.76548 -0.848982 0
M  V30 12172 H 1177.46 -0.510293 0.545536 0
M  V30 12173 H 1180.13 -0.726598 1.8085 0
M  V30 12174 H 1179.22 -2.19944 2.2143 0
M  V30 12175 N 1179.52 -1.32087 -0.859693 0
M  V30 12176 C 1180.77 -1.21716 -1.60836 0
M  V30 12177 C 1181.09 0.220904 -1.94349 0
M  V30 12178 O 1182.29 0.446422 -2.67805 0
M  V30 12179 C 1180.75 -2.13143 -2.89997 0
M  V30 12180 C 1180.36 -3.62003 -2.63928 0
M  V30 12181 C 1182.1 -2.11596 -3.68004 0
M  V30 12182 C 1180.01 -4.45407 -3.89059 0
M  V30 12183 H 1178.94 -0.45199 -0.603507 0
M  V30 12184 H 1181.59 -1.57013 -0.949687 0
M  V30 12185 H 1179.97 -1.70755 -3.57294 0
M  V30 12186 H 1181.14 -4.12701 -2.04974 0
M  V30 12187 H 1179.46 -3.6563 -1.99258 0
M  V30 12188 H 1182.06 -2.71149 -4.6085 0
M  V30 12189 H 1182.4 -1.10568 -4.01348 0
M  V30 12190 H 1182.93 -2.52238 -3.07605 0
M  V30 12191 H 1179.67 -5.4723 -3.60859 0
M  V30 12192 H 1179.19 -3.99462 -4.47427 0
M  V30 12193 H 1180.87 -4.58149 -4.56846 0
M  V30 12194 N 1181 1.07532 -1.15215 0
M  V30 12195 C 1182.25 1.79474 -0.920439 0
M  V30 12196 C 1182.56 1.87593 0.553926 0
M  V30 12197 O 1183.77 2.56037 0.903169 0
M  V30 12198 C 1182.23 3.22509 -1.59738 0
M  V30 12199 C 1181.83 3.22596 -3.10863 0
M  V30 12200 C 1183.58 3.99072 -1.44714 0
M  V30 12201 C 1181.48 4.60273 -3.71352 0
M  V30 12202 H 1180.41 0.672625 -0.340722 0
M  V30 12203 H 1183.07 1.2071 -1.38208 0
M  V30 12204 H 1181.45 3.81454 -1.06342 0
M  V30 12205 H 1182.62 2.73306 -3.70999 0
M  V30 12206 H 1180.94 2.5953 -3.25627 0
M  V30 12207 H 1183.53 5.00823 -1.87299 0
M  V30 12208 H 1183.88 4.14428 -0.394386 0
M  V30 12209 H 1184.41 3.46617 -1.95195 0
M  V30 12210 H 1181.15 4.50122 -4.76519 0
M  V30 12211 H 1180.67 5.09809 -3.15998 0
M  V30 12212 H 1182.35 5.29243 -3.7217 0
M  V30 12213 N 1182.48 0.948665 1.2585 0
M  V30 12214 C 1183.43 0.434929 2.23813 0
M  V30 12215 C 1184.41 -0.472518 1.53805 0
M  V30 12216 O 1185.61 -0.306542 1.74325 0
M  V30 12217 C 1182.74 -0.291678 3.42059 0
M  V30 12218 C 1181.82 0.633493 4.19342 0
M  V30 12219 N 1182.21 1.76254 4.74097 0
M  V30 12220 C 1180.51 0.440528 4.43819 0
M  V30 12221 C 1181.21 2.33968 5.32573 0
M  V30 12222 N 1180.19 1.62687 5.18685 0
M  V30 12223 H 1183.99 1.29668 2.63749 0
M  V30 12224 H 1181.5 0.805431 1.4102 0
M  V30 12225 H 1183.5 -0.676811 4.1137 0
M  V30 12226 H 1182.16 -1.15011 3.03649 0
M  V30 12227 H 1183.17 2.14453 4.71413 0
M  V30 12228 H 1179.85 -0.375515 4.15808 0
M  V30 12229 H 1181.24 3.2914 5.85761 0
M  V30 12230 N 1183.96 -1.40369 0.716545 0
M  V30 12231 C 1185.24 -1.94737 0.183576 0
M  V30 12232 C 1185.62 -1.65464 -1.31092 0
M  V30 12233 O 1184.96 -0.972832 -2.06756 0
M  V30 12234 C 1185.17 -3.45438 0.497339 0
M  V30 12235 C 1186.52 -4.2235 0.436526 0
M  V30 12236 O 1187.55 -3.53553 0.433454 0
M  V30 12237 O 1186.4 -5.44923 0.41489 0
M  V30 12238 H 1183.5 -0.82655 0.0272785 0
M  V30 12239 H 1186.04 -1.49972 0.794143 0
M  V30 12240 H 1184.82 -3.60107 1.53097 0
M  V30 12241 H 1184.44 -3.97342 -0.143141 0
M  V30 12242 N 1185.44 -0.462799 -1.50652 0
M  V30 12243 C 1186.4 0.324264 -2.26895 0
M  V30 12244 C 1187.4 0.927687 -1.31342 0
M  V30 12245 O 1188.59 0.798159 -1.54839 0
M  V30 12246 C 1185.72 1.46113 -3.08 0
M  V30 12247 H 1186.91 -0.344266 -2.97917 0
M  V30 12248 H 1184.47 -0.216631 -1.54791 0
M  V30 12249 H 1185.2 2.16496 -2.41454 0
M  V30 12250 H 1184.99 1.03433 -3.78212 0
M  V30 12251 H 1186.48 2.01655 -3.65684 0
M  V30 12252 N 1186.91 1.56388 -0.195085 0
M  V30 12253 C 1188.16 1.9758 0.443686 0
M  V30 12254 C 1188.49 1.08196 1.61629 0
M  V30 12255 O 1187.74 0.121061 1.95325 0
M  V30 12256 C 1188.04 3.44651 0.946051 0
M  V30 12257 C 1187.71 4.50758 -0.11318 0
M  V30 12258 C 1186.37 4.79499 -0.404229 0
M  V30 12259 C 1188.72 5.14534 -0.830899 0
M  V30 12260 C 1186.05 5.69307 -1.41797 0
M  V30 12261 C 1188.4 6.05438 -1.83379 0
M  V30 12262 C 1187.07 6.32535 -2.13204 0
M  V30 12263 H 1186.34 0.722995 0.162356 0
M  V30 12264 H 1188.98 1.8926 -0.292049 0
M  V30 12265 H 1187.29 3.50042 1.76006 0
M  V30 12266 H 1188.99 3.73878 1.44969 0
M  V30 12267 H 1185.58 4.28421 0.123833 0
M  V30 12268 H 1189.76 4.92421 -0.61927 0
M  V30 12269 H 1185.02 5.88575 -1.65496 0
M  V30 12270 H 1189.19 6.53915 -2.39516 0
M  V30 12271 H 1186.82 7.01924 -2.91902 0
M  V30 12272 N 1188.39 -0.0785156 1.57404 0
M  V30 12273 C 1189.67 -0.811557 1.77969 0
M  V30 12274 C 1190.05 -1.96123 0.780966 0
M  V30 12275 O 1189.4 -2.27731 -0.18726 0
M  V30 12276 C 1189.61 -1.29075 3.24254 0
M  V30 12277 C 1190.96 -1.72685 3.87898 0
M  V30 12278 O 1191.98 -1.38658 3.28104 0
M  V30 12279 O 1190.84 -2.3566 4.93079 0
M  V30 12280 H 1187.93 -0.388361 0.73014 0
M  V30 12281 H 1190.48 -0.0591118 1.69597 0
M  V30 12282 H 1189.25 -0.467813 3.88494 0
M  V30 12283 H 1188.87 -2.10472 3.37324 0
M  V30 12284 N 1189.87 -1.5367 -0.349747 0
M  V30 12285 C 1191.12 -1.70618 -1.09068 0
M  V30 12286 C 1191.45 -0.466133 -1.88832 0
M  V30 12287 O 1190.7 0.552079 -1.87751 0
M  V30 12288 C 1191 -2.91753 -2.06434 0
M  V30 12289 C 1190.67 -4.27614 -1.43029 0
M  V30 12290 C 1189.33 -4.64555 -1.25466 0
M  V30 12291 C 1191.68 -5.12037 -0.972987 0
M  V30 12292 C 1189.01 -5.83543 -0.607807 0
M  V30 12293 C 1191.36 -6.31685 -0.340073 0
M  V30 12294 C 1190.02 -6.67327 -0.152069 0
M  V30 12295 H 1189.29 -0.624334 -0.399108 0
M  V30 12296 H 1191.94 -1.87879 -0.370657 0
M  V30 12297 H 1190.25 -2.6907 -2.84796 0
M  V30 12298 H 1191.94 -3.02059 -2.63744 0
M  V30 12299 H 1188.53 -3.98535 -1.57696 0
M  V30 12300 H 1192.72 -4.84035 -1.09655 0
M  V30 12301 H 1187.97 -6.09737 -0.450705 0
M  V30 12302 H 1192.15 -6.96396 0.0223973 0
M  V30 12303 H 1189.77 -7.59388 0.35121 0
M  V30 12304 N 1191.35 0.610423 -1.45298 0
M  V30 12305 C 1192.26 1.74964 -1.56285 0
M  V30 12306 C 1193.27 1.68149 -0.447436 0
M  V30 12307 O 1194.45 1.88556 -0.707725 0
M  V30 12308 C 1191.52 3.11417 -1.52383 0
M  V30 12309 C 1190.58 3.29707 -2.7494 0
M  V30 12310 C 1189.81 4.5965 -2.71215 0
M  V30 12311 O 1190.03 5.41789 -1.78383 0
M  V30 12312 O 1188.97 4.80591 -3.62375 0
M  V30 12313 H 1192.79 1.68646 -2.52571 0
M  V30 12314 H 1190.38 0.774168 -1.27777 0
M  V30 12315 H 1192.26 3.9272 -1.52805 0
M  V30 12316 H 1190.93 3.18232 -0.592472 0
M  V30 12317 H 1189.84 2.48003 -2.80081 0
M  V30 12318 H 1191.17 3.27766 -3.67192 0
M  V30 12319 N 1192.83 1.32541 0.852676 0
M  V30 12320 C 1194.08 1.22567 1.60188 0
M  V30 12321 C 1194.39 -0.210594 1.94463 0
M  V30 12322 O 1195.59 -0.432214 2.68038 0
M  V30 12323 C 1194.05 2.14678 2.88862 0
M  V30 12324 C 1193.66 3.63398 2.62004 0
M  V30 12325 C 1195.4 2.13545 3.66877 0
M  V30 12326 C 1193.31 4.47464 3.86691 0
M  V30 12327 H 1192.24 0.455184 0.601102 0
M  V30 12328 H 1194.89 1.57515 0.941347 0
M  V30 12329 H 1193.27 1.72647 3.56383 0
M  V30 12330 H 1194.45 4.13783 2.02782 0
M  V30 12331 H 1192.76 3.66681 1.97316 0
M  V30 12332 H 1195.36 2.73589 4.59405 0
M  V30 12333 H 1195.7 1.12694 4.00756 0
M  V30 12334 H 1196.23 2.53866 3.06263 0
M  V30 12335 H 1192.97 5.49136 3.57952 0
M  V30 12336 H 1192.49 4.01829 4.45302 0
M  V30 12337 H 1194.17 4.60565 4.5441 0
M  V30 12338 N 1194.3 -1.0692 1.15784 0
M  V30 12339 C 1195.55 -1.79245 0.933581 0
M  V30 12340 C 1195.87 -1.87362 -0.540427 0
M  V30 12341 O 1195.14 -1.37769 -1.39271 0
M  V30 12342 H 1193.72 -0.663898 0.342416 0
M  V30 12343 H 1196.39 -1.29189 1.45932 0
M  V30 12344 H 1195.48 -2.81546 1.34679 0
M  V30 12345 N 1195.78 -0.955326 -1.25345 0
M  V30 12346 C 1197.03 -0.611388 -1.93365 0
M  V30 12347 C 1197.36 0.84953 -1.74633 0
M  V30 12348 O 1196.64 1.60962 -1.09185 0
M  V30 12349 C 1196.92 -0.971732 -3.46741 0
M  V30 12350 C 1196.77 -2.48843 -3.74696 0
M  V30 12351 C 1198.09 -0.497295 -4.37281 0
M  V30 12352 H 1195.21 -0.223591 -0.702265 0
M  V30 12353 H 1197.85 -1.1921 -1.47949 0
M  V30 12354 H 1196 -0.477568 -3.85554 0
M  V30 12355 H 1197.67 -3.05641 -3.45516 0
M  V30 12356 H 1195.92 -2.92582 -3.20278 0
M  V30 12357 H 1196.59 -2.69107 -4.8196 0
M  V30 12358 H 1199.06 -0.921196 -4.05775 0
M  V30 12359 H 1197.94 -0.778113 -5.43357 0
M  V30 12360 H 1198.2 0.602743 -4.37972 0
M  V30 12361 N 1197.26 1.39987 -0.723979 0
M  V30 12362 C 1198.51 2.01028 -0.267511 0
M  V30 12363 C 1198.84 1.57295 1.13894 0
M  V30 12364 O 1198.12 0.796805 1.7743 0
M  V30 12365 C 1198.4 3.58326 -0.356971 0
M  V30 12366 C 1198.25 4.12109 -1.8024 0
M  V30 12367 C 1199.57 4.39289 0.267003 0
M  V30 12368 H 1196.69 0.730364 -0.0986775 0
M  V30 12369 H 1199.33 1.66348 -0.91806 0
M  V30 12370 H 1197.48 3.88001 0.196908 0
M  V30 12371 H 1199.15 3.93199 -2.41231 0
M  V30 12372 H 1197.4 3.66082 -2.32737 0
M  V30 12373 H 1198.07 5.21261 -1.81634 0
M  V30 12374 H 1200.54 4.15595 -0.20503 0
M  V30 12375 H 1199.42 5.48624 0.174004 0
M  V30 12376 H 1199.68 4.20931 1.35164 0
M  V30 12377 N 1198.74 0.470782 1.50404 0
M  V30 12378 C 1199.99 -0.0859981 2.01517 0
M  V30 12379 C 1200.3 -1.40811 1.35763 0
M  V30 12380 O 1201.51 -2.04982 1.7803 0
M  V30 12381 C 1199.96 -0.203773 3.59323 0
M  V30 12382 C 1199.57 1.10989 4.34034 0
M  V30 12383 C 1201.32 -0.712528 4.18477 0
M  V30 12384 C 1199.22 0.955928 5.83623 0
M  V30 12385 H 1198.15 -0.0359142 0.753144 0
M  V30 12386 H 1200.8 0.605631 1.73218 0
M  V30 12387 H 1199.19 -0.959177 3.84208 0
M  V30 12388 H 1200.36 1.87623 4.20873 0
M  V30 12389 H 1198.67 1.54973 3.86487 0
M  V30 12390 H 1201.27 -0.844745 5.27985 0
M  V30 12391 H 1201.61 -1.70377 3.79838 0
M  V30 12392 H 1202.15 -0.0145179 3.97797 0
M  V30 12393 H 1198.89 1.92054 6.26734 0
M  V30 12394 H 1198.41 0.22997 5.99359 0
M  V30 12395 H 1200.09 0.622423 6.43999 0
M  V30 12396 N 1200.22 -1.56282 0.203376 0
M  V30 12397 C 1201.46 -1.98105 -0.433844 0
M  V30 12398 C 1201.8 -1.09044 -1.60695 0
M  V30 12399 O 1201.07 -0.144193 -1.93965 0
M  V30 12400 C 1201.35 -3.4903 -0.885992 0
M  V30 12401 C 1201.21 -4.48867 0.289501 0
M  V30 12402 C 1202.53 -4.03871 -1.7486 0
M  V30 12403 H 1199.65 -0.720252 -0.156224 0
M  V30 12404 H 1202.29 -1.87681 0.295963 0
M  V30 12405 H 1200.44 -3.58045 -1.50785 0
M  V30 12406 H 1202.11 -4.51883 0.92734 0
M  V30 12407 H 1200.35 -4.23495 0.939934 0
M  V30 12408 H 1201.02 -5.51956 -0.0695128 0
M  V30 12409 H 1203.5 -3.97688 -1.22407 0
M  V30 12410 H 1202.38 -5.09827 -2.03391 0
M  V30 12411 H 1202.64 -3.49637 -2.70567 0
M  V30 12412 N 1201.7 0.070167 -1.57444 0
M  V30 12413 C 1203.11 0.424991 -1.53838 0
M  V30 12414 C 1203.31 1.79076 -0.923793 0
M  V30 12415 O 1202.37 2.46939 -0.527002 0
M  V30 12416 C 1203.68 0.364562 -2.98482 0
M  V30 12417 C 1205.23 0.444631 -3.09826 0
M  V30 12418 C 1205.7 0.414093 -4.56124 0
M  V30 12419 N 1207.19 0.474119 -4.60767 0
M  V30 12420 C 1207.93 0.472729 -5.71448 0
M  V30 12421 N 1207.43 0.426059 -6.91489 0
M  V30 12422 N 1209.22 0.519408 -5.59695 0
M  V30 12423 H 1201.37 -0.824117 -1.9576 0
M  V30 12424 H 1203.63 -0.309401 -0.896089 0
M  V30 12425 H 1203.34 -0.572343 -3.47012 0
M  V30 12426 H 1203.21 1.17414 -3.5846 0
M  V30 12427 H 1205.6 1.37196 -2.61269 0
M  V30 12428 H 1205.68 -0.393547 -2.52755 0
M  V30 12429 H 1205.32 -0.509394 -5.05339 0
M  V30 12430 H 1205.25 1.26983 -5.11061 0
M  V30 12431 H 1207.75 0.514371 -3.74383 0
M  V30 12432 H 1208.06 0.428969 -7.71609 0
M  V30 12433 H 1206.4 0.392722 -6.9389 0
M  V30 12434 H 1209.59 0.553573 -4.64815 0
M  V30 12435 H 1209.77 0.514856 -6.45951 0
M  V30 12436 N 1203.17 1.53854 0.341593 0
M  V30 12437 C 1204.42 1.7041 1.07905 0
M  V30 12438 C 1204.74 0.475039 1.89744 0
M  V30 12439 O 1205.94 0.521589 2.66443 0
M  V30 12440 C 1204.4 3.01342 1.96776 0
M  V30 12441 C 1204.01 4.31592 1.20135 0
M  V30 12442 C 1205.75 3.27264 2.70367 0
M  V30 12443 C 1203.66 5.53598 2.08047 0
M  V30 12444 H 1202.59 0.635005 0.406553 0
M  V30 12445 H 1205.24 1.80353 0.338409 0
M  V30 12446 H 1203.62 2.85261 2.74667 0
M  V30 12447 H 1204.79 4.58382 0.471404 0
M  V30 12448 H 1203.11 4.12298 0.583039 0
M  V30 12449 H 1205.71 4.15607 3.36415 0
M  V30 12450 H 1206.05 2.44357 3.37039 0
M  V30 12451 H 1206.58 3.4413 1.99548 0
M  V30 12452 H 1203.32 6.39053 1.45914 0
M  V30 12453 H 1202.84 5.31052 2.78825 0
M  V30 12454 H 1204.52 5.89314 2.67055 0
M  V30 12455 N 1204.65 -0.602709 1.4562 0
M  V30 12456 C 1205.88 -1.39299 1.53657 0
M  V30 12457 C 1206.3 -1.87315 0.171632 0
M  V30 12458 O 1205.66 -1.60423 -0.844639 0
M  V30 12459 C 1205.71 -2.57021 2.52928 0
M  V30 12460 O 1204.81 -3.57812 2.05047 0
M  V30 12461 H 1204.15 -0.41567 0.517798 0
M  V30 12462 H 1206.68 -0.73304 1.91018 0
M  V30 12463 H 1206.69 -3.04202 2.71892 0
M  V30 12464 H 1205.37 -2.21422 3.52058 0
M  V30 12465 H 1203.94 -3.17247 1.95981 0
M  V30 12466 N 1206.13 -1.32992 -0.845635 0
M  V30 12467 C 1207.06 -1.18513 -1.96182 0
M  V30 12468 C 1208.07 -0.11781 -1.62373 0
M  V30 12469 O 1209.26 -0.36761 -1.74674 0
M  V30 12470 C 1206.36 -0.793812 -3.29472 0
M  V30 12471 C 1205.54 -1.95134 -3.91461 0
M  V30 12472 C 1204.6 -1.54209 -5.03096 0
M  V30 12473 O 1203.62 -2.25545 -5.22607 0
M  V30 12474 N 1204.82 -0.443235 -5.78805 0
M  V30 12475 H 1207.59 -2.14663 -2.09141 0
M  V30 12476 H 1205.15 -1.25648 -1.02099 0
M  V30 12477 H 1207.14 -0.502263 -4.01571 0
M  V30 12478 H 1205.71 0.0768031 -3.12506 0
M  V30 12479 H 1204.93 -2.40889 -3.12035 0
M  V30 12480 H 1206.22 -2.72604 -4.2961 0
M  V30 12481 H 1205.62 0.150298 -5.655 0
M  V30 12482 H 1204.17 -0.211331 -6.51457 0
M  V30 12483 N 1207.61 1.06304 -1.1635 0
M  V30 12484 C 1208.86 1.78747 -0.943074 0
M  V30 12485 C 1209.18 1.87646 0.530483 0
M  V30 12486 O 1208.45 1.38506 1.38538 0
M  V30 12487 H 1207.03 0.662072 -0.345932 0
M  V30 12488 H 1209.69 1.28413 -1.46615 0
M  V30 12489 H 1208.78 2.80828 -1.3617 0
M  V30 12490 N 1209.09 0.96196 1.24836 0
M  V30 12491 C 1210.33 0.620715 1.92752 0
M  V30 12492 C 1210.66 -0.843308 1.75267 0
M  V30 12493 O 1209.92 -1.62141 1.09584 0
M  V30 12494 C 1210.21 0.934481 3.44967 0
M  V30 12495 C 1209.88 2.38572 3.82615 0
M  V30 12496 C 1208.54 2.78238 3.92603 0
M  V30 12497 C 1210.89 3.32784 4.01129 0
M  V30 12498 C 1208.22 4.11169 4.18518 0
M  V30 12499 C 1210.57 4.65336 4.28539 0
M  V30 12500 C 1209.24 5.04788 4.36745 0
M  V30 12501 H 1208.51 0.227136 0.70533 0
M  V30 12502 H 1211.16 1.21237 1.48236 0
M  V30 12503 H 1209.46 0.260516 3.90933 0
M  V30 12504 H 1211.16 0.648923 3.95715 0
M  V30 12505 H 1207.75 2.06812 3.75402 0
M  V30 12506 H 1211.93 3.03325 3.9282 0
M  V30 12507 H 1207.19 4.41368 4.23089 0
M  V30 12508 H 1211.36 5.3831 4.41809 0
M  V30 12509 H 1208.99 6.07816 4.56579 0
M  V30 12510 N 1210.56 -1.39601 0.731392 0
M  V30 12511 C 1211.84 -1.94531 0.20422 0
M  V30 12512 C 1212.22 -1.66845 -1.29329 0
M  V30 12513 O 1211.57 -0.994706 -2.05713 0
M  V30 12514 C 1211.78 -3.44891 0.53395 0
M  V30 12515 C 1213.13 -4.21863 0.481298 0
M  V30 12516 O 1214.15 -3.53073 0.470929 0
M  V30 12517 O 1213.01 -5.44452 0.472663 0
M  V30 12518 H 1210.1 -0.826214 0.0360436 0
M  V30 12519 H 1212.65 -1.49121 0.810005 0
M  V30 12520 H 1211.42 -3.58463 1.56907 0
M  V30 12521 H 1211.04 -3.97472 -0.10099 0
M  V30 12522 N 1212.04 -0.478751 -1.50152 0
M  V30 12523 C 1213.29 0.07531 -2.01559 0
M  V30 12524 C 1213.6 1.40089 -1.36508 0
M  V30 12525 O 1214.81 2.04035 -1.79115 0
M  V30 12526 C 1213.27 0.184714 -3.59426 0
M  V30 12527 C 1212.87 -1.13289 -4.33439 0
M  V30 12528 C 1214.62 0.690326 -4.18849 0
M  V30 12529 C 1212.53 -0.986866 -5.83108 0
M  V30 12530 H 1211.46 0.0319196 -0.753324 0
M  V30 12531 H 1214.11 -0.614809 -1.72894 0
M  V30 12532 H 1212.49 0.938788 -3.84711 0
M  V30 12533 H 1213.66 -1.89852 -4.19872 0
M  V30 12534 H 1211.98 -1.57021 -3.8566 0
M  V30 12535 H 1214.57 0.816733 -5.28426 0
M  V30 12536 H 1214.92 1.68361 -3.80737 0
M  V30 12537 H 1215.45 -0.00657846 -3.97799 0
M  V30 12538 H 1212.19 -1.95375 -6.25707 0
M  V30 12539 H 1211.71 -0.261752 -5.99229 0
M  V30 12540 H 1213.39 -0.656567 -6.4366 0
M  V30 12541 N 1213.52 1.56172 -0.211661 0
M  V30 12542 C 1214.75 2.02874 0.430905 0
M  V30 12543 C 1215.17 1.09064 1.53254 0
M  V30 12544 O 1214.53 0.0770408 1.81136 0
M  V30 12545 C 1214.58 3.4789 0.948933 0
M  V30 12546 O 1213.68 3.57213 2.0609 0
M  V30 12547 H 1213.02 0.656614 0.0987607 0
M  V30 12548 H 1215.55 2.01964 -0.327399 0
M  V30 12549 H 1215.56 3.88015 1.2613 0
M  V30 12550 H 1214.24 4.15656 0.142584 0
M  V30 12551 H 1212.81 3.28971 1.75592 0
M  V30 12552 N 1215 -0.0618163 1.57479 0
M  V30 12553 C 1215.93 -1.09931 2.01116 0
M  V30 12554 C 1216.94 -1.34405 0.91865 0
M  V30 12555 O 1218.13 -1.32469 1.19642 0
M  V30 12556 C 1215.23 -2.44814 2.34349 0
M  V30 12557 C 1214.41 -2.40157 3.65573 0
M  V30 12558 C 1213.46 -3.57226 3.86363 0
M  V30 12559 O 1212.49 -3.38202 4.5783 0
M  V30 12560 N 1213.69 -4.77937 3.2948 0
M  V30 12561 H 1216.46 -0.727621 2.90733 0
M  V30 12562 H 1214.02 -0.250315 1.59953 0
M  V30 12563 H 1216.01 -3.21792 2.45422 0
M  V30 12564 H 1214.58 -2.73947 1.50571 0
M  V30 12565 H 1213.8 -1.48496 3.65161 0
M  V30 12566 H 1215.09 -2.34156 4.51717 0
M  V30 12567 H 1214.49 -4.96296 2.7149 0
M  V30 12568 H 1213.04 -5.52392 3.45986 0
M  V30 12569 N 1216.48 -1.54033 -0.333429 0
M  V30 12570 C 1217.72 -1.72019 -1.07411 0
M  V30 12571 C 1218.06 -0.487265 -1.87988 0
M  V30 12572 O 1217.33 0.515757 -1.87537 0
M  V30 12573 C 1217.61 -2.98986 -2.00698 0
M  V30 12574 C 1217.47 -4.32509 -1.23517 0
M  V30 12575 C 1218.79 -3.21663 -3.00368 0
M  V30 12576 H 1215.9 -0.625919 -0.389094 0
M  V30 12577 H 1218.55 -1.86717 -0.351697 0
M  V30 12578 H 1216.7 -2.86586 -2.62298 0
M  V30 12579 H 1218.37 -4.56775 -0.644522 0
M  V30 12580 H 1216.61 -4.3046 -0.537298 0
M  V30 12581 H 1217.28 -5.17547 -1.91962 0
M  V30 12582 H 1219.76 -3.33459 -2.48886 0
M  V30 12583 H 1218.63 -4.11877 -3.62834 0
M  V30 12584 H 1218.9 -2.3843 -3.72295 0
M  V30 12585 N 1217.95 0.594978 -1.45938 0
M  V30 12586 C 1218.88 1.71536 -1.58422 0
M  V30 12587 C 1219.87 1.64441 -0.435116 0
M  V30 12588 O 1221.05 1.82647 -0.659839 0
M  V30 12589 C 1218.18 3.10163 -1.56257 0
M  V30 12590 C 1217.13 3.3208 -2.70013 0
M  V30 12591 C 1216.46 4.71108 -2.52905 0
M  V30 12592 C 1217.76 3.21105 -4.11933 0
M  V30 12593 H 1219.45 1.61344 -2.52207 0
M  V30 12594 H 1217 0.774791 -1.2138 0
M  V30 12595 H 1218.95 3.88352 -1.63587 0
M  V30 12596 H 1217.68 3.21225 -0.590093 0
M  V30 12597 H 1216.34 2.56286 -2.62132 0
M  V30 12598 H 1215.98 4.7892 -1.53768 0
M  V30 12599 H 1215.68 4.86727 -3.29197 0
M  V30 12600 H 1217.21 5.51482 -2.62107 0
M  V30 12601 H 1218.62 3.89153 -4.2099 0
M  V30 12602 H 1217.02 3.4825 -4.88715 0
M  V30 12603 H 1218.09 2.18359 -4.32952 0
M  V30 12604 N 1219.43 1.33438 0.838571 0
M  V30 12605 C 1220.36 1.19552 1.9555 0
M  V30 12606 C 1221.38 0.12642 1.62308 0
M  V30 12607 O 1222.57 0.376868 1.74476 0
M  V30 12608 C 1219.67 0.811273 3.29046 0
M  V30 12609 C 1218.84 1.97207 3.9042 0
M  V30 12610 C 1217.9 1.56875 5.02271 0
M  V30 12611 O 1216.92 2.28314 5.21403 0
M  V30 12612 N 1218.13 0.473924 5.78562 0
M  V30 12613 H 1220.89 2.15769 2.07999 0
M  V30 12614 H 1218.45 1.26187 1.01432 0
M  V30 12615 H 1220.44 0.523553 4.01299 0
M  V30 12616 H 1219.01 -0.0602291 3.12542 0
M  V30 12617 H 1218.23 2.4254 3.10754 0
M  V30 12618 H 1219.52 2.74878 4.28158 0
M  V30 12619 H 1218.92 -0.120306 5.65572 0
M  V30 12620 H 1217.48 0.245877 6.51336 0
M  V30 12621 N 1220.91 -1.05686 1.16912 0
M  V30 12622 C 1222.16 -1.78862 0.955839 0
M  V30 12623 C 1222.49 -1.87257 -0.514645 0
M  V30 12624 O 1221.76 -1.36869 -1.38193 0
M  V30 12625 C 1222.05 -3.23021 1.59152 0
M  V30 12626 C 1221.9 -3.22669 3.13376 0
M  V30 12627 C 1223.22 -4.2073 1.29128 0
M  V30 12628 H 1220.34 -0.64931 0.348663 0
M  V30 12629 H 1222.98 -1.23561 1.44335 0
M  V30 12630 H 1221.13 -3.70243 1.17697 0
M  V30 12631 H 1222.8 -2.83562 3.63855 0
M  V30 12632 H 1221.05 -2.61149 3.46386 0
M  V30 12633 H 1221.72 -4.24394 3.52979 0
M  V30 12634 H 1224.19 -3.8198 1.65017 0
M  V30 12635 H 1223.07 -5.19851 1.76198 0
M  V30 12636 H 1223.33 -4.41595 0.21119 0
M  V30 12637 N 1222.39 -0.968567 -1.24324 0
M  V30 12638 C 1223.32 -0.457247 -2.24593 0
M  V30 12639 C 1224.33 0.434483 -1.56895 0
M  V30 12640 O 1225.52 0.240519 -1.76872 0
M  V30 12641 C 1222.62 0.359086 -3.36992 0
M  V30 12642 C 1221.8 -0.522945 -4.34263 0
M  V30 12643 C 1220.85 0.237528 -5.25664 0
M  V30 12644 O 1219.88 -0.368835 -5.68004 0
M  V30 12645 N 1221.08 1.52686 -5.6006 0
M  V30 12646 H 1223.85 -1.31934 -2.69098 0
M  V30 12647 H 1221.41 -0.840488 -1.38374 0
M  V30 12648 H 1223.4 0.87589 -3.95108 0
M  V30 12649 H 1221.97 1.12212 -2.91766 0
M  V30 12650 H 1221.19 -1.22071 -3.74823 0
M  V30 12651 H 1222.48 -1.12447 -4.96219 0
M  V30 12652 H 1221.88 2.0412 -5.2759 0
M  V30 12653 H 1220.43 1.98934 -6.207 0
M  V30 12654 N 1223.87 1.39211 -0.738786 0
M  V30 12655 C 1224.78 2.34374 -0.102958 0
M  V30 12656 C 1225.79 1.58514 0.717596 0
M  V30 12657 O 1226.97 1.90786 0.645186 0
M  V30 12658 C 1224.03 3.37562 0.790733 0
M  V30 12659 C 1223.09 4.29279 -0.0425028 0
M  V30 12660 C 1222.33 5.27539 0.808628 0
M  V30 12661 O 1222.55 5.32396 2.04722 0
M  V30 12662 O 1221.48 6.0144 0.235279 0
M  V30 12663 H 1225.31 2.90412 -0.888498 0
M  V30 12664 H 1222.9 1.40803 -0.499498 0
M  V30 12665 H 1224.78 4.00783 1.30196 0
M  V30 12666 H 1223.45 2.83903 1.55502 0
M  V30 12667 H 1222.36 3.69268 -0.599335 0
M  V30 12668 H 1223.69 4.86154 -0.7691 0
M  V30 12669 N 1225.34 0.486708 1.49896 0
M  V30 12670 C 1226.25 -0.304222 2.32619 0
M  V30 12671 C 1227.27 -0.981103 1.43702 0
M  V30 12672 O 1228.45 -0.965639 1.76741 0
M  V30 12673 C 1225.51 -1.36301 3.18783 0
M  V30 12674 C 1224.57 -0.701082 4.23537 0
M  V30 12675 C 1223.81 -1.70943 5.05583 0
M  V30 12676 O 1224.03 -2.93773 4.88931 0
M  V30 12677 O 1222.96 -1.27263 5.88292 0
M  V30 12678 H 1226.79 0.37248 3.01407 0
M  V30 12679 H 1224.37 0.248277 1.47323 0
M  V30 12680 H 1226.26 -1.97594 3.72202 0
M  V30 12681 H 1224.93 -2.0229 2.52706 0
M  V30 12682 H 1223.84 -0.0487926 3.74068 0
M  V30 12683 H 1225.17 -0.0838817 4.92129 0
M  V30 12684 N 1226.82 -1.56058 0.219941 0
M  V30 12685 C 1227.75 -2.2321 -0.685547 0
M  V30 12686 C 1228.73 -1.20328 -1.20229 0
M  V30 12687 O 1229.92 -1.48909 -1.24659 0
M  V30 12688 C 1227.05 -2.91076 -1.89452 0
M  V30 12689 C 1226 -4.00415 -1.51169 0
M  V30 12690 C 1225.33 -4.55569 -2.79931 0
M  V30 12691 C 1226.63 -5.17549 -0.702896 0
M  V30 12692 H 1228.32 -2.99136 -0.125671 0
M  V30 12693 H 1225.87 -1.43879 -0.0590043 0
M  V30 12694 H 1227.82 -3.36744 -2.53341 0
M  V30 12695 H 1226.55 -2.12594 -2.47934 0
M  V30 12696 H 1225.21 -3.55475 -0.896275 0
M  V30 12697 H 1224.85 -3.73819 -3.36553 0
M  V30 12698 H 1224.55 -5.29361 -2.55049 0
M  V30 12699 H 1226.08 -5.03955 -3.44764 0
M  V30 12700 H 1227.49 -5.59608 -1.24544 0
M  V30 12701 H 1225.89 -5.97563 -0.551234 0
M  V30 12702 H 1226.96 -4.84027 0.29083 0
M  V30 12703 N 1228.3 0.053464 -1.57509 0
M  V30 12704 C 1229.21 1.07902 -2.08313 0
M  V30 12705 C 1230.23 1.41223 -1.01647 0
M  V30 12706 O 1231.4 1.51032 -1.33233 0
M  V30 12707 C 1228.47 2.36813 -2.5322 0
M  V30 12708 C 1227.53 2.10297 -3.74264 0
M  V30 12709 C 1226.76 3.33062 -4.1702 0
M  V30 12710 O 1226.99 4.42857 -3.59491 0
M  V30 12711 O 1225.92 3.20195 -5.09665 0
M  V30 12712 H 1229.75 0.677368 -2.9605 0
M  V30 12713 H 1227.33 0.268838 -1.46961 0
M  V30 12714 H 1229.21 3.12645 -2.82544 0
M  V30 12715 H 1227.89 2.76323 -1.68605 0
M  V30 12716 H 1226.79 1.32111 -3.49996 0
M  V30 12717 H 1228.13 1.75658 -4.59788 0
M  V30 12718 N 1229.78 1.54207 0.325255 0
M  V30 12719 C 1231.2 1.44879 0.669492 0
M  V30 12720 C 1231.4 0.620298 1.91715 0
M  V30 12721 O 1230.45 0.118435 2.52222 0
M  V30 12722 C 1231.76 2.88581 0.845077 0
M  V30 12723 C 1233.31 2.98472 0.942527 0
M  V30 12724 C 1233.79 4.4332 1.15029 0
M  V30 12725 N 1235.28 4.46925 1.21707 0
M  V30 12726 C 1236.01 5.56155 1.39568 0
M  V30 12727 N 1235.51 6.75357 1.54483 0
M  V30 12728 N 1237.3 5.43799 1.42263 0
M  V30 12729 H 1229.45 2.06556 -0.494819 0
M  V30 12730 H 1231.72 0.934474 -0.159568 0
M  V30 12731 H 1231.42 3.517 -0.000442996 0
M  V30 12732 H 1231.3 3.34596 1.74141 0
M  V30 12733 H 1233.68 2.35481 1.77855 0
M  V30 12734 H 1233.76 2.5579 0.0226995 0
M  V30 12735 H 1233.41 5.06896 0.319127 0
M  V30 12736 H 1233.34 4.8361 2.08397 0
M  V30 12737 H 1235.83 3.61036 1.11632 0
M  V30 12738 H 1236.14 7.54363 1.67799 0
M  V30 12739 H 1234.49 6.78268 1.51584 0
M  V30 12740 H 1237.68 4.49627 1.30205 0
M  V30 12741 H 1237.85 6.28982 1.5584 0
M  V30 12742 N 1231.26 -0.58723 1.46251 0
M  V30 12743 C 1232.19 -1.70694 1.5933 0
M  V30 12744 C 1233.17 -1.64208 0.443831 0
M  V30 12745 O 1234.35 -1.82294 0.669516 0
M  V30 12746 C 1231.48 -3.0933 1.579 0
M  V30 12747 C 1230.44 -3.30643 2.7177 0
M  V30 12748 C 1229.76 -4.69761 2.554 0
M  V30 12749 C 1231.06 -3.18916 4.1363 0
M  V30 12750 H 1232.76 -1.60004 2.53059 0
M  V30 12751 H 1230.3 -0.768343 1.21789 0
M  V30 12752 H 1232.26 -3.87479 1.65644 0
M  V30 12753 H 1230.98 -3.20907 0.60712 0
M  V30 12754 H 1229.64 -2.54892 2.63488 0
M  V30 12755 H 1229.29 -4.78098 1.56306 0
M  V30 12756 H 1228.99 -4.84974 3.31774 0
M  V30 12757 H 1230.51 -5.50084 2.65028 0
M  V30 12758 H 1231.93 -3.86915 4.23048 0
M  V30 12759 H 1230.32 -3.45653 4.90555 0
M  V30 12760 H 1231.39 -2.1606 4.34104 0
M  V30 12761 N 1232.74 -1.33881 -0.831482 0
M  V30 12762 C 1233.65 -1.26802 -1.97379 0
M  V30 12763 C 1234.66 -0.177233 -1.73095 0
M  V30 12764 O 1235.84 -0.402163 -1.97344 0
M  V30 12765 C 1232.9 -1.01474 -3.31517 0
M  V30 12766 C 1231.96 -2.19626 -3.68867 0
M  V30 12767 C 1231.2 -1.95497 -4.96605 0
M  V30 12768 O 1231.42 -0.908948 -5.63111 0
M  V30 12769 O 1230.35 -2.82226 -5.31632 0
M  V30 12770 H 1234.18 -2.22883 -2.06293 0
M  V30 12771 H 1231.76 -1.14001 -0.965613 0
M  V30 12772 H 1233.65 -0.890954 -4.11874 0
M  V30 12773 H 1232.32 -0.0842656 -3.2359 0
M  V30 12774 H 1231.23 -2.37561 -2.88991 0
M  V30 12775 H 1232.56 -3.11034 -3.81469 0
M  V30 12776 N 1234.21 1.05064 -1.1747 0
M  V30 12777 C 1235.15 2.12842 -0.850344 0
M  V30 12778 C 1236.16 1.62128 0.147796 0
M  V30 12779 O 1237.35 1.78327 -0.0786774 0
M  V30 12780 C 1234.45 3.37995 -0.247486 0
M  V30 12781 C 1233.62 4.17981 -1.28881 0
M  V30 12782 C 1232.68 5.21476 -0.703476 0
M  V30 12783 O 1231.71 5.52327 -1.37561 0
M  V30 12784 N 1232.91 5.78309 0.50387 0
M  V30 12785 H 1235.67 2.41264 -1.77797 0
M  V30 12786 H 1233.23 1.21172 -1.07373 0
M  V30 12787 H 1235.23 4.04394 0.157424 0
M  V30 12788 H 1233.8 3.07097 0.583952 0
M  V30 12789 H 1233.02 3.47054 -1.86942 0
M  V30 12790 H 1234.3 4.6822 -1.99116 0
M  V30 12791 H 1233.7 5.5553 1.06787 0
M  V30 12792 H 1232.26 6.46223 0.850828 0
M  V30 12793 N 1235.69 0.975146 1.23809 0
M  V30 12794 C 1236.6 0.51917 2.28783 0
M  V30 12795 C 1237.62 -0.423487 1.68768 0
M  V30 12796 O 1238.79 -0.294699 1.99232 0
M  V30 12797 C 1235.86 -0.176229 3.46252 0
M  V30 12798 C 1234.92 0.807177 4.21643 0
M  V30 12799 C 1234.15 0.144869 5.33503 0
M  V30 12800 O 1234.38 -1.06522 5.60365 0
M  V30 12801 O 1233.31 0.84079 5.95999 0
M  V30 12802 H 1237.14 1.39204 2.69919 0
M  V30 12803 H 1234.72 0.74253 1.29641 0
M  V30 12804 H 1236.6 -0.566547 4.17574 0
M  V30 12805 H 1235.28 -1.02394 3.07078 0
M  V30 12806 H 1234.18 1.2481 3.52666 0
M  V30 12807 H 1235.52 1.62354 4.64653 0
M  V30 12808 N 1237.17 -1.38817 0.746158 0
M  V30 12809 C 1238.59 -1.53894 0.42294 0
M  V30 12810 C 1238.79 -1.71064 -1.06486 0
M  V30 12811 O 1237.84 -1.71744 -1.85095 0
M  V30 12812 C 1239.15 -2.75029 1.2157 0
M  V30 12813 C 1240.7 -2.88873 1.20504 0
M  V30 12814 C 1241.18 -4.1296 1.9806 0
M  V30 12815 N 1242.67 -4.20022 1.95283 0
M  V30 12816 C 1243.4 -5.15011 2.52093 0
M  V30 12817 N 1242.9 -6.1572 3.17586 0
M  V30 12818 N 1244.69 -5.07308 2.42064 0
M  V30 12819 H 1236.84 -1.25921 1.71049 0
M  V30 12820 H 1239.11 -0.611148 0.724708 0
M  V30 12821 H 1238.81 -2.68722 2.26895 0
M  V30 12822 H 1238.69 -3.68009 0.827593 0
M  V30 12823 H 1241.07 -2.94667 0.159877 0
M  V30 12824 H 1241.15 -1.96925 1.63261 0
M  V30 12825 H 1240.8 -4.07929 3.02583 0
M  V30 12826 H 1240.73 -5.03974 1.52702 0
M  V30 12827 H 1243.22 -3.47892 1.4758 0
M  V30 12828 H 1243.53 -6.84682 3.58373 0
M  V30 12829 H 1241.88 -6.16075 3.21678 0
M  V30 12830 H 1245.07 -4.27569 1.90532 0
M  V30 12831 H 1245.24 -5.81158 2.86635 0
M  V30 12832 N 1238.65 -0.49465 -1.49636 0
M  V30 12833 C 1239.58 0.276606 -2.31856 0
M  V30 12834 C 1240.56 0.968499 -1.39836 0
M  V30 12835 O 1241.74 0.96113 -1.68748 0
M  V30 12836 C 1238.87 1.34522 -3.20189 0
M  V30 12837 C 1237.83 0.773571 -4.20951 0
M  V30 12838 C 1237.15 1.94223 -4.98178 0
M  V30 12839 C 1238.45 -0.231096 -5.21788 0
M  V30 12840 H 1240.15 -0.409668 -2.96584 0
M  V30 12841 H 1237.69 -0.198461 -1.42626 0
M  V30 12842 H 1239.65 1.89244 -3.76517 0
M  V30 12843 H 1238.37 2.06059 -2.53392 0
M  V30 12844 H 1237.03 0.248144 -3.65759 0
M  V30 12845 H 1236.68 2.64514 -4.27834 0
M  V30 12846 H 1236.38 1.56584 -5.66353 0
M  V30 12847 H 1237.9 2.49391 -5.57348 0
M  V30 12848 H 1239.32 0.227768 -5.72847 0
M  V30 12849 H 1237.71 -0.522984 -5.97817 0
M  V30 12850 H 1238.78 -1.14914 -4.71087 0
M  V30 12851 N 1240.13 1.55939 -0.228214 0
M  V30 12852 C 1241.09 2.1932 0.665681 0
M  V30 12853 C 1242.09 1.15699 1.11671 0
M  V30 12854 O 1243.28 1.40893 1.02444 0
M  V30 12855 C 1240.41 2.82185 1.9127 0
M  V30 12856 H 1241.6 2.99687 0.112986 0
M  V30 12857 H 1239.16 1.56285 0.0213865 0
M  V30 12858 H 1239.89 2.05706 2.5071 0
M  V30 12859 H 1239.68 3.58073 1.5977 0
M  V30 12860 H 1241.17 3.30748 2.54942 0
M  V30 12861 N 1241.6 -0.0451101 1.57535 0
M  V30 12862 C 1242.53 -1.05046 2.08537 0
M  V30 12863 C 1243.52 -1.3872 0.984418 0
M  V30 12864 O 1244.7 -1.47884 1.25873 0
M  V30 12865 C 1241.83 -2.3562 2.55148 0
M  V30 12866 C 1240.78 -2.16231 3.69362 0
M  V30 12867 C 1240.11 -3.52423 4.02122 0
M  V30 12868 C 1241.41 -1.56159 4.98409 0
M  V30 12869 H 1243.1 -0.625965 2.92783 0
M  V30 12870 H 1240.65 -0.299657 1.40848 0
M  V30 12871 H 1242.6 -3.06266 2.89446 0
M  V30 12872 H 1241.33 -2.80099 1.67964 0
M  V30 12873 H 1239.99 -1.4802 3.35389 0
M  V30 12874 H 1239.63 -3.94522 3.12028 0
M  V30 12875 H 1239.33 -3.4028 4.79044 0
M  V30 12876 H 1240.86 -4.24458 4.38939 0
M  V30 12877 H 1242.27 -2.16703 5.30766 0
M  V30 12878 H 1240.67 -1.54638 5.79834 0
M  V30 12879 H 1241.74 -0.525698 4.82042 0
M  V30 12880 N 1243.08 -1.54377 -0.317073 0
M  V30 12881 C 1243.99 -1.87247 -1.41335 0
M  V30 12882 C 1245.01 -0.765017 -1.5628 0
M  V30 12883 O 1246.18 -1.05994 -1.71252 0
M  V30 12884 C 1243.25 -2.0988 -2.75955 0
M  V30 12885 C 1242.31 -3.33658 -2.70131 0
M  V30 12886 C 1241.54 -3.55202 -3.9833 0
M  V30 12887 O 1241.77 -2.80061 -4.96913 0
M  V30 12888 O 1240.7 -4.48693 -4.01196 0
M  V30 12889 H 1244.53 -2.80481 -1.16465 0
M  V30 12890 H 1242.11 -1.40364 -0.511687 0
M  V30 12891 H 1243.99 -2.2606 -3.55633 0
M  V30 12892 H 1242.67 -1.19834 -3.00702 0
M  V30 12893 H 1241.58 -3.22857 -1.88981 0
M  V30 12894 H 1242.91 -4.23782 -2.50338 0
M  V30 12895 N 1244.56 0.579466 -1.4656 0
M  V30 12896 C 1245.52 1.67033 -1.56948 0
M  V30 12897 C 1246.52 1.54481 -0.446361 0
M  V30 12898 O 1247.71 1.5904 -0.710767 0
M  V30 12899 C 1244.85 3.06474 -1.49286 0
M  V30 12900 H 1246.04 1.59179 -2.54169 0
M  V30 12901 H 1243.59 0.797573 -1.34419 0
M  V30 12902 H 1244.33 3.1988 -0.533572 0
M  V30 12903 H 1244.11 3.16993 -2.30776 0
M  V30 12904 H 1245.6 3.85879 -1.59648 0
M  V30 12905 N 1246.04 1.3432 0.824371 0
M  V30 12906 C 1247.27 1.29669 1.61226 0
M  V30 12907 C 1247.68 -0.129532 1.88355 0
M  V30 12908 O 1247.04 -1.07616 1.47394 0
M  V30 12909 C 1247.09 2.08375 2.95402 0
M  V30 12910 O 1246.81 3.45434 2.69456 0
M  V30 12911 C 1248.31 2.11103 3.89808 0
M  V30 12912 H 1245.53 0.446137 0.501201 0
M  V30 12913 H 1248.08 1.76912 1.02579 0
M  V30 12914 H 1246.23 1.64777 3.5061 0
M  V30 12915 H 1246.64 3.86101 3.55001 0
M  V30 12916 H 1248.12 2.706 4.81124 0
M  V30 12917 H 1248.6 1.10505 4.25071 0
M  V30 12918 H 1249.2 2.54784 3.40537 0
M  V30 12919 N 1247.52 -1.0444 1.18026 0
M  V30 12920 C 1248.77 -1.7697 0.9677 0
M  V30 12921 C 1249.08 -1.88995 -0.503994 0
M  V30 12922 O 1250.28 -2.58342 -0.834968 0
M  V30 12923 C 1248.74 -3.1816 1.68232 0
M  V30 12924 C 1248.35 -3.14241 3.19307 0
M  V30 12925 C 1250.09 -3.95095 1.55244 0
M  V30 12926 C 1248 -4.50266 3.83425 0
M  V30 12927 H 1246.93 -0.663355 0.358436 0
M  V30 12928 H 1249.58 -1.17003 1.4136 0
M  V30 12929 H 1247.96 -3.78501 1.16418 0
M  V30 12930 H 1249.14 -2.63373 3.78115 0
M  V30 12931 H 1247.45 -2.50805 3.32394 0
M  V30 12932 H 1250.05 -4.95681 2.00511 0
M  V30 12933 H 1250.39 -4.13236 0.504125 0
M  V30 12934 H 1250.92 -3.4132 2.04317 0
M  V30 12935 H 1247.66 -4.37329 4.88286 0
M  V30 12936 H 1247.18 -5.01251 3.29404 0
M  V30 12937 H 1248.86 -5.1919 3.86071 0
M  V30 12938 N 1248.99 -0.981699 -1.2329 0
M  V30 12939 C 1249.94 -0.52269 -2.24803 0
M  V30 12940 C 1250.91 0.439116 -1.6019 0
M  V30 12941 O 1252.1 0.346372 -1.8763 0
M  V30 12942 C 1249.24 0.167477 -3.44693 0
M  V30 12943 C 1248.35 -0.834744 -4.23858 0
M  V30 12944 C 1247.48 -0.119249 -5.31066 0
M  V30 12945 C 1246.52 -1.1106 -6.0194 0
M  V30 12946 N 1245.66 -0.424167 -7.00818 0
M  V30 12947 H 1250.5 -1.39312 -2.63431 0
M  V30 12948 H 1248.04 -0.698061 -1.29482 0
M  V30 12949 H 1250 0.584442 -4.13086 0
M  V30 12950 H 1248.63 1.00177 -3.06862 0
M  V30 12951 H 1247.68 -1.37009 -3.5487 0
M  V30 12952 H 1248.99 -1.59012 -4.72776 0
M  V30 12953 H 1248.14 0.355015 -6.0566 0
M  V30 12954 H 1246.88 0.668714 -4.83094 0
M  V30 12955 H 1245.89 -1.5956 -5.26138 0
M  V30 12956 H 1247.11 -1.89924 -6.52001 0
M  V30 12957 H 1245.06 0.344564 -6.55094 0
M  V30 12958 H 1244.98 -1.11817 -7.47685 0
M  V30 12959 H 1246.24 0.0276655 -7.79495 0
M  V30 12960 N 1250.47 1.3842 -0.753509 0
M  V30 12961 C 1251.75 1.94181 -0.235142 0
M  V30 12962 C 1252.13 1.68881 1.26659 0
M  V30 12963 O 1251.48 1.02731 2.04104 0
M  V30 12964 C 1251.69 3.43998 -0.588751 0
M  V30 12965 C 1253.04 4.21044 -0.548352 0
M  V30 12966 O 1254.06 3.52279 -0.52704 0
M  V30 12967 O 1252.92 5.43631 -0.559221 0
M  V30 12968 H 1250.01 0.825536 -0.0491834 0
M  V30 12969 H 1252.56 1.47813 -0.833626 0
M  V30 12970 H 1251.33 3.55921 -1.6259 0
M  V30 12971 H 1250.95 3.97582 0.0377429 0
M  V30 12972 N 1251.95 0.502579 1.49372 0
M  V30 12973 C 1252.9 -0.288693 2.30801 0
M  V30 12974 C 1253.89 -0.961303 1.39482 0
M  V30 12975 O 1255.1 -0.888812 1.56525 0
M  V30 12976 H 1251.47 -0.111958 0.743619 0
M  V30 12977 H 1253.44 0.418062 2.95457 0
M  V30 12978 C 1252.19 -1.33938 3.20867 0
M  V30 12979 H 1251.52 -0.831219 3.91064 0
M  V30 12980 H 1252.96 -1.86498 3.80781 0
M  V30 12981 C 1251.42 -2.35839 2.40586 0
M  V30 12982 O 1251.95 -3.41752 2.11113 0
M  V30 12983 N 1250.15 -2.0835 2.0258 0
M  V30 12984 H 1249.7 -1.2224 2.26749 0
M  V30 12985 H 1249.66 -2.76758 1.49173 0
M  V30 12986 N 1253.43 -1.55816 0.23648 0
M  V30 12987 C 1254.34 -2.24576 -0.678439 0
M  V30 12988 C 1255.35 -1.25836 -1.20172 0
M  V30 12989 O 1256.53 -1.58686 -1.24019 0
M  V30 12990 C 1253.6 -2.92376 -1.86325 0
M  V30 12991 C 1252.66 -4.06499 -1.38047 0
M  V30 12992 C 1251.89 -4.71057 -2.50881 0
M  V30 12993 O 1252.11 -4.34652 -3.69369 0
M  V30 12994 O 1251.05 -5.59768 -2.21232 0
M  V30 12995 H 1254.87 -3.03452 -0.122601 0
M  V30 12996 H 1252.46 -1.49399 0.00540803 0
M  V30 12997 H 1254.34 -3.35117 -2.55488 0
M  V30 12998 H 1253.01 -2.16448 -2.40691 0
M  V30 12999 H 1251.92 -3.68296 -0.656422 0
M  V30 13000 H 1253.25 -4.84214 -0.883024 0
M  V30 13001 N 1254.91 0.036755 -1.57557 0
M  V30 13002 C 1256.15 0.734039 -1.90765 0
M  V30 13003 C 1256.51 1.7293 -0.834222 0
M  V30 13004 O 1257.71 2.47427 -1.0504 0
M  V30 13005 C 1255.98 1.39285 -3.29142 0
M  V30 13006 S 1257.54 2.12035 -3.8417 0
M  V30 13007 H 1254.36 0.243349 -0.668059 0
M  V30 13008 H 1256.96 -0.0110968 -1.95497 0
M  V30 13009 H 1255.67 0.655154 -4.05137 0
M  V30 13010 H 1255.2 2.17669 -3.27694 0
M  V30 13011 H 1257.21 3.39072 -3.62277 0
M  V30 13012 N 1256.39 1.54543 0.308881 0
M  V30 13013 C 1257.3 1.87994 1.4034 0
M  V30 13014 C 1258.31 0.773294 1.55872 0
M  V30 13015 O 1259.49 1.069 1.70688 0
M  V30 13016 C 1256.55 2.11341 2.74838 0
M  V30 13017 C 1255.61 3.35086 2.68358 0
M  V30 13018 C 1254.85 3.5731 3.96441 0
M  V30 13019 O 1255.07 2.82692 4.9542 0
M  V30 13020 O 1254 4.50814 3.98811 0
M  V30 13021 H 1257.83 2.81094 1.14976 0
M  V30 13022 H 1255.41 1.40634 0.504236 0
M  V30 13023 H 1257.3 2.27943 3.54429 0
M  V30 13024 H 1255.97 1.21427 3.00062 0
M  V30 13025 H 1254.88 3.23855 1.87267 0
M  V30 13026 H 1256.21 4.25104 2.48087 0
M  V30 13027 N 1257.86 -0.571685 1.46866 0
M  V30 13028 C 1258.77 -1.70758 1.60869 0
M  V30 13029 C 1259.79 -1.66903 0.49186 0
M  V30 13030 O 1260.97 -1.86613 0.757468 0
M  V30 13031 C 1258.03 -3.07267 1.60586 0
M  V30 13032 C 1257.09 -3.22301 2.83585 0
M  V30 13033 C 1256.32 -4.52298 2.83306 0
M  V30 13034 O 1256.55 -5.36869 1.92685 0
M  V30 13035 O 1255.48 -4.70814 3.7499 0
M  V30 13036 H 1259.31 -1.6189 2.56954 0
M  V30 13037 H 1256.89 -0.740018 1.29785 0
M  V30 13038 H 1258.77 -3.8853 1.63163 0
M  V30 13039 H 1257.45 -3.16549 0.676637 0
M  V30 13040 H 1256.36 -2.4049 2.86558 0
M  V30 13041 H 1257.69 -3.17916 3.75753 0
M  V30 13042 N 1259.34 -1.34755 -0.817236 0
M  V30 13043 C 1260.25 -1.28888 -1.96023 0
M  V30 13044 C 1261.27 -0.195582 -1.72897 0
M  V30 13045 O 1262.44 -0.423071 -1.96906 0
M  V30 13046 C 1259.51 -1.04985 -3.30423 0
M  V30 13047 C 1258.57 -2.23526 -3.66517 0
M  V30 13048 C 1257.8 -2.00753 -4.94504 0
M  V30 13049 O 1258.03 -0.968622 -5.62116 0
M  V30 13050 O 1256.96 -2.87848 -5.28608 0
M  V30 13051 H 1260.79 -2.25059 -2.03917 0
M  V30 13052 H 1258.37 -1.15019 -0.953467 0
M  V30 13053 H 1260.25 -0.934589 -4.10906 0
M  V30 13054 H 1258.93 -0.118582 -3.23483 0
M  V30 13055 H 1257.83 -2.40613 -2.86455 0
M  V30 13056 H 1259.17 -3.15062 -3.78149 0
M  V30 13057 N 1260.82 1.03812 -1.18578 0
M  V30 13058 C 1262.04 1.8124 -1.00831 0
M  V30 13059 C 1262.47 1.82917 0.43853 0
M  V30 13060 O 1261.83 1.24835 1.31476 0
M  V30 13061 C 1261.88 3.24592 -1.57075 0
M  V30 13062 O 1260.98 4.04688 -0.793824 0
M  V30 13063 H 1260.32 0.559846 -0.357028 0
M  V30 13064 H 1262.85 1.30724 -1.57393 0
M  V30 13065 H 1262.86 3.75363 -1.59896 0
M  V30 13066 H 1261.54 3.22686 -2.62387 0
M  V30 13067 H 1260.11 3.63359 -0.838134 0
M  V30 13068 N 1262.3 0.988223 1.22768 0
M  V30 13069 C 1263.55 0.660154 1.91014 0
M  V30 13070 C 1263.87 -0.809788 1.77391 0
M  V30 13071 O 1263.14 -1.57998 1.15817 0
M  V30 13072 H 1261.72 0.24118 0.706995 0
M  V30 13073 H 1264.38 1.25372 1.49224 0
M  V30 13074 H 1263.47 0.918603 2.98275 0
M  V30 13075 N 1263.78 -1.38018 0.760839 0
M  V30 13076 C 1265.02 -1.99557 0.319609 0
M  V30 13077 C 1265.34 -1.60699 -1.10457 0
M  V30 13078 O 1264.61 -0.867248 -1.75658 0
M  V30 13079 H 1263.19 -0.738066 0.115182 0
M  V30 13080 H 1265.86 -1.6867 0.976544 0
M  V30 13081 H 1264.95 -3.09672 0.388523 0
M  V30 13082 N 1265.25 -0.510493 -1.49103 0
M  V30 13083 C 1266.5 0.0325393 -2.01674 0
M  V30 13084 C 1266.82 1.37162 -1.39448 0
M  V30 13085 O 1268.02 2.00189 -1.83402 0
M  V30 13086 C 1266.48 0.108433 -3.59737 0
M  V30 13087 C 1266.09 -1.22458 -4.30939 0
M  V30 13088 C 1267.83 0.601326 -4.20219 0
M  V30 13089 C 1265.74 -1.11033 -5.80884 0
M  V30 13090 H 1264.67 0.0159333 -0.753832 0
M  V30 13091 H 1267.32 -0.651344 -1.71551 0
M  V30 13092 H 1265.7 0.856974 -3.86616 0
M  V30 13093 H 1266.87 -1.98715 -4.15751 0
M  V30 13094 H 1265.19 -1.65166 -3.82242 0
M  V30 13095 H 1267.79 0.704462 -5.30039 0
M  V30 13096 H 1268.13 1.60247 -3.84222 0
M  V30 13097 H 1268.66 -0.0909561 -3.97696 0
M  V30 13098 H 1265.4 -2.08603 -6.21422 0
M  V30 13099 H 1264.92 -0.388798 -5.98539 0
M  V30 13100 H 1266.6 -0.792949 -6.42123 0
M  V30 13101 N 1266.73 1.55688 -0.24474 0
M  V30 13102 C 1268.15 1.59219 0.110159 0
M  V30 13103 C 1268.35 1.26187 1.57096 0
M  V30 13104 O 1267.4 1.00815 2.31501 0
M  V30 13105 C 1268.72 2.99764 -0.237075 0
M  V30 13106 C 1270.26 3.12475 -0.181198 0
M  V30 13107 C 1270.74 4.55236 -0.502435 0
M  V30 13108 N 1272.23 4.60981 -0.452855 0
M  V30 13109 C 1272.97 5.69418 -0.674605 0
M  V30 13110 N 1272.46 6.86125 -0.959366 0
M  V30 13111 N 1274.25 5.5883 -0.605459 0
M  V30 13112 H 1266.41 1.7543 -1.19741 0
M  V30 13113 H 1268.67 0.816537 -0.481634 0
M  V30 13114 H 1268.37 3.28666 -1.25185 0
M  V30 13115 H 1268.25 3.74662 0.436859 0
M  V30 13116 H 1270.64 2.83355 0.824248 0
M  V30 13117 H 1270.72 2.39857 -0.888952 0
M  V30 13118 H 1270.36 4.85077 -1.50543 0
M  V30 13119 H 1270.29 5.26111 0.226773 0
M  V30 13120 H 1272.78 3.77128 -0.241401 0
M  V30 13121 H 1273.09 7.64699 -1.11605 0
M  V30 13122 H 1271.44 6.87814 -0.996816 0
M  V30 13123 H 1274.63 4.6653 -0.383053 0
M  V30 13124 H 1274.8 6.43268 -0.781673 0
M  V30 13125 N 1268.21 -0.0283989 1.57574 0
M  V30 13126 C 1269.46 -0.717656 1.88929 0
M  V30 13127 C 1269.78 -1.7586 0.842517 0
M  V30 13128 O 1269.05 -1.95509 -0.123774 0
M  V30 13129 H 1267.63 -0.268051 0.69725 0
M  V30 13130 H 1270.29 0.00580691 1.94899 0
M  V30 13131 H 1269.39 -1.2068 2.87824 0
M  V30 13132 N 1269.69 -1.54705 -0.300681 0
M  V30 13133 C 1270.62 -1.88679 -1.37559 0
M  V30 13134 C 1271.6 -0.74574 -1.52881 0
M  V30 13135 O 1272.78 -1.0015 -1.66384 0
M  V30 13136 C 1269.91 -2.13438 -2.73974 0
M  V30 13137 C 1268.87 -3.29284 -2.73415 0
M  V30 13138 C 1268.19 -3.39462 -4.13122 0
M  V30 13139 C 1269.49 -4.66382 -2.35128 0
M  V30 13140 H 1271.19 -2.78707 -1.09373 0
M  V30 13141 H 1268.73 -1.341 -0.524704 0
M  V30 13142 H 1270.69 -2.35791 -3.49257 0
M  V30 13143 H 1269.41 -1.20181 -3.03684 0
M  V30 13144 H 1268.07 -3.06855 -2.00588 0
M  V30 13145 H 1267.72 -2.43721 -4.4001 0
M  V30 13146 H 1267.42 -4.17334 -4.1365 0
M  V30 13147 H 1268.94 -3.64075 -4.90185 0
M  V30 13148 H 1270.36 -4.88463 -3.00128 0
M  V30 13149 H 1268.75 -5.4697 -2.46867 0
M  V30 13150 H 1269.82 -4.67078 -1.30256 0
M  V30 13151 N 1271.17 0.563888 -1.47167 0
M  V30 13152 C 1272.41 1.32136 -1.53448 0
M  V30 13153 C 1272.74 1.9353 -0.19396 0
M  V30 13154 O 1272 1.78038 0.812456 0
M  V30 13155 C 1272.3 2.45678 -2.59571 0
M  V30 13156 C 1271.96 2.02157 -4.03043 0
M  V30 13157 C 1270.62 1.90003 -4.421 0
M  V30 13158 C 1272.98 1.68846 -4.93093 0
M  V30 13159 C 1270.3 1.42825 -5.6905 0
M  V30 13160 C 1272.66 1.2314 -6.20499 0
M  V30 13161 C 1271.32 1.09578 -6.58444 0
M  V30 13162 H 1270.59 0.483519 -0.561507 0
M  V30 13163 H 1273.24 0.633042 -1.80734 0
M  V30 13164 H 1271.54 3.20037 -2.26017 0
M  V30 13165 H 1273.24 3.03871 -2.61655 0
M  V30 13166 H 1269.83 2.12557 -3.7218 0
M  V30 13167 H 1274.01 1.77111 -4.63622 0
M  V30 13168 H 1269.27 1.30983 -5.97205 0
M  V30 13169 H 1273.44 0.964247 -6.89692 0
M  V30 13170 H 1271.07 0.727975 -7.56706 0
M  V30 13171 N 1272.64 1.35187 0.810078 0
M  V30 13172 C 1273.59 1.27822 1.92173 0
M  V30 13173 C 1274.56 0.150851 1.65414 0
M  V30 13174 O 1275.75 0.333973 1.87854 0
M  V30 13175 C 1272.89 1.05258 3.28656 0
M  V30 13176 C 1272 2.26884 3.67624 0
M  V30 13177 C 1271.13 1.97499 4.9312 0
M  V30 13178 C 1270.17 3.15198 5.24706 0
M  V30 13179 N 1269.31 2.85612 6.41381 0
M  V30 13180 H 1274.15 2.22884 1.97804 0
M  V30 13181 H 1271.69 1.10799 0.967577 0
M  V30 13182 H 1273.65 0.902084 4.07331 0
M  V30 13183 H 1272.28 0.138583 3.22502 0
M  V30 13184 H 1271.33 2.5281 2.84238 0
M  V30 13185 H 1272.64 3.14783 3.86928 0
M  V30 13186 H 1271.79 1.7926 5.79613 0
M  V30 13187 H 1270.53 1.0688 4.75844 0
M  V30 13188 H 1269.54 3.34019 4.36705 0
M  V30 13189 H 1270.76 4.06614 5.43913 0
M  V30 13190 H 1268.71 1.97583 6.25537 0
M  V30 13191 H 1268.63 3.67044 6.60919 0
M  V30 13192 H 1269.89 2.70906 7.3091 0
M  V30 13193 N 1274.12 -1.03182 1.19127 0
M  V30 13194 C 1275.07 -2.11394 0.926339 0
M  V30 13195 C 1276.04 -1.65528 -0.137703 0
M  V30 13196 O 1277.22 -1.908 0.00381804 0
M  V30 13197 C 1274.36 -3.41913 0.467894 0
M  V30 13198 C 1273.48 -4.01343 1.59837 0
M  V30 13199 C 1272.61 -5.1986 1.09175 0
M  V30 13200 C 1271.65 -5.71339 2.19632 0
M  V30 13201 N 1270.79 -6.81133 1.703 0
M  V30 13202 H 1275.63 -2.33393 1.85288 0
M  V30 13203 H 1273.17 -1.14473 0.923811 0
M  V30 13204 H 1275.12 -4.16796 0.183513 0
M  V30 13205 H 1273.75 -3.20034 -0.421656 0
M  V30 13206 H 1272.81 -3.23702 1.99803 0
M  V30 13207 H 1274.12 -4.35568 2.43068 0
M  V30 13208 H 1273.27 -6.0189 0.762427 0
M  V30 13209 H 1272.01 -4.87161 0.22914 0
M  V30 13210 H 1271.02 -4.87923 2.53399 0
M  V30 13211 H 1272.24 -6.06078 3.06344 0
M  V30 13212 H 1270.19 -6.50293 0.863415 0
M  V30 13213 H 1270.1 -7.1447 2.47122 0
M  V30 13214 H 1271.37 -7.66766 1.40321 0
M  V30 13215 N 1275.6 -0.99472 -1.22242 0
M  V30 13216 C 1276.56 -0.551619 -2.22463 0
M  V30 13217 C 1277.56 0.366498 -1.56568 0
M  V30 13218 O 1278.75 0.158204 -1.7348 0
M  V30 13219 C 1275.89 0.197416 -3.40328 0
M  V30 13220 H 1277.08 -1.43795 -2.63179 0
M  V30 13221 H 1274.63 -0.782121 -1.35324 0
M  V30 13222 H 1275.37 1.09965 -3.05087 0
M  V30 13223 H 1275.15 -0.461829 -3.89371 0
M  V30 13224 H 1276.64 0.495534 -4.1465 0
M  V30 13225 N 1277.08 1.37613 -0.768148 0
M  V30 13226 C 1278.33 1.99384 -0.330187 0
M  V30 13227 C 1278.65 1.61283 1.09604 0
M  V30 13228 O 1277.92 0.876551 1.75195 0
M  V30 13229 H 1276.5 0.737445 -0.119095 0
M  V30 13230 H 1279.16 1.6815 -0.985476 0
M  V30 13231 H 1278.26 3.09462 -0.40494 0
M  V30 13232 N 1278.56 0.518393 1.4883 0
M  V30 13233 C 1279.5 -0.250684 2.29435 0
M  V30 13234 C 1280.47 -0.944481 1.36634 0
M  V30 13235 O 1281.66 -0.947766 1.65596 0
M  V30 13236 C 1278.8 -1.29871 3.1973 0
M  V30 13237 C 1277.91 -0.61493 4.27601 0
M  V30 13238 C 1277.05 -1.64489 5.05091 0
M  V30 13239 C 1276.09 -0.943932 6.04778 0
M  V30 13240 N 1275.22 -1.91889 6.75369 0
M  V30 13241 H 1280.06 0.44288 2.94691 0
M  V30 13242 H 1277.6 0.230246 1.45287 0
M  V30 13243 H 1279.56 -1.91851 3.70471 0
M  V30 13244 H 1278.19 -1.96081 2.56422 0
M  V30 13245 H 1277.24 0.118552 3.80215 0
M  V30 13246 H 1278.55 -0.063994 4.98759 0
M  V30 13247 H 1277.71 -2.33928 5.59788 0
M  V30 13248 H 1276.44 -2.2297 4.33746 0
M  V30 13249 H 1275.45 -0.235407 5.49296 0
M  V30 13250 H 1276.67 -0.365383 6.78116 0
M  V30 13251 H 1274.62 -2.493 6.06783 0
M  V30 13252 H 1274.54 -1.41909 7.42562 0
M  V30 13253 H 1275.81 -2.60563 7.34661 0
M  V30 13254 N 1280.03 -1.55556 0.252993 0
M  V30 13255 C 1280.96 -2.24613 -0.638047 0
M  V30 13256 C 1281.95 -1.22852 -1.1765 0
M  V30 13257 O 1283.13 -1.51519 -1.21472 0
M  V30 13258 C 1280.26 -2.95029 -1.83236 0
M  V30 13259 C 1279.21 -4.03531 -1.42641 0
M  V30 13260 C 1278.54 -4.61404 -2.70204 0
M  V30 13261 C 1279.84 -5.18923 -0.592958 0
M  V30 13262 H 1281.53 -2.99335 -0.0621918 0
M  V30 13263 H 1279.08 -1.43972 -0.0284722 0
M  V30 13264 H 1281.03 -3.42042 -2.46141 0
M  V30 13265 H 1279.76 -2.17805 -2.43369 0
M  V30 13266 H 1278.42 -3.57296 -0.820672 0
M  V30 13267 H 1278.06 -3.80874 -3.28548 0
M  V30 13268 H 1277.76 -5.34652 -2.43764 0
M  V30 13269 H 1279.29 -5.11154 -3.33997 0
M  V30 13270 H 1280.7 -5.62124 -1.12646 0
M  V30 13271 H 1279.1 -5.98598 -0.424358 0
M  V30 13272 H 1280.17 -4.83301 0.393434 0
M  V30 13273 N 1281.51 0.0200419 -1.57587 0
M  V30 13274 C 1282.46 1.0362 -2.08244 0
M  V30 13275 C 1283.45 1.36872 -0.998119 0
M  V30 13276 O 1284.66 1.35671 -1.18293 0
M  V30 13277 H 1281.04 0.351731 -0.664673 0
M  V30 13278 H 1283.01 0.583226 -2.92645 0
M  V30 13279 C 1281.76 2.32574 -2.58466 0
M  V30 13280 H 1281.08 2.0785 -3.41523 0
M  V30 13281 H 1282.52 3.02 -2.97611 0
M  V30 13282 C 1280.98 3.02167 -1.48986 0
M  V30 13283 O 1281.51 3.92359 -0.861251 0
M  V30 13284 N 1279.71 2.63649 -1.22219 0
M  V30 13285 H 1279.26 1.90389 -1.73521 0
M  V30 13286 H 1279.22 3.10529 -0.491828 0
M  V30 13287 N 1282.99 1.54862 0.292472 0
M  V30 13288 C 1284.24 1.73756 1.02429 0
M  V30 13289 C 1284.55 0.535164 1.88137 0
M  V30 13290 O 1285.76 0.606092 2.64648 0
M  V30 13291 C 1284.21 3.0745 1.8709 0
M  V30 13292 C 1283.82 4.35195 1.06343 0
M  V30 13293 C 1285.57 3.357 2.59819 0
M  V30 13294 C 1283.47 5.59936 1.9033 0
M  V30 13295 H 1282.4 0.647617 0.386145 0
M  V30 13296 H 1285.05 1.81338 0.28086 0
M  V30 13297 H 1283.44 2.93855 2.65453 0
M  V30 13298 H 1284.61 4.5965 0.325335 0
M  V30 13299 H 1282.93 4.13944 0.451574 0
M  V30 13300 H 1285.52 4.26099 3.23023 0
M  V30 13301 H 1285.87 2.54956 3.29094 0
M  V30 13302 H 1286.4 3.50304 1.88499 0
M  V30 13303 H 1283.14 6.43372 1.25509 0
M  V30 13304 H 1282.66 5.39654 2.61789 0
M  V30 13305 H 1284.34 5.97512 2.48171 0
M  V30 13306 N 1284.47 -0.556076 1.47464 0
M  V30 13307 C 1285.7 -1.33858 1.57764 0
M  V30 13308 C 1286.11 -1.87415 0.22825 0
M  V30 13309 O 1285.47 -1.65054 -0.778674 0
M  V30 13310 C 1285.52 -2.5077 2.60378 0
M  V30 13311 O 1285.24 -1.99426 3.90078 0
M  V30 13312 C 1286.74 -3.42965 2.80873 0
M  V30 13313 H 1283.96 -0.408003 0.532705 0
M  V30 13314 H 1286.51 -0.673501 1.93091 0
M  V30 13315 H 1284.66 -3.13214 2.27982 0
M  V30 13316 H 1285.07 -2.75759 4.46158 0
M  V30 13317 H 1286.55 -4.21412 3.56533 0
M  V30 13318 H 1287.03 -3.96579 1.88737 0
M  V30 13319 H 1287.63 -2.86336 3.14471 0
M  V30 13320 N 1285.95 -1.35615 -0.802897 0
M  V30 13321 C 1286.89 -1.28839 -1.91492 0
M  V30 13322 C 1287.86 -0.159621 -1.65331 0
M  V30 13323 O 1289.05 -0.343931 -1.87675 0
M  V30 13324 C 1286.19 -1.06999 -3.28093 0
M  V30 13325 C 1285.3 -2.28831 -3.66416 0
M  V30 13326 C 1284.44 -2.00111 -4.92066 0
M  V30 13327 C 1283.48 -3.17977 -5.23027 0
M  V30 13328 N 1282.61 -2.89009 -6.39858 0
M  V30 13329 H 1287.45 -2.2393 -1.96619 0
M  V30 13330 H 1284.99 -1.1131 -0.961687 0
M  V30 13331 H 1286.95 -0.923673 -4.06847 0
M  V30 13332 H 1285.58 -0.155684 -3.22424 0
M  V30 13333 H 1284.63 -2.54314 -2.82893 0
M  V30 13334 H 1285.94 -3.1683 -3.85253 0
M  V30 13335 H 1285.1 -1.82331 -5.78654 0
M  V30 13336 H 1283.84 -1.09402 -4.75271 0
M  V30 13337 H 1282.84 -3.3633 -4.34928 0
M  V30 13338 H 1284.07 -4.09493 -5.41749 0
M  V30 13339 H 1282.01 -2.00898 -6.24481 0
M  V30 13340 H 1281.93 -3.70544 -6.58964 0
M  V30 13341 H 1283.2 -2.74779 -7.29463 0
M  V30 13342 N 1287.43 1.02549 -1.19673 0
M  V30 13343 C 1288.65 1.79623 -1.0268 0
M  V30 13344 C 1289.07 1.83969 0.424345 0
M  V30 13345 O 1288.43 1.28621 1.29472 0
M  V30 13346 C 1288.48 3.24514 -1.59289 0
M  V30 13347 O 1288.2 3.20462 -2.98723 0
M  V30 13348 C 1289.7 4.18173 -1.47126 0
M  V30 13349 H 1286.92 0.565167 -0.3617 0
M  V30 13350 H 1289.46 1.29143 -1.58564 0
M  V30 13351 H 1287.62 3.72173 -1.07546 0
M  V30 13352 H 1288.03 4.11341 -3.25421 0
M  V30 13353 H 1289.51 5.17714 -1.9151 0
M  V30 13354 H 1289.98 4.37165 -0.422315 0
M  V30 13355 H 1290.59 3.7639 -1.98017 0
M  V30 13356 N 1288.9 1.00119 1.21713 0
M  V30 13357 C 1290.13 0.700431 1.94683 0
M  V30 13358 C 1290.55 -0.736333 1.73849 0
M  V30 13359 O 1289.9 -1.49778 1.04272 0
M  V30 13360 C 1289.95 1.00722 3.47185 0
M  V30 13361 O 1289.68 2.38754 3.67326 0
M  V30 13362 C 1291.18 0.725335 4.37326 0
M  V30 13363 H 1288.4 0.25843 0.619238 0
M  V30 13364 H 1290.94 1.3382 1.54636 0
M  V30 13365 H 1289.1 0.415117 3.85169 0
M  V30 13366 H 1289.51 2.49321 4.61454 0
M  V30 13367 H 1290.98 0.990202 5.43046 0
M  V30 13368 H 1291.46 -0.340649 4.37877 0
M  V30 13369 H 1292.07 1.29888 4.04981 0
M  V30 13370 N 1290.38 -1.37203 0.775435 0
M  V30 13371 C 1291.79 -1.82224 0.406372 0
M  V30 13372 C 1292.14 -1.64587 -1.06796 0
M  V30 13373 O 1291.27 -1.15903 -1.82744 0
M  V30 13374 C 1291.86 -3.30824 0.730819 0
M  V30 13375 C 1290.42 -3.74108 0.414766 0
M  V30 13376 C 1289.57 -2.59679 0.972747 0
M  V30 13377 H 1292.52 -1.25623 0.969775 0
M  V30 13378 H 1292.54 -3.80496 0.0168066 0
M  V30 13379 H 1292.05 -3.43628 1.80392 0
M  V30 13380 H 1290.15 -3.66871 -0.650866 0
M  V30 13381 H 1290.27 -4.70074 0.925595 0
M  V30 13382 H 1288.63 -2.51591 0.396772 0
M  V30 13383 H 1289.41 -2.75274 2.05132 0
M  V30 13384 N 1291.86 -0.526279 -1.48553 0
M  V30 13385 C 1292.81 0.238513 -2.29564 0
M  V30 13386 C 1293.78 0.937222 -1.37133 0
M  V30 13387 O 1294.96 0.93897 -1.66096 0
M  V30 13388 C 1292.1 1.28173 -3.20415 0
M  V30 13389 C 1291.21 0.592244 -4.27921 0
M  V30 13390 C 1290.35 1.61808 -5.05956 0
M  V30 13391 C 1289.39 0.911846 -6.0527 0
M  V30 13392 N 1288.53 1.88305 -6.76377 0
M  V30 13393 H 1293.37 -0.458502 -2.94452 0
M  V30 13394 H 1290.9 -0.237948 -1.45163 0
M  V30 13395 H 1292.86 1.89883 -3.71484 0
M  V30 13396 H 1291.49 1.94718 -2.57458 0
M  V30 13397 H 1290.54 -0.138714 -3.80147 0
M  V30 13398 H 1291.85 0.0375427 -4.98786 0
M  V30 13399 H 1291.01 2.30956 -5.61021 0
M  V30 13400 H 1289.75 2.20667 -4.34922 0
M  V30 13401 H 1288.75 0.206273 -5.49413 0
M  V30 13402 H 1289.98 0.329415 -6.78301 0
M  V30 13403 H 1287.92 2.46079 -6.08096 0
M  V30 13404 H 1287.84 1.37969 -7.43304 0
M  V30 13405 H 1289.11 2.56663 -7.36033 0
M  V30 13406 N 1293.34 1.5542 -0.261239 0
M  V30 13407 C 1294.28 2.21972 0.632216 0
M  V30 13408 C 1295.25 1.18843 1.16041 0
M  V30 13409 O 1296.44 1.47339 1.21226 0
M  V30 13410 C 1293.58 2.93397 1.81693 0
M  V30 13411 C 1292.69 4.11214 1.3239 0
M  V30 13412 C 1291.83 4.70318 2.46931 0
M  V30 13413 C 1290.87 5.80355 1.94561 0
M  V30 13414 N 1290 6.33581 3.02523 0
M  V30 13415 H 1294.84 2.97944 0.058018 0
M  V30 13416 H 1292.38 1.4709 0.0168725 0
M  V30 13417 H 1294.34 3.33015 2.5131 0
M  V30 13418 H 1292.97 2.19874 2.36337 0
M  V30 13419 H 1292.02 3.76811 0.521292 0
M  V30 13420 H 1293.33 4.90609 0.900214 0
M  V30 13421 H 1292.49 5.12584 3.24565 0
M  V30 13422 H 1291.23 3.90169 2.92608 0
M  V30 13423 H 1290.23 5.37552 1.15402 0
M  V30 13424 H 1291.46 6.62364 1.49836 0
M  V30 13425 H 1289.4 5.56332 3.47608 0
M  V30 13426 H 1289.32 7.08209 2.64529 0
M  V30 13427 H 1290.59 6.80506 3.80174 0
M  V30 13428 N 1294.82 -0.0116844 1.57596 0
M  V30 13429 C 1296.09 -0.735344 1.81251 0
M  V30 13430 C 1296.47 -1.92634 0.863446 0
M  V30 13431 O 1295.82 -2.28321 -0.0905028 0
M  V30 13432 C 1296.03 -1.15206 3.29437 0
M  V30 13433 C 1297.38 -1.56078 3.94873 0
M  V30 13434 O 1298.4 -1.24618 3.3369 0
M  V30 13435 O 1297.26 -2.14534 5.0263 0
M  V30 13436 H 1294.36 -0.357044 0.745955 0
M  V30 13437 H 1296.9 0.0128733 1.69695 0
M  V30 13438 H 1295.67 -0.302619 3.90128 0
M  V30 13439 H 1295.3 -1.95975 3.45947 0
M  V30 13440 N 1296.29 -1.55015 -0.284256 0
M  V30 13441 C 1297.54 -1.74744 -1.01532 0
M  V30 13442 C 1297.86 -0.545334 -1.87219 0
M  V30 13443 O 1297.13 0.440046 -1.90894 0
M  V30 13444 H 1295.71 -0.644382 -0.377864 0
M  V30 13445 H 1298.37 -1.92399 -0.311199 0
M  V30 13446 H 1297.47 -2.64369 -1.65878 0
M  V30 13447 N 1297.77 0.548248 -1.47757 0
M  V30 13448 C 1299 1.335 -1.58722 0
M  V30 13449 C 1299.42 1.86549 -0.241034 0
M  V30 13450 O 1298.78 1.63447 0.784517 0
M  V30 13451 C 1298.83 2.47457 -2.62293 0
M  V30 13452 O 1297.93 3.49956 -2.18185 0
M  V30 13453 H 1297.27 0.396166 -0.532868 0
M  V30 13454 H 1299.8 0.66164 -1.93607 0
M  V30 13455 H 1299.81 2.93901 -2.82995 0
M  V30 13456 H 1298.49 2.08203 -3.60034 0
M  V30 13457 H 1297.06 3.09755 -2.0762 0
M  V30 13458 N 1299.25 1.36039 0.795694 0
M  V30 13459 C 1300.5 1.29251 1.54845 0
M  V30 13460 C 1300.81 -0.127926 1.95181 0
M  V30 13461 O 1302.02 -0.318141 2.6963 0
M  V30 13462 C 1300.47 2.26736 2.79497 0
M  V30 13463 C 1300.08 3.74183 2.46355 0
M  V30 13464 C 1301.83 2.28913 3.5749 0
M  V30 13465 C 1299.73 4.63462 3.67365 0
M  V30 13466 H 1298.66 0.48027 0.581255 0
M  V30 13467 H 1301.31 1.61366 0.873693 0
M  V30 13468 H 1299.7 1.87608 3.4874 0
M  V30 13469 H 1300.87 4.22011 1.8505 0
M  V30 13470 H 1299.18 3.7472 1.81586 0
M  V30 13471 H 1301.78 2.92828 4.47388 0
M  V30 13472 H 1302.12 1.2959 3.95616 0
M  V30 13473 H 1302.66 2.66627 2.9522 0
M  V30 13474 H 1299.4 5.63824 3.34339 0
M  V30 13475 H 1298.92 4.20354 4.27858 0
M  V30 13476 H 1300.6 4.79424 4.34467 0
M  V30 13477 N 1300.73 -1.01913 1.20215 0
M  V30 13478 C 1301.68 -2.12516 0.945493 0
M  V30 13479 C 1302.67 -1.69091 -0.102243 0
M  V30 13480 O 1303.88 -1.79936 0.047888 0
M  V30 13481 H 1300.25 -0.694496 0.288409 0
M  V30 13482 H 1302.22 -2.31349 1.88468 0
M  V30 13483 C 1300.97 -3.43919 0.51137 0
M  V30 13484 H 1300.29 -3.77758 1.30916 0
M  V30 13485 H 1301.73 -4.22374 0.370981 0
M  V30 13486 C 1300.19 -3.27844 -0.775902 0
M  V30 13487 O 1300.72 -3.5734 -1.83496 0
M  V30 13488 N 1298.93 -2.81101 -0.73694 0
M  V30 13489 H 1298.48 -2.57296 0.125164 0
M  V30 13490 H 1298.43 -2.70726 -1.59859 0
M  V30 13491 N 1302.21 -1.00763 -1.2118 0
M  V30 13492 C 1303.43 -0.710746 -1.94309 0
M  V30 13493 C 1303.85 0.727103 -1.74237 0
M  V30 13494 O 1303.21 1.49223 -1.05065 0
M  V30 13495 C 1303.26 -1.02562 -3.46646 0
M  V30 13496 O 1302.98 -2.40699 -3.66054 0
M  V30 13497 C 1304.48 -0.748517 -4.36935 0
M  V30 13498 H 1301.7 -0.26171 -0.617858 0
M  V30 13499 H 1304.24 -1.34639 -1.53924 0
M  V30 13500 H 1302.4 -0.435537 -3.84944 0
M  V30 13501 H 1302.81 -2.51764 -4.60125 0
M  V30 13502 H 1304.29 -1.01899 -5.42513 0
M  V30 13503 H 1304.76 0.317423 -4.38051 0
M  V30 13504 H 1305.37 -1.32033 -4.04286 0
M  V30 13505 N 1303.68 1.3679 -0.7827 0
M  V30 13506 C 1304.91 2.04206 -0.362571 0
M  V30 13507 C 1305.33 1.58637 1.01074 0
M  V30 13508 O 1304.69 0.751692 1.64983 0
M  V30 13509 C 1304.74 3.58062 -0.4271 0
M  V30 13510 O 1303.84 4.08463 0.56845 0
M  V30 13511 H 1303.19 0.645638 -0.155073 0
M  V30 13512 H 1305.72 1.74883 -1.06194 0
M  V30 13513 H 1305.73 4.0698 -0.288298 0
M  V30 13514 H 1304.4 3.90582 -1.42893 0
M  V30 13515 H 1302.98 3.70835 0.391863 0
M  V30 13516 N 1305.16 0.53415 1.48272 0
M  V30 13517 C 1306.09 -0.263508 2.2768 0
M  V30 13518 C 1307.11 -0.90064 1.35618 0
M  V30 13519 O 1308.3 -0.778379 1.60635 0
M  V30 13520 C 1305.4 -1.38878 3.09138 0
M  V30 13521 C 1304.57 -0.852784 4.29006 0
M  V30 13522 C 1303.63 -1.85969 4.92242 0
M  V30 13523 O 1302.65 -1.41497 5.51332 0
M  V30 13524 N 1303.86 -3.19207 4.84858 0
M  V30 13525 H 1306.62 0.417548 2.96777 0
M  V30 13526 H 1304.18 0.368743 1.57645 0
M  V30 13527 H 1306.17 -2.06062 3.48311 0
M  V30 13528 H 1304.74 -1.97343 2.42434 0
M  V30 13529 H 1303.96 -0.0048227 3.942 0
M  V30 13530 H 1305.25 -0.473634 5.06591 0
M  V30 13531 H 1304.65 -3.58001 4.38009 0
M  V30 13532 H 1303.21 -3.82013 5.28119 0
M  V30 13533 N 1306.64 -1.55279 0.269478 0
M  V30 13534 C 1307.87 -2.04334 -0.355313 0
M  V30 13535 C 1308.29 -1.14677 -1.491 0
M  V30 13536 O 1307.65 -0.144215 -1.80726 0
M  V30 13537 C 1307.7 -3.51172 -0.819162 0
M  V30 13538 O 1306.8 -3.64615 -1.9269 0
M  V30 13539 H 1306.14 -0.659827 -0.0743229 0
M  V30 13540 H 1308.67 -2.00609 0.402131 0
M  V30 13541 H 1308.68 -3.92428 -1.11642 0
M  V30 13542 H 1307.36 -4.15898 0.0117821 0
M  V30 13543 H 1305.93 -3.35261 -1.63261 0
M  V30 13544 N 1308.12 0.00332656 -1.576 0
M  V30 13545 C 1309.05 1.02964 -2.03651 0
M  V30 13546 C 1310.03 1.33675 -0.925724 0
M  V30 13547 O 1311.21 1.45896 -1.19359 0
M  V30 13548 C 1308.34 2.35808 -2.4313 0
M  V30 13549 C 1307.39 2.20781 -3.64908 0
M  V30 13550 S 1308.22 1.53697 -5.12969 0
M  V30 13551 C 1309.38 2.87978 -5.55715 0
M  V30 13552 H 1309.61 0.637508 -2.90384 0
M  V30 13553 H 1307.14 0.214095 -1.52908 0
M  V30 13554 H 1309.1 3.12193 -2.66544 0
M  V30 13555 H 1307.76 2.72162 -1.56802 0
M  V30 13556 H 1306.95 3.1891 -3.90272 0
M  V30 13557 H 1306.56 1.5254 -3.41478 0
M  V30 13558 H 1308.85 3.84283 -5.57972 0
M  V30 13559 H 1309.79 2.67318 -6.55703 0
M  V30 13560 H 1310.2 2.91735 -4.83271 0
M  V30 13561 N 1309.6 1.55164 0.276031 0
M  V30 13562 C 1310.55 1.84223 1.34335 0
M  V30 13563 C 1311.53 0.700934 1.4483 0
M  V30 13564 O 1312.72 0.962204 1.48562 0
M  V30 13565 C 1309.85 2.11496 2.70415 0
M  V30 13566 C 1308.94 3.31877 2.64043 0
M  V30 13567 N 1309.33 4.51856 2.27289 0
M  V30 13568 C 1307.63 3.34406 2.95108 0
M  V30 13569 C 1308.33 5.33939 2.30833 0
M  V30 13570 N 1307.3 4.72271 2.69186 0
M  V30 13571 H 1311.11 2.74533 1.04922 0
M  V30 13572 H 1308.62 1.54999 0.484661 0
M  V30 13573 H 1310.62 2.3047 3.47404 0
M  V30 13574 H 1309.28 1.22468 3.00719 0
M  V30 13575 H 1310.29 4.78009 1.99318 0
M  V30 13576 H 1306.96 2.55561 3.30144 0
M  V30 13577 H 1308.35 6.39862 2.05004 0
M  V30 13578 N 1311.07 -0.540404 1.48045 0
M  V30 13579 C 1312.32 -1.2987 1.55762 0
M  V30 13580 C 1312.65 -1.92877 0.226307 0
M  V30 13581 O 1311.93 -1.7875 -0.766727 0
M  V30 13582 C 1312.21 -2.39602 2.68817 0
M  V30 13583 C 1312.06 -1.81354 4.1162 0
M  V30 13584 C 1313.38 -3.41434 2.77688 0
M  V30 13585 H 1310.5 -0.47083 0.566999 0
M  V30 13586 H 1313.14 -0.603081 1.80175 0
M  V30 13587 H 1311.29 -2.98936 2.48132 0
M  V30 13588 H 1312.97 -1.26151 4.43716 0
M  V30 13589 H 1311.21 -1.1194 4.19108 0
M  V30 13590 H 1311.88 -2.60758 4.86528 0
M  V30 13591 H 1314.36 -2.92042 2.96396 0
M  V30 13592 H 1313.23 -4.15621 3.5854 0
M  V30 13593 H 1313.49 -4.01336 1.85422 0
M  V30 13594 N 1312.55 -1.36459 -0.788468 0
M  V30 13595 C 1313.8 -1.30483 -1.54333 0
M  V30 13596 C 1314.12 0.115266 -1.94659 0
M  V30 13597 O 1313.39 1.05573 -1.65019 0
M  V30 13598 H 1311.97 -0.480004 -0.572368 0
M  V30 13599 H 1314.63 -1.70765 -0.939428 0
M  V30 13600 H 1313.73 -1.93284 -2.45046 0
M  V30 13601 N 1314.03 1.01274 -1.20754 0
M  V30 13602 C 1314.94 2.1335 -0.975656 0
M  V30 13603 C 1315.96 1.7386 0.0697364 0
M  V30 13604 O 1317.13 2.01051 -0.118578 0
M  V30 13605 C 1314.2 3.42548 -0.534931 0
M  V30 13606 C 1313.26 3.96257 -1.65163 0
M  V30 13607 C 1312.49 5.19289 -1.23184 0
M  V30 13608 O 1312.71 5.70309 -0.102158 0
M  V30 13609 O 1311.65 5.66248 -2.04076 0
M  V30 13610 H 1315.47 2.35783 -1.91415 0
M  V30 13611 H 1313.06 1.11736 -0.991743 0
M  V30 13612 H 1314.94 4.20341 -0.298568 0
M  V30 13613 H 1313.62 3.21521 0.374937 0
M  V30 13614 H 1312.52 3.19726 -1.94232 0
M  V30 13615 H 1313.86 4.2168 -2.53864 0
M  V30 13616 N 1315.51 1.01404 1.20644 0
M  V30 13617 C 1316.76 0.701909 1.89946 0
M  V30 13618 C 1317.08 -0.768212 1.78686 0
M  V30 13619 O 1316.34 -1.57348 1.16363 0
M  V30 13620 C 1316.64 1.07995 3.40693 0
M  V30 13621 C 1316.3 2.54585 3.72152 0
M  V30 13622 C 1314.97 2.94639 3.80449 0
M  V30 13623 C 1317.32 3.49497 3.86654 0
M  V30 13624 C 1314.65 4.2855 4.00702 0
M  V30 13625 C 1317 4.83093 4.08416 0
M  V30 13626 C 1315.66 5.22857 4.14942 0
M  V30 13627 H 1314.93 0.256847 0.695062 0
M  V30 13628 H 1317.58 1.27415 1.4296 0
M  V30 13629 H 1315.88 0.426089 3.89476 0
M  V30 13630 H 1317.58 0.816176 3.92606 0
M  V30 13631 H 1314.17 2.22548 3.66292 0
M  V30 13632 H 1318.36 3.19713 3.79602 0
M  V30 13633 H 1313.61 4.58916 4.03988 0
M  V30 13634 H 1317.79 5.56565 4.18579 0
M  V30 13635 H 1315.41 6.26634 4.30388 0
M  V30 13636 N 1316.99 -1.36373 0.789944 0
M  V30 13637 C 1317.94 -2.31928 0.17666 0
M  V30 13638 C 1318.93 -1.55831 -0.664316 0
M  V30 13639 O 1320.14 -1.71089 -0.559341 0
M  V30 13640 H 1316.51 -0.751021 0.038353 0
M  V30 13641 H 1318.48 -2.81216 0.998004 0
M  V30 13642 C 1317.23 -3.41112 -0.673646 0
M  V30 13643 H 1316.55 -3.99784 -0.0358875 0
M  V30 13644 H 1317.99 -4.10292 -1.06942 0
M  V30 13645 C 1316.45 -2.82728 -1.83211 0
M  V30 13646 O 1316.98 -2.74935 -2.92871 0
M  V30 13647 N 1315.19 -2.4001 -1.6384 0
M  V30 13648 H 1314.74 -2.46549 -0.746423 0
M  V30 13649 H 1314.69 -2.01294 -2.41512 0
M  V30 13650 N 1318.47 -0.542005 -1.47987 0
M  V30 13651 C 1319.4 0.25143 -2.27817 0
M  V30 13652 C 1320.41 0.893436 -1.36094 0
M  V30 13653 O 1321.6 0.769849 -1.61045 0
M  V30 13654 C 1318.7 1.37236 -3.0987 0
M  V30 13655 C 1317.87 0.830021 -4.29452 0
M  V30 13656 C 1316.93 1.83356 -4.93221 0
M  V30 13657 O 1315.96 1.38571 -5.52075 0
M  V30 13658 N 1317.16 3.16631 -4.86544 0
M  V30 13659 H 1319.92 -0.433281 -2.96551 0
M  V30 13660 H 1317.49 -0.377099 -1.57447 0
M  V30 13661 H 1319.48 2.04212 -3.49399 0
M  V30 13662 H 1318.05 1.96055 -2.43478 0
M  V30 13663 H 1317.27 -0.0160827 -3.94197 0
M  V30 13664 H 1318.56 0.446762 -5.06835 0
M  V30 13665 H 1317.95 3.55673 -4.39901 0
M  V30 13666 H 1316.51 3.79207 -5.30137 0
M  V30 13667 N 1319.94 1.55134 -0.277709 0
M  V30 13668 C 1320.89 2.2263 0.608637 0
M  V30 13669 C 1321.86 1.20067 1.14774 0
M  V30 13670 O 1323.05 1.48617 1.19657 0
M  V30 13671 C 1320.19 2.95308 1.78571 0
M  V30 13672 C 1319.3 4.12595 1.28021 0
M  V30 13673 C 1318.43 4.7291 2.41929 0
M  V30 13674 C 1317.47 5.82386 1.88395 0
M  V30 13675 N 1316.61 6.36754 2.95786 0
M  V30 13676 H 1321.45 2.97988 0.0264138 0
M  V30 13677 H 1318.99 1.471 0.00127068 0
M  V30 13678 H 1320.94 3.35662 2.47764 0
M  V30 13679 H 1319.57 2.22368 2.33992 0
M  V30 13680 H 1318.63 3.77343 0.481297 0
M  V30 13681 H 1319.94 4.91537 0.848128 0
M  V30 13682 H 1319.09 5.15997 3.1911 0
M  V30 13683 H 1317.83 3.93251 2.88453 0
M  V30 13684 H 1316.84 5.38746 1.09694 0
M  V30 13685 H 1318.06 6.63916 1.42803 0
M  V30 13686 H 1316.01 5.59987 3.41687 0
M  V30 13687 H 1315.92 7.10975 2.57002 0
M  V30 13688 H 1317.19 6.845 3.72935 0
M  V30 13689 N 1321.42 0.00503138 1.57599 0
M  V30 13690 C 1322.35 -0.983586 2.11773 0
M  V30 13691 C 1323.33 -1.35518 1.02805 0
M  V30 13692 O 1324.52 -1.43804 1.30514 0
M  V30 13693 C 1321.65 -2.27383 2.62515 0
M  V30 13694 C 1320.6 -2.0437 3.76054 0
M  V30 13695 C 1319.93 -3.39451 4.1313 0
M  V30 13696 C 1321.23 -1.40223 5.03125 0
M  V30 13697 H 1322.92 -0.532501 2.94627 0
M  V30 13698 H 1320.47 -0.254696 1.4173 0
M  V30 13699 H 1322.42 -2.96903 2.99043 0
M  V30 13700 H 1321.14 -2.74614 1.7679 0
M  V30 13701 H 1319.8 -1.37275 3.39928 0
M  V30 13702 H 1319.45 -3.84395 3.24422 0
M  V30 13703 H 1319.15 -3.24868 4.89627 0
M  V30 13704 H 1320.68 -4.10279 4.52221 0
M  V30 13705 H 1322.09 -1.99708 5.37392 0
M  V30 13706 H 1320.49 -1.36112 5.8446 0
M  V30 13707 H 1321.56 -0.372073 4.8347 0
M  V30 13708 N 1322.9 -1.55308 -0.267798 0
M  V30 13709 C 1324.15 -1.7642 -1.00019 0
M  V30 13710 C 1324.48 -0.566559 -1.85752 0
M  V30 13711 O 1323.75 0.435752 -1.89556 0
M  V30 13712 C 1324.04 -3.07229 -1.87836 0
M  V30 13713 C 1323.89 -4.37358 -1.05061 0
M  V30 13714 C 1325.21 -3.34113 -2.86455 0
M  V30 13715 H 1322.33 -0.641859 -0.362197 0
M  V30 13716 H 1324.97 -1.8804 -0.272188 0
M  V30 13717 H 1323.12 -2.97454 -2.49907 0
M  V30 13718 H 1324.79 -4.59098 -0.450208 0
M  V30 13719 H 1323.03 -4.32351 -0.354242 0
M  V30 13720 H 1323.71 -5.25223 -1.69838 0
M  V30 13721 H 1326.18 -3.43715 -2.34519 0
M  V30 13722 H 1325.06 -4.26896 -3.45038 0
M  V30 13723 H 1325.32 -2.54005 -3.61848 0
M  V30 13724 N 1324.38 0.532545 -1.4833 0
M  V30 13725 C 1325.29 1.66433 -1.65339 0
M  V30 13726 C 1326.3 1.65541 -0.535939 0
M  V30 13727 O 1327.48 1.84539 -0.806679 0
M  V30 13728 C 1324.54 3.02901 -1.68676 0
M  V30 13729 C 1323.61 3.14669 -2.92031 0
M  V30 13730 C 1322.84 4.44627 -2.95199 0
M  V30 13731 O 1323.06 5.31572 -2.06851 0
M  V30 13732 O 1322 4.60707 -3.87341 0
M  V30 13733 H 1325.82 1.5502 -2.61156 0
M  V30 13734 H 1323.41 0.705348 -1.31701 0
M  V30 13735 H 1325.29 3.84068 -1.73407 0
M  V30 13736 H 1323.96 3.14644 -0.760327 0
M  V30 13737 H 1322.87 2.32807 -2.92834 0
M  V30 13738 H 1324.2 3.07841 -3.8405 0
M  V30 13739 N 1325.86 1.36875 0.78122 0
M  V30 13740 C 1326.82 1.31706 1.8758 0
M  V30 13741 C 1327.82 0.223044 1.59246 0
M  V30 13742 O 1329.01 0.478327 1.67504 0
M  V30 13743 C 1326.14 1.0437 3.2453 0
M  V30 13744 H 1327.33 2.29059 1.93576 0
M  V30 13745 H 1324.89 1.21766 0.979931 0
M  V30 13746 H 1325.62 0.0750941 3.24213 0
M  V30 13747 H 1325.41 1.83548 3.46486 0
M  V30 13748 H 1326.9 1.0338 4.04602 0
M  V30 13749 N 1327.33 -1.00632 1.21289 0
M  V30 13750 C 1328.56 -1.78503 1.05601 0
M  V30 13751 C 1328.98 -1.84015 -0.389879 0
M  V30 13752 O 1328.34 -1.28277 -1.2812 0
M  V30 13753 C 1328.39 -3.20313 1.65626 0
M  V30 13754 O 1327.49 -4.02441 0.900841 0
M  V30 13755 H 1326.83 -0.550183 0.371746 0
M  V30 13756 H 1329.36 -1.26505 1.60803 0
M  V30 13757 H 1329.37 -3.70992 1.69792 0
M  V30 13758 H 1328.05 -3.15616 2.7085 0
M  V30 13759 H 1326.63 -3.61009 0.934178 0
M  V30 13760 N 1328.81 -1.02043 -1.20104 0
M  V30 13761 C 1330.04 -0.731315 -1.93544 0
M  V30 13762 C 1330.45 0.708582 -1.74999 0
M  V30 13763 O 1329.81 1.481 -1.06642 0
M  V30 13764 C 1329.86 -1.06233 -3.45538 0
M  V30 13765 O 1329.58 -2.44568 -3.63481 0
M  V30 13766 C 1331.08 -0.794818 -4.36116 0
M  V30 13767 H 1328.3 -0.268248 -0.615048 0
M  V30 13768 H 1330.85 -1.36264 -1.52488 0
M  V30 13769 H 1329 -0.476341 -3.8446 0
M  V30 13770 H 1329.42 -2.5663 -4.57429 0
M  V30 13771 H 1330.89 -1.07647 -5.41402 0
M  V30 13772 H 1331.37 0.270944 -4.38363 0
M  V30 13773 H 1331.97 -1.36314 -4.02863 0
M  V30 13774 N 1330.29 1.35952 -0.797165 0
M  V30 13775 C 1331.22 2.28649 -0.15877 0
M  V30 13776 C 1332.24 1.49842 0.636481 0
M  V30 13777 O 1333.42 1.72191 0.47039 0
M  V30 13778 C 1330.52 3.29373 0.797913 0
M  V30 13779 C 1329.7 4.3737 0.0510574 0
M  V30 13780 C 1328.76 5.18009 0.924826 0
M  V30 13781 O 1327.78 5.67935 0.379223 0
M  V30 13782 N 1328.98 5.352 2.24813 0
M  V30 13783 H 1331.75 2.84075 -0.955056 0
M  V30 13784 H 1329.31 1.48201 -0.651767 0
M  V30 13785 H 1331.3 3.80209 1.38646 0
M  V30 13786 H 1329.87 2.74531 1.49504 0
M  V30 13787 H 1329.09 3.87594 -0.718633 0
M  V30 13788 H 1330.38 5.0668 -0.464025 0
M  V30 13789 H 1329.78 4.96266 2.71545 0
M  V30 13790 H 1328.34 5.89252 2.78614 0
M  V30 13791 N 1331.77 0.549846 1.47697 0
M  V30 13792 C 1333.02 0.0230503 2.02487 0
M  V30 13793 C 1333.34 -1.32382 1.42497 0
M  V30 13794 O 1332.6 -1.87293 0.567441 0
M  V30 13795 C 1332.9 -0.127268 3.57173 0
M  V30 13796 C 1332.56 1.14777 4.36047 0
M  V30 13797 C 1331.23 1.49716 4.57317 0
M  V30 13798 C 1333.58 1.99302 4.81589 0
M  V30 13799 C 1330.91 2.69042 5.21376 0
M  V30 13800 C 1333.26 3.17824 5.46965 0
M  V30 13801 C 1331.92 3.53086 5.66469 0
M  V30 13802 H 1331.19 0.00843471 0.740952 0
M  V30 13803 H 1333.84 0.719876 1.77454 0
M  V30 13804 H 1332.14 -0.907008 3.81157 0
M  V30 13805 H 1333.84 -0.550103 3.97209 0
M  V30 13806 H 1330.43 0.865703 4.19766 0
M  V30 13807 H 1334.61 1.73618 4.64942 0
M  V30 13808 H 1329.87 2.9654 5.34672 0
M  V30 13809 H 1334.04 3.83612 5.81218 0
M  V30 13810 H 1331.67 4.45643 6.15878 0
M  V30 13811 N 1333.25 -1.54984 0.285932 0
M  V30 13812 C 1334.19 -2.2295 -0.596822 0
M  V30 13813 C 1335.16 -1.20674 -1.14136 0
M  V30 13814 O 1336.35 -1.49249 -1.18867 0
M  V30 13815 C 1333.49 -2.9625 -1.77002 0
M  V30 13816 C 1332.6 -4.13268 -1.25831 0
M  V30 13817 C 1331.74 -4.74187 -2.39417 0
M  V30 13818 C 1330.78 -5.83377 -1.85304 0
M  V30 13819 N 1329.91 -6.38313 -2.92405 0
M  V30 13820 H 1334.75 -2.97998 -0.0106104 0
M  V30 13821 H 1332.29 -1.47099 0.00653041 0
M  V30 13822 H 1334.25 -3.36971 -2.4598 0
M  V30 13823 H 1332.88 -2.23606 -2.3281 0
M  V30 13824 H 1331.93 -3.77593 -0.461278 0
M  V30 13825 H 1333.24 -4.91979 -0.822049 0
M  V30 13826 H 1332.4 -5.17683 -3.16369 0
M  V30 13827 H 1331.13 -3.94775 -2.86364 0
M  V30 13828 H 1330.14 -5.3932 -1.06835 0
M  V30 13829 H 1331.36 -6.64664 -1.3928 0
M  V30 13830 H 1329.31 -5.61791 -3.38713 0
M  V30 13831 H 1329.23 -7.12328 -2.53228 0
M  V30 13832 H 1330.5 -6.86468 -3.69299 0
M  V30 13833 N 1334.72 -0.0133892 -1.57594 0
M  V30 13834 C 1335.67 0.97367 -2.09257 0
M  V30 13835 C 1336.64 1.33298 -0.990998 0
M  V30 13836 O 1337.83 1.42903 -1.26425 0
M  V30 13837 C 1334.97 2.25603 -2.61147 0
M  V30 13838 C 1334.08 1.95456 -3.85254 0
M  V30 13839 C 1333.21 3.17871 -4.25596 0
M  V30 13840 C 1332.25 2.83471 -5.42504 0
M  V30 13841 N 1331.39 3.98464 -5.78075 0
M  V30 13842 H 1336.23 0.526189 -2.93318 0
M  V30 13843 H 1333.77 0.248148 -1.44992 0
M  V30 13844 H 1335.73 3.00587 -2.89315 0
M  V30 13845 H 1334.36 2.67995 -1.7994 0
M  V30 13846 H 1333.41 1.10781 -3.63912 0
M  V30 13847 H 1334.72 1.6611 -4.70328 0
M  V30 13848 H 1333.87 4.0119 -4.55117 0
M  V30 13849 H 1332.61 3.50365 -3.39257 0
M  V30 13850 H 1331.62 1.98562 -5.12692 0
M  V30 13851 H 1332.84 2.5221 -6.30529 0
M  V30 13852 H 1330.79 4.3083 -4.94694 0
M  V30 13853 H 1330.71 3.72688 -6.57753 0
M  V30 13854 H 1331.97 4.82532 -6.12195 0
M  V30 13855 N 1336.2 1.55448 0.259558 0
M  V30 13856 C 1337.15 1.89248 1.32113 0
M  V30 13857 C 1338.12 0.745348 1.48438 0
M  V30 13858 O 1339.3 0.997854 1.62627 0
M  V30 13859 C 1336.44 2.18161 2.67394 0
M  V30 13860 C 1335.56 3.45614 2.59182 0
M  V30 13861 C 1334.69 3.6416 3.86731 0
M  V30 13862 C 1333.73 4.85258 3.73084 0
M  V30 13863 N 1332.87 5.00391 4.92497 0
M  V30 13864 H 1337.71 2.79785 1.02589 0
M  V30 13865 H 1335.25 1.38509 0.495338 0
M  V30 13866 H 1337.2 2.32927 3.46122 0
M  V30 13867 H 1335.83 1.30843 2.95093 0
M  V30 13868 H 1334.89 3.39248 1.72091 0
M  V30 13869 H 1336.2 4.34483 2.45002 0
M  V30 13870 H 1335.35 3.78817 4.73902 0
M  V30 13871 H 1334.09 2.73501 4.03793 0
M  V30 13872 H 1333.1 4.70591 2.84296 0
M  V30 13873 H 1334.32 5.77365 3.57528 0
M  V30 13874 H 1332.27 4.12666 5.09944 0
M  V30 13875 H 1332.18 5.83328 4.809 0
M  V30 13876 H 1333.45 5.19446 5.81202 0
M  V30 13877 N 1337.68 -0.524672 1.4861 0
M  V30 13878 C 1338.61 -1.64481 1.59621 0
M  V30 13879 C 1339.63 -1.55557 0.480181 0
M  V30 13880 O 1340.81 -1.61921 0.751254 0
M  V30 13881 C 1337.91 -3.03158 1.51487 0
M  V30 13882 C 1337.09 -3.37509 2.78221 0
M  V30 13883 C 1336.15 -4.5549 2.63467 0
M  V30 13884 O 1335.17 -4.58448 3.37364 0
M  V30 13885 N 1336.37 -5.53986 1.73437 0
M  V30 13886 H 1339.14 -1.5547 2.56221 0
M  V30 13887 H 1336.7 -0.712059 1.45401 0
M  V30 13888 H 1338.69 -3.79969 1.39305 0
M  V30 13889 H 1337.26 -3.06219 0.628406 0
M  V30 13890 H 1336.48 -2.49824 3.04929 0
M  V30 13891 H 1337.77 -3.57246 3.62288 0
M  V30 13892 H 1337.17 -5.54378 1.12612 0
M  V30 13893 H 1335.73 -6.29993 1.6719 0
M  V30 13894 N 1339.16 -1.37287 -0.77395 0
M  V30 13895 C 1340.07 -1.35059 -1.91823 0
M  V30 13896 C 1341.08 -0.250489 -1.72188 0
M  V30 13897 O 1342.26 -0.485501 -1.95461 0
M  V30 13898 C 1339.33 -1.15444 -3.26915 0
M  V30 13899 C 1338.39 -2.35073 -3.5922 0
M  V30 13900 C 1337.62 -2.16384 -4.87867 0
M  V30 13901 O 1337.84 -1.14696 -5.58749 0
M  V30 13902 O 1336.78 -3.0452 -5.19183 0
M  V30 13903 H 1340.6 -2.31432 -1.96654 0
M  V30 13904 H 1338.19 -1.17994 -0.916392 0
M  V30 13905 H 1340.07 -1.06484 -4.07724 0
M  V30 13906 H 1338.74 -0.221435 -3.22942 0
M  V30 13907 H 1337.65 -2.49604 -2.78655 0
M  V30 13908 H 1338.98 -3.26933 -3.67934 0
M  V30 13909 N 1340.64 0.999871 -1.21821 0
M  V30 13910 C 1341.58 2.08864 -0.98206 0
M  V30 13911 C 1342.55 1.65835 0.0937677 0
M  V30 13912 O 1343.74 1.90722 -0.0544038 0
M  V30 13913 C 1340.88 3.40553 -0.558382 0
M  V30 13914 C 1339.99 3.96964 -1.70422 0
M  V30 13915 C 1339.13 5.16782 -1.2292 0
M  V30 13916 C 1338.17 5.65315 -2.34703 0
M  V30 13917 N 1337.3 6.76379 -1.88299 0
M  V30 13918 H 1342.14 2.28399 -1.9141 0
M  V30 13919 H 1339.68 1.11984 -0.953837 0
M  V30 13920 H 1341.64 4.16163 -0.293955 0
M  V30 13921 H 1340.27 3.2104 0.336656 0
M  V30 13922 H 1339.32 3.18291 -2.08315 0
M  V30 13923 H 1340.63 4.2897 -2.54531 0
M  V30 13924 H 1339.79 5.99657 -0.92174 0
M  V30 13925 H 1338.52 4.86383 -0.358222 0
M  V30 13926 H 1337.53 4.81033 -2.66246 0
M  V30 13927 H 1338.75 5.97742 -3.22306 0
M  V30 13928 H 1336.7 6.47775 -1.03552 0
M  V30 13929 H 1336.62 7.07666 -2.65978 0
M  V30 13930 H 1337.89 7.62776 -1.60601 0
M  V30 13931 N 1342.11 1.02678 1.19562 0
M  V30 13932 C 1343.36 0.72059 1.88817 0
M  V30 13933 C 1343.68 -0.752942 1.79877 0
M  V30 13934 O 1342.95 -1.54233 1.20785 0
M  V30 13935 H 1341.53 0.26355 0.698964 0
M  V30 13936 H 1344.2 1.30056 1.4516 0
M  V30 13937 H 1343.29 1.01303 2.95202 0
M  V30 13938 N 1343.59 -1.35528 0.804364 0
M  V30 13939 C 1344.82 -2.03073 0.396091 0
M  V30 13940 C 1345.24 -1.60623 -0.992252 0
M  V30 13941 O 1344.59 -0.802718 -1.63898 0
M  V30 13942 C 1344.64 -3.58467 0.467301 0
M  V30 13943 O 1344.36 -3.99373 1.80091 0
M  V30 13944 C 1345.87 -4.4327 0.0515549 0
M  V30 13945 H 1343.09 -0.651346 0.161212 0
M  V30 13946 H 1345.63 -1.73195 1.08737 0
M  V30 13947 H 1343.78 -3.87001 -0.175703 0
M  V30 13948 H 1344.2 -4.94013 1.76214 0
M  V30 13949 H 1345.67 -5.51789 0.152499 0
M  V30 13950 H 1346.15 -4.27597 -1.00286 0
M  V30 13951 H 1346.76 -4.20027 0.667628 0
M  V30 13952 N 1345.07 -0.557671 -1.47404 0
M  V30 13953 C 1346.32 -0.0316382 -2.01675 0
M  V30 13954 C 1346.63 1.32656 -1.43742 0
M  V30 13955 O 1347.84 1.94253 -1.89678 0
M  V30 13956 C 1346.3 -0.00606931 -3.59899 0
M  V30 13957 C 1345.9 -1.36106 -4.26825 0
M  V30 13958 C 1347.65 0.467332 -4.2192 0
M  V30 13959 C 1345.55 -1.29457 -5.77057 0
M  V30 13960 H 1344.48 -0.00805738 -0.753957 0
M  V30 13961 H 1347.14 -0.705592 -1.69392 0
M  V30 13962 H 1345.52 0.733541 -3.89147 0
M  V30 13963 H 1346.69 -2.11842 -4.09218 0
M  V30 13964 H 1345.01 -1.77243 -3.76794 0
M  V30 13965 H 1347.6 0.535478 -5.32012 0
M  V30 13966 H 1347.95 1.47942 -3.89126 0
M  V30 13967 H 1348.48 -0.217434 -3.97205 0
M  V30 13968 H 1345.22 -2.28267 -6.14471 0
M  V30 13969 H 1344.74 -0.579022 -5.96999 0
M  V30 13970 H 1346.42 -0.996834 -6.39275 0
M  V30 13971 N 1346.55 1.54831 -0.294147 0
M  V30 13972 C 1347.83 1.92071 0.369902 0
M  V30 13973 C 1348.21 1.22061 1.72233 0
M  V30 13974 O 1347.55 0.353975 2.25742 0
M  V30 13975 C 1347.76 3.45524 0.49135 0
M  V30 13976 C 1349.11 4.17644 0.765411 0
M  V30 13977 O 1350.14 3.51521 0.575428 0
M  V30 13978 O 1349 5.34692 1.12992 0
M  V30 13979 H 1346.09 0.801033 0.20561 0
M  V30 13980 H 1348.64 1.66224 -0.341702 0
M  V30 13981 H 1347.41 3.88591 -0.459663 0
M  V30 13982 H 1347.03 3.77384 1.25169 0
M  V30 13983 N 1348.03 0.0217466 1.57585 0
M  V30 13984 C 1349.27 -0.659463 1.91778 0
M  V30 13985 C 1349.61 -1.72201 0.897801 0
M  V30 13986 O 1348.88 -1.94333 -0.080509 0
M  V30 13987 C 1349.16 -1.28269 3.36481 0
M  V30 13988 C 1349.02 -0.230201 4.49211 0
M  V30 13989 C 1350.34 -2.20279 3.81005 0
M  V30 13990 H 1347.46 -0.238263 0.697424 0
M  V30 13991 H 1350.1 0.0774967 1.89842 0
M  V30 13992 H 1348.25 -1.9108 3.38262 0
M  V30 13993 H 1349.92 0.399901 4.59563 0
M  V30 13994 H 1348.16 0.445157 4.3151 0
M  V30 13995 H 1348.83 -0.705732 5.4747 0
M  V30 13996 H 1351.31 -1.67463 3.80914 0
M  V30 13997 H 1350.19 -2.60842 4.82962 0
M  V30 13998 H 1350.45 -3.09092 3.16093 0
M  V30 13999 N 1349.51 -1.55583 -0.251311 0
M  V30 14000 C 1350.75 -1.78389 -0.977194 0
M  V30 14001 C 1351.11 -0.589958 -1.83132 0
M  V30 14002 O 1350.4 0.416909 -1.87009 0
M  V30 14003 C 1350.59 -3.04291 -1.87461 0
M  V30 14004 C 1350.42 -4.35815 -1.10885 0
M  V30 14005 C 1349.19 -4.98672 -0.815731 0
M  V30 14006 C 1351.39 -5.11974 -0.488591 0
M  V30 14007 N 1349.37 -6.13895 -0.0254438 0
M  V30 14008 C 1350.74 -6.19776 0.166483 0
M  V30 14009 C 1352.8 -4.96302 -0.398613 0
M  V30 14010 C 1351.5 -7.13611 0.90289 0
M  V30 14011 C 1353.53 -5.9051 0.324252 0
M  V30 14012 C 1352.89 -6.97717 0.96798 0
M  V30 14013 H 1348.99 -0.70478 -0.338836 0
M  V30 14014 H 1351.57 -1.93079 -0.250746 0
M  V30 14015 H 1349.74 -2.90937 -2.57313 0
M  V30 14016 H 1351.48 -3.15409 -2.53573 0
M  V30 14017 H 1348.23 -4.60009 -1.12642 0
M  V30 14018 H 1348.65 -6.76055 0.357664 0
M  V30 14019 H 1353.3 -4.13499 -0.881967 0
M  V30 14020 H 1351.01 -7.95918 1.39786 0
M  V30 14021 H 1354.6 -5.80461 0.39448 0
M  V30 14022 H 1353.48 -7.6936 1.5184 0
M  V30 14023 N 1350.98 0.516783 -1.48886 0
M  V30 14024 C 1352.23 1.27118 -1.58785 0
M  V30 14025 C 1352.58 1.90579 -0.264114 0
M  V30 14026 O 1351.88 1.76972 0.734271 0
M  V30 14027 C 1352.07 2.37296 -2.67256 0
M  V30 14028 C 1351.9 1.84637 -4.10048 0
M  V30 14029 C 1350.67 1.66646 -4.77029 0
M  V30 14030 C 1352.87 1.36728 -4.95792 0
M  V30 14031 N 1350.85 1.08751 -6.04191 0
M  V30 14032 C 1352.22 0.908663 -6.13305 0
M  V30 14033 C 1354.28 1.25154 -4.81914 0
M  V30 14034 C 1352.98 0.345766 -7.18468 0
M  V30 14035 C 1355.01 0.702625 -5.87211 0
M  V30 14036 C 1354.37 0.254151 -7.03941 0
M  V30 14037 H 1350.47 0.455698 -0.635503 0
M  V30 14038 H 1353.05 0.581119 -1.85825 0
M  V30 14039 H 1351.22 3.03782 -2.42014 0
M  V30 14040 H 1352.95 3.04334 -2.66764 0
M  V30 14041 H 1349.71 1.90556 -4.33573 0
M  V30 14042 H 1350.13 0.817766 -6.72043 0
M  V30 14043 H 1354.77 1.58429 -3.91995 0
M  V30 14044 H 1352.49 0.000713578 -8.081 0
M  V30 14045 H 1356.08 0.616065 -5.78529 0
M  V30 14046 H 1354.96 -0.163978 -7.84029 0
M  V30 14047 N 1352.46 1.37696 0.766659 0
M  V30 14048 C 1353.39 1.36576 1.89392 0
M  V30 14049 C 1354.37 0.233597 1.68488 0
M  V30 14050 O 1355.56 0.434719 1.89272 0
M  V30 14051 C 1352.69 1.17705 3.26746 0
M  V30 14052 C 1351.64 2.27987 3.62224 0
M  V30 14053 C 1350.97 1.94235 4.98174 0
M  V30 14054 C 1352.27 3.70195 3.68447 0
M  V30 14055 H 1353.96 2.30905 1.90587 0
M  V30 14056 H 1351.51 1.11148 0.915538 0
M  V30 14057 H 1353.46 1.15551 4.05248 0
M  V30 14058 H 1352.18 0.198334 3.25997 0
M  V30 14059 H 1350.84 2.29306 2.86032 0
M  V30 14060 H 1350.49 0.948796 4.93971 0
M  V30 14061 H 1350.19 2.68086 5.2288 0
M  V30 14062 H 1351.72 1.93676 5.7907 0
M  V30 14063 H 1353.13 3.70978 4.37091 0
M  V30 14064 H 1351.53 4.43142 4.04654 0
M  V30 14065 H 1352.6 4.03453 2.68986 0
M  V30 14066 N 1353.94 -0.993397 1.22349 0
M  V30 14067 C 1355.19 -1.73287 1.04775 0
M  V30 14068 C 1355.51 -1.89973 -0.417201 0
M  V30 14069 O 1354.77 -1.43966 -1.32561 0
M  V30 14070 C 1355.07 -3.14191 1.70349 0
M  V30 14071 C 1354.73 -3.17421 3.20241 0
M  V30 14072 C 1353.4 -3.1801 3.61141 0
M  V30 14073 C 1355.75 -3.13751 4.16185 0
M  V30 14074 C 1353.08 -3.12628 4.96468 0
M  V30 14075 C 1355.43 -3.09911 5.51487 0
M  V30 14076 C 1354.09 -3.08815 5.91768 0
M  V30 14077 H 1353.36 -0.634102 0.3834 0
M  V30 14078 H 1356.01 -1.16346 1.52105 0
M  V30 14079 H 1354.31 -3.74437 1.15343 0
M  V30 14080 H 1356.01 -3.70149 1.54242 0
M  V30 14081 H 1352.6 -3.17713 2.87674 0
M  V30 14082 H 1356.79 -3.12446 3.85605 0
M  V30 14083 H 1352.04 -3.10125 5.26909 0
M  V30 14084 H 1356.22 -3.06026 6.25556 0
M  V30 14085 H 1353.84 -3.044 6.96595 0
M  V30 14086 N 1355.42 -1.03311 -1.19015 0
M  V30 14087 C 1356.69 -0.646539 -1.84606 0
M  V30 14088 C 1357.07 0.87449 -1.92135 0
M  V30 14089 O 1356.42 1.77291 -1.44154 0
M  V30 14090 C 1356.63 -1.31354 -3.23338 0
M  V30 14091 C 1357.98 -1.43949 -3.99455 0
M  V30 14092 O 1359 -1.27104 -3.32751 0
M  V30 14093 O 1357.86 -1.71328 -5.1895 0
M  V30 14094 H 1354.96 -0.225267 -0.795728 0
M  V30 14095 H 1357.5 -1.13152 -1.2647 0
M  V30 14096 H 1356.28 -2.3521 -3.12717 0
M  V30 14097 H 1355.9 -0.816688 -3.89122 0
M  V30 14098 N 1356.9 1.35099 -0.81154 0
M  V30 14099 C 1358.17 1.93009 -0.317289 0
M  V30 14100 C 1358.55 1.74101 1.19382 0
M  V30 14101 O 1357.9 1.11295 1.99564 0
M  V30 14102 C 1358.11 3.41191 -0.734123 0
M  V30 14103 C 1359.46 4.1834 -0.726437 0
M  V30 14104 O 1360.48 3.49727 -0.67598 0
M  V30 14105 O 1359.34 5.4077 -0.789291 0
M  V30 14106 H 1356.44 0.822707 -0.084153 0
M  V30 14107 H 1358.98 1.44145 -0.895569 0
M  V30 14108 H 1357.75 3.48705 -1.7754 0
M  V30 14109 H 1357.38 3.97384 -0.130919 0
M  V30 14110 N 1358.37 0.56548 1.47106 0
M  V30 14111 C 1359.62 0.0444375 2.02051 0
M  V30 14112 C 1359.94 -1.31344 1.44131 0
M  V30 14113 O 1359.21 -1.85845 0.619556 0
M  V30 14114 H 1357.79 0.0134375 0.746879 0
M  V30 14115 H 1360.45 0.737362 1.80413 0
M  V30 14116 H 1359.55 -0.0374834 3.12077 0
M  V30 14117 N 1359.85 -1.54672 0.302354 0
M  V30 14118 C 1361.1 -1.99771 -0.305919 0
M  V30 14119 C 1361.42 -1.19225 -1.54306 0
M  V30 14120 O 1360.69 -0.288569 -1.93763 0
M  V30 14121 H 1359.27 -0.737934 -0.116026 0
M  V30 14122 H 1361.93 -1.90452 0.413997 0
M  V30 14123 H 1361.03 -3.06719 -0.577024 0
M  V30 14124 N 1361.33 -0.0301034 -1.57571 0
M  V30 14125 C 1362.26 0.94977 -2.13311 0
M  V30 14126 C 1363.24 1.33865 -1.04948 0
M  V30 14127 O 1364.43 1.4171 -1.32786 0
M  V30 14128 C 1361.56 2.23178 -2.66099 0
M  V30 14129 C 1360.51 1.98362 -3.79258 0
M  V30 14130 C 1359.84 3.32836 -4.18479 0
M  V30 14131 C 1361.14 1.32201 -5.05292 0
M  V30 14132 H 1362.83 0.485562 -2.95436 0
M  V30 14133 H 1360.38 0.232116 -1.42117 0
M  V30 14134 H 1362.33 2.92108 -3.03728 0
M  V30 14135 H 1361.05 2.71766 -1.81137 0
M  V30 14136 H 1359.71 1.31849 -3.42069 0
M  V30 14137 H 1359.36 3.79185 -3.30496 0
M  V30 14138 H 1359.06 3.17037 -4.94733 0
M  V30 14139 H 1360.58 4.03032 -4.58691 0
M  V30 14140 H 1362 1.91133 -5.40501 0
M  V30 14141 H 1360.4 1.26797 -5.86551 0
M  V30 14142 H 1361.47 0.29511 -4.84001 0
M  V30 14143 N 1362.81 1.55714 0.243056 0
M  V30 14144 C 1364.04 1.81786 0.98801 0
M  V30 14145 C 1364.45 0.606352 1.78798 0
M  V30 14146 O 1363.81 -0.425018 1.77482 0
M  V30 14147 C 1363.86 3.06121 1.92281 0
M  V30 14148 O 1363.58 4.22595 1.15521 0
M  V30 14149 C 1365.08 3.45021 2.78344 0
M  V30 14150 H 1362.3 0.604829 0.290557 0
M  V30 14151 H 1364.85 2.02779 0.26478 0
M  V30 14152 H 1363 2.87167 2.60027 0
M  V30 14153 H 1363.41 4.93088 1.78786 0
M  V30 14154 H 1364.89 4.35112 3.39678 0
M  V30 14155 H 1365.37 2.65782 3.49652 0
M  V30 14156 H 1365.97 3.66339 2.16045 0
M  V30 14157 N 1364.29 -0.50888 1.49158 0
M  V30 14158 C 1365.22 -1.62008 1.68154 0
M  V30 14159 C 1366.2 -1.61624 0.53025 0
M  V30 14160 O 1367.38 -1.78489 0.765205 0
M  V30 14161 C 1364.51 -3.00525 1.74075 0
M  V30 14162 C 1363.47 -3.15773 2.88915 0
M  V30 14163 C 1362.79 -4.55562 2.79942 0
M  V30 14164 C 1364.09 -2.96542 4.29953 0
M  V30 14165 H 1365.79 -1.46365 2.61185 0
M  V30 14166 H 1363.33 -0.702705 1.2569 0
M  V30 14167 H 1365.29 -3.78154 1.8595 0
M  V30 14168 H 1364.01 -3.17238 0.776373 0
M  V30 14169 H 1362.67 -2.40567 2.76628 0
M  V30 14170 H 1362.32 -4.6914 1.81429 0
M  V30 14171 H 1362.02 -4.66706 3.57015 0
M  V30 14172 H 1363.54 -5.35262 2.93814 0
M  V30 14173 H 1364.95 -3.63947 4.42963 0
M  V30 14174 H 1363.35 -3.19164 5.08187 0
M  V30 14175 H 1364.42 -1.92745 4.44946 0
M  V30 14176 N 1365.76 -1.381 -0.759346 0
M  V30 14177 C 1366.69 -1.37578 -1.88665 0
M  V30 14178 C 1367.68 -0.242529 -1.68362 0
M  V30 14179 O 1368.86 -0.444751 -1.89039 0
M  V30 14180 C 1365.99 -1.19437 -3.26117 0
M  V30 14181 C 1364.94 -2.29905 -3.61009 0
M  V30 14182 C 1364.27 -1.96874 -4.97136 0
M  V30 14183 C 1365.57 -3.72143 -3.66479 0
M  V30 14184 H 1367.26 -2.31912 -1.89359 0
M  V30 14185 H 1364.81 -1.11632 -0.909631 0
M  V30 14186 H 1366.76 -1.17698 -4.0463 0
M  V30 14187 H 1365.49 -0.21562 -3.25887 0
M  V30 14188 H 1364.15 -2.3082 -2.84812 0
M  V30 14189 H 1363.79 -0.974979 -4.9346 0
M  V30 14190 H 1363.49 -2.70855 -5.21451 0
M  V30 14191 H 1365.02 -1.96744 -5.78035 0
M  V30 14192 H 1366.43 -3.73291 -4.35117 0
M  V30 14193 H 1364.83 -4.45282 -4.02299 0
M  V30 14194 H 1365.9 -4.04874 -2.66843 0
M  V30 14195 N 1367.24 0.986894 -1.22875 0
M  V30 14196 C 1368.49 1.72152 -1.05103 0
M  V30 14197 C 1368.8 1.91185 0.413248 0
M  V30 14198 O 1370.01 2.62031 0.710759 0
M  V30 14199 C 1368.47 3.09771 -1.8322 0
M  V30 14200 C 1368.07 2.98648 -3.33936 0
M  V30 14201 C 1369.82 3.87238 -1.73917 0
M  V30 14202 C 1367.73 4.31459 -4.04471 0
M  V30 14203 H 1366.66 0.645498 -0.389677 0
M  V30 14204 H 1369.31 1.10125 -1.46781 0
M  V30 14205 H 1367.69 3.72515 -1.34345 0
M  V30 14206 H 1368.86 2.45033 -3.9025 0
M  V30 14207 H 1367.18 2.34661 -3.43982 0
M  V30 14208 H 1369.77 4.85549 -2.23933 0
M  V30 14209 H 1370.12 4.1036 -0.700711 0
M  V30 14210 H 1370.65 3.31183 -2.20369 0
M  V30 14211 H 1367.39 4.13534 -5.08596 0
M  V30 14212 H 1366.91 4.84964 -3.52944 0
M  V30 14213 H 1368.59 5.00179 -4.10403 0
M  V30 14214 N 1368.72 1.0394 1.18466 0
M  V30 14215 C 1370.13 0.77011 1.70077 0
M  V30 14216 C 1370.48 -0.70916 1.82935 0
M  V30 14217 O 1369.61 -1.55209 1.50795 0
M  V30 14218 C 1370.2 1.39132 3.08914 0
M  V30 14219 C 1368.76 1.17037 3.57742 0
M  V30 14220 C 1367.91 1.48279 2.34326 0
M  V30 14221 H 1370.86 1.20598 1.03159 0
M  V30 14222 H 1370.88 0.793861 3.72126 0
M  V30 14223 H 1370.39 2.46795 2.99523 0
M  V30 14224 H 1368.49 0.112435 3.7243 0
M  V30 14225 H 1368.61 1.8665 4.41247 0
M  V30 14226 H 1366.97 0.902438 2.38177 0
M  V30 14227 H 1367.75 2.57047 2.27556 0
M  V30 14228 N 1370.2 -1.34667 0.818693 0
M  V30 14229 C 1371.43 -2.02348 0.417002 0
M  V30 14230 C 1371.84 -1.61813 -0.980464 0
M  V30 14231 O 1371.18 -0.817232 -1.64521 0
M  V30 14232 C 1371.24 -3.56861 0.434779 0
M  V30 14233 C 1370.91 -4.20704 1.78485 0
M  V30 14234 C 1371.9 -4.41524 2.74504 0
M  V30 14235 C 1369.59 -4.57566 2.07217 0
M  V30 14236 C 1371.58 -4.98324 3.97431 0
M  V30 14237 C 1369.27 -5.14078 3.30405 0
M  V30 14238 C 1370.27 -5.344 4.2533 0
M  V30 14239 O 1369.95 -5.89717 5.46342 0
M  V30 14240 H 1369.69 -0.655279 0.16609 0
M  V30 14241 H 1372.24 -1.73011 1.10708 0
M  V30 14242 H 1370.47 -3.8544 -0.311973 0
M  V30 14243 H 1372.16 -4.05864 0.0537258 0
M  V30 14244 H 1372.93 -4.13414 2.53601 0
M  V30 14245 H 1368.8 -4.41054 1.34135 0
M  V30 14246 H 1372.35 -5.14102 4.71534 0
M  V30 14247 H 1368.25 -5.41616 3.51174 0
M  V30 14248 H 1369.01 -6.08155 5.47804 0
M  V30 14249 N 1371.68 -0.573274 -1.46804 0
M  V30 14250 C 1372.93 -0.0530267 -2.0163 0
M  V30 14251 C 1373.24 1.31124 -1.45141 0
M  V30 14252 O 1374.44 1.92231 -1.91728 0
M  V30 14253 C 1372.9 -0.0442411 -3.59873 0
M  V30 14254 C 1372.51 -1.40625 -4.25357 0
M  V30 14255 C 1374.25 0.422556 -4.22392 0
M  V30 14256 C 1372.16 -1.3557 -5.75652 0
M  V30 14257 H 1371.09 -0.0160537 -0.753829 0
M  V30 14258 H 1373.74 -0.723518 -1.68634 0
M  V30 14259 H 1372.12 0.692225 -3.89903 0
M  V30 14260 H 1373.3 -2.1617 -4.06949 0
M  V30 14261 H 1371.61 -1.81229 -3.74893 0
M  V30 14262 H 1374.21 0.479021 -5.3255 0
M  V30 14263 H 1374.55 1.43806 -3.90673 0
M  V30 14264 H 1375.08 -0.259551 -3.96952 0
M  V30 14265 H 1371.82 -2.34772 -6.12015 0
M  V30 14266 H 1371.34 -0.642309 -5.96351 0
M  V30 14267 H 1373.02 -1.06458 -6.38182 0
M  V30 14268 N 1373.15 1.5451 -0.310553 0
M  V30 14269 C 1374.08 2.26827 0.554243 0
M  V30 14270 C 1375.07 1.27133 1.13009 0
M  V30 14271 O 1376.25 1.55923 1.15765 0
M  V30 14272 C 1373.38 3.01626 1.7216 0
M  V30 14273 C 1372.33 4.08547 1.27566 0
M  V30 14274 C 1371.66 4.71115 2.52893 0
M  V30 14275 C 1372.96 5.20766 0.399955 0
M  V30 14276 H 1374.65 2.9936 -0.0489475 0
M  V30 14277 H 1372.2 1.43978 -0.0249817 0
M  V30 14278 H 1374.15 3.50942 2.33276 0
M  V30 14279 H 1372.88 2.26688 2.35118 0
M  V30 14280 H 1371.54 3.60096 0.687499 0
M  V30 14281 H 1371.18 3.92805 3.14186 0
M  V30 14282 H 1370.88 5.43331 2.23752 0
M  V30 14283 H 1372.41 5.23198 3.14796 0
M  V30 14284 H 1373.82 5.65918 0.917054 0
M  V30 14285 H 1372.22 5.9976 0.2019 0
M  V30 14286 H 1373.29 4.81508 -0.572537 0
M  V30 14287 N 1374.63 0.0384594 1.57553 0
M  V30 14288 C 1375.86 -0.648077 1.96488 0
M  V30 14289 C 1376.28 -1.65123 0.915414 0
M  V30 14290 O 1375.63 -1.82216 -0.101779 0
M  V30 14291 C 1375.68 -1.34623 3.35498 0
M  V30 14292 O 1375.41 -0.383261 4.3642 0
M  V30 14293 C 1376.91 -2.12372 3.89119 0
M  V30 14294 H 1374.13 -0.178068 0.646941 0
M  V30 14295 H 1376.67 0.100993 2.0425 0
M  V30 14296 H 1374.83 -2.04663 3.28926 0
M  V30 14297 H 1375.24 -0.880095 5.17063 0
M  V30 14298 H 1376.71 -2.5666 4.88702 0
M  V30 14299 H 1377.19 -2.96664 3.23863 0
M  V30 14300 H 1377.8 -1.4727 3.98988 0
M  V30 14301 N 1376.11 -1.55841 -0.234795 0
M  V30 14302 C 1377.04 -1.94344 -1.29432 0
M  V30 14303 C 1378.02 -0.809912 -1.49581 0
M  V30 14304 O 1379.21 -1.07117 -1.61986 0
M  V30 14305 C 1376.34 -2.24866 -2.64675 0
M  V30 14306 C 1375.29 -3.40584 -2.59203 0
M  V30 14307 C 1374.62 -3.56678 -3.98353 0
M  V30 14308 C 1375.92 -4.75935 -2.15135 0
M  V30 14309 H 1377.61 -2.83096 -0.97454 0
M  V30 14310 H 1375.16 -1.36205 -0.467355 0
M  V30 14311 H 1377.11 -2.50392 -3.38942 0
M  V30 14312 H 1375.83 -1.32953 -2.98314 0
M  V30 14313 H 1374.49 -3.15087 -1.87393 0
M  V30 14314 H 1374.14 -2.62164 -4.29277 0
M  V30 14315 H 1373.84 -4.34503 -3.95577 0
M  V30 14316 H 1375.37 -3.84538 -4.74302 0
M  V30 14317 H 1376.78 -5.00753 -2.7914 0
M  V30 14318 H 1375.18 -5.56949 -2.23446 0
M  V30 14319 H 1376.25 -4.72182 -1.10328 0
M  V30 14320 N 1377.59 0.500963 -1.49426 0
M  V30 14321 C 1379.01 0.832142 -1.36189 0
M  V30 14322 C 1379.21 1.9759 -0.395014 0
M  V30 14323 O 1378.26 2.51905 0.173294 0
M  V30 14324 C 1379.57 1.17232 -2.76907 0
M  V30 14325 C 1381.12 1.28052 -2.85607 0
M  V30 14326 C 1381.6 1.65399 -4.27092 0
M  V30 14327 N 1383.09 1.72448 -4.29902 0
M  V30 14328 C 1383.82 2.02789 -5.36343 0
M  V30 14329 N 1383.32 2.31354 -6.53029 0
M  V30 14330 N 1385.11 2.0404 -5.23759 0
M  V30 14331 H 1377.26 -0.253253 -2.10885 0
M  V30 14332 H 1379.53 -0.0507111 -0.946643 0
M  V30 14333 H 1379.23 0.405247 -3.49357 0
M  V30 14334 H 1379.11 2.11574 -3.12276 0
M  V30 14335 H 1381.49 2.03831 -2.13394 0
M  V30 14336 H 1381.57 0.317603 -2.53821 0
M  V30 14337 H 1381.22 0.901704 -4.99832 0
M  V30 14338 H 1381.15 2.6279 -4.56343 0
M  V30 14339 H 1383.64 1.52532 -3.45749 0
M  V30 14340 H 1383.95 2.53695 -7.29972 0
M  V30 14341 H 1382.3 2.28811 -6.56255 0
M  V30 14342 H 1385.49 1.812 -4.31606 0
M  V30 14343 H 1385.66 2.27353 -6.06807 0
M  V30 14344 N 1379.07 1.38501 0.752011 0
M  V30 14345 C 1380.01 1.35857 1.86578 0
M  V30 14346 C 1380.98 0.220873 1.64625 0
M  V30 14347 O 1382.17 0.413348 1.86269 0
M  V30 14348 C 1379.31 1.19102 3.23896 0
M  V30 14349 C 1378.42 2.42272 3.5767 0
M  V30 14350 C 1377.56 2.18236 4.843 0
M  V30 14351 C 1376.6 3.37169 5.10865 0
M  V30 14352 N 1375.73 3.12558 6.28691 0
M  V30 14353 H 1380.57 2.31073 1.88173 0
M  V30 14354 H 1378.11 1.14803 0.919712 0
M  V30 14355 H 1380.07 1.07404 4.03138 0
M  V30 14356 H 1378.7 0.275243 3.21624 0
M  V30 14357 H 1377.75 2.64638 2.7326 0
M  V30 14358 H 1379.06 3.3091 3.73229 0
M  V30 14359 H 1378.22 2.03682 5.71488 0
M  V30 14360 H 1376.96 1.26966 4.70883 0
M  V30 14361 H 1375.96 3.52241 4.22145 0
M  V30 14362 H 1377.19 4.29317 5.26178 0
M  V30 14363 H 1375.13 2.23937 6.16594 0
M  V30 14364 H 1375.05 3.94746 6.44757 0
M  V30 14365 H 1376.32 3.01663 7.18763 0
M  V30 14366 N 1380.55 -0.980364 1.23396 0
M  V30 14367 C 1381.49 -2.07275 1.01516 0
M  V30 14368 C 1382.46 -1.65963 -0.0673729 0
M  V30 14369 O 1383.65 -1.90612 0.0847392 0
M  V30 14370 C 1380.79 -3.39621 0.61249 0
M  V30 14371 C 1379.9 -3.94203 1.76715 0
M  V30 14372 C 1379.04 -5.14761 1.31126 0
M  V30 14373 C 1378.07 -5.61509 2.43667 0
M  V30 14374 N 1377.21 -6.73297 1.99035 0
M  V30 14375 H 1382.05 -2.25325 1.9502 0
M  V30 14376 H 1379.59 -1.10452 0.971532 0
M  V30 14377 H 1381.55 -4.15643 0.360126 0
M  V30 14378 H 1380.18 -3.21535 -0.285539 0
M  V30 14379 H 1379.23 -3.14937 2.13352 0
M  V30 14380 H 1380.54 -4.24867 2.61323 0
M  V30 14381 H 1379.69 -5.98115 1.01702 0
M  V30 14382 H 1378.43 -4.85751 0.435555 0
M  V30 14383 H 1377.44 -4.76737 2.73865 0
M  V30 14384 H 1378.66 -5.92539 3.31774 0
M  V30 14385 H 1376.61 -6.46046 1.13845 0
M  V30 14386 H 1376.53 -7.03345 2.77203 0
M  V30 14387 H 1377.79 -7.60125 1.72716 0
M  V30 14388 N 1382.02 -1.04567 -1.17913 0
M  V30 14389 C 1383.27 -0.762914 -1.8855 0
M  V30 14390 C 1383.62 0.702052 -1.79134 0
M  V30 14391 O 1382.92 1.50622 -1.18421 0
M  V30 14392 C 1383.11 -1.1699 -3.3771 0
M  V30 14393 C 1382.94 -2.67289 -3.61645 0
M  V30 14394 C 1381.71 -3.34508 -3.78724 0
M  V30 14395 C 1383.91 -3.6551 -3.61811 0
M  V30 14396 N 1381.89 -4.73736 -3.90445 0
M  V30 14397 C 1383.26 -4.90436 -3.79306 0
M  V30 14398 C 1385.32 -3.59068 -3.44927 0
M  V30 14399 C 1384.02 -6.09693 -3.81663 0
M  V30 14400 C 1386.05 -4.77758 -3.4857 0
M  V30 14401 C 1385.41 -6.01505 -3.66566 0
M  V30 14402 H 1381.51 -0.331303 -0.708352 0
M  V30 14403 H 1384.09 -1.33636 -1.41596 0
M  V30 14404 H 1382.26 -0.62448 -3.83347 0
M  V30 14405 H 1383.99 -0.837634 -3.95937 0
M  V30 14406 H 1380.75 -2.84911 -3.78316 0
M  V30 14407 H 1381.17 -5.46111 -4.00115 0
M  V30 14408 H 1385.81 -2.64366 -3.29955 0
M  V30 14409 H 1383.53 -7.04746 -3.95422 0
M  V30 14410 H 1387.12 -4.74421 -3.36773 0
M  V30 14411 H 1386 -6.9181 -3.69281 0
M  V30 14412 N 1383.5 1.34231 -0.825823 0
M  V30 14413 C 1384.45 2.29467 -0.247724 0
M  V30 14414 C 1385.42 1.53724 0.629127 0
M  V30 14415 O 1386.6 1.82082 0.570156 0
M  V30 14416 C 1383.74 3.40157 0.582012 0
M  V30 14417 C 1382.86 4.30832 -0.317406 0
M  V30 14418 C 1381.99 5.28627 0.522176 0
M  V30 14419 C 1381.03 6.10941 -0.376448 0
M  V30 14420 N 1380.17 7.00817 0.424232 0
M  V30 14421 H 1385.01 2.78311 -1.06521 0
M  V30 14422 H 1382.54 1.36956 -0.536788 0
M  V30 14423 H 1384.5 4.03021 1.07843 0
M  V30 14424 H 1383.13 2.92539 1.36459 0
M  V30 14425 H 1382.18 3.68805 -0.932054 0
M  V30 14426 H 1383.5 4.88503 -1.00826 0
M  V30 14427 H 1382.65 5.96957 1.08295 0
M  V30 14428 H 1381.39 4.71501 1.24652 0
M  V30 14429 H 1380.39 5.41542 -0.94934 0
M  V30 14430 H 1381.62 6.70149 -1.09895 0
M  V30 14431 H 1379.57 6.46156 1.1322 0
M  V30 14432 H 1379.48 7.55713 -0.208175 0
M  V30 14433 H 1380.75 7.7347 0.967664 0
M  V30 14434 N 1384.98 0.581051 1.46498 0
M  V30 14435 C 1386.26 -0.000789846 1.956 0
M  V30 14436 C 1386.64 -1.46104 1.52371 0
M  V30 14437 O 1385.98 -2.15005 0.773623 0
M  V30 14438 C 1386.19 0.169534 3.48588 0
M  V30 14439 C 1387.54 0.036499 4.24584 0
M  V30 14440 O 1388.57 0.0982852 3.56064 0
M  V30 14441 O 1387.43 -0.100571 5.46407 0
M  V30 14442 H 1384.52 -0.050749 0.825441 0
M  V30 14443 H 1387.07 0.649252 1.56789 0
M  V30 14444 H 1385.84 1.18473 3.72934 0
M  V30 14445 H 1385.46 -0.517017 3.94224 0
M  V30 14446 N 1386.46 -1.54343 0.318742 0
M  V30 14447 C 1387.7 -2.0239 -0.285929 0
M  V30 14448 C 1388.06 -1.20197 -1.49722 0
M  V30 14449 O 1389.26 -1.58025 -2.17443 0
M  V30 14450 C 1387.53 -3.52044 -0.616446 0
M  V30 14451 S 1389.09 -4.22031 -1.20146 0
M  V30 14452 H 1385.91 -0.705685 -0.0867722 0
M  V30 14453 H 1388.51 -1.90233 0.450744 0
M  V30 14454 H 1387.22 -4.09489 0.273339 0
M  V30 14455 H 1386.75 -3.68272 -1.38344 0
M  V30 14456 H 1388.76 -4.29287 -2.48851 0
M  V30 14457 N 1387.94 -0.0468143 -1.5753 0
M  V30 14458 C 1388.88 0.929065 -2.11275 0
M  V30 14459 C 1389.85 1.31166 -1.01905 0
M  V30 14460 O 1391.04 1.40189 -1.29428 0
M  V30 14461 C 1388.18 2.20012 -2.65873 0
M  V30 14462 C 1387.29 1.8724 -3.89314 0
M  V30 14463 C 1386.43 3.08772 -4.32242 0
M  V30 14464 C 1385.46 2.719 -5.48395 0
M  V30 14465 N 1384.6 3.86112 -5.86397 0
M  V30 14466 H 1389.44 0.463854 -2.94368 0
M  V30 14467 H 1386.98 0.217338 -1.45486 0
M  V30 14468 H 1388.94 2.94383 -2.95626 0
M  V30 14469 H 1387.57 2.64118 -1.85584 0
M  V30 14470 H 1386.62 1.03037 -3.6618 0
M  V30 14471 H 1387.93 1.56096 -4.73746 0
M  V30 14472 H 1387.08 3.91446 -4.63525 0
M  V30 14473 H 1385.82 3.4309 -3.46613 0
M  V30 14474 H 1384.83 1.87642 -5.16789 0
M  V30 14475 H 1386.05 2.38779 -6.35737 0
M  V30 14476 H 1384 4.2024 -5.03721 0
M  V30 14477 H 1383.92 3.58652 -6.65511 0
M  V30 14478 H 1385.18 4.69438 -6.22293 0
M  V30 14479 N 1389.41 1.55964 0.226527 0
M  V30 14480 C 1390.34 1.95028 1.284 0
M  V30 14481 C 1391.33 0.817833 1.49149 0
M  V30 14482 O 1392.51 1.07975 1.61416 0
M  V30 14483 C 1389.64 2.26266 2.63478 0
M  V30 14484 C 1388.59 3.41954 2.57393 0
M  V30 14485 C 1387.92 3.58786 3.96456 0
M  V30 14486 C 1389.22 4.77069 2.12608 0
M  V30 14487 H 1390.91 2.83608 0.959513 0
M  V30 14488 H 1388.46 1.36451 0.460125 0
M  V30 14489 H 1390.41 2.52186 3.3761 0
M  V30 14490 H 1389.14 1.34533 2.97604 0
M  V30 14491 H 1387.8 3.16076 1.85719 0
M  V30 14492 H 1387.44 2.64437 4.27881 0
M  V30 14493 H 1387.14 4.36595 3.93267 0
M  V30 14494 H 1388.67 3.87048 4.72256 0
M  V30 14495 H 1390.08 5.02226 2.76481 0
M  V30 14496 H 1388.48 5.58126 2.2049 0
M  V30 14497 H 1389.55 4.7276 1.07823 0
M  V30 14498 N 1390.89 -0.493031 1.4969 0
M  V30 14499 C 1392.31 -0.824908 1.36629 0
M  V30 14500 C 1392.51 -1.97378 0.405487 0
M  V30 14501 O 1391.56 -2.51993 -0.159933 0
M  V30 14502 C 1392.88 -1.15761 2.77524 0
M  V30 14503 C 1394.43 -1.26536 2.86282 0
M  V30 14504 C 1394.9 -1.63131 4.27963 0
M  V30 14505 N 1396.39 -1.70165 4.30811 0
M  V30 14506 C 1397.13 -1.99942 5.37411 0
M  V30 14507 N 1396.62 -2.27888 6.54247 0
M  V30 14508 N 1398.42 -2.0126 5.24834 0
M  V30 14509 H 1390.57 0.264433 2.10748 0
M  V30 14510 H 1392.83 0.0557306 0.94636 0
M  V30 14511 H 1392.54 -0.386714 3.49567 0
M  V30 14512 H 1392.41 -2.09915 3.13393 0
M  V30 14513 H 1394.8 -2.02696 2.14472 0
M  V30 14514 H 1394.88 -0.304137 2.53986 0
M  V30 14515 H 1394.52 -0.875184 5.00303 0
M  V30 14516 H 1394.45 -2.60367 4.5773 0
M  V30 14517 H 1396.94 -1.50696 3.46553 0
M  V30 14518 H 1397.26 -2.4982 7.31307 0
M  V30 14519 H 1395.6 -2.25327 6.57459 0
M  V30 14520 H 1398.79 -1.78909 4.32561 0
M  V30 14521 H 1398.96 -2.24131 6.08004 0
M  V30 14522 N 1392.37 -1.38898 -0.744656 0
M  V30 14523 C 1393.62 -1.34909 -1.49941 0
M  V30 14524 C 1393.93 0.0553979 -1.95522 0
M  V30 14525 O 1395.14 0.21785 -2.70625 0
M  V30 14526 C 1393.59 -2.36954 -2.70889 0
M  V30 14527 C 1393.2 -3.83069 -2.32298 0
M  V30 14528 C 1394.95 -2.42024 -3.48747 0
M  V30 14529 C 1392.85 -4.76777 -3.4991 0
M  V30 14530 H 1391.78 -0.501512 -0.563029 0
M  V30 14531 H 1394.43 -1.64497 -0.813201 0
M  V30 14532 H 1392.82 -2.00421 -3.41537 0
M  V30 14533 H 1393.99 -4.28588 -1.69259 0
M  V30 14534 H 1392.31 -3.81202 -1.67554 0
M  V30 14535 H 1394.9 -3.0923 -4.36212 0
M  V30 14536 H 1395.25 -1.44184 -3.90534 0
M  V30 14537 H 1395.78 -2.774 -2.85121 0
M  V30 14538 H 1392.52 -5.75844 -3.13183 0
M  V30 14539 H 1392.04 -4.35944 -4.11962 0
M  V30 14540 H 1393.72 -4.95219 -4.16374 0
M  V30 14541 N 1393.85 0.973806 -1.23914 0
M  V30 14542 C 1395.08 1.74853 -1.10046 0
M  V30 14543 C 1395.49 1.85927 0.350388 0
M  V30 14544 O 1394.83 1.34252 1.25388 0
M  V30 14545 C 1394.89 3.18919 -1.65924 0
M  V30 14546 C 1394.56 3.31335 -3.14748 0
M  V30 14547 C 1395.55 3.17141 -4.11968 0
M  V30 14548 C 1393.24 3.55772 -3.54587 0
M  V30 14549 C 1395.23 3.27199 -5.47009 0
M  V30 14550 C 1392.92 3.65468 -4.89771 0
M  V30 14551 C 1393.92 3.51193 -5.85792 0
M  V30 14552 O 1393.6 3.60534 -7.18519 0
M  V30 14553 H 1393.34 0.555345 -0.385445 0
M  V30 14554 H 1395.89 1.23168 -1.64374 0
M  V30 14555 H 1394.12 3.71882 -1.06023 0
M  V30 14556 H 1395.81 3.78177 -1.47434 0
M  V30 14557 H 1396.58 2.98153 -3.82531 0
M  V30 14558 H 1392.45 3.65951 -2.80358 0
M  V30 14559 H 1396 3.15974 -6.21937 0
M  V30 14560 H 1391.9 3.83969 -5.18882 0
M  V30 14561 H 1392.66 3.77288 -7.26358 0
M  V30 14562 N 1395.33 1.05191 1.17357 0
M  V30 14563 C 1396.57 0.763113 1.87895 0
M  V30 14564 C 1396.91 -0.708071 1.80831 0
M  V30 14565 O 1396.18 -1.51777 1.21631 0
M  V30 14566 C 1396.46 1.2442 3.37923 0
M  V30 14567 C 1396.32 2.77832 3.53737 0
M  V30 14568 C 1397.64 0.843209 4.31947 0
M  V30 14569 H 1394.75 0.27869 0.682276 0
M  V30 14570 H 1397.4 1.3059 1.38008 0
M  V30 14571 H 1395.55 0.782438 3.80539 0
M  V30 14572 H 1397.22 3.32131 3.20135 0
M  V30 14573 H 1395.46 3.17108 2.96015 0
M  V30 14574 H 1396.13 3.06555 4.59052 0
M  V30 14575 H 1398.61 1.24073 3.97171 0
M  V30 14576 H 1397.48 1.20743 5.35455 0
M  V30 14577 H 1397.75 -0.252802 4.41377 0
M  V30 14578 N 1396.8 -1.33791 0.83293 0
M  V30 14579 C 1398.05 -1.97582 0.42494 0
M  V30 14580 C 1398.37 -1.66328 -1.01784 0
M  V30 14581 O 1397.64 -0.959141 -1.70814 0
M  V30 14582 H 1396.22 -0.730923 0.154143 0
M  V30 14583 H 1398.89 -1.63257 1.06458 0
M  V30 14584 H 1397.98 -3.07177 0.552127 0
M  V30 14585 N 1398.28 -0.588812 -1.46187 0
M  V30 14586 C 1399.53 -0.0765765 -2.01955 0
M  V30 14587 C 1399.85 1.29034 -1.46203 0
M  V30 14588 O 1399.12 1.84836 -0.649044 0
M  V30 14589 H 1397.7 -0.025318 -0.746571 0
M  V30 14590 H 1400.36 -0.765971 -1.79217 0
M  V30 14591 H 1399.46 -0.0121702 -3.12098 0
M  V30 14592 N 1399.76 1.54172 -0.326923 0
M  V30 14593 C 1400.71 2.24454 0.537501 0
M  V30 14594 C 1401.68 1.23658 1.10896 0
M  V30 14595 O 1402.86 1.52348 1.14868 0
M  V30 14596 C 1400 3.00839 1.69085 0
M  V30 14597 C 1399.12 4.16459 1.1483 0
M  V30 14598 C 1398.25 4.80368 2.26761 0
M  V30 14599 C 1397.29 5.88085 1.69771 0
M  V30 14600 N 1396.43 6.45842 2.75378 0
M  V30 14601 H 1401.27 2.97921 -0.0684022 0
M  V30 14602 H 1398.8 1.4703 -0.0455287 0
M  V30 14603 H 1400.76 3.43375 2.36959 0
M  V30 14604 H 1399.39 2.297 2.26799 0
M  V30 14605 H 1398.44 3.78683 0.361004 0
M  V30 14606 H 1399.76 4.93986 0.69132 0
M  V30 14607 H 1398.91 5.25889 3.02533 0
M  V30 14608 H 1397.65 4.02228 2.75796 0
M  V30 14609 H 1396.65 5.41963 0.924985 0
M  V30 14610 H 1397.88 6.68123 1.21609 0
M  V30 14611 H 1395.82 5.70574 3.23699 0
M  V30 14612 H 1395.74 7.18792 2.34253 0
M  V30 14613 H 1397.01 6.96018 3.50969 0
M  V30 14614 N 1401.24 0.0551678 1.57503 0
M  V30 14615 C 1402.49 -0.617201 1.92025 0
M  V30 14616 C 1402.8 -1.71767 0.93571 0
M  V30 14617 O 1404.01 -2.44847 1.17312 0
M  V30 14618 C 1402.46 -1.14915 3.41061 0
M  V30 14619 C 1402.07 -0.0805814 4.47928 0
M  V30 14620 C 1403.81 -1.79654 3.8461 0
M  V30 14621 C 1401.72 -0.625639 5.88081 0
M  V30 14622 H 1400.65 -0.23431 0.716669 0
M  V30 14623 H 1403.3 0.124706 1.83076 0
M  V30 14624 H 1401.68 -1.9435 3.45028 0
M  V30 14625 H 1402.86 0.693222 4.55556 0
M  V30 14626 H 1401.17 0.469581 4.13744 0
M  V30 14627 H 1403.77 -2.21436 4.86693 0
M  V30 14628 H 1404.11 -2.64987 3.21073 0
M  V30 14629 H 1404.65 -1.06868 3.83176 0
M  V30 14630 H 1401.39 0.190148 6.55224 0
M  V30 14631 H 1400.91 -1.36734 5.84007 0
M  V30 14632 H 1402.58 -1.10728 6.37454 0
M  V30 14633 N 1402.72 -1.56081 -0.218252 0
M  V30 14634 C 1403.66 -1.93544 -1.2901 0
M  V30 14635 C 1404.66 -0.817886 -1.48348 0
M  V30 14636 O 1405.86 -1.00274 -1.49483 0
M  V30 14637 H 1402.24 -0.61511 -0.432601 0
M  V30 14638 H 1404.21 -2.82975 -0.946966 0
M  V30 14639 C 1402.96 -2.27134 -2.63259 0
M  V30 14640 H 1402.28 -3.12643 -2.49188 0
M  V30 14641 H 1403.72 -2.57228 -3.3706 0
M  V30 14642 C 1402.18 -1.09764 -3.18518 0
M  V30 14643 O 1402.71 -0.360501 -4.00079 0
M  V30 14644 N 1400.92 -0.880589 -2.76937 0
M  V30 14645 H 1400.46 -1.48175 -2.10718 0
M  V30 14646 H 1400.42 -0.0970234 -3.1425 0
M  V30 14647 N 1404.2 0.485086 -1.49949 0
M  V30 14648 C 1405.61 0.817651 -1.37064 0
M  V30 14649 C 1405.81 1.9716 -0.415949 0
M  V30 14650 O 1404.87 2.52074 0.146567 0
M  V30 14651 C 1406.18 1.14288 -2.78134 0
M  V30 14652 C 1407.73 1.25016 -2.8695 0
M  V30 14653 C 1408.2 1.60859 -4.28822 0
M  V30 14654 N 1409.69 1.67878 -4.31707 0
M  V30 14655 C 1410.43 1.97089 -5.38464 0
M  V30 14656 N 1409.93 2.24415 -6.55446 0
M  V30 14657 N 1411.72 1.98474 -5.25894 0
M  V30 14658 H 1403.87 -0.275606 -2.10604 0
M  V30 14659 H 1406.13 -0.0607486 -0.946052 0
M  V30 14660 H 1405.84 0.36817 -3.49768 0
M  V30 14661 H 1405.71 2.0825 -3.14502 0
M  V30 14662 H 1408.1 2.01556 -2.15544 0
M  V30 14663 H 1408.18 0.290664 -2.54143 0
M  V30 14664 H 1407.82 0.848639 -5.0076 0
M  V30 14665 H 1407.75 2.57936 -4.59104 0
M  V30 14666 H 1410.25 1.48856 -3.47347 0
M  V30 14667 H 1410.56 2.45938 -7.32622 0
M  V30 14668 H 1408.9 2.21837 -6.58645 0
M  V30 14669 H 1412.09 1.76612 -4.33504 0
M  V30 14670 H 1412.27 2.20904 -6.09184 0
M  V30 14671 N 1405.67 1.39291 0.737279 0
M  V30 14672 C 1406.92 1.35702 1.49224 0
M  V30 14673 C 1407.24 -0.0450282 1.95548 0
M  V30 14674 O 1408.44 -0.203495 2.70736 0
M  V30 14675 C 1406.9 2.38387 2.69629 0
M  V30 14676 C 1406.51 3.84295 2.30263 0
M  V30 14677 C 1408.25 2.4387 3.47459 0
M  V30 14678 C 1406.16 4.78626 3.47377 0
M  V30 14679 H 1405.09 0.50449 0.560362 0
M  V30 14680 H 1407.74 1.64926 0.804466 0
M  V30 14681 H 1406.12 2.0223 3.40469 0
M  V30 14682 H 1407.29 4.2948 1.66984 0
M  V30 14683 H 1405.61 3.82085 1.6553 0
M  V30 14684 H 1408.21 3.11539 4.34566 0
M  V30 14685 H 1408.55 1.46253 3.89764 0
M  V30 14686 H 1409.08 2.78908 2.83646 0
M  V30 14687 H 1405.82 5.77497 3.10124 0
M  V30 14688 H 1405.34 4.38123 4.09645 0
M  V30 14689 H 1407.02 4.9742 4.13742 0
M  V30 14690 N 1407.15 -0.967221 1.24429 0
M  V30 14691 C 1408.06 -2.09582 1.05417 0
M  V30 14692 C 1409.08 -1.73999 -0.00516127 0
M  V30 14693 O 1410.25 -2.00472 0.193115 0
M  V30 14694 C 1407.32 -3.40327 0.661697 0
M  V30 14695 C 1406.38 -3.89854 1.79756 0
M  V30 14696 C 1405.61 -5.1436 1.42372 0
M  V30 14697 O 1405.84 -5.69536 0.313754 0
M  V30 14698 O 1404.77 -5.58283 2.24952 0
M  V30 14699 H 1408.6 -2.28517 2.00034 0
M  V30 14700 H 1406.18 -1.07978 1.03253 0
M  V30 14701 H 1408.06 -4.18943 0.454369 0
M  V30 14702 H 1406.74 -3.22691 -0.255348 0
M  V30 14703 H 1405.64 -3.12297 2.05964 0
M  V30 14704 H 1406.98 -4.11967 2.69339 0
M  V30 14705 N 1408.63 -1.05812 -1.16797 0
M  V30 14706 C 1409.54 -0.675541 -2.24663 0
M  V30 14707 C 1410.56 0.30622 -1.71284 0
M  V30 14708 O 1411.73 0.156752 -2.00789 0
M  V30 14709 C 1408.8 -0.0627149 -3.46643 0
M  V30 14710 C 1407.86 -1.09572 -4.15081 0
M  V30 14711 C 1407.09 -0.512044 -5.31238 0
M  V30 14712 O 1407.31 0.676665 -5.66372 0
M  V30 14713 O 1406.25 -1.24936 -5.88791 0
M  V30 14714 H 1410.07 -1.57467 -2.59688 0
M  V30 14715 H 1407.66 -0.830073 -1.24218 0
M  V30 14716 H 1409.54 0.277543 -4.20485 0
M  V30 14717 H 1408.22 0.80997 -3.13403 0
M  V30 14718 H 1407.12 -1.48807 -3.4323 0
M  V30 14719 H 1408.46 -1.93977 -4.52365 0
M  V30 14720 N 1410.11 1.33347 -0.840014 0
M  V30 14721 C 1411.02 2.32965 -0.276527 0
M  V30 14722 C 1412.03 1.634 0.598037 0
M  V30 14723 O 1413.21 1.95046 0.501888 0
M  V30 14724 C 1410.27 3.42498 0.53816 0
M  V30 14725 C 1409.34 4.27781 -0.360814 0
M  V30 14726 C 1408.57 5.32083 0.415085 0
M  V30 14727 O 1408.79 5.46115 1.64666 0
M  V30 14728 O 1407.73 6.01528 -0.211503 0
M  V30 14729 H 1411.55 2.83022 -1.10147 0
M  V30 14730 H 1409.14 1.3671 -0.602566 0
M  V30 14731 H 1411.02 4.09336 1.00108 0
M  V30 14732 H 1409.69 2.94655 1.34015 0
M  V30 14733 H 1408.6 3.63805 -0.871598 0
M  V30 14734 H 1409.93 4.7911 -1.1276 0
M  V30 14735 N 1411.59 0.596556 1.45873 0
M  V30 14736 C 1412.53 -0.128713 2.30441 0
M  V30 14737 C 1413.5 -0.870727 1.41448 0
M  V30 14738 O 1414.69 -0.858654 1.70387 0
M  V30 14739 C 1411.83 -1.1274 3.26165 0
M  V30 14740 C 1410.94 -0.387403 4.30259 0
M  V30 14741 C 1410.08 -1.37484 5.131 0
M  V30 14742 C 1409.11 -0.622025 6.08931 0
M  V30 14743 N 1408.25 -1.5582 6.84591 0
M  V30 14744 H 1413.09 0.598466 2.91929 0
M  V30 14745 H 1410.63 0.306936 1.43862 0
M  V30 14746 H 1412.59 -1.71943 3.8012 0
M  V30 14747 H 1411.22 -1.82213 2.66455 0
M  V30 14748 H 1410.27 0.319929 3.79052 0
M  V30 14749 H 1411.58 0.200477 4.98397 0
M  V30 14750 H 1410.73 -2.03926 5.71401 0
M  V30 14751 H 1409.47 -1.99665 4.44955 0
M  V30 14752 H 1408.48 0.0560936 5.49771 0
M  V30 14753 H 1409.7 -0.00541426 6.791 0
M  V30 14754 H 1407.65 -2.16786 6.19145 0
M  V30 14755 H 1407.57 -1.02347 7.4904 0
M  V30 14756 H 1408.83 -2.21254 7.4744 0
M  V30 14757 N 1413.06 -1.53996 0.335095 0
M  V30 14758 C 1414.31 -1.99952 -0.264954 0
M  V30 14759 C 1414.63 -1.22696 -1.52332 0
M  V30 14760 O 1415.83 -1.59086 -2.20009 0
M  V30 14761 C 1414.29 -3.56085 -0.522667 0
M  V30 14762 C 1413.9 -4.42188 0.719314 0
M  V30 14763 C 1415.64 -4.10478 -1.08204 0
M  V30 14764 C 1413.55 -5.89814 0.432867 0
M  V30 14765 H 1412.48 -0.746962 -0.102782 0
M  V30 14766 H 1415.13 -1.77919 0.449111 0
M  V30 14767 H 1413.51 -3.7415 -1.29722 0
M  V30 14768 H 1414.68 -4.35898 1.49432 0
M  V30 14769 H 1413 -3.98743 1.19972 0
M  V30 14770 H 1415.6 -5.18375 -1.31116 0
M  V30 14771 H 1415.94 -3.63173 -2.03497 0
M  V30 14772 H 1416.47 -3.96091 -0.368395 0
M  V30 14773 H 1413.21 -6.41336 1.35529 0
M  V30 14774 H 1412.73 -5.99028 -0.304214 0
M  V30 14775 H 1414.41 -6.46983 0.0469657 0
M  V30 14776 N 1414.54 -0.0635198 -1.57472 0
M  V30 14777 C 1415.79 0.608384 -1.93459 0
M  V30 14778 C 1416.12 1.6976 -0.943141 0
M  V30 14779 O 1415.4 1.94478 0.0289567 0
M  V30 14780 C 1415.68 1.19302 -3.39763 0
M  V30 14781 C 1415.53 0.11102 -4.49663 0
M  V30 14782 C 1416.85 2.101 -3.86712 0
M  V30 14783 H 1413.97 0.219688 -0.703496 0
M  V30 14784 H 1416.61 -0.127803 -1.8957 0
M  V30 14785 H 1414.76 1.82044 -3.43209 0
M  V30 14786 H 1416.43 -0.521606 -4.58342 0
M  V30 14787 H 1414.68 -0.559408 -4.30178 0
M  V30 14788 H 1415.35 0.560332 -5.49149 0
M  V30 14789 H 1417.82 1.57305 -3.8522 0
M  V30 14790 H 1416.7 2.47945 -4.89708 0
M  V30 14791 H 1416.96 3.00603 -3.24177 0
M  V30 14792 N 1416.02 1.56195 0.209972 0
M  V30 14793 C 1416.95 1.88389 1.28781 0
M  V30 14794 C 1417.93 0.742429 1.44661 0
M  V30 14795 O 1419.11 0.991955 1.60289 0
M  V30 14796 C 1416.24 2.10107 2.65655 0
M  V30 14797 C 1415.29 3.32804 2.66728 0
M  V30 14798 S 1416.12 4.88384 2.1964 0
M  V30 14799 C 1417.28 5.13151 3.58367 0
M  V30 14800 H 1417.51 2.79517 1.01281 0
M  V30 14801 H 1415.04 1.4878 0.412768 0
M  V30 14802 H 1417 2.23302 3.44451 0
M  V30 14803 H 1415.66 1.19756 2.90374 0
M  V30 14804 H 1414.85 3.4508 3.67336 0
M  V30 14805 H 1414.46 3.18525 1.96004 0
M  V30 14806 H 1416.75 5.02759 4.54136 0
M  V30 14807 H 1417.69 6.14985 3.50998 0
M  V30 14808 H 1418.1 4.4084 3.52591 0
M  V30 14809 N 1417.5 -0.477127 1.50204 0
M  V30 14810 C 1418.46 -1.55824 1.68082 0
M  V30 14811 C 1419.46 -1.51039 0.551719 0
M  V30 14812 O 1420.65 -1.53766 0.818638 0
M  V30 14813 C 1417.78 -2.95462 1.70044 0
M  V30 14814 H 1418.98 -1.41292 2.64531 0
M  V30 14815 H 1416.53 -0.70308 1.39594 0
M  V30 14816 H 1417.26 -3.15445 0.752663 0
M  V30 14817 H 1417.05 -3.00343 2.52065 0
M  V30 14818 H 1418.54 -3.73964 1.85851 0
M  V30 14819 N 1418.98 -1.3968 -0.729882 0
M  V30 14820 C 1420.2 -1.40654 -1.52418 0
M  V30 14821 C 1420.63 -0.00428997 -1.881 0
M  V30 14822 O 1419.98 0.984023 -1.52272 0
M  V30 14823 C 1420.03 -2.29057 -2.78506 0
M  V30 14824 O 1419.14 -1.72397 -3.74637 0
M  V30 14825 H 1418.48 -0.478761 -0.460091 0
M  V30 14826 H 1421.01 -1.83738 -0.900087 0
M  V30 14827 H 1421.02 -2.43748 -3.27187 0
M  V30 14828 H 1419.69 -3.30961 -2.51868 0
M  V30 14829 H 1418.27 -1.66977 -3.33426 0
M  V30 14830 N 1420.45 0.960609 -1.2494 0
M  V30 14831 C 1421.38 2.074 -1.07274 0
M  V30 14832 C 1422.37 1.70092 0.0164365 0
M  V30 14833 O 1423.55 1.93604 -0.151975 0
M  V30 14834 C 1420.68 3.40491 -0.684317 0
M  V30 14835 C 1419.63 3.91784 -1.72306 0
M  V30 14836 C 1418.96 5.21301 -1.18949 0
M  V30 14837 C 1420.26 4.18829 -3.12056 0
M  V30 14838 H 1421.95 2.22438 -2.00404 0
M  V30 14839 H 1419.5 1.06888 -0.964937 0
M  V30 14840 H 1421.45 4.17826 -0.547686 0
M  V30 14841 H 1420.18 3.25374 0.282687 0
M  V30 14842 H 1418.84 3.16613 -1.84802 0
M  V30 14843 H 1418.48 5.02549 -0.212892 0
M  V30 14844 H 1418.18 5.56588 -1.8837 0
M  V30 14845 H 1419.71 6.01238 -1.06513 0
M  V30 14846 H 1421.12 4.86844 -3.02748 0
M  V30 14847 H 1419.52 4.6536 -3.78894 0
M  V30 14848 H 1420.59 3.25333 -3.59564 0
M  V30 14849 N 1421.93 1.0643 1.16234 0
M  V30 14850 C 1422.86 0.697605 2.22836 0
M  V30 14851 C 1423.84 -0.310563 1.67241 0
M  V30 14852 O 1425.03 -0.185385 1.93313 0
M  V30 14853 C 1422.16 0.0847097 3.47197 0
M  V30 14854 C 1421.11 1.019 4.15693 0
M  V30 14855 C 1420.44 0.269339 5.34021 0
M  V30 14856 C 1421.74 2.34861 4.66516 0
M  V30 14857 H 1423.43 1.58883 2.53765 0
M  V30 14858 H 1420.98 0.765388 1.21975 0
M  V30 14859 H 1422.93 -0.1837 4.20999 0
M  V30 14860 H 1421.66 -0.84154 3.15572 0
M  V30 14861 H 1420.31 1.27218 3.43818 0
M  V30 14862 H 1419.96 -0.660072 4.9865 0
M  V30 14863 H 1419.66 0.892001 5.8079 0
M  V30 14864 H 1421.19 0.00850775 6.10599 0
M  V30 14865 H 1422.6 2.13922 5.31893 0
M  V30 14866 H 1421 2.92637 5.23912 0
M  V30 14867 H 1422.07 2.97834 3.82653 0
M  V30 14868 N 1423.41 -1.329 0.847073 0
M  V30 14869 C 1424.64 -2.02244 0.459588 0
M  V30 14870 C 1425.06 -1.63279 -0.933897 0
M  V30 14871 O 1424.42 -0.829551 -1.61208 0
M  V30 14872 C 1424.47 -3.55616 0.59745 0
M  V30 14873 O 1423.57 -4.1071 -0.372919 0
M  V30 14874 H 1422.91 -0.637504 0.1857 0
M  V30 14875 H 1425.44 -1.69617 1.14417 0
M  V30 14876 H 1425.45 -4.05141 0.482145 0
M  V30 14877 H 1424.13 -3.8332 1.61365 0
M  V30 14878 H 1422.7 -3.72283 -0.214487 0
M  V30 14879 N 1424.89 -0.604284 -1.45555 0
M  V30 14880 C 1425.84 0.116491 -2.30506 0
M  V30 14881 C 1426.81 0.863214 -1.41908 0
M  V30 14882 O 1427.99 0.849606 -1.7084 0
M  V30 14883 C 1425.13 1.11009 -3.26758 0
M  V30 14884 C 1424.24 0.36458 -4.30459 0
M  V30 14885 C 1423.38 1.34761 -5.13822 0
M  V30 14886 C 1422.42 0.589724 -6.09253 0
M  V30 14887 N 1421.55 1.52187 -6.85408 0
M  V30 14888 H 1426.39 -0.61394 -2.91607 0
M  V30 14889 H 1423.93 -0.314561 -1.43697 0
M  V30 14890 H 1425.89 1.69925 -3.81027 0
M  V30 14891 H 1424.52 1.80797 -2.67418 0
M  V30 14892 H 1423.57 -0.340026 -3.78877 0
M  V30 14893 H 1424.88 -0.226906 -4.98284 0
M  V30 14894 H 1424.04 2.00893 -5.72474 0
M  V30 14895 H 1422.78 1.97302 -4.46008 0
M  V30 14896 H 1421.78 -0.0852486 -5.49734 0
M  V30 14897 H 1423.01 -0.0306001 -6.79093 0
M  V30 14898 H 1420.95 2.13499 -6.20286 0
M  V30 14899 H 1420.87 0.983737 -7.49572 0
M  V30 14900 H 1422.14 2.17287 -7.48603 0
M  V30 14901 N 1426.37 1.53816 -0.343257 0
M  V30 14902 C 1427.61 2.00909 0.253346 0
M  V30 14903 C 1427.94 1.23109 1.5058 0
M  V30 14904 O 1427.2 0.306682 1.93282 0
M  V30 14905 C 1427.5 3.521 0.613243 0
M  V30 14906 C 1427.16 4.47627 -0.5423 0
M  V30 14907 C 1425.82 4.73463 -0.859418 0
M  V30 14908 C 1428.18 5.04272 -1.31754 0
M  V30 14909 C 1425.5 5.532 -1.95415 0
M  V30 14910 C 1427.86 5.85203 -2.40251 0
M  V30 14911 C 1426.52 6.09334 -2.72523 0
M  V30 14912 H 1425.79 0.735178 0.0927058 0
M  V30 14913 H 1428.44 1.85615 -0.471111 0
M  V30 14914 H 1426.74 3.65224 1.41841 0
M  V30 14915 H 1428.44 3.85994 1.08673 0
M  V30 14916 H 1425.03 4.27651 -0.285076 0
M  V30 14917 H 1429.21 4.84277 -1.0858 0
M  V30 14918 H 1424.47 5.70122 -2.20842 0
M  V30 14919 H 1428.64 6.28109 -3.00753 0
M  V30 14920 H 1426.27 6.70906 -3.57476 0
M  V30 14921 N 1427.84 0.0718701 1.57436 0
M  V30 14922 C 1429.26 -0.28476 1.57039 0
M  V30 14923 C 1429.46 -1.70032 1.08127 0
M  V30 14924 O 1428.52 -2.41191 0.747189 0
M  V30 14925 C 1429.83 -0.0943482 3.00552 0
M  V30 14926 C 1431.38 -0.163879 3.12571 0
M  V30 14927 C 1431.85 -0.00174658 4.58 0
M  V30 14928 N 1433.34 -0.0573489 4.63164 0
M  V30 14929 C 1434.08 0.0436849 5.73383 0
M  V30 14930 N 1433.57 0.198243 6.92516 0
M  V30 14931 N 1435.37 -0.0133856 5.62098 0
M  V30 14932 H 1427.52 0.99702 1.87545 0
M  V30 14933 H 1429.78 0.388822 0.864593 0
M  V30 14934 H 1429.49 0.882445 3.40449 0
M  V30 14935 H 1429.36 -0.846636 3.67576 0
M  V30 14936 H 1431.75 -1.13116 2.7256 0
M  V30 14937 H 1431.83 0.619513 2.48185 0
M  V30 14938 H 1431.47 0.9623 4.98701 0
M  V30 14939 H 1431.4 -0.804543 5.20418 0
M  V30 14940 H 1433.89 -0.175212 3.77494 0
M  V30 14941 H 1434.21 0.267479 7.72337 0
M  V30 14942 H 1432.55 0.233606 6.94607 0
M  V30 14943 H 1435.74 -0.132835 4.67911 0
M  V30 14944 H 1435.92 0.0688076 6.47963 0
M  V30 14945 N 1429.32 -1.56304 -0.201686 0
M  V30 14946 C 1430.57 -1.79433 -0.921241 0
M  V30 14947 C 1430.88 -0.643943 -1.84696 0
M  V30 14948 O 1432.09 -0.759359 -2.60665 0
M  V30 14949 C 1430.55 -3.17835 -1.68846 0
M  V30 14950 C 1430.15 -4.40655 -0.807892 0
M  V30 14951 C 1431.9 -3.50277 -2.39805 0
M  V30 14952 C 1429.81 -5.7008 -1.5736 0
M  V30 14953 H 1428.74 -0.669029 -0.34773 0
M  V30 14954 H 1431.39 -1.82667 -0.174657 0
M  V30 14955 H 1429.77 -3.08832 -2.47869 0
M  V30 14956 H 1430.94 -4.60765 -0.0567923 0
M  V30 14957 H 1429.26 -4.15873 -0.209465 0
M  V30 14958 H 1431.85 -4.44207 -2.97631 0
M  V30 14959 H 1432.2 -2.7371 -3.1367 0
M  V30 14960 H 1432.73 -3.60698 -1.67754 0
M  V30 14961 H 1429.47 -6.49595 -0.877855 0
M  V30 14962 H 1428.99 -5.53999 -2.2988 0
M  V30 14963 H 1430.67 -6.10964 -2.12912 0
M  V30 14964 N 1430.8 0.469154 -1.50455 0
M  V30 14965 C 1431.75 1.56691 -1.6946 0
M  V30 14966 C 1432.72 1.57217 -0.535921 0
M  V30 14967 O 1433.9 1.74717 -0.766715 0
M  V30 14968 C 1431.04 2.94651 -1.79651 0
M  V30 14969 C 1430.16 3.03899 -3.07033 0
M  V30 14970 C 1429.29 4.32786 -3.08009 0
M  V30 14971 C 1428.33 4.35784 -4.29836 0
M  V30 14972 N 1427.47 5.56145 -4.28541 0
M  V30 14973 H 1432.31 1.39791 -2.63178 0
M  V30 14974 H 1429.84 0.679628 -1.30459 0
M  V30 14975 H 1431.8 3.74658 -1.83541 0
M  V30 14976 H 1430.43 3.10182 -0.893713 0
M  V30 14977 H 1429.48 2.16754 -3.12605 0
M  V30 14978 H 1430.8 3.01974 -3.97005 0
M  V30 14979 H 1429.95 5.21141 -3.10639 0
M  V30 14980 H 1428.69 4.37323 -2.1587 0
M  V30 14981 H 1427.69 3.45825 -4.27417 0
M  V30 14982 H 1428.92 4.32937 -5.23204 0
M  V30 14983 H 1426.86 5.61464 -3.39256 0
M  V30 14984 H 1426.78 5.55969 -5.12284 0
M  V30 14985 H 1428.05 6.4662 -4.35319 0
M  V30 14986 N 1432.28 1.40065 0.722464 0
M  V30 14987 C 1433.53 1.3797 1.48224 0
M  V30 14988 C 1433.85 -0.0202588 1.94489 0
M  V30 14989 O 1433.11 -1.0035 1.68013 0
M  V30 14990 C 1433.41 2.30949 2.72759 0
M  V30 14991 C 1433.07 3.7834 2.45295 0
M  V30 14992 C 1431.74 4.18497 2.37515 0
M  V30 14993 C 1434.09 4.71509 2.221 0
M  V30 14994 C 1431.42 5.4987 2.04598 0
M  V30 14995 C 1433.77 6.03173 1.90697 0
M  V30 14996 C 1432.43 6.4238 1.81394 0
M  V30 14997 H 1431.7 0.504869 0.542392 0
M  V30 14998 H 1434.35 1.72667 0.828149 0
M  V30 14999 H 1432.65 1.89413 3.42972 0
M  V30 15000 H 1434.35 2.26615 3.30827 0
M  V30 15001 H 1430.94 3.46519 2.52235 0
M  V30 15002 H 1435.12 4.41308 2.27071 0
M  V30 15003 H 1430.38 5.79157 1.95928 0
M  V30 15004 H 1434.55 6.74886 1.71761 0
M  V30 15005 H 1432.18 7.44094 1.55654 0
M  V30 15006 N 1433.76 -0.95397 1.25448 0
M  V30 15007 C 1434.72 -2.03231 1.0597 0
M  V30 15008 C 1435.72 -1.60795 0.0122855 0
M  V30 15009 O 1436.91 -1.7233 0.254533 0
M  V30 15010 C 1434.04 -3.35414 0.609105 0
M  V30 15011 H 1435.24 -2.21943 2.01696 0
M  V30 15012 H 1432.79 -1.13115 1.07864 0
M  V30 15013 H 1433.52 -3.22398 -0.350723 0
M  V30 15014 H 1433.31 -3.67564 1.36526 0
M  V30 15015 H 1434.8 -4.14664 0.49428 0
M  V30 15016 N 1435.24 -1.07045 -1.15668 0
M  V30 15017 C 1436.51 -0.704942 -1.82455 0
M  V30 15018 C 1436.89 0.812921 -1.9482 0
M  V30 15019 O 1436.24 1.72615 -1.49721 0
M  V30 15020 C 1436.45 -1.41574 -3.18995 0
M  V30 15021 C 1437.8 -1.56584 -3.94673 0
M  V30 15022 O 1438.82 -1.37626 -3.28538 0
M  V30 15023 O 1437.68 -1.87751 -5.13237 0
M  V30 15024 H 1434.78 -0.250469 -0.788159 0
M  V30 15025 H 1437.32 -1.17118 -1.22806 0
M  V30 15026 H 1436.09 -2.4504 -3.05075 0
M  V30 15027 H 1435.72 -0.940071 -3.86327 0
M  V30 15028 N 1436.71 1.32449 -0.85411 0
M  V30 15029 C 1437.96 1.96537 -0.453451 0
M  V30 15030 C 1438.28 1.68344 0.995982 0
M  V30 15031 O 1439.48 2.26166 1.50204 0
M  V30 15032 C 1437.94 3.51785 -0.759934 0
M  V30 15033 C 1437.55 3.88838 -2.22506 0
M  V30 15034 C 1439.29 4.22347 -0.426973 0
M  V30 15035 C 1437.2 5.37129 -2.47479 0
M  V30 15036 H 1436.13 0.735537 -0.165835 0
M  V30 15037 H 1438.78 1.50851 -1.04481 0
M  V30 15038 H 1437.16 3.95879 -0.0980116 0
M  V30 15039 H 1438.33 3.55756 -2.92873 0
M  V30 15040 H 1436.65 3.31299 -2.52249 0
M  V30 15041 H 1439.25 5.31424 -0.590986 0
M  V30 15042 H 1439.59 4.11485 0.631359 0
M  V30 15043 H 1440.12 3.83835 -1.04477 0
M  V30 15044 H 1436.86 5.53012 -3.51935 0
M  V30 15045 H 1436.38 5.71619 -1.8169 0
M  V30 15046 H 1438.06 6.04204 -2.31401 0
M  V30 15047 N 1438.19 0.611994 1.45232 0
M  V30 15048 C 1439.14 -0.125771 2.27653 0
M  V30 15049 C 1440.13 -0.834397 1.37574 0
M  V30 15050 O 1441.32 -0.72366 1.61531 0
M  V30 15051 C 1438.45 -1.11955 3.24532 0
M  V30 15052 C 1437.53 -0.411537 4.22099 0
M  V30 15053 N 1437.92 0.549272 5.02809 0
M  V30 15054 C 1436.22 -0.658514 4.41112 0
M  V30 15055 C 1436.92 0.965836 5.73626 0
M  V30 15056 N 1435.9 0.308649 5.42723 0
M  V30 15057 H 1439.7 0.612115 2.87455 0
M  V30 15058 H 1437.21 0.436003 1.56438 0
M  V30 15059 H 1439.21 -1.66253 3.82316 0
M  V30 15060 H 1437.87 -1.85795 2.6629 0
M  V30 15061 H 1438.88 0.926222 5.0955 0
M  V30 15062 H 1435.56 -1.38125 3.9399 0
M  V30 15063 H 1436.95 1.75853 6.48479 0
M  V30 15064 N 1439.67 -1.53632 0.351409 0
M  V30 15065 C 1440.92 -2.00222 -0.243731 0
M  V30 15066 C 1441.23 -1.24305 -1.51022 0
M  V30 15067 O 1442.44 -1.61411 -2.18309 0
M  V30 15068 C 1440.89 -3.56619 -0.48487 0
M  V30 15069 C 1440.5 -4.414 0.766173 0
M  V30 15070 C 1442.25 -4.11603 -1.03844 0
M  V30 15071 C 1440.15 -5.89321 0.4954 0
M  V30 15072 H 1439.08 -0.74801 -0.0948534 0
M  V30 15073 H 1441.73 -1.77433 0.467957 0
M  V30 15074 H 1440.12 -3.75505 -1.25746 0
M  V30 15075 H 1441.29 -4.34288 1.54047 0
M  V30 15076 H 1439.6 -3.97448 1.24194 0
M  V30 15077 H 1442.2 -5.19736 -1.25611 0
M  V30 15078 H 1442.54 -3.65311 -1.99634 0
M  V30 15079 H 1443.08 -3.96459 -0.326363 0
M  V30 15080 H 1439.82 -6.39863 1.42324 0
M  V30 15081 H 1439.34 -5.99317 -0.240662 0
M  V30 15082 H 1441.02 -6.46897 0.115584 0
M  V30 15083 N 1441.15 -0.0802183 -1.57396 0
M  V30 15084 C 1442.4 0.586573 -1.92982 0
M  V30 15085 C 1442.71 1.70256 -0.962918 0
M  V30 15086 O 1443.92 2.4295 -1.21193 0
M  V30 15087 C 1442.37 1.09475 -3.42846 0
M  V30 15088 C 1441.98 0.0093098 -4.47999 0
M  V30 15089 C 1443.72 1.73512 -3.87419 0
M  V30 15090 C 1441.63 0.532002 -5.89002 0
M  V30 15091 H 1440.56 0.222878 -0.720306 0
M  V30 15092 H 1443.21 -0.153816 -1.82854 0
M  V30 15093 H 1441.59 1.88836 -3.48076 0
M  V30 15094 H 1442.77 -0.765609 -4.54395 0
M  V30 15095 H 1441.08 -0.535345 -4.12944 0
M  V30 15096 H 1443.68 2.13665 -4.90154 0
M  V30 15097 H 1444.02 2.59845 -3.25248 0
M  V30 15098 H 1444.56 1.00758 -3.84828 0
M  V30 15099 H 1441.29 -0.294364 -6.54839 0
M  V30 15100 H 1440.81 1.27425 -5.86108 0
M  V30 15101 H 1442.49 1.00573 -6.39135 0
M  V30 15102 N 1442.63 1.56409 0.193394 0
M  V30 15103 C 1443.87 1.80367 0.911717 0
M  V30 15104 C 1444.19 0.653561 1.83721 0
M  V30 15105 O 1443.46 -0.328001 1.93135 0
M  V30 15106 H 1442.04 0.665316 0.339652 0
M  V30 15107 H 1444.71 1.93887 0.198496 0
M  V30 15108 H 1443.8 2.7359 1.50182 0
M  V30 15109 N 1444.1 -0.461169 1.50702 0
M  V30 15110 C 1445.38 -1.22225 1.52711 0
M  V30 15111 C 1445.76 -2.09268 0.27749 0
M  V30 15112 O 1445.11 -2.16232 -0.738642 0
M  V30 15113 C 1445.32 -2.04472 2.82829 0
M  V30 15114 C 1446.67 -2.62326 3.33872 0
M  V30 15115 O 1447.69 -2.14706 2.84218 0
M  V30 15116 O 1446.55 -3.49116 4.20453 0
M  V30 15117 H 1443.64 -0.555168 0.612958 0
M  V30 15118 H 1446.19 -0.47218 1.62999 0
M  V30 15119 H 1444.96 -1.40392 3.65247 0
M  V30 15120 H 1444.58 -2.86593 2.75591 0
M  V30 15121 N 1445.58 -1.40446 -0.715026 0
M  V30 15122 C 1446.83 -1.38059 -1.47046 0
M  V30 15123 C 1447.14 0.0139125 -1.95595 0
M  V30 15124 O 1448.35 0.160398 -2.71026 0
M  V30 15125 C 1446.81 -2.42646 -2.65802 0
M  V30 15126 C 1446.41 -3.8791 -2.2412 0
M  V30 15127 C 1448.16 -2.49367 -3.43535 0
M  V30 15128 C 1446.06 -4.84092 -3.39719 0
M  V30 15129 H 1444.99 -0.513341 -0.552265 0
M  V30 15130 H 1447.65 -1.66185 -0.778126 0
M  V30 15131 H 1446.03 -2.07621 -3.37208 0
M  V30 15132 H 1447.2 -4.32082 -1.6013 0
M  V30 15133 H 1445.52 -3.8467 -1.5943 0
M  V30 15134 H 1448.11 -3.18414 -4.29554 0
M  V30 15135 H 1448.46 -1.52436 -3.87388 0
M  V30 15136 H 1448.99 -2.83386 -2.79173 0
M  V30 15137 H 1445.73 -5.82358 -3.00898 0
M  V30 15138 H 1445.25 -4.44584 -4.02623 0
M  V30 15139 H 1446.93 -5.03939 -4.05776 0
M  V30 15140 N 1447.06 0.947303 -1.25952 0
M  V30 15141 C 1448.01 2.06642 -1.06779 0
M  V30 15142 C 1449 1.694 0.00348362 0
M  V30 15143 O 1450.21 1.79351 -0.152715 0
M  V30 15144 H 1446.58 0.676499 -0.32841 0
M  V30 15145 H 1448.55 2.19968 -2.01635 0
M  V30 15146 C 1447.3 3.40353 -0.711015 0
M  V30 15147 H 1446.63 3.69483 -1.52718 0
M  V30 15148 H 1448.07 4.19493 -0.616606 0
M  V30 15149 C 1446.52 3.3181 0.58344 0
M  V30 15150 O 1447.05 3.67431 1.6235 0
M  V30 15151 N 1445.26 2.84919 0.571797 0
M  V30 15152 H 1444.81 2.56128 -0.274962 0
M  V30 15153 H 1444.77 2.79586 1.43803 0
M  V30 15154 N 1448.54 1.07657 1.15099 0
M  V30 15155 C 1449.79 0.796589 1.85303 0
M  V30 15156 C 1450.1 -0.679887 1.83404 0
M  V30 15157 O 1451.31 -1.07475 2.49322 0
M  V30 15158 C 1449.76 1.37495 3.326 0
M  V30 15159 C 1449.37 2.88267 3.42938 0
M  V30 15160 C 1451.11 1.17313 4.07968 0
M  V30 15161 C 1449.02 3.39278 4.84401 0
M  V30 15162 H 1447.95 0.294316 0.694186 0
M  V30 15163 H 1450.6 1.29702 1.29806 0
M  V30 15164 H 1448.98 0.802248 3.87789 0
M  V30 15165 H 1450.16 3.51608 2.9784 0
M  V30 15166 H 1448.47 3.07275 2.81018 0
M  V30 15167 H 1451.07 1.52899 5.12373 0
M  V30 15168 H 1451.41 0.112387 4.16148 0
M  V30 15169 H 1451.95 1.71236 3.59059 0
M  V30 15170 H 1448.69 4.44892 4.81406 0
M  V30 15171 H 1448.21 2.80692 5.30068 0
M  V30 15172 H 1449.88 3.35416 5.53267 0
M  V30 15173 N 1450.02 -1.31994 0.861122 0
M  V30 15174 C 1451.43 -1.49756 0.551844 0
M  V30 15175 C 1451.63 -1.79473 -0.916056 0
M  V30 15176 O 1450.69 -1.86813 -1.69874 0
M  V30 15177 C 1452 -2.63737 1.44442 0
M  V30 15178 C 1453.55 -2.77621 1.44552 0
M  V30 15179 C 1454.02 -3.94689 2.32346 0
M  V30 15180 N 1455.52 -4.01961 2.30177 0
M  V30 15181 C 1456.25 -4.91794 2.94833 0
M  V30 15182 N 1455.75 -5.86589 3.68626 0
M  V30 15183 N 1457.54 -4.84968 2.84188 0
M  V30 15184 H 1449.69 -1.10972 1.81105 0
M  V30 15185 H 1451.95 -0.54753 0.773896 0
M  V30 15186 H 1451.66 -2.48526 2.48853 0
M  V30 15187 H 1451.53 -3.59671 1.13651 0
M  V30 15188 H 1453.92 -2.92251 0.409034 0
M  V30 15189 H 1454 -1.8238 1.79363 0
M  V30 15190 H 1453.65 -3.80817 3.36067 0
M  V30 15191 H 1453.58 -4.89219 1.94865 0
M  V30 15192 H 1456.07 -3.34132 1.76533 0
M  V30 15193 H 1456.38 -6.51846 4.15111 0
M  V30 15194 H 1454.72 -5.86596 3.72734 0
M  V30 15195 H 1457.92 -4.09883 2.26084 0
M  V30 15196 H 1458.09 -5.54774 3.34857 0
M  V30 15197 N 1451.49 -0.619688 -1.44906 0
M  V30 15198 C 1452.91 -0.203309 -1.8559 0
M  V30 15199 C 1453.26 1.24265 -1.51831 0
M  V30 15200 O 1452.38 1.94392 -0.950819 0
M  V30 15201 C 1452.98 -0.362204 -3.36858 0
M  V30 15202 C 1451.54 -0.000423575 -3.764 0
M  V30 15203 C 1450.68 -0.680979 -2.68808 0
M  V30 15204 H 1453.63 -0.825595 -1.35535 0
M  V30 15205 H 1453.65 0.402149 -3.78369 0
M  V30 15206 H 1453.17 -1.41468 -3.61398 0
M  V30 15207 H 1451.27 1.05077 -3.57477 0
M  V30 15208 H 1451.38 -0.402508 -4.77406 0
M  V30 15209 H 1449.74 -0.117407 -2.54429 0
M  V30 15210 H 1450.53 -1.73583 -2.96182 0
M  V30 15211 N 1452.97 1.53444 -0.359552 0
M  V30 15212 C 1453.92 2.27053 0.504949 0
M  V30 15213 C 1454.91 1.29801 1.08849 0
M  V30 15214 O 1456.12 1.47451 1.03239 0
M  V30 15215 H 1452.5 0.729756 0.181549 0
M  V30 15216 H 1454.47 2.98082 -0.137719 0
M  V30 15217 C 1453.22 3.06815 1.63585 0
M  V30 15218 H 1452.54 3.81488 1.19611 0
M  V30 15219 H 1453.98 3.61508 2.21558 0
M  V30 15220 C 1452.44 2.17286 2.57466 0
M  V30 15221 O 1452.97 1.77961 3.60129 0
M  V30 15222 N 1451.17 1.82041 2.26516 0
M  V30 15223 H 1450.72 2.14218 1.43068 0
M  V30 15224 H 1450.68 1.22423 2.89586 0
M  V30 15225 N 1454.45 0.0885642 1.57351 0
M  V30 15226 C 1455.4 -0.872723 2.13664 0
M  V30 15227 C 1456.37 -1.28418 1.05347 0
M  V30 15228 O 1457.55 -1.36709 1.33099 0
M  V30 15229 C 1454.69 -2.12886 2.71613 0
M  V30 15230 C 1453.81 -1.76852 3.94141 0
M  V30 15231 C 1452.94 -2.97203 4.40277 0
M  V30 15232 C 1451.98 -2.57265 5.55411 0
M  V30 15233 N 1451.12 -3.70429 5.96428 0
M  V30 15234 H 1455.96 -0.385644 2.95494 0
M  V30 15235 H 1453.49 -0.178688 1.46011 0
M  V30 15236 H 1455.45 -2.86441 3.03327 0
M  V30 15237 H 1454.08 -2.59105 1.92521 0
M  V30 15238 H 1453.13 -0.932921 3.68783 0
M  V30 15239 H 1454.45 -1.43481 4.77718 0
M  V30 15240 H 1453.6 -3.79019 4.7374 0
M  V30 15241 H 1452.34 -3.3378 3.55587 0
M  V30 15242 H 1451.34 -1.73875 5.21582 0
M  V30 15243 H 1452.57 -2.21839 6.41844 0
M  V30 15244 H 1450.51 -4.06737 5.14686 0
M  V30 15245 H 1450.43 -3.40881 6.74786 0
M  V30 15246 H 1451.7 -4.52774 6.3452 0
M  V30 15247 N 1455.93 -1.56509 -0.185096 0
M  V30 15248 C 1456.84 -1.98552 -1.24958 0
M  V30 15249 C 1457.85 -0.894713 -1.49234 0
M  V30 15250 O 1459.03 -1.20126 -1.61653 0
M  V30 15251 C 1456.1 -2.32513 -2.57175 0
M  V30 15252 C 1455.16 -3.55351 -2.40882 0
M  V30 15253 C 1454.39 -3.87683 -3.66794 0
M  V30 15254 O 1454.61 -3.21167 -4.7139 0
M  V30 15255 O 1453.55 -4.8108 -3.61726 0
M  V30 15256 H 1457.37 -2.89342 -0.922756 0
M  V30 15257 H 1454.96 -1.44196 -0.390887 0
M  V30 15258 H 1456.84 -2.55387 -3.35195 0
M  V30 15259 H 1455.51 -1.44888 -2.89464 0
M  V30 15260 H 1454.42 -3.37712 -1.60939 0
M  V30 15261 H 1455.75 -4.43474 -2.13522 0
M  V30 15262 N 1457.41 0.45317 -1.50944 0
M  V30 15263 C 1458.63 1.23136 -1.6689 0
M  V30 15264 C 1459.06 1.84639 -0.359185 0
M  V30 15265 O 1458.41 1.68106 0.678983 0
M  V30 15266 C 1458.46 2.30275 -2.77499 0
M  V30 15267 O 1457.57 3.35371 -2.39999 0
M  V30 15268 H 1456.91 0.361475 -0.556984 0
M  V30 15269 H 1459.44 0.537174 -1.97422 0
M  V30 15270 H 1459.45 2.75309 -3.01113 0
M  V30 15271 H 1458.12 1.84885 -3.72546 0
M  V30 15272 H 1456.7 2.95924 -2.26899 0
M  V30 15273 N 1458.88 1.40823 0.707568 0
M  V30 15274 C 1460.13 1.40743 1.46843 0
M  V30 15275 C 1460.49 0.0119104 1.92396 0
M  V30 15276 O 1459.78 -0.960008 1.65814 0
M  V30 15277 C 1459.97 2.33829 2.70294 0
M  V30 15278 C 1459.8 3.82294 2.36816 0
M  V30 15279 C 1458.57 4.51056 2.27764 0
M  V30 15280 C 1460.77 4.7358 2.00565 0
M  V30 15281 N 1458.75 5.84711 1.87045 0
M  V30 15282 C 1460.12 5.96093 1.7051 0
M  V30 15283 C 1462.18 4.6134 1.8727 0
M  V30 15284 C 1460.88 7.07729 1.28497 0
M  V30 15285 C 1462.91 5.72926 1.46662 0
M  V30 15286 C 1462.27 6.94529 1.1751 0
M  V30 15287 H 1458.37 0.570255 0.535101 0
M  V30 15288 H 1460.95 1.766 0.81979 0
M  V30 15289 H 1459.12 2.00087 3.32896 0
M  V30 15290 H 1460.85 2.2455 3.36689 0
M  V30 15291 H 1457.61 4.04839 2.45768 0
M  V30 15292 H 1458.03 6.55515 1.69201 0
M  V30 15293 H 1462.68 3.67834 2.08467 0
M  V30 15294 H 1460.39 8.01112 1.06044 0
M  V30 15295 H 1463.98 5.65454 1.36942 0
M  V30 15296 H 1462.86 7.79408 0.865604 0
M  V30 15297 N 1460.36 -0.94061 1.26453 0
M  V30 15298 C 1461.31 -2.03941 1.08059 0
M  V30 15299 C 1462.28 -1.66094 -0.0145388 0
M  V30 15300 O 1463.46 -1.90246 0.145338 0
M  V30 15301 C 1460.6 -3.37501 0.720228 0
M  V30 15302 C 1459.72 -3.88381 1.89167 0
M  V30 15303 C 1458.85 -5.10329 1.47437 0
M  V30 15304 C 1457.89 -5.53473 2.61408 0
M  V30 15305 N 1457.03 -6.66624 2.20355 0
M  V30 15306 H 1461.87 -2.19006 2.0209 0
M  V30 15307 H 1459.41 -1.07305 1.00618 0
M  V30 15308 H 1461.36 -4.14287 0.492177 0
M  V30 15309 H 1459.99 -3.2228 -0.183101 0
M  V30 15310 H 1459.05 -3.0799 2.23264 0
M  V30 15311 H 1460.36 -4.16338 2.74708 0
M  V30 15312 H 1459.51 -5.94577 1.20679 0
M  V30 15313 H 1458.25 -4.8412 0.589873 0
M  V30 15314 H 1457.26 -4.67782 2.88894 0
M  V30 15315 H 1458.48 -5.81684 3.50458 0
M  V30 15316 H 1456.43 -6.42097 1.34341 0
M  V30 15317 H 1456.34 -6.9417 2.99439 0
M  V30 15318 H 1457.61 -7.54245 1.96811 0
M  V30 15319 N 1461.84 -1.08266 -1.14527 0
M  V30 15320 C 1463.09 -0.812661 -1.85805 0
M  V30 15321 C 1463.42 0.659878 -1.82645 0
M  V30 15322 O 1462.69 1.48498 -1.25612 0
M  V30 15323 C 1462.98 -1.33335 -3.34505 0
M  V30 15324 C 1462.83 -2.87113 -3.46246 0
M  V30 15325 C 1464.15 -0.957435 -4.29559 0
M  V30 15326 H 1461.27 -0.296681 -0.674648 0
M  V30 15327 H 1463.91 -1.34203 -1.34497 0
M  V30 15328 H 1462.06 -0.883056 -3.78331 0
M  V30 15329 H 1463.73 -3.40502 -3.11217 0
M  V30 15330 H 1461.98 -3.24845 -2.87504 0
M  V30 15331 H 1462.65 -3.18618 -4.50762 0
M  V30 15332 H 1465.12 -1.3456 -3.93742 0
M  V30 15333 H 1464 -1.34897 -5.32066 0
M  V30 15334 H 1464.26 0.135689 -4.41892 0
M  V30 15335 N 1463.32 1.31536 -0.86811 0
M  V30 15336 C 1464.57 1.96775 -0.47812 0
M  V30 15337 C 1464.89 1.68632 0.9692 0
M  V30 15338 O 1464.15 0.974357 1.6972 0
M  V30 15339 C 1464.45 3.50876 -0.679752 0
M  V30 15340 C 1464.11 3.99034 -2.09958 0
M  V30 15341 C 1462.78 4.11896 -2.48787 0
M  V30 15342 C 1465.13 4.24387 -3.02564 0
M  V30 15343 C 1462.46 4.47461 -3.79468 0
M  V30 15344 C 1464.81 4.61415 -4.32757 0
M  V30 15345 C 1463.47 4.72484 -4.71503 0
M  V30 15346 H 1462.74 0.720049 -0.174957 0
M  V30 15347 H 1465.39 1.56703 -1.10074 0
M  V30 15348 H 1463.69 3.91791 0.0260174 0
M  V30 15349 H 1465.39 3.994 -0.357855 0
M  V30 15350 H 1461.98 3.89518 -1.78811 0
M  V30 15351 H 1466.17 4.13947 -2.73791 0
M  V30 15352 H 1461.42 4.54227 -4.09252 0
M  V30 15353 H 1465.6 4.79985 -5.04566 0
M  V30 15354 H 1463.22 4.99798 -5.72806 0
M  V30 15355 N 1464.8 0.627364 1.44575 0
M  V30 15356 C 1465.71 -0.0811184 2.3446 0
M  V30 15357 C 1466.72 -0.839668 1.52399 0
M  V30 15358 O 1467.9 -0.792784 1.8514 0
M  V30 15359 C 1464.96 -1.05296 3.30323 0
M  V30 15360 C 1464.03 -0.294201 4.28291 0
M  V30 15361 C 1463.26 -1.21975 5.19575 0
M  V30 15362 O 1463.48 -2.45834 5.14706 0
M  V30 15363 O 1462.42 -0.70611 5.97744 0
M  V30 15364 H 1466.24 0.658067 2.96485 0
M  V30 15365 H 1463.83 0.387565 1.44285 0
M  V30 15366 H 1465.71 -1.61218 3.89341 0
M  V30 15367 H 1464.38 -1.77283 2.70837 0
M  V30 15368 H 1463.29 0.307969 3.7283 0
M  V30 15369 H 1464.62 0.385567 4.90687 0
M  V30 15370 N 1466.28 -1.53251 0.367684 0
M  V30 15371 C 1467.19 -2.29518 -0.485669 0
M  V30 15372 C 1468.2 -1.35568 -1.09075 0
M  V30 15373 O 1469.38 -1.68626 -1.10124 0
M  V30 15374 C 1466.44 -3.07115 -1.60876 0
M  V30 15375 C 1465.5 -4.16736 -1.031 0
M  V30 15376 C 1464.74 -4.90624 -2.10056 0
M  V30 15377 O 1464.96 -4.64393 -3.31203 0
M  V30 15378 O 1463.89 -5.76503 -1.72996 0
M  V30 15379 H 1467.72 -3.034 0.135017 0
M  V30 15380 H 1465.3 -1.48816 0.132005 0
M  V30 15381 H 1467.19 -3.55564 -2.26168 0
M  V30 15382 H 1465.86 -2.36068 -2.21481 0
M  V30 15383 H 1464.77 -3.72534 -0.341928 0
M  V30 15384 H 1466.1 -4.89956 -0.469473 0
M  V30 15385 N 1467.75 -0.0969077 -1.57302 0
M  V30 15386 C 1468.69 0.898042 -2.09787 0
M  V30 15387 C 1469.66 1.27518 -1.00886 0
M  V30 15388 O 1470.85 1.3801 -1.28396 0
M  V30 15389 C 1467.98 2.19868 -2.57635 0
M  V30 15390 C 1467.02 1.97127 -3.7821 0
M  V30 15391 S 1467.85 1.20763 -5.21705 0
M  V30 15392 C 1469.01 2.52054 -5.72905 0
M  V30 15393 H 1469.24 0.451544 -2.93851 0
M  V30 15394 H 1466.78 0.116417 -1.5396 0
M  V30 15395 H 1468.73 2.9461 -2.85859 0
M  V30 15396 H 1467.4 2.61639 -1.73793 0
M  V30 15397 H 1466.59 2.93445 -4.09763 0
M  V30 15398 H 1466.19 1.30515 -3.50488 0
M  V30 15399 H 1468.48 3.4802 -5.81282 0
M  V30 15400 H 1469.43 2.25077 -6.71376 0
M  V30 15401 H 1469.83 2.6041 -5.00846 0
M  V30 15402 N 1469.23 1.56605 0.176793 0
M  V30 15403 C 1470.48 1.80875 0.892578 0
M  V30 15404 C 1470.79 0.673245 1.83648 0
M  V30 15405 O 1472 0.800732 2.59423 0
M  V30 15406 C 1470.46 3.20481 1.63768 0
M  V30 15407 C 1470.06 4.41885 0.737685 0
M  V30 15408 C 1471.81 3.54048 2.34202 0
M  V30 15409 C 1469.71 5.72512 1.48271 0
M  V30 15410 H 1468.64 0.674476 0.337042 0
M  V30 15411 H 1471.3 1.82922 0.145574 0
M  V30 15412 H 1469.68 3.12736 2.42924 0
M  V30 15413 H 1470.85 4.60797 -0.0165186 0
M  V30 15414 H 1469.17 4.16153 0.143277 0
M  V30 15415 H 1471.76 4.48886 2.90526 0
M  V30 15416 H 1472.11 2.78665 3.09276 0
M  V30 15417 H 1472.64 3.63322 1.61995 0
M  V30 15418 H 1469.38 6.5091 0.774399 0
M  V30 15419 H 1468.9 5.57586 2.21038 0
M  V30 15420 H 1470.58 6.14274 2.03165 0
M  V30 15421 N 1470.71 -0.445159 1.51182 0
M  V30 15422 C 1471.62 -1.5651 1.74762 0
M  V30 15423 C 1472.64 -1.62134 0.631542 0
M  V30 15424 O 1473.81 -1.79522 0.912898 0
M  V30 15425 C 1470.88 -2.92552 1.86049 0
M  V30 15426 C 1469.94 -2.97108 3.0988 0
M  V30 15427 C 1469.17 -4.2666 3.2062 0
M  V30 15428 O 1469.39 -5.18608 2.37491 0
M  V30 15429 O 1468.33 -4.3734 4.13542 0
M  V30 15430 H 1472.15 -1.3953 2.6975 0
M  V30 15431 H 1469.74 -0.627363 1.3559 0
M  V30 15432 H 1471.62 -3.73304 1.95504 0
M  V30 15433 H 1470.3 -3.09676 0.94248 0
M  V30 15434 H 1469.2 -2.15338 3.05909 0
M  V30 15435 H 1470.54 -2.84927 4.01345 0
M  V30 15436 N 1472.19 -1.41197 -0.700089 0
M  V30 15437 C 1473.6 -1.3593 -1.27985 0
M  V30 15438 C 1473.95 -0.0402059 -1.96159 0
M  V30 15439 O 1473.07 0.861611 -1.98508 0
M  V30 15440 C 1473.67 -2.46203 -2.32743 0
M  V30 15441 C 1472.23 -2.44348 -2.86306 0
M  V30 15442 C 1471.38 -2.26283 -1.60285 0
M  V30 15443 H 1474.33 -1.50778 -0.495152 0
M  V30 15444 H 1474.35 -2.15001 -3.13934 0
M  V30 15445 H 1473.86 -3.42195 -1.83096 0
M  V30 15446 H 1471.96 -1.521 -3.40142 0
M  V30 15447 H 1472.07 -3.40497 -3.37044 0
M  V30 15448 H 1470.44 -1.74078 -1.85928 0
M  V30 15449 H 1471.22 -3.24295 -1.1264 0
M  V30 15450 N 1473.67 0.933891 -1.2695 0
M  V30 15451 C 1474.9 1.71263 -1.15553 0
M  V30 15452 C 1475.3 1.86948 0.291059 0
M  V30 15453 O 1474.65 1.38173 1.21053 0
M  V30 15454 C 1474.71 3.13479 -1.75986 0
M  V30 15455 C 1474.37 3.21154 -3.2513 0
M  V30 15456 C 1475.37 3.03874 -4.21849 0
M  V30 15457 C 1473.05 3.44311 -3.65726 0
M  V30 15458 C 1475.05 3.09631 -5.57142 0
M  V30 15459 C 1472.74 3.49702 -5.01151 0
M  V30 15460 C 1473.73 3.32379 -5.96668 0
M  V30 15461 O 1473.42 3.37493 -7.29626 0
M  V30 15462 H 1473.15 0.542801 -0.402918 0
M  V30 15463 H 1475.71 1.17877 -1.68209 0
M  V30 15464 H 1473.94 3.6832 -1.178 0
M  V30 15465 H 1475.63 3.73295 -1.59391 0
M  V30 15466 H 1476.39 2.85832 -3.91823 0
M  V30 15467 H 1472.27 3.56847 -2.91859 0
M  V30 15468 H 1475.82 2.96028 -6.31675 0
M  V30 15469 H 1471.71 3.67267 -5.30835 0
M  V30 15470 H 1472.48 3.53988 -7.37994 0
M  V30 15471 N 1475.14 1.08871 1.13951 0
M  V30 15472 C 1476.56 0.817282 1.37086 0
M  V30 15473 C 1476.76 -0.571159 1.93236 0
M  V30 15474 O 1475.82 -1.32708 2.14813 0
M  V30 15475 C 1477.13 1.90386 2.32752 0
M  V30 15476 C 1478.68 1.93043 2.46381 0
M  V30 15477 C 1479.15 3.00828 3.4535 0
M  V30 15478 N 1480.64 3.0003 3.52897 0
M  V30 15479 C 1481.38 3.80073 4.29339 0
M  V30 15480 N 1480.87 4.70008 5.08984 0
M  V30 15481 N 1482.67 3.68355 4.24583 0
M  V30 15482 H 1474.82 1.98393 0.758537 0
M  V30 15483 H 1477.08 0.861229 0.396219 0
M  V30 15484 H 1476.79 2.90233 1.9864 0
M  V30 15485 H 1476.66 1.77722 3.32708 0
M  V30 15486 H 1479.05 0.938382 2.79783 0
M  V30 15487 H 1479.13 2.09785 1.4637 0
M  V30 15488 H 1478.77 4.00242 3.1268 0
M  V30 15489 H 1478.7 2.8133 4.45153 0
M  V30 15490 H 1481.19 2.3485 2.96064 0
M  V30 15491 H 1481.51 5.27678 5.64602 0
M  V30 15492 H 1479.85 4.74047 5.08236 0
M  V30 15493 H 1483.04 2.9746 3.61435 0
M  V30 15494 H 1483.22 4.30974 4.83906 0
M  V30 15495 N 1476.62 -1.31073 0.875073 0
M  V30 15496 C 1477.55 -2.30855 0.350468 0
M  V30 15497 C 1478.53 -1.60569 -0.561384 0
M  V30 15498 O 1479.72 -1.88242 -0.477329 0
M  V30 15499 C 1476.85 -3.44444 -0.444493 0
M  V30 15500 C 1475.8 -4.26357 0.374716 0
M  V30 15501 C 1475.13 -5.31903 -0.546243 0
M  V30 15502 C 1476.43 -4.96817 1.61153 0
M  V30 15503 H 1478.12 -2.74983 1.18427 0
M  V30 15504 H 1475.67 -1.32199 0.570909 0
M  V30 15505 H 1477.62 -4.13304 -0.82206 0
M  V30 15506 H 1476.34 -2.99096 -1.31185 0
M  V30 15507 H 1475 -3.59171 0.734295 0
M  V30 15508 H 1474.65 -4.82803 -1.41102 0
M  V30 15509 H 1474.35 -5.876 -0.00198173 0
M  V30 15510 H 1475.88 -6.03621 -0.920542 0
M  V30 15511 H 1477.29 -5.58247 1.30511 0
M  V30 15512 H 1475.69 -5.62334 2.09524 0
M  V30 15513 H 1476.76 -4.2351 2.36151 0
M  V30 15514 N 1478.1 -0.635022 -1.4424 0
M  V30 15515 C 1479.05 0.0895375 -2.27824 0
M  V30 15516 C 1480.03 0.812405 -1.38884 0
M  V30 15517 O 1481.23 0.69787 -1.62662 0
M  V30 15518 C 1478.36 1.06778 -3.26272 0
M  V30 15519 C 1477.44 0.344333 -4.227 0
M  V30 15520 N 1477.83 -0.629195 -5.01871 0
M  V30 15521 C 1476.13 0.588254 -4.42104 0
M  V30 15522 C 1476.83 -1.05697 -5.72017 0
M  V30 15523 N 1475.81 -0.394953 -5.42163 0
M  V30 15524 H 1479.61 -0.65777 -2.86445 0
M  V30 15525 H 1477.12 -0.460836 -1.55724 0
M  V30 15526 H 1479.12 1.6015 -3.84913 0
M  V30 15527 H 1477.78 1.81535 -2.69212 0
M  V30 15528 H 1478.79 -1.00717 -5.08012 0
M  V30 15529 H 1475.47 1.31839 -3.96137 0
M  V30 15530 H 1476.86 -1.86148 -6.45599 0
M  V30 15531 N 1479.58 1.53054 -0.375806 0
M  V30 15532 C 1480.49 2.29772 0.47349 0
M  V30 15533 C 1481.5 1.36144 1.08355 0
M  V30 15534 O 1482.68 1.69208 1.09228 0
M  V30 15535 C 1479.75 3.07964 1.59245 0
M  V30 15536 C 1478.81 4.17277 1.00888 0
M  V30 15537 C 1478.04 4.91731 2.07451 0
M  V30 15538 O 1478.26 4.66143 3.28736 0
M  V30 15539 O 1477.2 5.77413 1.69936 0
M  V30 15540 H 1481.02 3.03324 -0.151105 0
M  V30 15541 H 1478.61 1.48744 -0.139895 0
M  V30 15542 H 1480.49 3.56759 2.24279 0
M  V30 15543 H 1479.16 2.37239 2.20226 0
M  V30 15544 H 1478.07 3.7271 0.322167 0
M  V30 15545 H 1479.4 4.90198 0.443483 0
M  V30 15546 N 1481.06 0.105248 1.57248 0
M  V30 15547 C 1482.28 -0.567515 1.99484 0
M  V30 15548 C 1482.71 -1.60298 0.984182 0
M  V30 15549 O 1482.06 -1.81242 -0.0459944 0
M  V30 15550 C 1482.11 -1.18271 3.40653 0
M  V30 15551 O 1481.22 -2.29843 3.42412 0
M  V30 15552 H 1480.56 -0.143069 0.648404 0
M  V30 15553 H 1483.09 0.189661 2.03719 0
M  V30 15554 H 1483.1 -1.52157 3.78566 0
M  V30 15555 H 1481.77 -0.424179 4.13731 0
M  V30 15556 H 1480.35 -1.975 3.16304 0
M  V30 15557 N 1482.53 -1.56697 -0.168486 0
M  V30 15558 C 1483.77 -1.83952 -0.891116 0
M  V30 15559 C 1484.14 -0.68657 -1.79305 0
M  V30 15560 O 1485.34 -0.839644 -2.5535 0
M  V30 15561 C 1483.61 -3.16331 -1.66342 0
M  V30 15562 S 1485.17 -3.65077 -2.43442 0
M  V30 15563 H 1481.99 -0.645349 -0.298405 0
M  V30 15564 H 1484.59 -1.94904 -0.152554 0
M  V30 15565 H 1483.29 -3.98233 -0.991915 0
M  V30 15566 H 1482.82 -3.08328 -2.4433 0
M  V30 15567 H 1484.84 -3.32629 -3.68201 0
M  V30 15568 N 1484.01 0.437135 -1.51416 0
M  V30 15569 C 1484.96 1.53061 -1.72745 0
M  V30 15570 C 1485.93 1.56045 -0.569149 0
M  V30 15571 O 1487.11 1.73052 -0.803602 0
M  V30 15572 C 1484.25 2.90774 -1.85861 0
M  V30 15573 C 1483.37 2.97318 -3.1341 0
M  V30 15574 C 1482.5 4.26156 -3.1712 0
M  V30 15575 C 1481.54 4.26568 -4.38983 0
M  V30 15576 N 1480.68 5.4693 -4.40241 0
M  V30 15577 H 1485.52 1.34177 -2.66084 0
M  V30 15578 H 1483.06 0.651803 -1.31871 0
M  V30 15579 H 1485.01 3.7068 -1.91447 0
M  V30 15580 H 1483.64 3.08216 -0.959306 0
M  V30 15581 H 1482.7 2.10074 -3.17132 0
M  V30 15582 H 1484.01 2.93485 -4.03321 0
M  V30 15583 H 1483.16 5.14435 -3.21623 0
M  V30 15584 H 1481.9 4.32646 -2.25098 0
M  V30 15585 H 1480.91 3.36681 -4.34656 0
M  V30 15586 H 1482.13 4.21741 -5.3227 0
M  V30 15587 H 1480.08 5.54141 -3.51089 0
M  V30 15588 H 1479.99 5.44977 -5.23962 0
M  V30 15589 H 1481.26 6.37241 -4.48937 0
M  V30 15590 N 1485.49 1.41566 0.692592 0
M  V30 15591 C 1486.77 1.31572 1.44735 0
M  V30 15592 C 1487.15 -0.0553081 2.11028 0
M  V30 15593 O 1486.5 -1.06974 2.01913 0
M  V30 15594 C 1486.71 2.47125 2.46435 0
M  V30 15595 C 1488.05 2.88427 3.11601 0
M  V30 15596 O 1489.08 2.46886 2.5676 0
M  V30 15597 O 1487.94 3.6027 4.10935 0
M  V30 15598 H 1485.03 0.517949 0.644715 0
M  V30 15599 H 1487.58 1.53536 0.722818 0
M  V30 15600 H 1486.35 3.38601 1.96124 0
M  V30 15601 H 1485.97 2.27054 3.26393 0
M  V30 15602 N 1486.97 -0.927146 1.27443 0
M  V30 15603 C 1487.9 -2.04483 1.12735 0
M  V30 15604 C 1488.88 -1.70076 0.0286662 0
M  V30 15605 O 1490.06 -1.93133 0.203252 0
M  V30 15606 C 1487.19 -3.38557 0.774352 0
M  V30 15607 C 1486.15 -3.87078 1.82632 0
M  V30 15608 C 1485.47 -5.17964 1.32729 0
M  V30 15609 C 1486.77 -4.10409 3.23051 0
M  V30 15610 H 1488.47 -2.17046 2.06231 0
M  V30 15611 H 1486.01 -1.04292 0.992937 0
M  V30 15612 H 1487.97 -4.16227 0.658273 0
M  V30 15613 H 1486.69 -3.26009 -0.196321 0
M  V30 15614 H 1485.35 -3.11602 1.93132 0
M  V30 15615 H 1485 -5.01808 0.346059 0
M  V30 15616 H 1484.7 -5.51398 2.03061 0
M  V30 15617 H 1486.22 -5.98203 1.22416 0
M  V30 15618 H 1487.64 -4.78646 3.15549 0
M  V30 15619 H 1486.03 -4.5515 3.91099 0
M  V30 15620 H 1487.1 -3.15685 3.68064 0
M  V30 15621 N 1488.45 -1.09474 -1.13372 0
M  V30 15622 C 1489.67 -0.852921 -1.88502 0
M  V30 15623 C 1490.09 0.595855 -1.79151 0
M  V30 15624 O 1489.45 1.41019 -1.15845 0
M  V30 15625 C 1489.5 -1.27993 -3.38083 0
M  V30 15626 O 1489.22 -2.67189 -3.47191 0
M  V30 15627 C 1490.72 -1.07056 -4.30179 0
M  V30 15628 H 1487.94 -0.30682 -0.596743 0
M  V30 15629 H 1490.48 -1.45685 -1.43513 0
M  V30 15630 H 1488.64 -0.719879 -3.80653 0
M  V30 15631 H 1489.05 -2.85202 -4.40182 0
M  V30 15632 H 1490.53 -1.4186 -5.3346 0
M  V30 15633 H 1491 -0.00838732 -4.39199 0
M  V30 15634 H 1491.61 -1.61659 -3.93378 0
M  V30 15635 N 1489.92 1.30607 -0.882012 0
M  V30 15636 C 1491.15 2.00418 -0.513815 0
M  V30 15637 C 1491.57 1.66135 0.896916 0
M  V30 15638 O 1490.92 0.89691 1.5894 0
M  V30 15639 C 1490.98 3.55133 -0.675503 0
M  V30 15640 O 1490.7 3.88194 -2.03069 0
M  V30 15641 C 1492.2 4.42215 -0.309906 0
M  V30 15642 H 1489.42 0.640839 -0.198913 0
M  V30 15643 H 1491.96 1.66561 -1.1865 0
M  V30 15644 H 1490.12 3.87367 -0.0502289 0
M  V30 15645 H 1490.53 4.82899 -2.04717 0
M  V30 15646 H 1492 5.49962 -0.473948 0
M  V30 15647 H 1492.48 4.32717 0.751852 0
M  V30 15648 H 1493.09 4.1542 -0.91138 0
M  V30 15649 N 1491.4 0.642663 1.43901 0
M  V30 15650 C 1492.37 -0.0457858 2.29154 0
M  V30 15651 C 1493.37 -0.760988 1.41653 0
M  V30 15652 O 1494.56 -0.603832 1.634 0
M  V30 15653 C 1491.69 -1.07552 3.23489 0
M  V30 15654 H 1492.88 0.704193 2.91515 0
M  V30 15655 H 1490.43 0.403361 1.51006 0
M  V30 15656 H 1491.17 -1.85509 2.66002 0
M  V30 15657 H 1490.95 -0.566468 3.87987 0
M  V30 15658 H 1492.44 -1.55663 3.87503 0
M  V30 15659 N 1492.88 -1.52852 0.383918 0
M  V30 15660 C 1493.79 -2.3002 -0.461298 0
M  V30 15661 C 1494.81 -1.36717 -1.07631 0
M  V30 15662 O 1495.98 -1.69784 -1.08329 0
M  V30 15663 C 1493.05 -3.08804 -1.57609 0
M  V30 15664 C 1492.11 -4.17806 -0.986737 0
M  V30 15665 C 1491.34 -4.92825 -2.04841 0
M  V30 15666 O 1491.57 -4.67879 -3.26259 0
M  V30 15667 O 1490.5 -5.78306 -1.66871 0
M  V30 15668 H 1494.33 -3.03239 0.167189 0
M  V30 15669 H 1491.91 -1.48667 0.147781 0
M  V30 15670 H 1493.79 -3.57943 -2.22384 0
M  V30 15671 H 1492.47 -2.38404 -2.18964 0
M  V30 15672 H 1491.37 -3.72876 -0.302396 0
M  V30 15673 H 1492.71 -4.90426 -0.417481 0
M  V30 15674 N 1494.36 -0.113586 -1.5719 0
M  V30 15675 C 1495.31 0.83862 -2.15025 0
M  V30 15676 C 1496.28 1.26726 -1.07376 0
M  V30 15677 O 1497.46 1.34574 -1.35257 0
M  V30 15678 C 1494.6 2.08538 -2.74965 0
M  V30 15679 C 1493.71 1.70559 -3.96905 0
M  V30 15680 C 1492.85 2.90161 -4.44949 0
M  V30 15681 C 1491.89 2.48396 -5.59433 0
M  V30 15682 N 1491.03 3.60894 -6.02246 0
M  V30 15683 H 1495.87 0.338585 -2.9607 0
M  V30 15684 H 1493.4 0.155437 -1.46276 0
M  V30 15685 H 1495.36 2.81579 -3.07846 0
M  V30 15686 H 1493.99 2.56009 -1.96619 0
M  V30 15687 H 1493.04 0.874133 -3.7022 0
M  V30 15688 H 1494.35 1.35863 -4.7994 0
M  V30 15689 H 1493.51 3.71434 -4.7971 0
M  V30 15690 H 1492.25 3.28081 -3.60852 0
M  V30 15691 H 1491.25 1.65555 -5.24282 0
M  V30 15692 H 1492.48 2.116 -6.45292 0
M  V30 15693 H 1490.42 3.98497 -5.21091 0
M  V30 15694 H 1490.34 3.30103 -6.80124 0
M  V30 15695 H 1491.61 4.42622 -6.41643 0
M  V30 15696 N 1495.84 1.56784 0.160173 0
M  V30 15697 C 1496.77 2.00298 1.20012 0
M  V30 15698 C 1497.75 0.880356 1.45546 0
M  V30 15699 O 1498.93 1.14724 1.56691 0
M  V30 15700 C 1496.06 2.37238 2.53645 0
M  V30 15701 C 1495.02 3.52563 2.42658 0
M  V30 15702 C 1494.34 3.75278 3.80881 0
M  V30 15703 C 1495.64 4.85657 1.92183 0
M  V30 15704 H 1497.34 2.87423 0.838362 0
M  V30 15705 H 1494.88 1.3828 0.401838 0
M  V30 15706 H 1496.84 2.66278 3.2661 0
M  V30 15707 H 1495.56 1.47035 2.9163 0
M  V30 15708 H 1494.22 3.23669 1.72146 0
M  V30 15709 H 1493.87 2.82347 4.1628 0
M  V30 15710 H 1493.57 4.52882 3.74396 0
M  V30 15711 H 1495.09 4.0673 4.55415 0
M  V30 15712 H 1496.51 5.13501 2.54931 0
M  V30 15713 H 1494.9 5.66975 1.96619 0
M  V30 15714 H 1495.97 4.76908 0.876742 0
M  V30 15715 N 1497.32 -0.429099 1.51646 0
M  V30 15716 C 1498.26 -1.52143 1.73554 0
M  V30 15717 C 1499.23 -1.55741 0.577416 0
M  V30 15718 O 1500.42 -1.72623 0.812768 0
M  V30 15719 C 1497.56 -2.89785 1.874 0
M  V30 15720 C 1496.67 -2.95652 3.14982 0
M  V30 15721 C 1495.81 -4.24468 3.19375 0
M  V30 15722 C 1494.84 -4.24234 4.41239 0
M  V30 15723 N 1493.98 -5.44587 4.43135 0
M  V30 15724 H 1498.82 -1.32764 2.66791 0
M  V30 15725 H 1496.36 -0.6448 1.32215 0
M  V30 15726 H 1498.32 -3.6966 1.9341 0
M  V30 15727 H 1496.95 -3.07703 0.975638 0
M  V30 15728 H 1496 -2.0839 3.18242 0
M  V30 15729 H 1497.31 -2.91342 4.04872 0
M  V30 15730 H 1496.46 -5.12722 3.24347 0
M  V30 15731 H 1495.2 -4.31446 2.27389 0
M  V30 15732 H 1494.21 -3.34371 4.36435 0
M  V30 15733 H 1495.43 -4.18913 5.34499 0
M  V30 15734 H 1493.38 -5.52271 3.54023 0
M  V30 15735 H 1493.3 -5.42191 5.26845 0
M  V30 15736 H 1494.56 -6.34851 4.5231 0
M  V30 15737 N 1498.79 -1.41931 -0.685074 0
M  V30 15738 C 1500.21 -1.24631 -0.996957 0
M  V30 15739 C 1500.41 -0.143146 -2.00991 0
M  V30 15740 O 1499.47 0.489012 -2.47719 0
M  V30 15741 C 1500.78 -2.59947 -1.51156 0
M  V30 15742 C 1502.33 -2.67216 -1.62986 0
M  V30 15743 C 1502.8 -4.02874 -2.17845 0
M  V30 15744 N 1504.29 -4.04775 -2.25192 0
M  V30 15745 C 1505.03 -5.0655 -2.68691 0
M  V30 15746 N 1504.52 -6.18712 -3.11717 0
M  V30 15747 N 1506.32 -4.93909 -2.68348 0
M  V30 15748 H 1498.47 -2.12395 -0.0142223 0
M  V30 15749 H 1500.73 -0.945496 -0.0688552 0
M  V30 15750 H 1500.44 -3.41477 -0.841793 0
M  V30 15751 H 1500.31 -2.83159 -2.49201 0
M  V30 15752 H 1502.7 -1.86038 -2.29071 0
M  V30 15753 H 1502.78 -2.47804 -0.634584 0
M  V30 15754 H 1502.42 -4.84505 -1.52372 0
M  V30 15755 H 1502.35 -4.19633 -3.18144 0
M  V30 15756 H 1504.84 -3.23798 -1.94841 0
M  V30 15757 H 1505.16 -6.9223 -3.43565 0
M  V30 15758 H 1503.5 -6.22232 -3.096 0
M  V30 15759 H 1506.69 -4.05364 -2.34089 0
M  V30 15760 H 1506.87 -5.73361 -3.01929 0
M  V30 15761 N 1500.27 0.920374 -1.27933 0
M  V30 15762 C 1501.18 2.05525 -1.13123 0
M  V30 15763 C 1502.2 1.73899 -0.059421 0
M  V30 15764 O 1503.37 1.99617 -0.267386 0
M  V30 15765 C 1500.44 3.37637 -0.787551 0
M  V30 15766 C 1499.5 3.82914 -1.94101 0
M  V30 15767 C 1498.73 5.08721 -1.61364 0
M  V30 15768 O 1498.96 5.6798 -0.524918 0
M  V30 15769 O 1497.89 5.4955 -2.45517 0
M  V30 15770 H 1501.72 2.20935 -2.08378 0
M  V30 15771 H 1499.3 1.04071 -1.07189 0
M  V30 15772 H 1501.18 4.16968 -0.609544 0
M  V30 15773 H 1499.86 3.23417 0.135407 0
M  V30 15774 H 1498.76 3.04438 -2.17413 0
M  V30 15775 H 1500.1 4.01687 -2.84444 0
M  V30 15776 N 1501.75 1.10074 1.1279 0
M  V30 15777 C 1502.98 0.862906 1.88047 0
M  V30 15778 C 1503.39 -0.586346 1.79464 0
M  V30 15779 O 1502.75 -1.40402 1.16591 0
M  V30 15780 C 1502.8 1.29784 3.37399 0
M  V30 15781 O 1502.52 2.69026 3.4577 0
M  V30 15782 C 1504.02 1.09336 4.29605 0
M  V30 15783 H 1501.24 0.309981 0.595108 0
M  V30 15784 H 1503.79 1.46444 1.42738 0
M  V30 15785 H 1501.94 0.740056 3.80266 0
M  V30 15786 H 1502.36 2.87532 4.38663 0
M  V30 15787 H 1503.83 1.44687 5.327 0
M  V30 15788 H 1504.31 0.031679 4.39189 0
M  V30 15789 H 1504.91 1.63743 3.92516 0
M  V30 15790 N 1503.23 -1.30138 0.888926 0
M  V30 15791 C 1504.64 -1.78124 0.559346 0
M  V30 15792 C 1504.99 -1.73046 -0.924633 0
M  V30 15793 O 1504.11 -1.30974 -1.72264 0
M  V30 15794 C 1504.71 -3.2344 1.00856 0
M  V30 15795 C 1503.27 -3.69247 0.730332 0
M  V30 15796 C 1502.42 -2.505 1.18933 0
M  V30 15797 H 1505.37 -1.16952 1.07275 0
M  V30 15798 H 1505.39 -3.78985 0.339219 0
M  V30 15799 H 1504.9 -3.27104 2.08865 0
M  V30 15800 H 1503 -3.71067 -0.337599 0
M  V30 15801 H 1503.11 -4.60538 1.32066 0
M  V30 15802 H 1501.48 -2.47323 0.608568 0
M  V30 15803 H 1502.26 -2.56899 2.27724 0
M  V30 15804 N 1504.71 -0.650285 -1.43559 0
M  V30 15805 C 1505.95 -0.171315 -2.02677 0
M  V30 15806 C 1506.31 1.20031 -1.50367 0
M  V30 15807 O 1505.6 1.78901 -0.685922 0
M  V30 15808 C 1505.79 -0.119084 -3.57202 0
M  V30 15809 C 1505.62 -1.4841 -4.24505 0
M  V30 15810 C 1504.39 -2.07575 -4.60696 0
M  V30 15811 C 1506.59 -2.42191 -4.53705 0
M  V30 15812 N 1504.57 -3.37112 -5.13058 0
M  V30 15813 C 1505.94 -3.56359 -5.07354 0
M  V30 15814 C 1508 -2.4103 -4.35671 0
M  V30 15815 C 1506.7 -4.69587 -5.44868 0
M  V30 15816 C 1508.73 -3.53336 -4.74244 0
M  V30 15817 C 1508.09 -4.66229 -5.28024 0
M  V30 15818 H 1504.19 -0.107051 -0.774638 0
M  V30 15819 H 1506.77 -0.857951 -1.74778 0
M  V30 15820 H 1504.94 0.536887 -3.84671 0
M  V30 15821 H 1506.68 0.370487 -4.03001 0
M  V30 15822 H 1503.43 -1.60315 -4.45641 0
M  V30 15823 H 1503.85 -4.03392 -5.43695 0
M  V30 15824 H 1508.5 -1.54988 -3.93368 0
M  V30 15825 H 1506.21 -5.56322 -5.86115 0
M  V30 15826 H 1509.8 -3.53636 -4.61988 0
M  V30 15827 H 1508.68 -5.51693 -5.57319 0
M  V30 15828 N 1506.18 1.52647 -0.392018 0
M  V30 15829 C 1507.13 2.26532 0.441819 0
M  V30 15830 C 1508.1 1.2825 1.05552 0
M  V30 15831 O 1509.29 1.57083 1.08303 0
M  V30 15832 C 1506.43 3.0774 1.56174 0
M  V30 15833 C 1505.54 4.20955 0.970632 0
M  V30 15834 C 1504.67 4.89553 2.06183 0
M  V30 15835 C 1503.71 5.94756 1.44676 0
M  V30 15836 N 1502.85 6.5694 2.47738 0
M  V30 15837 H 1507.69 2.97363 -0.194699 0
M  V30 15838 H 1505.23 1.46704 -0.107848 0
M  V30 15839 H 1507.18 3.53116 2.22183 0
M  V30 15840 H 1505.81 2.39112 2.16853 0
M  V30 15841 H 1504.87 3.79874 0.200067 0
M  V30 15842 H 1506.18 4.96474 0.481181 0
M  V30 15843 H 1505.33 5.38247 2.79956 0
M  V30 15844 H 1504.07 4.13564 2.58488 0
M  V30 15845 H 1503.08 5.45399 0.694288 0
M  V30 15846 H 1504.3 6.72679 0.931617 0
M  V30 15847 H 1502.25 5.8379 2.99208 0
M  V30 15848 H 1502.16 7.2808 2.03556 0
M  V30 15849 H 1503.43 7.10277 3.21133 0
M  V30 15850 N 1507.66 0.121921 1.57128 0
M  V30 15851 C 1508.91 -0.535201 1.9447 0
M  V30 15852 C 1509.22 -1.67644 1.00772 0
M  V30 15853 O 1510.43 -2.39651 1.27592 0
M  V30 15854 C 1508.89 -1.00346 3.45628 0
M  V30 15855 C 1508.49 0.109473 4.47866 0
M  V30 15856 C 1510.24 -1.63179 3.91884 0
M  V30 15857 C 1508.15 -0.375651 5.90206 0
M  V30 15858 H 1507.08 -0.203702 0.725962 0
M  V30 15859 H 1509.73 0.202243 1.82382 0
M  V30 15860 H 1508.11 -1.79541 3.5296 0
M  V30 15861 H 1509.28 0.885815 4.52206 0
M  V30 15862 H 1507.6 0.644642 4.1138 0
M  V30 15863 H 1510.19 -2.00594 4.95647 0
M  V30 15864 H 1510.54 -2.5113 3.32023 0
M  V30 15865 H 1511.07 -0.905197 3.87364 0
M  V30 15866 H 1507.81 0.46788 6.53828 0
M  V30 15867 H 1507.33 -1.11841 5.89281 0
M  V30 15868 H 1509.01 -0.835921 6.41577 0
M  V30 15869 N 1509.14 -1.56867 -0.151857 0
M  V30 15870 C 1510.37 -1.87237 -0.880343 0
M  V30 15871 C 1510.78 -0.709565 -1.74959 0
M  V30 15872 O 1510.14 0.320818 -1.79658 0
M  V30 15873 C 1510.19 -3.16811 -1.74107 0
M  V30 15874 O 1509.91 -4.28611 -0.906858 0
M  V30 15875 C 1511.41 -3.60662 -2.57755 0
M  V30 15876 H 1508.63 -0.62074 -0.254799 0
M  V30 15877 H 1511.18 -2.03977 -0.146104 0
M  V30 15878 H 1509.33 -3.01838 -2.42842 0
M  V30 15879 H 1509.75 -5.02673 -1.49733 0
M  V30 15880 H 1511.22 -4.54176 -3.13732 0
M  V30 15881 H 1511.7 -2.85716 -3.33561 0
M  V30 15882 H 1512.3 -3.78312 -1.94319 0
M  V30 15883 N 1510.62 0.421051 -1.51871 0
M  V30 15884 C 1511.9 1.18133 -1.55897 0
M  V30 15885 C 1512.28 2.08459 -0.332876 0
M  V30 15886 O 1511.62 2.18114 0.681052 0
M  V30 15887 C 1511.83 1.96902 -2.88151 0
M  V30 15888 C 1513.18 2.53382 -3.4071 0
M  V30 15889 O 1514.21 2.07095 -2.89811 0
M  V30 15890 O 1513.06 3.37846 -4.29561 0
M  V30 15891 H 1510.16 0.538721 -0.627462 0
M  V30 15892 H 1512.7 0.428798 -1.64193 0
M  V30 15893 H 1511.48 1.30659 -3.68841 0
M  V30 15894 H 1511.1 2.79185 -2.83093 0
M  V30 15895 N 1512.1 1.42293 0.677538 0
M  V30 15896 C 1513.06 1.45258 1.77293 0
M  V30 15897 C 1514.06 0.340554 1.57152 0
M  V30 15898 O 1515.25 0.601259 1.63495 0
M  V30 15899 C 1512.38 1.28156 3.15894 0
M  V30 15900 H 1513.57 2.42787 1.76052 0
M  V30 15901 H 1511.13 1.287 0.886908 0
M  V30 15902 H 1511.86 0.315381 3.22763 0
M  V30 15903 H 1511.65 2.08744 3.31916 0
M  V30 15904 H 1513.14 1.33107 3.95818 0
M  V30 15905 N 1513.57 -0.913576 1.28419 0
M  V30 15906 C 1514.48 -2.04922 1.14211 0
M  V30 15907 C 1515.5 -1.73865 0.0686424 0
M  V30 15908 O 1516.68 -1.99473 0.277968 0
M  V30 15909 C 1513.74 -3.37214 0.805445 0
M  V30 15910 C 1512.8 -3.81879 1.96129 0
M  V30 15911 C 1512.04 -5.07858 1.6406 0
M  V30 15912 O 1512.26 -5.67693 0.555032 0
M  V30 15913 O 1511.19 -5.4824 2.48428 0
M  V30 15914 H 1515.02 -2.19827 2.09547 0
M  V30 15915 H 1512.6 -1.03501 1.0774 0
M  V30 15916 H 1514.49 -4.16639 0.631648 0
M  V30 15917 H 1513.16 -3.23484 -0.118254 0
M  V30 15918 H 1512.07 -3.03281 2.19024 0
M  V30 15919 H 1513.4 -4.00173 2.8657 0
M  V30 15920 N 1515.05 -1.1067 -1.12204 0
M  V30 15921 C 1515.98 -0.779829 -2.20093 0
M  V30 15922 C 1516.96 0.248279 -1.68278 0
M  V30 15923 O 1518.15 0.113511 -1.93868 0
M  V30 15924 C 1515.28 -0.213511 -3.46643 0
M  V30 15925 C 1514.23 -1.17258 -4.11624 0
M  V30 15926 C 1513.56 -0.467352 -5.32654 0
M  V30 15927 C 1514.86 -2.52014 -4.57478 0
M  V30 15928 H 1516.55 -1.68192 -2.47693 0
M  V30 15929 H 1514.1 -0.810131 -1.1905 0
M  V30 15930 H 1516.05 0.0273225 -4.21391 0
M  V30 15931 H 1514.78 0.723837 -3.18478 0
M  V30 15932 H 1513.43 -1.39891 -3.3886 0
M  V30 15933 H 1513.08 0.474547 -5.00756 0
M  V30 15934 H 1512.78 -1.10694 -5.77079 0
M  V30 15935 H 1514.31 -0.235122 -6.10147 0
M  V30 15936 H 1515.72 -2.33516 -5.23587 0
M  V30 15937 H 1514.12 -3.1188 -5.1269 0
M  V30 15938 H 1515.19 -3.11831 -3.71335 0
M  V30 15939 N 1516.53 1.29665 -0.895815 0
M  V30 15940 C 1517.44 2.31582 -0.375086 0
M  V30 15941 C 1518.46 1.65789 0.528196 0
M  V30 15942 O 1519.63 1.96999 0.41871 0
M  V30 15943 C 1516.7 3.44472 0.39241 0
M  V30 15944 C 1515.76 4.25866 -0.541926 0
M  V30 15945 C 1514.99 5.33365 0.189037 0
M  V30 15946 O 1515.21 5.52607 1.41355 0
M  V30 15947 O 1514.15 6.0009 -0.466441 0
M  V30 15948 H 1517.97 2.78095 -1.22052 0
M  V30 15949 H 1515.56 1.34031 -0.660007 0
M  V30 15950 H 1517.44 4.13214 0.826565 0
M  V30 15951 H 1516.12 3.00074 1.21397 0
M  V30 15952 H 1515.02 3.59781 -1.02512 0
M  V30 15953 H 1516.36 4.73896 -1.32979 0
M  V30 15954 N 1518.01 0.657889 1.43212 0
M  V30 15955 C 1518.97 -0.0214783 2.2919 0
M  V30 15956 C 1519.97 -0.745921 1.42452 0
M  V30 15957 O 1521.16 -0.586468 1.64031 0
M  V30 15958 C 1518.29 -1.04115 3.24612 0
M  V30 15959 H 1519.49 0.735072 2.90752 0
M  V30 15960 H 1517.04 0.419354 1.50569 0
M  V30 15961 H 1517.77 -1.82677 2.67954 0
M  V30 15962 H 1517.56 -0.525285 3.88566 0
M  V30 15963 H 1519.05 -1.51544 3.89132 0
M  V30 15964 N 1519.49 -1.52437 0.400108 0
M  V30 15965 C 1520.73 -2.0201 -0.17887 0
M  V30 15966 C 1521.07 -1.2856 -1.45554 0
M  V30 15967 O 1520.34 -0.389236 -1.90565 0
M  V30 15968 C 1520.62 -3.57453 -0.435784 0
M  V30 15969 C 1520.48 -4.41562 0.85693 0
M  V30 15970 C 1521.8 -4.228 -1.2218 0
M  V30 15971 H 1518.91 -0.734256 -0.063535 0
M  V30 15972 H 1521.56 -1.82406 0.531801 0
M  V30 15973 H 1519.71 -3.74288 -1.04117 0
M  V30 15974 H 1521.38 -4.36456 1.49344 0
M  V30 15975 H 1519.62 -4.08138 1.46989 0
M  V30 15976 H 1520.29 -5.48374 0.631675 0
M  V30 15977 H 1522.77 -4.10009 -0.709359 0
M  V30 15978 H 1521.64 -5.3152 -1.37031 0
M  V30 15979 H 1521.91 -3.81153 -2.23998 0
M  V30 15980 N 1520.96 -0.130252 -1.57061 0
M  V30 15981 C 1521.91 0.815767 -2.15902 0
M  V30 15982 C 1522.88 1.2558 -1.08715 0
M  V30 15983 O 1524.07 1.33132 -1.36677 0
M  V30 15984 C 1521.21 2.0561 -2.77162 0
M  V30 15985 C 1520.32 1.6634 -3.98692 0
M  V30 15986 C 1519.45 2.85425 -4.48002 0
M  V30 15987 C 1518.49 2.42449 -5.62036 0
M  V30 15988 N 1517.63 3.54486 -6.0604 0
M  V30 15989 H 1522.47 0.307164 -2.96413 0
M  V30 15990 H 1520.01 0.139913 -1.46433 0
M  V30 15991 H 1521.97 2.78298 -3.10815 0
M  V30 15992 H 1520.6 2.5391 -1.99323 0
M  V30 15993 H 1519.65 0.834817 -3.71127 0
M  V30 15994 H 1520.96 1.30765 -4.81354 0
M  V30 15995 H 1520.11 3.66325 -4.83623 0
M  V30 15996 H 1518.85 3.24235 -3.64312 0
M  V30 15997 H 1517.86 1.59985 -5.26008 0
M  V30 15998 H 1519.08 2.04744 -6.475 0
M  V30 15999 H 1517.03 3.92948 -5.25289 0
M  V30 16000 H 1516.95 3.22871 -6.83586 0
M  V30 16001 H 1518.21 4.35792 -6.46302 0
M  V30 16002 N 1522.44 1.56945 0.143535 0
M  V30 16003 C 1523.35 2.01795 1.1965 0
M  V30 16004 C 1524.37 0.933965 1.4681 0
M  V30 16005 O 1525.55 1.2437 1.58411 0
M  V30 16006 C 1522.61 2.39249 2.5092 0
M  V30 16007 C 1521.67 3.61613 2.31376 0
M  V30 16008 C 1520.9 3.97271 3.56386 0
M  V30 16009 O 1521.13 3.33552 4.62709 0
M  V30 16010 O 1520.06 4.90501 3.48844 0
M  V30 16011 H 1523.89 2.91687 0.845718 0
M  V30 16012 H 1521.47 1.45182 0.352518 0
M  V30 16013 H 1523.35 2.64184 3.28306 0
M  V30 16014 H 1522.03 1.52511 2.85521 0
M  V30 16015 H 1520.94 3.4186 1.51929 0
M  V30 16016 H 1522.27 4.48979 2.01689 0
M  V30 16017 N 1523.92 -0.412991 1.52093 0
M  V30 16018 C 1524.87 -1.50294 1.75158 0
M  V30 16019 C 1525.84 -1.55119 0.593902 0
M  V30 16020 O 1527.02 -1.71751 0.831032 0
M  V30 16021 C 1524.16 -2.87781 1.90463 0
M  V30 16022 C 1523.28 -2.92295 3.181 0
M  V30 16023 C 1522.41 -4.21056 3.23859 0
M  V30 16024 C 1521.45 -4.1953 4.45714 0
M  V30 16025 N 1520.59 -5.39857 4.48886 0
M  V30 16026 H 1525.43 -1.29927 2.68185 0
M  V30 16027 H 1522.96 -0.630741 1.32891 0
M  V30 16028 H 1524.92 -3.67588 1.9732 0
M  V30 16029 H 1523.55 -3.06651 1.00822 0
M  V30 16030 H 1522.6 -2.05002 3.20434 0
M  V30 16031 H 1523.92 -2.87031 4.0794 0
M  V30 16032 H 1523.07 -5.09253 3.29767 0
M  V30 16033 H 1521.81 -4.2901 2.31952 0
M  V30 16034 H 1520.81 -3.29724 4.39957 0
M  V30 16035 H 1522.04 -4.1322 5.38912 0
M  V30 16036 H 1519.99 -5.48486 3.59861 0
M  V30 16037 H 1519.9 -5.36572 5.32566 0
M  V30 16038 H 1521.17 -6.30018 4.59018 0
M  V30 16039 N 1525.4 -1.4265 -0.669982 0
M  V30 16040 C 1526.62 -1.46992 -1.46315 0
M  V30 16041 C 1527.05 -0.0840655 -1.87912 0
M  V30 16042 O 1526.41 0.918554 -1.56308 0
M  V30 16043 C 1526.46 -2.40663 -2.6854 0
M  V30 16044 O 1525.56 -1.88132 -3.66988 0
M  V30 16045 H 1524.9 -0.497844 -0.439372 0
M  V30 16046 H 1527.43 -1.8739 -0.821348 0
M  V30 16047 H 1527.44 -2.57405 -3.16554 0
M  V30 16048 H 1526.12 -3.41346 -2.37604 0
M  V30 16049 H 1524.69 -1.80969 -3.26044 0
M  V30 16050 N 1526.88 0.906753 -1.28902 0
M  V30 16051 C 1528.11 1.68774 -1.1916 0
M  V30 16052 C 1528.52 1.87523 0.251339 0
M  V30 16053 O 1527.86 1.4071 1.18095 0
M  V30 16054 C 1527.92 3.09676 -1.82596 0
M  V30 16055 C 1527.58 3.14185 -3.31869 0
M  V30 16056 C 1528.58 2.94858 -4.282 0
M  V30 16057 C 1526.27 3.36476 -3.72947 0
M  V30 16058 C 1528.26 2.97744 -5.63584 0
M  V30 16059 C 1525.95 3.38993 -5.08456 0
M  V30 16060 C 1526.95 3.19648 -6.03584 0
M  V30 16061 O 1526.63 3.2194 -7.3662 0
M  V30 16062 H 1526.37 0.534133 -0.41434 0
M  V30 16063 H 1528.92 1.14282 -1.70671 0
M  V30 16064 H 1527.15 3.65739 -1.25587 0
M  V30 16065 H 1528.84 3.6983 -1.67273 0
M  V30 16066 H 1529.6 2.77456 -3.97798 0
M  V30 16067 H 1525.48 3.50576 -2.99362 0
M  V30 16068 H 1529.03 2.82563 -6.37812 0
M  V30 16069 H 1524.92 3.55924 -5.38506 0
M  V30 16070 H 1525.69 3.38255 -7.45336 0
M  V30 16071 N 1528.36 1.11264 1.11616 0
M  V30 16072 C 1529.77 0.846176 1.35322 0
M  V30 16073 C 1529.97 -0.530043 1.94404 0
M  V30 16074 O 1529.03 -1.28122 2.1758 0
M  V30 16075 C 1530.34 1.9528 2.28662 0
M  V30 16076 C 1531.89 1.98225 2.42231 0
M  V30 16077 C 1532.36 3.08086 3.38891 0
M  V30 16078 N 1533.85 3.07448 3.46453 0
M  V30 16079 C 1534.59 3.89094 4.21181 0
M  V30 16080 N 1534.09 4.80698 4.989 0
M  V30 16081 N 1535.88 3.77279 4.16674 0
M  V30 16082 H 1528.03 1.99958 0.716284 0
M  V30 16083 H 1530.29 0.869439 0.377862 0
M  V30 16084 H 1530 2.94381 1.92439 0
M  V30 16085 H 1529.87 1.84739 3.28864 0
M  V30 16086 H 1532.26 0.997517 2.77729 0
M  V30 16087 H 1532.34 2.12842 1.41887 0
M  V30 16088 H 1531.98 4.06784 3.0412 0
M  V30 16089 H 1531.91 2.90709 4.39085 0
M  V30 16090 H 1534.41 2.41077 2.91016 0
M  V30 16091 H 1534.72 5.39535 5.53282 0
M  V30 16092 H 1533.06 4.84721 4.98067 0
M  V30 16093 H 1536.25 3.05059 3.55044 0
M  V30 16094 H 1536.43 4.41142 4.74655 0
M  V30 16095 N 1529.83 -1.29188 0.902679 0
M  V30 16096 C 1530.77 -2.26665 0.339964 0
M  V30 16097 C 1531.78 -1.54426 -0.515396 0
M  V30 16098 O 1532.97 -1.75384 -0.332071 0
M  V30 16099 C 1530.07 -3.34672 -0.533653 0
M  V30 16100 C 1529.24 -4.36393 0.296661 0
M  V30 16101 C 1528.3 -5.2372 -0.510264 0
M  V30 16102 O 1527.33 -5.69153 0.0732871 0
M  V30 16103 N 1528.53 -5.51373 -1.81572 0
M  V30 16104 H 1531.29 -2.75588 1.17778 0
M  V30 16105 H 1528.85 -1.42553 0.767474 0
M  V30 16106 H 1530.85 -3.90025 -1.07995 0
M  V30 16107 H 1529.42 -2.85543 -1.27216 0
M  V30 16108 H 1528.64 -3.80658 1.02436 0
M  V30 16109 H 1529.92 -5.0139 0.865191 0
M  V30 16110 H 1529.32 -5.16275 -2.31251 0
M  V30 16111 H 1527.88 -6.09528 -2.30908 0
M  V30 16112 N 1531.31 -0.665475 -1.42861 0
M  V30 16113 C 1532.56 -0.184156 -2.01962 0
M  V30 16114 C 1532.89 1.20301 -1.52451 0
M  V30 16115 O 1532.17 1.80573 -0.722756 0
M  V30 16116 C 1532.45 -0.208497 -3.59496 0
M  V30 16117 C 1532.3 -1.63045 -4.19209 0
M  V30 16118 C 1533.62 0.448421 -4.3781 0
M  V30 16119 H 1530.74 -0.0683924 -0.73382 0
M  V30 16120 H 1533.38 -0.84849 -1.70002 0
M  V30 16121 H 1531.53 0.357179 -3.86855 0
M  V30 16122 H 1533.2 -2.24766 -4.02837 0
M  V30 16123 H 1531.45 -2.17401 -3.75392 0
M  V30 16124 H 1532.12 -1.59924 -5.28326 0
M  V30 16125 H 1534.59 -0.0330053 -4.16087 0
M  V30 16126 H 1533.47 0.400713 -5.47435 0
M  V30 16127 H 1533.73 1.52454 -4.14982 0
M  V30 16128 N 1532.79 1.52222 -0.408187 0
M  V30 16129 C 1534.21 1.59491 -0.0590201 0
M  V30 16130 C 1534.41 1.42109 1.42854 0
M  V30 16131 O 1533.46 1.24757 2.19527 0
M  V30 16132 C 1534.77 2.9557 -0.553093 0
M  V30 16133 C 1536.32 3.08801 -0.510986 0
M  V30 16134 C 1536.8 4.47358 -0.981554 0
M  V30 16135 N 1538.29 4.53596 -0.938335 0
M  V30 16136 C 1539.02 5.59076 -1.27364 0
M  V30 16137 N 1538.52 6.72113 -1.68035 0
M  V30 16138 N 1540.31 5.49279 -1.19367 0
M  V30 16139 H 1532.46 1.61768 -1.37641 0
M  V30 16140 H 1534.73 0.760959 -0.565372 0
M  V30 16141 H 1534.43 3.13566 -1.59276 0
M  V30 16142 H 1534.31 3.77181 0.0377629 0
M  V30 16143 H 1536.69 2.90489 0.519637 0
M  V30 16144 H 1536.77 2.29098 -1.13788 0
M  V30 16145 H 1536.42 4.66413 -2.0105 0
M  V30 16146 H 1536.35 5.25556 -0.331478 0
M  V30 16147 H 1538.84 3.72453 -0.639297 0
M  V30 16148 H 1539.15 7.48586 -1.91934 0
M  V30 16149 H 1537.5 6.73396 -1.71938 0
M  V30 16150 H 1540.69 4.59853 -0.8748 0
M  V30 16151 H 1540.86 6.31378 -1.45829 0
M  V30 16152 N 1534.27 0.138579 1.5699 0
M  V30 16153 C 1535.2 -0.800568 2.19347 0
M  V30 16154 C 1536.18 -1.26318 1.13921 0
M  V30 16155 O 1537.36 -1.32226 1.42232 0
M  V30 16156 C 1534.49 -2.04317 2.80842 0
M  V30 16157 C 1533.45 -1.71764 3.92022 0
M  V30 16158 C 1532.77 -3.03217 4.40413 0
M  V30 16159 C 1534.07 -0.970789 5.13199 0
M  V30 16160 H 1535.77 -0.280888 2.98079 0
M  V30 16161 H 1533.31 -0.133663 1.43378 0
M  V30 16162 H 1535.27 -2.70491 3.2313 0
M  V30 16163 H 1533.99 -2.58643 1.99428 0
M  V30 16164 H 1532.65 -1.07972 3.50339 0
M  V30 16165 H 1532.3 -3.55517 3.55832 0
M  V30 16166 H 1532 -2.82203 5.15398 0
M  V30 16167 H 1533.52 -3.70477 4.85365 0
M  V30 16168 H 1534.94 -1.53445 5.52384 0
M  V30 16169 H 1533.33 -0.860895 5.93893 0
M  V30 16170 H 1534.4 0.0390088 4.84884 0
M  V30 16171 N 1535.75 -1.57019 -0.13521 0
M  V30 16172 C 1536.69 -2.0011 -1.18569 0
M  V30 16173 C 1537.69 -0.895372 -1.43804 0
M  V30 16174 O 1538.89 -1.08057 -1.43957 0
M  V30 16175 H 1535.27 -0.637176 -0.399388 0
M  V30 16176 H 1537.24 -2.87597 -0.795636 0
M  V30 16177 C 1535.99 -2.40769 -2.50849 0
M  V30 16178 H 1535.31 -3.25412 -2.32265 0
M  V30 16179 H 1536.75 -2.74733 -3.22951 0
M  V30 16180 C 1535.21 -1.26494 -3.12251 0
M  V30 16181 O 1535.74 -0.572067 -3.97606 0
M  V30 16182 N 1533.95 -1.02615 -2.7188 0
M  V30 16183 H 1533.49 -1.59136 -2.02567 0
M  V30 16184 H 1533.45 -0.263464 -3.13294 0
M  V30 16185 N 1537.22 0.404919 -1.52309 0
M  V30 16186 C 1538.13 1.51822 -1.7885 0
M  V30 16187 C 1539.15 1.60403 -0.674307 0
M  V30 16188 O 1540.33 1.77038 -0.960175 0
M  V30 16189 C 1537.39 2.87516 -1.9374 0
M  V30 16190 C 1536.45 2.88787 -3.17648 0
M  V30 16191 C 1535.69 4.18009 -3.31819 0
M  V30 16192 O 1535.91 5.12129 -2.51158 0
M  V30 16193 O 1534.84 4.26222 -4.24992 0
M  V30 16194 H 1538.67 1.32329 -2.73354 0
M  V30 16195 H 1536.25 0.591193 -1.37205 0
M  V30 16196 H 1538.14 3.6799 -2.05333 0
M  V30 16197 H 1536.81 3.07068 -1.02425 0
M  V30 16198 H 1535.72 2.07152 -3.11511 0
M  V30 16199 H 1537.05 2.74185 -4.08758 0
M  V30 16200 N 1538.7 1.43003 0.662408 0
M  V30 16201 C 1539.63 1.50248 1.78739 0
M  V30 16202 C 1540.61 0.357934 1.66291 0
M  V30 16203 O 1541.8 0.573919 1.85526 0
M  V30 16204 C 1538.93 1.41618 3.17114 0
M  V30 16205 C 1537.88 2.54228 3.44314 0
M  V30 16206 C 1537.21 2.30653 4.82393 0
M  V30 16207 C 1538.51 3.96505 3.39972 0
M  V30 16208 H 1540.2 2.44406 1.72934 0
M  V30 16209 H 1537.75 1.17633 0.830569 0
M  V30 16210 H 1539.7 1.45293 3.9556 0
M  V30 16211 H 1538.43 0.439605 3.23628 0
M  V30 16212 H 1537.08 2.49891 2.68235 0
M  V30 16213 H 1536.73 1.3126 4.85572 0
M  V30 16214 H 1536.43 3.06134 5.01554 0
M  V30 16215 H 1537.96 2.36096 5.63108 0
M  V30 16216 H 1539.37 4.02378 4.08368 0
M  V30 16217 H 1537.77 4.71937 3.70668 0
M  V30 16218 H 1538.84 4.22295 2.38318 0
M  V30 16219 N 1540.18 -0.899904 1.29381 0
M  V30 16220 C 1541.11 -2.02045 1.17047 0
M  V30 16221 C 1542.09 -1.69977 0.0647354 0
M  V30 16222 O 1543.28 -1.92659 0.244173 0
M  V30 16223 C 1540.41 -3.36839 0.845991 0
M  V30 16224 C 1539.36 -3.83117 1.90802 0
M  V30 16225 C 1538.69 -5.15032 1.43686 0
M  V30 16226 C 1539.99 -4.03464 3.31684 0
M  V30 16227 H 1541.68 -2.12623 2.10789 0
M  V30 16228 H 1539.23 -1.02162 1.01484 0
M  V30 16229 H 1541.18 -4.14737 0.746413 0
M  V30 16230 H 1539.9 -3.26352 -0.127125 0
M  V30 16231 H 1538.56 -3.07435 1.99698 0
M  V30 16232 H 1538.21 -5.00961 0.452422 0
M  V30 16233 H 1537.91 -5.46967 2.14711 0
M  V30 16234 H 1539.43 -5.95472 1.35078 0
M  V30 16235 H 1540.85 -4.71845 3.25631 0
M  V30 16236 H 1539.25 -4.46752 4.00665 0
M  V30 16237 H 1540.32 -3.07807 3.74677 0
M  V30 16238 N 1541.66 -1.11854 -1.11024 0
M  V30 16239 C 1542.59 -0.738635 -2.16972 0
M  V30 16240 C 1543.6 0.231814 -1.61141 0
M  V30 16241 O 1544.79 0.0140607 -1.78494 0
M  V30 16242 C 1541.89 -0.0715797 -3.38824 0
M  V30 16243 C 1541.07 -1.06995 -4.24112 0
M  V30 16244 C 1540.12 -0.431644 -5.24427 0
M  V30 16245 O 1539.15 -1.08685 -5.58727 0
M  V30 16246 N 1540.35 0.803593 -5.74911 0
M  V30 16247 H 1543.12 -1.65025 -2.50174 0
M  V30 16248 H 1540.68 -1.00933 -1.26586 0
M  V30 16249 H 1542.67 0.367274 -4.0303 0
M  V30 16250 H 1541.24 0.742686 -3.03649 0
M  V30 16251 H 1540.46 -1.68662 -3.56296 0
M  V30 16252 H 1541.75 -1.74525 -4.77931 0
M  V30 16253 H 1541.15 1.355 -5.49232 0
M  V30 16254 H 1539.7 1.18536 -6.40931 0
M  V30 16255 N 1543.14 1.28707 -0.909517 0
M  V30 16256 C 1544.05 2.31171 -0.399628 0
M  V30 16257 C 1545.06 1.6634 0.510582 0
M  V30 16258 O 1546.24 1.97432 0.397792 0
M  V30 16259 C 1543.3 3.44869 0.355852 0
M  V30 16260 C 1542.36 4.25267 -0.587065 0
M  V30 16261 C 1541.6 5.33536 0.132456 0
M  V30 16262 O 1541.82 5.54075 1.35486 0
M  V30 16263 O 1540.75 5.99561 -0.530062 0
M  V30 16264 H 1544.58 2.76785 -1.24995 0
M  V30 16265 H 1542.17 1.33323 -0.674186 0
M  V30 16266 H 1544.05 4.14068 0.782692 0
M  V30 16267 H 1542.72 3.01345 1.18207 0
M  V30 16268 H 1541.63 3.58673 -1.06322 0
M  V30 16269 H 1542.96 4.72459 -1.37998 0
M  V30 16270 N 1544.61 0.673042 1.42506 0
M  V30 16271 C 1545.56 -0.0291025 2.27981 0
M  V30 16272 C 1546.55 -0.775296 1.40989 0
M  V30 16273 O 1547.74 -0.654498 1.64455 0
M  V30 16274 C 1544.87 -0.9809 3.28988 0
M  V30 16275 C 1543.96 -0.232141 4.23464 0
M  V30 16276 N 1544.35 0.762036 5.00027 0
M  V30 16277 C 1542.64 -0.470831 4.43508 0
M  V30 16278 C 1543.35 1.20826 5.69013 0
M  V30 16279 N 1542.32 0.538559 5.40926 0
M  V30 16280 H 1546.12 0.733484 2.846 0
M  V30 16281 H 1543.64 0.501961 1.54448 0
M  V30 16282 H 1545.63 -1.49888 3.89023 0
M  V30 16283 H 1544.29 -1.74333 2.73931 0
M  V30 16284 H 1545.31 1.14151 5.05163 0
M  V30 16285 H 1541.98 -1.2129 3.99493 0
M  V30 16286 H 1543.37 2.03199 6.40437 0
M  V30 16287 N 1546.09 -1.52004 0.416254 0
M  V30 16288 C 1547.32 -2.0679 -0.158937 0
M  V30 16289 C 1547.74 -1.28366 -1.37491 0
M  V30 16290 O 1547.1 -0.315815 -1.78528 0
M  V30 16291 C 1547.15 -3.57381 -0.480717 0
M  V30 16292 O 1546.25 -3.81321 -1.5706 0
M  V30 16293 H 1545.59 -0.663907 -0.0110938 0
M  V30 16294 H 1548.12 -1.95863 0.591509 0
M  V30 16295 H 1548.13 -4.01283 -0.737297 0
M  V30 16296 H 1546.81 -4.13893 0.408137 0
M  V30 16297 H 1545.39 -3.49296 -1.30563 0
M  V30 16298 N 1547.57 -0.146903 -1.56914 0
M  V30 16299 C 1548.99 0.20951 -1.58219 0
M  V30 16300 C 1549.19 1.64679 -1.16116 0
M  V30 16301 O 1548.24 2.37352 -0.861414 0
M  V30 16302 C 1549.56 -0.0491564 -3.0066 0
M  V30 16303 C 1551.1 0.0145605 -3.12997 0
M  V30 16304 C 1551.58 -0.216773 -4.57487 0
M  V30 16305 N 1553.07 -0.163698 -4.62911 0
M  V30 16306 C 1553.8 -0.317204 -5.72522 0
M  V30 16307 N 1553.3 -0.528426 -6.90782 0
M  V30 16308 N 1555.09 -0.254814 -5.61522 0
M  V30 16309 H 1547.24 -1.08536 -1.82575 0
M  V30 16310 H 1549.51 -0.42963 -0.845057 0
M  V30 16311 H 1549.21 -1.04387 -3.35851 0
M  V30 16312 H 1549.09 0.670296 -3.71197 0
M  V30 16313 H 1551.47 0.999829 -2.77646 0
M  V30 16314 H 1551.56 -0.737219 -2.44946 0
M  V30 16315 H 1551.2 -1.19914 -4.93541 0
M  V30 16316 H 1551.13 0.555329 -5.23664 0
M  V30 16317 H 1553.62 -0.00509433 -3.779 0
M  V30 16318 H 1553.93 -0.635667 -7.70181 0
M  V30 16319 H 1552.28 -0.564746 -6.92702 0
M  V30 16320 H 1555.47 -0.0905626 -4.68012 0
M  V30 16321 H 1555.64 -0.377881 -6.46897 0
M  V30 16322 N 1549.05 1.57088 0.126881 0
M  V30 16323 C 1550.01 1.98836 1.14003 0
M  V30 16324 C 1551.01 0.877454 1.34749 0
M  V30 16325 O 1552.2 1.14366 1.314 0
M  V30 16326 C 1549.33 2.32171 2.49618 0
M  V30 16327 H 1550.53 2.89541 0.7814 0
M  V30 16328 H 1548.08 1.51835 0.370915 0
M  V30 16329 H 1548.81 1.44321 2.90417 0
M  V30 16330 H 1548.6 3.13187 2.35916 0
M  V30 16331 H 1550.09 2.65238 3.2255 0
M  V30 16332 N 1550.53 -0.396836 1.52522 0
M  V30 16333 C 1551.49 -1.46695 1.76106 0
M  V30 16334 C 1552.49 -1.47902 0.631005 0
M  V30 16335 O 1553.68 -1.4921 0.898995 0
M  V30 16336 C 1550.81 -2.86033 1.85467 0
M  V30 16337 H 1552 -1.27071 2.71649 0
M  V30 16338 H 1549.56 -0.628096 1.43125 0
M  V30 16339 H 1550.29 -3.11012 0.918816 0
M  V30 16340 H 1550.08 -2.86559 2.67631 0
M  V30 16341 H 1551.57 -3.63587 2.05412 0
M  V30 16342 N 1552.01 -1.43353 -0.654814 0
M  V30 16343 C 1552.95 -1.48652 -1.789 0
M  V30 16344 C 1553.95 -0.360274 -1.65525 0
M  V30 16345 O 1555.15 -0.534194 -1.71891 0
M  V30 16346 H 1551.53 -0.465987 -0.590221 0
M  V30 16347 H 1553.5 -2.44158 -1.7155 0
M  V30 16348 C 1552.25 -1.42512 -3.17152 0
M  V30 16349 H 1551.57 -2.28479 -3.28081 0
M  V30 16350 H 1553.01 -1.50282 -3.96474 0
M  V30 16351 C 1551.47 -0.142511 -3.36598 0
M  V30 16352 O 1552 0.796821 -3.93718 0
M  V30 16353 N 1550.21 -0.0532157 -2.90551 0
M  V30 16354 H 1549.75 -0.818421 -2.44253 0
M  V30 16355 H 1549.71 0.80427 -3.03939 0
M  V30 16356 N 1553.48 0.89303 -1.29857 0
M  V30 16357 C 1554.41 2.01422 -1.18117 0
M  V30 16358 C 1555.39 1.6994 -0.0737487 0
M  V30 16359 O 1556.58 1.92527 -0.254387 0
M  V30 16360 C 1553.71 3.36385 -0.863842 0
M  V30 16361 C 1552.66 3.821 -1.92831 0
M  V30 16362 C 1551.99 5.14263 -1.46415 0
M  V30 16363 C 1553.29 4.01699 -3.33819 0
M  V30 16364 H 1554.98 2.11502 -2.11913 0
M  V30 16365 H 1552.53 1.01622 -1.02024 0
M  V30 16366 H 1554.48 4.14335 -0.768397 0
M  V30 16367 H 1553.21 3.26415 0.109816 0
M  V30 16368 H 1551.87 3.06372 -2.01325 0
M  V30 16369 H 1551.51 5.00714 -0.478983 0
M  V30 16370 H 1551.21 5.45821 -2.17609 0
M  V30 16371 H 1552.74 5.94747 -1.38234 0
M  V30 16372 H 1554.15 4.70111 -3.28129 0
M  V30 16373 H 1552.55 4.44621 -4.03029 0
M  V30 16374 H 1553.62 3.05816 -3.76304 0
M  V30 16375 N 1554.96 1.12442 1.10429 0
M  V30 16376 C 1556.21 0.874466 1.81758 0
M  V30 16377 C 1556.52 -0.601487 1.86122 0
M  V30 16378 O 1557.73 -0.968037 2.53656 0
M  V30 16379 C 1556.19 1.51478 3.2647 0
M  V30 16380 C 1555.79 3.02552 3.30403 0
M  V30 16381 C 1557.54 1.34511 4.02625 0
M  V30 16382 C 1555.44 3.59518 4.69575 0
M  V30 16383 H 1554.37 0.323494 0.681078 0
M  V30 16384 H 1557.03 1.35091 1.24188 0
M  V30 16385 H 1555.41 0.966 3.84037 0
M  V30 16386 H 1556.58 3.63924 2.82659 0
M  V30 16387 H 1554.9 3.18917 2.67733 0
M  V30 16388 H 1557.49 1.74492 5.05427 0
M  V30 16389 H 1557.84 0.288788 4.15297 0
M  V30 16390 H 1558.37 1.86311 3.51473 0
M  V30 16391 H 1555.11 4.6491 4.62103 0
M  V30 16392 H 1554.63 3.02922 5.17686 0
M  V30 16393 H 1556.31 3.58581 5.38543 0
M  V30 16394 N 1556.44 -1.28223 0.91633 0
M  V30 16395 C 1557.69 -1.95153 0.551639 0
M  V30 16396 C 1558.02 -1.71938 -0.902829 0
M  V30 16397 O 1557.29 -1.04184 -1.64243 0
M  V30 16398 C 1557.58 -3.49565 0.864647 0
M  V30 16399 C 1557.43 -3.82171 2.37203 0
M  V30 16400 C 1558.75 -4.38604 0.362593 0
M  V30 16401 H 1555.87 -0.708808 0.20189 0
M  V30 16402 H 1558.51 -1.51545 1.14604 0
M  V30 16403 H 1556.66 -3.8684 0.358782 0
M  V30 16404 H 1558.33 -3.54751 2.94872 0
M  V30 16405 H 1556.57 -3.29124 2.82595 0
M  V30 16406 H 1557.25 -4.90007 2.54159 0
M  V30 16407 H 1559.72 -4.08416 0.795983 0
M  V30 16408 H 1558.6 -5.45493 0.61066 0
M  V30 16409 H 1558.86 -4.35911 -0.737137 0
M  V30 16410 N 1557.92 -0.68059 -1.42147 0
M  V30 16411 C 1558.85 -0.0199376 -2.33491 0
M  V30 16412 C 1559.83 0.783164 -1.50999 0
M  V30 16413 O 1561.01 0.739154 -1.79583 0
M  V30 16414 C 1558.14 0.927902 -3.34675 0
M  V30 16415 C 1557.1 0.232979 -4.27365 0
M  V30 16416 C 1556.42 1.29415 -5.18802 0
M  V30 16417 C 1557.72 -0.891559 -5.14634 0
M  V30 16418 H 1559.42 -0.782823 -2.88985 0
M  V30 16419 H 1556.96 -0.377898 -1.38953 0
M  V30 16420 H 1558.92 1.3992 -3.97493 0
M  V30 16421 H 1557.64 1.72228 -2.77498 0
M  V30 16422 H 1556.3 -0.21814 -3.6595 0
M  V30 16423 H 1555.95 2.08067 -4.57949 0
M  V30 16424 H 1555.65 0.834274 -5.81647 0
M  V30 16425 H 1557.17 1.76627 -5.84496 0
M  V30 16426 H 1558.59 -0.501219 -5.71105 0
M  V30 16427 H 1556.98 -1.27759 -5.86343 0
M  V30 16428 H 1558.05 -1.73781 -4.5269 0
M  V30 16429 N 1559.4 1.51781 -0.424309 0
M  V30 16430 C 1560.62 2.06871 0.147968 0
M  V30 16431 C 1561.05 1.29093 1.36808 0
M  V30 16432 O 1560.4 0.325279 1.78358 0
M  V30 16433 C 1560.45 3.57631 0.461757 0
M  V30 16434 O 1559.56 3.82149 1.55035 0
M  V30 16435 H 1558.9 0.663957 0.00757275 0
M  V30 16436 H 1561.43 1.95547 -0.601888 0
M  V30 16437 H 1561.44 4.01668 0.716005 0
M  V30 16438 H 1560.11 4.1367 -0.430081 0
M  V30 16439 H 1558.69 3.49984 1.28709 0
M  V30 16440 N 1560.87 0.155222 1.56834 0
M  V30 16441 C 1561.8 -0.777258 2.20184 0
M  V30 16442 C 1562.78 -1.25102 1.15254 0
M  V30 16443 O 1563.97 -1.3071 1.43627 0
M  V30 16444 C 1561.1 -2.01326 2.82993 0
M  V30 16445 C 1560.05 -1.67596 3.93822 0
M  V30 16446 C 1559.38 -2.98529 4.43604 0
M  V30 16447 C 1560.68 -0.916302 5.142 0
M  V30 16448 H 1562.37 -0.249257 2.98361 0
M  V30 16449 H 1559.92 -0.118448 1.43512 0
M  V30 16450 H 1561.87 -2.67048 3.2598 0
M  V30 16451 H 1560.6 -2.56513 2.0216 0
M  V30 16452 H 1559.26 -1.0425 3.51465 0
M  V30 16453 H 1558.9 -3.51723 3.59583 0
M  V30 16454 H 1558.6 -2.76721 5.18362 0
M  V30 16455 H 1560.13 -3.65308 4.89267 0
M  V30 16456 H 1561.54 -1.47577 5.5398 0
M  V30 16457 H 1559.94 -0.797856 5.94772 0
M  V30 16458 H 1561.01 0.0904351 4.84816 0
M  V30 16459 N 1562.35 -1.57153 -0.118549 0
M  V30 16460 C 1563.76 -1.74046 -0.675645 0
M  V30 16461 C 1564.11 -0.773974 -1.80289 0
M  V30 16462 O 1563.24 0.0530041 -2.16335 0
M  V30 16463 C 1563.83 -3.15591 -1.23239 0
M  V30 16464 C 1562.39 -3.33988 -1.73577 0
M  V30 16465 C 1561.54 -2.69916 -0.63567 0
M  V30 16466 H 1564.49 -1.58336 0.10737 0
M  V30 16467 H 1564.51 -3.17166 -2.10205 0
M  V30 16468 H 1564.02 -3.8591 -0.411744 0
M  V30 16469 H 1562.12 -2.68712 -2.58118 0
M  V30 16470 H 1562.24 -4.42154 -1.84491 0
M  V30 16471 H 1560.6 -2.31163 -1.06939 0
M  V30 16472 H 1561.38 -3.42859 0.174005 0
M  V30 16473 N 1563.83 0.388742 -1.5273 0
M  V30 16474 C 1565.08 1.13543 -1.68035 0
M  V30 16475 C 1565.41 1.89622 -0.419177 0
M  V30 16476 O 1564.68 1.85556 0.583031 0
M  V30 16477 C 1564.97 2.11346 -2.91556 0
M  V30 16478 C 1564.82 1.39029 -4.27775 0
M  V30 16479 C 1566.14 3.11769 -3.10625 0
M  V30 16480 H 1563.26 0.411406 -0.611485 0
M  V30 16481 H 1565.9 0.418781 -1.85327 0
M  V30 16482 H 1564.05 2.7246 -2.76944 0
M  V30 16483 H 1565.72 0.808775 -4.54155 0
M  V30 16484 H 1563.96 0.692133 -4.28243 0
M  V30 16485 H 1564.64 2.10495 -5.1029 0
M  V30 16486 H 1567.11 2.60745 -3.2427 0
M  V30 16487 H 1565.99 3.77447 -3.98529 0
M  V30 16488 H 1566.25 3.80649 -2.24853 0
M  V30 16489 N 1565.31 1.43698 0.647203 0
M  V30 16490 C 1566.27 1.48986 1.74172 0
M  V30 16491 C 1567.27 0.373812 1.56395 0
M  V30 16492 O 1568.46 0.635804 1.62183 0
M  V30 16493 C 1565.59 1.34827 3.13104 0
M  V30 16494 H 1566.79 2.46467 1.70863 0
M  V30 16495 H 1564.34 1.30552 0.859409 0
M  V30 16496 H 1565.07 0.383772 3.22021 0
M  V30 16497 H 1564.86 2.15738 3.27414 0
M  V30 16498 H 1566.35 1.41473 3.92906 0
M  V30 16499 N 1566.79 -0.886131 1.30328 0
M  V30 16500 C 1568.2 -1.16922 1.08634 0
M  V30 16501 C 1568.4 -2.00913 -0.15365 0
M  V30 16502 O 1567.46 -2.37849 -0.847592 0
M  V30 16503 C 1568.77 -1.87701 2.34923 0
M  V30 16504 C 1570.32 -2.0047 2.40376 0
M  V30 16505 C 1570.79 -2.74662 3.66504 0
M  V30 16506 N 1572.29 -2.82208 3.67305 0
M  V30 16507 C 1573.02 -3.40185 4.61586 0
M  V30 16508 N 1572.52 -3.99221 5.66211 0
M  V30 16509 N 1574.31 -3.37989 4.49132 0
M  V30 16510 H 1566.46 -0.326064 2.09882 0
M  V30 16511 H 1568.72 -0.206996 0.925125 0
M  V30 16512 H 1568.43 -1.33427 3.25408 0
M  V30 16513 H 1568.3 -2.88092 2.43481 0
M  V30 16514 H 1570.69 -2.53914 1.50371 0
M  V30 16515 H 1570.77 -0.991709 2.35794 0
M  V30 16516 H 1570.42 -2.2189 4.56867 0
M  V30 16517 H 1570.35 -3.76335 3.68347 0
M  V30 16518 H 1572.84 -2.40292 2.91665 0
M  V30 16519 H 1573.15 -4.41522 6.34254 0
M  V30 16520 H 1571.49 -3.97643 5.70004 0
M  V30 16521 H 1574.69 -2.91096 3.6658 0
M  V30 16522 H 1574.86 -3.82877 5.2279 0
M  V30 16523 N 1568.26 -1.13026 -1.09832 0
M  V30 16524 C 1569.21 -0.803817 -2.1635 0
M  V30 16525 C 1570.18 0.232226 -1.64469 0
M  V30 16526 O 1571.37 0.105403 -1.90509 0
M  V30 16527 C 1568.51 -0.271414 -3.44031 0
M  V30 16528 C 1567.62 -1.36602 -4.09834 0
M  V30 16529 C 1566.75 -0.792393 -5.25257 0
M  V30 16530 C 1565.79 -1.86569 -5.82974 0
M  V30 16531 N 1564.93 -1.31032 -6.89764 0
M  V30 16532 H 1569.77 -1.71624 -2.43617 0
M  V30 16533 H 1567.31 -0.856772 -1.19574 0
M  V30 16534 H 1569.27 0.0553638 -4.17163 0
M  V30 16535 H 1567.9 0.604154 -3.17096 0
M  V30 16536 H 1566.95 -1.80946 -3.34608 0
M  V30 16537 H 1568.26 -2.17737 -4.48767 0
M  V30 16538 H 1567.41 -0.416652 -6.05268 0
M  V30 16539 H 1566.15 0.0500894 -4.87674 0
M  V30 16540 H 1565.16 -2.25054 -5.01628 0
M  V30 16541 H 1566.38 -2.7115 -6.22619 0
M  V30 16542 H 1564.33 -0.489768 -6.54169 0
M  V30 16543 H 1564.25 -2.0582 -7.27444 0
M  V30 16544 H 1565.51 -0.962011 -7.73541 0
M  V30 16545 N 1569.74 1.27735 -0.923117 0
M  V30 16546 C 1570.99 1.94185 -0.56004 0
M  V30 16547 C 1571.31 1.72945 0.90084 0
M  V30 16548 O 1570.58 1.07453 1.63801 0
M  V30 16549 H 1569.16 0.718568 -0.204129 0
M  V30 16550 H 1571.82 1.55535 -1.17451 0
M  V30 16551 H 1570.92 3.02644 -0.762424 0
M  V30 16552 N 1571.22 0.688118 1.41784 0
M  V30 16553 C 1572.45 0.223231 2.06195 0
M  V30 16554 C 1572.87 -1.11601 1.51416 0
M  V30 16555 O 1572.23 -1.69701 0.638059 0
M  V30 16556 C 1572.28 0.183257 3.60134 0
M  V30 16557 O 1571.38 -0.844186 4.03667 0
M  V30 16558 H 1570.72 0.110925 0.654669 0
M  V30 16559 H 1573.25 0.940882 1.81683 0
M  V30 16560 H 1573.26 0.0115951 4.07998 0
M  V30 16561 H 1571.94 1.16072 3.99375 0
M  V30 16562 H 1570.51 -0.642484 3.67323 0
M  V30 16563 N 1572.7 -1.51554 0.432352 0
M  V30 16564 C 1573.95 -2.01232 -0.137255 0
M  V30 16565 C 1574.26 -1.32135 -1.44221 0
M  V30 16566 O 1575.47 -1.72756 -2.09446 0
M  V30 16567 C 1573.92 -3.58688 -0.295152 0
M  V30 16568 C 1573.53 -4.36718 0.999072 0
M  V30 16569 C 1575.27 -4.16528 -0.818798 0
M  V30 16570 C 1573.18 -5.85867 0.80709 0
M  V30 16571 H 1572.11 -0.751986 -0.0550696 0
M  V30 16572 H 1574.76 -1.74703 0.561352 0
M  V30 16573 H 1573.14 -3.81643 -1.05664 0
M  V30 16574 H 1574.32 -4.25512 1.76851 0
M  V30 16575 H 1572.63 -3.90306 1.45087 0
M  V30 16576 H 1575.23 -5.25664 -0.978841 0
M  V30 16577 H 1575.57 -3.75379 -1.79989 0
M  V30 16578 H 1576.11 -3.97632 -0.11575 0
M  V30 16579 H 1572.85 -6.31419 1.76041 0
M  V30 16580 H 1572.37 -5.9975 0.0773617 0
M  V30 16581 H 1574.04 -6.45375 0.458328 0
M  V30 16582 N 1574.18 -0.163538 -1.56749 0
M  V30 16583 C 1575.4 0.493087 -2.01453 0
M  V30 16584 C 1575.83 1.56535 -1.043 0
M  V30 16585 O 1575.18 1.81287 -0.0213039 0
M  V30 16586 C 1575.23 1.05546 -3.44808 0
M  V30 16587 O 1574.34 2.16977 -3.50706 0
M  V30 16588 H 1573.68 0.118905 -0.653267 0
M  V30 16589 H 1576.21 -0.265139 -2.02875 0
M  V30 16590 H 1576.22 1.38002 -3.83953 0
M  V30 16591 H 1574.89 0.270333 -4.1502 0
M  V30 16592 H 1573.47 1.85625 -3.23416 0
M  V30 16593 N 1575.65 1.57214 0.110213 0
M  V30 16594 C 1576.93 1.76298 0.847249 0
M  V30 16595 C 1577.31 0.741294 1.97656 0
M  V30 16596 O 1576.66 -0.233104 2.27308 0
M  V30 16597 C 1576.87 3.21588 1.35582 0
M  V30 16598 C 1578.22 3.8434 1.80465 0
M  V30 16599 O 1579.24 3.25244 1.45241 0
M  V30 16600 O 1578.1 4.88231 2.45546 0
M  V30 16601 H 1575.19 0.722167 0.402993 0
M  V30 16602 H 1577.74 1.69443 0.0932694 0
M  V30 16603 H 1576.51 3.87472 0.54599 0
M  V30 16604 H 1576.14 3.33015 2.17225 0
M  V30 16605 N 1577.13 -0.380637 1.52934 0
M  V30 16606 C 1578.06 -1.47174 1.81279 0
M  V30 16607 C 1579.04 -1.56549 0.665319 0
M  V30 16608 O 1580.23 -1.71362 0.913722 0
M  V30 16609 C 1577.36 -2.84691 1.98918 0
M  V30 16610 C 1576.31 -2.90151 3.14637 0
M  V30 16611 C 1575.64 -4.30198 3.17544 0
M  V30 16612 C 1576.94 -2.59037 4.53539 0
M  V30 16613 H 1578.63 -1.23703 2.7265 0
M  V30 16614 H 1576.18 -0.593654 1.31194 0
M  V30 16615 H 1578.13 -3.61034 2.1733 0
M  V30 16616 H 1576.86 -3.09517 1.04244 0
M  V30 16617 H 1575.51 -2.16257 2.96021 0
M  V30 16618 H 1575.16 -4.52076 2.20536 0
M  V30 16619 H 1574.86 -4.3477 3.95284 0
M  V30 16620 H 1576.39 -5.08435 3.38121 0
M  V30 16621 H 1577.8 -3.25096 4.72214 0
M  V30 16622 H 1576.2 -2.74946 5.33408 0
M  V30 16623 H 1577.27 -1.54342 4.59681 0
M  V30 16624 N 1578.61 -1.44039 -0.639573 0
M  V30 16625 C 1579.54 -1.53073 -1.76327 0
M  V30 16626 C 1580.52 -0.384344 -1.65701 0
M  V30 16627 O 1581.71 -0.603362 -1.84589 0
M  V30 16628 C 1578.84 -1.46646 -3.14821 0
M  V30 16629 C 1577.79 -2.59673 -3.40226 0
M  V30 16630 C 1577.12 -2.38298 -4.78663 0
M  V30 16631 C 1578.42 -4.01864 -3.33621 0
M  V30 16632 H 1580.11 -2.47126 -1.69023 0
M  V30 16633 H 1577.66 -1.1894 -0.811749 0
M  V30 16634 H 1579.61 -1.51567 -3.93199 0
M  V30 16635 H 1578.33 -0.491035 -3.22888 0
M  V30 16636 H 1576.99 -2.54127 -2.64225 0
M  V30 16637 H 1576.64 -1.38968 -4.83422 0
M  V30 16638 H 1576.34 -3.14074 -4.9662 0
M  V30 16639 H 1577.86 -2.45025 -5.59281 0
M  V30 16640 H 1579.28 -4.08824 -4.01915 0
M  V30 16641 H 1577.68 -4.77775 -3.63113 0
M  V30 16642 H 1578.75 -4.26033 -2.31569 0
M  V30 16643 N 1580.09 0.879207 -1.30796 0
M  V30 16644 C 1581.32 1.66208 -1.22713 0
M  V30 16645 C 1581.73 1.88014 0.211506 0
M  V30 16646 O 1581.07 1.43183 1.15084 0
M  V30 16647 C 1581.13 3.05733 -1.89123 0
M  V30 16648 C 1580.8 3.07075 -3.38458 0
M  V30 16649 C 1581.79 2.85709 -4.34358 0
M  V30 16650 C 1579.48 3.28489 -3.8 0
M  V30 16651 C 1581.47 2.85722 -5.69773 0
M  V30 16652 C 1579.16 3.28131 -5.15532 0
M  V30 16653 C 1580.16 3.06773 -6.10229 0
M  V30 16654 O 1579.84 3.06243 -7.43283 0
M  V30 16655 H 1579.58 0.525224 -0.425577 0
M  V30 16656 H 1582.13 1.10636 -1.73057 0
M  V30 16657 H 1580.36 3.62993 -1.33316 0
M  V30 16658 H 1582.05 3.66199 -1.7508 0
M  V30 16659 H 1582.82 2.68956 -4.03593 0
M  V30 16660 H 1578.69 3.44147 -3.06731 0
M  V30 16661 H 1582.24 2.6897 -6.43662 0
M  V30 16662 H 1578.14 3.44422 -5.45934 0
M  V30 16663 H 1578.9 3.22369 -7.52343 0
M  V30 16664 N 1581.57 1.13606 1.09231 0
M  V30 16665 C 1582.5 0.758936 2.1521 0
M  V30 16666 C 1583.48 -0.255788 1.60575 0
M  V30 16667 O 1584.66 -0.14682 1.87927 0
M  V30 16668 C 1581.79 0.125401 3.38468 0
M  V30 16669 C 1580.84 1.10894 4.11831 0
M  V30 16670 S 1581.67 2.64233 4.65769 0
M  V30 16671 C 1582.82 2.02246 5.92324 0
M  V30 16672 H 1583.06 1.65661 2.46868 0
M  V30 16673 H 1580.59 0.956419 1.2121 0
M  V30 16674 H 1582.55 -0.233725 4.09834 0
M  V30 16675 H 1581.21 -0.749575 3.05025 0
M  V30 16676 H 1580.4 0.613519 5.00252 0
M  V30 16677 H 1580 1.41163 3.46336 0
M  V30 16678 H 1582.3 1.37275 6.63447 0
M  V30 16679 H 1583.24 2.88756 6.46549 0
M  V30 16680 H 1583.65 1.47321 5.44937 0
M  V30 16681 N 1583.05 -1.27244 0.929878 0
M  V30 16682 C 1584.01 -2.25028 0.435315 0
M  V30 16683 C 1585.01 -1.54453 -0.447332 0
M  V30 16684 O 1586.2 -1.72424 -0.248105 0
M  V30 16685 C 1583.33 -3.38843 -0.373933 0
M  V30 16686 H 1584.52 -2.70293 1.2993 0
M  V30 16687 H 1582.08 -1.39204 0.710771 0
M  V30 16688 H 1582.81 -2.98963 -1.25664 0
M  V30 16689 H 1582.6 -3.91244 0.258946 0
M  V30 16690 H 1584.09 -4.11516 -0.710255 0
M  V30 16691 N 1584.52 -0.695628 -1.41417 0
M  V30 16692 C 1585.77 -0.235709 -2.0203 0
M  V30 16693 C 1586.12 1.15186 -1.5411 0
M  V30 16694 O 1585.42 1.76628 -0.742491 0
M  V30 16695 C 1585.61 -0.232664 -3.56642 0
M  V30 16696 C 1585.44 -1.61841 -4.19569 0
M  V30 16697 C 1584.21 -2.22126 -4.53859 0
M  V30 16698 C 1586.41 -2.56502 -4.4577 0
M  V30 16699 N 1584.39 -3.53264 -5.02073 0
M  V30 16700 C 1585.76 -3.72319 -4.9576 0
M  V30 16701 C 1587.82 -2.54768 -4.27782 0
M  V30 16702 C 1586.52 -4.86684 -5.29652 0
M  V30 16703 C 1588.55 -3.68245 -4.62763 0
M  V30 16704 C 1587.91 -4.82792 -5.12924 0
M  V30 16705 H 1584.01 -0.131642 -0.77084 0
M  V30 16706 H 1586.59 -0.913121 -1.7196 0
M  V30 16707 H 1584.76 0.414235 -3.86185 0
M  V30 16708 H 1586.49 0.242088 -4.03975 0
M  V30 16709 H 1583.25 -1.74412 -4.40315 0
M  V30 16710 H 1583.67 -4.20485 -5.30586 0
M  V30 16711 H 1588.31 -1.67424 -3.88238 0
M  V30 16712 H 1586.03 -5.74687 -5.6812 0
M  V30 16713 H 1589.62 -3.68155 -4.50504 0
M  V30 16714 H 1588.5 -5.69145 -5.39485 0
M  V30 16715 N 1586 1.51322 -0.440383 0
M  V30 16716 C 1586.93 2.30708 0.360013 0
M  V30 16717 C 1587.91 1.36254 1.01828 0
M  V30 16718 O 1589.1 1.65174 1.02134 0
M  V30 16719 C 1586.23 3.15132 1.45977 0
M  V30 16720 C 1585.18 4.17889 0.924825 0
M  V30 16721 C 1584.51 4.90853 2.12056 0
M  V30 16722 C 1585.81 5.22282 -0.0428362 0
M  V30 16723 H 1587.5 2.97868 -0.30248 0
M  V30 16724 H 1585.05 1.43249 -0.146914 0
M  V30 16725 H 1587 3.69449 2.02695 0
M  V30 16726 H 1585.72 2.45798 2.1506 0
M  V30 16727 H 1584.38 3.64627 0.379842 0
M  V30 16728 H 1584.03 4.1802 2.79765 0
M  V30 16729 H 1583.73 5.60339 1.769 0
M  V30 16730 H 1585.26 5.47995 2.69322 0
M  V30 16731 H 1586.67 5.71654 0.434137 0
M  V30 16732 H 1585.07 5.99314 -0.307126 0
M  V30 16733 H 1586.14 4.74923 -0.978557 0
M  V30 16734 N 1587.48 0.171848 1.5666 0
M  V30 16735 C 1588.39 -0.770721 2.21579 0
M  V30 16736 C 1589.41 -1.25273 1.20759 0
M  V30 16737 O 1590.58 -1.30474 1.53422 0
M  V30 16738 C 1587.65 -1.98256 2.84422 0
M  V30 16739 C 1586.71 -1.54738 4.00443 0
M  V30 16740 C 1585.94 -2.70145 4.6028 0
M  V30 16741 O 1586.16 -3.87026 4.19007 0
M  V30 16742 O 1585.1 -2.44189 5.50141 0
M  V30 16743 H 1588.92 -0.247974 3.02686 0
M  V30 16744 H 1586.51 -0.0563734 1.49294 0
M  V30 16745 H 1588.39 -2.69127 3.24266 0
M  V30 16746 H 1587.07 -2.49435 2.0631 0
M  V30 16747 H 1585.97 -0.808152 3.65267 0
M  V30 16748 H 1587.31 -1.08249 4.80149 0
M  V30 16749 N 1588.96 -1.5727 -0.101874 0
M  V30 16750 C 1590.21 -1.84928 -0.805263 0
M  V30 16751 C 1590.52 -0.760099 -1.80227 0
M  V30 16752 O 1591.73 -0.923594 -2.55308 0
M  V30 16753 C 1590.18 -3.27929 -1.48291 0
M  V30 16754 C 1589.79 -4.44901 -0.526016 0
M  V30 16755 C 1591.53 -3.64819 -2.17043 0
M  V30 16756 C 1589.44 -5.78934 -1.20787 0
M  V30 16757 H 1588.37 -0.689789 -0.304478 0
M  V30 16758 H 1591.02 -1.83408 -0.0581337 0
M  V30 16759 H 1589.4 -3.2397 -2.27726 0
M  V30 16760 H 1590.58 -4.60193 0.236352 0
M  V30 16761 H 1588.89 -4.16363 0.0554387 0
M  V30 16762 H 1591.49 -4.62236 -2.68778 0
M  V30 16763 H 1591.83 -2.93104 -2.95628 0
M  V30 16764 H 1592.37 -3.70637 -1.44476 0
M  V30 16765 H 1589.1 -6.53863 -0.46296 0
M  V30 16766 H 1588.62 -5.67497 -1.94183 0
M  V30 16767 H 1590.3 -6.23268 -1.73626 0
M  V30 16768 N 1590.44 0.372521 -1.53134 0
M  V30 16769 C 1591.37 1.4621 -1.82057 0
M  V30 16770 C 1592.35 1.56194 -0.673612 0
M  V30 16771 O 1593.53 1.70875 -0.922797 0
M  V30 16772 C 1590.66 2.83632 -2.00425 0
M  V30 16773 C 1589.62 2.88478 -3.16171 0
M  V30 16774 C 1588.94 4.28508 -3.19821 0
M  V30 16775 C 1590.24 2.56628 -4.54906 0
M  V30 16776 H 1591.94 1.22256 -2.73302 0
M  V30 16777 H 1589.48 0.586688 -1.31507 0
M  V30 16778 H 1591.43 3.59876 -2.19242 0
M  V30 16779 H 1590.16 3.0896 -1.05884 0
M  V30 16780 H 1588.82 2.14684 -2.97164 0
M  V30 16781 H 1588.47 4.509 -2.2293 0
M  V30 16782 H 1588.17 4.32667 -3.97584 0
M  V30 16783 H 1589.69 5.06635 -3.40813 0
M  V30 16784 H 1591.1 3.22587 -4.73931 0
M  V30 16785 H 1589.5 2.72114 -5.34859 0
M  V30 16786 H 1590.57 1.51902 -4.60493 0
M  V30 16787 N 1591.91 1.44376 0.631925 0
M  V30 16788 C 1593.14 1.50598 1.41873 0
M  V30 16789 C 1593.56 0.130589 1.88348 0
M  V30 16790 O 1592.91 -0.86336 1.60787 0
M  V30 16791 C 1592.96 2.47 2.63957 0
M  V30 16792 O 1592.69 3.79192 2.1942 0
M  V30 16793 C 1594.19 2.62678 3.57092 0
M  V30 16794 H 1591.41 0.510792 0.435124 0
M  V30 16795 H 1593.95 1.89332 0.772893 0
M  V30 16796 H 1592.11 2.11404 3.24634 0
M  V30 16797 H 1592.52 4.31231 2.98563 0
M  V30 16798 H 1593.99 3.34161 4.39364 0
M  V30 16799 H 1594.47 1.67881 4.05848 0
M  V30 16800 H 1595.08 2.99172 3.02285 0
M  V30 16801 N 1593.39 -0.872258 1.31261 0
M  V30 16802 C 1594.34 -1.97926 1.18718 0
M  V30 16803 C 1595.31 -1.65937 0.0735242 0
M  V30 16804 O 1596.49 -1.89208 0.245979 0
M  V30 16805 C 1593.63 -3.33208 0.898117 0
M  V30 16806 C 1592.75 -3.77808 2.09488 0
M  V30 16807 C 1591.88 -5.01796 1.74281 0
M  V30 16808 C 1590.92 -5.38838 2.90379 0
M  V30 16809 N 1590.06 -6.54007 2.55382 0
M  V30 16810 H 1594.9 -2.07986 2.13415 0
M  V30 16811 H 1592.43 -1.01821 1.06165 0
M  V30 16812 H 1594.39 -4.11095 0.711089 0
M  V30 16813 H 1593.02 -3.22798 -0.0120097 0
M  V30 16814 H 1592.07 -2.95722 2.39276 0
M  V30 16815 H 1593.39 -4.01191 2.96391 0
M  V30 16816 H 1592.54 -5.87344 1.52027 0
M  V30 16817 H 1591.28 -4.80312 0.845665 0
M  V30 16818 H 1590.28 -4.51811 3.13284 0
M  V30 16819 H 1591.51 -5.62289 3.80799 0
M  V30 16820 H 1589.46 -6.34073 1.68188 0
M  V30 16821 H 1589.37 -6.77322 3.35814 0
M  V30 16822 H 1590.64 -7.42752 2.36516 0
M  V30 16823 N 1594.87 -1.14184 -1.08627 0
M  V30 16824 C 1595.82 -0.822297 -2.1758 0
M  V30 16825 C 1596.81 0.198863 -1.68229 0
M  V30 16826 O 1598.02 0.0551869 -1.79915 0
M  V30 16827 H 1594.39 -0.248183 -0.709866 0
M  V30 16828 H 1596.36 -1.74916 -2.41758 0
M  V30 16829 C 1595.11 -0.313671 -3.46282 0
M  V30 16830 H 1594.44 -1.09078 -3.84632 0
M  V30 16831 H 1595.88 -0.128604 -4.23805 0
M  V30 16832 C 1594.33 0.962289 -3.22865 0
M  V30 16833 O 1594.86 2.03649 -3.46251 0
M  V30 16834 N 1593.07 0.896635 -2.76421 0
M  V30 16835 H 1592.62 0.0223186 -2.5759 0
M  V30 16836 H 1592.58 1.75093 -2.61132 0
M  V30 16837 N 1596.35 1.26749 -0.936613 0
M  V30 16838 C 1597.28 2.2892 -0.460213 0
M  V30 16839 C 1598.26 1.63065 0.484135 0
M  V30 16840 O 1599.44 1.90305 0.386973 0
M  V30 16841 C 1596.57 3.46172 0.279648 0
M  V30 16842 C 1595.53 4.24083 -0.57771 0
M  V30 16843 C 1594.85 5.33903 0.291843 0
M  V30 16844 C 1596.15 4.88562 -1.84673 0
M  V30 16845 H 1597.85 2.69019 -1.31412 0
M  V30 16846 H 1595.39 1.29325 -0.633333 0
M  V30 16847 H 1597.35 4.16755 0.623931 0
M  V30 16848 H 1596.07 3.05014 1.16765 0
M  V30 16849 H 1594.73 3.55258 -0.904824 0
M  V30 16850 H 1594.38 4.88986 1.17906 0
M  V30 16851 H 1594.08 5.8694 -0.278372 0
M  V30 16852 H 1595.6 6.07326 0.631498 0
M  V30 16853 H 1597.02 5.51384 -1.56997 0
M  V30 16854 H 1595.41 5.51697 -2.36115 0
M  V30 16855 H 1596.48 4.11761 -2.56088 0
M  V30 16856 N 1597.83 0.703118 1.41046 0
M  V30 16857 C 1599.24 0.311167 1.84089 0
M  V30 16858 C 1599.59 -1.15202 1.58818 0
M  V30 16859 O 1598.71 -1.88518 1.06254 0
M  V30 16860 C 1599.31 0.557986 3.34174 0
M  V30 16861 C 1597.87 0.219875 3.75757 0
M  V30 16862 C 1597.01 0.836543 2.64381 0
M  V30 16863 H 1599.97 0.903211 1.30491 0
M  V30 16864 H 1599.99 -0.180865 3.8007 0
M  V30 16865 H 1599.5 1.62298 3.52535 0
M  V30 16866 H 1597.6 -0.840559 3.62995 0
M  V30 16867 H 1597.71 0.680165 4.74247 0
M  V30 16868 H 1596.08 0.265547 2.53312 0
M  V30 16869 H 1596.86 1.90556 2.85558 0
M  V30 16870 N 1599.3 -1.51086 0.448402 0
M  V30 16871 C 1600.72 -1.86696 -0.0121264 0
M  V30 16872 C 1601.07 -1.36483 -1.40949 0
M  V30 16873 O 1600.19 -0.72024 -2.04062 0
M  V30 16874 C 1600.79 -3.38788 -0.0287814 0
M  V30 16875 C 1599.35 -3.73892 -0.433758 0
M  V30 16876 C 1598.49 -2.74869 0.366362 0
M  V30 16877 H 1601.44 -1.44153 0.663744 0
M  V30 16878 H 1601.46 -3.71204 -0.835915 0
M  V30 16879 H 1600.98 -3.75304 0.988368 0
M  V30 16880 H 1599.08 -3.4297 -1.4561 0
M  V30 16881 H 1599.19 -4.78862 -0.150869 0
M  V30 16882 H 1597.55 -2.54085 -0.176862 0
M  V30 16883 H 1598.34 -3.14228 1.3826 0
M  V30 16884 N 1600.78 -0.180154 -1.56567 0
M  V30 16885 C 1602.03 0.463205 -1.97439 0
M  V30 16886 C 1602.36 1.62296 -1.06647 0
M  V30 16887 O 1601.64 1.94157 -0.115382 0
M  V30 16888 C 1601.92 0.937709 -3.47677 0
M  V30 16889 C 1601.77 -0.222835 -4.49248 0
M  V30 16890 C 1603.09 1.80836 -4.01231 0
M  V30 16891 H 1600.21 0.166899 -0.717854 0
M  V30 16892 H 1602.85 -0.268069 -1.88099 0
M  V30 16893 H 1601 1.56084 -3.55767 0
M  V30 16894 H 1602.67 -0.860155 -4.5321 0
M  V30 16895 H 1600.92 -0.876962 -4.24843 0
M  V30 16896 H 1601.59 0.151444 -5.51792 0
M  V30 16897 H 1604.06 1.28297 -3.95827 0
M  V30 16898 H 1602.94 2.10937 -5.06751 0
M  V30 16899 H 1603.2 2.75728 -3.45581 0
M  V30 16900 N 1602.26 1.57322 0.0935319 0
M  V30 16901 C 1603.19 2.05208 1.11409 0
M  V30 16902 C 1604.17 0.941295 1.41681 0
M  V30 16903 O 1605.36 1.21266 1.51684 0
M  V30 16904 C 1602.49 2.47782 2.43354 0
M  V30 16905 C 1601.44 3.62538 2.27486 0
M  V30 16906 C 1600.77 3.91095 3.64622 0
M  V30 16907 C 1602.07 4.93371 1.71412 0
M  V30 16908 H 1603.76 2.9072 0.715702 0
M  V30 16909 H 1601.31 1.3986 0.342827 0
M  V30 16910 H 1603.26 2.79891 3.15022 0
M  V30 16911 H 1601.98 1.59272 2.85132 0
M  V30 16912 H 1600.64 3.30679 1.58263 0
M  V30 16913 H 1600.29 2.99749 4.0393 0
M  V30 16914 H 1599.99 4.68353 3.5485 0
M  V30 16915 H 1601.51 4.25679 4.37755 0
M  V30 16916 H 1602.93 5.23851 2.32922 0
M  V30 16917 H 1601.33 5.74804 1.72395 0
M  V30 16918 H 1602.4 4.80197 0.67368 0
M  V30 16919 N 1603.74 -0.364395 1.53329 0
M  V30 16920 C 1604.67 -1.45243 1.8283 0
M  V30 16921 C 1605.65 -1.55834 0.681886 0
M  V30 16922 O 1606.83 -1.70383 0.931845 0
M  V30 16923 C 1603.96 -2.82565 2.01926 0
M  V30 16924 C 1602.92 -2.86797 3.17697 0
M  V30 16925 C 1602.24 -4.26806 3.22089 0
M  V30 16926 C 1603.54 -2.54212 4.56261 0
M  V30 16927 H 1605.24 -1.20804 2.73946 0
M  V30 16928 H 1602.78 -0.579705 1.31816 0
M  V30 16929 H 1604.74 -3.58709 2.21147 0
M  V30 16930 H 1603.46 -3.08394 1.07521 0
M  V30 16931 H 1602.12 -2.13105 2.98298 0
M  V30 16932 H 1601.77 -4.49712 2.25318 0
M  V30 16933 H 1601.47 -4.30553 3.99873 0
M  V30 16934 H 1602.99 -5.04821 3.43495 0
M  V30 16935 H 1604.41 -3.20069 4.75635 0
M  V30 16936 H 1602.8 -2.69273 5.36295 0
M  V30 16937 H 1603.87 -1.49458 4.61292 0
M  V30 16938 N 1605.22 -1.44709 -0.62426 0
M  V30 16939 C 1606.46 -1.48072 -1.38573 0
M  V30 16940 C 1606.8 -0.115532 -1.93856 0
M  V30 16941 O 1606.07 0.867787 -1.74068 0
M  V30 16942 C 1606.35 -2.54662 -2.54596 0
M  V30 16943 C 1606.21 -4.00564 -2.04618 0
M  V30 16944 C 1607.53 -2.57689 -3.56769 0
M  V30 16945 H 1604.64 -0.539119 -0.502513 0
M  V30 16946 H 1607.29 -1.76427 -0.705225 0
M  V30 16947 H 1605.44 -2.30614 -3.12649 0
M  V30 16948 H 1607.11 -4.35767 -1.51343 0
M  V30 16949 H 1605.35 -4.12014 -1.35746 0
M  V30 16950 H 1606.02 -4.70804 -2.8818 0
M  V30 16951 H 1608.5 -2.79194 -3.08529 0
M  V30 16952 H 1607.37 -3.34161 -4.35462 0
M  V30 16953 H 1607.64 -1.62146 -4.11292 0
M  V30 16954 N 1606.69 0.865285 -1.31722 0
M  V30 16955 C 1608.11 1.15179 -1.10481 0
M  V30 16956 C 1608.31 2.01132 0.121667 0
M  V30 16957 O 1607.37 2.39167 0.809645 0
M  V30 16958 C 1608.68 1.8394 -2.3788 0
M  V30 16959 C 1610.23 1.96621 -2.43535 0
M  V30 16960 C 1610.7 2.68796 -3.70827 0
M  V30 16961 N 1612.19 2.76329 -3.71748 0
M  V30 16962 C 1612.93 3.32798 -4.6694 0
M  V30 16963 N 1612.42 3.90162 -5.7249 0
M  V30 16964 N 1614.22 3.30801 -4.54453 0
M  V30 16965 H 1606.37 0.292632 -2.10374 0
M  V30 16966 H 1608.63 0.192252 -0.928301 0
M  V30 16967 H 1608.34 1.28233 -3.27489 0
M  V30 16968 H 1608.21 2.84182 -2.48034 0
M  V30 16969 H 1610.6 2.5149 -1.54392 0
M  V30 16970 H 1610.68 0.954071 -2.37342 0
M  V30 16971 H 1610.32 2.14593 -4.60339 0
M  V30 16972 H 1610.25 3.70427 -3.74288 0
M  V30 16973 H 1612.74 2.35621 -2.95451 0
M  V30 16974 H 1613.06 4.31376 -6.41198 0
M  V30 16975 H 1611.4 3.88525 -5.76258 0
M  V30 16976 H 1614.59 2.85227 -3.71165 0
M  V30 16977 H 1614.77 3.74511 -5.28815 0
M  V30 16978 N 1608.17 1.14759 1.0802 0
M  V30 16979 C 1609.42 0.916435 1.80127 0
M  V30 16980 C 1609.74 -0.558281 1.86837 0
M  V30 16981 O 1609.01 -1.40579 1.36434 0
M  V30 16982 H 1607.59 0.336066 0.667135 0
M  V30 16983 H 1610.25 1.44693 1.30576 0
M  V30 16984 H 1609.35 1.31986 2.82818 0
M  V30 16985 N 1609.65 -1.26251 0.943322 0
M  V30 16986 C 1610.6 -2.28295 0.445441 0
M  V30 16987 C 1611.59 -1.62504 -0.478401 0
M  V30 16988 O 1612.8 -1.76437 -0.356378 0
M  V30 16989 H 1609.17 -0.741451 0.125517 0
M  V30 16990 H 1611.14 -2.67687 1.31858 0
M  V30 16991 C 1609.89 -3.46635 -0.271987 0
M  V30 16992 H 1609.22 -3.97484 0.429734 0
M  V30 16993 H 1610.66 -4.19951 -0.584544 0
M  V30 16994 C 1609.12 -3.02133 -1.49054 0
M  V30 16995 O 1609.65 -3.07158 -2.58876 0
M  V30 16996 N 1607.85 -2.57451 -1.34787 0
M  V30 16997 H 1607.4 -2.53562 -0.454347 0
M  V30 16998 H 1607.36 -2.28039 -2.16438 0
M  V30 16999 N 1611.13 -0.710588 -1.40671 0
M  V30 17000 C 1612.08 -0.031353 -2.27978 0
M  V30 17001 C 1613.06 0.737643 -1.42995 0
M  V30 17002 O 1614.26 0.610666 -1.66132 0
M  V30 17003 C 1611.38 0.893329 -3.31473 0
M  V30 17004 C 1610.47 0.119785 -4.23931 0
M  V30 17005 N 1610.86 -0.894341 -4.9783 0
M  V30 17006 C 1609.16 0.353077 -4.446 0
M  V30 17007 C 1609.86 -1.3587 -5.6561 0
M  V30 17008 N 1608.84 -0.681786 -5.39308 0
M  V30 17009 H 1612.64 -0.808683 -2.82555 0
M  V30 17010 H 1610.15 -0.542734 -1.53063 0
M  V30 17011 H 1612.15 1.39521 -3.92861 0
M  V30 17012 H 1610.81 1.67009 -2.78457 0
M  V30 17013 H 1611.82 -1.27504 -5.01959 0
M  V30 17014 H 1608.5 1.10655 -4.02569 0
M  V30 17015 H 1609.89 -2.20108 -6.34825 0
M  V30 17016 N 1612.61 1.50847 -0.456408 0
M  V30 17017 C 1613.55 2.28202 0.345341 0
M  V30 17018 C 1614.52 1.32611 1.00017 0
M  V30 17019 O 1615.71 1.61535 1.01543 0
M  V30 17020 C 1612.85 3.14087 1.42981 0
M  V30 17021 C 1611.96 4.24693 0.791217 0
M  V30 17022 C 1611.1 4.97857 1.85234 0
M  V30 17023 C 1610.14 6.00357 1.1932 0
M  V30 17024 N 1609.27 6.66856 2.19652 0
M  V30 17025 H 1614.11 2.9627 -0.320646 0
M  V30 17026 H 1611.65 1.46115 -0.169973 0
M  V30 17027 H 1613.61 3.62222 2.07006 0
M  V30 17028 H 1612.24 2.48095 2.06516 0
M  V30 17029 H 1611.29 3.8038 0.0387694 0
M  V30 17030 H 1612.6 4.98068 0.270177 0
M  V30 17031 H 1611.76 5.49636 2.56875 0
M  V30 17032 H 1610.5 4.24155 2.40715 0
M  V30 17033 H 1609.5 5.47853 0.462341 0
M  V30 17034 H 1610.73 6.76025 0.645473 0
M  V30 17035 H 1608.67 5.95955 2.74178 0
M  V30 17036 H 1608.59 7.36059 1.72492 0
M  V30 17037 H 1609.86 7.23259 2.90719 0
M  V30 17038 N 1614.09 0.188454 1.56469 0
M  V30 17039 C 1615.03 -0.751822 2.20115 0
M  V30 17040 C 1616.03 -1.22476 1.1703 0
M  V30 17041 O 1617.23 -1.18843 1.3519 0
M  V30 17042 H 1613.61 -0.260778 0.705336 0
M  V30 17043 H 1615.58 -0.191249 2.97786 0
M  V30 17044 C 1614.33 -1.96365 2.86943 0
M  V30 17045 H 1613.65 -1.60879 3.66003 0
M  V30 17046 H 1615.09 -2.60007 3.34921 0
M  V30 17047 C 1613.55 -2.7982 1.87623 0
M  V30 17048 O 1614.08 -3.7753 1.37237 0
M  V30 17049 N 1612.29 -2.45179 1.55999 0
M  V30 17050 H 1611.83 -1.6578 1.97167 0
M  V30 17051 H 1611.79 -3.01302 0.898012 0
M  V30 17052 N 1615.56 -1.5737 -0.0851874 0
M  V30 17053 C 1616.81 -1.86864 -0.78802 0
M  V30 17054 C 1617.14 -0.778936 -1.77894 0
M  V30 17055 O 1616.42 0.212132 -1.9334 0
M  V30 17056 C 1616.7 -3.27006 -1.50795 0
M  V30 17057 C 1616.55 -4.46615 -0.534354 0
M  V30 17058 C 1617.87 -3.65187 -2.45614 0
M  V30 17059 H 1614.99 -0.679657 -0.285017 0
M  V30 17060 H 1617.63 -1.8993 -0.0514443 0
M  V30 17061 H 1615.78 -3.24522 -2.13583 0
M  V30 17062 H 1617.46 -4.61217 0.0872761 0
M  V30 17063 H 1615.7 -4.33536 0.151455 0
M  V30 17064 H 1616.37 -5.41423 -1.07544 0
M  V30 17065 H 1618.85 -3.68678 -1.92913 0
M  V30 17066 H 1617.72 -4.64158 -2.92999 0
M  V30 17067 H 1617.98 -2.944 -3.2982 0
M  V30 17068 N 1617.04 0.356258 -1.53521 0
M  V30 17069 C 1617.97 1.44271 -1.83598 0
M  V30 17070 C 1618.95 1.5547 -0.690141 0
M  V30 17071 O 1620.14 1.69886 -0.940868 0
M  V30 17072 C 1617.27 2.8149 -2.03422 0
M  V30 17073 C 1616.22 2.85108 -3.19213 0
M  V30 17074 C 1615.55 4.25091 -3.24348 0
M  V30 17075 C 1616.85 2.51788 -4.57602 0
M  V30 17076 H 1618.54 1.1935 -2.74583 0
M  V30 17077 H 1616.09 0.572707 -1.32121 0
M  V30 17078 H 1618.04 3.57531 -2.23046 0
M  V30 17079 H 1616.76 3.07819 -1.09155 0
M  V30 17080 H 1615.42 2.1152 -2.99424 0
M  V30 17081 H 1615.07 4.4851 -2.277 0
M  V30 17082 H 1614.77 4.28426 -4.0215 0
M  V30 17083 H 1616.3 5.02992 -3.46167 0
M  V30 17084 H 1617.71 3.17542 -4.77326 0
M  V30 17085 H 1616.11 2.66426 -5.37715 0
M  V30 17086 H 1617.18 1.4701 -4.62078 0
M  V30 17087 N 1618.52 1.45038 0.616577 0
M  V30 17088 C 1619.75 1.52094 1.40267 0
M  V30 17089 C 1620.16 0.150558 1.88199 0
M  V30 17090 O 1619.52 -0.846258 1.61693 0
M  V30 17091 C 1619.57 2.49786 2.61322 0
M  V30 17092 O 1619.29 3.81498 2.15385 0
M  V30 17093 C 1620.79 2.66451 3.54286 0
M  V30 17094 H 1618.01 0.515378 0.429681 0
M  V30 17095 H 1620.56 1.90141 0.752768 0
M  V30 17096 H 1618.71 2.14835 3.22373 0
M  V30 17097 H 1619.13 4.34374 2.93972 0
M  V30 17098 H 1620.6 3.38802 4.35795 0
M  V30 17099 H 1621.08 1.72177 4.04044 0
M  V30 17100 H 1621.68 3.02362 2.99095 0
M  V30 17101 N 1620 -0.858287 1.32179 0
M  V30 17102 C 1621.24 -1.61221 1.22532 0
M  V30 17103 C 1621.57 -1.93322 -0.213739 0
M  V30 17104 O 1620.83 -1.5719 -1.16575 0
M  V30 17105 C 1621.13 -2.94391 2.02654 0
M  V30 17106 C 1620.79 -2.81735 3.52046 0
M  V30 17107 C 1619.45 -2.7799 3.92778 0
M  V30 17108 C 1621.81 -2.67928 4.47062 0
M  V30 17109 C 1619.13 -2.58312 5.26775 0
M  V30 17110 C 1621.49 -2.49785 5.81197 0
M  V30 17111 C 1620.15 -2.44431 6.21136 0
M  V30 17112 H 1619.42 -0.589949 0.448376 0
M  V30 17113 H 1622.07 -0.995897 1.63567 0
M  V30 17114 H 1620.37 -3.60122 1.54336 0
M  V30 17115 H 1622.07 -3.5174 1.92561 0
M  V30 17116 H 1618.66 -2.85472 3.19693 0
M  V30 17117 H 1622.84 -2.69868 4.16515 0
M  V30 17118 H 1618.1 -2.526 5.56779 0
M  V30 17119 H 1622.27 -2.38081 6.54439 0
M  V30 17120 H 1619.9 -2.28943 7.24906 0
M  V30 17121 N 1621.48 -1.1533 -1.07409 0
M  V30 17122 C 1622.71 -0.950263 -1.83449 0
M  V30 17123 C 1623.11 0.504761 -1.82343 0
M  V30 17124 O 1622.46 1.36183 -1.23287 0
M  V30 17125 C 1622.52 -1.38651 -3.31687 0
M  V30 17126 C 1622.18 -2.85914 -3.56514 0
M  V30 17127 C 1623.18 -3.83981 -3.50506 0
M  V30 17128 C 1620.86 -3.23568 -3.84199 0
M  V30 17129 C 1622.86 -5.17707 -3.71831 0
M  V30 17130 C 1620.55 -4.57467 -4.05175 0
M  V30 17131 C 1621.54 -5.54345 -3.98986 0
M  V30 17132 O 1621.23 -6.85826 -4.19403 0
M  V30 17133 H 1620.96 -0.337616 -0.585655 0
M  V30 17134 H 1623.52 -1.53489 -1.36493 0
M  V30 17135 H 1621.75 -0.745282 -3.7945 0
M  V30 17136 H 1623.44 -1.15267 -3.89189 0
M  V30 17137 H 1624.2 -3.56237 -3.29121 0
M  V30 17138 H 1620.08 -2.48748 -3.88131 0
M  V30 17139 H 1623.63 -5.93311 -3.66916 0
M  V30 17140 H 1619.52 -4.84927 -4.26047 0
M  V30 17141 H 1620.29 -6.92235 -4.36753 0
M  V30 17142 N 1622.95 1.25748 -0.950004 0
M  V30 17143 C 1624.18 1.97952 -0.618848 0
M  V30 17144 C 1624.6 1.70184 0.801194 0
M  V30 17145 O 1623.96 0.955032 1.54107 0
M  V30 17146 C 1624.01 3.49744 -0.878151 0
M  V30 17147 O 1623.11 4.12375 0.0453685 0
M  V30 17148 H 1622.45 0.620731 -0.235773 0
M  V30 17149 H 1624.98 1.59988 -1.27534 0
M  V30 17150 H 1624.99 4.00029 -0.802567 0
M  V30 17151 H 1623.67 3.69285 -1.91315 0
M  V30 17152 H 1622.25 3.7281 -0.0820265 0
M  V30 17153 O 1624.47 0.856216 1.36935 0
M  V30 17154 H 1625.16 0.450631 1.88385 0
M  V30 END ATOM
M  V30 BEGIN BOND
M  V30 END BOND
M  V30 END CTAB
M  END
$$$$
