drugbank_target|P30556 Type-1 angiotensin II receptor (DB00177; DB00275; DB00678; DB00796; DB00876; DB00966; DB01029; DB01342; DB01347; DB01349; DB05739; DB08822; DB09279; DB11842; DB13919)
 OpenBabel12092119233D

  0  0  0     0  0            999 V3000
M  V30 BEGIN CTAB
M  V30 COUNTS 5922 5999 0 0 0
M  V30 BEGIN ATOM
M  V30 1 H -0.908 1.98254 -0.117106 0
M  V30 2 N 0 1.576 0 0
M  V30 3 C 0.933 2.03868 1.02534 0
M  V30 4 C 1.911 0.928543 1.3348 0
M  V30 5 O 3.095 1.19667 1.45644 0
M  V30 6 C 0.222 2.43627 2.35294 0
M  V30 7 C -0.732 3.65373 2.2001 0
M  V30 8 S 0.101 5.13292 1.52614 0
M  V30 9 C 1.257 5.56322 2.86805 0
M  V30 10 H 1.49 2.90518 0.631377 0
M  V30 11 H -0.977 1.52953 0.210867 0
M  V30 12 H 0.981 2.67203 3.11629 0
M  V30 13 H -0.358 1.57376 2.7183 0
M  V30 14 H -1.165 3.90944 3.18086 0
M  V30 15 H -1.563 3.418 1.51819 0
M  V30 16 H 0.729 5.58782 3.83104 0
M  V30 17 H 1.672 6.56266 2.65933 0
M  V30 18 H 2.08 4.83886 2.90714 0
M  V30 19 N 1.4781 -0.272755 1.55222 0
M  V30 20 C 2.7271 -1.00211 1.75045 0
M  V30 21 C 3.0401 -1.87441 0.559046 0
M  V30 22 O 4.2461 -2.63856 0.639698 0
M  V30 23 C 2.7021 -1.83165 3.09804 0
M  V30 24 C 2.3101 -1.008 4.36513 0
M  V30 25 C 4.0541 -2.55529 3.38977 0
M  V30 26 C 1.9611 -1.83194 5.62311 0
M  V30 27 H 0.8911 -0.377878 0.652476 0
M  V30 28 H 3.5421 -0.257776 1.8168 0
M  V30 29 H 1.9241 -2.61694 2.97207 0
M  V30 30 H 3.0981 -0.266855 4.60027 0
M  V30 31 H 1.4131 -0.398897 4.14485 0
M  V30 32 H 4.0101 -3.17578 4.30172 0
M  V30 33 H 4.3531 -3.25825 2.59121 0
M  V30 34 H 4.8861 -1.84029 3.52673 0
M  V30 35 H 1.6251 -1.17318 6.44916 0
M  V30 36 H 1.1451 -2.54905 5.4294 0
M  V30 37 H 2.8241 -2.40552 6.00619 0
M  V30 38 N 2.9562 -1.48159 -0.537278 0
M  V30 39 C 3.8862 -1.65029 -1.6519 0
M  V30 40 C 4.8672 -0.499281 -1.62607 0
M  V30 41 O 6.0522 -0.730972 -1.79918 0
M  V30 42 C 3.1822 -1.68303 -3.03795 0
M  V30 43 C 2.1362 -2.8283 -3.21234 0
M  V30 44 C 1.4622 -2.71189 -4.60826 0
M  V30 45 C 2.7622 -4.24211 -3.04701 0
M  V30 46 H 4.4562 -2.58341 -1.51328 0
M  V30 47 H 2.0022 -1.24325 -0.726585 0
M  V30 48 H 3.9552 -1.78693 -3.81637 0
M  V30 49 H 2.6792 -0.715635 -3.18663 0
M  V30 50 H 1.3382 -2.71983 -2.45807 0
M  V30 51 H 0.9862 -1.72435 -4.7252 0
M  V30 52 H 0.6862 -3.48035 -4.7344 0
M  V30 53 H 2.2102 -2.83537 -5.40777 0
M  V30 54 H 3.6242 -4.3593 -3.72341 0
M  V30 55 H 2.0212 -5.01998 -3.28813 0
M  V30 56 H 3.0912 -4.41184 -2.01209 0
M  V30 57 N 4.4343 0.785586 -1.36625 0
M  V30 58 C 5.3823 1.91978 -1.31329 0
M  V30 59 C 6.3763 1.68162 -0.204416 0
M  V30 60 O 7.5823 1.76122 -0.371645 0
M  V30 61 H 3.9573 0.631087 -0.408942 0
M  V30 62 H 5.9283 1.93562 -2.27104 0
M  V30 63 C 4.6773 3.29055 -1.12329 0
M  V30 64 H 4.0003 3.4795 -1.96903 0
M  V30 65 H 5.4403 4.08756 -1.12671 0
M  V30 66 C 3.8993 3.36461 0.171861 0
M  V30 67 O 4.4293 3.84576 1.16035 0
M  V30 68 N 2.6353 2.89782 0.217846 0
M  V30 69 H 2.1823 2.50819 -0.587183 0
M  V30 70 H 2.1403 2.95119 1.08408 0
M  V30 71 N 5.9124 1.20967 1.01018 0
M  V30 72 C 7.1374 1.0503 1.78839 0
M  V30 73 C 7.5624 -0.395752 1.8389 0
M  V30 74 O 6.9204 -1.28529 1.27867 0
M  V30 75 C 6.9684 1.64602 3.2084 0
M  V30 76 O 6.0724 0.887988 4.02726 0
M  V30 77 H 5.4134 0.369987 0.551367 0
M  V30 78 H 7.9434 1.60399 1.27018 0
M  V30 79 H 7.9534 1.68607 3.71532 0
M  V30 80 H 6.6284 2.69841 3.16479 0
M  V30 81 H 5.2054 0.922648 3.61305 0
M  V30 82 N 7.3905 -1.2043 1.01659 0
M  V30 83 C 8.6155 -1.94318 0.724942 0
M  V30 84 C 9.0405 -1.74266 -0.708034 0
M  V30 85 O 8.3985 -1.03694 -1.48719 0
M  V30 86 C 8.4465 -3.44486 1.06591 0
M  V30 87 O 7.5505 -4.12017 0.177599 0
M  V30 88 H 6.8915 -0.60708 0.26898 0
M  V30 89 H 9.4215 -1.52861 1.35995 0
M  V30 90 H 9.4315 -3.95106 1.01762 0
M  V30 91 H 8.1065 -3.58404 2.10997 0
M  V30 92 H 6.6835 -3.71821 0.283421 0
M  V30 93 N 8.8686 -0.792821 -1.36206 0
M  V30 94 C 10.0966 -0.378825 -2.03402 0
M  V30 95 C 10.5116 1.00586 -1.59774 0
M  V30 96 O 9.8686 1.64574 -0.788764 0
M  V30 97 C 9.9196 -0.43683 -3.58851 0
M  V30 98 O 9.6406 -1.76691 -4.00889 0
M  V30 99 C 11.1416 -0.0138943 -4.43298 0
M  V30 100 H 8.3616 -0.155673 -0.652692 0
M  V30 101 H 10.9056 -1.07261 -1.74113 0
M  V30 102 H 9.0606 0.208575 -3.86838 0
M  V30 103 H 9.4746 -1.72011 -4.95492 0
M  V30 104 H 10.9486 -0.105615 -5.51899 0
M  V30 105 H 11.4256 1.03915 -4.2673 0
M  V30 106 H 12.0316 -0.63192 -4.20579 0
M  V30 107 N 10.3467 1.47872 -0.545128 0
M  V30 108 C 11.2567 2.33633 0.212746 0
M  V30 109 C 12.2727 1.4744 0.923983 0
M  V30 110 O 13.4487 1.80393 0.895572 0
M  V30 111 C 10.5137 3.23884 1.23693 0
M  V30 112 C 9.5747 4.25961 0.534417 0
M  V30 113 C 8.8077 5.11899 1.5098 0
M  V30 114 O 9.0307 5.00077 2.7437 0
M  V30 115 O 7.9647 5.92831 1.0409 0
M  V30 116 H 11.7907 2.99714 -0.490416 0
M  V30 117 H 9.3757 1.46235 -0.305871 0
M  V30 118 H 11.2577 3.79666 1.82843 0
M  V30 119 H 9.9327 2.60446 1.92222 0
M  V30 120 H 8.8397 3.73972 -0.0979679 0
M  V30 121 H 10.1727 4.92079 -0.109213 0
M  V30 122 N 11.8248 0.280983 1.55075 0
M  V30 123 C 13.1018 -0.386207 1.91749 0
M  V30 124 C 13.4818 -1.73264 1.20594 0
M  V30 125 O 12.8298 -2.26034 0.334784 0
M  V30 126 C 13.0398 -0.520687 3.45094 0
M  V30 127 C 14.3878 -0.800865 4.16979 0
M  V30 128 O 15.4118 -0.605271 3.5102 0
M  V30 129 O 14.2708 -1.1753 5.33712 0
M  V30 130 H 11.3648 -0.212408 0.799257 0
M  V30 131 H 13.9108 0.327568 1.66509 0
M  V30 132 H 12.6828 0.426633 3.88967 0
M  V30 133 H 12.3058 -1.2837 3.76307 0
M  V30 134 N 13.3029 -1.57598 0.00835791 0
M  V30 135 C 14.5509 -1.90551 -0.6734 0
M  V30 136 C 14.8719 -0.883301 -1.73847 0
M  V30 137 O 14.1419 0.0781442 -1.95744 0
M  V30 138 H 12.7219 -0.703312 -0.251717 0
M  V30 139 H 15.3839 -1.94833 0.0512592 0
M  V30 140 H 14.4799 -2.9056 -1.13935 0
M  V30 141 N 14.781 0.264519 -1.55364 0
M  V30 142 C 16.03 0.992812 -1.75574 0
M  V30 143 C 16.343 1.87142 -0.568979 0
M  V30 144 O 17.549 2.63513 -0.653682 0
M  V30 145 C 16.005 1.81519 -3.10771 0
M  V30 146 C 15.613 0.984839 -4.37041 0
M  V30 147 C 17.357 2.53727 -3.40327 0
M  V30 148 C 15.264 1.80209 -5.63275 0
M  V30 149 H 14.194 0.374412 -0.65447 0
M  V30 150 H 16.845 0.248138 -1.81815 0
M  V30 151 H 15.227 2.60115 -2.98591 0
M  V30 152 H 16.401 0.242455 -4.60162 0
M  V30 153 H 14.716 0.37691 -4.14691 0
M  V30 154 H 17.313 3.15292 -4.3185 0
M  V30 155 H 17.656 3.24447 -2.60845 0
M  V30 156 H 18.189 1.82156 -3.53644 0
M  V30 157 H 14.928 1.13896 -6.45529 0
M  V30 158 H 14.448 2.52022 -5.44284 0
M  V30 159 H 16.127 2.37364 -6.01887 0
M  V30 160 N 16.2591 1.48442 0.529413 0
M  V30 161 C 17.2061 1.63007 1.63394 0
M  V30 162 C 18.1761 0.47212 1.59249 0
M  V30 163 O 19.3611 0.695673 1.77666 0
M  V30 164 C 16.5011 1.6763 3.01653 0
M  V30 165 C 15.6141 2.94535 3.16027 0
M  V30 166 C 14.7491 2.90316 4.44849 0
M  V30 167 C 13.7881 4.11923 4.52754 0
M  V30 168 N 12.9251 4.05777 5.72965 0
M  V30 169 H 17.7651 2.5733 1.50285 0
M  V30 170 H 15.3021 1.27613 0.731656 0
M  V30 171 H 17.2601 1.68292 3.81751 0
M  V30 172 H 15.8901 0.76797 3.13532 0
M  V30 173 H 14.9421 3.03615 2.29177 0
M  V30 174 H 16.2541 3.84512 3.17729 0
M  V30 175 H 15.4081 2.89382 5.33238 0
M  V30 176 H 14.1471 1.98068 4.45668 0
M  V30 177 H 13.1521 4.13131 3.62771 0
M  V30 178 H 14.3771 5.0533 4.53672 0
M  V30 179 H 12.3231 3.16351 5.74681 0
M  V30 180 H 12.2401 4.8946 5.76164 0
M  V30 181 H 13.5081 4.08904 6.6364 0
M  V30 182 N 17.7372 -0.778329 1.37039 0
M  V30 183 C 19.1532 -1.07796 1.17695 0
M  V30 184 C 19.3532 -2.01498 0.00860115 0
M  V30 185 O 18.4092 -2.43901 -0.653352 0
M  V30 186 C 19.7222 -1.68178 2.49272 0
M  V30 187 C 21.2702 -1.80467 2.55735 0
M  V30 188 C 21.7452 -2.44263 3.87427 0
M  V30 189 N 23.2362 -2.51721 3.88833 0
M  V30 190 C 23.9712 -3.01919 4.87476 0
M  V30 191 N 23.4672 -3.5234 5.96513 0
M  V30 192 N 25.2602 -3.00733 4.74885 0
M  V30 193 H 17.4112 -0.156032 2.11826 0
M  V30 194 H 19.6742 -0.131844 0.938787 0
M  V30 195 H 19.3802 -1.06796 3.35093 0
M  V30 196 H 19.2542 -2.67554 2.65885 0
M  V30 197 H 21.6412 -2.40984 1.70325 0
M  V30 198 H 21.7222 -0.798656 2.43013 0
M  V30 199 H 21.3662 -1.84388 4.73248 0
M  V30 200 H 21.2962 -3.45458 3.9745 0
M  V30 201 H 23.7872 -2.1603 3.10063 0
M  V30 202 H 24.1002 -3.89027 6.67741 0
M  V30 203 H 22.4452 -3.50462 6.00168 0
M  V30 204 H 25.6362 -2.60638 3.88826 0
M  V30 205 H 25.8092 -3.39545 5.51918 0
M  V30 206 N 19.2153 -1.21501 -1.00376 0
M  V30 207 C 20.4643 -1.02718 -1.73586 0
M  V30 208 C 20.7773 0.439589 -1.90596 0
M  V30 209 O 21.9833 0.746848 -2.61026 0
M  V30 210 C 20.4393 -1.78929 -3.1227 0
M  V30 211 C 20.0473 -3.29783 -3.03228 0
M  V30 212 C 21.7913 -1.68557 -3.89601 0
M  V30 213 C 19.6983 -3.98479 -4.36999 0
M  V30 214 H 18.6283 -0.380733 -0.650814 0
M  V30 215 H 21.2793 -1.45248 -1.1214 0
M  V30 216 H 19.6613 -1.29192 -3.74333 0
M  V30 217 H 20.8353 -3.86832 -2.50395 0
M  V30 218 H 19.1503 -3.40711 -2.39385 0
M  V30 219 H 21.7473 -2.17211 -4.88593 0
M  V30 220 H 22.0903 -0.644021 -4.11288 0
M  V30 221 H 22.6233 -2.15778 -3.34193 0
M  V30 222 H 19.3623 -5.02841 -4.20513 0
M  V30 223 H 18.8823 -3.46219 -4.89788 0
M  V30 224 H 20.5613 -4.03462 -5.05794 0
M  V30 225 N 20.6934 1.19889 -1.02296 0
M  V30 226 C 21.6254 2.22334 -0.556787 0
M  V30 227 C 22.6384 1.58674 0.364199 0
M  V30 228 O 23.8274 1.77768 0.161533 0
M  V30 229 C 20.9274 3.38257 0.208694 0
M  V30 230 C 20.1004 4.31504 -0.71577 0
M  V30 231 C 19.1594 5.262 0.00325597 0
M  V30 232 O 18.1854 5.65798 -0.621357 0
M  V30 233 N 19.3874 5.66303 1.27599 0
M  V30 234 H 22.1524 2.62957 -1.43784 0
M  V30 235 H 19.7134 1.34495 -0.901261 0
M  V30 236 H 21.7054 3.98616 0.699111 0
M  V30 237 H 20.2754 2.96472 0.991102 0
M  V30 238 H 19.4954 3.69016 -1.38638 0
M  V30 239 H 20.7834 4.9072 -1.34428 0
M  V30 240 H 20.1814 5.36155 1.80429 0
M  V30 241 H 18.7384 6.28942 1.71102 0
M  V30 242 N 22.1715 0.800033 1.35784 0
M  V30 243 C 23.4485 0.30088 1.93272 0
M  V30 244 C 23.8285 -1.20857 1.73081 0
M  V30 245 O 23.1765 -2.00502 1.09596 0
M  V30 246 C 23.3865 0.70511 3.41803 0
M  V30 247 C 24.7345 0.690871 4.18942 0
M  V30 248 O 25.7585 0.646244 3.50289 0
M  V30 249 O 24.6175 0.74332 5.41421 0
M  V30 250 H 21.7115 0.0771605 0.823393 0
M  V30 251 H 24.2575 0.88329 1.449 0
M  V30 252 H 23.0295 1.74571 3.50201 0
M  V30 253 H 22.6525 0.0971541 3.97481 0
M  V30 254 N 23.6496 -1.47581 0.552962 0
M  V30 255 C 24.9266 -1.95563 -0.0381515 0
M  V30 256 C 25.3066 -1.49552 -1.48988 0
M  V30 257 O 24.6546 -0.732414 -2.16444 0
M  V30 258 C 24.8646 -3.48848 0.102919 0
M  V30 259 C 26.2126 -4.24577 -0.0446082 0
M  V30 260 O 27.2366 -3.56187 0.0302548 0
M  V30 261 O 26.0956 -5.46116 -0.204923 0
M  V30 262 H 23.1896 -0.824321 -0.0665067 0
M  V30 263 H 25.7356 -1.58001 0.619186 0
M  V30 264 H 24.5076 -3.75129 1.11328 0
M  V30 265 H 24.1306 -3.93165 -0.592224 0
M  V30 266 N 25.1277 -0.289203 -1.54924 0
M  V30 267 C 26.3677 0.324536 -2.01807 0
M  V30 268 C 26.7317 1.5199 -1.17316 0
M  V30 269 O 27.9327 2.20422 -1.53843 0
M  V30 270 C 26.2037 0.683578 -3.50802 0
M  V30 271 S 27.7627 1.28185 -4.19659 0
M  V30 272 H 24.5807 0.100236 -0.703899 0
M  V30 273 H 27.1827 -0.414325 -1.91059 0
M  V30 274 H 25.8867 -0.195073 -4.09936 0
M  V30 275 H 25.4177 1.45354 -3.65562 0
M  V30 276 H 27.4327 2.57006 -4.24456 0
M  V30 277 N 26.6058 1.57591 -0.0167156 0
M  V30 278 C 28.0168 1.79201 0.523834 0
M  V30 279 C 28.3678 0.925796 1.72984 0
M  V30 280 O 27.4928 0.132792 2.15992 0
M  V30 281 C 28.0878 3.25 0.957091 0
M  V30 282 C 26.6468 3.47648 1.44283 0
M  V30 283 C 25.7938 2.74374 0.401757 0
M  V30 284 H 28.7448 1.56831 -0.242816 0
M  V30 285 H 28.7658 3.34031 1.82219 0
M  V30 286 H 28.2778 3.88019 0.0791415 0
M  V30 287 H 26.3788 2.89866 2.34113 0
M  V30 288 H 26.4918 4.56352 1.45877 0
M  V30 289 H 24.8558 2.39485 0.867121 0
M  V30 290 H 25.6388 3.40102 -0.467513 0
M  V30 291 N 28.0839 -0.256276 1.55502 0
M  V30 292 C 29.0309 -1.31714 1.89526 0
M  V30 293 C 30.0009 -1.4828 0.748479 0
M  V30 294 O 31.1859 -1.62416 1.00128 0
M  V30 295 C 28.3259 -2.66933 2.18725 0
M  V30 296 C 27.4389 -2.58452 3.4616 0
M  V30 297 C 26.5739 -3.85961 3.64976 0
M  V30 298 C 25.6129 -3.72059 4.86044 0
M  V30 299 N 24.7499 -4.9144 5.01429 0
M  V30 300 H 29.5899 -1.01998 2.80001 0
M  V30 301 H 27.1269 -0.492413 1.38613 0
M  V30 302 H 29.0849 -3.4563 2.33657 0
M  V30 303 H 27.7149 -2.94816 1.31466 0
M  V30 304 H 26.7669 -1.71374 3.3961 0
M  V30 305 H 28.0789 -2.44085 4.34999 0
M  V30 306 H 27.2329 -4.73101 3.79816 0
M  V30 307 H 25.9719 -4.03215 2.74353 0
M  V30 308 H 24.9769 -2.83302 4.7119 0
M  V30 309 H 26.2019 -3.56309 5.78118 0
M  V30 310 H 24.1479 -5.09072 4.13741 0
M  V30 311 H 24.0649 -4.79668 5.84341 0
M  V30 312 H 25.3329 -5.80104 5.20672 0
M  V30 313 N 29.562 -1.4872 -0.521534 0
M  V30 314 C 30.525 -1.63379 -1.60748 0
M  V30 315 C 31.525 -0.50661 -1.52611 0
M  V30 316 O 32.715 -0.772601 -1.5613 0
M  V30 317 C 29.847 -1.61192 -3.00383 0
M  V30 318 H 31.04 -2.60217 -1.49087 0
M  V30 319 H 28.593 -1.37444 -0.744235 0
M  V30 320 H 29.328 -0.65863 -3.17541 0
M  V30 321 H 29.113 -2.43032 -3.07698 0
M  V30 322 H 30.603 -1.7466 -3.7932 0
M  V30 323 N 31.0401 0.771051 -1.3745 0
M  V30 324 C 32.2881 1.52661 -1.32435 0
M  V30 325 C 32.6091 1.9479 0.0905024 0
M  V30 326 O 31.8791 1.66348 1.03466 0
M  V30 327 H 30.4591 0.566218 -0.487244 0
M  V30 328 H 33.1211 0.917636 -1.71946 0
M  V30 329 H 32.2171 2.42568 -1.96385 0
M  V30 330 N 32.5182 1.22032 0.997298 0
M  V30 331 C 33.9342 0.979326 1.26021 0
M  V30 332 C 34.1342 -0.32972 1.98784 0
M  V30 333 O 33.1902 -1.05345 2.29475 0
M  V30 334 C 34.5032 2.17509 2.07631 0
M  V30 335 C 36.0512 2.21817 2.2083 0
M  V30 336 C 36.5262 3.40933 3.05825 0
M  V30 337 N 38.0172 3.41067 3.13412 0
M  V30 338 C 38.7522 4.29885 3.79455 0
M  V30 339 N 38.2482 5.28914 4.47462 0
M  V30 340 N 40.0412 4.17673 3.76173 0
M  V30 341 H 32.1922 2.06202 0.509352 0
M  V30 342 H 34.4552 0.90334 0.287541 0
M  V30 343 H 34.1612 3.12415 1.61524 0
M  V30 344 H 34.0352 2.17206 3.08385 0
M  V30 345 H 36.4222 1.27462 2.66153 0
M  V30 346 H 36.5032 2.2616 1.1952 0
M  V30 347 H 36.1472 4.35586 2.61203 0
M  V30 348 H 36.0772 3.33829 4.07266 0
M  V30 349 H 38.5682 2.69406 2.65007 0
M  V30 350 H 38.8812 5.92973 4.95583 0
M  V30 351 H 37.2262 5.32831 4.46224 0
M  V30 352 H 40.4172 3.39564 3.22202 0
M  V30 353 H 40.5902 4.87098 4.27363 0
M  V30 354 N 33.9963 -1.19345 1.0293 0
M  V30 355 C 34.9463 -2.20472 0.58104 0
M  V30 356 C 35.9303 -1.56578 -0.370442 0
M  V30 357 O 37.1223 -1.75963 -0.191344 0
M  V30 358 C 34.2513 -3.43236 -0.066306 0
M  V30 359 C 33.3373 -4.14274 0.907642 0
M  V30 360 N 33.7283 -4.61492 2.07023 0
M  V30 361 C 32.0263 -4.39966 0.731177 0
M  V30 362 C 32.7273 -5.1605 2.68454 0
M  V30 363 N 31.7033 -5.06875 1.96414 0
M  V30 364 H 35.5053 -2.54659 1.46717 0
M  V30 365 H 33.0193 -1.35423 0.896345 0
M  V30 366 H 35.0163 -4.14927 -0.405068 0
M  V30 367 H 33.6763 -3.10549 -0.948118 0
M  V30 368 H 34.6873 -4.56304 2.44963 0
M  V30 369 H 31.3643 -4.17377 -0.101507 0
M  V30 370 H 32.7543 -5.6287 3.66915 0
M  V30 371 N 35.4744 -0.807222 -1.35358 0
M  V30 372 C 36.4224 -0.20614 -2.31685 0
M  V30 373 C 37.4164 0.644445 -1.56663 0
M  V30 374 O 38.6224 0.537538 -1.71786 0
M  V30 375 H 34.9974 -0.0479006 -0.750473 0
M  V30 376 H 36.9684 -1.03369 -2.79924 0
M  V30 377 C 35.7174 0.630212 -3.41941 0
M  V30 378 H 35.0404 -0.0149558 -3.99797 0
M  V30 379 H 36.4804 1.01716 -4.11619 0
M  V30 380 C 34.9394 1.79601 -2.85035 0
M  V30 381 O 35.4694 2.89351 -2.78637 0
M  V30 382 N 33.6754 1.60774 -2.42074 0
M  V30 383 H 33.2224 0.715009 -2.47478 0
M  V30 384 H 33.1804 2.38933 -2.04349 0
M  V30 385 N 36.9525 1.47285 -0.560781 0
M  V30 386 C 38.1825 2.06555 -0.0429638 0
M  V30 387 C 38.5905 1.41339 1.25777 0
M  V30 388 O 37.9335 0.505182 1.76617 0
M  V30 389 C 37.9955 3.58827 0.219887 0
M  V30 390 C 37.6595 4.46105 -0.991944 0
M  V30 391 C 38.6565 4.84 -1.89843 0
M  V30 392 C 36.3415 4.87567 -1.20762 0
M  V30 393 C 38.3355 5.6216 -3.00425 0
M  V30 394 C 36.0225 5.65491 -2.31653 0
M  V30 395 C 37.0205 6.02699 -3.21315 0
M  V30 396 O 36.7085 6.79052 -4.30283 0
M  V30 397 H 36.4405 0.674537 -0.0444468 0
M  V30 398 H 38.9945 1.90225 -0.774818 0
M  V30 399 H 37.2245 3.73383 1.00609 0
M  V30 400 H 38.9135 4.00103 0.683522 0
M  V30 401 H 39.6795 4.52564 -1.74387 0
M  V30 402 H 35.5585 4.5807 -0.518893 0
M  V30 403 H 39.1025 5.9112 -3.70436 0
M  V30 404 H 34.9995 5.9634 -2.47081 0
M  V30 405 H 35.7675 6.9745 -4.28376 0
M  V30 406 N 38.4306 0.297415 1.54768 0
M  V30 407 C 39.6796 -0.313669 1.99246 0
M  V30 408 C 39.9926 -1.55281 1.18942 0
M  V30 409 O 41.1986 -2.23825 1.5367 0
M  V30 410 C 39.6546 -0.609407 3.54703 0
M  V30 411 C 39.2626 0.611192 4.43811 0
M  V30 412 C 41.0066 -1.18188 4.07715 0
M  V30 413 C 38.9136 0.288805 5.90694 0
M  V30 414 H 37.8436 -0.120979 0.744231 0
M  V30 415 H 40.4946 0.40556 1.78962 0
M  V30 416 H 38.8766 -1.38813 3.70873 0
M  V30 417 H 40.0506 1.3875 4.39414 0
M  V30 418 H 38.3656 1.10205 4.01552 0
M  V30 419 H 40.9626 -1.43727 5.15021 0
M  V30 420 H 41.3056 -2.12299 3.58099 0
M  V30 421 H 41.8386 -0.464944 3.95074 0
M  V30 422 H 38.5776 1.19838 6.44453 0
M  V30 423 H 38.0976 -0.450305 5.98107 0
M  V30 424 H 39.7766 -0.110933 6.46905 0
M  V30 425 N 39.9087 -1.5758 0.0250728 0
M  V30 426 C 41.1557 -1.91633 -0.654444 0
M  V30 427 C 41.4837 -0.901103 -1.72367 0
M  V30 428 O 40.7387 0.0905647 -1.9549 0
M  V30 429 C 41.0377 -3.32421 -1.31268 0
M  V30 430 C 40.7037 -4.49344 -0.374223 0
M  V30 431 C 39.3657 -4.8106 -0.115911 0
M  V30 432 C 41.7177 -5.20498 0.270432 0
M  V30 433 C 39.0457 -5.8129 0.79493 0
M  V30 434 C 41.3977 -6.21699 1.1693 0
M  V30 435 C 40.0617 -6.51859 1.43655 0
M  V30 436 H 39.3317 -0.701236 -0.239478 0
M  V30 437 H 41.9787 -1.91307 0.0859734 0
M  V30 438 H 40.2837 -3.28989 -2.12775 0
M  V30 439 H 41.9807 -3.56038 -1.84494 0
M  V30 440 H 38.5707 -4.24579 -0.58573 0
M  V30 441 H 42.7547 -4.96229 0.0839194 0
M  V30 442 H 38.0107 -6.03005 1.00973 0
M  V30 443 H 42.1847 -6.75955 1.67504 0
M  V30 444 H 39.8117 -7.2934 2.144 0
M  V30 445 N 41.3868 0.248026 -1.55636 0
M  V30 446 C 42.6328 0.97767 -1.77678 0
M  V30 447 C 42.9658 1.85016 -0.590135 0
M  V30 448 O 42.2408 1.90095 0.411611 0
M  V30 449 C 42.5238 1.83914 -3.09593 0
M  V30 450 C 42.3768 0.99491 -4.38659 0
M  V30 451 C 43.6958 2.82183 -3.37729 0
M  V30 452 H 40.8148 0.354005 -0.646413 0
M  V30 453 H 43.4568 0.248253 -1.88371 0
M  V30 454 H 41.6068 2.46104 -3.00608 0
M  V30 455 H 43.2788 0.391789 -4.59633 0
M  V30 456 H 41.5218 0.299231 -4.32767 0
M  V30 457 H 42.1928 1.63145 -5.2734 0
M  V30 458 H 44.6688 2.30129 -3.4667 0
M  V30 459 H 43.5448 3.39582 -4.31249 0
M  V30 460 H 43.8058 3.58588 -2.58586 0
M  V30 461 N 42.8649 1.48995 0.513639 0
M  V30 462 C 43.7979 1.59319 1.63379 0
M  V30 463 C 44.7759 0.442816 1.56454 0
M  V30 464 O 45.9599 0.656655 1.76693 0
M  V30 465 C 43.0869 1.5364 3.01848 0
M  V30 466 C 42.1329 2.7372 3.27078 0
M  V30 467 S 42.9659 4.35528 3.1157 0
M  V30 468 C 44.1219 4.32473 4.52458 0
M  V30 469 H 44.3549 2.54079 1.54374 0
M  V30 470 H 41.8879 1.3773 0.697849 0
M  V30 471 H 43.8459 1.51049 3.81699 0
M  V30 472 H 42.5069 0.601898 3.08279 0
M  V30 473 H 41.6999 2.6593 4.28132 0
M  V30 474 H 41.3019 2.73657 2.54927 0
M  V30 475 H 43.5939 4.03414 5.44301 0
M  V30 476 H 44.5369 5.33762 4.65299 0
M  V30 477 H 44.9449 3.62718 4.32546 0
M  V30 478 N 44.343 -0.763751 1.37857 0
M  V30 479 C 45.592 -1.51789 1.32827 0
M  V30 480 C 45.905 -1.95426 -0.0823719 0
M  V30 481 O 47.111 -2.70298 -0.255172 0
M  V30 482 C 45.567 -2.74133 2.33193 0
M  V30 483 C 45.175 -2.37562 3.79827 0
M  V30 484 C 46.919 -3.52054 2.37188 0
M  V30 485 C 44.826 -3.56456 4.71904 0
M  V30 486 H 43.756 -0.569896 0.493695 0
M  V30 487 H 46.407 -0.835822 1.63359 0
M  V30 488 H 44.789 -3.4427 1.9569 0
M  V30 489 H 45.963 -1.75157 4.26212 0
M  V30 490 H 44.278 -1.72798 3.78853 0
M  V30 491 H 46.875 -4.40437 3.03182 0
M  V30 492 H 47.218 -3.92486 1.38782 0
M  V30 493 H 47.751 -2.88921 2.7344 0
M  V30 494 H 44.49 -3.21099 5.71468 0
M  V30 495 H 44.01 -4.17938 4.30218 0
M  V30 496 H 45.689 -4.23168 4.89426 0
M  V30 497 N 45.8211 -1.22559 -0.990812 0
M  V30 498 C 47.2321 -1.04791 -1.54518 0
M  V30 499 C 47.5831 0.387998 -1.92325 0
M  V30 500 O 46.7081 1.27328 -1.74976 0
M  V30 501 C 47.3031 -1.896 -2.80779 0
M  V30 502 C 45.8621 -1.76124 -3.32652 0
M  V30 503 C 45.0091 -1.8594 -2.05722 0
M  V30 504 H 47.9601 -1.36374 -0.811662 0
M  V30 505 H 47.9811 -1.41464 -3.53225 0
M  V30 506 H 47.4931 -2.94101 -2.53231 0
M  V30 507 H 45.5941 -0.743643 -3.65104 0
M  V30 508 H 45.7071 -2.58913 -4.03114 0
M  V30 509 H 44.0711 -1.29403 -2.19379 0
M  V30 510 H 44.8541 -2.91976 -1.80568 0
M  V30 511 N 47.2992 1.18797 -1.03562 0
M  V30 512 C 48.5272 1.92599 -0.755869 0
M  V30 513 C 48.9422 1.75886 0.686271 0
M  V30 514 O 48.2992 1.08517 1.46732 0
M  V30 515 C 48.3502 3.44159 -1.10619 0
M  V30 516 O 48.0712 3.60341 -2.4917 0
M  V30 517 C 49.5722 4.3507 -0.850214 0
M  V30 518 H 46.7922 0.611587 -0.276048 0
M  V30 519 H 49.3362 1.50742 -1.38192 0
M  V30 520 H 47.4912 3.83823 -0.525194 0
M  V30 521 H 47.9052 4.54128 -2.62427 0
M  V30 522 H 49.3792 5.39989 -1.14523 0
M  V30 523 H 49.8562 4.38673 0.215176 0
M  V30 524 H 50.4622 4.01097 -1.41426 0
M  V30 525 N 48.7773 0.814389 1.34928 0
M  V30 526 C 49.7073 0.244827 2.32213 0
M  V30 527 C 50.6883 -0.634024 1.57842 0
M  V30 528 O 51.8733 -0.562676 1.8587 0
M  V30 529 C 49.0033 -0.601106 3.42058 0
M  V30 530 C 47.9573 0.179896 4.27622 0
M  V30 531 C 47.2833 -0.788237 5.28858 0
M  V30 532 C 48.5833 1.38329 5.03649 0
M  V30 533 H 50.2773 1.05763 2.80097 0
M  V30 534 H 47.8233 0.510029 1.34665 0
M  V30 535 H 49.7763 -1.00968 4.09125 0
M  V30 536 H 48.5003 -1.44688 2.92802 0
M  V30 537 H 47.1593 0.569739 3.62146 0
M  V30 538 H 46.8073 -1.62973 4.75866 0
M  V30 539 H 46.5073 -0.269942 5.8698 0
M  V30 540 H 48.0313 -1.19485 5.98795 0
M  V30 541 H 49.4453 1.04918 5.63618 0
M  V30 542 H 47.8423 1.83662 5.71304 0
M  V30 543 H 48.9123 2.16592 4.33839 0
M  V30 544 N 50.2554 -1.46986 0.568584 0
M  V30 545 C 51.4854 -2.0653 0.0539173 0
M  V30 546 C 51.8934 -1.42004 -1.25026 0
M  V30 547 O 51.2364 -0.514541 -1.76347 0
M  V30 548 C 51.2984 -3.58938 -0.200854 0
M  V30 549 C 50.9624 -4.45572 1.01559 0
M  V30 550 C 51.9594 -4.82986 1.92407 0
M  V30 551 C 49.6444 -4.8692 1.23346 0
M  V30 552 C 51.6384 -5.60559 3.03402 0
M  V30 553 C 49.3254 -5.64255 2.34649 0
M  V30 554 C 50.3234 -6.00986 3.24507 0
M  V30 555 O 50.0114 -6.76761 4.33878 0
M  V30 556 H 49.7434 -0.674292 0.0480234 0
M  V30 557 H 52.2974 -1.89812 0.784896 0
M  V30 558 H 50.5274 -3.73911 -0.986279 0
M  V30 559 H 52.2164 -4.0046 -0.662294 0
M  V30 560 H 52.9824 -4.51633 1.76785 0
M  V30 561 H 48.8614 -4.57789 0.543178 0
M  V30 562 H 52.4054 -5.89147 3.73565 0
M  V30 563 H 48.3024 -5.95021 2.5024 0
M  V30 564 H 49.0704 -6.95168 4.32068 0
M  V30 565 N 51.7335 -0.305618 -1.54608 0
M  V30 566 C 52.9585 0.307562 -2.05107 0
M  V30 567 C 53.3835 1.46385 -1.18123 0
M  V30 568 O 52.7415 1.8034 -0.186324 0
M  V30 569 C 52.7895 0.73704 -3.52987 0
M  V30 570 O 51.8935 1.84134 -3.6901 0
M  V30 571 H 51.2345 0.0589143 -0.661381 0
M  V30 572 H 53.7645 -0.448807 -1.99617 0
M  V30 573 H 53.7745 1.02459 -3.94925 0
M  V30 574 H 52.4495 -0.108773 -4.15758 0
M  V30 575 H 51.0265 1.55398 -3.38978 0
M  V30 576 N 53.2116 1.57565 -0.0334293 0
M  V30 577 C 54.4606 1.91155 0.643639 0
M  V30 578 C 54.7736 0.91192 1.73042 0
M  V30 579 O 55.9796 1.13923 2.46442 0
M  V30 580 C 54.4356 3.39443 1.1961 0
M  V30 581 C 54.0436 4.47774 0.142381 0
M  V30 582 C 55.7876 3.82094 1.84944 0
M  V30 583 C 53.6946 5.87162 0.706727 0
M  V30 584 H 52.6246 0.713368 0.244176 0
M  V30 585 H 55.2756 1.8323 -0.0994323 0
M  V30 586 H 53.6576 3.42313 1.99092 0
M  V30 587 H 54.8316 4.56469 -0.630296 0
M  V30 588 H 53.1466 4.14352 -0.412446 0
M  V30 589 H 55.7436 4.83591 2.2813 0
M  V30 590 H 56.0866 3.17386 2.69392 0
M  V30 591 H 56.6196 3.81665 1.12145 0
M  V30 592 H 53.3586 6.55424 -0.0997178 0
M  V30 593 H 52.8786 5.82064 1.44779 0
M  V30 594 H 54.5576 6.35866 1.19514 0
M  V30 595 N 54.6897 -0.239769 1.55765 0
M  V30 596 C 55.9387 -0.964754 1.77131 0
M  V30 597 C 56.2517 -1.86213 0.59868 0
M  V30 598 O 57.4577 -2.6244 0.695522 0
M  V30 599 C 55.9137 -1.76552 3.1362 0
M  V30 600 C 55.5217 -0.915185 4.38553 0
M  V30 601 C 57.2657 -2.48281 3.44321 0
M  V30 602 C 55.1727 -1.71225 5.66071 0
M  V30 603 H 54.1027 -0.363953 0.660344 0
M  V30 604 H 56.7537 -0.219181 1.82186 0
M  V30 605 H 55.1357 -2.55331 3.02691 0
M  V30 606 H 56.3097 -0.169217 4.60489 0
M  V30 607 H 54.6247 -0.310889 4.15238 0
M  V30 608 H 57.2217 -3.08382 4.36812 0
M  V30 609 H 57.5647 -3.20256 2.65973 0
M  V30 610 H 58.0977 -1.76507 3.56497 0
M  V30 611 H 54.8367 -1.03612 6.4726 0
M  V30 612 H 54.3567 -2.43331 5.48224 0
M  V30 613 H 56.0357 -2.27758 6.05587 0
M  V30 614 N 56.1678 -1.49265 -0.50573 0
M  V30 615 C 57.4148 -1.58513 -1.26015 0
M  V30 616 C 57.7428 -0.26972 -1.92621 0
M  V30 617 O 56.9978 0.741997 -1.81088 0
M  V30 618 C 57.2968 -2.69008 -2.35308 0
M  V30 619 C 56.9628 -4.10662 -1.86192 0
M  V30 620 C 55.6248 -4.49212 -1.72516 0
M  V30 621 C 57.9768 -4.99336 -1.49375 0
M  V30 622 C 55.3048 -5.74214 -1.20394 0
M  V30 623 C 57.6568 -6.24852 -0.987072 0
M  V30 624 C 56.3208 -6.62236 -0.836669 0
M  V30 625 H 55.5908 -0.580041 -0.461122 0
M  V30 626 H 58.2378 -1.83078 -0.561665 0
M  V30 627 H 56.5428 -2.38396 -3.10926 0
M  V30 628 H 58.2398 -2.73373 -2.93374 0
M  V30 629 H 54.8298 -3.8023 -1.97795 0
M  V30 630 H 59.0138 -4.70212 -1.5879 0
M  V30 631 H 54.2698 -6.01883 -1.07458 0
M  V30 632 H 58.4438 -6.92944 -0.692983 0
M  V30 633 H 56.0708 -7.58979 -0.430607 0
M  V30 634 N 57.6459 0.756429 -1.3826 0
M  V30 635 C 58.8919 1.51772 -1.34511 0
M  V30 636 C 59.2249 1.94089 0.0656691 0
M  V30 637 O 58.4999 1.65221 1.02626 0
M  V30 638 C 58.7829 2.77226 -2.29821 0
M  V30 639 C 58.6359 2.41065 -3.79747 0
M  V30 640 C 59.9549 3.79236 -2.23312 0
M  V30 641 H 57.0739 0.550578 -0.489931 0
M  V30 642 H 59.7159 0.866607 -1.69086 0
M  V30 643 H 57.8659 3.32784 -2.00467 0
M  V30 644 H 59.5379 1.91303 -4.19763 0
M  V30 645 H 57.7809 1.7356 -3.97567 0
M  V30 646 H 58.4519 3.3081 -4.41892 0
M  V30 647 H 60.9279 3.3321 -2.49219 0
M  V30 648 H 59.8039 4.64714 -2.92116 0
M  V30 649 H 60.0649 4.24615 -1.23102 0
M  V30 650 N 59.124 1.23083 0.984299 0
M  V30 651 C 60.37 1.06214 1.72761 0
M  V30 652 C 60.703 -0.400584 1.90024 0
M  V30 653 O 59.978 -1.29672 1.44967 0
M  V30 654 C 60.261 1.78375 3.12817 0
M  V30 655 C 60.114 3.32296 3.03149 0
M  V30 656 C 61.433 1.54309 4.12161 0
M  V30 657 H 58.552 0.387251 0.627061 0
M  V30 658 H 61.194 1.51536 1.14616 0
M  V30 659 H 59.344 1.39848 3.62457 0
M  V30 660 H 61.016 3.8032 2.61064 0
M  V30 661 H 59.259 3.6153 2.39747 0
M  V30 662 H 59.93 3.77972 4.02295 0
M  V30 663 H 62.406 1.87791 3.71314 0
M  V30 664 H 61.282 2.07281 5.08258 0
M  V30 665 H 61.543 0.477572 4.39513 0
M  V30 666 N 60.6021 -1.18246 1.0419 0
M  V30 667 C 61.8501 -1.87886 0.744543 0
M  V30 668 C 62.1711 -1.8082 -0.730006 0
M  V30 669 O 61.4411 -1.22736 -1.52685 0
M  V30 670 H 60.0211 -0.695556 0.272417 0
M  V30 671 H 62.6831 -1.43494 1.31892 0
M  V30 672 H 61.7791 -2.9389 1.05049 0
M  V30 673 N 62.0802 -0.821533 -1.34494 0
M  V30 674 C 63.3292 -0.405355 -1.97585 0
M  V30 675 C 63.6422 1.03677 -1.65863 0
M  V30 676 O 64.8482 1.55679 -2.22433 0
M  V30 677 C 63.3042 -0.673861 -3.53535 0
M  V30 678 C 62.9122 -2.12951 -3.94152 0
M  V30 679 C 64.6562 -0.32378 -4.23263 0
M  V30 680 C 62.5632 -2.34298 -5.43009 0
M  V30 681 H 61.4932 -0.147836 -0.739365 0
M  V30 682 H 64.1442 -1.00769 -1.53355 0
M  V30 683 H 62.5262 -0.00137554 -3.96 0
M  V30 684 H 63.7002 -2.84104 -3.62797 0
M  V30 685 H 62.0152 -2.44089 -3.37356 0
M  V30 686 H 64.6122 -0.461126 -5.32708 0
M  V30 687 H 64.9552 0.731586 -4.09821 0
M  V30 688 H 65.4882 -0.950786 -3.8627 0
M  V30 689 H 62.2272 -3.38335 -5.61435 0
M  V30 690 H 61.7472 -1.67687 -5.75883 0
M  V30 691 H 63.4262 -2.16588 -6.09671 0
M  V30 692 N 63.5583 1.46682 -0.576371 0
M  V30 693 C 64.8053 2.02412 -0.0595339 0
M  V30 694 C 65.1333 1.44859 1.29793 0
M  V30 695 O 64.3883 0.601099 1.8624 0
M  V30 696 C 64.6873 3.57345 0.062886 0
M  V30 697 C 64.3533 4.33908 -1.22616 0
M  V30 698 C 63.0153 4.54544 -1.57933 0
M  V30 699 C 65.3673 4.77919 -2.07948 0
M  V30 700 C 62.6953 5.16444 -2.78393 0
M  V30 701 C 65.0473 5.41149 -3.27629 0
M  V30 702 C 63.7113 5.60014 -3.63236 0
M  V30 703 H 62.9813 0.74068 -0.021785 0
M  V30 704 H 65.6283 1.76128 -0.751735 0
M  V30 705 H 63.9333 3.82729 0.838178 0
M  V30 706 H 65.6303 3.98136 0.478439 0
M  V30 707 H 62.2203 4.18138 -0.941202 0
M  V30 708 H 66.4043 4.61738 -1.81967 0
M  V30 709 H 61.6603 5.29242 -3.06126 0
M  V30 710 H 65.8343 5.74211 -3.94023 0
M  V30 711 H 63.4613 6.07748 -4.56669 0
M  V30 712 N 65.0364 0.313813 1.54444 0
M  V30 713 C 66.2844 -0.291099 1.99993 0
M  V30 714 C 66.6054 -1.53418 1.20366 0
M  V30 715 O 65.8754 -1.93544 0.302927 0
M  V30 716 H 64.4554 -0.110552 0.738774 0
M  V30 717 H 67.1174 0.428106 1.9014 0
M  V30 718 H 66.2134 -0.554268 3.07139 0
M  V30 719 N 66.5145 -1.57545 0.0417849 0
M  V30 720 C 67.4625 -2.12148 -0.953723 0
M  V30 721 C 68.4565 -1.05104 -1.32852 0
M  V30 722 O 69.6625 -1.23524 -1.30927 0
M  V30 723 H 66.0375 -0.677957 -0.325389 0
M  V30 724 H 68.0085 -2.94707 -0.467991 0
M  V30 725 C 66.7575 -2.6739 -2.22257 0
M  V30 726 H 66.0805 -3.49413 -1.94295 0
M  V30 727 H 67.5205 -3.09227 -2.90094 0
M  V30 728 C 65.9795 -1.60723 -2.96091 0
M  V30 729 O 66.5095 -1.01449 -3.88679 0
M  V30 730 N 64.7155 -1.32466 -2.58652 0
M  V30 731 H 64.2625 -1.80856 -1.83437 0
M  V30 732 H 64.2205 -0.61325 -3.08361 0
M  V30 733 N 67.9926 0.231505 -1.5589 0
M  V30 734 C 69.2176 0.978689 -1.82856 0
M  V30 735 C 69.6426 1.77559 -0.620846 0
M  V30 736 O 69.0006 1.76119 0.430305 0
M  V30 737 C 69.0486 1.87997 -3.07716 0
M  V30 738 O 68.1526 2.97393 -2.85712 0
M  V30 739 H 67.4936 0.277663 -0.603158 0
M  V30 740 H 70.0236 0.24783 -2.03093 0
M  V30 741 H 70.0336 2.2917 -3.37558 0
M  V30 742 H 68.7086 1.29417 -3.95252 0
M  V30 743 H 67.2856 2.60238 -2.67078 0
M  V30 744 N 69.4707 1.49531 0.497807 0
M  V30 745 C 70.4007 1.6935 1.60757 0
M  V30 746 C 71.3817 0.542218 1.61227 0
M  V30 747 O 72.5667 0.778417 1.77917 0
M  V30 748 C 69.6967 1.76298 2.99226 0
M  V30 749 C 68.6507 2.91248 3.13622 0
M  V30 750 C 67.9767 2.83312 4.53474 0
M  V30 751 C 69.2767 4.3214 2.93346 0
M  V30 752 H 70.9707 2.62263 1.44425 0
M  V30 753 H 68.5167 1.26208 0.693367 0
M  V30 754 H 70.4697 1.88749 3.76765 0
M  V30 755 H 69.1937 0.799871 3.16654 0
M  V30 756 H 67.8527 2.78404 2.38509 0
M  V30 757 H 67.5007 1.84902 4.67782 0
M  V30 758 H 67.2007 3.60465 4.64046 0
M  V30 759 H 68.7247 2.97775 5.33069 0
M  V30 760 H 70.1387 4.45649 3.60652 0
M  V30 761 H 68.5357 5.1054 3.15387 0
M  V30 762 H 69.6057 4.46363 1.89441 0
M  V30 763 N 70.9488 -0.749086 1.3866 0
M  V30 764 C 72.1948 -1.51056 1.35314 0
M  V30 765 C 72.5278 -1.94121 -0.0553751 0
M  V30 766 O 71.8028 -1.65763 -1.01749 0
M  V30 767 C 72.0858 -2.76003 2.31288 0
M  V30 768 C 71.9388 -2.39047 3.8102 0
M  V30 769 C 73.2578 -3.78046 2.2532 0
M  V30 770 H 70.3768 -0.547972 0.492844 0
M  V30 771 H 73.0188 -0.857628 1.69543 0
M  V30 772 H 71.1688 -3.31716 2.02229 0
M  V30 773 H 72.8408 -1.89074 4.20771 0
M  V30 774 H 71.0838 -1.71449 3.98482 0
M  V30 775 H 71.7548 -3.28462 4.4364 0
M  V30 776 H 74.2308 -3.31884 2.50983 0
M  V30 777 H 73.1068 -4.63159 2.94576 0
M  V30 778 H 73.3678 -4.23957 1.25352 0
M  V30 779 N 72.4269 -1.23603 -0.977757 0
M  V30 780 C 73.6729 -1.07129 -1.72195 0
M  V30 781 C 74.0059 0.390501 -1.90233 0
M  V30 782 O 73.2809 1.28902 -1.45653 0
M  V30 783 C 73.5639 -1.80031 -3.11867 0
M  V30 784 C 73.4169 -3.33899 -3.01383 0
M  V30 785 C 74.7359 -1.56492 -4.11337 0
M  V30 786 H 71.8549 -0.390571 -0.624999 0
M  V30 787 H 74.4969 -1.52142 -1.13811 0
M  V30 788 H 72.6469 -1.41768 -3.6171 0
M  V30 789 H 74.3189 -3.81699 -2.59043 0
M  V30 790 H 72.5619 -3.62796 -2.37827 0
M  V30 791 H 73.2329 -3.801 -4.00285 0
M  V30 792 H 75.7089 -1.89757 -3.70313 0
M  V30 793 H 74.5849 -2.09973 -5.07151 0
M  V30 794 H 74.8459 -0.500874 -4.39254 0
M  V30 795 N 73.905 1.17692 -1.04816 0
M  V30 796 C 75.154 1.87192 -0.751132 0
M  V30 797 C 75.467 1.8169 0.724441 0
M  V30 798 O 76.673 2.46625 1.13527 0
M  V30 799 C 75.129 3.35857 -1.29338 0
M  V30 800 C 74.737 3.4987 -2.79812 0
M  V30 801 C 76.481 4.10709 -1.07322 0
M  V30 802 C 74.388 4.92536 -3.27356 0
M  V30 803 H 73.318 0.701162 -0.277288 0
M  V30 804 H 75.969 1.32932 -1.26496 0
M  V30 805 H 74.351 3.89631 -0.707376 0
M  V30 806 H 75.525 3.06332 -3.44235 0
M  V30 807 H 73.84 2.88433 -3.00325 0
M  V30 808 H 76.437 5.15952 -1.4035 0
M  V30 809 H 76.78 4.16299 -0.0108001 0
M  V30 810 H 77.313 3.6313 -1.62423 0
M  V30 811 H 74.052 4.92119 -4.33012 0
M  V30 812 H 73.572 5.3676 -2.67673 0
M  V30 813 H 75.251 5.61288 -3.21815 0
M  V30 814 N 75.3831 0.828654 1.34056 0
M  V30 815 C 76.6291 0.42008 1.98402 0
M  V30 816 C 76.9621 -1.01564 1.65525 0
M  V30 817 O 76.2371 -1.70834 0.929831 0
M  V30 818 C 76.5201 0.62927 3.54559 0
M  V30 819 C 76.3731 2.11152 3.97159 0
M  V30 820 C 77.6921 0.0688756 4.40046 0
M  V30 821 H 74.8111 0.154104 0.720709 0
M  V30 822 H 77.4531 1.04228 1.5886 0
M  V30 823 H 75.6031 0.0996418 3.88372 0
M  V30 824 H 77.2751 2.70522 3.73651 0
M  V30 825 H 75.5181 2.59985 3.47261 0
M  V30 826 H 76.1891 2.20868 5.05887 0
M  V30 827 H 78.6651 0.521458 4.1282 0
M  V30 828 H 77.5411 0.245006 5.48353 0
M  V30 829 H 77.8021 -1.0266 4.30015 0
M  V30 830 N 76.8612 -1.46375 0.584142 0
M  V30 831 C 78.1102 -2.01585 0.0679741 0
M  V30 832 C 78.4232 -1.46109 -1.30045 0
M  V30 833 O 79.6292 -1.93148 -1.90804 0
M  V30 834 C 78.0852 -3.5983 0.0709207 0
M  V30 835 C 77.6932 -4.24303 1.43775 0
M  V30 836 C 79.4372 -4.22693 -0.391228 0
M  V30 837 C 77.3442 -5.74631 1.39834 0
M  V30 838 H 76.2742 -0.753689 0.0216421 0
M  V30 839 H 78.9252 -1.68093 0.736001 0
M  V30 840 H 77.3072 -3.90405 -0.663299 0
M  V30 841 H 78.4812 -4.05335 2.19181 0
M  V30 842 H 76.7962 -3.73539 1.84004 0
M  V30 843 H 79.3932 -5.3289 -0.439524 0
M  V30 844 H 79.7362 -3.91728 -1.40906 0
M  V30 845 H 80.2692 -3.96749 0.288974 0
M  V30 846 H 77.0082 -6.10258 2.39303 0
M  V30 847 H 76.5282 -5.95858 0.686505 0
M  V30 848 H 78.2072 -6.37375 1.11187 0
M  V30 849 N 78.3393 -0.321999 -1.54275 0
M  V30 850 C 79.5693 0.282642 -2.04658 0
M  V30 851 C 79.9773 1.46453 -1.19784 0
M  V30 852 O 79.3203 1.82367 -0.220932 0
M  V30 853 C 79.3823 0.781857 -3.50895 0
M  V30 854 C 79.0463 -0.277517 -4.56157 0
M  V30 855 C 80.0433 -1.11307 -5.07845 0
M  V30 856 C 77.7283 -0.425256 -5.00497 0
M  V30 857 C 79.7223 -2.08211 -6.02434 0
M  V30 858 C 77.4093 -1.39771 -5.94901 0
M  V30 859 C 78.4073 -2.2246 -6.45756 0
M  V30 860 O 78.0953 -3.18054 -7.38307 0
M  V30 861 H 77.8273 0.0622636 -0.673126 0
M  V30 862 H 80.3813 -0.465792 -2.00049 0
M  V30 863 H 78.6113 1.58118 -3.52896 0
M  V30 864 H 80.3003 1.30467 -3.84361 0
M  V30 865 H 81.0663 -1.00991 -4.74369 0
M  V30 866 H 76.9453 0.20847 -4.60528 0
M  V30 867 H 80.4893 -2.72791 -6.42052 0
M  V30 868 H 76.3863 -1.50152 -6.27794 0
M  V30 869 H 77.1543 -3.13275 -7.56175 0
M  V30 870 N 79.8174 1.5752 -0.0501392 0
M  V30 871 C 81.0644 1.9265 0.623874 0
M  V30 872 C 81.3924 0.928411 1.70912 0
M  V30 873 O 80.6474 -0.0594525 1.9561 0
M  V30 874 C 80.9464 3.34467 1.25963 0
M  V30 875 C 80.6124 4.49883 0.302689 0
M  V30 876 C 79.2744 4.81184 0.0393636 0
M  V30 877 C 81.6264 5.20002 -0.353205 0
M  V30 878 C 78.9544 5.79951 -0.887308 0
M  V30 879 C 81.3064 6.1976 -1.26806 0
M  V30 880 C 79.9704 6.49491 -1.54007 0
M  V30 881 H 79.2404 0.704957 0.228292 0
M  V30 882 H 81.8874 1.91146 -0.116398 0
M  V30 883 H 80.1924 3.32333 2.07514 0
M  V30 884 H 81.8894 3.58928 1.78806 0
M  V30 885 H 78.4794 4.25457 0.518109 0
M  V30 886 H 82.6634 4.96033 -0.162854 0
M  V30 887 H 77.9194 6.01322 -1.10553 0
M  V30 888 H 82.0934 6.73205 -1.78236 0
M  V30 889 H 79.7204 7.25837 -2.25976 0
M  V30 890 N 81.2955 -0.223234 1.56011 0
M  V30 891 C 82.5255 -0.963413 1.82762 0
M  V30 892 C 82.9335 -1.78516 0.626804 0
M  V30 893 O 82.2765 -1.78974 -0.414014 0
M  V30 894 C 82.3385 -1.93126 3.0322 0
M  V30 895 C 82.0025 -1.2942 4.38291 0
M  V30 896 C 82.9995 -0.684916 5.15369 0
M  V30 897 C 80.6845 -1.30647 4.85012 0
M  V30 898 C 82.6785 -0.0963971 6.37327 0
M  V30 899 C 80.3655 -0.71411 6.06913 0
M  V30 900 C 81.3635 -0.110123 6.82911 0
M  V30 901 O 81.0515 0.47303 8.02507 0
M  V30 902 H 80.7835 -0.288011 0.611576 0
M  V30 903 H 83.3375 -0.244103 2.03944 0
M  V30 904 H 81.5675 -2.68952 2.77852 0
M  V30 905 H 83.2565 -2.53685 3.16857 0
M  V30 906 H 84.0225 -0.667774 4.80381 0
M  V30 907 H 79.9015 -1.76598 4.25833 0
M  V30 908 H 83.4455 0.375657 6.96588 0
M  V30 909 H 79.3425 -0.728659 6.41374 0
M  V30 910 H 80.1105 0.367186 8.17676 0
M  V30 911 N 82.7736 -1.49793 -0.48987 0
M  V30 912 C 83.7066 -1.61898 -1.60823 0
M  V30 913 C 84.6846 -0.467651 -1.5573 0
M  V30 914 O 85.8686 -0.684682 -1.75626 0
M  V30 915 C 82.9956 -1.58422 -2.99366 0
M  V30 916 C 82.0416 -2.78889 -3.22682 0
M  V30 917 S 82.8746 -4.40429 -3.04602 0
M  V30 918 C 84.0306 -4.39617 -4.4552 0
M  V30 919 H 84.2636 -2.56502 -1.50312 0
M  V30 920 H 81.7966 -1.38822 -0.675849 0
M  V30 921 H 83.7546 -1.57103 -3.79248 0
M  V30 922 H 82.4156 -0.650866 -3.07283 0
M  V30 923 H 81.6086 -2.72708 -4.23847 0
M  V30 924 H 81.2106 -2.77678 -2.50541 0
M  V30 925 H 83.5026 -4.12022 -5.37814 0
M  V30 926 H 84.4456 -5.41097 -4.56749 0
M  V30 927 H 84.8536 -3.69554 -4.2672 0
M  V30 928 N 84.2517 0.741722 -1.39055 0
M  V30 929 C 85.1987 1.85566 -1.37237 0
M  V30 930 C 86.1687 1.64457 -0.233072 0
M  V30 931 O 87.3537 1.85957 -0.427147 0
M  V30 932 C 84.4937 3.23004 -1.215 0
M  V30 933 C 83.6067 3.55864 -2.44918 0
M  V30 934 C 82.7417 4.82669 -2.21821 0
M  V30 935 C 81.7807 5.08351 -3.40948 0
M  V30 936 N 80.9177 6.26356 -3.17211 0
M  V30 937 H 85.7577 1.86455 -2.32462 0
M  V30 938 H 83.2947 0.911176 -1.15482 0
M  V30 939 H 85.2527 4.02331 -1.10389 0
M  V30 940 H 83.8827 3.21411 -0.29908 0
M  V30 941 H 82.9347 2.7129 -2.66657 0
M  V30 942 H 84.2467 3.70765 -3.33668 0
M  V30 943 H 83.4007 5.69962 -2.07914 0
M  V30 944 H 82.1397 4.69929 -1.30454 0
M  V30 945 H 81.1447 4.19522 -3.55361 0
M  V30 946 H 82.3697 5.22981 -4.33207 0
M  V30 947 H 80.3157 6.14917 -2.28502 0
M  V30 948 H 80.2327 6.41813 -3.99515 0
M  V30 949 H 81.5007 7.16506 -3.06984 0
M  V30 950 N 85.7298 1.2412 0.971189 0
M  V30 951 C 86.6598 1.05508 2.08304 0
M  V30 952 C 87.6408 -0.0308864 1.70072 0
M  V30 953 O 88.8258 0.135521 1.93727 0
M  V30 954 C 85.9558 0.655365 3.4106 0
M  V30 955 C 84.9098 1.68971 3.93234 0
M  V30 956 C 84.2358 1.14516 5.22293 0
M  V30 957 C 85.5358 3.08487 4.21465 0
M  V30 958 H 87.2298 1.98507 2.24132 0
M  V30 959 H 84.7758 0.955821 1.07704 0
M  V30 960 H 86.7288 0.51217 4.18276 0
M  V30 961 H 85.4528 -0.31032 3.25122 0
M  V30 962 H 84.1118 1.82106 3.18171 0
M  V30 963 H 83.7598 0.170189 5.02712 0
M  V30 964 H 83.4598 1.83635 5.58168 0
M  V30 965 H 84.9838 1.01401 6.02121 0
M  V30 966 H 86.3978 2.98601 4.89398 0
M  V30 967 H 84.7948 3.74926 4.68562 0
M  V30 968 H 85.8648 3.56787 3.28376 0
M  V30 969 N 87.2079 -1.17134 1.05439 0
M  V30 970 C 88.1549 -2.21235 0.657539 0
M  V30 971 C 89.1249 -1.62551 -0.341543 0
M  V30 972 O 90.3099 -1.89379 -0.232393 0
M  V30 973 C 87.4499 -3.45076 0.0410575 0
M  V30 974 C 86.5629 -4.18042 1.08927 0
M  V30 975 C 85.6979 -5.29376 0.439848 0
M  V30 976 C 84.7369 -5.94132 1.4722 0
M  V30 977 N 83.8739 -6.96975 0.846756 0
M  V30 978 H 88.7139 -2.54534 1.54972 0
M  V30 979 H 86.2509 -1.25028 0.775006 0
M  V30 980 H 88.2089 -4.15862 -0.33383 0
M  V30 981 H 86.8389 -3.12353 -0.814568 0
M  V30 982 H 85.8909 -3.45945 1.58196 0
M  V30 983 H 87.2029 -4.62306 1.87282 0
M  V30 984 H 86.3569 -6.06699 0.0115125 0
M  V30 985 H 85.0959 -4.86251 -0.375656 0
M  V30 986 H 84.1009 -5.15538 1.91052 0
M  V30 987 H 85.3259 -6.39337 2.28965 0
M  V30 988 H 83.2719 -6.5598 0.0518075 0
M  V30 989 H 83.1889 -7.39565 1.5678 0
M  V30 990 H 84.4569 -7.78239 0.443277 0
M  V30 991 N 88.686 -0.835752 -1.33615 0
M  V30 992 C 89.914 -0.443344 -2.02094 0
M  V30 993 C 90.329 0.954522 -1.62894 0
M  V30 994 O 89.686 1.61982 -0.840723 0
M  V30 995 C 89.737 -0.550775 -3.5728 0
M  V30 996 O 89.458 -1.89356 -3.95065 0
M  V30 997 C 90.959 -0.154919 -4.43029 0
M  V30 998 H 88.179 -0.176359 -0.647409 0
M  V30 999 H 90.723 -1.12746 -1.70612 0
M  V30 1000 H 88.878 0.0853997 -3.87306 0
M  V30 1001 H 89.292 -1.87687 -4.89769 0
M  V30 1002 H 90.766 -0.281144 -5.51284 0
M  V30 1003 H 91.243 0.902863 -4.2982 0
M  V30 1004 H 91.849 -0.765404 -4.18356 0
M  V30 1005 N 90.1641 1.46063 -0.591896 0
M  V30 1006 C 91.4101 2.02638 -0.0811191 0
M  V30 1007 C 91.7431 1.4613 1.27905 0
M  V30 1008 O 91.0181 0.629908 1.84017 0
M  V30 1009 C 91.3011 3.60091 -0.0252436 0
M  V30 1010 C 91.1541 4.26965 -1.41496 0
M  V30 1011 C 92.4731 4.3496 0.670685 0
M  V30 1012 H 89.5921 0.73635 -0.0309524 0
M  V30 1013 H 92.2341 1.741 -0.760859 0
M  V30 1014 H 90.3841 3.84535 0.553624 0
M  V30 1015 H 92.0561 4.13756 -2.0397 0
M  V30 1016 H 90.2991 3.85971 -1.98011 0
M  V30 1017 H 90.9701 5.35781 -1.32825 0
M  V30 1018 H 93.4461 4.15716 0.178825 0
M  V30 1019 H 92.3221 5.44686 0.678837 0
M  V30 1020 H 92.5831 4.06685 1.73379 0
M  V30 1021 N 91.6422 0.330177 1.54103 0
M  V30 1022 C 92.6052 -0.520144 2.2322 0
M  V30 1023 C 93.6052 -1.03828 1.22786 0
M  V30 1024 O 94.7952 -0.929652 1.4732 0
M  V30 1025 C 91.9272 -1.72317 2.94142 0
M  V30 1026 H 93.1202 0.0841605 2.99782 0
M  V30 1027 H 90.6732 0.0813433 1.56088 0
M  V30 1028 H 91.4082 -2.36653 2.21734 0
M  V30 1029 H 91.1932 -1.35898 3.67796 0
M  V30 1030 H 92.6832 -2.3266 3.46784 0
M  V30 1031 N 93.1203 -1.57491 0.0584922 0
M  V30 1032 C 94.3453 -1.97711 -0.62652 0
M  V30 1033 C 94.7703 -0.936132 -1.63151 0
M  V30 1034 O 94.1283 0.099811 -1.81025 0
M  V30 1035 C 94.1763 -3.36989 -1.28338 0
M  V30 1036 O 93.2803 -3.35433 -2.39913 0
M  V30 1037 H 92.6213 -0.643868 -0.162266 0
M  V30 1038 H 95.1513 -2.04193 0.129064 0
M  V30 1039 H 95.1613 -3.73879 -1.63335 0
M  V30 1040 H 93.8363 -4.12289 -0.546889 0
M  V30 1041 H 92.4133 -3.10298 -2.06809 0
M  V30 1042 N 94.5984 0.214957 -1.56127 0
M  V30 1043 C 95.8444 0.939762 -1.79712 0
M  V30 1044 C 96.1774 1.83723 -0.629247 0
M  V30 1045 O 95.4524 1.90925 0.371197 0
M  V30 1046 C 95.7354 1.77306 -3.13424 0
M  V30 1047 C 95.5884 0.90164 -4.40671 0
M  V30 1048 C 96.9074 2.74956 -3.43638 0
M  V30 1049 H 94.0264 0.340214 -0.653776 0
M  V30 1050 H 96.6684 0.20824 -1.88855 0
M  V30 1051 H 94.8184 2.39673 -3.0576 0
M  V30 1052 H 96.4904 0.294206 -4.60361 0
M  V30 1053 H 94.7334 0.207368 -4.33304 0
M  V30 1054 H 95.4044 1.51923 -5.30682 0
M  V30 1055 H 97.8804 2.22724 -3.51473 0
M  V30 1056 H 96.7564 3.30358 -4.38355 0
M  V30 1057 H 97.0174 3.53023 -2.66134 0
M  V30 1058 N 96.0765 1.50051 0.48192 0
M  V30 1059 C 97.3235 1.60498 1.23477 0
M  V30 1060 C 97.6515 0.300331 1.92167 0
M  V30 1061 O 96.9065 -0.713094 1.82246 0
M  V30 1062 C 97.2055 2.72717 2.30998 0
M  V30 1063 C 96.8715 4.13572 1.79636 0
M  V30 1064 C 95.5335 4.519 1.65348 0
M  V30 1065 C 97.8855 5.01649 1.41412 0
M  V30 1066 C 95.2135 5.76057 1.11244 0
M  V30 1067 C 97.5655 6.26343 0.887538 0
M  V30 1068 C 96.2295 6.63483 0.731207 0
M  V30 1069 H 95.4995 0.587303 0.451836 0
M  V30 1070 H 98.1465 1.83948 0.532468 0
M  V30 1071 H 96.4515 2.43312 3.07094 0
M  V30 1072 H 98.1485 2.78006 2.88988 0
M  V30 1073 H 94.7385 3.83329 1.91721 0
M  V30 1074 H 98.9225 4.72679 1.51289 0
M  V30 1075 H 94.1785 6.03516 0.978686 0
M  V30 1076 H 98.3525 6.93958 0.582654 0
M  V30 1077 H 95.9795 7.59568 0.309806 0
M  V30 1078 N 97.5546 -0.734337 1.39446 0
M  V30 1079 C 98.4846 -1.86155 1.40955 0
M  V30 1080 C 99.4656 -1.67898 0.272827 0
M  V30 1081 O 100.651 -1.88207 0.478743 0
M  V30 1082 C 97.7806 -3.23912 1.25294 0
M  V30 1083 C 96.7346 -3.56808 2.36373 0
M  V30 1084 C 96.0606 -4.93508 2.058 0
M  V30 1085 C 97.3606 -3.59713 3.78687 0
M  V30 1086 H 99.0546 -1.8515 2.35287 0
M  V30 1087 H 96.6006 -0.889367 1.13253 0
M  V30 1088 H 98.5536 -4.02443 1.2497 0
M  V30 1089 H 97.2776 -3.25446 0.274308 0
M  V30 1090 H 95.9366 -2.80606 2.35914 0
M  V30 1091 H 95.5846 -4.91623 1.06374 0
M  V30 1092 H 95.2846 -5.16486 2.80208 0
M  V30 1093 H 96.8086 -5.74396 2.07128 0
M  V30 1094 H 98.2226 -4.2832 3.81071 0
M  V30 1095 H 96.6196 -3.94209 4.52459 0
M  V30 1096 H 97.6896 -2.59504 4.09617 0
M  V30 1097 N 99.0327 -1.24633 -0.964593 0
M  V30 1098 C 99.9627 -1.06611 -2.07741 0
M  V30 1099 C 100.944 0.0218666 -1.70086 0
M  V30 1100 O 102.129 -0.145793 -1.93652 0
M  V30 1101 C 99.2587 -0.673444 -3.40708 0
M  V30 1102 C 98.2127 -1.71054 -3.92332 0
M  V30 1103 C 97.5387 -1.17285 -5.21678 0
M  V30 1104 C 98.8387 -3.10718 -4.19824 0
M  V30 1105 H 100.533 -1.99693 -2.23076 0
M  V30 1106 H 98.0787 -0.96152 -1.07195 0
M  V30 1107 H 100.032 -0.534345 -4.17998 0
M  V30 1108 H 98.7557 0.293073 -3.25282 0
M  V30 1109 H 97.4147 -1.83791 -3.17201 0
M  V30 1110 H 97.0627 -0.196847 -5.02615 0
M  V30 1111 H 96.7627 -1.86592 -5.57187 0
M  V30 1112 H 98.2867 -1.04593 -6.01575 0
M  V30 1113 H 99.7007 -3.01192 -4.87808 0
M  V30 1114 H 98.0977 -3.77406 -4.66567 0
M  V30 1115 H 99.1677 -3.58524 -3.26479 0
M  V30 1116 N 100.511 1.16574 -1.06058 0
M  V30 1117 C 101.459 2.22941 -0.663343 0
M  V30 1118 C 102.453 1.66358 0.319593 0
M  V30 1119 O 103.659 1.7905 0.184713 0
M  V30 1120 H 100.034 0.725907 -0.196376 0
M  V30 1121 H 102.005 2.53736 -1.57037 0
M  V30 1122 C 100.754 3.47642 -0.0632808 0
M  V30 1123 H 100.077 3.91493 -0.810733 0
M  V30 1124 H 101.517 4.2363 0.177177 0
M  V30 1125 C 99.9758 3.1509 1.19248 0
M  V30 1126 O 100.506 3.30673 2.28075 0
M  V30 1127 N 98.7118 2.6924 1.09353 0
M  V30 1128 H 98.2588 2.5676 0.207912 0
M  V30 1129 H 98.2168 2.47833 1.93458 0
M  V30 1130 N 101.989 0.842826 1.3317 0
M  V30 1131 C 102.919 0.294028 2.31641 0
M  V30 1132 C 103.9 -0.600401 1.59151 0
M  V30 1133 O 105.085 -0.523124 1.87022 0
M  V30 1134 C 102.215 -0.528416 3.43257 0
M  V30 1135 C 101.169 0.27056 4.27144 0
M  V30 1136 C 100.495 -0.675881 5.30411 0
M  V30 1137 C 101.795 1.48981 5.00602 0
M  V30 1138 H 103.489 1.11681 2.77791 0
M  V30 1139 H 101.035 0.538478 1.33553 0
M  V30 1140 H 102.988 -0.922674 4.11175 0
M  V30 1141 H 101.712 -1.38445 2.95805 0
M  V30 1142 H 100.371 0.646427 3.60856 0
M  V30 1143 H 100.019 -1.52842 4.79216 0
M  V30 1144 H 99.7189 -0.145374 5.8742 0
M  V30 1145 H 101.243 -1.06757 6.01195 0
M  V30 1146 H 102.657 1.16849 5.61266 0
M  V30 1147 H 101.054 1.95739 5.6728 0
M  V30 1148 H 102.124 2.25746 4.29147 0
M  V30 1149 N 103.467 -1.45747 0.599634 0
M  V30 1150 C 104.43 -2.28917 -0.113835 0
M  V30 1151 C 105.43 -1.3933 -0.802729 0
M  V30 1152 O 106.62 -1.61534 -0.652103 0
M  V30 1153 C 103.752 -3.20152 -1.17114 0
M  V30 1154 H 104.945 -2.93478 0.617289 0
M  V30 1155 H 102.498 -1.52137 0.358327 0
M  V30 1156 H 103.233 -2.60374 -1.93329 0
M  V30 1157 H 103.018 -3.86133 -0.681468 0
M  V30 1158 H 104.508 -3.82708 -1.67105 0
M  V30 1159 N 104.945 -0.338344 -1.53925 0
M  V30 1160 C 105.875 0.51328 -2.27789 0
M  V30 1161 C 106.856 1.107 -1.29149 0
M  V30 1162 O 108.041 1.12937 -1.57984 0
M  V30 1163 C 105.171 1.66697 -3.04679 0
M  V30 1164 C 104.125 1.20183 -4.1078 0
M  V30 1165 C 103.451 2.44363 -4.75595 0
M  V30 1166 C 104.751 0.30605 -5.21403 0
M  V30 1167 H 106.445 -0.102883 -2.99223 0
M  V30 1168 H 103.991 -0.0509219 -1.4391 0
M  V30 1169 H 105.944 2.26915 -3.55088 0
M  V30 1170 H 104.668 2.30995 -2.30887 0
M  V30 1171 H 103.327 0.622499 -3.61276 0
M  V30 1172 H 102.975 3.07057 -3.98403 0
M  V30 1173 H 102.675 2.13925 -5.47275 0
M  V30 1174 H 104.199 3.05317 -5.28786 0
M  V30 1175 H 105.613 0.814929 -5.67478 0
M  V30 1176 H 104.01 0.0937929 -6.00027 0
M  V30 1177 H 105.08 -0.65921 -4.80398 0
M  V30 1178 N 106.423 1.57458 -0.0668435 0
M  V30 1179 C 107.386 2.11323 0.887422 0
M  V30 1180 C 108.386 1.03618 1.22964 0
M  V30 1181 O 109.576 1.29626 1.16373 0
M  V30 1182 C 106.708 2.61048 2.19242 0
M  V30 1183 H 107.901 2.96942 0.420194 0
M  V30 1184 H 105.454 1.55239 0.181793 0
M  V30 1185 H 106.189 1.78868 2.70512 0
M  V30 1186 H 105.974 3.39769 1.95702 0
M  V30 1187 H 107.464 3.02814 2.87565 0
M  V30 1188 N 107.901 -0.206675 1.56239 0
M  V30 1189 C 109.178 -0.954051 1.70755 0
M  V30 1190 C 109.558 -2.01841 0.618353 0
M  V30 1191 O 108.906 -2.25444 -0.372434 0
M  V30 1192 C 109.116 -1.551 3.12642 0
M  V30 1193 C 110.464 -2.03757 3.72516 0
M  V30 1194 O 111.488 -1.64965 3.15698 0
M  V30 1195 O 110.347 -2.75103 4.72208 0
M  V30 1196 H 107.441 -0.446636 0.696021 0
M  V30 1197 H 109.987 -0.197283 1.68549 0
M  V30 1198 H 108.759 -0.783212 3.83382 0
M  V30 1199 H 108.382 -2.37291 3.19028 0
M  V30 1200 N 109.379 -1.50304 -0.473955 0
M  V30 1201 C 110.309 -1.71886 -1.58042 0
M  V30 1202 C 111.29 -0.567799 -1.60344 0
M  V30 1203 O 112.475 -0.806623 -1.76656 0
M  V30 1204 C 109.605 -1.81036 -2.96384 0
M  V30 1205 C 108.559 -2.962 -3.08949 0
M  V30 1206 C 107.885 -2.9049 -4.48909 0
M  V30 1207 C 109.185 -4.36752 -2.86434 0
M  V30 1208 H 110.879 -2.64527 -1.40234 0
M  V30 1209 H 108.425 -1.27295 -0.673201 0
M  V30 1210 H 110.378 -1.94719 -3.73714 0
M  V30 1211 H 109.102 -0.850147 -3.15341 0
M  V30 1212 H 107.761 -2.82164 -2.3405 0
M  V30 1213 H 107.409 -1.92321 -4.64781 0
M  V30 1214 H 107.109 -3.67802 -4.58253 0
M  V30 1215 H 108.633 -3.06218 -5.28264 0
M  V30 1216 H 110.047 -4.5133 -3.53517 0
M  V30 1217 H 108.444 -5.15493 -3.07225 0
M  V30 1218 H 109.514 -4.49321 -1.82316 0
M  V30 1219 N 110.857 0.726932 -1.39834 0
M  V30 1220 C 112.097 1.4992 -1.38936 0
M  V30 1221 C 112.461 1.91996 0.0126883 0
M  V30 1222 O 113.662 2.68399 0.146715 0
M  V30 1223 C 111.933 2.70013 -2.34153 0
M  V30 1224 S 113.492 3.59563 -2.51515 0
M  V30 1225 H 110.31 0.51271 -0.492595 0
M  V30 1226 H 112.912 0.85107 -1.76003 0
M  V30 1227 H 111.616 2.37254 -3.34871 0
M  V30 1228 H 111.147 3.39748 -1.98331 0
M  V30 1229 H 113.162 4.63973 -1.75909 0
M  V30 1230 N 112.336 1.25143 0.95797 0
M  V30 1231 C 113.583 1.09692 1.70217 0
M  V30 1232 C 113.911 -0.362654 1.91089 0
M  V30 1233 O 113.166 -1.28386 1.47701 0
M  V30 1234 C 113.465 1.79272 3.09187 0
M  V30 1235 C 113.131 3.29196 3.08125 0
M  V30 1236 C 111.793 3.70096 3.07543 0
M  V30 1237 C 114.145 4.24995 3.0171 0
M  V30 1238 C 111.473 5.05213 2.9829 0
M  V30 1239 C 113.825 5.60132 2.93999 0
M  V30 1240 C 112.489 6.00365 2.9175 0
M  V30 1241 H 111.759 0.401393 0.622868 0
M  V30 1242 H 114.406 1.55372 1.11945 0
M  V30 1243 H 112.711 1.26014 3.70982 0
M  V30 1244 H 114.408 1.64773 3.65583 0
M  V30 1245 H 110.998 2.96651 3.09348 0
M  V30 1246 H 115.182 3.9439 3.01281 0
M  V30 1247 H 110.438 5.35569 2.94916 0
M  V30 1248 H 114.612 6.3406 2.87996 0
M  V30 1249 H 112.239 7.05023 2.84336 0
M  V30 1250 N 113.814 -1.1601 1.06675 0
M  V30 1251 C 114.744 -2.22688 0.702307 0
M  V30 1252 C 115.725 -1.67306 -0.307032 0
M  V30 1253 O 116.91 -1.93352 -0.181305 0
M  V30 1254 C 114.04 -3.47178 0.092038 0
M  V30 1255 C 112.994 -4.15477 1.02777 0
M  V30 1256 C 112.32 -5.33963 0.28061 0
M  V30 1257 C 113.62 -4.66019 2.35846 0
M  V30 1258 H 115.314 -2.53429 1.59419 0
M  V30 1259 H 112.86 -1.21813 0.767961 0
M  V30 1260 H 114.813 -4.21037 -0.174814 0
M  V30 1261 H 113.537 -3.15749 -0.834877 0
M  V30 1262 H 112.196 -3.43549 1.27944 0
M  V30 1263 H 111.844 -4.98788 -0.649545 0
M  V30 1264 H 111.544 -5.806 0.904258 0
M  V30 1265 H 113.068 -6.10596 0.021396 0
M  V30 1266 H 114.482 -5.3144 2.15045 0
M  V30 1267 H 112.879 -5.23293 2.93743 0
M  V30 1268 H 113.949 -3.82023 2.98641 0
M  V30 1269 N 115.292 -0.849877 -1.32721 0
M  V30 1270 C 116.222 -0.306308 -2.31482 0
M  V30 1271 C 117.203 0.591952 -1.59468 0
M  V30 1272 O 118.388 0.513199 -1.87296 0
M  V30 1273 C 115.518 0.510204 -3.43532 0
M  V30 1274 C 114.472 -0.293209 -4.26994 0
M  V30 1275 C 113.798 0.647743 -5.30762 0
M  V30 1276 C 115.098 -1.51634 -4.99804 0
M  V30 1277 H 116.792 -1.13153 -2.77195 0
M  V30 1278 H 114.338 -0.545553 -1.33266 0
M  V30 1279 H 116.291 0.900856 -4.11658 0
M  V30 1280 H 115.015 1.36874 -2.96535 0
M  V30 1281 H 113.674 -0.665555 -3.60508 0
M  V30 1282 H 113.322 1.50299 -4.8002 0
M  V30 1283 H 113.022 0.11422 -5.87489 0
M  V30 1284 H 114.546 1.03567 -6.01753 0
M  V30 1285 H 115.96 -1.19824 -5.60638 0
M  V30 1286 H 114.357 -1.98745 -5.66234 0
M  V30 1287 H 115.427 -2.28018 -4.27943 0
M  V30 1288 N 116.77 1.45427 -0.607355 0
M  V30 1289 C 117.998 2.06614 -0.108814 0
M  V30 1290 C 118.413 1.45204 1.2067 0
M  V30 1291 O 117.77 0.566132 1.73497 0
M  V30 1292 C 117.821 3.61481 0.0375347 0
M  V30 1293 O 117.542 4.20598 -1.22593 0
M  V30 1294 C 119.043 4.39652 0.567561 0
M  V30 1295 H 116.263 0.66747 -0.0687351 0
M  V30 1296 H 118.807 1.86675 -0.835022 0
M  V30 1297 H 116.962 3.80762 0.714068 0
M  V30 1298 H 117.376 5.1377 -1.05547 0
M  V30 1299 H 118.85 5.48518 0.61905 0
M  V30 1300 H 119.327 4.09417 1.58978 0
M  V30 1301 H 119.933 4.25234 -0.0749202 0
M  V30 1302 N 118.248 0.346503 1.53744 0
M  V30 1303 C 119.178 -0.501193 2.28058 0
M  V30 1304 C 120.159 -1.10014 1.29734 0
M  V30 1305 O 121.344 -1.12097 1.58581 0
M  V30 1306 C 118.474 -1.65078 3.05559 0
M  V30 1307 C 117.428 -1.18003 4.11411 0
M  V30 1308 C 116.754 -2.41837 4.76884 0
M  V30 1309 C 118.054 -0.278394 5.21558 0
M  V30 1310 H 119.748 0.11875 2.99164 0
M  V30 1311 H 117.294 0.0585531 1.43881 0
M  V30 1312 H 119.247 -2.25028 3.56287 0
M  V30 1313 H 117.971 -2.29767 2.32109 0
M  V30 1314 H 116.63 -0.603331 3.61601 0
M  V30 1315 H 116.278 -3.0494 4.00026 0
M  V30 1316 H 115.978 -2.1102 5.48402 0
M  V30 1317 H 117.502 -3.02508 5.30397 0
M  V30 1318 H 118.916 -0.784823 5.67903 0
M  V30 1319 H 117.313 -0.0619707 6.00068 0
M  V30 1320 H 118.383 0.684677 4.80042 0
M  V30 1321 N 119.726 -1.57421 0.075193 0
M  V30 1322 C 121.137 -1.81021 -0.456964 0
M  V30 1323 C 121.488 -0.98936 -1.69429 0
M  V30 1324 O 120.613 -0.212865 -2.15351 0
M  V30 1325 C 121.208 -3.28329 -0.83581 0
M  V30 1326 C 119.767 -3.52764 -1.31281 0
M  V30 1327 C 118.914 -2.75676 -0.299648 0
M  V30 1328 H 121.865 -1.55822 0.300856 0
M  V30 1329 H 121.886 -3.40564 -1.69696 0
M  V30 1330 H 121.398 -3.88046 0.0649238 0
M  V30 1331 H 119.499 -2.98355 -2.23193 0
M  V30 1332 H 119.612 -4.61451 -1.28839 0
M  V30 1333 H 117.976 -2.42538 -0.777641 0
M  V30 1334 H 118.759 -3.38132 0.593417 0
M  V30 1335 N 121.204 0.198386 -1.56346 0
M  V30 1336 C 122.134 1.24865 -1.9731 0
M  V30 1337 C 123.115 1.47651 -0.844576 0
M  V30 1338 O 124.3 1.59444 -1.10866 0
M  V30 1339 C 121.43 2.59358 -2.30977 0
M  V30 1340 C 120.384 2.5119 -3.46537 0
M  V30 1341 C 119.71 3.89926 -3.65871 0
M  V30 1342 C 121.01 2.03977 -4.80823 0
M  V30 1343 H 122.704 0.908252 -2.85291 0
M  V30 1344 H 120.25 0.435462 -1.37258 0
M  V30 1345 H 122.203 3.33011 -2.58228 0
M  V30 1346 H 120.927 2.95132 -1.39874 0
M  V30 1347 H 119.586 1.79993 -3.19371 0
M  V30 1348 H 119.234 4.23046 -2.72105 0
M  V30 1349 H 118.934 3.85336 -4.4361 0
M  V30 1350 H 120.458 4.65205 -3.95495 0
M  V30 1351 H 121.872 2.67386 -5.07127 0
M  V30 1352 H 120.269 2.10397 -5.62008 0
M  V30 1353 H 121.339 0.992861 -4.74626 0
M  V30 1354 N 122.682 1.50554 0.465978 0
M  V30 1355 C 123.928 1.63006 1.21658 0
M  V30 1356 C 124.283 0.328613 1.89573 0
M  V30 1357 O 123.576 -0.673813 1.79361 0
M  V30 1358 C 123.77 2.75152 2.28093 0
M  V30 1359 C 123.599 4.16075 1.7062 0
M  V30 1360 C 122.369 4.82408 1.50368 0
M  V30 1361 C 124.567 5.00145 1.1983 0
M  V30 1362 N 122.549 6.07532 0.881924 0
M  V30 1363 C 123.92 6.16035 0.700083 0
M  V30 1364 C 125.975 4.85882 1.08733 0
M  V30 1365 C 124.678 7.19228 0.101835 0
M  V30 1366 C 126.704 5.89257 0.503016 0
M  V30 1367 C 126.066 7.04398 0.0152005 0
M  V30 1368 H 122.165 0.650596 0.433877 0
M  V30 1369 H 124.749 1.8769 0.517746 0
M  V30 1370 H 122.92 2.52181 2.95397 0
M  V30 1371 H 124.652 2.76935 2.95109 0
M  V30 1372 H 121.407 4.39788 1.75737 0
M  V30 1373 H 121.831 6.7443 0.589312 0
M  V30 1374 H 126.473 3.97144 1.4504 0
M  V30 1375 H 124.191 8.07637 -0.273426 0
M  V30 1376 H 127.777 5.80286 0.419451 0
M  V30 1377 H 126.657 7.83021 -0.429856 0
M  V30 1378 N 124.16 -0.719506 1.40217 0
M  V30 1379 C 125.123 -1.8153 1.39927 0
M  V30 1380 C 126.123 -1.58095 0.293723 0
M  V30 1381 O 127.313 -1.65209 0.552429 0
M  V30 1382 C 124.445 -3.19561 1.18716 0
M  V30 1383 H 125.638 -1.83186 2.37451 0
M  V30 1384 H 123.191 -0.924746 1.26008 0
M  V30 1385 H 123.926 -3.23557 0.219366 0
M  V30 1386 H 123.711 -3.3797 1.98793 0
M  V30 1387 H 125.201 -3.99598 1.21291 0
M  V30 1388 N 125.638 -1.25649 -0.95132 0
M  V30 1389 C 126.884 -1.10757 -1.69884 0
M  V30 1390 C 127.217 0.350061 -1.91019 0
M  V30 1391 O 126.492 1.25783 -1.48354 0
M  V30 1392 C 126.775 -1.86606 -3.07978 0
M  V30 1393 C 126.628 -3.40217 -2.94232 0
M  V30 1394 C 127.947 -1.65182 -4.07925 0
M  V30 1395 H 125.066 -0.40374 -0.616574 0
M  V30 1396 H 127.708 -1.54521 -1.10558 0
M  V30 1397 H 125.858 -1.49409 -3.58621 0
M  V30 1398 H 127.53 -3.87108 -2.50889 0
M  V30 1399 H 125.773 -3.67759 -2.30078 0
M  V30 1400 H 126.444 -3.88505 -3.92133 0
M  V30 1401 H 128.92 -1.9757 -3.66204 0
M  V30 1402 H 127.796 -2.20683 -5.02583 0
M  V30 1403 H 128.057 -0.593933 -4.38092 0
M  V30 1404 N 127.117 1.15442 -1.07289 0
M  V30 1405 C 128.347 1.89821 -0.815576 0
M  V30 1406 C 128.755 1.7823 0.634867 0
M  V30 1407 O 128.098 1.13152 1.44715 0
M  V30 1408 C 128.16 3.40817 -1.14385 0
M  V30 1409 C 127.824 3.76193 -2.59476 0
M  V30 1410 C 128.821 3.77269 -3.57721 0
M  V30 1411 C 126.506 4.0652 -2.95037 0
M  V30 1412 C 128.5 4.08176 -4.89562 0
M  V30 1413 C 126.187 4.37092 -4.27076 0
M  V30 1414 C 127.185 4.37902 -5.24148 0
M  V30 1415 O 126.873 4.67741 -6.53815 0
M  V30 1416 H 126.605 0.608465 -0.294528 0
M  V30 1417 H 129.159 1.472 -1.43252 0
M  V30 1418 H 127.389 3.83835 -0.469865 0
M  V30 1419 H 129.078 3.96485 -0.869179 0
M  V30 1420 H 129.844 3.5394 -3.3159 0
M  V30 1421 H 125.723 4.05049 -2.20128 0
M  V30 1422 H 129.267 4.08723 -5.65324 0
M  V30 1423 H 125.164 4.59889 -4.5296 0
M  V30 1424 H 125.932 4.85509 -6.58957 0
M  V30 1425 N 128.595 0.856903 1.32268 0
M  V30 1426 C 129.823 0.475439 2.01363 0
M  V30 1427 C 130.238 -0.928486 1.64392 0
M  V30 1428 O 129.595 -1.60624 0.866387 0
M  V30 1429 C 129.646 0.607545 3.56358 0
M  V30 1430 O 129.367 1.95617 3.92002 0
M  V30 1431 C 130.868 0.225382 4.42727 0
M  V30 1432 H 128.088 0.186636 0.644521 0
M  V30 1433 H 130.632 1.15446 1.68797 0
M  V30 1434 H 128.787 -0.0237719 3.87393 0
M  V30 1435 H 129.201 1.95455 4.86721 0
M  V30 1436 H 130.675 0.368813 5.50767 0
M  V30 1437 H 131.152 -0.834369 4.31202 0
M  V30 1438 H 131.758 0.831864 4.17085 0
M  V30 1439 N 130.073 -1.45103 0.615059 0
M  V30 1440 C 131.036 -2.29025 -0.0895485 0
M  V30 1441 C 132.036 -1.40174 -0.787906 0
M  V30 1442 O 133.226 -1.62217 -0.634933 0
M  V30 1443 C 130.358 -3.21376 -1.13711 0
M  V30 1444 H 131.551 -2.92807 0.648382 0
M  V30 1445 H 129.104 -1.51749 0.374444 0
M  V30 1446 H 129.839 -2.6241 -1.90556 0
M  V30 1447 H 129.624 -3.86834 -0.640475 0
M  V30 1448 H 131.114 -3.84459 -1.63036 0
M  V30 1449 N 131.551 -0.354651 -1.53558 0
M  V30 1450 C 132.484 0.540273 -2.21712 0
M  V30 1451 C 133.462 1.09161 -1.2051 0
M  V30 1452 O 134.646 1.14979 -1.49372 0
M  V30 1453 C 131.773 1.74435 -2.90328 0
M  V30 1454 C 130.819 1.32146 -4.05512 0
M  V30 1455 S 131.652 0.331924 -5.3447 0
M  V30 1456 C 132.808 1.54258 -6.06593 0
M  V30 1457 H 133.041 -0.0385776 -2.97275 0
M  V30 1458 H 130.574 -0.138736 -1.53775 0
M  V30 1459 H 132.532 2.43507 -3.30476 0
M  V30 1460 H 131.193 2.29444 -2.1451 0
M  V30 1461 H 130.386 2.21952 -4.52497 0
M  V30 1462 H 129.988 0.710091 -3.67197 0
M  V30 1463 H 132.28 2.47534 -6.30661 0
M  V30 1464 H 133.223 1.11431 -6.99277 0
M  V30 1465 H 133.631 1.74367 -5.36895 0
M  V30 1466 N 133.029 1.57378 -0.0835403 0
M  V30 1467 C 133.939 2.16897 0.894021 0
M  V30 1468 C 134.955 1.13528 1.31861 0
M  V30 1469 O 136.131 1.45848 1.3889 0
M  V30 1470 C 133.196 2.72831 2.13925 0
M  V30 1471 C 132.257 3.91115 1.76997 0
M  V30 1472 C 131.49 4.44371 2.95584 0
M  V30 1473 O 131.713 3.96596 4.09961 0
M  V30 1474 O 130.647 5.35549 2.74719 0
M  V30 1475 H 134.473 3.00814 0.417679 0
M  V30 1476 H 132.058 1.48741 0.140181 0
M  V30 1477 H 133.94 3.0863 2.86924 0
M  V30 1478 H 132.615 1.91967 2.60635 0
M  V30 1479 H 131.522 3.60148 1.01214 0
M  V30 1480 H 132.855 4.73307 1.3506 0
M  V30 1481 N 134.507 -0.190092 1.56449 0
M  V30 1482 C 135.737 -0.92443 1.84764 0
M  V30 1483 C 136.145 -1.77146 0.664529 0
M  V30 1484 O 135.488 -1.79812 -0.375957 0
M  V30 1485 C 135.55 -1.86651 3.07248 0
M  V30 1486 C 135.214 -1.20094 4.40938 0
M  V30 1487 C 136.211 -0.575445 5.16706 0
M  V30 1488 C 133.896 -1.2033 4.87674 0
M  V30 1489 C 135.89 0.0388111 6.37388 0
M  V30 1490 C 133.577 -0.585214 6.08291 0
M  V30 1491 C 134.575 0.0347578 6.82991 0
M  V30 1492 O 134.263 0.643147 8.01323 0
M  V30 1493 H 133.995 -0.274974 0.617548 0
M  V30 1494 H 136.549 -0.200788 2.04416 0
M  V30 1495 H 134.779 -2.62998 2.83494 0
M  V30 1496 H 136.468 -2.46907 3.22167 0
M  V30 1497 H 137.234 -0.565728 4.81689 0
M  V30 1498 H 133.113 -1.67526 4.29484 0
M  V30 1499 H 136.657 0.523329 6.95634 0
M  V30 1500 H 132.554 -0.592451 6.42775 0
M  V30 1501 H 133.322 0.540545 8.16713 0
M  V30 1502 N 135.985 -1.50799 -0.457987 0
M  V30 1503 C 137.401 -1.38515 -0.792819 0
M  V30 1504 C 137.601 -0.451409 -1.96379 0
M  V30 1505 O 136.657 0.10112 -2.52297 0
M  V30 1506 C 137.97 -2.80149 -1.09258 0
M  V30 1507 C 139.518 -2.89156 -1.19825 0
M  V30 1508 C 139.993 -4.31651 -1.53106 0
M  V30 1509 N 141.484 -4.34662 -1.60072 0
M  V30 1510 C 142.219 -5.41928 -1.87354 0
M  V30 1511 N 141.715 -6.59384 -2.12568 0
M  V30 1512 N 143.508 -5.29385 -1.88965 0
M  V30 1513 H 135.659 -2.10073 0.313511 0
M  V30 1514 H 137.922 -0.944803 0.0777862 0
M  V30 1515 H 137.628 -3.50374 -0.305084 0
M  V30 1516 H 137.502 -3.18204 -2.02549 0
M  V30 1517 H 139.889 -2.19141 -1.97639 0
M  V30 1518 H 139.97 -2.54626 -0.244821 0
M  V30 1519 H 139.614 -5.02208 -0.758266 0
M  V30 1520 H 139.544 -4.63678 -2.49621 0
M  V30 1521 H 142.035 -3.49973 -1.42573 0
M  V30 1522 H 142.348 -7.36934 -2.32696 0
M  V30 1523 H 140.693 -6.62535 -2.09933 0
M  V30 1524 H 143.884 -4.36616 -1.68772 0
M  V30 1525 H 144.057 -6.13066 -2.09891 0
M  V30 1526 N 137.463 0.71206 -1.40597 0
M  V30 1527 C 138.709 1.47292 -1.40274 0
M  V30 1528 C 139.064 1.92399 -0.00576812 0
M  V30 1529 O 138.357 1.65507 0.965297 0
M  V30 1530 C 138.551 2.71039 -2.32965 0
M  V30 1531 C 138.38 2.38035 -3.81536 0
M  V30 1532 C 137.15 2.29203 -4.50327 0
M  V30 1533 C 139.348 2.02076 -4.72938 0
M  V30 1534 N 137.33 1.88911 -5.84111 0
M  V30 1535 C 138.701 1.72412 -5.95545 0
M  V30 1536 C 140.756 1.88742 -4.60739 0
M  V30 1537 C 139.459 1.30756 -7.07316 0
M  V30 1538 C 141.485 1.4849 -5.72455 0
M  V30 1539 C 140.847 1.19726 -6.94151 0
M  V30 1540 H 136.946 0.536919 -0.568544 0
M  V30 1541 H 139.53 0.825424 -1.76337 0
M  V30 1542 H 137.701 3.33533 -1.99023 0
M  V30 1543 H 139.433 3.37404 -2.23474 0
M  V30 1544 H 136.188 2.47059 -4.04053 0
M  V30 1545 H 136.612 1.71293 -6.54972 0
M  V30 1546 H 141.254 2.0964 -3.67166 0
M  V30 1547 H 138.972 1.08601 -8.00769 0
M  V30 1548 H 142.558 1.38747 -5.65014 0
M  V30 1549 H 141.438 0.890482 -7.79128 0
M  V30 1550 N 138.941 1.26152 0.944643 0
M  V30 1551 C 140.352 1.10454 1.50522 0
M  V30 1552 C 140.703 -0.31635 1.93633 0
M  V30 1553 O 139.828 -1.20746 1.79581 0
M  V30 1554 C 140.423 1.99891 2.73549 0
M  V30 1555 C 138.982 1.88348 3.25886 0
M  V30 1556 C 138.129 1.93447 1.9868 0
M  V30 1557 H 141.08 1.39292 0.760489 0
M  V30 1558 H 141.101 1.54477 3.47732 0
M  V30 1559 H 140.613 3.03297 2.42141 0
M  V30 1560 H 138.714 0.878636 3.62092 0
M  V30 1561 H 138.827 2.73696 3.93227 0
M  V30 1562 H 137.191 1.37456 2.14425 0
M  V30 1563 H 137.974 2.98476 1.69607 0
M  V30 1564 N 140.419 -1.14872 1.07899 0
M  V30 1565 C 141.666 -1.85789 0.805532 0
M  V30 1566 C 141.994 -1.82649 -0.668561 0
M  V30 1567 O 141.249 -1.24858 -1.50695 0
M  V30 1568 C 141.548 -3.34223 1.26609 0
M  V30 1569 C 141.214 -3.57555 2.74709 0
M  V30 1570 C 139.876 -3.63631 3.1516 0
M  V30 1571 C 142.228 -3.66803 3.70277 0
M  V30 1572 C 139.556 -3.76473 4.49983 0
M  V30 1573 C 141.908 -3.8117 5.04869 0
M  V30 1574 C 140.572 -3.85494 5.44932 0
M  V30 1575 H 139.842 -0.679849 0.294765 0
M  V30 1576 H 142.489 -1.3572 1.35101 0
M  V30 1577 H 140.794 -3.86536 0.640103 0
M  V30 1578 H 142.491 -3.87511 1.03132 0
M  V30 1579 H 139.081 -3.5347 2.42398 0
M  V30 1580 H 143.265 -3.61404 3.40149 0
M  V30 1581 H 138.521 -3.7808 4.80484 0
M  V30 1582 H 142.695 -3.87268 5.78789 0
M  V30 1583 H 140.322 -3.95197 6.49403 0
M  V30 1584 N 141.898 -0.863906 -1.31812 0
M  V30 1585 C 143.146 -0.470904 -1.96537 0
M  V30 1586 C 143.467 0.978771 -1.68657 0
M  V30 1587 O 142.737 1.6853 -0.998717 0
M  V30 1588 H 141.317 -0.171148 -0.72713 0
M  V30 1589 H 143.979 -1.10236 -1.60729 0
M  V30 1590 H 143.075 -0.623616 -3.05806 0
M  V30 1591 N 143.376 1.44774 -0.622745 0
M  V30 1592 C 144.324 2.32387 0.0994683 0
M  V30 1593 C 145.318 1.46859 0.844326 0
M  V30 1594 O 146.524 1.63254 0.758174 0
M  V30 1595 H 142.899 0.750273 0.0509291 0
M  V30 1596 H 144.87 2.91062 -0.65767 0
M  V30 1597 C 143.619 3.30723 1.07319 0
M  V30 1598 H 142.942 3.96541 0.509462 0
M  V30 1599 H 144.382 3.94725 1.54817 0
M  V30 1600 C 142.841 2.59021 2.15429 0
M  V30 1601 O 143.371 2.38286 3.23393 0
M  V30 1602 N 141.577 2.189 1.91131 0
M  V30 1603 H 141.124 2.35964 1.03337 0
M  V30 1604 H 141.082 1.71251 2.63668 0
M  V30 1605 N 144.854 0.36279 1.53368 0
M  V30 1606 C 146.084 -0.228281 2.05335 0
M  V30 1607 C 146.492 -1.43226 1.23625 0
M  V30 1608 O 145.835 -1.81717 0.269206 0
M  V30 1609 C 145.897 -0.688549 3.52845 0
M  V30 1610 C 145.561 0.398362 4.5526 0
M  V30 1611 C 146.558 1.24732 5.04716 0
M  V30 1612 C 144.243 0.557805 4.99193 0
M  V30 1613 C 146.237 2.2411 5.96702 0
M  V30 1614 C 143.924 1.55495 5.90986 0
M  V30 1615 C 144.922 2.39503 6.39631 0
M  V30 1616 O 144.61 3.37517 7.29615 0
M  V30 1617 H 144.342 -0.044395 0.674541 0
M  V30 1618 H 146.896 0.518668 1.98744 0
M  V30 1619 H 145.126 -1.48706 3.56964 0
M  V30 1620 H 146.815 -1.20231 3.87685 0
M  V30 1621 H 147.581 1.13532 4.71525 0
M  V30 1622 H 143.46 -0.0862959 4.60919 0
M  V30 1623 H 147.004 2.89718 6.34594 0
M  V30 1624 H 142.901 1.66744 6.23592 0
M  V30 1625 H 143.669 3.33213 7.47604 0
M  V30 1626 N 146.332 -1.57332 0.0918853 0
M  V30 1627 C 147.262 -2.16872 -0.865371 0
M  V30 1628 C 148.243 -1.10118 -1.29646 0
M  V30 1629 O 149.428 -1.38242 -1.36392 0
M  V30 1630 C 146.558 -2.74649 -2.12569 0
M  V30 1631 C 145.512 -3.86747 -1.83333 0
M  V30 1632 C 144.838 -4.31212 -3.16166 0
M  V30 1633 C 146.138 -5.10089 -1.1228 0
M  V30 1634 H 147.832 -2.97114 -0.369307 0
M  V30 1635 H 145.378 -1.42918 -0.176194 0
M  V30 1636 H 147.331 -3.14952 -2.7997 0
M  V30 1637 H 146.055 -1.91657 -2.64452 0
M  V30 1638 H 144.714 -3.46978 -1.18331 0
M  V30 1639 H 144.362 -3.45115 -3.6593 0
M  V30 1640 H 144.062 -5.06788 -2.97388 0
M  V30 1641 H 145.586 -4.74146 -3.84731 0
M  V30 1642 H 147 -5.47582 -1.69785 0
M  V30 1643 H 145.397 -5.91073 -1.03693 0
M  V30 1644 H 146.467 -4.84786 -0.105041 0
M  V30 1645 N 147.81 0.181792 -1.56548 0
M  V30 1646 C 149.05 0.906711 -1.83189 0
M  V30 1647 C 149.414 1.79882 -0.671312 0
M  V30 1648 O 150.615 2.56054 -0.81792 0
M  V30 1649 C 148.886 1.69023 -3.14906 0
M  V30 1650 S 150.445 2.46535 -3.62996 0
M  V30 1651 H 147.263 0.303877 -0.642791 0
M  V30 1652 H 149.865 0.169107 -1.94767 0
M  V30 1653 H 148.569 1.02571 -3.97376 0
M  V30 1654 H 148.1 2.46941 -3.06241 0
M  V30 1655 H 150.115 3.71014 -3.29489 0
M  V30 1656 N 149.288 1.51039 0.449983 0
M  V30 1657 C 150.235 1.71439 1.54523 0
M  V30 1658 C 151.205 0.555871 1.56522 0
M  V30 1659 O 152.39 0.788871 1.73728 0
M  V30 1660 C 149.53 1.83384 2.92343 0
M  V30 1661 C 148.643 3.10873 2.9997 0
M  V30 1662 C 147.778 3.13488 4.28834 0
M  V30 1663 C 146.817 4.35343 4.30282 0
M  V30 1664 N 145.954 4.35579 5.5065 0
M  V30 1665 H 150.794 2.64934 1.36433 0
M  V30 1666 H 148.331 1.31312 0.662982 0
M  V30 1667 H 150.289 1.88291 3.72293 0
M  V30 1668 H 148.919 0.933086 3.0902 0
M  V30 1669 H 147.971 3.15336 2.12761 0
M  V30 1670 H 149.283 4.00814 2.96901 0
M  V30 1671 H 148.437 3.17241 5.17149 0
M  V30 1672 H 147.176 2.21414 4.34543 0
M  V30 1673 H 146.181 4.3178 3.40362 0
M  V30 1674 H 147.406 5.28668 4.26248 0
M  V30 1675 H 145.352 3.46369 5.57104 0
M  V30 1676 H 145.269 5.19313 5.49409 0
M  V30 1677 H 146.537 4.43507 6.41032 0
M  V30 1678 N 150.766 -0.704594 1.40972 0
M  V30 1679 C 152.015 -1.46018 1.39146 0
M  V30 1680 C 152.328 -1.956 0.000589254 0
M  V30 1681 O 153.534 -2.71137 -0.1403 0
M  V30 1682 C 151.99 -2.63996 2.4461 0
M  V30 1683 C 151.598 -2.21238 3.89561 0
M  V30 1684 C 153.342 -3.41677 2.51907 0
M  V30 1685 C 151.249 -3.3612 4.86598 0
M  V30 1686 H 150.179 -0.548444 0.517422 0
M  V30 1687 H 152.83 -0.765784 1.66757 0
M  V30 1688 H 151.212 -3.3566 2.10115 0
M  V30 1689 H 152.386 -1.56923 4.33257 0
M  V30 1690 H 150.701 -1.56574 3.85841 0
M  V30 1691 H 153.298 -4.27182 3.2159 0
M  V30 1692 H 153.641 -3.86247 1.55303 0
M  V30 1693 H 154.174 -2.77064 2.85448 0
M  V30 1694 H 150.913 -2.96572 5.84573 0
M  V30 1695 H 150.433 -3.99315 4.47557 0
M  V30 1696 H 152.112 -4.02029 5.06934 0
M  V30 1697 N 152.244 -1.26651 -0.937939 0
M  V30 1698 C 153.207 -1.08546 -2.01867 0
M  V30 1699 C 154.207 -0.0327327 -1.60767 0
M  V30 1700 O 155.397 -0.276427 -1.71993 0
M  V30 1701 C 152.529 -0.651711 -3.34613 0
M  V30 1702 H 153.722 -2.04502 -2.1936 0
M  V30 1703 H 151.275 -1.09294 -1.11734 0
M  V30 1704 H 152.01 0.309696 -3.22818 0
M  V30 1705 H 151.795 -1.41189 -3.65798 0
M  V30 1706 H 153.285 -0.546973 -4.14002 0
M  V30 1707 N 153.722 1.14298 -1.08507 0
M  V30 1708 C 154.947 1.8976 -0.837001 0
M  V30 1709 C 155.372 1.78097 0.605228 0
M  V30 1710 O 154.73 1.12188 1.4242 0
M  V30 1711 C 154.778 3.37685 -1.26495 0
M  V30 1712 O 153.882 4.10281 -0.417514 0
M  V30 1713 H 153.223 0.590365 -0.303917 0
M  V30 1714 H 155.753 1.44672 -1.44676 0
M  V30 1715 H 155.763 3.88501 -1.24625 0
M  V30 1716 H 154.438 3.45492 -2.31534 0
M  V30 1717 H 153.015 3.69536 -0.499722 0
M  V30 1718 N 155.201 0.870884 1.31352 0
M  V30 1719 C 156.164 0.332243 2.26779 0
M  V30 1720 C 157.164 -0.517302 1.52252 0
M  V30 1721 O 158.354 -0.326477 1.71113 0
M  V30 1722 C 155.486 -0.528066 3.36785 0
M  V30 1723 H 156.679 1.17469 2.75937 0
M  V30 1724 H 154.232 0.64655 1.423 0
M  V30 1725 H 154.967 -1.39167 2.92922 0
M  V30 1726 H 154.752 0.0802582 3.92018 0
M  V30 1727 H 156.242 -0.897179 4.07849 0
M  V30 1728 N 156.679 -1.44442 0.630414 0
M  V30 1729 C 157.904 -2.06927 0.139944 0
M  V30 1730 C 158.329 -1.46795 -1.17613 0
M  V30 1731 O 157.687 -0.569144 -1.72135 0
M  V30 1732 C 157.735 -3.6058 0.0379581 0
M  V30 1733 O 156.839 -3.99937 -1.0062 0
M  V30 1734 H 156.18 -0.658608 0.0844483 0
M  V30 1735 H 158.71 -1.85327 0.866891 0
M  V30 1736 H 158.72 -4.07714 -0.152856 0
M  V30 1737 H 157.395 -4.03728 0.998809 0
M  V30 1738 H 155.972 -3.64436 -0.79001 0
M  V30 1739 N 158.157 -0.370918 -1.53173 0
M  V30 1740 C 159.403 0.217423 -2.01631 0
M  V30 1741 C 159.736 1.47983 -1.25756 0
M  V30 1742 O 159.011 1.91274 -0.352764 0
M  V30 1743 C 159.294 0.503982 -3.56556 0
M  V30 1744 C 159.147 -0.77243 -4.43118 0
M  V30 1745 C 160.466 1.30234 -4.20389 0
M  V30 1746 H 157.585 0.0775486 -0.732909 0
M  V30 1747 H 160.227 -0.496863 -1.83388 0
M  V30 1748 H 158.377 1.11248 -3.72231 0
M  V30 1749 H 160.049 -1.4098 -4.39229 0
M  V30 1750 H 158.292 -1.39167 -4.10871 0
M  V30 1751 H 158.963 -0.526815 -5.4948 0
M  V30 1752 H 161.439 0.787546 -4.08579 0
M  V30 1753 H 160.315 1.47158 -5.28806 0
M  V30 1754 H 160.576 2.31237 -3.76805 0
M  V30 1755 N 159.635 1.57281 -0.100228 0
M  V30 1756 C 160.86 1.99302 0.573881 0
M  V30 1757 C 161.285 0.979059 1.60611 0
M  V30 1758 O 160.643 -0.0517803 1.81226 0
M  V30 1759 C 160.691 3.40274 1.19358 0
M  V30 1760 O 159.795 3.41676 2.30935 0
M  V30 1761 H 159.136 0.647944 0.145138 0
M  V30 1762 H 161.666 2.03779 -0.183156 0
M  V30 1763 H 161.676 3.78078 1.53365 0
M  V30 1764 H 160.351 4.13594 0.437385 0
M  V30 1765 H 158.928 3.15672 1.98509 0
M  V30 1766 N 161.113 -0.173488 1.56642 0
M  V30 1767 C 162.36 -0.890465 1.81871 0
M  V30 1768 C 162.688 -1.82339 0.67696 0
M  V30 1769 O 161.943 -1.92795 -0.335926 0
M  V30 1770 C 162.242 -1.72069 3.13252 0
M  V30 1771 C 161.908 -0.936878 4.41059 0
M  V30 1772 C 160.57 -0.720545 4.75775 0
M  V30 1773 C 162.922 -0.386919 5.19762 0
M  V30 1774 C 160.25 0.0568829 5.86672 0
M  V30 1775 C 162.602 0.37741 6.31473 0
M  V30 1776 C 161.266 0.604563 6.64757 0
M  V30 1777 H 160.536 -0.325844 0.665512 0
M  V30 1778 H 163.183 -0.155527 1.90867 0
M  V30 1779 H 161.488 -2.52496 2.99588 0
M  V30 1780 H 163.185 -2.27844 3.29982 0
M  V30 1781 H 159.775 -1.11553 4.13828 0
M  V30 1782 H 163.959 -0.541398 4.93338 0
M  V30 1783 H 159.215 0.242635 6.10918 0
M  V30 1784 H 163.389 0.810825 6.91664 0
M  V30 1785 H 161.016 1.20885 7.50527 0
M  V30 1786 N 162.591 -1.51276 -0.441967 0
M  V30 1787 C 163.539 -1.72823 -1.55676 0
M  V30 1788 C 164.533 -0.59445 -1.58627 0
M  V30 1789 O 165.739 -0.775715 -1.62427 0
M  V30 1790 H 162.114 -0.545983 -0.517113 0
M  V30 1791 H 164.085 -2.6628 -1.34675 0
M  V30 1792 C 162.834 -1.86619 -2.93375 0
M  V30 1793 H 162.157 -2.73264 -2.91834 0
M  V30 1794 H 163.597 -2.05709 -3.70756 0
M  V30 1795 C 162.056 -0.624842 -3.31055 0
M  V30 1796 O 162.586 0.222636 -4.01083 0
M  V30 1797 N 160.792 -0.470288 -2.86769 0
M  V30 1798 H 160.339 -1.161 -2.29953 0
M  V30 1799 H 160.297 0.359051 -3.12343 0
M  V30 1800 N 164.069 0.697108 -1.41344 0
M  V30 1801 C 164.999 1.82353 -1.45841 0
M  V30 1802 C 165.98 1.67115 -0.317247 0
M  V30 1803 O 167.165 1.86871 -0.528474 0
M  V30 1804 C 164.295 3.20476 -1.33838 0
M  V30 1805 C 163.249 3.50415 -2.4575 0
M  V30 1806 C 162.575 4.87878 -2.18813 0
M  V30 1807 C 163.875 3.49546 -3.88091 0
M  V30 1808 H 165.569 1.78846 -2.40113 0
M  V30 1809 H 163.115 0.859028 -1.15571 0
M  V30 1810 H 165.068 3.98988 -1.35596 0
M  V30 1811 H 163.792 3.24604 -0.360498 0
M  V30 1812 H 162.451 2.74253 -2.43271 0
M  V30 1813 H 162.099 4.8863 -1.19371 0
M  V30 1814 H 161.799 5.08875 -2.93803 0
M  V30 1815 H 163.323 5.68702 -2.22284 0
M  V30 1816 H 164.737 4.18066 -3.92293 0
M  V30 1817 H 163.134 3.82075 -4.62751 0
M  V30 1818 H 164.204 2.48552 -4.16353 0
M  V30 1819 N 165.547 1.27147 0.931209 0
M  V30 1820 C 166.777 1.15914 1.71019 0
M  V30 1821 C 167.185 -0.287112 1.87009 0
M  V30 1822 O 166.528 -1.20761 1.38429 0
M  V30 1823 C 166.59 1.76647 3.13107 0
M  V30 1824 C 166.254 3.25807 3.20467 0
M  V30 1825 C 167.251 4.22489 3.02983 0
M  V30 1826 C 164.936 3.66452 3.43538 0
M  V30 1827 C 166.93 5.57794 3.08454 0
M  V30 1828 C 164.617 5.01888 3.48643 0
M  V30 1829 C 165.615 5.97369 3.31119 0
M  V30 1830 O 165.303 7.30337 3.35952 0
M  V30 1831 H 165.035 0.404062 0.54195 0
M  V30 1832 H 167.589 1.68457 1.17521 0
M  V30 1833 H 165.819 1.18578 3.68071 0
M  V30 1834 H 167.508 1.60179 3.72958 0
M  V30 1835 H 168.274 3.92425 2.85004 0
M  V30 1836 H 164.153 2.92611 3.5623 0
M  V30 1837 H 167.697 6.32298 2.94694 0
M  V30 1838 H 163.594 5.31609 3.66145 0
M  V30 1839 H 164.362 7.38739 3.5243 0
M  V30 1840 N 167.025 -1.13721 1.09112 0
M  V30 1841 C 167.988 -2.17222 0.731241 0
M  V30 1842 C 168.988 -1.59035 -0.237566 0
M  V30 1843 O 170.178 -1.74192 -0.0161704 0
M  V30 1844 C 167.31 -3.40804 0.0808443 0
M  V30 1845 H 168.503 -2.50573 1.64783 0
M  V30 1846 H 166.056 -1.28493 0.889897 0
M  V30 1847 H 166.791 -3.1304 -0.847127 0
M  V30 1848 H 166.576 -3.84306 0.777896 0
M  V30 1849 H 168.066 -4.1731 -0.155657 0
M  V30 1850 N 168.503 -0.877838 -1.30888 0
M  V30 1851 C 169.728 -0.506629 -2.01117 0
M  V30 1852 C 170.153 0.895564 -1.65412 0
M  V30 1853 O 169.511 1.5923 -0.866922 0
M  V30 1854 C 169.559 -0.680223 -3.54126 0
M  V30 1855 O 168.663 0.277033 -4.11468 0
M  V30 1856 H 168.004 -0.200518 -0.633 0
M  V30 1857 H 170.534 -1.18342 -1.66902 0
M  V30 1858 H 170.544 -0.5765 -4.03907 0
M  V30 1859 H 169.219 -1.70261 -3.79452 0
M  V30 1860 H 167.796 0.127606 -3.72682 0
M  V30 1861 N 169.982 1.44106 -0.638065 0
M  V30 1862 C 171.228 2.02277 -0.145546 0
M  V30 1863 C 171.561 1.50125 1.23191 0
M  V30 1864 O 170.836 0.688133 1.8192 0
M  V30 1865 C 171.119 3.59829 -0.139791 0
M  V30 1866 C 170.972 4.22247 -1.55008 0
M  V30 1867 C 172.291 4.36873 0.531966 0
M  V30 1868 H 169.41 0.734992 -0.0543632 0
M  V30 1869 H 172.052 1.71592 -0.815863 0
M  V30 1870 H 170.202 3.86102 0.431007 0
M  V30 1871 H 171.874 4.07057 -2.1703 0
M  V30 1872 H 170.117 3.79476 -2.10191 0
M  V30 1873 H 170.788 5.31284 -1.49804 0
M  V30 1874 H 173.264 4.16074 0.0464781 0
M  V30 1875 H 172.14 5.4657 0.505206 0
M  V30 1876 H 172.401 4.11995 1.60352 0
M  V30 1877 N 171.46 0.379036 1.52974 0
M  V30 1878 C 172.707 -0.206421 2.01445 0
M  V30 1879 C 173.035 -1.47668 1.26587 0
M  V30 1880 O 172.29 -1.92514 0.351675 0
M  V30 1881 C 172.589 -0.53096 3.53434 0
M  V30 1882 C 172.255 0.646546 4.46241 0
M  V30 1883 C 170.917 0.969604 4.7133 0
M  V30 1884 C 173.269 1.43479 5.01062 0
M  V30 1885 C 170.597 2.08263 5.48492 0
M  V30 1886 C 172.949 2.53834 5.7944 0
M  V30 1887 C 171.613 2.86659 6.02812 0
M  V30 1888 H 170.883 -0.0755349 0.73714 0
M  V30 1889 H 173.53 0.514271 1.84465 0
M  V30 1890 H 171.835 -1.33285 3.68432 0
M  V30 1891 H 173.532 -0.996417 3.88423 0
M  V30 1892 H 170.122 0.384734 4.2687 0
M  V30 1893 H 174.306 1.19844 4.81613 0
M  V30 1894 H 169.562 2.34078 5.64816 0
M  V30 1895 H 173.736 3.15319 6.20924 0
M  V30 1896 H 171.363 3.73026 6.62387 0
M  V30 1897 N 172.938 -1.57226 0.108567 0
M  V30 1898 C 173.868 -2.17778 -0.84232 0
M  V30 1899 C 174.849 -1.11487 -1.2847 0
M  V30 1900 O 176.034 -1.39681 -1.34918 0
M  V30 1901 C 173.164 -2.76888 -2.09644 0
M  V30 1902 C 172.118 -3.88669 -1.79221 0
M  V30 1903 C 171.444 -4.34541 -3.11574 0
M  V30 1904 C 172.744 -5.11251 -1.06864 0
M  V30 1905 H 174.438 -2.97489 -0.337774 0
M  V30 1906 H 171.984 -1.43097 -0.161025 0
M  V30 1907 H 173.937 -3.17904 -2.76614 0
M  V30 1908 H 172.661 -1.94451 -2.62405 0
M  V30 1909 H 171.32 -3.48213 -1.14644 0
M  V30 1910 H 170.968 -3.48977 -3.62249 0
M  V30 1911 H 170.668 -5.09914 -2.91996 0
M  V30 1912 H 172.192 -4.782 -3.7968 0
M  V30 1913 H 173.606 -5.49352 -1.63968 0
M  V30 1914 H 172.003 -5.9214 -0.974178 0
M  V30 1915 H 173.073 -4.8487 -0.0536168 0
M  V30 1916 N 174.416 0.165178 -1.56732 0
M  V30 1917 C 175.346 1.20651 -1.99914 0
M  V30 1918 C 176.327 1.45827 -0.875705 0
M  V30 1919 O 177.512 1.57057 -1.14223 0
M  V30 1920 C 174.642 2.54401 -2.36427 0
M  V30 1921 C 173.596 2.43782 -3.51787 0
M  V30 1922 C 172.922 3.82078 -3.7406 0
M  V30 1923 C 174.222 1.93732 -4.85041 0
M  V30 1924 H 175.916 0.847534 -2.87154 0
M  V30 1925 H 173.462 0.40625 -1.38151 0
M  V30 1926 H 175.415 3.27458 -2.65234 0
M  V30 1927 H 174.139 2.92098 -1.46103 0
M  V30 1928 H 172.798 1.73178 -3.23117 0
M  V30 1929 H 172.446 4.17179 -2.81017 0
M  V30 1930 H 172.146 3.7584 -4.51684 0
M  V30 1931 H 173.67 4.56712 -4.05274 0
M  V30 1932 H 175.084 2.56569 -5.12684 0
M  V30 1933 H 173.481 1.98428 -5.66345 0
M  V30 1934 H 174.551 0.891962 -4.76626 0
M  V30 1935 N 175.894 1.51508 0.433938 0
M  V30 1936 C 177.122 1.68157 1.20543 0
M  V30 1937 C 177.537 0.380362 1.84929 0
M  V30 1938 O 176.894 -0.641446 1.70856 0
M  V30 1939 C 176.945 2.79965 2.28696 0
M  V30 1940 O 176.666 4.05045 1.66943 0
M  V30 1941 C 178.167 3.07912 3.18912 0
M  V30 1942 H 175.387 0.56421 0.363191 0
M  V30 1943 H 177.931 1.97941 0.513754 0
M  V30 1944 H 176.086 2.5277 2.93574 0
M  V30 1945 H 176.5 4.67165 2.38448 0
M  V30 1946 H 177.974 3.89719 3.90926 0
M  V30 1947 H 178.451 2.20456 3.79863 0
M  V30 1948 H 179.057 3.36779 2.59731 0
M  V30 1949 N 177.372 -0.689602 1.41712 0
M  V30 1950 C 178.612 -1.46184 1.42862 0
M  V30 1951 C 178.976 -1.91962 0.0382204 0
M  V30 1952 O 180.177 -2.68694 -0.0755019 0
M  V30 1953 C 178.448 -2.6371 2.4123 0
M  V30 1954 S 180.007 -3.52768 2.6096 0
M  V30 1955 H 176.825 -0.49947 0.506015 0
M  V30 1956 H 179.427 -0.804107 1.78198 0
M  V30 1957 H 178.131 -2.28293 3.41044 0
M  V30 1958 H 177.662 -3.3437 2.07269 0
M  V30 1959 H 179.677 -4.59146 1.88148 0
M  V30 1960 N 178.85 -1.27639 -0.924453 0
M  V30 1961 C 179.78 -1.13166 -2.04244 0
M  V30 1962 C 180.761 -0.032256 -1.70069 0
M  V30 1963 O 181.946 -0.207328 -1.9309 0
M  V30 1964 C 179.076 -0.781496 -3.38393 0
M  V30 1965 C 178.03 -1.83449 -3.86692 0
M  V30 1966 C 177.356 -1.33822 -5.17683 0
M  V30 1967 C 178.656 -3.23917 -4.09726 0
M  V30 1968 H 180.35 -2.06689 -2.1661 0
M  V30 1969 H 177.896 -0.995136 -1.04082 0
M  V30 1970 H 179.849 -0.667057 -4.16087 0
M  V30 1971 H 178.573 0.189439 -3.2605 0
M  V30 1972 H 177.232 -1.93789 -3.11193 0
M  V30 1973 H 176.88 -0.35665 -5.01734 0
M  V30 1974 H 176.58 -2.04224 -5.50968 0
M  V30 1975 H 178.104 -1.23679 -5.97943 0
M  V30 1976 H 179.518 -3.16559 -4.77978 0
M  V30 1977 H 177.915 -3.92059 -4.54324 0
M  V30 1978 H 178.985 -3.68729 -3.14908 0
M  V30 1979 N 180.328 1.1314 -1.09713 0
M  V30 1980 C 181.553 1.88862 -0.857081 0
M  V30 1981 C 181.978 1.78729 0.586304 0
M  V30 1982 O 181.336 1.13692 1.41222 0
M  V30 1983 C 181.384 3.36325 -1.30069 0
M  V30 1984 O 180.488 4.09815 -0.461007 0
M  V30 1985 H 179.829 0.587108 -0.310162 0
M  V30 1986 H 182.359 1.43129 -1.46203 0
M  V30 1987 H 182.369 3.87157 -1.28738 0
M  V30 1988 H 181.044 3.43017 -2.35185 0
M  V30 1989 H 179.621 3.68986 -0.538888 0
M  V30 1990 N 181.806 0.884767 1.30421 0
M  V30 1991 C 183.055 0.499164 1.95426 0
M  V30 1992 C 183.368 -0.95645 1.70621 0
M  V30 1993 O 184.574 -1.44889 2.29607 0
M  V30 1994 C 183.03 0.84177 3.49917 0
M  V30 1995 C 182.638 2.31514 3.83543 0
M  V30 1996 C 184.382 0.525355 4.21237 0
M  V30 1997 C 182.289 2.59939 5.31212 0
M  V30 1998 H 181.219 0.182944 0.73147 0
M  V30 1999 H 183.87 1.07971 1.48373 0
M  V30 2000 H 182.252 0.190311 3.95542 0
M  V30 2001 H 183.426 3.0109 3.48829 0
M  V30 2002 H 181.741 2.59907 3.25326 0
M  V30 2003 H 184.338 0.714762 5.29901 0
M  V30 2004 H 184.681 -0.535222 4.12845 0
M  V30 2005 H 185.214 1.134 3.81294 0
M  V30 2006 H 181.953 3.64736 5.44654 0
M  V30 2007 H 181.473 1.94972 5.67227 0
M  V30 2008 H 183.152 2.45429 5.98643 0
M  V30 2009 N 183.284 -1.43765 0.645699 0
M  V30 2010 C 184.561 -1.9541 0.0862963 0
M  V30 2011 C 184.941 -1.58725 -1.39175 0
M  V30 2012 O 184.289 -0.868581 -2.11348 0
M  V30 2013 C 184.499 -3.47488 0.324565 0
M  V30 2014 C 185.847 -4.24001 0.225497 0
M  V30 2015 O 186.871 -3.55274 0.256715 0
M  V30 2016 O 185.73 -5.46313 0.142801 0
M  V30 2017 H 182.824 -0.826882 -0.0139483 0
M  V30 2018 H 185.37 -1.53743 0.718415 0
M  V30 2019 H 184.142 -3.67289 1.3496 0
M  V30 2020 H 183.765 -3.96135 -0.340987 0
M  V30 2021 N 184.763 -0.387143 -1.52771 0
M  V30 2022 C 186.179 -0.037007 -1.59557 0
M  V30 2023 C 186.379 1.44801 -1.40124 0
M  V30 2024 O 185.435 2.21227 -1.21716 0
M  V30 2025 C 186.748 -0.512256 -2.96305 0
M  V30 2026 C 188.296 -0.468328 -3.09476 0
M  V30 2027 C 188.771 -0.919731 -4.4867 0
M  V30 2028 N 190.262 -0.875656 -4.54848 0
M  V30 2029 C 190.997 -1.19637 -5.6078 0
M  V30 2030 N 190.493 -1.58745 -6.74368 0
M  V30 2031 N 192.286 -1.11776 -5.50874 0
M  V30 2032 H 184.437 -1.35395 -1.63652 0
M  V30 2033 H 186.7 -0.554818 -0.768688 0
M  V30 2034 H 186.406 -1.54935 -3.15734 0
M  V30 2035 H 186.28 0.089805 -3.77093 0
M  V30 2036 H 188.667 0.559671 -2.89744 0
M  V30 2037 H 188.748 -1.10616 -2.30646 0
M  V30 2038 H 188.392 -1.94595 -4.69143 0
M  V30 2039 H 188.322 -0.258927 -5.25963 0
M  V30 2040 H 190.813 -0.587843 -3.733 0
M  V30 2041 H 191.126 -1.81586 -7.51163 0
M  V30 2042 H 189.471 -1.6263 -6.75705 0
M  V30 2043 H 192.662 -0.811264 -4.61016 0
M  V30 2044 H 192.835 -1.37103 -6.3333 0
M  V30 2045 N 186.241 1.57166 -0.116904 0
M  V30 2046 C 187.471 1.99184 0.548586 0
M  V30 2047 C 187.879 0.995436 1.60897 0
M  V30 2048 O 187.222 -0.0201293 1.83689 0
M  V30 2049 C 187.284 3.37611 1.23526 0
M  V30 2050 C 186.948 4.55857 0.323077 0
M  V30 2051 C 187.945 5.18056 -0.437476 0
M  V30 2052 C 185.63 5.01751 0.234761 0
M  V30 2053 C 187.624 6.24536 -1.2741 0
M  V30 2054 C 185.311 6.08093 -0.605496 0
M  V30 2055 C 186.309 6.69352 -1.35856 0
M  V30 2056 O 185.997 7.7364 -2.18487 0
M  V30 2057 H 185.729 0.659148 0.149999 0
M  V30 2058 H 188.283 2.0443 -0.199428 0
M  V30 2059 H 186.513 3.29113 2.0303 0
M  V30 2060 H 188.202 3.63932 1.79745 0
M  V30 2061 H 188.968 4.83516 -0.379105 0
M  V30 2062 H 184.847 4.53817 0.810601 0
M  V30 2063 H 188.391 6.72281 -1.86237 0
M  V30 2064 H 184.288 6.42063 -0.665268 0
M  V30 2065 H 185.056 7.90727 -2.11406 0
M  V30 2066 N 187.719 -0.156864 1.56817 0
M  V30 2067 C 188.649 -1.19589 2.00551 0
M  V30 2068 C 189.63 -1.4536 0.883426 0
M  V30 2069 O 190.815 -1.56449 1.15054 0
M  V30 2070 C 187.945 -2.53143 2.37773 0
M  V30 2071 C 186.899 -2.41913 3.53075 0
M  V30 2072 C 186.225 -3.80088 3.76081 0
M  V30 2073 C 187.525 -1.91157 4.86062 0
M  V30 2074 H 189.219 -0.832293 2.87599 0
M  V30 2075 H 186.765 -0.398918 1.38364 0
M  V30 2076 H 188.718 -3.26047 2.66967 0
M  V30 2077 H 187.442 -2.91319 1.4765 0
M  V30 2078 H 186.101 -1.71462 3.24031 0
M  V30 2079 H 185.749 -4.15683 2.83225 0
M  V30 2080 H 185.449 -3.73439 4.53671 0
M  V30 2081 H 186.973 -4.54556 4.0769 0
M  V30 2082 H 188.387 -2.53846 5.14038 0
M  V30 2083 H 186.784 -1.95422 5.67389 0
M  V30 2084 H 187.854 -0.866673 4.77092 0
M  V30 2085 N 189.197 -1.51736 -0.425897 0
M  V30 2086 C 190.16 -1.73271 -1.50032 0
M  V30 2087 C 191.16 -0.602639 -1.4908 0
M  V30 2088 O 192.35 -0.87033 -1.509 0
M  V30 2089 C 189.482 -1.79969 -2.89523 0
M  V30 2090 H 190.675 -2.69172 -1.32237 0
M  V30 2091 H 188.228 -1.41899 -0.65532 0
M  V30 2092 H 188.963 -0.859241 -3.1271 0
M  V30 2093 H 188.748 -2.62109 -2.91619 0
M  V30 2094 H 190.238 -1.9843 -3.67444 0
M  V30 2095 N 190.675 0.682077 -1.42076 0
M  V30 2096 C 191.924 1.43786 -1.41451 0
M  V30 2097 C 192.237 1.95574 -0.0317074 0
M  V30 2098 O 193.443 2.71326 0.0971462 0
M  V30 2099 C 191.899 2.60071 -2.48779 0
M  V30 2100 C 191.507 2.15013 -3.93031 0
M  V30 2101 C 193.251 3.37626 -2.57311 0
M  V30 2102 C 191.158 3.28336 -4.91883 0
M  V30 2103 H 190.088 0.540143 -0.526082 0
M  V30 2104 H 192.739 0.739157 -1.67955 0
M  V30 2105 H 191.121 3.32275 -2.15429 0
M  V30 2106 H 192.295 1.5001 -4.35699 0
M  V30 2107 H 190.61 1.50416 -3.88284 0
M  V30 2108 H 193.207 4.22012 -3.28345 0
M  V30 2109 H 193.55 3.83727 -1.61429 0
M  V30 2110 H 194.083 2.72488 -2.89819 0
M  V30 2111 H 190.822 2.87234 -5.89217 0
M  V30 2112 H 190.342 3.92145 -4.53853 0
M  V30 2113 H 192.021 3.93913 -5.13265 0
M  V30 2114 N 192.153 1.28127 0.917671 0
M  V30 2115 C 193.399 1.15223 1.66888 0
M  V30 2116 C 193.732 -0.299293 1.9188 0
M  V30 2117 O 193.007 -1.21805 1.51637 0
M  V30 2118 C 193.29 1.94706 3.02922 0
M  V30 2119 C 193.143 3.47898 2.85109 0
M  V30 2120 C 194.462 1.75939 4.03402 0
M  V30 2121 H 191.581 0.419946 0.605652 0
M  V30 2122 H 194.223 1.57398 1.06423 0
M  V30 2123 H 192.373 1.58864 3.54534 0
M  V30 2124 H 194.045 3.93624 2.40537 0
M  V30 2125 H 192.288 3.7373 2.20246 0
M  V30 2126 H 192.959 3.98765 3.81694 0
M  V30 2127 H 195.435 2.07209 3.60837 0
M  V30 2128 H 194.311 2.33931 4.96556 0
M  V30 2129 H 194.572 0.709877 4.36364 0
M  V30 2130 N 193.631 -1.12557 1.10312 0
M  V30 2131 C 194.581 -2.16331 0.720076 0
M  V30 2132 C 195.565 -1.58616 -0.270115 0
M  V30 2133 O 196.757 -1.76823 -0.0790507 0
M  V30 2134 C 193.886 -3.42963 0.152113 0
M  V30 2135 C 192.972 -4.07663 1.16927 0
M  V30 2136 N 193.363 -4.47392 2.35953 0
M  V30 2137 C 191.661 -4.34425 1.0095 0
M  V30 2138 C 192.362 -4.97932 3.0073 0
M  V30 2139 N 191.338 -4.93358 2.28252 0
M  V30 2140 H 195.14 -2.44813 1.62616 0
M  V30 2141 H 192.654 -1.29449 0.980654 0
M  V30 2142 H 194.651 -4.16664 -0.14037 0
M  V30 2143 H 193.311 -3.1595 -0.748701 0
M  V30 2144 H 194.322 -4.39802 2.73486 0
M  V30 2145 H 190.999 -4.17177 0.164134 0
M  V30 2146 H 192.389 -5.38397 4.01969 0
M  V30 2147 N 195.109 -0.891671 -1.2995 0
M  V30 2148 C 196.52 -0.563104 -1.78006 0
M  V30 2149 C 196.871 0.920978 -1.73241 0
M  V30 2150 O 195.996 1.71987 -1.31337 0
M  V30 2151 C 196.591 -1.01539 -3.23226 0
M  V30 2152 C 195.15 -0.738124 -3.69092 0
M  V30 2153 C 194.297 -1.19461 -2.50249 0
M  V30 2154 H 197.248 -1.07522 -1.16725 0
M  V30 2155 H 197.269 -0.347217 -3.78912 0
M  V30 2156 H 196.781 -2.09555 -3.26662 0
M  V30 2157 H 194.882 0.329766 -3.71138 0
M  V30 2158 H 194.995 -1.33037 -4.60259 0
M  V30 2159 H 193.359 -0.613787 -2.47194 0
M  V30 2160 H 194.142 -2.28265 -2.56417 0
M  V30 2161 N 196.587 1.43421 -0.653314 0
M  V30 2162 C 197.52 2.2803 0.0879804 0
M  V30 2163 C 198.498 1.39833 0.82979 0
M  V30 2164 O 199.682 1.69275 0.829341 0
M  V30 2165 C 196.809 3.19247 1.13132 0
M  V30 2166 C 195.855 4.23704 0.487546 0
M  V30 2167 S 196.688 5.30377 -0.738961 0
M  V30 2168 C 197.844 6.25162 0.30384 0
M  V30 2169 H 198.077 2.90554 -0.629739 0
M  V30 2170 H 195.61 1.47934 -0.442156 0
M  V30 2171 H 197.568 3.72346 1.72827 0
M  V30 2172 H 196.229 2.55901 1.82136 0
M  V30 2173 H 195.422 4.87631 1.27407 0
M  V30 2174 H 195.024 3.73983 -0.0352915 0
M  V30 2175 H 197.316 6.67321 1.17 0
M  V30 2176 H 198.259 7.07463 -0.300402 0
M  V30 2177 H 198.667 5.60864 0.63969 0
M  V30 2178 N 198.065 0.39524 1.52563 0
M  V30 2179 C 199.012 -0.437036 2.26624 0
M  V30 2180 C 199.982 -1.05281 1.28472 0
M  V30 2181 O 201.167 -1.07971 1.57311 0
M  V30 2182 C 198.307 -1.55524 3.08069 0
M  V30 2183 C 197.42 -0.961745 4.21158 0
M  V30 2184 C 196.555 -2.05149 4.89987 0
M  V30 2185 C 195.594 -1.4342 5.95061 0
M  V30 2186 N 194.731 -2.46351 6.57462 0
M  V30 2187 H 199.571 0.200976 2.97322 0
M  V30 2188 H 197.108 0.110944 1.46681 0
M  V30 2189 H 199.066 -2.21437 3.53584 0
M  V30 2190 H 197.696 -2.16348 2.3957 0
M  V30 2191 H 196.748 -0.192048 3.79915 0
M  V30 2192 H 198.06 -0.470701 4.96574 0
M  V30 2193 H 197.214 -2.78819 5.38837 0
M  V30 2194 H 195.953 -2.57615 4.14109 0
M  V30 2195 H 194.958 -0.682774 5.45544 0
M  V30 2196 H 196.183 -0.917416 6.72875 0
M  V30 2197 H 194.129 -2.97975 5.8442 0
M  V30 2198 H 194.046 -2.02019 7.28508 0
M  V30 2199 H 195.314 -3.19633 7.10954 0
M  V30 2200 N 199.544 -1.57102 0.125237 0
M  V30 2201 C 200.769 -2.0019 -0.542101 0
M  V30 2202 C 201.194 -1.00449 -1.59034 0
M  V30 2203 O 200.552 0.0229423 -1.81285 0
M  V30 2204 C 200.6 -3.42129 -1.13929 0
M  V30 2205 O 199.704 -3.45307 -2.2547 0
M  V30 2206 H 199.045 -0.650171 -0.134812 0
M  V30 2207 H 201.575 -2.03461 0.215553 0
M  V30 2208 H 201.585 -3.80471 -1.4733 0
M  V30 2209 H 200.26 -4.14237 -0.371531 0
M  V30 2210 H 198.837 -3.1879 -1.93462 0
M  V30 2211 N 201.022 0.148545 -1.56898 0
M  V30 2212 C 202.438 0.501131 -1.51528 0
M  V30 2213 C 202.638 1.83458 -0.833399 0
M  V30 2214 O 201.694 2.49259 -0.40328 0
M  V30 2215 C 203.007 0.512864 -2.96294 0
M  V30 2216 C 204.555 0.598487 -3.07225 0
M  V30 2217 C 205.03 0.640897 -4.53494 0
M  V30 2218 N 206.521 0.703163 -4.57832 0
M  V30 2219 C 207.256 0.756935 -5.68382 0
M  V30 2220 N 206.752 0.770147 -6.88506 0
M  V30 2221 N 208.545 0.797698 -5.56411 0
M  V30 2222 H 200.696 -0.725532 -1.99624 0
M  V30 2223 H 202.959 -0.264358 -0.910395 0
M  V30 2224 H 202.665 -0.398691 -3.49433 0
M  V30 2225 H 202.539 1.35133 -3.52163 0
M  V30 2226 H 204.926 1.50046 -2.54106 0
M  V30 2227 H 205.007 -0.267093 -2.54402 0
M  V30 2228 H 204.651 -0.256915 -5.0725 0
M  V30 2229 H 204.581 1.52295 -5.04097 0
M  V30 2230 H 207.072 0.700314 -3.71354 0
M  V30 2231 H 207.385 0.812983 -7.68512 0
M  V30 2232 H 205.73 0.738049 -6.9107 0
M  V30 2233 H 208.921 0.784535 -4.61479 0
M  V30 2234 H 209.094 0.83614 -6.42583 0
M  V30 2235 N 202.5 1.5196 0.417844 0
M  V30 2236 C 203.43 1.77634 1.51554 0
M  V30 2237 C 204.411 0.626918 1.58126 0
M  V30 2238 O 205.596 0.871632 1.7354 0
M  V30 2239 C 202.726 1.91911 2.8946 0
M  V30 2240 C 201.68 3.07463 2.97743 0
M  V30 2241 C 201.006 3.06951 4.37819 0
M  V30 2242 C 202.306 4.47082 2.70027 0
M  V30 2243 H 204 2.6955 1.3032 0
M  V30 2244 H 201.546 1.29706 0.625492 0
M  V30 2245 H 203.499 2.08455 3.6623 0
M  V30 2246 H 202.223 0.966598 3.11969 0
M  V30 2247 H 200.882 2.90656 2.23416 0
M  V30 2248 H 200.53 2.09438 4.57323 0
M  V30 2249 H 200.23 3.84556 4.44286 0
M  V30 2250 H 201.754 3.25613 5.16535 0
M  V30 2251 H 203.168 4.6414 3.36522 0
M  V30 2252 H 201.565 5.2654 2.87881 0
M  V30 2253 H 202.635 4.55777 1.65514 0
M  V30 2254 N 203.978 -0.674533 1.42435 0
M  V30 2255 C 205.394 -0.98769 1.25367 0
M  V30 2256 C 205.594 -2.00879 0.158044 0
M  V30 2257 O 204.65 -2.48075 -0.470633 0
M  V30 2258 C 205.963 -1.49224 2.6106 0
M  V30 2259 C 207.511 -1.61 2.68417 0
M  V30 2260 C 207.986 -2.14852 4.04478 0
M  V30 2261 N 209.477 -2.22185 4.06434 0
M  V30 2262 C 210.212 -2.64928 5.08528 0
M  V30 2263 N 209.708 -3.07121 6.21006 0
M  V30 2264 N 211.501 -2.64679 4.95885 0
M  V30 2265 H 203.652 0.00152503 2.124 0
M  V30 2266 H 205.915 -0.0618434 0.945981 0
M  V30 2267 H 205.621 -0.816453 3.42092 0
M  V30 2268 H 205.495 -2.47094 2.84999 0
M  V30 2269 H 207.882 -2.27686 1.87732 0
M  V30 2270 H 207.963 -0.616195 2.48267 0
M  V30 2271 H 207.607 -1.48775 4.85622 0
M  V30 2272 H 207.537 -3.15024 4.2198 0
M  V30 2273 H 210.028 -1.92435 3.25234 0
M  V30 2274 H 210.341 -3.38423 6.94759 0
M  V30 2275 H 208.686 -3.04978 6.24511 0
M  V30 2276 H 211.877 -2.31078 4.07088 0
M  V30 2277 H 212.05 -2.9767 5.75584 0
M  V30 2278 N 205.456 -1.28612 -0.910864 0
M  V30 2279 C 206.872 -1.06381 -1.18976 0
M  V30 2280 C 207.072 0.191998 -2.00583 0
M  V30 2281 O 206.128 0.892869 -2.36187 0
M  V30 2282 C 207.441 -2.31295 -1.92154 0
M  V30 2283 C 208.989 -2.36503 -2.05025 0
M  V30 2284 C 209.464 -3.61191 -2.81612 0
M  V30 2285 N 210.955 -3.61847 -2.89172 0
M  V30 2286 C 211.69 -4.55004 -3.4894 0
M  V30 2287 N 211.186 -5.58482 -4.09963 0
M  V30 2288 N 212.979 -4.42594 -3.46506 0
M  V30 2289 H 205.13 -2.09221 -0.366094 0
M  V30 2290 H 207.393 -0.921003 -0.224629 0
M  V30 2291 H 207.099 -3.228 -1.39618 0
M  V30 2292 H 206.973 -2.37934 -2.9269 0
M  V30 2293 H 209.36 -1.45494 -2.5674 0
M  V30 2294 H 209.441 -2.33857 -1.03657 0
M  V30 2295 H 209.085 -4.52545 -2.30576 0
M  V30 2296 H 209.015 -3.61092 -3.83302 0
M  V30 2297 H 211.506 -2.87022 -2.45819 0
M  V30 2298 H 211.819 -6.25704 -4.53557 0
M  V30 2299 H 210.164 -5.62305 -4.08459 0
M  V30 2300 H 213.355 -3.60953 -2.98045 0
M  V30 2301 H 213.528 -5.15381 -3.92793 0
M  V30 2302 N 206.934 1.1197 -1.10907 0
M  V30 2303 C 208.162 1.87402 -0.876824 0
M  V30 2304 C 208.577 1.79894 0.573025 0
M  V30 2305 O 207.934 1.17629 1.39534 0
M  V30 2306 C 207.985 3.36428 -1.32282 0
M  V30 2307 O 207.706 3.43765 -2.71582 0
M  V30 2308 C 209.207 4.28783 -1.12518 0
M  V30 2309 H 206.427 0.592793 -0.314384 0
M  V30 2310 H 208.971 1.41649 -1.47499 0
M  V30 2311 H 207.126 3.79706 -0.768229 0
M  V30 2312 H 207.54 4.3652 -2.90776 0
M  V30 2313 H 209.014 5.31613 -1.48633 0
M  V30 2314 H 209.491 4.39153 -0.0642394 0
M  V30 2315 H 210.097 3.91291 -1.66648 0
M  V30 2316 N 208.412 0.89855 1.29475 0
M  V30 2317 C 209.345 0.319981 2.25945 0
M  V30 2318 C 210.323 -0.567189 1.52387 0
M  V30 2319 O 211.507 -0.514254 1.8135 0
M  V30 2320 C 208.634 -0.544013 3.34303 0
M  V30 2321 C 207.68 0.275682 4.25608 0
M  V30 2322 S 208.513 1.67272 5.08704 0
M  V30 2323 C 209.669 0.815621 6.20563 0
M  V30 2324 H 209.902 1.13767 2.74671 0
M  V30 2325 H 207.435 0.69882 1.3768 0
M  V30 2326 H 209.393 -1.03673 3.97193 0
M  V30 2327 H 208.054 -1.33593 2.84274 0
M  V30 2328 H 207.247 -0.384263 5.02533 0
M  V30 2329 H 206.849 0.701496 3.67362 0
M  V30 2330 H 209.141 0.0385042 6.77489 0
M  V30 2331 H 210.084 1.55691 6.90772 0
M  V30 2332 H 210.492 0.370516 5.63283 0
M  V30 2333 N 209.89 -1.43072 0.660911 0
M  V30 2334 C 210.82 -2.33497 -0.0122829 0
M  V30 2335 C 211.801 -1.49903 -0.803925 0
M  V30 2336 O 212.986 -1.78546 -0.763864 0
M  V30 2337 C 210.116 -3.33363 -0.973994 0
M  V30 2338 C 209.07 -4.27003 -0.291928 0
M  V30 2339 C 208.396 -5.16967 -1.36562 0
M  V30 2340 C 209.696 -5.15816 0.820462 0
M  V30 2341 H 211.39 -2.90038 0.742873 0
M  V30 2342 H 208.936 -1.39461 0.358688 0
M  V30 2343 H 210.889 -3.95524 -1.45392 0
M  V30 2344 H 209.613 -2.75095 -1.7604 0
M  V30 2345 H 208.272 -3.66217 0.167623 0
M  V30 2346 H 207.92 -4.55034 -2.14366 0
M  V30 2347 H 207.62 -5.80441 -0.914454 0
M  V30 2348 H 209.144 -5.82003 -1.84675 0
M  V30 2349 H 210.558 -5.71742 0.422366 0
M  V30 2350 H 208.955 -5.8805 1.19656 0
M  V30 2351 H 210.025 -4.55045 1.67518 0
M  V30 2352 N 211.368 -0.403325 -1.52352 0
M  V30 2353 C 212.614 0.174605 -2.02047 0
M  V30 2354 C 212.947 1.45282 -1.28867 0
M  V30 2355 O 212.222 1.90483 -0.393257 0
M  V30 2356 C 212.505 0.428238 -3.57545 0
M  V30 2357 C 212.358 -0.866248 -4.4138 0
M  V30 2358 C 213.677 1.21287 -4.23057 0
M  V30 2359 H 210.796 0.0619851 -0.734389 0
M  V30 2360 H 213.438 -0.53565 -1.82293 0
M  V30 2361 H 211.588 1.03327 -3.74507 0
M  V30 2362 H 213.26 -1.50265 -4.3614 0
M  V30 2363 H 211.503 -1.47851 -4.07827 0
M  V30 2364 H 212.174 -0.643249 -5.48239 0
M  V30 2365 H 214.65 0.700703 -4.10158 0
M  V30 2366 H 213.526 1.35909 -5.31808 0
M  V30 2367 H 213.787 2.23193 -3.81625 0
M  V30 2368 N 212.846 1.57033 -0.133567 0
M  V30 2369 C 213.809 2.14897 0.796995 0
M  V30 2370 C 214.809 1.0874 1.18458 0
M  V30 2371 O 215.999 1.34446 1.1077 0
M  V30 2372 C 213.131 2.70112 2.07973 0
M  V30 2373 H 214.324 2.98457 0.293873 0
M  V30 2374 H 211.877 1.55871 0.115787 0
M  V30 2375 H 212.612 1.9018 2.62682 0
M  V30 2376 H 212.397 3.47764 1.81115 0
M  V30 2377 H 213.887 3.14738 2.74462 0
M  V30 2378 N 214.325 -0.140222 1.56975 0
M  V30 2379 C 215.272 -1.17292 1.98774 0
M  V30 2380 C 216.242 -1.4232 0.856408 0
M  V30 2381 O 217.427 -1.54541 1.119 0
M  V30 2382 C 214.567 -2.49973 2.37923 0
M  V30 2383 C 213.68 -2.32062 3.64378 0
M  V30 2384 C 212.815 -3.57825 3.926 0
M  V30 2385 C 211.854 -3.3498 5.12303 0
M  V30 2386 N 210.991 -4.52891 5.36502 0
M  V30 2387 H 215.831 -0.809472 2.86795 0
M  V30 2388 H 213.368 -0.388237 1.41884 0
M  V30 2389 H 215.326 -3.27346 2.58652 0
M  V30 2390 H 213.956 -2.84252 1.52972 0
M  V30 2391 H 213.008 -1.45711 3.51387 0
M  V30 2392 H 214.32 -2.11145 4.51906 0
M  V30 2393 H 213.474 -4.43624 4.13863 0
M  V30 2394 H 212.213 -3.81753 3.03506 0
M  V30 2395 H 211.218 -2.4757 4.90906 0
M  V30 2396 H 212.443 -3.12444 6.02956 0
M  V30 2397 H 210.389 -4.76979 4.50363 0
M  V30 2398 H 210.306 -4.35001 6.18312 0
M  V30 2399 H 211.574 -5.39884 5.62268 0
M  V30 2400 N 215.803 -1.52179 -0.40978 0
M  V30 2401 C 217.049 -1.66453 -1.15851 0
M  V30 2402 C 217.382 -0.392972 -1.90182 0
M  V30 2403 O 216.657 0.608579 -1.84734 0
M  V30 2404 C 216.94 -2.88612 -2.15349 0
M  V30 2405 C 216.793 -4.25815 -1.44918 0
M  V30 2406 C 218.112 -3.06294 -3.16026 0
M  V30 2407 H 215.231 -0.60575 -0.419805 0
M  V30 2408 H 217.873 -1.84732 -0.444314 0
M  V30 2409 H 216.023 -2.73158 -2.76255 0
M  V30 2410 H 217.695 -4.52995 -0.871365 0
M  V30 2411 H 215.938 -4.27247 -0.751159 0
M  V30 2412 H 216.609 -5.07337 -2.17516 0
M  V30 2413 H 219.085 -3.20641 -2.65195 0
M  V30 2414 H 217.961 -3.93283 -3.8291 0
M  V30 2415 H 218.222 -2.19579 -3.83715 0
M  V30 2416 N 217.281 0.66697 -1.42791 0
M  V30 2417 C 218.509 1.45505 -1.47091 0
M  V30 2418 C 218.924 1.8861 -0.0845873 0
M  V30 2419 O 218.281 1.58632 0.90234 0
M  V30 2420 C 218.332 2.69906 -2.40485 0
M  V30 2421 O 218.053 2.28608 -3.73725 0
M  V30 2422 C 219.554 3.63396 -2.53886 0
M  V30 2423 H 216.774 0.447459 -0.500022 0
M  V30 2424 H 219.318 0.818866 -1.8739 0
M  V30 2425 H 217.473 3.29696 -2.03419 0
M  V30 2426 H 217.887 3.08997 -4.23817 0
M  V30 2427 H 219.361 4.47387 -3.2334 0
M  V30 2428 H 219.838 4.09824 -1.57927 0
M  V30 2429 H 220.444 3.09495 -2.91706 0
M  V30 2430 N 218.759 1.29093 0.90403 0
M  V30 2431 C 219.999 1.18076 1.66845 0
M  V30 2432 C 220.363 -0.26436 1.90171 0
M  V30 2433 O 221.564 -0.497423 2.64157 0
M  V30 2434 C 219.835 1.96722 2.98388 0
M  V30 2435 S 221.394 2.0219 3.89441 0
M  V30 2436 H 218.212 0.421104 0.572881 0
M  V30 2437 H 220.814 1.63322 1.07453 0
M  V30 2438 H 219.518 3.00866 2.7912 0
M  V30 2439 H 219.049 1.52064 3.62823 0
M  V30 2440 H 221.064 1.13545 4.83034 0
M  V30 2441 N 220.237 -1.11381 1.11499 0
M  V30 2442 C 221.486 -1.82494 0.858993 0
M  V30 2443 C 221.799 -1.85605 -0.617278 0
M  V30 2444 O 223.005 -2.52824 -0.989552 0
M  V30 2445 C 221.461 -3.27745 1.48699 0
M  V30 2446 C 221.069 -3.32961 2.99735 0
M  V30 2447 C 222.813 -4.03754 1.31085 0
M  V30 2448 C 220.72 -4.72612 3.55516 0
M  V30 2449 H 219.65 -0.683802 0.317696 0
M  V30 2450 H 222.301 -1.25331 1.34031 0
M  V30 2451 H 220.683 -3.84844 0.933339 0
M  V30 2452 H 221.857 -2.85741 3.61509 0
M  V30 2453 H 220.172 -2.70433 3.16631 0
M  V30 2454 H 222.769 -5.06891 1.70192 0
M  V30 2455 H 223.112 -4.15527 0.253496 0
M  V30 2456 H 223.645 -3.53043 1.83318 0
M  V30 2457 H 220.384 -4.66036 4.60967 0
M  V30 2458 H 219.904 -5.2024 2.98513 0
M  V30 2459 H 221.583 -5.4157 3.53992 0
M  V30 2460 N 221.715 -0.905404 -1.28997 0
M  V30 2461 C 222.964 -0.530191 -1.94607 0
M  V30 2462 C 223.277 0.929185 -1.72121 0
M  V30 2463 O 224.483 1.41218 -2.31883 0
M  V30 2464 C 222.939 -0.897333 -3.48534 0
M  V30 2465 C 222.547 -2.37587 -3.79811 0
M  V30 2466 C 224.291 -0.592304 -4.20347 0
M  V30 2467 C 222.198 -2.68357 -5.27009 0
M  V30 2468 H 221.128 -0.194558 -0.728466 0
M  V30 2469 H 223.779 -1.10318 -1.46636 0
M  V30 2470 H 222.161 -0.253214 -3.9519 0
M  V30 2471 H 223.335 -3.06602 -3.43994 0
M  V30 2472 H 221.65 -2.6505 -3.2115 0
M  V30 2473 H 224.247 -0.798975 -5.28697 0
M  V30 2474 H 224.59 0.469474 -4.13644 0
M  V30 2475 H 225.123 -1.19452 -3.79442 0
M  V30 2476 H 221.862 -3.73355 -5.38782 0
M  V30 2477 H 221.382 -2.03971 -5.64053 0
M  V30 2478 H 223.061 -2.54922 -5.94663 0
M  V30 2479 N 223.193 1.4272 -0.668489 0
M  V30 2480 C 224.442 2.00846 -0.185389 0
M  V30 2481 C 224.755 1.53442 1.21305 0
M  V30 2482 O 225.961 2.03944 1.79218 0
M  V30 2483 C 224.417 3.58805 -0.280591 0
M  V30 2484 C 224.025 4.15198 -1.68268 0
M  V30 2485 C 225.769 4.24255 0.14412 0
M  V30 2486 C 223.676 5.655 -1.73099 0
M  V30 2487 H 222.606 0.751145 -0.0655475 0
M  V30 2488 H 225.257 1.63516 -0.832752 0
M  V30 2489 H 223.639 3.93608 0.434553 0
M  V30 2490 H 224.813 3.91866 -2.42441 0
M  V30 2491 H 223.128 3.62176 -2.05469 0
M  V30 2492 H 225.725 5.34547 0.128086 0
M  V30 2493 H 226.068 3.99277 1.17827 0
M  V30 2494 H 226.601 3.94389 -0.519798 0
M  V30 2495 H 223.34 5.95268 -2.74475 0
M  V30 2496 H 222.86 5.90842 -1.03274 0
M  V30 2497 H 224.539 6.29808 -1.48158 0
M  V30 2498 N 224.671 0.411399 1.52136 0
M  V30 2499 C 225.917 -0.156262 2.02799 0
M  V30 2500 C 226.272 -1.42613 1.29149 0
M  V30 2501 O 225.565 -1.87592 0.389839 0
M  V30 2502 C 225.759 -0.455872 3.54481 0
M  V30 2503 C 225.588 0.783404 4.42824 0
M  V30 2504 C 224.358 1.30928 4.88043 0
M  V30 2505 C 226.556 1.66217 4.86699 0
M  V30 2506 N 224.538 2.5038 5.6052 0
M  V30 2507 C 225.909 2.70292 5.5798 0
M  V30 2508 C 227.964 1.67966 4.68713 0
M  V30 2509 C 226.667 3.7603 6.13184 0
M  V30 2510 C 228.693 2.72624 5.24815 0
M  V30 2511 C 228.055 3.7542 5.9602 0
M  V30 2512 H 224.154 -0.0186886 0.781777 0
M  V30 2513 H 226.738 0.566255 1.86284 0
M  V30 2514 H 224.909 -1.14743 3.71064 0
M  V30 2515 H 226.641 -1.01261 3.91827 0
M  V30 2516 H 223.396 0.866977 4.65597 0
M  V30 2517 H 223.82 3.10881 6.014 0
M  V30 2518 H 228.462 0.898312 4.13147 0
M  V30 2519 H 226.18 4.55019 6.6782 0
M  V30 2520 H 229.766 2.74887 5.12765 0
M  V30 2521 H 228.646 4.55073 6.38654 0
M  V30 2522 N 226.149 -1.5696 0.141893 0
M  V30 2523 C 227.079 -2.19516 -0.795936 0
M  V30 2524 C 228.06 -1.14187 -1.26077 0
M  V30 2525 O 229.245 -1.42511 -1.31925 0
M  V30 2526 C 226.375 -2.81272 -2.03723 0
M  V30 2527 C 225.329 -3.92384 -1.70936 0
M  V30 2528 C 224.655 -4.41052 -3.02287 0
M  V30 2529 C 225.955 -5.13403 -0.959954 0
M  V30 2530 H 227.649 -2.98138 -0.274596 0
M  V30 2531 H 225.195 -1.43406 -0.130636 0
M  V30 2532 H 227.148 -3.237 -2.69808 0
M  V30 2533 H 225.872 -1.99973 -2.58221 0
M  V30 2534 H 224.531 -3.50566 -1.07232 0
M  V30 2535 H 224.179 -3.56582 -3.54765 0
M  V30 2536 H 223.879 -5.15993 -2.81114 0
M  V30 2537 H 225.403 -4.86146 -3.69451 0
M  V30 2538 H 226.817 -5.52706 -1.52279 0
M  V30 2539 H 225.214 -5.94073 -0.848357 0
M  V30 2540 H 226.284 -4.84875 0.0492434 0
M  V30 2541 N 227.627 0.131896 -1.57047 0
M  V30 2542 C 228.557 1.16384 -2.02428 0
M  V30 2543 C 229.538 1.43936 -0.90644 0
M  V30 2544 O 230.723 1.54599 -1.17528 0
M  V30 2545 C 227.853 2.49328 -2.4177 0
M  V30 2546 C 226.807 2.36266 -3.56879 0
M  V30 2547 C 226.133 3.74057 -3.8208 0
M  V30 2548 C 227.433 1.834 -4.89042 0
M  V30 2549 H 229.127 0.786433 -2.88887 0
M  V30 2550 H 226.673 0.376855 -1.38981 0
M  V30 2551 H 228.626 3.21759 -2.7212 0
M  V30 2552 H 227.35 2.88934 -1.52266 0
M  V30 2553 H 226.009 1.66286 -3.26718 0
M  V30 2554 H 225.657 4.11125 -2.89803 0
M  V30 2555 H 225.357 3.66174 -4.59554 0
M  V30 2556 H 226.881 4.48012 -4.1487 0
M  V30 2557 H 228.295 2.45636 -5.18011 0
M  V30 2558 H 226.692 1.8637 -5.70426 0
M  V30 2559 H 227.762 0.790662 -4.7841 0
M  V30 2560 N 229.106 1.52395 0.401703 0
M  V30 2561 C 230.069 1.75636 1.47257 0
M  V30 2562 C 231.069 0.62628 1.48103 0
M  V30 2563 O 232.259 0.894227 1.49497 0
M  V30 2564 C 229.391 1.84553 2.86624 0
M  V30 2565 H 230.584 2.71241 1.27938 0
M  V30 2566 H 228.137 1.42923 0.632662 0
M  V30 2567 H 228.872 0.908882 3.11303 0
M  V30 2568 H 228.657 2.66715 2.87412 0
M  V30 2569 H 230.147 2.04251 3.64241 0
M  V30 2570 N 230.584 -0.659388 1.43143 0
M  V30 2571 C 231.832 -1.41654 1.44147 0
M  V30 2572 C 232.153 -1.94893 0.0645739 0
M  V30 2573 O 231.423 -1.74044 -0.899198 0
M  V30 2574 H 230.003 -0.525708 0.530697 0
M  V30 2575 H 232.665 -0.778097 1.78694 0
M  V30 2576 H 231.761 -2.26195 2.1504 0
M  V30 2577 N 232.062 -1.29571 -0.897171 0
M  V30 2578 C 232.992 -1.17473 -2.01798 0
M  V30 2579 C 233.973 -0.068323 -1.69963 0
M  V30 2580 O 235.158 -0.248239 -1.92607 0
M  V30 2581 C 232.288 -0.853099 -3.36659 0
M  V30 2582 C 231.242 -1.9161 -3.82713 0
M  V30 2583 C 230.568 -1.44773 -5.14728 0
M  V30 2584 C 231.868 -3.32535 -4.02763 0
M  V30 2585 H 233.562 -2.11237 -2.12177 0
M  V30 2586 H 231.108 -1.01699 -1.01948 0
M  V30 2587 H 233.061 -0.755165 -4.14578 0
M  V30 2588 H 231.785 0.120236 -3.26379 0
M  V30 2589 H 230.444 -2.00346 -3.07013 0
M  V30 2590 H 230.092 -0.462995 -5.00865 0
M  V30 2591 H 229.792 -2.15865 -5.46513 0
M  V30 2592 H 231.316 -1.36334 -5.95185 0
M  V30 2593 H 232.73 -3.26626 -4.71156 0
M  V30 2594 H 231.127 -4.01607 -4.45905 0
M  V30 2595 H 232.197 -3.75326 -3.07016 0
M  V30 2596 N 233.54 1.10788 -1.12088 0
M  V30 2597 C 234.503 2.15207 -0.788577 0
M  V30 2598 C 235.503 1.59609 0.195317 0
M  V30 2599 O 236.693 1.74174 -0.0300193 0
M  V30 2600 C 233.825 3.4047 -0.171174 0
M  V30 2601 H 235.018 2.46116 -1.71368 0
M  V30 2602 H 232.571 1.26089 -0.923652 0
M  V30 2603 H 233.306 3.15176 0.763832 0
M  V30 2604 H 233.091 3.82109 -0.879514 0
M  V30 2605 H 234.581 4.17576 0.04496 0
M  V30 2606 N 235.018 0.912232 1.28515 0
M  V30 2607 C 236.243 0.559774 1.99703 0
M  V30 2608 C 236.668 -0.851393 1.67729 0
M  V30 2609 O 236.026 -1.56875 0.908834 0
M  V30 2610 C 236.074 0.773874 3.52198 0
M  V30 2611 O 235.178 -0.167842 4.12058 0
M  V30 2612 H 234.519 0.21723 0.627461 0
M  V30 2613 H 237.049 1.22725 1.63706 0
M  V30 2614 H 237.059 0.683386 4.02236 0
M  V30 2615 H 235.734 1.80261 3.74805 0
M  V30 2616 H 234.311 -0.0287509 3.72889 0
M  V30 2617 N 236.496 -1.42363 0.676048 0
M  V30 2618 C 237.426 -2.33497 0.0124832 0
M  V30 2619 C 238.407 -1.50748 -0.787981 0
M  V30 2620 O 239.592 -1.79346 -0.744884 0
M  V30 2621 C 236.722 -3.34377 -0.938582 0
M  V30 2622 C 235.676 -4.27289 -0.246622 0
M  V30 2623 C 235.002 -5.18386 -1.31071 0
M  V30 2624 C 236.302 -5.14916 0.875125 0
M  V30 2625 H 237.996 -2.89233 0.773593 0
M  V30 2626 H 235.542 -1.39073 0.37346 0
M  V30 2627 H 237.495 -3.97044 -1.41188 0
M  V30 2628 H 236.219 -2.76947 -1.73113 0
M  V30 2629 H 234.878 -3.66018 0.206456 0
M  V30 2630 H 234.526 -4.57282 -2.09528 0
M  V30 2631 H 234.226 -5.81378 -0.852839 0
M  V30 2632 H 235.75 -5.83929 -1.78492 0
M  V30 2633 H 237.164 -5.71262 0.482983 0
M  V30 2634 H 235.561 -5.86747 1.25887 0
M  V30 2635 H 236.631 -4.53242 1.72335 0
M  V30 2636 N 237.974 -0.419461 -1.51915 0
M  V30 2637 C 239.385 0.0477853 -1.86639 0
M  V30 2638 C 239.736 1.43531 -1.33766 0
M  V30 2639 O 238.861 2.05401 -0.68113 0
M  V30 2640 C 239.456 0.0934885 -3.38671 0
M  V30 2641 C 238.015 0.505097 -3.72996 0
M  V30 2642 C 237.162 -0.313792 -2.75519 0
M  V30 2643 H 240.113 -0.636088 -1.45395 0
M  V30 2644 H 240.134 0.906667 -3.6954 0
M  V30 2645 H 239.646 -0.916501 -3.77123 0
M  V30 2646 H 237.747 1.52135 -3.40126 0
M  V30 2647 H 237.86 0.242309 -4.78487 0
M  V30 2648 H 236.224 0.225363 -2.53701 0
M  V30 2649 H 237.007 -1.32232 -3.16812 0
M  V30 2650 N 239.452 1.56882 -0.150215 0
M  V30 2651 C 240.415 2.1573 0.774157 0
M  V30 2652 C 241.415 1.0999 1.17298 0
M  V30 2653 O 242.605 1.35613 1.09338 0
M  V30 2654 C 239.737 2.72302 2.05096 0
M  V30 2655 H 240.93 2.98752 0.262201 0
M  V30 2656 H 238.483 1.55985 0.099248 0
M  V30 2657 H 239.218 1.92956 2.6065 0
M  V30 2658 H 239.003 3.49665 1.77416 0
M  V30 2659 H 240.493 3.17632 2.71109 0
M  V30 2660 N 240.93 -0.123565 1.57115 0
M  V30 2661 C 242.179 -0.830704 1.83799 0
M  V30 2662 C 242.492 -1.81259 0.735158 0
M  V30 2663 O 243.698 -2.56558 0.888278 0
M  V30 2664 C 242.154 -1.52802 3.25852 0
M  V30 2665 C 241.762 -0.587356 4.44133 0
M  V30 2666 C 243.506 -2.22056 3.61789 0
M  V30 2667 C 241.413 -1.28764 5.77212 0
M  V30 2668 H 240.343 -0.313967 0.685522 0
M  V30 2669 H 242.994 -0.0834359 1.8331 0
M  V30 2670 H 241.376 -2.32175 3.20797 0
M  V30 2671 H 242.55 0.172829 4.60476 0
M  V30 2672 H 240.865 -0.00201892 4.164 0
M  V30 2673 H 243.462 -2.75131 4.58483 0
M  V30 2674 H 243.805 -2.99644 2.88997 0
M  V30 2675 H 244.338 -1.49576 3.68608 0
M  V30 2676 H 241.077 -0.55314 6.53162 0
M  V30 2677 H 240.597 -2.01995 5.64764 0
M  V30 2678 H 242.276 -1.8221 6.20813 0
M  V30 2679 N 242.408 -1.52605 -0.393616 0
M  V30 2680 C 243.657 -1.66649 -1.13627 0
M  V30 2681 C 243.97 -0.410364 -1.91247 0
M  V30 2682 O 245.176 -0.430854 -2.68059 0
M  V30 2683 C 243.632 -2.9449 -2.06891 0
M  V30 2684 C 243.24 -4.27266 -1.34714 0
M  V30 2685 C 244.984 -3.17899 -2.81319 0
M  V30 2686 C 242.891 -5.46217 -2.26717 0
M  V30 2687 H 241.821 -0.62084 -0.427871 0
M  V30 2688 H 244.472 -1.791 -0.399428 0
M  V30 2689 H 242.854 -2.75774 -2.84191 0
M  V30 2690 H 244.028 -4.56518 -0.626714 0
M  V30 2691 H 242.343 -4.10081 -0.722643 0
M  V30 2692 H 244.94 -4.03949 -3.50328 0
M  V30 2693 H 245.283 -2.32777 -3.45139 0
M  V30 2694 H 245.816 -3.37159 -2.11113 0
M  V30 2695 H 242.555 -6.33733 -1.67521 0
M  V30 2696 H 242.075 -5.21283 -2.96689 0
M  V30 2697 H 243.754 -5.7991 -2.86903 0
M  V30 2698 N 243.887 0.651787 -1.4349 0
M  V30 2699 C 244.837 1.75783 -1.45205 0
M  V30 2700 C 245.821 1.57679 -0.320328 0
M  V30 2701 O 247.013 1.67767 -0.564211 0
M  V30 2702 C 244.142 3.14377 -1.3792 0
M  V30 2703 C 243.228 3.38023 -2.56127 0
M  V30 2704 N 243.619 3.32135 -3.81471 0
M  V30 2705 C 241.917 3.68747 -2.50882 0
M  V30 2706 C 242.618 3.55902 -4.60118 0
M  V30 2707 N 241.594 3.77783 -3.90872 0
M  V30 2708 H 245.396 1.69657 -2.39987 0
M  V30 2709 H 242.91 0.853508 -1.38163 0
M  V30 2710 H 244.907 3.93666 -1.37231 0
M  V30 2711 H 243.567 3.21683 -0.441596 0
M  V30 2712 H 244.578 3.11515 -4.13738 0
M  V30 2713 H 241.255 3.8316 -1.65816 0
M  V30 2714 H 242.645 3.57116 -5.69138 0
M  V30 2715 N 245.365 1.30045 0.890287 0
M  V30 2716 C 246.781 1.08261 1.17268 0
M  V30 2717 C 246.981 -0.160063 2.00863 0
M  V30 2718 O 246.037 -0.855181 2.37577 0
M  V30 2719 C 247.35 2.34323 1.8845 0
M  V30 2720 C 248.898 2.39735 2.01237 0
M  V30 2721 C 249.373 3.65625 2.7583 0
M  V30 2722 N 250.864 3.66402 2.83379 0
M  V30 2723 C 251.599 4.60498 3.41657 0
M  V30 2724 N 251.095 5.64933 4.01026 0
M  V30 2725 N 252.888 4.48051 3.39421 0
M  V30 2726 H 245.039 2.09777 0.332762 0
M  V30 2727 H 247.302 0.92446 0.209948 0
M  V30 2728 H 247.008 3.2498 1.34465 0
M  V30 2729 H 246.882 2.4256 2.88867 0
M  V30 2730 H 249.269 1.4956 2.54393 0
M  V30 2731 H 249.35 2.35476 0.999232 0
M  V30 2732 H 248.994 4.56156 2.23347 0
M  V30 2733 H 248.924 3.67144 3.77509 0
M  V30 2734 H 251.415 2.90896 2.41222 0
M  V30 2735 H 251.728 6.32841 4.43545 0
M  V30 2736 H 250.073 5.68732 3.99461 0
M  V30 2737 H 253.264 3.65649 2.92264 0
M  V30 2738 H 253.437 5.21565 3.84544 0
M  V30 2739 N 246.843 -1.10192 1.12674 0
M  V30 2740 C 247.791 -2.18694 0.792196 0
M  V30 2741 C 248.785 -1.67938 -0.222058 0
M  V30 2742 O 249.991 -1.79822 -0.0800074 0
M  V30 2743 H 246.366 -0.713223 0.238364 0
M  V30 2744 H 248.337 -2.44149 1.71564 0
M  V30 2745 C 247.086 -3.46682 0.265859 0
M  V30 2746 H 246.409 -3.86101 1.03761 0
M  V30 2747 H 247.849 -4.23942 0.0701128 0
M  V30 2748 C 246.308 -3.21506 -1.00675 0
M  V30 2749 O 246.838 -3.43408 -2.08408 0
M  V30 2750 N 245.044 -2.75158 -0.934692 0
M  V30 2751 H 244.591 -2.57535 -0.0578604 0
M  V30 2752 H 244.549 -2.58691 -1.7868 0
M  V30 2753 N 248.321 -0.919034 -1.28029 0
M  V30 2754 C 249.567 -0.555757 -1.95036 0
M  V30 2755 C 249.9 0.899198 -1.72128 0
M  V30 2756 O 249.175 1.64023 -1.04531 0
M  V30 2757 C 249.458 -0.872024 -3.49382 0
M  V30 2758 C 249.311 -2.3801 -3.81669 0
M  V30 2759 C 250.63 -0.37185 -4.38526 0
M  V30 2760 H 247.749 -0.203386 -0.708381 0
M  V30 2761 H 250.391 -1.14924 -1.51303 0
M  V30 2762 H 248.541 -0.366946 -3.86763 0
M  V30 2763 H 250.213 -2.9562 -3.54128 0
M  V30 2764 H 248.456 -2.83289 -3.28526 0
M  V30 2765 H 249.127 -2.55192 -4.8947 0
M  V30 2766 H 251.603 -0.804602 -4.08247 0
M  V30 2767 H 250.479 -0.622173 -5.45362 0
M  V30 2768 H 250.74 0.727934 -4.36066 0
M  V30 2769 N 249.799 1.42003 -0.683588 0
M  V30 2770 C 251.046 2.01413 -0.209514 0
M  V30 2771 C 251.374 1.54088 1.1869 0
M  V30 2772 O 250.629 0.737591 1.81268 0
M  V30 2773 C 250.928 3.56827 -0.202357 0
M  V30 2774 C 250.594 4.23617 -1.54464 0
M  V30 2775 C 249.256 4.41577 -1.91215 0
M  V30 2776 C 251.608 4.61178 -2.42826 0
M  V30 2777 C 248.936 4.9437 -3.15935 0
M  V30 2778 C 251.288 5.15355 -3.66867 0
M  V30 2779 C 249.952 5.31528 -4.03776 0
M  V30 2780 H 249.222 0.737023 -0.0766668 0
M  V30 2781 H 251.869 1.70067 -0.880312 0
M  V30 2782 H 250.174 3.87892 0.551969 0
M  V30 2783 H 251.871 4.00588 0.181793 0
M  V30 2784 H 248.461 4.10004 -1.24877 0
M  V30 2785 H 252.645 4.46968 -2.15717 0
M  V30 2786 H 247.901 5.05076 -3.44541 0
M  V30 2787 H 252.075 5.43402 -4.35531 0
M  V30 2788 H 249.702 5.72199 -5.00492 0
M  V30 2789 N 251.277 0.427512 1.51691 0
M  V30 2790 C 252.524 -0.142229 2.02 0
M  V30 2791 C 252.852 -1.43566 1.31221 0
M  V30 2792 O 252.107 -1.91298 0.412744 0
M  V30 2793 C 252.406 -0.418249 3.54944 0
M  V30 2794 C 252.072 0.788187 4.43958 0
M  V30 2795 C 250.734 1.11906 4.68007 0
M  V30 2796 C 253.086 1.59347 4.96244 0
M  V30 2797 C 250.414 2.25608 5.41588 0
M  V30 2798 C 252.766 2.7214 5.71072 0
M  V30 2799 C 251.43 3.05692 5.93387 0
M  V30 2800 H 250.7 -0.0520451 0.73917 0
M  V30 2801 H 253.347 0.572697 1.82736 0
M  V30 2802 H 251.652 -1.21496 3.72486 0
M  V30 2803 H 253.349 -0.872339 3.91397 0
M  V30 2804 H 249.939 0.520344 4.2543 0
M  V30 2805 H 254.123 1.35106 4.77556 0
M  V30 2806 H 249.379 2.51929 5.57083 0
M  V30 2807 H 253.553 3.34914 6.10578 0
M  V30 2808 H 251.18 3.9391 6.50184 0
M  V30 2809 N 252.755 -1.56801 0.158532 0
M  V30 2810 C 254.004 -1.95665 -0.489702 0
M  V30 2811 C 254.317 -1.04654 -1.65248 0
M  V30 2812 O 255.523 -1.33146 -2.3661 0
M  V30 2813 C 253.979 -3.47874 -0.922582 0
M  V30 2814 C 253.587 -4.47489 0.213893 0
M  V30 2815 C 255.331 -3.95583 -1.53996 0
M  V30 2816 C 253.238 -5.90921 -0.237903 0
M  V30 2817 H 252.168 -0.730516 -0.186716 0
M  V30 2818 H 254.819 -1.81861 0.244722 0
M  V30 2819 H 253.201 -3.57051 -1.71261 0
M  V30 2820 H 254.375 -4.50017 0.991036 0
M  V30 2821 H 252.69 -4.09764 0.740407 0
M  V30 2822 H 255.287 -5.0019 -1.8898 0
M  V30 2823 H 255.63 -3.37789 -2.43319 0
M  V30 2824 H 256.163 -3.8937 -0.814611 0
M  V30 2825 H 252.902 -6.52559 0.620236 0
M  V30 2826 H 252.422 -5.91729 -0.980676 0
M  V30 2827 H 254.101 -6.43352 -0.686067 0
M  V30 2828 N 254.233 0.115231 -1.57178 0
M  V30 2829 C 255.143 1.15994 -2.03918 0
M  V30 2830 C 256.159 1.45103 -0.960268 0
M  V30 2831 O 257.335 1.56144 -1.27204 0
M  V30 2832 C 254.4 2.46568 -2.43732 0
M  V30 2833 C 253.461 2.24822 -3.65723 0
M  V30 2834 C 252.694 3.4917 -4.03629 0
M  V30 2835 O 252.917 4.56623 -3.41835 0
M  V30 2836 O 251.851 3.39949 -4.96708 0
M  V30 2837 H 255.677 0.793019 -2.93164 0
M  V30 2838 H 253.262 0.3263 -1.45793 0
M  V30 2839 H 255.144 3.23492 -2.70057 0
M  V30 2840 H 253.819 2.82726 -1.57631 0
M  V30 2841 H 252.726 1.45744 -3.44542 0
M  V30 2842 H 254.059 1.93566 -4.52541 0
M  V30 2843 N 255.711 1.52812 0.385517 0
M  V30 2844 C 256.659 1.78482 1.49155 0
M  V30 2845 C 257.653 0.652914 1.56312 0
M  V30 2846 O 258.859 0.835464 1.59436 0
M  V30 2847 H 255.234 0.5648 0.496493 0
M  V30 2848 H 257.205 2.71095 1.24699 0
M  V30 2849 C 255.954 1.97378 2.86247 0
M  V30 2850 H 255.277 2.83907 2.81491 0
M  V30 2851 H 256.717 2.19327 3.62866 0
M  V30 2852 C 255.176 0.74728 3.28508 0
M  V30 2853 O 255.706 -0.0736232 4.01633 0
M  V30 2854 N 253.912 0.576396 2.84826 0
M  V30 2855 H 253.459 1.24555 2.25486 0
M  V30 2856 H 253.417 -0.24288 3.1346 0
M  V30 2857 N 257.189 -0.644168 1.43834 0
M  V30 2858 C 258.417 -1.43147 1.49387 0
M  V30 2859 C 258.832 -1.88452 0.114583 0
M  V30 2860 O 258.189 -1.60047 -0.876989 0
M  V30 2861 C 258.24 -2.66046 2.44748 0
M  V30 2862 O 257.961 -2.22633 3.77314 0
M  V30 2863 C 259.462 -3.59311 2.59635 0
M  V30 2864 H 256.682 -0.439447 0.507077 0
M  V30 2865 H 259.226 -0.78895 1.88669 0
M  V30 2866 H 257.381 -3.26418 2.08638 0
M  V30 2867 H 257.795 -3.02216 4.28679 0
M  V30 2868 H 259.269 -4.42187 3.30416 0
M  V30 2869 H 259.746 -4.07259 1.64427 0
M  V30 2870 H 260.352 -3.04816 2.96593 0
M  V30 2871 N 258.668 -1.30515 -0.883378 0
M  V30 2872 C 259.616 -1.16941 -2.01066 0
M  V30 2873 C 260.61 -0.0809148 -1.69207 0
M  V30 2874 O 261.816 -0.241877 -1.78367 0
M  V30 2875 H 258.191 -0.361705 -0.659298 0
M  V30 2876 H 260.162 -2.12344 -2.09649 0
M  V30 2877 C 258.911 -0.879694 -3.36388 0
M  V30 2878 H 258.234 -1.70936 -3.61415 0
M  V30 2879 H 259.674 -0.82483 -4.159 0
M  V30 2880 C 258.133 0.417409 -3.34304 0
M  V30 2881 O 258.663 1.43843 -3.75063 0
M  V30 2882 N 256.869 0.429141 -2.87414 0
M  V30 2883 H 256.416 -0.402222 -2.5444 0
M  V30 2884 H 256.374 1.29696 -2.86403 0
M  V30 2885 N 260.146 1.09593 -1.13257 0
M  V30 2886 C 261.395 1.81105 -0.887917 0
M  V30 2887 C 261.708 1.86563 0.587672 0
M  V30 2888 O 262.914 2.54367 0.949204 0
M  V30 2889 C 261.37 3.25338 -1.53895 0
M  V30 2890 C 260.978 3.28151 -3.04994 0
M  V30 2891 C 262.722 4.01617 -1.37492 0
M  V30 2892 C 260.629 4.66897 -3.6299 0
M  V30 2893 H 259.559 0.678661 -0.328534 0
M  V30 2894 H 262.21 1.23183 -1.36008 0
M  V30 2895 H 260.592 3.8331 -0.994446 0
M  V30 2896 H 261.766 2.79953 -3.66009 0
M  V30 2897 H 260.081 2.65361 -3.20893 0
M  V30 2898 H 262.678 5.04119 -1.78235 0
M  V30 2899 H 263.021 4.15072 -0.31957 0
M  V30 2900 H 263.554 3.50082 -1.88912 0
M  V30 2901 H 260.293 4.58643 -4.68323 0
M  V30 2902 H 259.813 5.15426 -3.06752 0
M  V30 2903 H 261.492 5.3587 -3.62563 0
M  V30 2904 N 261.624 0.925811 1.2754 0
M  V30 2905 C 262.852 0.581509 1.9856 0
M  V30 2906 C 263.267 -0.840041 1.69082 0
M  V30 2907 O 262.624 -1.55805 0.950312 0
M  V30 2908 C 262.675 0.795589 3.52637 0
M  V30 2909 O 262.396 2.16121 3.81082 0
M  V30 2910 C 263.897 0.459744 4.4091 0
M  V30 2911 H 261.117 0.220538 0.633722 0
M  V30 2912 H 263.661 1.24232 1.6244 0
M  V30 2913 H 261.816 0.18161 3.86974 0
M  V30 2914 H 262.23 2.2098 4.75676 0
M  V30 2915 H 263.704 0.660244 5.48037 0
M  V30 2916 H 264.181 -0.604625 4.35018 0
M  V30 2917 H 264.787 1.05178 4.12089 0
M  V30 2918 N 263.102 -1.41638 0.69111 0
M  V30 2919 C 264.348 -2.01598 0.220519 0
M  V30 2920 C 264.681 -1.54594 -1.17535 0
M  V30 2921 O 263.956 -0.755177 -1.79241 0
M  V30 2922 C 264.239 -3.59062 0.273243 0
M  V30 2923 C 264.092 -4.16203 1.70573 0
M  V30 2924 C 265.411 -4.38546 -0.369457 0
M  V30 2925 H 262.53 -0.732468 0.0816045 0
M  V30 2926 H 265.172 -1.68445 0.878986 0
M  V30 2927 H 263.322 -3.87435 -0.287411 0
M  V30 2928 H 264.994 -3.98722 2.31989 0
M  V30 2929 H 263.237 -3.71414 2.2413 0
M  V30 2930 H 263.908 -5.25358 1.69419 0
M  V30 2931 H 266.384 -4.1596 0.107977 0
M  V30 2932 H 265.26 -5.48069 -0.302002 0
M  V30 2933 H 265.521 -4.17662 -1.44951 0
M  V30 2934 N 264.58 -0.43555 -1.51462 0
M  V30 2935 C 265.82 0.130708 -2.03982 0
M  V30 2936 C 266.184 1.40117 -1.31268 0
M  V30 2937 O 267.385 2.04755 -1.74152 0
M  V30 2938 C 265.656 0.346102 -3.5572 0
M  V30 2939 S 267.215 0.876022 -4.29967 0
M  V30 2940 H 264.033 0.0326881 -0.710248 0
M  V30 2941 H 266.635 -0.594544 -1.8624 0
M  V30 2942 H 265.339 -0.584911 -4.0621 0
M  V30 2943 H 264.87 1.09849 -3.77752 0
M  V30 2944 H 266.885 2.15379 -4.47019 0
M  V30 2945 N 266.058 1.56714 -0.166846 0
M  V30 2946 C 267.021 2.16539 0.751232 0
M  V30 2947 C 268.021 1.11228 1.16125 0
M  V30 2948 O 269.211 1.36765 1.07894 0
M  V30 2949 C 266.343 2.74462 2.02196 0
M  V30 2950 H 267.536 2.99013 0.230499 0
M  V30 2951 H 265.089 1.56081 0.0826982 0
M  V30 2952 H 265.824 1.95709 2.58589 0
M  V30 2953 H 265.609 3.51527 1.73698 0
M  V30 2954 H 267.099 3.20489 2.67725 0
M  V30 2955 N 267.536 -0.106894 1.57237 0
M  V30 2956 C 268.783 -0.812526 1.85484 0
M  V30 2957 C 269.111 -1.79304 0.753687 0
M  V30 2958 O 268.366 -1.94047 -0.253853 0
M  V30 2959 C 268.665 -1.58628 3.20268 0
M  V30 2960 C 268.331 -0.748967 4.44636 0
M  V30 2961 C 266.993 -0.518104 4.78403 0
M  V30 2962 C 269.345 -0.166122 5.20935 0
M  V30 2963 C 266.673 0.305659 5.85903 0
M  V30 2964 C 269.025 0.644899 6.29304 0
M  V30 2965 C 267.689 0.885965 6.61594 0
M  V30 2966 H 266.959 -0.297324 0.678734 0
M  V30 2967 H 269.606 -0.0744332 1.91355 0
M  V30 2968 H 267.911 -2.39562 3.10028 0
M  V30 2969 H 269.608 -2.13643 3.39349 0
M  V30 2970 H 266.198 -0.939006 4.18187 0
M  V30 2971 H 270.382 -0.33167 4.95191 0
M  V30 2972 H 265.638 0.501528 6.0934 0
M  V30 2973 H 269.812 1.10345 6.87602 0
M  V30 2974 H 267.439 1.52609 7.44725 0
M  V30 2975 N 269.014 -1.53014 -0.377408 0
M  V30 2976 C 269.964 -1.74996 -1.46152 0
M  V30 2977 C 270.948 -0.604236 -1.49123 0
M  V30 2978 O 272.14 -0.862489 -1.54564 0
M  V30 2979 C 269.269 -1.93267 -2.8373 0
M  V30 2980 C 268.355 -3.13807 -2.85283 0
M  V30 2981 N 268.746 -4.35941 -2.56493 0
M  V30 2982 C 267.044 -3.14288 -3.16448 0
M  V30 2983 C 267.745 -5.17615 -2.65424 0
M  V30 2984 N 266.721 -4.53559 -2.99641 0
M  V30 2985 H 270.523 -2.67044 -1.22738 0
M  V30 2986 H 268.037 -1.51479 -0.585479 0
M  V30 2987 H 270.034 -2.0714 -3.61799 0
M  V30 2988 H 268.694 -1.0244 -3.08117 0
M  V30 2989 H 269.705 -4.63876 -2.30302 0
M  V30 2990 H 266.382 -2.33312 -3.46225 0
M  V30 2991 H 267.772 -6.25006 -2.46612 0
M  V30 2992 N 270.492 0.636531 -1.44174 0
M  V30 2993 C 271.722 1.42146 -1.49927 0
M  V30 2994 C 272.13 1.88812 -0.121063 0
M  V30 2995 O 271.473 1.61126 0.882267 0
M  V30 2996 C 271.535 2.67883 -2.39748 0
M  V30 2997 C 271.199 2.43048 -3.8701 0
M  V30 2998 C 272.196 2.05216 -4.77684 0
M  V30 2999 C 269.881 2.56856 -4.3166 0
M  V30 3000 C 271.875 1.81512 -6.11009 0
M  V30 3001 C 269.562 2.32766 -5.65034 0
M  V30 3002 C 270.56 1.95152 -6.54526 0
M  V30 3003 O 270.248 1.71326 -7.85431 0
M  V30 3004 H 269.98 0.442567 -0.51099 0
M  V30 3005 H 272.534 0.786158 -1.8976 0
M  V30 3006 H 270.764 3.34032 -1.94832 0
M  V30 3007 H 272.453 3.29874 -2.36513 0
M  V30 3008 H 273.219 1.94111 -4.44462 0
M  V30 3009 H 269.098 2.85104 -3.62266 0
M  V30 3010 H 272.642 1.52077 -6.80822 0
M  V30 3011 H 268.539 2.43479 -5.97819 0
M  V30 3012 H 269.307 1.85616 -7.97176 0
M  V30 3013 N 271.97 1.30982 0.876444 0
M  V30 3014 C 272.88 1.2003 2.01569 0
M  V30 3015 C 273.896 0.11838 1.73597 0
M  V30 3016 O 275.072 0.33495 1.98595 0
M  V30 3017 C 272.137 0.901637 3.34771 0
M  V30 3018 C 271.198 2.06979 3.76109 0
M  V30 3019 C 270.431 1.78529 5.02954 0
M  V30 3020 O 270.654 0.717296 5.65872 0
M  V30 3021 O 269.588 2.64019 5.40905 0
M  V30 3022 H 273.414 2.15753 2.13739 0
M  V30 3023 H 270.999 1.10658 1.00375 0
M  V30 3024 H 272.881 0.750645 4.1466 0
M  V30 3025 H 271.556 -0.0256141 3.2369 0
M  V30 3026 H 270.463 2.27616 2.96887 0
M  V30 3027 H 271.796 2.97907 3.91807 0
M  V30 3028 N 273.449 -1.08991 1.13837 0
M  V30 3029 C 274.674 -1.85551 0.926585 0
M  V30 3030 C 275.099 -1.80782 -0.519566 0
M  V30 3031 O 274.457 -1.18855 -1.36906 0
M  V30 3032 C 274.505 -3.31266 1.42462 0
M  V30 3033 O 273.609 -4.07822 0.612789 0
M  V30 3034 H 272.95 -0.575192 0.331738 0
M  V30 3035 H 275.48 -1.37604 1.51414 0
M  V30 3036 H 275.49 -3.82112 1.43019 0
M  V30 3037 H 274.165 -3.34052 2.47754 0
M  V30 3038 H 272.742 -3.66731 0.675463 0
M  V30 3039 N 274.927 -0.932562 -1.27047 0
M  V30 3040 C 275.859 -0.392734 -2.2581 0
M  V30 3041 C 276.872 0.479241 -1.55586 0
M  V30 3042 O 278.061 0.291078 -1.76111 0
M  V30 3043 C 275.161 0.455456 -3.35826 0
M  V30 3044 C 274.334 -0.398355 -4.35582 0
M  V30 3045 C 273.393 0.387985 -5.24768 0
M  V30 3046 O 272.419 -0.206003 -5.68827 0
M  V30 3047 N 273.621 1.68664 -5.55457 0
M  V30 3048 H 276.386 -1.24173 -2.72766 0
M  V30 3049 H 273.947 -0.800511 -1.40725 0
M  V30 3050 H 275.939 0.988692 -3.92437 0
M  V30 3051 H 274.509 1.20522 -2.88432 0
M  V30 3052 H 273.729 -1.11286 -3.78165 0
M  V30 3053 H 275.017 -0.981889 -4.99236 0
M  V30 3054 H 274.415 2.19147 -5.21528 0
M  V30 3055 H 272.972 2.1663 -6.14748 0
M  V30 3056 N 276.405 1.4127 -0.698611 0
M  V30 3057 C 277.353 2.32588 -0.023855 0
M  V30 3058 C 278.347 1.51128 0.765292 0
M  V30 3059 O 279.553 1.67043 0.670571 0
M  V30 3060 H 275.928 0.751918 0.0110871 0
M  V30 3061 H 277.899 2.87167 -0.811031 0
M  V30 3062 C 276.648 3.35947 0.896369 0
M  V30 3063 H 275.971 3.98684 0.298548 0
M  V30 3064 H 277.411 4.02376 1.33676 0
M  V30 3065 C 275.87 2.70076 2.01396 0
M  V30 3066 O 276.4 2.55093 3.10307 0
M  V30 3067 N 274.606 2.28724 1.79259 0
M  V30 3068 H 274.153 2.4111 0.906841 0
M  V30 3069 H 274.111 1.84986 2.54219 0
M  V30 3070 N 277.883 0.443576 1.51229 0
M  V30 3071 C 279.108 -0.121648 2.07043 0
M  V30 3072 C 279.533 -1.35156 1.30823 0
M  V30 3073 O 278.891 -1.7793 0.347934 0
M  V30 3074 C 278.939 -0.41624 3.5819 0
M  V30 3075 O 278.043 -1.50163 3.8409 0
M  V30 3076 H 277.384 0.000871367 0.663999 0
M  V30 3077 H 279.914 0.626706 1.94765 0
M  V30 3078 H 279.924 -0.664867 4.02546 0
M  V30 3079 H 278.599 0.482653 4.1309 0
M  V30 3080 H 277.176 -1.24248 3.51592 0
M  V30 3081 N 279.361 -1.56624 0.175154 0
M  V30 3082 C 280.589 -2.01374 -0.474971 0
M  V30 3083 C 281.004 -1.05537 -1.56548 0
M  V30 3084 O 280.361 -0.0568668 -1.82411 0
M  V30 3085 C 280.412 -3.45923 -1.04975 0
M  V30 3086 O 280.133 -4.381 -0.00276605 0
M  V30 3087 C 281.634 -4.06093 -1.77773 0
M  V30 3088 H 278.854 -0.659962 -0.121206 0
M  V30 3089 H 281.398 -2.02601 0.27801 0
M  V30 3090 H 279.553 -3.45458 -1.75321 0
M  V30 3091 H 279.967 -5.22753 -0.427681 0
M  V30 3092 H 281.441 -5.09147 -2.13245 0
M  V30 3093 H 281.918 -3.48405 -2.67414 0
M  V30 3094 H 282.524 -4.10272 -1.12059 0
M  V30 3095 N 280.839 0.0985539 -1.57292 0
M  V30 3096 C 281.769 1.12064 -2.04851 0
M  V30 3097 C 282.75 1.41981 -0.936767 0
M  V30 3098 O 283.935 1.52071 -1.20781 0
M  V30 3099 C 281.065 2.44144 -2.47004 0
M  V30 3100 C 280.019 2.28643 -3.6181 0
M  V30 3101 C 279.345 3.65869 -3.89929 0
M  V30 3102 C 280.645 1.72986 -4.92822 0
M  V30 3103 H 282.339 0.724979 -2.9049 0
M  V30 3104 H 279.885 0.34729 -1.39749 0
M  V30 3105 H 281.838 3.15914 -2.78884 0
M  V30 3106 H 280.562 2.85639 -1.5836 0
M  V30 3107 H 279.221 1.59318 -3.30172 0
M  V30 3108 H 278.869 4.04885 -2.98458 0
M  V30 3109 H 278.569 3.56344 -4.67218 0
M  V30 3110 H 280.093 4.39112 -4.2428 0
M  V30 3111 H 281.507 2.34593 -5.23105 0
M  V30 3112 H 279.904 1.74229 -5.74251 0
M  V30 3113 H 280.974 0.689007 -4.7998 0
M  V30 3114 N 282.317 1.53212 0.369288 0
M  V30 3115 C 283.728 1.60943 0.946276 0
M  V30 3116 C 284.079 0.47452 1.90375 0
M  V30 3117 O 283.204 -0.399597 2.12679 0
M  V30 3118 C 283.799 2.91715 1.72302 0
M  V30 3119 C 282.358 3.01792 2.24941 0
M  V30 3120 C 281.505 2.56211 1.06072 0
M  V30 3121 H 284.456 1.58007 0.148198 0
M  V30 3122 H 284.477 2.79309 2.58393 0
M  V30 3123 H 283.989 3.74295 1.0259 0
M  V30 3124 H 282.09 2.23791 2.97906 0
M  V30 3125 H 282.203 4.06803 2.53077 0
M  V30 3126 H 280.567 2.10998 1.4266 0
M  V30 3127 H 281.35 3.41206 0.378639 0
M  V30 3128 N 283.795 -0.628877 1.44509 0
M  V30 3129 C 285.044 -1.38437 1.4669 0
M  V30 3130 C 285.357 -1.95322 0.104272 0
M  V30 3131 O 286.563 -2.715 0.00362163 0
M  V30 3132 C 285.019 -2.50659 2.5826 0
M  V30 3133 C 284.627 -2.00277 4.0074 0
M  V30 3134 C 286.371 -3.27844 2.69664 0
M  V30 3135 C 284.278 -3.09854 5.0373 0
M  V30 3136 H 283.208 -0.520245 0.545766 0
M  V30 3137 H 285.859 -0.676313 1.70582 0
M  V30 3138 H 284.241 -3.2405 2.27612 0
M  V30 3139 H 285.415 -1.33736 4.40966 0
M  V30 3140 H 283.73 -1.35901 3.93599 0
M  V30 3141 H 286.327 -4.09534 3.43781 0
M  V30 3142 H 286.67 -3.77471 1.75559 0
M  V30 3143 H 287.203 -2.61543 2.99733 0
M  V30 3144 H 283.942 -2.65168 5.99472 0
M  V30 3145 H 283.462 -3.7503 4.68095 0
M  V30 3146 H 285.141 -3.74592 5.27532 0
M  V30 3147 N 285.273 -1.31445 -0.869486 0
M  V30 3148 C 286.521 -1.20918 -1.61936 0
M  V30 3149 C 286.842 0.232683 -1.93607 0
M  V30 3150 O 286.112 1.15352 -1.58338 0
M  V30 3151 H 284.692 -0.44454 -0.600328 0
M  V30 3152 H 287.354 -1.64776 -1.0409 0
M  V30 3153 H 286.45 -1.78124 -2.56278 0
M  V30 3154 N 286.751 1.08385 -1.14413 0
M  V30 3155 C 287.681 2.17321 -0.854044 0
M  V30 3156 C 288.662 1.69024 0.191049 0
M  V30 3157 O 289.847 1.94141 0.0476779 0
M  V30 3158 C 286.977 3.45719 -0.330983 0
M  V30 3159 C 285.931 4.07409 -1.31155 0
M  V30 3160 C 285.257 5.30762 -0.64778 0
M  V30 3161 C 286.557 4.48665 -2.67388 0
M  V30 3162 H 288.251 2.41845 -1.76498 0
M  V30 3163 H 285.797 1.16233 -0.850051 0
M  V30 3164 H 287.75 4.21241 -0.115645 0
M  V30 3165 H 286.474 3.2075 0.615381 0
M  V30 3166 H 285.133 3.33919 -1.51306 0
M  V30 3167 H 284.781 5.02078 0.304398 0
M  V30 3168 H 284.481 5.72992 -1.30207 0
M  V30 3169 H 286.005 6.08998 -0.441972 0
M  V30 3170 H 287.419 5.15364 -2.51143 0
M  V30 3171 H 285.816 5.01814 -3.29093 0
M  V30 3172 H 286.886 3.60543 -3.24248 0
M  V30 3173 N 288.23 0.939286 1.26551 0
M  V30 3174 C 289.478 0.58469 1.93457 0
M  V30 3175 C 289.799 -0.878774 1.74076 0
M  V30 3176 O 289.069 -1.62421 1.09528 0
M  V30 3177 H 287.649 0.21325 0.715914 0
M  V30 3178 H 290.311 1.1942 1.54029 0
M  V30 3179 H 289.407 0.800849 3.0165 0
M  V30 3180 N 289.708 -1.40897 0.706093 0
M  V30 3181 C 290.638 -2.33418 0.0620085 0
M  V30 3182 C 291.619 -1.52385 -0.755827 0
M  V30 3183 O 292.804 -1.80886 -0.706674 0
M  V30 3184 C 289.934 -3.36293 -0.867445 0
M  V30 3185 C 288.888 -4.27716 -0.155932 0
M  V30 3186 C 288.214 -5.2105 -1.20046 0
M  V30 3187 C 289.514 -5.12944 0.984149 0
M  V30 3188 H 291.208 -2.87527 0.83477 0
M  V30 3189 H 288.754 -1.38249 0.402875 0
M  V30 3190 H 290.707 -3.99949 -1.32735 0
M  V30 3191 H 289.431 -2.80556 -1.67199 0
M  V30 3192 H 288.09 -3.65498 0.284047 0
M  V30 3193 H 287.738 -4.61624 -1.99781 0
M  V30 3194 H 287.438 -5.83056 -0.729328 0
M  V30 3195 H 288.962 -5.87584 -1.66066 0
M  V30 3196 H 290.376 -5.70109 0.604048 0
M  V30 3197 H 288.773 -5.83945 1.38304 0
M  V30 3198 H 289.843 -4.49485 1.81911 0
M  V30 3199 N 291.186 -0.45159 -1.50991 0
M  V30 3200 C 292.414 0.108334 -2.06616 0
M  V30 3201 C 292.829 1.35224 -1.31757 0
M  V30 3202 O 292.186 1.78475 -0.381174 0
M  V30 3203 C 292.237 0.41619 -3.59096 0
M  V30 3204 O 291.958 -0.778361 -4.3113 0
M  V30 3205 C 293.459 1.02523 -4.31282 0
M  V30 3206 H 290.679 0.00159995 -0.670998 0
M  V30 3207 H 293.223 -0.634771 -1.94399 0
M  V30 3208 H 291.378 1.10921 -3.71181 0
M  V30 3209 H 291.792 -0.511181 -5.22003 0
M  V30 3210 H 293.266 1.19053 -5.39009 0
M  V30 3211 H 293.743 2.01013 -3.905 0
M  V30 3212 H 294.349 0.371173 -4.23677 0
M  V30 3213 N 292.664 1.56529 -0.183458 0
M  V30 3214 C 293.611 2.18546 0.742055 0
M  V30 3215 C 294.581 1.12912 1.2182 0
M  V30 3216 O 295.766 1.41115 1.28418 0
M  V30 3217 C 292.906 2.83977 1.96089 0
M  V30 3218 C 292.019 4.04105 1.52719 0
M  V30 3219 C 291.154 4.57427 2.70063 0
M  V30 3220 C 290.193 5.69938 2.23243 0
M  V30 3221 N 289.33 6.17717 3.33722 0
M  V30 3222 H 294.17 2.97284 0.206432 0
M  V30 3223 H 291.707 1.46823 0.0901571 0
M  V30 3224 H 293.665 3.20077 2.67594 0
M  V30 3225 H 292.295 2.07822 2.47002 0
M  V30 3226 H 291.347 3.73745 0.708436 0
M  V30 3227 H 292.659 4.85513 1.1436 0
M  V30 3228 H 291.813 4.95772 3.49708 0
M  V30 3229 H 290.552 3.75101 3.11689 0
M  V30 3230 H 289.557 5.31133 1.42048 0
M  V30 3231 H 290.782 6.54073 1.82661 0
M  V30 3232 H 288.728 5.38317 3.74902 0
M  V30 3233 H 288.645 6.94146 2.99495 0
M  V30 3234 H 289.913 6.60713 4.13616 0
M  V30 3235 N 294.142 -0.090211 1.57342 0
M  V30 3236 C 295.09 -1.12792 2.03422 0
M  V30 3237 C 296.084 -1.41182 0.936166 0
M  V30 3238 O 297.29 -1.40805 1.12133 0
M  V30 3239 H 293.665 -0.380986 0.648347 0
M  V30 3240 H 295.636 -0.71299 2.89757 0
M  V30 3241 C 294.385 -2.43855 2.47851 0
M  V30 3242 H 293.708 -2.22855 3.31927 0
M  V30 3243 H 295.148 -3.14955 2.83865 0
M  V30 3244 C 293.607 -3.08503 1.3538 0
M  V30 3245 O 294.137 -3.95805 0.685641 0
M  V30 3246 N 292.343 -2.68831 1.10355 0
M  V30 3247 H 291.89 -1.97929 1.64869 0
M  V30 3248 H 291.848 -3.12412 0.353031 0
M  V30 3249 N 295.62 -1.53406 -0.361157 0
M  V30 3250 C 296.869 -1.69022 -1.10066 0
M  V30 3251 C 297.182 -0.450838 -1.90333 0
M  V30 3252 O 298.388 -0.487617 -2.67085 0
M  V30 3253 C 296.844 -2.98812 -2.00598 0
M  V30 3254 C 296.452 -4.30027 -1.25621 0
M  V30 3255 C 298.196 -3.23795 -2.74513 0
M  V30 3256 C 296.103 -5.50903 -2.1508 0
M  V30 3257 H 295.033 -0.629776 -0.414606 0
M  V30 3258 H 297.684 -1.79907 -0.361348 0
M  V30 3259 H 296.066 -2.8174 -2.78278 0
M  V30 3260 H 297.24 -4.57745 -0.529739 0
M  V30 3261 H 295.555 -4.11522 -0.635496 0
M  V30 3262 H 298.152 -4.11289 -3.41681 0
M  V30 3263 H 298.495 -2.40045 -3.40123 0
M  V30 3264 H 299.028 -3.41561 -2.03914 0
M  V30 3265 H 295.767 -6.37143 -1.54041 0
M  V30 3266 H 295.287 -5.27459 -2.85565 0
M  V30 3267 H 296.966 -5.85865 -2.74538 0
M  V30 3268 N 297.098 0.621204 -1.44841 0
M  V30 3269 C 298.028 1.74366 -1.55303 0
M  V30 3270 C 299.009 1.65199 -0.405385 0
M  V30 3271 O 300.194 1.83807 -0.626787 0
M  V30 3272 C 297.324 3.12931 -1.50637 0
M  V30 3273 C 296.278 3.36896 -2.63979 0
M  V30 3274 C 295.604 4.75594 -2.44366 0
M  V30 3275 C 296.904 3.28483 -4.06074 0
M  V30 3276 H 298.598 1.65867 -2.49256 0
M  V30 3277 H 296.144 0.796558 -1.19962 0
M  V30 3278 H 298.097 3.9124 -1.56555 0
M  V30 3279 H 296.821 3.22237 -0.532057 0
M  V30 3280 H 295.48 2.60972 -2.57467 0
M  V30 3281 H 295.128 4.81616 -1.45105 0
M  V30 3282 H 294.828 4.92586 -3.20364 0
M  V30 3283 H 296.352 5.5612 -2.52117 0
M  V30 3284 H 297.766 3.96684 -4.13902 0
M  V30 3285 H 296.163 3.57008 -4.82354 0
M  V30 3286 H 297.233 2.26133 -4.28943 0
M  V30 3287 N 298.576 1.31904 0.862503 0
M  V30 3288 C 299.824 1.21776 1.61292 0
M  V30 3289 C 300.145 -0.222413 1.93727 0
M  V30 3290 O 299.415 -1.1451 1.58947 0
M  V30 3291 H 297.995 0.447717 0.597962 0
M  V30 3292 H 300.657 1.65326 1.03215 0
M  V30 3293 H 299.753 1.7948 2.5533 0
M  V30 3294 N 300.054 -1.07777 1.14986 0
M  V30 3295 C 301.301 -1.8029 0.922056 0
M  V30 3296 C 301.629 -1.86531 -0.55105 0
M  V30 3297 O 300.884 -1.34189 -1.42449 0
M  V30 3298 C 301.183 -3.25495 1.47608 0
M  V30 3299 C 300.849 -3.39361 2.96893 0
M  V30 3300 C 299.511 -3.42852 3.37647 0
M  V30 3301 C 301.863 -3.42512 3.92854 0
M  V30 3302 C 299.191 -3.47094 4.73015 0
M  V30 3303 C 301.543 -3.4829 5.28088 0
M  V30 3304 C 300.207 -3.50058 5.68345 0
M  V30 3305 H 299.477 -0.659727 0.337404 0
M  V30 3306 H 302.124 -1.26854 1.43459 0
M  V30 3307 H 300.429 -3.81683 0.88463 0
M  V30 3308 H 302.126 -3.80168 1.27568 0
M  V30 3309 H 298.716 -3.37339 2.64387 0
M  V30 3310 H 302.9 -3.3904 3.62444 0
M  V30 3311 H 298.156 -3.46758 5.03556 0
M  V30 3312 H 302.33 -3.49675 6.02246 0
M  V30 3313 H 299.957 -3.53097 6.73221 0
M  V30 3314 N 301.532 -0.945985 -1.26051 0
M  V30 3315 C 302.462 -0.477172 -2.28572 0
M  V30 3316 C 303.443 0.472032 -1.63419 0
M  V30 3317 O 304.628 0.372853 -1.90587 0
M  V30 3318 C 301.758 0.253975 -3.4637 0
M  V30 3319 C 300.712 -0.609135 -4.23643 0
M  V30 3320 C 300.038 0.252252 -5.34105 0
M  V30 3321 C 301.338 -1.8829 -4.8718 0
M  V30 3322 H 303.032 -1.33402 -2.68038 0
M  V30 3323 H 300.578 -0.642904 -1.28852 0
M  V30 3324 H 302.531 0.593016 -4.17207 0
M  V30 3325 H 301.255 1.145 -3.05871 0
M  V30 3326 H 299.914 -0.931138 -3.54578 0
M  V30 3327 H 299.562 1.14278 -4.89846 0
M  V30 3328 H 299.262 -0.32188 -5.86718 0
M  V30 3329 H 300.786 0.586454 -6.07777 0
M  V30 3330 H 302.2 -1.61081 -5.50205 0
M  V30 3331 H 300.597 -2.40199 -5.49931 0
M  V30 3332 H 301.667 -2.59134 -4.09851 0
M  V30 3333 N 303.011 1.40521 -0.713556 0
M  V30 3334 C 304.258 2.00923 -0.25219 0
M  V30 3335 C 304.586 1.56571 1.15395 0
M  V30 3336 O 303.841 0.775874 1.79663 0
M  V30 3337 C 304.14 3.56317 -0.278 0
M  V30 3338 C 303.806 4.20246 -1.63415 0
M  V30 3339 C 302.468 4.37422 -2.00538 0
M  V30 3340 C 304.82 4.55923 -2.52554 0
M  V30 3341 C 302.148 4.87558 -3.2635 0
M  V30 3342 C 304.5 5.07458 -3.77716 0
M  V30 3343 C 303.164 5.22843 -4.14959 0
M  V30 3344 H 302.434 0.735231 -0.0922829 0
M  V30 3345 H 305.081 1.68161 -0.916188 0
M  V30 3346 H 303.386 3.88976 0.469567 0
M  V30 3347 H 305.083 4.00883 0.0967819 0
M  V30 3348 H 301.673 4.07263 -1.33546 0
M  V30 3349 H 305.857 4.42291 -2.25149 0
M  V30 3350 H 301.113 4.97654 -3.55176 0
M  V30 3351 H 305.287 5.34041 -4.4696 0
M  V30 3352 H 302.914 5.61454 -5.12516 0
M  V30 3353 N 304.489 0.459591 1.5075 0
M  V30 3354 C 305.9 0.00171547 1.867 0
M  V30 3355 C 306.251 -1.39934 1.37525 0
M  V30 3356 O 305.376 -2.03523 0.735349 0
M  V30 3357 C 305.971 -0.00366298 3.388 0
M  V30 3358 C 304.53 -0.406026 3.74204 0
M  V30 3359 C 303.677 0.38673 2.7459 0
M  V30 3360 H 306.628 0.674413 1.43657 0
M  V30 3361 H 306.649 -0.808371 3.71814 0
M  V30 3362 H 306.161 1.01617 3.74561 0
M  V30 3363 H 304.262 -1.43063 3.4404 0
M  V30 3364 H 304.375 -0.115362 4.78961 0
M  V30 3365 H 302.739 -0.158019 2.54209 0
M  V30 3366 H 303.522 1.40585 3.13194 0
M  V30 3367 N 305.967 -1.56429 0.191757 0
M  V30 3368 C 307.214 -1.97485 -0.447891 0
M  V30 3369 C 307.542 -1.07852 -1.61859 0
M  V30 3370 O 306.797 -0.116903 -1.95351 0
M  V30 3371 C 307.096 -3.44449 -0.953384 0
M  V30 3372 C 306.762 -4.50781 0.103586 0
M  V30 3373 C 305.424 -4.79584 0.394023 0
M  V30 3374 C 307.776 -5.1471 0.819946 0
M  V30 3375 C 305.104 -5.69607 1.40585 0
M  V30 3376 C 307.456 -6.05827 1.8209 0
M  V30 3377 C 306.12 -6.32987 2.11857 0
M  V30 3378 H 305.39 -0.722648 -0.163895 0
M  V30 3379 H 308.037 -1.89322 0.28802 0
M  V30 3380 H 306.342 -3.49666 -1.76751 0
M  V30 3381 H 308.039 -3.73569 -1.45765 0
M  V30 3382 H 304.629 -4.28394 -0.132951 0
M  V30 3383 H 308.813 -4.92552 0.608789 0
M  V30 3384 H 304.069 -5.88926 1.64243 0
M  V30 3385 H 308.243 -6.54424 2.38123 0
M  V30 3386 H 305.87 -7.02544 2.90407 0
M  V30 3387 N 307.445 0.0818655 -1.57387 0
M  V30 3388 C 308.375 1.09885 -2.06028 0
M  V30 3389 C 309.356 1.4098 -0.951774 0
M  V30 3390 O 310.541 1.50781 -1.22387 0
M  V30 3391 C 307.671 2.4151 -2.4958 0
M  V30 3392 C 306.625 2.24792 -3.64215 0
M  V30 3393 C 305.951 3.61712 -3.93787 0
M  V30 3394 C 307.251 1.67749 -4.94629 0
M  V30 3395 H 308.945 0.694128 -2.91243 0
M  V30 3396 H 306.491 0.332448 -1.4011 0
M  V30 3397 H 308.444 3.12939 -2.82219 0
M  V30 3398 H 307.168 2.83943 -1.61381 0
M  V30 3399 H 305.827 1.55807 -3.31843 0
M  V30 3400 H 305.475 4.01697 -3.02735 0
M  V30 3401 H 305.175 3.51368 -4.70971 0
M  V30 3402 H 306.699 4.34587 -4.28913 0
M  V30 3403 H 308.113 2.29032 -5.25564 0
M  V30 3404 H 306.51 1.68128 -5.76067 0
M  V30 3405 H 307.58 0.638059 -4.80684 0
M  V30 3406 N 308.923 1.53595 0.353017 0
M  V30 3407 C 310.172 1.69603 1.09168 0
M  V30 3408 C 310.485 0.460925 1.90092 0
M  V30 3409 O 311.691 0.501774 2.66823 0
M  V30 3410 C 310.147 2.99872 1.9901 0
M  V30 3411 C 309.755 4.30687 1.23339 0
M  V30 3412 C 311.499 3.25246 2.72792 0
M  V30 3413 C 309.406 5.52036 2.12156 0
M  V30 3414 H 308.336 0.631966 0.411261 0
M  V30 3415 H 310.987 1.80096 0.351802 0
M  V30 3416 H 309.369 2.83212 2.7678 0
M  V30 3417 H 310.543 4.58019 0.505456 0
M  V30 3418 H 308.858 4.11853 0.613663 0
M  V30 3419 H 311.455 4.13095 3.39495 0
M  V30 3420 H 311.798 2.41846 3.38846 0
M  V30 3421 H 312.331 3.42638 2.021 0
M  V30 3422 H 309.07 6.37951 1.50659 0
M  V30 3423 H 308.59 5.28966 2.82764 0
M  V30 3424 H 310.269 5.87313 2.71427 0
M  V30 3425 N 310.401 -0.613514 1.45168 0
M  V30 3426 C 311.65 -1.36874 1.4815 0
M  V30 3427 C 311.963 -1.952 0.124982 0
M  V30 3428 O 313.169 -2.71481 0.0324176 0
M  V30 3429 C 311.625 -2.47905 2.60904 0
M  V30 3430 C 311.233 -1.96016 4.02842 0
M  V30 3431 C 312.977 -3.24965 2.73126 0
M  V30 3432 C 310.884 -3.04494 5.06988 0
M  V30 3433 H 309.814 -0.514428 0.551253 0
M  V30 3434 H 312.465 -0.658182 1.7129 0
M  V30 3435 H 310.847 -3.21618 2.31037 0
M  V30 3436 H 312.021 -1.29051 4.4236 0
M  V30 3437 H 310.336 -1.31719 3.95018 0
M  V30 3438 H 312.933 -4.05865 3.48106 0
M  V30 3439 H 313.276 -3.75588 1.79553 0
M  V30 3440 H 313.809 -2.5835 3.0249 0
M  V30 3441 H 310.548 -2.58795 6.0225 0
M  V30 3442 H 310.068 -3.70044 4.72046 0
M  V30 3443 H 311.747 -3.68976 5.31475 0
M  V30 3444 N 311.879 -1.3236 -0.855495 0
M  V30 3445 C 312.809 -1.23833 -1.97958 0
M  V30 3446 C 313.79 -0.122361 -1.69659 0
M  V30 3447 O 314.975 -0.30939 -1.9172 0
M  V30 3448 C 312.105 -0.959772 -3.33775 0
M  V30 3449 C 311.059 -2.03689 -3.76424 0
M  V30 3450 C 310.385 -1.61075 -5.09862 0
M  V30 3451 C 311.685 -3.4518 -3.9198 0
M  V30 3452 H 313.379 -2.1788 -2.0535 0
M  V30 3453 H 310.925 -1.04891 -0.986605 0
M  V30 3454 H 312.878 -0.886678 -4.11966 0
M  V30 3455 H 311.602 0.0163404 -3.26596 0
M  V30 3456 H 310.261 -2.10012 -3.00484 0
M  V30 3457 H 309.909 -0.622107 -4.99138 0
M  V30 3458 H 309.609 -2.33143 -5.39368 0
M  V30 3459 H 311.133 -1.55201 -5.90546 0
M  V30 3460 H 312.547 -3.4145 -4.60526 0
M  V30 3461 H 310.944 -4.1559 -4.32903 0
M  V30 3462 H 312.014 -3.84903 -2.94919 0
M  V30 3463 N 313.357 1.07166 -1.15556 0
M  V30 3464 C 314.585 1.83514 -0.955519 0
M  V30 3465 C 315 1.82163 0.49621 0
M  V30 3466 O 314.357 1.23441 1.34419 0
M  V30 3467 C 314.408 3.30515 -1.46432 0
M  V30 3468 O 314.129 3.31937 -2.85918 0
M  V30 3469 C 315.63 4.23625 -1.30603 0
M  V30 3470 H 312.85 0.578926 -0.339244 0
M  V30 3471 H 315.394 1.35265 -1.53374 0
M  V30 3472 H 313.549 3.76106 -0.928584 0
M  V30 3473 H 313.963 4.23794 -3.09029 0
M  V30 3474 H 315.437 5.24831 -1.71047 0
M  V30 3475 H 315.914 4.38485 -0.250441 0
M  V30 3476 H 316.52 3.83871 -1.83094 0
M  V30 3477 N 314.835 0.952656 1.25548 0
M  V30 3478 C 316.06 0.623025 1.97821 0
M  V30 3479 C 316.485 -0.7976 1.70352 0
M  V30 3480 O 315.843 -1.53905 0.958283 0
M  V30 3481 C 315.891 0.885532 3.49558 0
M  V30 3482 O 314.995 -0.0366641 4.12384 0
M  V30 3483 H 314.336 0.237082 0.620232 0
M  V30 3484 H 316.866 1.27871 1.59719 0
M  V30 3485 H 316.876 0.811009 3.99858 0
M  V30 3486 H 315.551 1.92094 3.6888 0
M  V30 3487 H 314.128 0.0898954 3.72792 0
M  V30 3488 N 316.313 -1.40141 0.720998 0
M  V30 3489 C 317.543 -2.04798 0.27226 0
M  V30 3490 C 317.951 -1.54442 -1.09289 0
M  V30 3491 O 317.294 -0.698342 -1.69908 0
M  V30 3492 C 317.356 -3.59048 0.18027 0
M  V30 3493 C 317.02 -4.32317 1.48159 0
M  V30 3494 C 318.017 -4.59902 2.42458 0
M  V30 3495 C 315.702 -4.71125 1.74202 0
M  V30 3496 C 317.696 -5.25288 3.61042 0
M  V30 3497 C 315.383 -5.36242 2.93066 0
M  V30 3498 C 316.381 -5.63254 3.86308 0
M  V30 3499 O 316.069 -6.27024 5.03086 0
M  V30 3500 H 315.801 -0.665419 0.119139 0
M  V30 3501 H 318.355 -1.80436 0.981432 0
M  V30 3502 H 316.585 -3.82251 -0.58489 0
M  V30 3503 H 318.274 -4.05221 -0.234618 0
M  V30 3504 H 319.04 -4.30379 2.23604 0
M  V30 3505 H 314.919 -4.49466 1.02477 0
M  V30 3506 H 318.463 -5.46289 4.33837 0
M  V30 3507 H 314.36 -5.65185 3.11826 0
M  V30 3508 H 315.128 -6.4552 5.03235 0
M  V30 3509 N 317.792 -0.46758 -1.50504 0
M  V30 3510 C 319.02 0.0864133 -2.06719 0
M  V30 3511 C 319.435 1.33819 -1.33184 0
M  V30 3512 O 318.792 1.78061 -0.400083 0
M  V30 3513 C 318.843 0.378079 -3.59517 0
M  V30 3514 O 318.564 -0.824044 -4.3028 0
M  V30 3515 C 320.065 0.979426 -4.32345 0
M  V30 3516 H 317.285 -0.00551697 -0.670977 0
M  V30 3517 H 319.829 -0.655354 -1.93715 0
M  V30 3518 H 317.984 1.06977 -3.72337 0
M  V30 3519 H 318.398 -0.566518 -5.21432 0
M  V30 3520 H 319.872 1.1333 -5.40241 0
M  V30 3521 H 320.349 1.9686 -3.9261 0
M  V30 3522 H 320.955 0.326216 -4.24047 0
M  V30 3523 N 319.27 1.56325 -0.20005 0
M  V30 3524 C 320.2 2.22318 0.713916 0
M  V30 3525 C 321.181 1.18788 1.21752 0
M  V30 3526 O 322.366 1.47309 1.26545 0
M  V30 3527 C 319.496 2.88639 1.93144 0
M  V30 3528 C 318.45 3.98457 1.56255 0
M  V30 3529 C 317.776 4.51967 2.85709 0
M  V30 3530 C 319.076 5.16612 0.768747 0
M  V30 3531 H 320.77 2.98952 0.163755 0
M  V30 3532 H 318.316 1.43792 0.0773219 0
M  V30 3533 H 320.269 3.33491 2.57608 0
M  V30 3534 H 318.993 2.09419 2.50621 0
M  V30 3535 H 317.652 3.54305 0.941471 0
M  V30 3536 H 317.3 3.69503 3.41287 0
M  V30 3537 H 317 5.26071 2.6177 0
M  V30 3538 H 318.524 4.99523 3.51154 0
M  V30 3539 H 319.938 5.57977 1.3166 0
M  V30 3540 H 318.335 5.96812 0.627286 0
M  V30 3541 H 319.405 4.84358 -0.229168 0
M  V30 3542 N 320.748 -0.0735177 1.57428 0
M  V30 3543 C 321.997 -0.771809 1.86349 0
M  V30 3544 C 322.31 -1.78828 0.792452 0
M  V30 3545 O 323.516 -2.53602 0.96945 0
M  V30 3546 C 321.972 -1.42358 3.30548 0
M  V30 3547 C 321.58 -0.445761 4.45777 0
M  V30 3548 C 323.324 -2.10434 3.6867 0
M  V30 3549 C 321.231 -1.10335 5.81016 0
M  V30 3550 H 320.161 -0.291999 0.695164 0
M  V30 3551 H 322.812 -0.0250749 1.83483 0
M  V30 3552 H 321.194 -2.21852 3.28021 0
M  V30 3553 H 322.368 0.319239 4.59693 0
M  V30 3554 H 320.683 0.130457 4.16196 0
M  V30 3555 H 323.28 -2.60405 4.67004 0
M  V30 3556 H 323.623 -2.90298 2.98383 0
M  V30 3557 H 324.156 -1.37773 3.7318 0
M  V30 3558 H 320.895 -0.345061 6.54591 0
M  V30 3559 H 320.415 -1.83925 5.70904 0
M  V30 3560 H 322.094 -1.62367 6.26295 0
M  V30 3561 N 322.226 -1.5378 -0.344866 0
M  V30 3562 C 323.472 -1.72158 -1.0832 0
M  V30 3563 C 323.827 -0.478218 -1.86362 0
M  V30 3564 O 323.12 0.529152 -1.84148 0
M  V30 3565 C 323.314 -2.92407 -2.05506 0
M  V30 3566 C 323.143 -4.28318 -1.37017 0
M  V30 3567 C 321.913 -4.92832 -1.11558 0
M  V30 3568 C 324.111 -5.08086 -0.797071 0
M  V30 3569 N 322.093 -6.12619 -0.396358 0
M  V30 3570 C 323.464 -6.1965 -0.208336 0
M  V30 3571 C 325.519 -4.92986 -0.697787 0
M  V30 3572 C 324.222 -7.17763 0.470023 0
M  V30 3573 C 326.248 -5.91391 -0.033171 0
M  V30 3574 C 325.61 -7.02292 0.544599 0
M  V30 3575 H 321.709 -0.683017 -0.380805 0
M  V30 3576 H 324.293 -1.91211 -0.366961 0
M  V30 3577 H 322.464 -2.74857 -2.74423 0
M  V30 3578 H 324.196 -2.9951 -2.72169 0
M  V30 3579 H 320.951 -4.52362 -1.40234 0
M  V30 3580 H 321.375 -6.7698 -0.0515119 0
M  V30 3581 H 326.017 -4.07414 -1.13022 0
M  V30 3582 H 323.735 -8.0291 0.914351 0
M  V30 3583 H 327.321 -5.81784 0.0430009 0
M  V30 3584 H 326.201 -7.77129 1.05073 0
M  V30 3585 N 323.704 0.605807 -1.45491 0
M  V30 3586 C 324.651 1.7164 -1.54299 0
M  V30 3587 C 325.621 1.61486 -0.388761 0
M  V30 3588 O 326.806 1.81039 -0.602445 0
M  V30 3589 C 323.946 3.09953 -1.51734 0
M  V30 3590 C 323.059 3.309 -2.77721 0
M  V30 3591 C 322.194 4.59329 -2.66816 0
M  V30 3592 C 321.233 4.7354 -3.87848 0
M  V30 3593 N 320.37 5.9327 -3.75467 0
M  V30 3594 H 325.21 1.63449 -2.49176 0
M  V30 3595 H 322.747 0.796957 -1.23641 0
M  V30 3596 H 324.705 3.89977 -1.48235 0
M  V30 3597 H 323.335 3.17098 -0.604068 0
M  V30 3598 H 322.387 2.44639 -2.913 0
M  V30 3599 H 323.699 3.37274 -3.67488 0
M  V30 3600 H 322.853 5.4755 -2.61292 0
M  V30 3601 H 321.592 4.55355 -1.74651 0
M  V30 3602 H 320.597 3.83741 -3.93729 0
M  V30 3603 H 321.822 4.79309 -4.81082 0
M  V30 3604 H 319.768 5.90338 -2.86072 0
M  V30 3605 H 319.685 6.00811 -4.5887 0
M  V30 3606 H 320.953 6.83984 -3.73879 0
M  V30 3607 N 325.182 1.32811 0.848464 0
M  V30 3608 C 326.145 1.22194 1.9391 0
M  V30 3609 C 327.145 0.143404 1.60159 0
M  V30 3610 O 328.335 0.394253 1.6968 0
M  V30 3611 C 325.467 0.88067 3.29328 0
M  V30 3612 H 326.66 2.19127 2.04752 0
M  V30 3613 H 324.213 1.16731 1.0394 0
M  V30 3614 H 324.948 -0.0865776 3.24184 0
M  V30 3615 H 324.733 1.66052 3.55203 0
M  V30 3616 H 326.223 0.830871 4.09251 0
M  V30 3617 N 326.66 -1.06551 1.16123 0
M  V30 3618 C 327.59 -2.15935 0.88851 0
M  V30 3619 C 328.571 -1.69306 -0.164135 0
M  V30 3620 O 329.756 -1.94193 -0.0167857 0
M  V30 3621 C 326.886 -3.45149 0.385942 0
M  V30 3622 C 325.84 -4.05271 1.3762 0
M  V30 3623 C 325.166 -5.29664 0.732137 0
M  V30 3624 C 326.466 -4.44355 2.74493 0
M  V30 3625 H 328.16 -2.39006 1.80323 0
M  V30 3626 H 325.706 -1.14866 0.868435 0
M  V30 3627 H 327.659 -4.21004 0.182647 0
M  V30 3628 H 326.383 -3.21689 -0.564274 0
M  V30 3629 H 325.042 -3.3147 1.56599 0
M  V30 3630 H 324.69 -5.02499 -0.224483 0
M  V30 3631 H 324.39 -5.70848 1.39307 0
M  V30 3632 H 325.914 -6.08218 0.538802 0
M  V30 3633 H 327.328 -5.11303 2.59311 0
M  V30 3634 H 325.725 -4.96515 3.37035 0
M  V30 3635 H 326.795 -3.55339 3.29943 0
M  V30 3636 N 328.138 -0.959301 -1.25041 0
M  V30 3637 C 329.085 -0.482057 -2.2571 0
M  V30 3638 C 330.055 0.467939 -1.59372 0
M  V30 3639 O 331.24 0.380159 -1.86974 0
M  V30 3640 C 328.38 0.229623 -3.44335 0
M  V30 3641 C 327.493 -0.758156 -4.25295 0
M  V30 3642 C 326.628 -0.0234403 -5.31195 0
M  V30 3643 C 325.667 -1.00184 -6.03846 0
M  V30 3644 N 324.804 -0.29769 -7.01469 0
M  V30 3645 H 329.644 -1.34538 -2.65901 0
M  V30 3646 H 327.181 -0.674592 -1.3072 0
M  V30 3647 H 329.139 0.658856 -4.11965 0
M  V30 3648 H 327.769 1.05696 -3.05005 0
M  V30 3649 H 326.821 -1.30586 -3.57284 0
M  V30 3650 H 328.133 -1.50458 -4.75567 0
M  V30 3651 H 327.287 0.464201 -6.04922 0
M  V30 3652 H 326.026 0.755741 -4.81809 0
M  V30 3653 H 325.031 -1.50044 -5.2893 0
M  V30 3654 H 326.256 -1.78133 -6.55321 0
M  V30 3655 H 324.202 0.462668 -6.54366 0
M  V30 3656 H 324.119 -0.983128 -7.4958 0
M  V30 3657 H 325.387 0.16826 -7.79318 0
M  V30 3658 N 329.616 1.39756 -0.72842 0
M  V30 3659 C 330.563 2.30647 -0.0841519 0
M  V30 3660 C 331.533 1.48869 0.7367 0
M  V30 3661 O 332.718 1.77574 0.698015 0
M  V30 3662 C 329.858 3.35165 0.822091 0
M  V30 3663 C 328.971 4.31999 -0.0106663 0
M  V30 3664 C 328.106 5.23585 0.896241 0
M  V30 3665 C 327.145 6.12072 0.0583381 0
M  V30 3666 N 326.282 6.96035 0.920818 0
M  V30 3667 H 331.122 2.85173 -0.864891 0
M  V30 3668 H 328.659 1.40422 -0.438179 0
M  V30 3669 H 330.617 3.94345 1.36189 0
M  V30 3670 H 329.247 2.8211 1.56888 0
M  V30 3671 H 328.299 3.74492 -0.66781 0
M  V30 3672 H 329.611 4.9443 -0.658825 0
M  V30 3673 H 328.765 5.87759 1.50412 0
M  V30 3674 H 327.504 4.61459 1.57819 0
M  V30 3675 H 326.509 5.46916 -0.562389 0
M  V30 3676 H 327.734 6.76261 -0.6203 0
M  V30 3677 H 325.68 6.36485 1.58818 0
M  V30 3678 H 325.597 7.55284 0.32899 0
M  V30 3679 H 326.865 7.64646 1.51447 0
M  V30 3680 N 331.094 0.475555 1.50254 0
M  V30 3681 C 332.057 -0.305016 2.27161 0
M  V30 3682 C 333.057 -0.916519 1.32123 0
M  V30 3683 O 334.247 -0.785003 1.5551 0
M  V30 3684 C 331.379 -1.43496 3.09227 0
M  V30 3685 H 332.572 0.369511 2.97615 0
M  V30 3686 H 330.125 0.229747 1.54602 0
M  V30 3687 H 330.86 -2.14441 2.43281 0
M  V30 3688 H 330.645 -1.00223 3.79075 0
M  V30 3689 H 332.135 -1.98548 3.67381 0
M  V30 3690 N 332.573 -1.56217 0.208337 0
M  V30 3691 C 333.803 -2.02043 -0.431523 0
M  V30 3692 C 334.211 -1.08755 -1.54819 0
M  V30 3693 O 333.554 -0.0870009 -1.83494 0
M  V30 3694 C 333.616 -3.44239 -1.03633 0
M  V30 3695 C 333.28 -4.56965 -0.0567502 0
M  V30 3696 C 334.277 -5.14624 0.738773 0
M  V30 3697 C 331.962 -5.02266 0.0581736 0
M  V30 3698 C 333.956 -6.16045 1.63605 0
M  V30 3699 C 331.643 -6.03528 0.959001 0
M  V30 3700 C 332.641 -6.60293 1.7465 0
M  V30 3701 O 332.329 -7.59586 2.6322 0
M  V30 3702 H 332.061 -0.666772 -0.111313 0
M  V30 3703 H 334.615 -2.02919 0.318277 0
M  V30 3704 H 332.845 -3.40391 -1.83497 0
M  V30 3705 H 334.534 -3.73793 -1.58221 0
M  V30 3706 H 335.3 -4.80483 0.660364 0
M  V30 3707 H 331.179 -4.57771 -0.544633 0
M  V30 3708 H 334.723 -6.60279 2.25116 0
M  V30 3709 H 330.62 -6.37092 1.03848 0
M  V30 3710 H 331.388 -7.77057 2.57148 0
M  V30 3711 N 334.051 0.0651679 -1.57465 0
M  V30 3712 C 334.961 1.09448 -2.07505 0
M  V30 3713 C 335.977 1.41974 -1.00595 0
M  V30 3714 O 337.153 1.52018 -1.32107 0
M  V30 3715 C 334.218 2.38689 -2.51453 0
M  V30 3716 C 333.279 2.13073 -3.72691 0
M  V30 3717 C 332.512 3.36152 -4.14533 0
M  V30 3718 O 332.735 4.45517 -3.56189 0
M  V30 3719 O 331.669 3.23974 -5.07272 0
M  V30 3720 H 335.495 0.69935 -2.95538 0
M  V30 3721 H 333.08 0.279752 -1.46757 0
M  V30 3722 H 334.962 3.14736 -2.80212 0
M  V30 3723 H 333.637 2.77568 -1.66546 0
M  V30 3724 H 332.544 1.34709 -3.49005 0
M  V30 3725 H 333.877 1.79071 -4.5847 0
M  V30 3726 N 335.529 1.53961 0.336706 0
M  V30 3727 C 336.778 1.70751 1.07363 0
M  V30 3728 C 337.091 0.481061 1.89592 0
M  V30 3729 O 338.297 0.530046 2.66276 0
M  V30 3730 C 336.753 3.01965 1.95818 0
M  V30 3731 C 336.361 4.31971 1.18764 0
M  V30 3732 C 338.105 3.28121 2.69327 0
M  V30 3733 C 336.012 5.54255 2.06289 0
M  V30 3734 H 334.942 0.636292 0.404535 0
M  V30 3735 H 337.593 1.80459 0.332681 0
M  V30 3736 H 335.975 2.86132 2.7376 0
M  V30 3737 H 337.149 4.5853 0.456849 0
M  V30 3738 H 335.464 4.12481 0.569946 0
M  V30 3739 H 338.061 4.16673 3.35094 0
M  V30 3740 H 338.404 2.45426 3.36261 0
M  V30 3741 H 338.937 3.44762 1.98454 0
M  V30 3742 H 335.676 6.39513 1.43885 0
M  V30 3743 H 335.196 5.31935 2.77138 0
M  V30 3744 H 336.875 5.90159 2.65182 0
M  V30 3745 N 337.007 -0.598083 1.45811 0
M  V30 3746 C 337.939 -1.72231 1.51225 0
M  V30 3747 C 338.952 -1.57757 0.402059 0
M  V30 3748 O 340.141 -1.65464 0.669624 0
M  V30 3749 C 337.241 -3.10331 1.3619 0
M  V30 3750 C 336.414 -3.50955 2.61054 0
M  V30 3751 C 335.473 -4.68055 2.40439 0
M  V30 3752 O 334.499 -4.74691 3.14097 0
M  V30 3753 N 335.701 -5.61941 1.45612 0
M  V30 3754 H 338.466 -1.68046 2.48154 0
M  V30 3755 H 336.027 -0.783637 1.41671 0
M  V30 3756 H 338.019 -3.86439 1.20195 0
M  V30 3757 H 336.589 -3.0897 0.475015 0
M  V30 3758 H 335.809 -2.64711 2.92099 0
M  V30 3759 H 337.097 -3.74858 3.44034 0
M  V30 3760 H 336.495 -5.59301 0.848431 0
M  V30 3761 H 335.052 -6.37542 1.35585 0
M  V30 3762 N 338.485 -1.33259 -0.841409 0
M  V30 3763 C 339.432 -1.23302 -1.95103 0
M  V30 3764 C 340.402 -0.112204 -1.65721 0
M  V30 3765 O 341.587 -0.290038 -1.88583 0
M  V30 3766 C 338.727 -0.975583 -3.31023 0
M  V30 3767 C 337.84 -2.18243 -3.72819 0
M  V30 3768 C 336.975 -1.85936 -4.97595 0
M  V30 3769 C 336.014 -3.02866 -5.3192 0
M  V30 3770 N 335.151 -2.70565 -6.47873 0
M  V30 3771 H 339.991 -2.18207 -2.02952 0
M  V30 3772 H 337.528 -1.0851 -0.993173 0
M  V30 3773 H 339.486 -0.80677 -4.09325 0
M  V30 3774 H 338.116 -0.0632755 -3.22738 0
M  V30 3775 H 337.168 -2.46107 -2.90061 0
M  V30 3776 H 338.48 -3.05666 -3.94169 0
M  V30 3777 H 337.634 -1.65684 -5.83638 0
M  V30 3778 H 336.373 -0.957452 -4.78209 0
M  V30 3779 H 335.378 -3.23736 -4.44382 0
M  V30 3780 H 336.603 -3.93809 -5.53255 0
M  V30 3781 H 334.549 -1.8293 -6.29978 0
M  V30 3782 H 334.466 -3.51519 -6.69306 0
M  V30 3783 H 335.734 -2.53774 -7.37034 0
M  V30 3784 N 339.963 1.05934 -1.16686 0
M  V30 3785 C 340.911 2.15603 -0.872817 0
M  V30 3786 C 341.905 1.68647 0.159576 0
M  V30 3787 O 343.111 1.79995 0.0132125 0
M  V30 3788 H 339.486 0.703885 -0.264671 0
M  V30 3789 H 341.457 2.37613 -1.80507 0
M  V30 3790 C 340.206 3.45457 -0.394344 0
M  V30 3791 H 339.529 3.81984 -1.18019 0
M  V30 3792 H 340.969 4.2339 -0.227408 0
M  V30 3793 C 339.428 3.25021 0.88673 0
M  V30 3794 O 339.958 3.50906 1.95519 0
M  V30 3795 N 338.164 2.78437 0.831925 0
M  V30 3796 H 337.711 2.57572 -0.0377619 0
M  V30 3797 H 337.669 2.65144 1.68956 0
M  V30 3798 N 341.441 0.965919 1.2453 0
M  V30 3799 C 342.388 0.49402 2.25451 0
M  V30 3800 C 343.358 -0.45948 1.59618 0
M  V30 3801 O 344.543 -0.370238 1.87173 0
M  V30 3802 C 341.683 -0.211359 3.44452 0
M  V30 3803 C 340.796 0.7807 4.24887 0
M  V30 3804 C 339.931 0.0516105 5.31175 0
M  V30 3805 C 338.97 1.03385 6.03306 0
M  V30 3806 N 338.107 0.334887 7.01301 0
M  V30 3807 H 342.947 1.35946 2.65184 0
M  V30 3808 H 340.484 0.681515 1.3036 0
M  V30 3809 H 342.442 -0.637 4.12308 0
M  V30 3810 H 341.072 -1.04077 3.05562 0
M  V30 3811 H 340.124 1.32479 3.56586 0
M  V30 3812 H 341.436 1.52978 4.74762 0
M  V30 3813 H 340.59 -0.432114 6.05159 0
M  V30 3814 H 339.329 -0.730179 4.82203 0
M  V30 3815 H 338.334 1.52847 5.28127 0
M  V30 3816 H 339.559 1.81606 6.54367 0
M  V30 3817 H 337.505 -0.427959 6.54603 0
M  V30 3818 H 337.422 1.02287 7.49048 0
M  V30 3819 H 338.69 -0.126928 7.79397 0
M  V30 3820 N 342.919 -1.39368 0.735821 0
M  V30 3821 C 344.33 -1.83313 0.354015 0
M  V30 3822 C 344.681 -1.61461 -1.11466 0
M  V30 3823 O 343.806 -1.10621 -1.85989 0
M  V30 3824 C 344.401 -3.32781 0.635769 0
M  V30 3825 C 342.96 -3.75142 0.307448 0
M  V30 3826 C 342.107 -2.62358 0.897974 0
M  V30 3827 H 345.058 -1.28349 0.933398 0
M  V30 3828 H 345.079 -3.80388 -0.0921773 0
M  V30 3829 H 344.591 -3.48654 1.70476 0
M  V30 3830 H 342.692 -3.64857 -0.755674 0
M  V30 3831 H 342.805 -4.72532 0.790583 0
M  V30 3832 H 341.169 -2.52624 0.324551 0
M  V30 3833 H 341.952 -2.81036 1.97164 0
M  V30 3834 N 344.397 -0.483516 -1.5 0
M  V30 3835 C 345.813 -0.138404 -1.58999 0
M  V30 3836 C 346.013 1.35597 -1.4905 0
M  V30 3837 O 345.069 2.13039 -1.35539 0
M  V30 3838 C 346.382 -0.699658 -2.92447 0
M  V30 3839 C 347.93 -0.664195 -3.05872 0
M  V30 3840 C 348.405 -1.20321 -4.41913 0
M  V30 3841 N 349.896 -1.16315 -4.48358 0
M  V30 3842 C 350.631 -1.55058 -5.52037 0
M  V30 3843 N 350.127 -2.01311 -6.62907 0
M  V30 3844 N 351.92 -1.46584 -5.42651 0
M  V30 3845 H 344.071 -1.45529 -1.5471 0
M  V30 3846 H 346.334 -0.60258 -0.731848 0
M  V30 3847 H 346.04 -1.747 -3.05242 0
M  V30 3848 H 345.914 -0.150194 -3.76901 0
M  V30 3849 H 348.301 0.374272 -2.92717 0
M  V30 3850 H 348.382 -1.25061 -2.23144 0
M  V30 3851 H 348.026 -2.24037 -4.55818 0
M  V30 3852 H 347.956 -0.592896 -5.23252 0
M  V30 3853 H 350.447 -0.824058 -3.68806 0
M  V30 3854 H 350.76 -2.2899 -7.38095 0
M  V30 3855 H 349.105 -2.05273 -6.63994 0
M  V30 3856 H 352.296 -1.10281 -4.54924 0
M  V30 3857 H 352.469 -1.77103 -6.23329 0
M  V30 3858 N 345.875 1.56104 -0.216619 0
M  V30 3859 C 346.823 2.21434 0.712036 0
M  V30 3860 C 347.817 1.19218 1.20348 0
M  V30 3861 O 349.023 1.3731 1.16387 0
M  V30 3862 H 345.398 0.70992 0.248026 0
M  V30 3863 H 347.369 2.98083 0.137558 0
M  V30 3864 C 346.118 2.90434 1.91163 0
M  V30 3865 H 345.441 3.68842 1.54258 0
M  V30 3866 H 346.881 3.39552 2.5393 0
M  V30 3867 C 345.34 1.92635 2.76394 0
M  V30 3868 O 345.87 1.44017 3.74996 0
M  V30 3869 N 344.076 1.60392 2.42328 0
M  V30 3870 H 343.623 2.00122 1.622 0
M  V30 3871 H 343.581 0.952159 2.99635 0
M  V30 3872 N 347.353 -0.0568162 1.57498 0
M  V30 3873 C 348.63 -0.786954 1.79071 0
M  V30 3874 C 349.01 -1.95028 0.80792 0
M  V30 3875 O 348.358 -2.27968 -0.155858 0
M  V30 3876 C 348.568 -1.24594 3.26002 0
M  V30 3877 C 349.916 -1.67323 3.90241 0
M  V30 3878 O 350.94 -1.34124 3.29984 0
M  V30 3879 O 349.799 -2.28842 4.9628 0
M  V30 3880 H 346.893 -0.378262 0.735423 0
M  V30 3881 H 349.439 -0.035734 1.69662 0
M  V30 3882 H 348.211 -0.41423 3.89101 0
M  V30 3883 H 347.834 -2.05803 3.40192 0
M  V30 3884 N 348.832 -1.54138 -0.328536 0
M  V30 3885 C 350.109 -1.62749 -1.08499 0
M  V30 3886 C 350.489 -0.458198 -2.06067 0
M  V30 3887 O 349.837 0.548046 -2.2183 0
M  V30 3888 C 350.047 -2.99519 -1.79135 0
M  V30 3889 C 351.395 -3.55394 -2.32337 0
M  V30 3890 O 352.419 -3.01792 -1.89209 0
M  V30 3891 O 351.278 -4.49186 -3.11279 0
M  V30 3892 H 348.372 -0.65886 -0.499832 0
M  V30 3893 H 350.918 -1.66484 -0.328826 0
M  V30 3894 H 349.69 -3.76061 -1.08139 0
M  V30 3895 H 349.313 -2.99441 -2.61574 0
M  V30 3896 N 350.31 0.590341 -1.46126 0
M  V30 3897 C 351.559 1.34499 -1.50309 0
M  V30 3898 C 351.872 1.94977 -0.156021 0
M  V30 3899 O 353.078 2.71395 -0.0756037 0
M  V30 3900 C 351.534 2.43723 -2.64815 0
M  V30 3901 C 351.142 1.89582 -4.0591 0
M  V30 3902 C 352.886 3.20579 -2.78262 0
M  V30 3903 C 350.793 2.9639 -5.11769 0
M  V30 3904 H 349.723 0.505593 -0.559368 0
M  V30 3905 H 352.374 0.630848 -1.72315 0
M  V30 3906 H 350.756 3.17902 -2.36124 0
M  V30 3907 H 351.93 1.21997 -4.44357 0
M  V30 3908 H 350.245 1.25418 -3.97063 0
M  V30 3909 H 352.842 4.00276 -3.54519 0
M  V30 3910 H 353.185 3.72684 -1.85505 0
M  V30 3911 H 353.718 2.53505 -3.06562 0
M  V30 3912 H 350.457 2.49181 -6.06291 0
M  V30 3913 H 349.977 3.62487 -4.77873 0
M  V30 3914 H 351.656 3.60474 -5.37278 0
M  V30 3915 N 351.788 1.33704 0.83433 0
M  V30 3916 C 353.035 1.25417 1.58987 0
M  V30 3917 C 353.363 -0.178869 1.93676 0
M  V30 3918 O 352.618 -1.13723 1.59265 0
M  V30 3919 C 352.917 2.07926 2.90692 0
M  V30 3920 C 352.583 3.57066 2.75345 0
M  V30 3921 C 351.245 3.97724 2.70867 0
M  V30 3922 C 353.597 4.51817 2.59828 0
M  V30 3923 C 350.925 5.31344 2.48778 0
M  V30 3924 C 353.277 5.85604 2.39272 0
M  V30 3925 C 351.941 6.25439 2.33199 0
M  V30 3926 H 351.211 0.458934 0.581774 0
M  V30 3927 H 353.858 1.65335 0.966261 0
M  V30 3928 H 352.163 1.608 3.57282 0
M  V30 3929 H 353.86 1.98868 3.48213 0
M  V30 3930 H 350.45 3.24785 2.79665 0
M  V30 3931 H 354.634 4.21311 2.62319 0
M  V30 3932 H 349.89 5.61241 2.42526 0
M  V30 3933 H 354.064 6.58623 2.2625 0
M  V30 3934 H 351.691 7.28914 2.15843 0
M  V30 3935 N 353.266 -1.05314 1.17247 0
M  V30 3936 C 354.213 -2.13031 0.888058 0
M  V30 3937 C 355.183 -1.65253 -0.167537 0
M  V30 3938 O 356.368 -1.90775 -0.0305974 0
M  V30 3939 C 353.508 -3.42702 0.406147 0
M  V30 3940 C 352.621 -4.04161 1.52572 0
M  V30 3941 C 351.756 -5.21744 0.997808 0
M  V30 3942 C 350.795 -5.75207 2.09291 0
M  V30 3943 N 349.932 -6.84094 1.57986 0
M  V30 3944 H 354.772 -2.36698 1.81048 0
M  V30 3945 H 352.309 -1.16121 0.903013 0
M  V30 3946 H 354.267 -4.17059 0.108305 0
M  V30 3947 H 352.897 -3.19222 -0.479313 0
M  V30 3948 H 351.949 -3.27253 1.93931 0
M  V30 3949 H 353.261 -4.39881 2.35172 0
M  V30 3950 H 352.415 -6.03168 0.653739 0
M  V30 3951 H 351.154 -4.87495 0.141232 0
M  V30 3952 H 350.159 -4.92414 2.44557 0
M  V30 3953 H 351.384 -6.11505 2.95362 0
M  V30 3954 H 349.33 -6.51745 0.74598 0
M  V30 3955 H 349.247 -7.18811 2.34195 0
M  V30 3956 H 350.515 -7.69172 1.26468 0
M  V30 3957 N 354.744 -0.972509 -1.24016 0
M  V30 3958 C 355.993 -0.632603 -1.91523 0
M  V30 3959 C 356.306 0.836641 -1.76804 0
M  V30 3960 O 357.512 1.28728 -2.39043 0
M  V30 3961 C 355.968 -1.08082 -3.43287 0
M  V30 3962 C 355.576 -2.57386 -3.66683 0
M  V30 3963 C 357.32 -0.814288 -4.16617 0
M  V30 3964 C 355.227 -2.95915 -5.12043 0
M  V30 3965 H 354.157 -0.232898 -0.717129 0
M  V30 3966 H 356.808 -1.17936 -1.40582 0
M  V30 3967 H 355.19 -0.462339 -3.93292 0
M  V30 3968 H 356.364 -3.24405 -3.27258 0
M  V30 3969 H 354.679 -2.81701 -3.06649 0
M  V30 3970 H 357.276 -1.0781 -5.23718 0
M  V30 3971 H 357.619 0.24955 -4.15551 0
M  V30 3972 H 358.152 -1.39397 -3.72577 0
M  V30 3973 H 354.891 -4.0139 -5.18234 0
M  V30 3974 H 354.411 -2.33584 -5.52448 0
M  V30 3975 H 356.09 -2.86086 -5.80314 0
M  V30 3976 N 356.222 1.38976 -0.743202 0
M  V30 3977 C 357.471 1.99581 -0.291592 0
M  V30 3978 C 357.784 1.59656 1.13001 0
M  V30 3979 O 358.99 2.13157 1.68156 0
M  V30 3980 C 357.446 3.56813 -0.470391 0
M  V30 3981 C 357.054 4.05695 -1.90041 0
M  V30 3982 C 358.798 4.24423 -0.0809709 0
M  V30 3983 C 356.705 5.5553 -2.02832 0
M  V30 3984 H 355.635 0.746615 -0.105272 0
M  V30 3985 H 358.286 1.58872 -0.918258 0
M  V30 3986 H 356.668 3.95359 0.225299 0
M  V30 3987 H 357.842 3.78464 -2.62872 0
M  V30 3988 H 356.157 3.50775 -2.24379 0
M  V30 3989 H 358.754 5.34474 -0.155445 0
M  V30 3990 H 359.097 4.04962 0.96497 0
M  V30 3991 H 359.63 3.9108 -0.728124 0
M  V30 3992 H 356.369 5.79881 -3.05643 0
M  V30 3993 H 355.889 5.84537 -1.34448 0
M  V30 3994 H 357.568 6.21069 -1.81335 0
M  V30 3995 N 357.7 0.491464 1.49741 0
M  V30 3996 C 358.633 -0.338464 2.25676 0
M  V30 3997 C 359.611 -0.978676 1.29849 0
M  V30 3998 O 360.795 -1.01064 1.59117 0
M  V30 3999 C 357.922 -1.47588 3.04853 0
M  V30 4000 C 356.968 -0.951 4.15762 0
M  V30 4001 S 357.801 0.150626 5.35288 0
M  V30 4002 C 358.957 -0.990178 6.18018 0
M  V30 4003 H 359.19 0.306068 2.9572 0
M  V30 4004 H 356.723 0.276622 1.51902 0
M  V30 4005 H 358.681 -2.12764 3.51058 0
M  V30 4006 H 357.342 -2.09199 2.34296 0
M  V30 4007 H 356.535 -1.80311 4.70642 0
M  V30 4008 H 356.137 -0.376607 3.72099 0
M  V30 4009 H 358.429 -1.89748 6.50386 0
M  V30 4010 H 359.372 -0.480205 7.0647 0
M  V30 4011 H 359.78 -1.25321 5.50413 0
M  V30 4012 N 359.178 -1.55987 0.224894 0
M  V30 4013 C 360.141 -2.19178 -0.670348 0
M  V30 4014 C 361.141 -1.15461 -1.11917 0
M  V30 4015 O 362.331 -1.40675 -1.02743 0
M  V30 4016 C 359.463 -2.81777 -1.9187 0
M  V30 4017 H 360.656 -2.99662 -0.119364 0
M  V30 4018 H 358.209 -1.5628 -0.0247128 0
M  V30 4019 H 358.944 -2.05172 -2.51147 0
M  V30 4020 H 358.729 -3.57732 -1.60531 0
M  V30 4021 H 360.219 -3.30205 -2.55645 0
M  V30 4022 N 360.656 0.0484629 -1.57525 0
M  V30 4023 C 361.905 0.742065 -1.87553 0
M  V30 4024 C 362.218 1.77545 -0.820802 0
M  V30 4025 O 363.424 2.52027 -1.00967 0
M  V30 4026 C 361.88 1.37081 -3.32771 0
M  V30 4027 C 361.488 0.374786 -4.4643 0
M  V30 4028 C 363.232 2.04542 -3.71972 0
M  V30 4029 C 361.139 1.01077 -5.82698 0
M  V30 4030 H 360.069 0.280903 -0.699721 0
M  V30 4031 H 362.72 -0.00411877 -1.835 0
M  V30 4032 H 361.102 2.16605 -3.31509 0
M  V30 4033 H 362.276 -0.392331 -4.59127 0
M  V30 4034 H 360.591 -0.196653 -4.15935 0
M  V30 4035 H 363.188 2.52943 -4.71088 0
M  V30 4036 H 363.531 2.85515 -3.02964 0
M  V30 4037 H 364.064 1.31819 -3.75325 0
M  V30 4038 H 360.803 0.240878 -6.55057 0
M  V30 4039 H 360.323 1.74819 -5.73758 0
M  V30 4040 H 362.002 1.52383 -6.28799 0
M  V30 4041 N 362.134 1.5431 0.320358 0
M  V30 4042 C 363.38 1.72924 1.05949 0
M  V30 4043 C 363.713 0.503185 1.87568 0
M  V30 4044 O 362.988 -0.499839 1.87968 0
M  V30 4045 C 363.271 3.00676 1.98156 0
M  V30 4046 C 363.124 4.3354 1.19845 0
M  V30 4047 C 364.443 3.24198 2.9763 0
M  V30 4048 H 361.562 0.629195 0.383774 0
M  V30 4049 H 364.204 1.87008 0.335854 0
M  V30 4050 H 362.354 2.888 2.59859 0
M  V30 4051 H 364.026 4.57305 0.605773 0
M  V30 4052 H 362.269 4.309 0.500784 0
M  V30 4053 H 362.94 5.19156 1.87567 0
M  V30 4054 H 365.416 3.35557 2.4605 0
M  V30 4055 H 364.292 4.14938 3.59329 0
M  V30 4056 H 364.553 2.41577 3.7026 0
M  V30 4057 N 363.613 -0.582584 1.46437 0
M  V30 4058 C 364.543 -1.70187 1.59871 0
M  V30 4059 C 365.524 -1.64066 0.449042 0
M  V30 4060 O 366.709 -1.82081 0.6753 0
M  V30 4061 C 363.839 -3.08827 1.58881 0
M  V30 4062 C 362.793 -3.29779 2.72819 0
M  V30 4063 C 362.119 -4.68947 2.5689 0
M  V30 4064 C 363.419 -3.17601 4.1464 0
M  V30 4065 H 365.113 -1.592 2.53566 0
M  V30 4066 H 362.659 -0.764472 1.22032 0
M  V30 4067 H 364.612 -3.86951 1.66873 0
M  V30 4068 H 363.336 -3.20713 0.617306 0
M  V30 4069 H 361.995 -2.54054 2.64296 0
M  V30 4070 H 361.643 -4.77599 1.57823 0
M  V30 4071 H 361.343 -4.83919 3.33312 0
M  V30 4072 H 362.867 -5.4924 2.66773 0
M  V30 4073 H 364.281 -3.8557 4.24274 0
M  V30 4074 H 362.678 -3.44094 4.9165 0
M  V30 4075 H 363.748 -2.14681 4.34788 0
M  V30 4076 N 365.091 -1.34144 -0.827227 0
M  V30 4077 C 366.338 -1.26258 -1.58319 0
M  V30 4078 C 366.666 0.168595 -1.93768 0
M  V30 4079 O 365.921 1.12877 -1.59866 0
M  V30 4080 C 366.22 -2.09464 -2.89585 0
M  V30 4081 C 365.886 -3.58521 -2.73448 0
M  V30 4082 C 364.548 -3.99155 -2.68754 0
M  V30 4083 C 366.9 -4.53189 -2.57428 0
M  V30 4084 C 364.228 -5.32656 -2.45957 0
M  V30 4085 C 366.58 -5.86864 -2.36163 0
M  V30 4086 C 365.244 -6.26667 -2.29879 0
M  V30 4087 H 364.514 -0.462013 -0.579332 0
M  V30 4088 H 367.161 -1.65845 -0.95748 0
M  V30 4089 H 365.466 -1.62692 -3.56425 0
M  V30 4090 H 367.163 -2.00712 -3.47154 0
M  V30 4091 H 363.753 -3.26264 -2.77939 0
M  V30 4092 H 367.937 -4.22696 -2.60081 0
M  V30 4093 H 363.193 -5.62519 -2.39546 0
M  V30 4094 H 367.367 -6.59813 -2.22754 0
M  V30 4095 H 364.994 -7.30049 -2.11975 0
M  V30 4096 N 366.569 1.04691 -1.17803 0
M  V30 4097 C 367.816 1.77782 -0.969532 0
M  V30 4098 C 368.144 1.87926 0.501401 0
M  V30 4099 O 367.399 1.37918 1.38842 0
M  V30 4100 C 367.698 3.21467 -1.56186 0
M  V30 4101 C 367.364 3.3137 -3.05786 0
M  V30 4102 C 366.026 3.3378 -3.46619 0
M  V30 4103 C 368.378 3.31976 -4.01797 0
M  V30 4104 C 365.706 3.34431 -4.82051 0
M  V30 4105 C 368.058 3.34167 -5.37136 0
M  V30 4106 C 366.722 3.34866 -5.77426 0
M  V30 4107 H 365.992 0.650549 -0.354777 0
M  V30 4108 H 368.639 1.23006 -1.46772 0
M  V30 4109 H 366.944 3.79203 -0.985515 0
M  V30 4110 H 368.641 3.76652 -1.37602 0
M  V30 4111 H 365.231 3.3021 -2.73238 0
M  V30 4112 H 369.415 3.29311 -3.71306 0
M  V30 4113 H 364.671 3.33285 -5.12573 0
M  V30 4114 H 368.845 3.33585 -6.11305 0
M  V30 4115 H 366.472 3.35124 -6.82346 0
M  V30 4116 N 368.047 0.979072 1.23499 0
M  V30 4117 C 369.294 0.647219 1.91878 0
M  V30 4118 C 369.622 -0.819074 1.76413 0
M  V30 4119 O 368.877 -1.60616 1.11808 0
M  V30 4120 C 369.176 0.981932 3.43646 0
M  V30 4121 C 368.842 2.43822 3.79291 0
M  V30 4122 C 367.504 2.83622 3.88731 0
M  V30 4123 C 369.856 3.3828 3.96505 0
M  V30 4124 C 367.184 4.16897 4.12812 0
M  V30 4125 C 369.536 4.71197 4.22085 0
M  V30 4126 C 368.2 5.10758 4.29747 0
M  V30 4127 H 367.47 0.236834 0.702133 0
M  V30 4128 H 370.117 1.23268 1.46551 0
M  V30 4129 H 368.422 0.314365 3.90537 0
M  V30 4130 H 370.119 0.703395 3.94783 0
M  V30 4131 H 366.709 2.11966 3.72516 0
M  V30 4132 H 370.893 3.0871 3.88603 0
M  V30 4133 H 366.149 4.47157 4.16966 0
M  V30 4134 H 370.323 5.44348 4.34348 0
M  V30 4135 H 367.95 6.1405 4.48159 0
M  V30 4136 N 369.525 -1.3858 0.750561 0
M  V30 4137 C 370.772 -2.00184 0.305373 0
M  V30 4138 C 371.1 -1.59575 -1.11203 0
M  V30 4139 O 370.355 -0.823236 -1.77542 0
M  V30 4140 C 370.654 -3.55455 0.372373 0
M  V30 4141 C 370.32 -4.15765 1.745 0
M  V30 4142 C 368.982 -4.31951 2.12065 0
M  V30 4143 C 371.334 -4.49067 2.64553 0
M  V30 4144 C 368.662 -4.78734 3.39162 0
M  V30 4145 C 371.014 -4.97265 3.91038 0
M  V30 4146 C 369.678 -5.11658 4.28676 0
M  V30 4147 H 368.948 -0.732526 0.111744 0
M  V30 4148 H 371.595 -1.65673 0.960451 0
M  V30 4149 H 369.9 -3.90084 -0.366272 0
M  V30 4150 H 371.597 -4.00999 0.00953918 0
M  V30 4151 H 368.187 -4.03579 1.44297 0
M  V30 4152 H 372.371 -4.36166 2.36796 0
M  V30 4153 H 367.627 -4.88062 3.68246 0
M  V30 4154 H 371.801 -5.22003 4.60962 0
M  V30 4155 H 369.428 -5.47668 5.27222 0
M  V30 4156 N 371.003 -0.499398 -1.49478 0
M  V30 4157 C 372.228 0.044722 -2.07352 0
M  V30 4158 C 372.653 1.30207 -1.35749 0
M  V30 4159 O 372.011 1.76516 -0.413732 0
M  V30 4160 C 372.059 0.283013 -3.59488 0
M  V30 4161 O 371.163 1.35804 -3.89398 0
M  V30 4162 H 370.504 -0.0255147 -0.66351 0
M  V30 4163 H 373.034 -0.698561 -1.92305 0
M  V30 4164 H 373.044 0.515007 -4.04737 0
M  V30 4165 H 371.719 -0.635636 -4.11014 0
M  V30 4166 H 370.296 1.11113 -3.55961 0
M  V30 4167 N 372.481 1.55866 -0.233164 0
M  V30 4168 C 373.727 1.99643 0.389148 0
M  V30 4169 C 374.082 1.11836 1.56558 0
M  V30 4170 O 373.375 0.170848 1.90837 0
M  V30 4171 C 373.569 3.46856 0.861724 0
M  V30 4172 C 373.398 4.48904 -0.267376 0
M  V30 4173 C 372.168 4.99888 -0.737577 0
M  V30 4174 C 374.366 5.02624 -1.08966 0
M  V30 4175 N 372.348 5.8566 -1.84052 0
M  V30 4176 C 373.719 5.85434 -2.04125 0
M  V30 4177 C 375.774 4.84959 -1.12779 0
M  V30 4178 C 374.477 6.52466 -3.02789 0
M  V30 4179 C 376.503 5.52759 -2.10266 0
M  V30 4180 C 375.865 6.35346 -3.04162 0
M  V30 4181 H 371.964 0.774402 0.108742 0
M  V30 4182 H 374.548 1.91572 -0.347596 0
M  V30 4183 H 372.719 3.55352 1.5678 0
M  V30 4184 H 374.451 3.77531 1.45783 0
M  V30 4185 H 371.206 4.7249 -0.324122 0
M  V30 4186 H 371.63 6.33246 -2.39434 0
M  V30 4187 H 376.272 4.20751 -0.415749 0
M  V30 4188 H 373.99 7.15849 -3.74948 0
M  V30 4189 H 377.576 5.41051 -2.13905 0
M  V30 4190 H 376.456 6.86883 -3.78366 0
M  V30 4191 N 373.959 -0.0401083 1.57549 0
M  V30 4192 C 375.208 -0.732108 1.87944 0
M  V30 4193 C 375.521 -1.77107 0.830206 0
M  V30 4194 O 376.727 -2.51488 1.02302 0
M  V30 4195 C 375.183 -1.35315 3.33494 0
M  V30 4196 C 374.791 -0.351105 4.46622 0
M  V30 4197 C 376.535 -2.02566 3.73051 0
M  V30 4198 C 374.442 -0.979859 5.83226 0
M  V30 4199 H 373.372 -0.277188 0.701201 0
M  V30 4200 H 376.023 0.0138501 1.83495 0
M  V30 4201 H 374.405 -2.14844 3.32653 0
M  V30 4202 H 375.579 0.416674 4.58912 0
M  V30 4203 H 373.894 0.218708 4.15825 0
M  V30 4204 H 376.491 -2.50441 4.72423 0
M  V30 4205 H 376.834 -2.83904 3.04474 0
M  V30 4206 H 377.367 -1.29827 3.76018 0
M  V30 4207 H 374.106 -0.206135 6.55176 0
M  V30 4208 H 373.626 -1.71774 5.74677 0
M  V30 4209 H 375.305 -1.49046 6.29599 0
M  V30 4210 N 375.437 -1.54477 -0.31217 0
M  V30 4211 C 376.848 -1.64344 -0.885891 0
M  V30 4212 C 377.199 -0.54485 -1.88483 0
M  V30 4213 O 376.324 0.320387 -2.14015 0
M  V30 4214 C 376.919 -2.97908 -1.61357 0
M  V30 4215 C 375.478 -3.09933 -2.13585 0
M  V30 4216 C 374.625 -2.59971 -0.964897 0
M  V30 4217 H 377.576 -1.58448 -0.0894528 0
M  V30 4218 H 377.597 -2.88706 -2.47848 0
M  V30 4219 H 377.109 -3.77845 -0.886277 0
M  V30 4220 H 375.21 -2.34694 -2.89395 0
M  V30 4221 H 375.323 -4.15916 -2.37804 0
M  V30 4222 H 373.687 -2.16147 -1.34731 0
M  V30 4223 H 374.47 -3.42376 -0.251742 0
M  V30 4224 N 376.915 0.57481 -1.46744 0
M  V30 4225 C 377.865 1.67838 -1.54319 0
M  V30 4226 C 378.849 1.55759 -0.40346 0
M  V30 4227 O 380.041 1.6454 -0.652347 0
M  V30 4228 C 377.17 3.06624 -1.5439 0
M  V30 4229 C 376.256 3.23971 -2.73685 0
M  V30 4230 N 376.647 3.11447 -3.9854 0
M  V30 4231 C 374.945 3.5493 -2.70075 0
M  V30 4232 C 375.646 3.31011 -4.78337 0
M  V30 4233 N 374.622 3.56533 -4.10348 0
M  V30 4234 H 378.424 1.56698 -2.48642 0
M  V30 4235 H 375.938 0.779071 -1.42493 0
M  V30 4236 H 377.935 3.85839 -1.57905 0
M  V30 4237 H 376.595 3.1889 -0.611493 0
M  V30 4238 H 377.606 2.89145 -4.29669 0
M  V30 4239 H 374.283 3.73832 -1.85893 0
M  V30 4240 H 375.673 3.26445 -5.87268 0
M  V30 4241 N 378.394 1.34581 0.820102 0
M  V30 4242 C 379.326 1.22236 1.93884 0
M  V30 4243 C 380.339 0.148776 1.62119 0
M  V30 4244 O 381.528 0.400877 1.7394 0
M  V30 4245 C 378.628 0.856542 3.27897 0
M  V30 4246 C 377.801 2.02569 3.87666 0
M  V30 4247 C 376.86 1.63782 5.00062 0
M  V30 4248 O 375.886 2.35477 5.18208 0
M  V30 4249 N 377.088 0.553611 5.77854 0
M  V30 4250 H 379.853 2.18615 2.05006 0
M  V30 4251 H 377.414 1.27573 0.99683 0
M  V30 4252 H 379.406 0.578806 4.0054 0
M  V30 4253 H 377.976 -0.0171518 3.12595 0
M  V30 4254 H 377.196 2.468 3.07382 0
M  V30 4255 H 378.484 2.80752 4.24329 0
M  V30 4256 H 377.882 -0.0423528 5.65684 0
M  V30 4257 H 376.439 0.335614 6.50935 0
M  V30 4258 N 379.872 -1.04064 1.18357 0
M  V30 4259 C 381.121 -1.76662 0.973313 0
M  V30 4260 C 381.434 -1.89154 -0.497991 0
M  V30 4261 O 382.64 -2.58606 -0.826762 0
M  V30 4262 C 381.096 -3.17624 1.69242 0
M  V30 4263 C 380.704 -3.13225 3.20303 0
M  V30 4264 C 382.448 -3.946 1.56497 0
M  V30 4265 C 380.355 -4.49046 3.84853 0
M  V30 4266 H 379.285 -0.662214 0.36054 0
M  V30 4267 H 381.936 -1.16553 1.41731 0
M  V30 4268 H 380.318 -3.78129 1.1762 0
M  V30 4269 H 381.492 -2.62172 3.78949 0
M  V30 4270 H 379.807 -2.49749 3.33189 0
M  V30 4271 H 382.404 -4.95042 2.02084 0
M  V30 4272 H 382.747 -4.13074 0.517243 0
M  V30 4273 H 383.28 -3.4067 2.05399 0
M  V30 4274 H 380.019 -4.35777 4.89672 0
M  V30 4275 H 379.539 -5.00203 3.30994 0
M  V30 4276 H 381.218 -5.17961 3.87718 0
M  V30 4277 N 381.35 -0.985608 -1.22978 0
M  V30 4278 C 382.597 -0.657386 -1.91532 0
M  V30 4279 C 382.925 0.809707 -1.76845 0
M  V30 4280 O 382.18 1.60021 -1.12658 0
M  V30 4281 C 382.479 -1.00014 -3.43121 0
M  V30 4282 C 382.145 -2.4583 -3.77993 0
M  V30 4283 C 380.807 -2.85679 -3.87222 0
M  V30 4284 C 383.159 -3.40378 -3.94705 0
M  V30 4285 C 380.487 -4.19081 -4.10595 0
M  V30 4286 C 382.839 -4.73429 -4.1958 0
M  V30 4287 C 381.503 -5.1303 -4.27032 0
M  V30 4288 H 380.773 -0.240555 -0.700867 0
M  V30 4289 H 383.42 -1.24044 -1.45895 0
M  V30 4290 H 381.725 -0.335072 -3.90365 0
M  V30 4291 H 383.422 -0.724322 -3.94404 0
M  V30 4292 H 380.012 -2.13939 -3.71387 0
M  V30 4293 H 384.196 -3.10766 -3.8696 0
M  V30 4294 H 379.452 -4.49362 -4.14589 0
M  V30 4295 H 383.626 -5.46644 -4.31455 0
M  V30 4296 H 381.253 -6.16418 -4.44896 0
M  V30 4297 N 382.828 1.3818 -0.7579 0
M  V30 4298 C 384.056 2.04301 -0.326937 0
M  V30 4299 C 384.471 1.57163 1.0462 0
M  V30 4300 O 383.828 0.746626 1.66529 0
M  V30 4301 C 383.879 3.59846 -0.345363 0
M  V30 4302 O 383.6 4.05256 -1.66432 0
M  V30 4303 C 385.101 4.4319 0.098927 0
M  V30 4304 H 382.321 0.656443 -0.139012 0
M  V30 4305 H 384.865 1.76786 -1.02796 0
M  V30 4306 H 383.02 3.86182 0.306955 0
M  V30 4307 H 383.434 4.99709 -1.59345 0
M  V30 4308 H 384.908 5.51989 0.0348745 0
M  V30 4309 H 385.385 4.23947 1.14741 0
M  V30 4310 H 385.991 4.22051 -0.52468 0
M  V30 4311 N 384.306 0.507319 1.49211 0
M  V30 4312 C 385.553 -0.0349529 2.0247 0
M  V30 4313 C 385.881 -1.36409 1.38647 0
M  V30 4314 O 385.136 -1.88841 0.513566 0
M  V30 4315 C 385.435 -0.229513 3.56662 0
M  V30 4316 C 385.101 1.02241 4.39156 0
M  V30 4317 C 383.763 1.36557 4.61417 0
M  V30 4318 C 386.115 1.85428 4.871 0
M  V30 4319 C 383.443 2.53999 5.28868 0
M  V30 4320 C 385.795 3.02028 5.55843 0
M  V30 4321 C 384.459 3.36717 5.76349 0
M  V30 4322 H 383.729 -0.0127902 0.74089 0
M  V30 4323 H 386.376 0.668756 1.79443 0
M  V30 4324 H 384.681 -1.0158 3.78403 0
M  V30 4325 H 386.378 -0.663641 3.9547 0
M  V30 4326 H 382.968 0.745124 4.22073 0
M  V30 4327 H 387.152 1.6023 4.69723 0
M  V30 4328 H 382.408 2.81105 5.42946 0
M  V30 4329 H 386.582 3.66808 5.91967 0
M  V30 4330 H 384.209 4.27821 6.28389 0
M  V30 4331 N 385.784 -1.5574 0.241426 0
M  V30 4332 C 386.714 -2.24133 -0.654722 0
M  V30 4333 C 387.695 -1.21974 -1.1856 0
M  V30 4334 O 388.88 -1.50612 -1.22595 0
M  V30 4335 C 386.01 -2.93659 -1.85423 0
M  V30 4336 C 384.964 -4.0246 -1.45636 0
M  V30 4337 C 384.29 -4.59383 -2.73626 0
M  V30 4338 C 385.59 -5.18468 -0.631506 0
M  V30 4339 H 387.284 -2.99281 -0.0844353 0
M  V30 4340 H 384.83 -1.43947 -0.0391707 0
M  V30 4341 H 386.783 -3.40203 -2.48676 0
M  V30 4342 H 385.507 -2.15991 -2.44981 0
M  V30 4343 H 384.166 -3.56676 -0.847202 0
M  V30 4344 H 383.814 -3.78422 -3.3137 0
M  V30 4345 H 383.514 -5.32826 -2.4773 0
M  V30 4346 H 385.038 -5.08658 -3.37786 0
M  V30 4347 H 386.452 -5.61272 -1.1682 0
M  V30 4348 H 384.849 -5.98266 -0.468831 0
M  V30 4349 H 385.919 -4.8358 0.357506 0
M  V30 4350 N 387.262 0.0317525 -1.57568 0
M  V30 4351 C 388.539 0.758366 -1.803 0
M  V30 4352 C 388.919 1.93718 -0.838845 0
M  V30 4353 O 388.267 2.28187 0.119571 0
M  V30 4354 C 388.477 1.19392 -3.27943 0
M  V30 4355 C 389.825 1.61094 -3.92854 0
M  V30 4356 O 390.849 1.28857 -3.32076 0
M  V30 4357 O 389.708 2.20918 -4.99858 0
M  V30 4358 H 386.802 0.366514 -0.741348 0
M  V30 4359 H 389.348 0.00873765 -1.69698 0
M  V30 4360 H 388.12 0.352275 -3.89711 0
M  V30 4361 H 387.743 2.00365 -3.43424 0
M  V30 4362 N 388.74 1.54641 0.303973 0
M  V30 4363 C 389.986 1.74038 1.04109 0
M  V30 4364 C 390.319 0.523051 1.87024 0
M  V30 4365 O 389.594 -0.479874 1.88487 0
M  V30 4366 C 389.877 3.02761 1.94955 0
M  V30 4367 C 389.73 4.34787 1.1524 0
M  V30 4368 C 391.049 3.27336 2.94175 0
M  V30 4369 H 388.168 0.63323 0.377079 0
M  V30 4370 H 390.81 1.87354 0.316001 0
M  V30 4371 H 388.96 2.9154 2.56782 0
M  V30 4372 H 390.632 4.57922 0.557236 0
M  V30 4373 H 388.875 4.31407 0.455053 0
M  V30 4374 H 389.546 5.21116 1.8205 0
M  V30 4375 H 392.022 3.38148 2.42477 0
M  V30 4376 H 390.898 4.18726 3.54908 0
M  V30 4377 H 391.159 2.45491 3.67677 0
M  V30 4378 N 390.218 -0.567019 1.47046 0
M  V30 4379 C 391.148 -1.68482 1.61667 0
M  V30 4380 C 392.129 -1.6358 0.466418 0
M  V30 4381 O 393.314 -1.81354 0.694574 0
M  V30 4382 C 390.444 -3.07124 1.62148 0
M  V30 4383 C 389.398 -3.26867 2.76301 0
M  V30 4384 C 388.724 -4.66196 2.61849 0
M  V30 4385 C 390.024 -3.13186 4.17986 0
M  V30 4386 H 391.718 -1.56502 2.5524 0
M  V30 4387 H 389.264 -0.751486 1.22836 0
M  V30 4388 H 391.217 -3.8516 1.70968 0
M  V30 4389 H 389.941 -3.2004 0.651287 0
M  V30 4390 H 388.6 -2.51237 2.66975 0
M  V30 4391 H 388.248 -4.75898 1.62879 0
M  V30 4392 H 387.948 -4.80356 3.38425 0
M  V30 4393 H 389.472 -5.46379 2.72584 0
M  V30 4394 H 390.886 -3.81049 4.2834 0
M  V30 4395 H 389.283 -3.3886 4.95272 0
M  V30 4396 H 390.353 -2.10057 4.3704 0
M  V30 4397 N 391.696 -1.35014 -0.812953 0
M  V30 4398 C 392.945 -1.27269 -1.56479 0
M  V30 4399 C 393.258 0.152771 -1.95002 0
M  V30 4400 O 394.464 0.352451 -2.69203 0
M  V30 4401 C 392.92 -2.23159 -2.82362 0
M  V30 4402 C 392.528 -3.71016 -2.511 0
M  V30 4403 C 394.272 -2.24342 -3.60376 0
M  V30 4404 C 392.179 -4.58746 -3.73237 0
M  V30 4405 H 391.109 -0.472829 -0.587324 0
M  V30 4406 H 393.76 -1.6024 -0.894171 0
M  V30 4407 H 392.142 -1.83151 -3.51101 0
M  V30 4408 H 393.316 -4.1962 -1.90409 0
M  V30 4409 H 391.631 -3.72378 -1.86343 0
M  V30 4410 H 394.228 -2.87107 -4.51081 0
M  V30 4411 H 394.571 -1.24542 -3.97234 0
M  V30 4412 H 395.104 -2.62846 -2.98591 0
M  V30 4413 H 391.843 -5.59521 -3.41492 0
M  V30 4414 H 391.363 -4.14871 -4.33176 0
M  V30 4415 H 393.042 -4.73852 -4.40537 0
M  V30 4416 N 393.175 1.03435 -1.18907 0
M  V30 4417 C 394.107 2.1165 -0.879595 0
M  V30 4418 C 395.12 1.62316 0.125439 0
M  V30 4419 O 396.309 1.78201 -0.103245 0
M  V30 4420 C 393.409 3.37622 -0.294042 0
M  V30 4421 C 392.582 4.16166 -1.34629 0
M  V30 4422 C 391.641 5.20457 -0.775274 0
M  V30 4423 O 390.667 5.50379 -1.4516 0
M  V30 4424 N 391.869 5.78949 0.424126 0
M  V30 4425 H 394.634 2.38791 -1.81105 0
M  V30 4426 H 392.195 1.19681 -1.09032 0
M  V30 4427 H 394.187 4.04572 0.101679 0
M  V30 4428 H 392.757 3.07873 0.541575 0
M  V30 4429 H 391.977 3.44444 -1.91707 0
M  V30 4430 H 393.265 4.65432 -2.05549 0
M  V30 4431 H 392.663 5.56948 0.991209 0
M  V30 4432 H 391.22 6.47334 0.761691 0
M  V30 4433 N 394.653 0.992116 1.22453 0
M  V30 4434 C 395.583 0.561677 2.26644 0
M  V30 4435 C 396.564 -0.411055 1.65059 0
M  V30 4436 O 397.749 -0.301861 1.9184 0
M  V30 4437 C 394.879 -0.125247 3.47074 0
M  V30 4438 C 393.833 0.765948 4.21091 0
M  V30 4439 C 393.159 -0.0538484 5.34673 0
M  V30 4440 C 394.459 2.06242 4.79856 0
M  V30 4441 H 396.153 1.43259 2.62902 0
M  V30 4442 H 393.699 0.690283 1.26377 0
M  V30 4443 H 395.652 -0.437764 4.1912 0
M  V30 4444 H 394.376 -1.03069 3.0991 0
M  V30 4445 H 393.035 1.0621 3.50878 0
M  V30 4446 H 392.683 -0.960188 4.9375 0
M  V30 4447 H 392.383 0.539415 5.85119 0
M  V30 4448 H 393.907 -0.360477 6.09535 0
M  V30 4449 H 395.321 1.8139 5.43848 0
M  V30 4450 H 393.718 2.60444 5.40638 0
M  V30 4451 H 394.788 2.74167 3.99951 0
M  V30 4452 N 396.131 -1.37776 0.765217 0
M  V30 4453 C 397.379 -1.99454 0.325943 0
M  V30 4454 C 397.7 -1.61049 -1.09947 0
M  V30 4455 O 396.97 -0.872821 -1.75381 0
M  V30 4456 H 395.55 -0.737697 0.117525 0
M  V30 4457 H 398.212 -1.68359 0.981895 0
M  V30 4458 H 397.308 -3.09547 0.398353 0
M  V30 4459 N 397.609 -0.515225 -1.4894 0
M  V30 4460 C 398.858 0.0261361 -2.01683 0
M  V30 4461 C 399.171 1.36719 -1.39883 0
M  V30 4462 O 400.377 1.99606 -1.84037 0
M  V30 4463 C 398.833 0.0970111 -3.59769 0
M  V30 4464 C 398.441 -1.23825 -4.30548 0
M  V30 4465 C 400.185 0.587981 -4.20408 0
M  V30 4466 C 398.092 -1.12877 -5.80528 0
M  V30 4467 H 397.022 0.0135398 -0.753878 0
M  V30 4468 H 399.673 -0.656787 -1.71343 0
M  V30 4469 H 398.055 0.844694 -3.86886 0
M  V30 4470 H 399.229 -2.00034 -4.15118 0
M  V30 4471 H 397.544 -1.66379 -3.81716 0
M  V30 4472 H 400.141 0.68763 -5.3026 0
M  V30 4473 H 400.484 1.59026 -3.84729 0
M  V30 4474 H 401.017 -0.103582 -3.97665 0
M  V30 4475 H 397.756 -2.10575 -6.20756 0
M  V30 4476 H 397.276 -0.407799 -5.98412 0
M  V30 4477 H 398.955 -0.813332 -6.41868 0
M  V30 4478 N 399.087 1.5561 -0.249682 0
M  V30 4479 C 400.336 1.98187 0.37479 0
M  V30 4480 C 400.649 1.14111 1.58865 0
M  V30 4481 O 401.855 1.46714 2.28445 0
M  V30 4482 C 400.311 3.52661 0.718192 0
M  V30 4483 C 399.919 4.45481 -0.474428 0
M  V30 4484 C 401.663 4.03888 1.3067 0
M  V30 4485 C 399.57 5.91303 -0.107026 0
M  V30 4486 H 398.5 0.740159 0.143808 0
M  V30 4487 H 401.151 1.80125 -0.350336 0
M  V30 4488 H 399.533 3.66429 1.50152 0
M  V30 4489 H 400.707 4.43473 -1.25172 0
M  V30 4490 H 399.022 4.04751 -0.978052 0
M  V30 4491 H 401.619 5.10358 1.59496 0
M  V30 4492 H 401.962 3.51401 2.23211 0
M  V30 4493 H 402.495 3.93457 0.586211 0
M  V30 4494 H 399.234 6.47833 -0.999642 0
M  V30 4495 H 398.754 5.9644 0.634013 0
M  V30 4496 H 400.433 6.46258 0.309807 0
M  V30 4497 N 400.565 -0.0233959 1.57583 0
M  V30 4498 C 401.981 -0.379134 1.55031 0
M  V30 4499 C 402.181 -1.76255 0.976548 0
M  V30 4500 O 401.237 -2.45266 0.600078 0
M  V30 4501 C 402.55 -0.275792 2.99433 0
M  V30 4502 C 404.098 -0.352458 3.11009 0
M  V30 4503 C 404.573 -0.278501 4.57152 0
M  V30 4504 N 406.064 -0.337123 4.61972 0
M  V30 4505 C 406.799 -0.302876 5.726 0
M  V30 4506 N 406.295 -0.220589 6.92449 0
M  V30 4507 N 408.088 -0.353023 5.6099 0
M  V30 4508 H 400.239 0.881869 1.93227 0
M  V30 4509 H 402.502 0.335867 0.886509 0
M  V30 4510 H 402.208 0.675108 3.4516 0
M  V30 4511 H 402.082 -1.06721 3.61788 0
M  V30 4512 H 404.469 -1.29379 2.65226 0
M  V30 4513 H 404.55 0.468409 2.51475 0
M  V30 4514 H 404.194 0.659189 5.03604 0
M  V30 4515 H 404.124 -1.11755 5.14605 0
M  V30 4516 H 406.615 -0.403002 3.75745 0
M  V30 4517 H 406.928 -0.199713 7.72542 0
M  V30 4518 H 405.273 -0.186555 6.9475 0
M  V30 4519 H 408.464 -0.415339 4.66254 0
M  V30 4520 H 408.637 -0.322866 6.47195 0
M  V30 4521 N 402.043 -1.548 -0.295768 0
M  V30 4522 C 403.32 -1.65014 -1.05023 0
M  V30 4523 C 403.7 -0.501805 -2.05049 0
M  V30 4524 O 403.048 0.500869 -2.22943 0
M  V30 4525 C 403.258 -3.03252 -1.72741 0
M  V30 4526 C 404.606 -3.60242 -2.24746 0
M  V30 4527 O 405.63 -3.05737 -1.82765 0
M  V30 4528 O 404.489 -4.55687 -3.01681 0
M  V30 4529 H 401.583 -0.669314 -0.485744 0
M  V30 4530 H 404.129 -1.67144 -0.293438 0
M  V30 4531 H 402.901 -3.7827 -1.00138 0
M  V30 4532 H 402.524 -3.04922 -2.55163 0
M  V30 4533 N 403.521 0.559213 -1.47345 0
M  V30 4534 C 404.761 1.32728 -1.55444 0
M  V30 4535 C 405.125 1.90838 -0.210895 0
M  V30 4536 O 406.326 2.68282 -0.166719 0
M  V30 4537 C 404.597 2.4092 -2.63993 0
M  V30 4538 S 406.156 3.2784 -2.91661 0
M  V30 4539 H 402.974 0.451883 -0.548929 0
M  V30 4540 H 405.576 0.640404 -1.84714 0
M  V30 4541 H 404.28 1.9666 -3.60212 0
M  V30 4542 H 403.811 3.14351 -2.36531 0
M  V30 4543 H 405.826 4.40341 -2.28722 0
M  V30 4544 N 404.999 1.35443 0.805782 0
M  V30 4545 C 406.415 1.15499 1.10146 0
M  V30 4546 C 406.615 -0.0319975 2.01475 0
M  V30 4547 O 405.671 -0.70236 2.42535 0
M  V30 4548 C 406.984 2.45833 1.73166 0
M  V30 4549 C 408.532 2.52047 1.85583 0
M  V30 4550 C 409.007 3.82427 2.52019 0
M  V30 4551 N 410.498 3.83682 2.59504 0
M  V30 4552 C 411.233 4.81294 3.11679 0
M  V30 4553 N 410.729 5.89294 3.64287 0
M  V30 4554 N 412.522 4.6873 3.1024 0
M  V30 4555 H 404.673 2.11469 0.198678 0
M  V30 4556 H 406.936 0.93594 0.150731 0
M  V30 4557 H 406.642 3.32874 1.13526 0
M  V30 4558 H 406.516 2.6044 2.72857 0
M  V30 4559 H 408.903 1.65435 2.44367 0
M  V30 4560 H 408.984 2.41354 0.847455 0
M  V30 4561 H 408.628 4.69437 1.93885 0
M  V30 4562 H 408.558 3.90409 3.53395 0
M  V30 4563 H 411.049 3.05648 2.22234 0
M  V30 4564 H 411.362 6.59768 4.02401 0
M  V30 4565 H 409.707 5.92985 3.62483 0
M  V30 4566 H 412.898 3.83496 2.68419 0
M  V30 4567 H 413.071 5.44965 3.50596 0
M  V30 4568 N 406.477 -1.02803 1.19454 0
M  V30 4569 C 407.726 -1.7562 0.991996 0
M  V30 4570 C 408.039 -1.89672 -0.477901 0
M  V30 4571 O 409.245 -2.59468 -0.799287 0
M  V30 4572 C 407.701 -3.15812 1.72601 0
M  V30 4573 C 407.309 -3.0981 3.23607 0
M  V30 4574 C 409.053 -3.92918 1.60674 0
M  V30 4575 C 406.96 -4.44939 3.89594 0
M  V30 4576 H 405.89 -0.658352 0.367543 0
M  V30 4577 H 408.541 -1.15044 1.42959 0
M  V30 4578 H 406.923 -3.7686 1.21624 0
M  V30 4579 H 408.097 -2.58138 3.81709 0
M  V30 4580 H 406.412 -2.46201 3.35819 0
M  V30 4581 H 409.009 -4.9287 2.07323 0
M  V30 4582 H 409.352 -4.12502 0.561025 0
M  V30 4583 H 409.885 -3.38472 2.09001 0
M  V30 4584 H 406.624 -4.30559 4.94267 0
M  V30 4585 H 406.144 -4.96664 3.36281 0
M  V30 4586 H 407.823 -5.1382 3.93189 0
M  V30 4587 N 407.956 -0.998596 -1.21925 0
M  V30 4588 C 408.919 -0.558679 -2.22287 0
M  V30 4589 C 409.919 0.361525 -1.56683 0
M  V30 4590 O 411.109 0.152695 -1.73529 0
M  V30 4591 C 408.241 0.18661 -3.40389 0
M  V30 4592 H 409.434 -1.4463 -2.62721 0
M  V30 4593 H 406.987 -0.786413 -1.35075 0
M  V30 4594 H 407.722 1.08996 -3.05435 0
M  V30 4595 H 407.507 -0.474188 -3.89222 0
M  V30 4596 H 408.997 0.482367 -4.14805 0
M  V30 4597 N 409.434 1.37368 -0.772513 0
M  V30 4598 C 410.711 1.93839 -0.26188 0
M  V30 4599 C 411.091 1.7061 1.24319 0
M  V30 4600 O 410.439 1.05534 2.02669 0
M  V30 4601 C 410.649 3.43154 -0.636102 0
M  V30 4602 C 411.997 4.20249 -0.606324 0
M  V30 4603 O 413.021 3.5152 -0.575538 0
M  V30 4604 O 411.88 5.42809 -0.634086 0
M  V30 4605 H 408.974 0.82478 -0.0605555 0
M  V30 4606 H 411.52 1.4665 -0.853917 0
M  V30 4607 H 410.292 3.53647 -1.6748 0
M  V30 4608 H 409.915 3.97596 -0.0170516 0
M  V30 4609 N 410.912 0.523116 1.48665 0
M  V30 4610 C 412.161 -0.01544 2.01694 0
M  V30 4611 C 412.474 -1.35975 1.40606 0
M  V30 4612 O 413.68 -1.98627 1.85093 0
M  V30 4613 C 412.136 -0.0779303 3.59816 0
M  V30 4614 C 411.744 1.26107 4.29885 0
M  V30 4615 C 413.488 -0.565678 4.20714 0
M  V30 4616 C 411.395 1.15954 5.79921 0
M  V30 4617 H 410.325 -0.00954163 0.75394 0
M  V30 4618 H 412.976 0.665865 1.70993 0
M  V30 4619 H 411.358 -0.824165 3.87329 0
M  V30 4620 H 412.532 2.02233 4.14051 0
M  V30 4621 H 410.847 1.68401 3.80828 0
M  V30 4622 H 413.444 -0.6595 5.30617 0
M  V30 4623 H 413.787 -1.56984 3.85567 0
M  V30 4624 H 414.32 0.12467 3.97605 0
M  V30 4625 H 411.059 2.13864 6.19631 0
M  V30 4626 H 410.579 0.439529 5.98187 0
M  V30 4627 H 412.258 0.847361 6.41427 0
M  V30 4628 N 412.39 -1.55475 0.257931 0
M  V30 4629 C 413.636 -1.99502 -0.364266 0
M  V30 4630 C 413.969 -1.146 -1.56782 0
M  V30 4631 O 413.244 -0.211968 -1.93342 0
M  V30 4632 C 413.527 -3.51917 -0.763333 0
M  V30 4633 C 413.38 -4.4758 0.446371 0
M  V30 4634 C 414.699 -4.09742 -1.60623 0
M  V30 4635 H 411.818 -0.725277 -0.130929 0
M  V30 4636 H 414.46 -1.8653 0.361446 0
M  V30 4637 H 412.61 -3.63101 -1.38166 0
M  V30 4638 H 414.282 -4.48362 1.08487 0
M  V30 4639 H 412.525 -4.19947 1.08753 0
M  V30 4640 H 413.196 -5.51862 0.123645 0
M  V30 4641 H 415.672 -4.01727 -1.08418 0
M  V30 4642 H 414.548 -5.16631 -1.85429 0
M  V30 4643 H 414.809 -3.58889 -2.58169 0
M  V30 4644 N 413.868 0.0150385 -1.57593 0
M  V30 4645 C 415.145 0.7392 -1.81094 0
M  V30 4646 C 415.525 1.92817 -0.859344 0
M  V30 4647 O 414.873 2.28301 0.095362 0
M  V30 4648 C 415.083 1.15907 -3.29191 0
M  V30 4649 C 416.431 1.56918 -3.9454 0
M  V30 4650 O 417.455 1.25328 -3.33424 0
M  V30 4651 O 416.314 2.15604 -5.02173 0
M  V30 4652 H 413.408 0.358631 -0.745193 0
M  V30 4653 H 415.954 -0.00926156 -1.69697 0
M  V30 4654 H 414.726 0.310921 -3.90063 0
M  V30 4655 H 414.349 1.96711 -3.45529 0
M  V30 4656 N 415.346 1.54954 0.287554 0
M  V30 4657 C 416.574 1.78881 1.03967 0
M  V30 4658 C 416.989 0.554894 1.80462 0
M  V30 4659 O 416.346 -0.475676 1.76192 0
M  V30 4660 C 416.397 3.00488 2.0097 0
M  V30 4661 O 416.118 4.19113 1.27577 0
M  V30 4662 C 417.619 3.36907 2.88112 0
M  V30 4663 H 414.839 0.596259 0.307761 0
M  V30 4664 H 417.383 2.01937 0.322749 0
M  V30 4665 H 415.538 2.79601 2.68145 0
M  V30 4666 H 415.952 4.87765 1.92835 0
M  V30 4667 H 417.426 4.25205 3.52001 0
M  V30 4668 H 417.903 2.55659 3.57121 0
M  V30 4669 H 418.509 3.60001 2.26449 0
M  V30 4670 N 416.824 -0.551391 1.4764 0
M  V30 4671 C 417.787 -1.64007 1.60107 0
M  V30 4672 C 418.787 -1.53601 0.47576 0
M  V30 4673 O 419.977 -1.57655 0.740988 0
M  V30 4674 C 417.109 -3.03569 1.55108 0
M  V30 4675 H 418.302 -1.543 2.57161 0
M  V30 4676 H 415.855 -0.771776 1.35917 0
M  V30 4677 H 416.59 -3.18804 0.594519 0
M  V30 4678 H 416.375 -3.12532 2.36783 0
M  V30 4679 H 417.865 -3.82762 1.66982 0
M  V30 4680 N 418.302 -1.35869 -0.798587 0
M  V30 4681 C 419.235 -1.23801 -1.91699 0
M  V30 4682 C 420.213 -0.124143 -1.62125 0
M  V30 4683 O 421.397 -0.293656 -1.86199 0
M  V30 4684 C 418.524 -0.908063 -3.263 0
M  V30 4685 C 417.57 -2.0351 -3.74815 0
M  V30 4686 S 418.403 -3.65183 -3.91665 0
M  V30 4687 C 419.559 -3.34283 -5.29156 0
M  V30 4688 H 419.792 -2.18466 -2.01643 0
M  V30 4689 H 417.325 -1.21178 -0.956833 0
M  V30 4690 H 419.283 -0.724506 -4.04056 0
M  V30 4691 H 417.944 0.0206584 -3.14093 0
M  V30 4692 H 417.137 -1.75858 -4.72324 0
M  V30 4693 H 416.739 -2.1774 -3.04081 0
M  V30 4694 H 419.031 -2.87607 -6.13424 0
M  V30 4695 H 419.974 -4.31022 -5.61806 0
M  V30 4696 H 420.382 -2.69854 -4.95822 0
M  V30 4697 N 419.78 1.02168 -1.19998 0
M  V30 4698 C 421.191 1.57135 -1.00825 0
M  V30 4699 C 421.542 1.91276 0.436818 0
M  V30 4700 O 420.667 1.71679 1.3174 0
M  V30 4701 C 421.262 2.85514 -1.82393 0
M  V30 4702 C 419.821 3.37027 -1.67601 0
M  V30 4703 C 418.968 2.10388 -1.80644 0
M  V30 4704 H 421.919 0.846106 -1.34264 0
M  V30 4705 H 421.94 3.56711 -1.32429 0
M  V30 4706 H 421.452 2.60634 -2.87561 0
M  V30 4707 H 419.553 3.66878 -0.650485 0
M  V30 4708 H 419.666 4.09572 -2.4857 0
M  V30 4709 H 418.03 2.22601 -1.23778 0
M  V30 4710 H 418.813 1.8794 -2.87286 0
M  V30 4711 N 421.258 1.00505 1.21394 0
M  V30 4712 C 422.507 0.683159 1.89778 0
M  V30 4713 C 422.82 -0.789471 1.7896 0
M  V30 4714 O 424.026 -1.22344 2.42372 0
M  V30 4715 C 422.482 1.17146 3.40301 0
M  V30 4716 C 422.09 2.67017 3.5973 0
M  V30 4717 C 423.834 0.924461 4.14311 0
M  V30 4718 C 421.741 3.09387 5.04017 0
M  V30 4719 H 420.671 0.25183 0.710702 0
M  V30 4720 H 423.322 1.21622 1.37406 0
M  V30 4721 H 421.704 0.566451 3.91928 0
M  V30 4722 H 422.878 3.32968 3.18542 0
M  V30 4723 H 421.193 2.89732 2.99073 0
M  V30 4724 H 423.79 1.21658 5.20676 0
M  V30 4725 H 424.133 -0.139286 4.16067 0
M  V30 4726 H 424.666 1.49226 3.6875 0
M  V30 4727 H 421.405 4.14989 5.07409 0
M  V30 4728 H 420.925 2.48149 5.46061 0
M  V30 4729 H 422.604 3.01371 5.72525 0
M  V30 4730 N 422.737 -1.36956 0.779787 0
M  V30 4731 C 423.965 -2.03755 0.359398 0
M  V30 4732 C 424.38 -1.58807 -1.02106 0
M  V30 4733 O 423.737 -0.773024 -1.6532 0
M  V30 4734 C 423.788 -3.59251 0.402568 0
M  V30 4735 O 423.509 -4.02557 1.72858 0
M  V30 4736 C 425.01 -4.43291 -0.0284068 0
M  V30 4737 H 422.23 -0.654148 0.149437 0
M  V30 4738 H 424.774 -1.75128 1.05595 0
M  V30 4739 H 422.929 -3.86621 -0.245478 0
M  V30 4740 H 423.343 -4.97111 1.67275 0
M  V30 4741 H 424.817 -5.51975 0.0529466 0
M  V30 4742 H 425.294 -4.25719 -1.07982 0
M  V30 4743 H 425.9 -4.21163 0.591758 0
M  V30 4744 N 424.215 -0.530993 -1.48385 0
M  V30 4745 C 425.464 0.00474348 -2.01699 0
M  V30 4746 C 425.777 1.35227 -1.41325 0
M  V30 4747 O 426.983 1.97643 -1.86144 0
M  V30 4748 C 425.439 0.0588473 -3.59852 0
M  V30 4749 C 425.047 -1.28385 -4.2921 0
M  V30 4750 C 426.791 0.543358 -4.21008 0
M  V30 4751 C 424.698 -1.19028 -5.79298 0
M  V30 4752 H 423.628 0.00554317 -0.75398 0
M  V30 4753 H 426.279 -0.674924 -1.70637 0
M  V30 4754 H 424.661 0.803612 -3.8776 0
M  V30 4755 H 425.835 -2.04426 -4.12973 0
M  V30 4756 H 424.15 -1.70418 -3.7993 0
M  V30 4757 H 426.747 0.631351 -5.3096 0
M  V30 4758 H 427.09 1.54937 -3.86394 0
M  V30 4759 H 427.623 -0.145754 -3.97533 0
M  V30 4760 H 424.362 -2.17147 -6.18488 0
M  V30 4761 H 423.882 -0.471246 -5.97946 0
M  V30 4762 H 425.561 -0.881365 -6.40969 0
M  V30 4763 N 425.693 1.55336 -0.266172 0
M  V30 4764 C 426.933 2.01303 0.354459 0
M  V30 4765 C 427.297 1.15046 1.53715 0
M  V30 4766 O 428.498 1.50554 2.22681 0
M  V30 4767 C 426.769 3.49748 0.735579 0
M  V30 4768 S 428.328 4.1771 1.34401 0
M  V30 4769 H 425.146 0.702333 0.110674 0
M  V30 4770 H 427.748 1.91653 -0.385916 0
M  V30 4771 H 426.452 4.10181 -0.134196 0
M  V30 4772 H 425.983 3.63364 1.50764 0
M  V30 4773 H 427.998 4.20594 2.63278 0
M  V30 4774 N 427.171 -0.0066808 1.57599 0
M  V30 4775 C 428.42 -0.692078 1.89455 0
M  V30 4776 C 428.733 -1.75306 0.867586 0
M  V30 4777 O 429.939 -2.49262 1.07614 0
M  V30 4778 C 428.395 -1.2821 3.36289 0
M  V30 4779 C 428.003 -0.256291 4.47266 0
M  V30 4780 C 429.747 -1.94608 3.77264 0
M  V30 4781 C 427.654 -0.855927 5.85173 0
M  V30 4782 H 426.584 -0.262252 0.706923 0
M  V30 4783 H 429.235 0.052769 1.83424 0
M  V30 4784 H 427.617 -2.0774 3.37135 0
M  V30 4785 H 428.791 0.513923 4.57925 0
M  V30 4786 H 427.106 0.306862 4.15268 0
M  V30 4787 H 429.703 -2.40364 4.77629 0
M  V30 4788 H 430.046 -2.77382 3.10427 0
M  V30 4789 H 430.579 -1.21822 3.78688 0
M  V30 4790 H 427.318 -0.0671161 6.55466 0
M  V30 4791 H 426.838 -1.59546 5.78191 0
M  V30 4792 H 428.517 -1.35658 6.32618 0
M  V30 4793 N 428.649 -1.55105 -0.279332 0
M  V30 4794 C 429.612 -1.86783 -1.32834 0
M  V30 4795 C 430.612 -0.74199 -1.42657 0
M  V30 4796 O 431.802 -1.0102 -1.41918 0
M  V30 4797 C 428.934 -2.06746 -2.71052 0
M  V30 4798 H 430.127 -2.8055 -1.05979 0
M  V30 4799 H 427.68 -1.47499 -0.517087 0
M  V30 4800 H 428.415 -1.15339 -3.03097 0
M  V30 4801 H 428.2 -2.88711 -2.65309 0
M  V30 4802 H 429.69 -2.32549 -3.46858 0
M  V30 4803 N 430.127 0.543554 -1.4793 0
M  V30 4804 C 431.357 1.32324 -1.58663 0
M  V30 4805 C 431.765 1.8766 -0.240896 0
M  V30 4806 O 431.108 1.66411 0.778011 0
M  V30 4807 C 431.17 2.52094 -2.56299 0
M  V30 4808 C 430.834 2.17944 -4.01683 0
M  V30 4809 C 431.831 1.74422 -4.89768 0
M  V30 4810 C 429.516 2.28884 -4.47121 0
M  V30 4811 C 431.51 1.42287 -6.21316 0
M  V30 4812 C 429.197 1.96361 -5.78693 0
M  V30 4813 C 430.195 1.53132 -6.65612 0
M  V30 4814 O 429.883 1.21029 -7.94737 0
M  V30 4815 H 429.615 0.409174 -0.538101 0
M  V30 4816 H 432.169 0.663887 -1.94375 0
M  V30 4817 H 430.399 3.20965 -2.15681 0
M  V30 4818 H 432.088 3.14165 -2.57012 0
M  V30 4819 H 432.854 1.65452 -4.55907 0
M  V30 4820 H 428.733 2.61488 -3.79664 0
M  V30 4821 H 432.277 1.08472 -6.89115 0
M  V30 4822 H 428.174 2.04967 -6.12094 0
M  V30 4823 H 428.942 1.34543 -8.07366 0
M  V30 4824 N 431.605 1.3629 0.791371 0
M  V30 4825 C 432.852 1.30412 1.54916 0
M  V30 4826 C 433.18 -0.117162 1.94147 0
M  V30 4827 O 432.435 -1.08599 1.62803 0
M  V30 4828 C 432.734 2.17068 2.8393 0
M  V30 4829 C 432.4 3.65645 2.63846 0
M  V30 4830 C 431.062 4.0614 2.58077 0
M  V30 4831 C 433.414 4.59855 2.45322 0
M  V30 4832 C 430.742 5.3899 2.31748 0
M  V30 4833 C 433.094 5.9292 2.2052 0
M  V30 4834 C 431.758 6.32542 2.13183 0
M  V30 4835 H 431.028 0.47721 0.566879 0
M  V30 4836 H 433.675 1.68325 0.913172 0
M  V30 4837 H 431.98 1.72085 3.51986 0
M  V30 4838 H 433.677 2.09846 3.4171 0
M  V30 4839 H 430.267 3.33518 2.69191 0
M  V30 4840 H 434.451 4.29443 2.48782 0
M  V30 4841 H 429.707 5.68672 2.24548 0
M  V30 4842 H 433.881 6.65487 2.05182 0
M  V30 4843 H 431.508 7.35412 1.92544 0
M  V30 4844 N 433.083 -1.0153 1.20538 0
M  V30 4845 C 434.031 -2.12215 0.952235 0
M  V30 4846 C 435.025 -1.69123 -0.0968735 0
M  V30 4847 O 436.231 -1.7992 0.0536006 0
M  V30 4848 H 432.606 -0.693576 0.290613 0
M  V30 4849 H 434.577 -2.3075 1.89201 0
M  V30 4850 C 433.326 -3.43755 0.522287 0
M  V30 4851 H 432.649 -3.7734 1.32115 0
M  V30 4852 H 434.089 -4.22254 0.384389 0
M  V30 4853 C 432.548 -3.28088 -0.765489 0
M  V30 4854 O 433.078 -3.57921 -1.8236 0
M  V30 4855 N 431.284 -2.81333 -0.728011 0
M  V30 4856 H 430.831 -2.57255 0.133332 0
M  V30 4857 H 430.789 -2.71232 -1.58999 0
M  V30 4858 N 434.561 -1.01147 -1.20859 0
M  V30 4859 C 435.509 -0.57059 -2.25493 0
M  V30 4860 C 436.503 0.388109 -1.64894 0
M  V30 4861 O 437.709 0.258592 -1.78133 0
M  V30 4862 H 434.084 -0.166191 -0.733406 0
M  V30 4863 H 436.055 -1.46411 -2.60012 0
M  V30 4864 C 434.804 0.0805241 -3.47607 0
M  V30 4865 H 434.127 -0.648156 -3.94511 0
M  V30 4866 H 435.567 0.352197 -4.22535 0
M  V30 4867 C 434.026 1.32175 -3.09889 0
M  V30 4868 O 434.556 2.41553 -3.20959 0
M  V30 4869 N 432.762 1.20392 -2.64488 0
M  V30 4870 H 432.309 0.313905 -2.5568 0
M  V30 4871 H 432.267 2.03541 -2.39621 0
M  V30 4872 N 436.039 1.36541 -0.78704 0
M  V30 4873 C 437.279 2.01138 -0.363714 0
M  V30 4874 C 437.643 1.61114 1.04433 0
M  V30 4875 O 438.844 2.18285 1.56861 0
M  V30 4876 C 437.115 3.53603 -0.519582 0
M  V30 4877 S 438.674 4.38415 -0.183782 0
M  V30 4878 H 435.492 0.697263 -0.13909 0
M  V30 4879 H 438.094 1.66475 -1.02501 0
M  V30 4880 H 436.798 3.8022 -1.5447 0
M  V30 4881 H 436.329 3.93084 0.15773 0
M  V30 4882 H 438.344 4.85698 1.01547 0
M  V30 4883 N 437.518 0.538854 1.48102 0
M  V30 4884 C 438.448 -0.207654 2.32575 0
M  V30 4885 C 439.429 -0.926559 1.4265 0
M  V30 4886 O 440.614 -0.91061 1.71527 0
M  V30 4887 C 437.744 -1.24957 3.24042 0
M  V30 4888 C 436.698 -0.648263 4.23062 0
M  V30 4889 C 436.024 -1.79348 5.03725 0
M  V30 4890 C 437.324 0.385897 5.20872 0
M  V30 4891 H 439.018 0.497534 2.95237 0
M  V30 4892 H 436.564 0.240715 1.41974 0
M  V30 4893 H 438.517 -1.77983 3.81969 0
M  V30 4894 H 437.241 -1.98446 2.59397 0
M  V30 4895 H 435.9 -0.139452 3.66335 0
M  V30 4896 H 435.548 -2.51696 4.35498 0
M  V30 4897 H 435.248 -1.39702 5.70751 0
M  V30 4898 H 436.772 -2.32735 5.64506 0
M  V30 4899 H 438.186 -0.057607 5.73271 0
M  V30 4900 H 436.583 0.700227 5.96001 0
M  V30 4901 H 437.653 1.28848 4.67468 0
M  V30 4902 N 438.996 -1.55193 0.274407 0
M  V30 4903 C 439.944 -2.23924 -0.629362 0
M  V30 4904 C 440.938 -1.23602 -1.1584 0
M  V30 4905 O 442.144 -1.41535 -1.11211 0
M  V30 4906 H 438.519 -0.718637 -0.221507 0
M  V30 4907 H 440.49 -2.98388 -0.0268322 0
M  V30 4908 C 439.239 -2.97329 -1.80252 0
M  V30 4909 H 438.562 -3.74313 -1.40462 0
M  V30 4910 H 440.002 -3.48743 -2.41152 0
M  V30 4911 C 438.461 -2.0276 -2.69054 0
M  V30 4912 O 438.991 -1.57836 -3.69392 0
M  V30 4913 N 437.197 -1.69275 -2.36208 0
M  V30 4914 H 436.744 -2.06004 -1.54661 0
M  V30 4915 H 436.702 -1.06271 -2.95895 0
M  V30 4916 N 440.474 -0.00167713 -1.576 0
M  V30 4917 C 441.885 0.54091 -1.78693 0
M  V30 4918 C 442.236 1.7386 -0.909247 0
M  V30 4919 O 441.361 2.16109 -0.112176 0
M  V30 4920 C 441.956 0.98806 -3.24072 0
M  V30 4921 C 440.515 1.47594 -3.46256 0
M  V30 4922 C 439.662 0.42792 -2.73978 0
M  V30 4923 H 442.613 -0.22784 -1.57056 0
M  V30 4924 H 442.634 1.85398 -3.32277 0
M  V30 4925 H 442.146 0.116164 -3.87926 0
M  V30 4926 H 440.247 2.36868 -2.87618 0
M  V30 4927 H 440.36 1.50225 -4.54939 0
M  V30 4928 H 438.724 0.889934 -2.38647 0
M  V30 4929 H 439.507 -0.435038 -3.40532 0
M  V30 4930 N 441.952 1.55251 0.271103 0
M  V30 4931 C 442.882 1.9127 1.33933 0
M  V30 4932 C 443.863 0.77478 1.5143 0
M  V30 4933 O 445.048 1.03307 1.64442 0
M  V30 4934 C 442.178 2.18627 2.69851 0
M  V30 4935 C 441.132 3.34442 2.67081 0
M  V30 4936 C 440.458 3.47284 4.06569 0
M  V30 4937 C 441.758 4.70784 2.26185 0
M  V30 4938 H 443.452 2.80744 1.04035 0
M  V30 4939 H 440.998 1.35077 0.499017 0
M  V30 4940 H 442.951 2.42413 3.44694 0
M  V30 4941 H 441.675 1.25955 3.01335 0
M  V30 4942 H 440.334 3.10627 1.94695 0
M  V30 4943 H 439.982 2.52074 4.35279 0
M  V30 4944 H 439.682 4.25152 4.0561 0
M  V30 4945 H 441.206 3.73363 4.83148 0
M  V30 4946 H 442.62 4.94102 2.90751 0
M  V30 4947 H 441.017 5.51582 2.36384 0
M  V30 4948 H 442.087 4.69478 1.21319 0
M  V30 4949 N 443.43 -0.535701 1.48216 0
M  V30 4950 C 444.677 -1.29183 1.55942 0
M  V30 4951 C 445.005 -1.93125 0.230857 0
M  V30 4952 O 444.26 -1.79556 -0.778331 0
M  V30 4953 C 444.559 -2.4068 2.64212 0
M  V30 4954 C 444.225 -1.94428 4.06827 0
M  V30 4955 C 442.887 -1.81532 4.45645 0
M  V30 4956 C 445.239 -1.59405 4.96225 0
M  V30 4957 C 442.567 -1.31939 5.71672 0
M  V30 4958 C 444.919 -1.11276 6.22736 0
M  V30 4959 C 443.583 -0.969924 6.60416 0
M  V30 4960 H 442.853 -0.472715 0.570632 0
M  V30 4961 H 445.5 -0.598437 1.81909 0
M  V30 4962 H 443.805 -3.15666 2.32083 0
M  V30 4963 H 445.502 -2.98822 2.67407 0
M  V30 4964 H 442.092 -2.05415 3.76168 0
M  V30 4965 H 446.276 -1.68231 4.66917 0
M  V30 4966 H 441.532 -1.19562 5.99596 0
M  V30 4967 H 445.706 -0.832453 6.91407 0
M  V30 4968 H 443.333 -0.583436 7.57958 0
M  V30 4969 N 444.908 -1.36708 -0.784132 0
M  V30 4970 C 446.138 -1.34203 -1.57077 0
M  V30 4971 C 446.546 0.0774945 -1.89041 0
M  V30 4972 O 445.889 1.04628 -1.50992 0
M  V30 4973 C 445.951 -2.10351 -2.91535 0
M  V30 4974 C 445.615 -3.59405 -2.82272 0
M  V30 4975 C 446.612 -4.53545 -2.54151 0
M  V30 4976 C 444.297 -4.02362 -3.00683 0
M  V30 4977 C 446.291 -5.8862 -2.44551 0
M  V30 4978 C 443.978 -5.37526 -2.90704 0
M  V30 4979 C 444.976 -6.30468 -2.62677 0
M  V30 4980 O 444.664 -7.63149 -2.52702 0
M  V30 4981 H 444.396 -0.461791 -0.493685 0
M  V30 4982 H 446.95 -1.80475 -0.980712 0
M  V30 4983 H 445.18 -1.5875 -3.52612 0
M  V30 4984 H 446.869 -2.00636 -3.52845 0
M  V30 4985 H 447.635 -4.21669 -2.39625 0
M  V30 4986 H 443.514 -3.30389 -3.21503 0
M  V30 4987 H 447.058 -6.61133 -2.22596 0
M  V30 4988 H 442.955 -5.69008 -3.04795 0
M  V30 4989 H 443.723 -7.73331 -2.68144 0
M  V30 4990 N 446.386 1.0089 -1.21074 0
M  V30 4991 C 447.634 1.74262 -1.02358 0
M  V30 4992 C 447.955 1.89869 0.444393 0
M  V30 4993 O 447.225 1.44677 1.32081 0
M  V30 4994 H 445.805 0.645615 -0.375754 0
M  V30 4995 H 448.467 1.21596 -1.52317 0
M  V30 4996 H 447.563 2.74328 -1.4883 0
M  V30 4997 N 447.864 1.01787 1.20321 0
M  V30 4998 C 449.111 0.707936 1.89722 0
M  V30 4999 C 449.439 -0.762535 1.78929 0
M  V30 5000 O 448.694 -1.56977 1.16861 0
M  V30 5001 C 448.993 1.09076 3.40349 0
M  V30 5002 C 448.659 2.55765 3.71342 0
M  V30 5003 C 447.321 2.95845 3.79511 0
M  V30 5004 C 449.673 3.50723 3.85542 0
M  V30 5005 C 447.001 4.2982 3.99339 0
M  V30 5006 C 449.353 4.84387 4.06881 0
M  V30 5007 C 448.017 5.24172 4.1328 0
M  V30 5008 H 447.287 0.259052 0.694243 0
M  V30 5009 H 449.934 1.27868 1.42555 0
M  V30 5010 H 448.239 0.438453 3.89339 0
M  V30 5011 H 449.936 0.828636 3.92345 0
M  V30 5012 H 446.526 2.2371 3.65584 0
M  V30 5013 H 450.71 3.20916 3.78585 0
M  V30 5014 H 445.966 4.60196 4.02529 0
M  V30 5015 H 450.14 5.57891 4.1681 0
M  V30 5016 H 447.767 6.27997 4.28396 0
M  V30 5017 N 449.342 -1.36122 0.79427 0
M  V30 5018 C 450.272 -2.32551 0.210328 0
M  V30 5019 C 451.253 -1.56884 -0.657386 0
M  V30 5020 O 452.438 -1.85014 -0.590207 0
M  V30 5021 C 449.568 -3.41128 -0.651819 0
M  V30 5022 C 448.522 -4.27842 0.116395 0
M  V30 5023 C 447.848 -5.2763 -0.86666 0
M  V30 5024 C 449.148 -5.05647 1.30837 0
M  V30 5025 H 450.842 -2.81636 1.01594 0
M  V30 5026 H 448.388 -1.35407 0.489981 0
M  V30 5027 H 450.341 -4.07581 -1.07031 0
M  V30 5028 H 449.065 -2.90622 -1.49019 0
M  V30 5029 H 447.724 -3.62952 0.515915 0
M  V30 5030 H 447.372 -4.73395 -1.70019 0
M  V30 5031 H 447.072 -5.86514 -0.35705 0
M  V30 5032 H 448.596 -5.96955 -1.28361 0
M  V30 5033 H 450.01 -5.65113 0.965393 0
M  V30 5034 H 448.407 -5.73967 1.75161 0
M  V30 5035 H 449.477 -4.37006 2.10128 0
M  V30 5036 N 450.82 -0.546701 -1.47814 0
M  V30 5037 C 452.068 -0.0187037 -2.02091 0
M  V30 5038 C 452.389 1.33168 -1.42447 0
M  V30 5039 O 451.659 1.86619 -0.595839 0
M  V30 5040 H 450.239 -0.00392531 -0.74699 0
M  V30 5041 H 452.901 -0.714327 -1.81338 0
M  V30 5042 H 451.997 0.0772219 -3.12004 0
M  V30 5043 N 452.299 1.55045 -0.282633 0
M  V30 5044 C 453.246 2.22822 0.601566 0
M  V30 5045 C 454.216 1.20431 1.14392 0
M  V30 5046 O 455.401 1.48996 1.19184 0
M  V30 5047 C 452.541 2.95873 1.77632 0
M  V30 5048 C 451.654 4.12999 1.26711 0
M  V30 5049 C 450.789 4.73676 2.40426 0
M  V30 5050 C 449.828 5.82981 1.86545 0
M  V30 5051 N 448.965 6.3769 2.93762 0
M  V30 5052 H 453.805 2.97995 0.0169528 0
M  V30 5053 H 451.342 1.471 -0.00339964 0
M  V30 5054 H 453.3 3.36447 2.46697 0
M  V30 5055 H 451.93 2.2311 2.33285 0
M  V30 5056 H 450.982 3.77494 0.469314 0
M  V30 5057 H 452.294 4.91803 0.832518 0
M  V30 5058 H 451.448 5.17008 3.17471 0
M  V30 5059 H 450.187 3.94164 2.87203 0
M  V30 5060 H 449.192 5.39092 1.07983 0
M  V30 5061 H 450.417 6.64366 1.40694 0
M  V30 5062 H 448.363 5.61069 3.39908 0
M  V30 5063 H 448.28 7.11788 2.54744 0
M  V30 5064 H 449.548 6.8568 3.7076 0
M  V30 5065 N 453.777 0.010035 1.57597 0
M  V30 5066 C 454.724 -0.978122 2.09049 0
M  V30 5067 C 455.694 -1.33509 0.988159 0
M  V30 5068 O 456.879 -1.43172 1.26121 0
M  V30 5069 C 454.019 -2.26158 2.60666 0
M  V30 5070 C 453.132 -1.96275 3.84838 0
M  V30 5071 C 452.267 -3.18776 4.24918 0
M  V30 5072 C 451.306 -2.84625 5.41899 0
M  V30 5073 N 450.443 -3.99693 5.77226 0
M  V30 5074 H 455.283 -0.532431 2.93205 0
M  V30 5075 H 452.82 -0.251234 1.44939 0
M  V30 5076 H 454.778 -3.01202 2.88675 0
M  V30 5077 H 453.408 -2.68378 1.79369 0
M  V30 5078 H 452.46 -1.11555 3.63675 0
M  V30 5079 H 453.772 -1.67111 4.69974 0
M  V30 5080 H 452.926 -4.02157 4.54262 0
M  V30 5081 H 451.665 -3.51087 3.38511 0
M  V30 5082 H 450.67 -1.99653 5.12268 0
M  V30 5083 H 451.895 -2.53551 6.29991 0
M  V30 5084 H 449.841 -4.31882 4.93776 0
M  V30 5085 H 449.758 -3.74087 6.56959 0
M  V30 5086 H 451.026 -4.83834 6.11167 0
M  V30 5087 N 455.255 -1.55392 -0.262866 0
M  V30 5088 C 456.502 -1.76476 -0.993109 0
M  V30 5089 C 456.83 -0.571479 -1.85915 0
M  V30 5090 O 456.085 0.445733 -1.90556 0
M  V30 5091 C 456.384 -3.02889 -1.89718 0
M  V30 5092 C 456.05 -4.34974 -1.18781 0
M  V30 5093 C 454.712 -4.7087 -0.991699 0
M  V30 5094 C 457.064 -5.16695 -0.683798 0
M  V30 5095 C 454.392 -5.86036 -0.279024 0
M  V30 5096 C 456.744 -6.32598 0.0153327 0
M  V30 5097 C 455.408 -6.67127 0.223062 0
M  V30 5098 H 454.678 -0.64577 -0.363404 0
M  V30 5099 H 457.325 -1.89664 -0.264525 0
M  V30 5100 H 455.63 -2.84644 -2.6923 0
M  V30 5101 H 457.327 -3.16399 -2.46359 0
M  V30 5102 H 453.917 -4.06765 -1.35058 0
M  V30 5103 H 458.101 -4.8943 -0.8229 0
M  V30 5104 H 453.357 -6.11306 -0.107456 0
M  V30 5105 H 457.531 -6.95171 0.413584 0
M  V30 5106 H 455.158 -7.56216 0.777265 0
M  V30 5107 N 456.733 0.527833 -1.48498 0
M  V30 5108 C 457.68 1.6322 -1.6318 0
M  V30 5109 C 458.65 1.59199 -0.473815 0
M  V30 5110 O 459.835 1.77591 -0.697563 0
M  V30 5111 C 456.975 3.01474 -1.67951 0
M  V30 5112 C 456.088 3.15713 -2.94871 0
M  V30 5113 C 455.223 4.44539 -2.90789 0
M  V30 5114 C 454.262 4.52315 -4.12404 0
M  V30 5115 N 453.399 5.72533 -4.06387 0
M  V30 5116 H 458.239 1.50011 -2.57489 0
M  V30 5117 H 455.776 0.730298 -1.27691 0
M  V30 5118 H 457.734 3.81572 -1.68698 0
M  V30 5119 H 456.364 3.1345 -0.771306 0
M  V30 5120 H 455.416 2.28854 -3.03859 0
M  V30 5121 H 456.728 3.1732 -3.8485 0
M  V30 5122 H 455.882 5.3293 -2.89949 0
M  V30 5123 H 454.621 4.45457 -1.98542 0
M  V30 5124 H 453.626 3.62331 -4.13517 0
M  V30 5125 H 454.851 4.53134 -5.05812 0
M  V30 5126 H 452.797 5.74344 -3.16962 0
M  V30 5127 H 452.714 5.75643 -4.90073 0
M  V30 5128 H 453.982 6.63204 -4.0961 0
M  V30 5129 N 458.211 1.37122 0.776871 0
M  V30 5130 C 459.627 1.1781 1.07671 0
M  V30 5131 C 459.827 0.0107454 2.01497 0
M  V30 5132 O 458.883 -0.650756 2.4397 0
M  V30 5133 C 460.196 2.49451 1.67913 0
M  V30 5134 C 461.744 2.55927 1.80195 0
M  V30 5135 C 462.219 3.87686 2.43851 0
M  V30 5136 N 463.71 3.891 2.51307 0
M  V30 5137 C 464.445 4.87797 3.014 0
M  V30 5138 N 463.941 5.96888 3.51705 0
M  V30 5139 N 465.734 4.75205 3.00227 0
M  V30 5140 H 457.885 2.11843 0.153778 0
M  V30 5141 H 460.148 0.938927 0.130844 0
M  V30 5142 H 459.854 3.35207 1.06439 0
M  V30 5143 H 459.728 2.66169 2.67271 0
M  V30 5144 H 462.115 1.70582 2.40803 0
M  V30 5145 H 462.196 2.43097 0.796069 0
M  V30 5146 H 461.84 4.73444 1.83884 0
M  V30 5147 H 461.77 3.97817 3.45035 0
M  V30 5148 H 464.261 3.10293 2.157 0
M  V30 5149 H 464.574 6.68155 3.88316 0
M  V30 5150 H 462.919 6.0054 3.49824 0
M  V30 5151 H 466.11 3.89103 2.60224 0
M  V30 5152 H 466.283 5.52279 3.38957 0
M  V30 5153 N 459.689 -1.00246 1.21608 0
M  V30 5154 C 460.919 -1.77373 1.05935 0
M  V30 5155 C 461.327 -1.85059 -0.393686 0
M  V30 5156 O 460.67 -1.31289 -1.28487 0
M  V30 5157 C 460.732 -3.22705 1.58435 0
M  V30 5158 C 460.396 -3.38591 3.06929 0
M  V30 5159 C 461.393 -3.2667 4.04454 0
M  V30 5160 C 459.078 -3.6395 3.46187 0
M  V30 5161 C 461.072 -3.39877 5.39224 0
M  V30 5162 C 458.759 -3.768 4.81108 0
M  V30 5163 C 459.757 -3.6477 5.77436 0
M  V30 5164 O 459.445 -3.77206 7.09909 0
M  V30 5165 H 459.177 -0.56419 0.372378 0
M  V30 5166 H 461.731 -1.26971 1.61454 0
M  V30 5167 H 459.961 -3.74255 0.973147 0
M  V30 5168 H 461.65 -3.81515 1.38568 0
M  V30 5169 H 462.416 -3.06999 3.75468 0
M  V30 5170 H 458.295 -3.72395 2.71741 0
M  V30 5171 H 461.839 -3.30404 6.14393 0
M  V30 5172 H 457.736 -3.95975 5.09779 0
M  V30 5173 H 458.504 -3.94138 7.17355 0
M  V30 5174 N 461.167 -1.02423 -1.1978 0
M  V30 5175 C 462.414 -0.717988 -1.89344 0
M  V30 5176 C 462.742 0.753036 -1.79331 0
M  V30 5177 O 461.997 1.56355 -1.17692 0
M  V30 5178 C 462.296 -1.1088 -3.39765 0
M  V30 5179 C 461.962 -2.57731 -3.6998 0
M  V30 5180 C 460.624 -2.97854 -3.77937 0
M  V30 5181 C 462.976 -3.52763 -3.83677 0
M  V30 5182 C 460.304 -4.31931 -3.97054 0
M  V30 5183 C 462.656 -4.86538 -4.04306 0
M  V30 5184 C 461.32 -5.26356 -4.10494 0
M  V30 5185 H 460.59 -0.26273 -0.692859 0
M  V30 5186 H 463.237 -1.28623 -1.41875 0
M  V30 5187 H 461.542 -0.459094 -3.89101 0
M  V30 5188 H 463.239 -0.849432 -3.919 0
M  V30 5189 H 459.829 -2.25646 -3.64393 0
M  V30 5190 H 464.013 -3.2292 -3.76877 0
M  V30 5191 H 459.269 -4.62324 -4.00083 0
M  V30 5192 H 463.443 -5.60093 -4.13846 0
M  V30 5193 H 461.07 -6.3026 -4.2506 0
M  V30 5194 N 462.645 1.35699 -0.801477 0
M  V30 5195 C 463.575 2.32436 -0.222658 0
M  V30 5196 C 464.556 1.5723 0.649057 0
M  V30 5197 O 465.741 1.85324 0.580387 0
M  V30 5198 C 462.871 3.41469 0.633719 0
M  V30 5199 C 461.825 4.27774 -0.139083 0
M  V30 5200 C 461.151 5.28082 0.838666 0
M  V30 5201 C 462.451 5.04946 -1.33517 0
M  V30 5202 H 464.145 2.81094 -1.03086 0
M  V30 5203 H 461.691 1.35146 -0.497155 0
M  V30 5204 H 463.644 4.08143 1.04868 0
M  V30 5205 H 462.368 2.91408 1.47475 0
M  V30 5206 H 461.027 3.62673 -0.535156 0
M  V30 5207 H 460.675 4.7429 1.67506 0
M  V30 5208 H 460.375 5.86695 0.32594 0
M  V30 5209 H 461.899 5.97628 1.25194 0
M  V30 5210 H 463.313 5.64593 -0.995349 0
M  V30 5211 H 461.71 5.7303 -1.78202 0
M  V30 5212 H 462.78 4.35886 -2.12442 0
M  V30 5213 N 464.123 0.554532 1.47522 0
M  V30 5214 C 465.055 -0.232106 2.28022 0
M  V30 5215 C 466.068 -0.881865 1.36847 0
M  V30 5216 O 467.257 -0.756168 1.61692 0
M  V30 5217 C 464.357 -1.34604 3.11022 0
M  V30 5218 C 463.53 -0.793582 4.30141 0
M  V30 5219 C 462.589 -1.79168 4.94758 0
M  V30 5220 O 461.615 -1.33886 5.5323 0
M  V30 5221 N 462.817 -3.12495 4.89211 0
M  V30 5222 H 465.582 0.458407 2.96173 0
M  V30 5223 H 463.143 0.390433 1.57122 0
M  V30 5224 H 465.135 -2.01243 3.51118 0
M  V30 5225 H 463.705 -1.93983 2.45131 0
M  V30 5226 H 462.925 0.0495025 3.94169 0
M  V30 5227 H 464.213 -0.403776 5.07195 0
M  V30 5228 H 463.611 -3.51931 4.42901 0
M  V30 5229 H 462.168 -3.74698 5.33333 0
M  V30 5230 N 465.601 -1.54893 0.290851 0
M  V30 5231 C 466.531 -2.26103 -0.583084 0
M  V30 5232 C 467.512 -1.25684 -1.14619 0
M  V30 5233 O 468.697 -1.54436 -1.17741 0
M  V30 5234 C 465.827 -2.99409 -1.75987 0
M  V30 5235 C 464.781 -4.0689 -1.32758 0
M  V30 5236 C 464.107 -4.67856 -2.58872 0
M  V30 5237 C 465.407 -5.20215 -0.46624 0
M  V30 5238 H 467.101 -2.99398 0.0108214 0
M  V30 5239 H 464.647 -1.43998 0.00664468 0
M  V30 5240 H 466.6 -3.47943 -2.37727 0
M  V30 5241 H 465.324 -2.23675 -2.37985 0
M  V30 5242 H 463.983 -3.59191 -0.733299 0
M  V30 5243 H 463.631 -3.88772 -3.19163 0
M  V30 5244 H 463.331 -5.40438 -2.30653 0
M  V30 5245 H 464.855 -5.19147 -3.21433 0
M  V30 5246 H 466.269 -5.64704 -0.989047 0
M  V30 5247 H 464.666 -5.99455 -0.27826 0
M  V30 5248 H 465.736 -4.82198 0.511173 0
M  V30 5249 N 467.08 -0.0183926 -1.57589 0
M  V30 5250 C 468.01 0.965596 -2.12599 0
M  V30 5251 C 468.991 1.34641 -1.0395 0
M  V30 5252 O 470.176 1.42693 -1.31729 0
M  V30 5253 C 467.306 2.25149 -2.64434 0
M  V30 5254 C 466.26 2.01175 -3.77773 0
M  V30 5255 C 465.586 3.35937 -4.15994 0
M  V30 5256 C 466.886 1.35953 -5.04296 0
M  V30 5257 H 468.58 0.507504 -2.95067 0
M  V30 5258 H 466.126 0.242671 -1.41941 0
M  V30 5259 H 468.079 2.94357 -3.01549 0
M  V30 5260 H 466.803 2.73105 -1.79112 0
M  V30 5261 H 465.462 1.34388 -3.4108 0
M  V30 5262 H 465.11 3.81631 -3.27669 0
M  V30 5263 H 464.81 3.20705 -4.92364 0
M  V30 5264 H 466.334 4.0643 -4.55683 0
M  V30 5265 H 467.748 1.95144 -5.39065 0
M  V30 5266 H 466.145 1.31152 -5.85593 0
M  V30 5267 H 467.215 0.331071 -4.83768 0
M  V30 5268 N 468.558 1.5553 0.254621 0
M  V30 5269 C 469.505 1.89666 1.31512 0
M  V30 5270 C 470.475 0.750057 1.482 0
M  V30 5271 O 471.66 1.00301 1.62309 0
M  V30 5272 C 468.8 2.19009 2.667 0
M  V30 5273 C 467.913 3.46435 2.58083 0
M  V30 5274 C 467.048 3.65386 3.85573 0
M  V30 5275 C 466.087 4.8644 3.71541 0
M  V30 5276 N 465.224 5.01952 4.90906 0
M  V30 5277 H 470.064 2.80109 1.017 0
M  V30 5278 H 467.601 1.38666 0.490938 0
M  V30 5279 H 469.559 2.34025 3.45381 0
M  V30 5280 H 468.189 1.31779 2.94676 0
M  V30 5281 H 467.241 3.39792 1.71013 0
M  V30 5282 H 468.553 4.35258 2.43622 0
M  V30 5283 H 467.707 3.80319 4.72697 0
M  V30 5284 H 466.446 2.74781 4.02922 0
M  V30 5285 H 465.451 4.71491 2.82801 0
M  V30 5286 H 466.676 5.78497 3.55694 0
M  V30 5287 H 464.622 4.14283 5.08631 0
M  V30 5288 H 464.539 5.84851 4.79046 0
M  V30 5289 H 465.807 5.21289 5.7955 0
M  V30 5290 N 470.036 -0.519951 1.48776 0
M  V30 5291 C 471.266 -1.29783 1.60748 0
M  V30 5292 C 471.674 -1.87253 0.27072 0
M  V30 5293 O 471.017 -1.67628 -0.751438 0
M  V30 5294 C 471.079 -2.47984 2.60277 0
M  V30 5295 C 470.743 -2.11526 4.051 0
M  V30 5296 C 471.74 -1.66608 4.92481 0
M  V30 5297 C 469.425 -2.21742 4.50706 0
M  V30 5298 C 471.419 -1.32384 6.23501 0
M  V30 5299 C 469.106 -1.87129 5.81744 0
M  V30 5300 C 470.104 -1.42523 6.67964 0
M  V30 5301 O 469.792 -1.0837 7.96562 0
M  V30 5302 H 469.524 -0.400562 0.544542 0
M  V30 5303 H 472.078 -0.632879 1.95407 0
M  V30 5304 H 470.308 -3.17493 2.2076 0
M  V30 5305 H 471.997 -3.10036 2.61978 0
M  V30 5306 H 472.763 -1.58178 4.58481 0
M  V30 5307 H 468.642 -2.55415 3.83776 0
M  V30 5308 H 472.186 -0.974949 6.90754 0
M  V30 5309 H 468.083 -1.95204 6.15277 0
M  V30 5310 H 468.851 -1.21681 8.09405 0
M  V30 5311 N 471.514 -1.37532 -0.769588 0
M  V30 5312 C 472.763 -1.32183 -1.5235 0
M  V30 5313 C 473.076 0.0906555 -1.9539 0
M  V30 5314 O 474.282 0.266628 -2.70188 0
M  V30 5315 C 472.738 -2.32029 -2.75119 0
M  V30 5316 C 472.346 -3.78816 -2.3917 0
M  V30 5317 C 474.09 -2.35694 -3.53056 0
M  V30 5318 C 471.997 -4.70388 -3.58453 0
M  V30 5319 H 470.927 -0.491275 -0.571984 0
M  V30 5320 H 473.578 -1.63004 -0.842739 0
M  V30 5321 H 471.96 -1.94229 -3.45096 0
M  V30 5322 H 473.134 -4.25466 -1.76962 0
M  V30 5323 H 471.449 -3.78117 -1.74402 0
M  V30 5324 H 474.046 -3.01312 -4.41718 0
M  V30 5325 H 474.389 -1.37117 -3.93071 0
M  V30 5326 H 474.922 -2.72212 -2.90078 0
M  V30 5327 H 471.661 -5.70102 -3.23518 0
M  V30 5328 H 471.181 -4.28442 -4.19758 0
M  V30 5329 H 472.86 -4.87628 -4.25239 0
M  V30 5330 N 472.992 0.995999 -1.22138 0
M  V30 5331 C 474.403 1.54961 -1.04135 0
M  V30 5332 C 474.754 1.92159 0.396147 0
M  V30 5333 O 473.879 1.74435 1.28069 0
M  V30 5334 C 474.474 2.81581 -1.88408 0
M  V30 5335 C 473.033 3.33396 -1.74712 0
M  V30 5336 C 472.18 2.06509 -1.85066 0
M  V30 5337 H 475.131 0.817436 -1.36028 0
M  V30 5338 H 475.152 3.53822 -1.39966 0
M  V30 5339 H 474.664 2.54476 -2.93025 0
M  V30 5340 H 472.765 3.65416 -0.728159 0
M  V30 5341 H 472.878 4.04208 -2.57202 0
M  V30 5342 H 471.242 2.19925 -1.28472 0
M  V30 5343 H 472.025 1.81804 -2.91208 0
M  V30 5344 N 474.47 1.03057 1.19235 0
M  V30 5345 C 475.881 0.757449 1.70645 0
M  V30 5346 C 476.232 -0.722735 1.82403 0
M  V30 5347 O 475.357 -1.56325 1.49638 0
M  V30 5348 C 475.952 1.36833 3.09939 0
M  V30 5349 C 474.511 1.14375 3.58602 0
M  V30 5350 C 473.658 1.46533 2.35422 0
M  V30 5351 H 476.609 1.19828 1.04052 0
M  V30 5352 H 476.63 0.766184 3.72706 0
M  V30 5353 H 476.142 2.44562 3.01349 0
M  V30 5354 H 474.243 0.0847542 3.72504 0
M  V30 5355 H 474.356 1.83366 4.42622 0
M  V30 5356 H 472.72 0.884712 2.38841 0
M  V30 5357 H 473.503 2.55349 2.2946 0
M  V30 5358 N 475.948 -1.35272 0.808662 0
M  V30 5359 C 476.895 -2.29764 0.218482 0
M  V30 5360 C 477.865 -1.52911 -0.648652 0
M  V30 5361 O 479.05 -1.81341 -0.593297 0
M  V30 5362 C 476.19 -3.39388 -0.625282 0
M  V30 5363 C 475.303 -4.31202 0.262516 0
M  V30 5364 C 474.438 -5.27919 -0.589451 0
M  V30 5365 C 473.477 -6.11371 0.298617 0
M  V30 5366 N 472.614 -7.0022 -0.513443 0
M  V30 5367 H 477.454 -2.79645 1.02968 0
M  V30 5368 H 474.991 -1.37629 0.519303 0
M  V30 5369 H 476.949 -4.01615 -1.12966 0
M  V30 5370 H 475.579 -2.90777 -1.40173 0
M  V30 5371 H 474.631 -3.69962 0.885013 0
M  V30 5372 H 475.943 -4.89748 0.945971 0
M  V30 5373 H 475.097 -5.95529 -1.15888 0
M  V30 5374 H 473.836 -4.69875 -1.30647 0
M  V30 5375 H 472.841 -5.42707 0.880301 0
M  V30 5376 H 474.066 -6.71494 1.01352 0
M  V30 5377 H 472.012 -6.44662 -1.21439 0
M  V30 5378 H 471.929 -7.55917 0.111922 0
M  V30 5379 H 473.197 -7.72175 -1.06608 0
M  V30 5380 N 477.426 -0.562348 -1.47226 0
M  V30 5381 C 478.389 0.172056 -2.28553 0
M  V30 5382 C 479.389 0.837928 -1.37242 0
M  V30 5383 O 480.579 0.693001 -1.59822 0
M  V30 5384 C 477.711 1.25223 -3.17068 0
M  V30 5385 H 478.904 -0.542401 -2.94954 0
M  V30 5386 H 476.457 -0.319493 -1.53 0
M  V30 5387 H 477.192 1.99892 -2.55369 0
M  V30 5388 H 476.977 0.779515 -3.84273 0
M  V30 5389 H 478.467 1.76791 -3.78332 0
M  V30 5390 N 478.904 1.54736 -0.299062 0
M  V30 5391 C 479.851 2.23448 0.577899 0
M  V30 5392 C 480.821 1.21637 1.13109 0
M  V30 5393 O 482.006 1.50252 1.17597 0
M  V30 5394 C 479.146 2.9774 1.74484 0
M  V30 5395 C 478.259 4.1432 1.22323 0
M  V30 5396 C 477.394 4.76199 2.35388 0
M  V30 5397 C 476.433 5.84927 1.80351 0
M  V30 5398 N 475.57 6.4077 2.86982 0
M  V30 5399 H 480.41 2.97996 -0.0146545 0
M  V30 5400 H 477.947 1.47088 -0.0190013 0
M  V30 5401 H 479.905 3.39045 2.43114 0
M  V30 5402 H 478.535 2.25572 2.30905 0
M  V30 5403 H 477.587 3.7797 0.429249 0
M  V30 5404 H 478.899 4.92659 0.780309 0
M  V30 5405 H 478.053 5.20346 3.11969 0
M  V30 5406 H 476.792 3.97188 2.83006 0
M  V30 5407 H 475.797 5.40207 1.02259 0
M  V30 5408 H 477.022 6.65821 1.3364 0
M  V30 5409 H 474.968 5.64643 3.33938 0
M  V30 5410 H 474.885 7.1445 2.4718 0
M  V30 5411 H 476.153 6.89574 3.63466 0
M  V30 5412 N 480.382 0.0267497 1.57577 0
M  V30 5413 C 481.607 -0.666227 1.96408 0
M  V30 5414 C 482.032 -1.65004 0.903071 0
M  V30 5415 O 481.39 -1.80787 -0.136263 0
M  V30 5416 C 481.438 -1.35101 3.34335 0
M  V30 5417 O 480.542 -2.46623 3.30531 0
M  V30 5418 H 479.883 -0.175206 0.640468 0
M  V30 5419 H 482.413 0.0878977 2.04411 0
M  V30 5420 H 482.423 -1.70834 3.70513 0
M  V30 5421 H 481.098 -0.629844 4.11103 0
M  V30 5422 H 479.675 -2.13019 3.06068 0
M  V30 5423 N 481.861 -1.55662 -0.24637 0
M  V30 5424 C 482.811 -1.86753 -1.30795 0
M  V30 5425 C 483.795 -0.728445 -1.43466 0
M  V30 5426 O 484.987 -0.99038 -1.46699 0
M  V30 5427 C 482.116 -2.16618 -2.66329 0
M  V30 5428 C 481.202 -3.36855 -2.57661 0
M  V30 5429 N 481.593 -4.56111 -2.18624 0
M  V30 5430 C 479.891 -3.39976 -2.88673 0
M  V30 5431 C 480.592 -5.38247 -2.20601 0
M  V30 5432 N 479.568 -4.77322 -2.60124 0
M  V30 5433 H 483.37 -2.76486 -0.996642 0
M  V30 5434 H 480.884 -1.55896 -0.454994 0
M  V30 5435 H 482.881 -2.37057 -3.42942 0
M  V30 5436 H 481.541 -1.28185 -2.98327 0
M  V30 5437 H 482.552 -4.81726 -1.9016 0
M  V30 5438 H 479.229 -2.61815 -3.25206 0
M  V30 5439 H 480.619 -6.43657 -1.92756 0
M  V30 5440 N 483.339 0.512053 -1.4905 0
M  V30 5441 C 484.564 1.2959 -1.6193 0
M  V30 5442 C 484.989 1.85906 -0.286454 0
M  V30 5443 O 484.347 1.65312 0.744426 0
M  V30 5444 C 484.395 2.40987 -2.68249 0
M  V30 5445 O 483.499 3.44531 -2.26654 0
M  V30 5446 H 482.84 0.383053 -0.542371 0
M  V30 5447 H 485.37 0.614231 -1.95162 0
M  V30 5448 H 485.38 2.86913 -2.90078 0
M  V30 5449 H 484.055 1.99361 -3.65004 0
M  V30 5450 H 482.632 3.046 -2.15112 0
M  V30 5451 N 484.817 1.37938 0.762283 0
M  V30 5452 C 485.765 1.34569 1.89721 0
M  V30 5453 C 486.759 0.232929 1.67791 0
M  V30 5454 O 487.965 0.401485 1.75465 0
M  V30 5455 H 484.34 0.419594 0.624055 0
M  V30 5456 H 486.311 2.30357 1.8968 0
M  V30 5457 C 485.06 1.17898 3.27101 0
M  V30 5458 H 484.383 2.02781 3.44558 0
M  V30 5459 H 485.823 1.19593 4.06784 0
M  V30 5460 C 484.282 -0.114728 3.36705 0
M  V30 5461 O 484.812 -1.0949 3.8649 0
M  V30 5462 N 483.018 -0.16863 2.9011 0
M  V30 5463 H 482.565 0.62967 2.49786 0
M  V30 5464 H 482.523 -1.03383 2.96916 0
M  V30 5465 N 486.295 -0.989507 1.22664 0
M  V30 5466 C 487.225 -2.09847 1.02404 0
M  V30 5467 C 488.206 -1.70007 -0.0561303 0
M  V30 5468 O 489.391 -1.93906 0.106748 0
M  V30 5469 C 486.521 -3.41996 0.604663 0
M  V30 5470 C 485.475 -3.95699 1.63115 0
M  V30 5471 C 484.801 -5.23936 1.0675 0
M  V30 5472 C 486.101 -4.25999 3.02196 0
M  V30 5473 H 487.795 -2.27054 1.95158 0
M  V30 5474 H 485.341 -1.09111 0.939727 0
M  V30 5475 H 487.294 -4.1899 0.45002 0
M  V30 5476 H 486.018 -3.24626 -0.35855 0
M  V30 5477 H 484.677 -3.2084 1.77362 0
M  V30 5478 H 484.325 -5.02909 0.0955422 0
M  V30 5479 H 484.025 -5.60833 1.75328 0
M  V30 5480 H 485.549 -6.0356 0.924516 0
M  V30 5481 H 486.963 -4.93777 2.91303 0
M  V30 5482 H 485.36 -4.74076 3.67929 0
M  V30 5483 H 486.43 -3.33636 3.51873 0
M  V30 5484 N 487.773 -1.03688 -1.18687 0
M  V30 5485 C 488.998 -0.757819 -1.93059 0
M  V30 5486 C 489.423 0.678353 -1.75442 0
M  V30 5487 O 488.781 1.46938 -1.06203 0
M  V30 5488 C 488.829 -1.12423 -3.42627 0
M  V30 5489 O 487.933 -0.247505 -4.11657 0
M  V30 5490 H 487.274 -0.279245 -0.602427 0
M  V30 5491 H 489.804 -1.3857 -1.5053 0
M  V30 5492 H 489.814 -1.08454 -3.93322 0
M  V30 5493 H 488.489 -2.17049 -3.54771 0
M  V30 5494 H 487.066 -0.34649 -3.71287 0
M  V30 5495 N 489.251 1.34841 -0.815825 0
M  V30 5496 C 490.479 2.0273 -0.413294 0
M  V30 5497 C 490.894 1.61459 0.978599 0
M  V30 5498 O 490.251 0.816584 1.63212 0
M  V30 5499 C 490.302 3.58058 -0.497676 0
M  V30 5500 O 490.023 3.97832 -1.8347 0
M  V30 5501 C 491.524 4.4321 -0.0891339 0
M  V30 5502 H 488.744 0.649956 -0.166728 0
M  V30 5503 H 491.288 1.72267 -1.10201 0
M  V30 5504 H 489.443 3.87136 0.142886 0
M  V30 5505 H 489.857 4.92501 -1.80396 0
M  V30 5506 H 491.331 5.5164 -0.199274 0
M  V30 5507 H 491.808 4.28432 0.966571 0
M  V30 5508 H 492.414 4.19446 -0.703214 0
M  V30 5509 N 490.729 0.570148 1.46925 0
M  V30 5510 C 491.676 -0.170257 2.30171 0
M  V30 5511 C 492.646 -0.896099 1.39855 0
M  V30 5512 O 493.831 -0.889248 1.68811 0
M  V30 5513 C 490.971 -1.18605 3.24079 0
M  V30 5514 C 490.084 -0.464947 4.29491 0
M  V30 5515 C 489.219 -1.46716 5.10537 0
M  V30 5516 C 488.258 -0.731758 6.0771 0
M  V30 5517 N 487.395 -1.68142 6.81669 0
M  V30 5518 H 492.235 0.545713 2.92961 0
M  V30 5519 H 489.772 0.280938 1.44392 0
M  V30 5520 H 491.73 -1.78771 3.76957 0
M  V30 5521 H 490.36 -1.86989 2.63125 0
M  V30 5522 H 489.412 0.251506 3.79568 0
M  V30 5523 H 490.724 0.110548 4.98677 0
M  V30 5524 H 489.878 -2.14199 5.6763 0
M  V30 5525 H 488.617 -2.07658 4.41282 0
M  V30 5526 H 487.622 -0.0430787 5.49783 0
M  V30 5527 H 488.847 -0.127904 6.7898 0
M  V30 5528 H 486.793 -2.27918 6.15134 0
M  V30 5529 H 486.71 -1.15841 7.47072 0
M  V30 5530 H 487.978 -2.347 7.43328 0
M  V30 5531 N 492.207 -1.54576 0.307264 0
M  V30 5532 C 493.14 -2.19946 -0.608195 0
M  V30 5533 C 494.118 -1.17096 -1.12815 0
M  V30 5534 O 495.302 -1.45766 -1.19518 0
M  V30 5535 C 492.429 -2.84826 -1.8328 0
M  V30 5536 C 491.475 -4.01256 -1.44554 0
M  V30 5537 S 492.308 -5.33197 -0.49612 0
M  V30 5538 C 493.464 -6.01563 -1.72838 0
M  V30 5539 H 493.697 -2.97253 -0.0528544 0
M  V30 5540 H 491.23 -1.54129 0.0913837 0
M  V30 5541 H 493.188 -3.22832 -2.53554 0
M  V30 5542 H 491.849 -2.07353 -2.35931 0
M  V30 5543 H 491.042 -4.45457 -2.35762 0
M  V30 5544 H 490.644 -3.6484 -0.822671 0
M  V30 5545 H 492.936 -6.22751 -2.6681 0
M  V30 5546 H 493.879 -6.9552 -1.32882 0
M  V30 5547 H 494.287 -5.31279 -1.90795 0
M  V30 5548 N 493.685 -0.035106 -1.57561 0
M  V30 5549 C 494.91 0.655802 -1.96759 0
M  V30 5550 C 495.335 1.64523 -0.911809 0
M  V30 5551 O 494.693 1.80857 0.126673 0
M  V30 5552 C 494.741 1.33326 -3.35047 0
M  V30 5553 O 493.845 2.44866 -3.31835 0
M  V30 5554 H 493.186 0.171807 -0.641388 0
M  V30 5555 H 495.716 -0.0987369 -2.04362 0
M  V30 5556 H 495.726 1.68867 -3.71413 0
M  V30 5557 H 494.401 0.608033 -4.11431 0
M  V30 5558 H 492.978 2.11392 -3.07193 0
M  V30 5559 N 495.163 1.55791 0.238111 0
M  V30 5560 C 496.391 1.82098 0.982233 0
M  V30 5561 C 496.806 0.612025 1.78605 0
M  V30 5562 O 496.163 -0.419381 1.77616 0
M  V30 5563 C 496.214 3.0673 1.91309 0
M  V30 5564 O 495.935 4.2296 1.14179 0
M  V30 5565 C 497.436 3.45903 2.77248 0
M  V30 5566 H 494.656 0.605748 0.288635 0
M  V30 5567 H 497.2 2.02862 0.258341 0
M  V30 5568 H 495.355 2.87991 2.59114 0
M  V30 5569 H 495.769 4.93653 1.7722 0
M  V30 5570 H 497.243 4.36189 3.38295 0
M  V30 5571 H 497.72 2.66891 3.48806 0
M  V30 5572 H 498.326 3.67024 2.14881 0
M  V30 5573 N 496.642 -0.504142 1.49319 0
M  V30 5574 C 497.572 -1.61473 1.68667 0
M  V30 5575 C 498.553 -1.61455 0.535378 0
M  V30 5576 O 499.738 -1.78245 0.770868 0
M  V30 5577 C 496.868 -2.99971 1.75028 0
M  V30 5578 C 495.822 -3.14854 2.89916 0
M  V30 5579 C 495.148 -4.54671 2.81387 0
M  V30 5580 C 496.448 -2.95176 4.30893 0
M  V30 5581 H 498.142 -1.45535 2.61648 0
M  V30 5582 H 495.688 -0.698711 1.25913 0
M  V30 5583 H 497.641 -3.77562 1.8715 0
M  V30 5584 H 496.365 -3.1699 0.786441 0
M  V30 5585 H 495.024 -2.39687 2.77391 0
M  V30 5586 H 494.672 -4.68562 1.82917 0
M  V30 5587 H 494.372 -4.6557 3.58494 0
M  V30 5588 H 495.896 -5.34327 2.95512 0
M  V30 5589 H 497.31 -3.62538 4.44116 0
M  V30 5590 H 495.707 -3.17549 5.09198 0
M  V30 5591 H 496.777 -1.91332 4.45556 0
M  V30 5592 N 498.12 -1.38341 -0.754957 0
M  V30 5593 C 499.345 -1.37882 -1.5493 0
M  V30 5594 C 499.77 0.0296385 -1.88077 0
M  V30 5595 O 499.128 1.01133 -1.50472 0
M  V30 5596 C 499.176 -2.23996 -2.82592 0
M  V30 5597 O 498.28 -1.65612 -3.77686 0
M  V30 5598 H 497.621 -0.470384 -0.468652 0
M  V30 5599 H 500.151 -1.82084 -0.933082 0
M  V30 5600 H 500.161 -2.37806 -3.3153 0
M  V30 5601 H 498.836 -3.26365 -2.57796 0
M  V30 5602 H 497.413 -1.60936 -3.36384 0
M  V30 5603 N 499.598 0.982988 -1.23187 0
M  V30 5604 C 500.828 1.75666 -1.08743 0
M  V30 5605 C 501.236 1.85662 0.364195 0
M  V30 5606 O 500.579 1.33317 1.26382 0
M  V30 5607 C 500.641 3.20144 -1.63549 0
M  V30 5608 C 500.305 3.33665 -3.12277 0
M  V30 5609 C 501.302 3.20194 -4.096 0
M  V30 5610 C 498.987 3.58397 -3.51933 0
M  V30 5611 C 500.981 3.31256 -5.44563 0
M  V30 5612 C 498.668 3.69098 -4.87042 0
M  V30 5613 C 499.666 3.55537 -5.83166 0
M  V30 5614 O 499.354 3.65864 -7.1582 0
M  V30 5615 H 499.086 0.558194 -0.381307 0
M  V30 5616 H 501.64 1.24387 -1.63454 0
M  V30 5617 H 499.87 3.72659 -1.03256 0
M  V30 5618 H 501.559 3.79262 -1.4462 0
M  V30 5619 H 502.325 3.00987 -3.80305 0
M  V30 5620 H 498.204 3.68025 -2.77631 0
M  V30 5621 H 501.748 3.20588 -6.19572 0
M  V30 5622 H 497.645 3.87814 -5.16014 0
M  V30 5623 H 498.413 3.82675 -7.23534 0
M  V30 5624 N 501.076 1.04316 1.18135 0
M  V30 5625 C 502.492 0.762858 1.40188 0
M  V30 5626 C 502.692 -0.646547 1.90846 0
M  V30 5627 O 501.748 -1.41036 2.0944 0
M  V30 5628 C 503.061 1.81106 2.40044 0
M  V30 5629 C 504.609 1.83226 2.53766 0
M  V30 5630 C 505.084 2.87044 3.56889 0
M  V30 5631 N 506.575 2.85951 3.64398 0
M  V30 5632 C 507.31 3.62932 4.43923 0
M  V30 5633 N 506.806 4.49672 5.27036 0
M  V30 5634 N 508.599 3.51411 4.38711 0
M  V30 5635 H 500.75 1.95264 0.835805 0
M  V30 5636 H 503.013 0.845017 0.429709 0
M  V30 5637 H 502.719 2.82214 2.09876 0
M  V30 5638 H 502.593 1.64529 3.39426 0
M  V30 5639 H 504.98 0.827869 2.8325 0
M  V30 5640 H 505.061 2.03879 1.54489 0
M  V30 5641 H 504.705 3.87663 3.28145 0
M  V30 5642 H 504.635 2.63645 4.5585 0
M  V30 5643 H 507.126 2.23051 3.05052 0
M  V30 5644 H 507.439 5.05116 5.84874 0
M  V30 5645 H 505.784 4.53738 5.26447 0
M  V30 5646 H 508.975 2.83047 3.72829 0
M  V30 5647 H 509.148 4.11654 5.00445 0
M  V30 5648 N 502.554 -1.34406 0.822964 0
M  V30 5649 C 503.965 -1.8069 0.469879 0
M  V30 5650 C 504.316 -1.68223 -1.00972 0
M  V30 5651 O 503.441 -1.22226 -1.78577 0
M  V30 5652 C 504.036 -3.28064 0.846118 0
M  V30 5653 C 502.595 -3.72428 0.545402 0
M  V30 5654 C 501.742 -2.56116 1.06301 0
M  V30 5655 H 504.693 -1.22153 1.01313 0
M  V30 5656 H 504.714 -3.80205 0.149922 0
M  V30 5657 H 504.226 -3.37107 1.92304 0
M  V30 5658 H 502.327 -3.68924 -0.522109 0
M  V30 5659 H 502.44 -4.66548 1.0895 0
M  V30 5660 H 500.804 -2.50048 0.484554 0
M  V30 5661 H 501.587 -2.67928 2.14638 0
M  V30 5662 N 504.032 -0.577932 -1.46621 0
M  V30 5663 C 505.257 -0.0652536 -2.07297 0
M  V30 5664 C 505.682 1.22828 -1.4246 0
M  V30 5665 O 505.04 1.74075 -0.506718 0
M  V30 5666 C 505.088 0.0920589 -3.60482 0
M  V30 5667 O 504.192 1.14972 -3.96049 0
M  V30 5668 H 503.533 -0.06065 -0.661224 0
M  V30 5669 H 506.063 -0.799515 -1.88332 0
M  V30 5670 H 506.073 0.299741 -4.06897 0
M  V30 5671 H 504.748 -0.852612 -4.07067 0
M  V30 5672 H 503.325 0.920879 -3.61351 0
M  V30 5673 N 505.51 1.54411 -0.315457 0
M  V30 5674 C 506.787 1.92562 0.343398 0
M  V30 5675 C 507.167 1.24423 1.70535 0
M  V30 5676 O 506.515 0.385051 2.25232 0
M  V30 5677 C 506.725 3.46168 0.443687 0
M  V30 5678 C 508.073 4.18659 0.707783 0
M  V30 5679 O 509.097 3.52281 0.52693 0
M  V30 5680 O 507.956 5.36198 1.05612 0
M  V30 5681 H 505.05 0.80379 0.194552 0
M  V30 5682 H 507.596 1.65738 -0.364577 0
M  V30 5683 H 506.368 3.8792 -0.513172 0
M  V30 5684 H 505.991 3.79073 1.19956 0
M  V30 5685 N 506.988 0.0434614 1.5754 0
M  V30 5686 C 507.936 -0.951465 2.1225 0
M  V30 5687 C 508.93 -1.3274 1.05245 0
M  V30 5688 O 510.136 -1.30795 1.23663 0
M  V30 5689 H 506.511 -0.324667 0.678303 0
M  V30 5690 H 508.482 -0.464855 2.94757 0
M  V30 5691 C 507.231 -2.21972 2.67626 0
M  V30 5692 H 506.554 -1.93923 3.4962 0
M  V30 5693 H 507.994 -2.89765 3.09536 0
M  V30 5694 C 506.453 -2.95919 1.61038 0
M  V30 5695 O 506.983 -3.8857 1.01862 0
M  V30 5696 N 505.189 -2.58511 1.32741 0
M  V30 5697 H 504.736 -1.83244 1.81051 0
M  V30 5698 H 504.694 -3.08296 0.616531 0
M  V30 5699 N 508.466 -1.55915 -0.229846 0
M  V30 5700 C 509.712 -1.78807 -0.956868 0
M  V30 5701 C 510.045 -0.611687 -1.84315 0
M  V30 5702 O 509.32 0.389398 -1.90562 0
M  V30 5703 C 509.603 -3.11718 -1.80288 0
M  V30 5704 C 509.456 -4.3979 -0.943649 0
M  V30 5705 C 510.775 -3.40999 -2.78222 0
M  V30 5706 H 507.894 -0.6505 -0.346437 0
M  V30 5707 H 510.536 -1.88648 -0.226252 0
M  V30 5708 H 508.686 -3.03459 -2.42579 0
M  V30 5709 H 510.358 -4.60059 -0.338121 0
M  V30 5710 H 508.601 -4.33086 -0.248705 0
M  V30 5711 H 509.272 -5.29208 -1.5698 0
M  V30 5712 H 511.748 -3.49332 -2.26067 0
M  V30 5713 H 510.624 -4.35183 -3.34526 0
M  V30 5714 H 510.885 -2.62754 -3.55546 0
M  V30 5715 N 509.944 0.496216 -1.49584 0
M  V30 5716 C 511.169 1.27865 -1.63295 0
M  V30 5717 C 511.594 1.85592 -0.306156 0
M  V30 5718 O 510.952 1.66092 0.726851 0
M  V30 5719 C 511 2.38128 -2.7079 0
M  V30 5720 O 510.104 3.42108 -2.30296 0
M  V30 5721 H 509.445 0.377279 -0.546403 0
M  V30 5722 H 511.975 0.593497 -1.95803 0
M  V30 5723 H 511.985 2.8382 -2.93104 0
M  V30 5724 H 510.66 1.95479 -3.67098 0
M  V30 5725 H 509.237 3.02301 -2.18331 0
M  V30 5726 N 511.423 1.38739 0.74761 0
M  V30 5727 C 512.648 1.38702 1.54197 0
M  V30 5728 C 513.073 -0.019664 1.8809 0
M  V30 5729 O 512.431 -1.00333 1.51006 0
M  V30 5730 C 512.479 2.25492 2.814 0
M  V30 5731 O 511.583 1.67613 3.76802 0
M  V30 5732 H 510.924 0.472863 0.466151 0
M  V30 5733 H 513.454 1.82577 0.923413 0
M  V30 5734 H 513.464 2.39561 3.30264 0
M  V30 5735 H 512.139 3.27727 2.56062 0
M  V30 5736 H 510.716 1.62718 3.35526 0
M  V30 5737 N 512.901 -0.976442 1.23707 0
M  V30 5738 C 514.126 -1.75875 1.09922 0
M  V30 5739 C 514.551 -1.84911 -0.34489 0
M  V30 5740 O 513.909 -1.31363 -1.24954 0
M  V30 5741 C 513.957 -3.16179 1.73388 0
M  V30 5742 O 513.061 -4.00124 0.99871 0
M  V30 5743 H 512.402 -0.540954 0.385052 0
M  V30 5744 H 514.932 -1.22546 1.6384 0
M  V30 5745 H 514.942 -3.66741 1.78788 0
M  V30 5746 H 513.617 -3.08917 2.78466 0
M  V30 5747 H 512.194 -3.58624 1.02193 0
M  V30 5748 N 514.379 -1.04941 -1.1758 0
M  V30 5749 C 515.607 -0.778294 -1.91703 0
M  V30 5750 C 516.022 0.665697 -1.76675 0
M  V30 5751 O 515.379 1.45456 -1.10222 0
M  V30 5752 C 515.43 -1.14628 -3.42845 0
M  V30 5753 O 515.151 -2.53359 -3.57409 0
M  V30 5754 C 516.652 -0.900931 -4.34049 0
M  V30 5755 H 513.872 -0.283167 -0.608323 0
M  V30 5756 H 516.416 -1.39942 -1.49119 0
M  V30 5757 H 514.571 -0.569953 -3.83184 0
M  V30 5758 H 514.985 -2.67709 -4.51035 0
M  V30 5759 H 516.459 -1.20817 -5.38616 0
M  V30 5760 H 516.936 0.163966 -4.38894 0
M  V30 5761 H 517.542 -1.46097 -3.99419 0
M  V30 5762 N 515.857 1.33968 -0.830081 0
M  V30 5763 C 516.804 2.29387 -0.255008 0
M  V30 5764 C 517.774 1.53923 0.624243 0
M  V30 5765 O 518.959 1.82262 0.564372 0
M  V30 5766 C 516.099 3.4034 0.571209 0
M  V30 5767 C 515.212 4.30729 -0.331083 0
M  V30 5768 C 514.347 5.2879 0.505389 0
M  V30 5769 C 513.386 6.10819 -0.395843 0
M  V30 5770 N 512.523 7.00948 0.401979 0
M  V30 5771 H 517.363 2.77972 -1.07404 0
M  V30 5772 H 514.9 1.36785 -0.541133 0
M  V30 5773 H 516.858 4.03361 1.06562 0
M  V30 5774 H 515.488 2.9297 1.35529 0
M  V30 5775 H 514.54 3.68507 -0.943759 0
M  V30 5776 H 515.852 4.88181 -1.02377 0
M  V30 5777 H 515.006 5.97297 1.06399 0
M  V30 5778 H 513.745 4.71894 1.23155 0
M  V30 5779 H 512.75 5.41238 -0.966529 0
M  V30 5780 H 513.975 6.69797 -1.12023 0
M  V30 5781 H 511.921 6.46512 1.11168 0
M  V30 5782 H 511.838 7.55643 -0.232167 0
M  V30 5783 H 513.106 7.73774 0.943102 0
M  V30 5784 N 517.335 0.585699 1.46312 0
M  V30 5785 C 518.282 -0.145835 2.30339 0
M  V30 5786 C 519.252 -0.881215 1.40797 0
M  V30 5787 O 520.437 -0.871293 1.69744 0
M  V30 5788 C 517.577 -1.15161 3.25318 0
M  V30 5789 C 516.69 -0.419367 4.2996 0
M  V30 5790 C 515.825 -1.41293 5.12064 0
M  V30 5791 C 514.864 -0.667261 6.08452 0
M  V30 5792 N 514.001 -1.60903 6.83414 0
M  V30 5793 H 518.841 0.576755 2.92365 0
M  V30 5794 H 516.378 0.296237 1.44086 0
M  V30 5795 H 518.336 -1.74763 3.78832 0
M  V30 5796 H 516.966 -1.84188 2.65094 0
M  V30 5797 H 516.018 0.291751 3.7928 0
M  V30 5798 H 517.33 0.163433 4.98532 0
M  V30 5799 H 516.484 -2.08167 5.6987 0
M  V30 5800 H 515.223 -2.02966 4.43459 0
M  V30 5801 H 514.228 0.0152356 5.49798 0
M  V30 5802 H 515.453 -0.0558817 6.79077 0
M  V30 5803 H 513.399 -2.21381 6.17516 0
M  V30 5804 H 513.316 -1.07911 7.48259 0
M  V30 5805 H 514.584 -2.26802 7.45775 0
M  V30 5806 N 518.813 -1.54241 0.323641 0
M  V30 5807 C 520.224 -1.85975 -0.164405 0
M  V30 5808 C 520.575 -1.24529 -1.51615 0
M  V30 5809 O 519.7 -0.551351 -2.09258 0
M  V30 5810 C 520.295 -3.37424 -0.305091 0
M  V30 5811 C 518.854 -3.69107 -0.737358 0
M  V30 5812 C 518.001 -2.76942 0.140884 0
M  V30 5813 H 520.952 -1.49088 0.543922 0
M  V30 5814 H 520.973 -3.63147 -1.13598 0
M  V30 5815 H 520.485 -3.82116 0.678876 0
M  V30 5816 H 518.586 -3.29947 -1.73107 0
M  V30 5817 H 518.699 -4.76035 -0.541053 0
M  V30 5818 H 517.063 -2.51795 -0.383572 0
M  V30 5819 H 517.846 -3.24461 1.12162 0
M  V30 5820 N 520.291 -0.0518155 -1.57515 0
M  V30 5821 C 521.254 0.907547 -2.10467 0
M  V30 5822 C 522.254 1.23947 -1.02439 0
M  V30 5823 O 523.444 1.17604 -1.2851 0
M  V30 5824 C 520.576 2.21723 -2.58944 0
M  V30 5825 H 521.769 0.44851 -2.96527 0
M  V30 5826 H 519.322 0.196598 -1.55059 0
M  V30 5827 H 520.057 2.72206 -1.76279 0
M  V30 5828 H 519.842 1.98935 -3.37886 0
M  V30 5829 H 521.332 2.90441 -3.00056 0
M  V30 5830 N 521.769 1.56035 0.221574 0
M  V30 5831 C 523.18 1.69229 0.788567 0
M  V30 5832 C 523.531 0.653814 1.84986 0
M  V30 5833 O 522.656 -0.195065 2.15519 0
M  V30 5834 C 523.251 3.06809 1.43713 0
M  V30 5835 C 521.81 3.21858 1.95152 0
M  V30 5836 C 520.957 2.65155 0.811685 0
M  V30 5837 H 523.908 1.587 -0.00307894 0
M  V30 5838 H 523.929 3.02666 2.30594 0
M  V30 5839 H 523.441 3.82369 0.664475 0
M  V30 5840 H 521.542 2.51167 2.7522 0
M  V30 5841 H 521.655 4.29073 2.1315 0
M  V30 5842 H 520.019 2.23635 1.21899 0
M  V30 5843 H 520.802 3.43261 0.0516987 0
M  V30 5844 N 523.247 -0.488276 1.49845 0
M  V30 5845 C 524.487 -1.2516 1.61599 0
M  V30 5846 C 524.851 -1.89615 0.301706 0
M  V30 5847 O 526.052 -2.67182 0.29453 0
M  V30 5848 C 524.323 -2.2805 2.75187 0
M  V30 5849 S 525.882 -3.13552 3.0697 0
M  V30 5850 H 522.7 -0.425178 0.569864 0
M  V30 5851 H 525.302 -0.551545 1.87559 0
M  V30 5852 H 524.006 -1.7925 3.69185 0
M  V30 5853 H 523.537 -3.02708 2.5126 0
M  V30 5854 H 525.552 -4.28927 2.49471 0
M  V30 5855 N 524.725 -1.39134 -0.740242 0
M  V30 5856 C 525.972 -1.36071 -1.49969 0
M  V30 5857 C 526.3 0.0450245 -1.94448 0
M  V30 5858 O 525.555 1.02482 -1.66721 0
M  V30 5859 C 525.854 -2.27457 -2.75678 0
M  V30 5860 C 525.52 -3.75185 -2.50094 0
M  V30 5861 C 524.182 -4.15439 -2.42825 0
M  V30 5862 C 526.534 -4.68643 -2.28086 0
M  V30 5863 C 523.862 -5.4722 -2.11584 0
M  V30 5864 C 526.214 -6.00695 -1.98363 0
M  V30 5865 C 524.878 -6.40018 -1.8956 0
M  V30 5866 H 524.148 -0.497921 -0.548777 0
M  V30 5867 H 526.795 -1.71599 -0.85007 0
M  V30 5868 H 525.1 -1.8503 -3.45356 0
M  V30 5869 H 526.797 -2.22384 -3.33686 0
M  V30 5870 H 523.387 -3.43279 -2.56627 0
M  V30 5871 H 527.571 -4.3838 -2.32672 0
M  V30 5872 H 522.827 -5.76615 -2.03287 0
M  V30 5873 H 527.001 -6.72644 -1.80341 0
M  V30 5874 H 524.628 -7.42051 -1.65117 0
M  V30 5875 N 526.204 0.969867 -1.24223 0
M  V30 5876 C 527.114 2.09806 -1.0497 0
M  V30 5877 C 528.13 1.73998 0.00886455 0
M  V30 5878 O 529.306 2.00513 -0.188848 0
M  V30 5879 C 526.371 3.40467 -0.654452 0
M  V30 5880 C 525.432 3.90236 -1.78926 0
M  V30 5881 C 524.665 5.14662 -1.41277 0
M  V30 5882 O 524.888 5.69602 -0.301632 0
M  V30 5883 O 523.822 5.58761 -2.23763 0
M  V30 5884 H 527.648 2.28942 -1.99548 0
M  V30 5885 H 525.233 1.08197 -1.03023 0
M  V30 5886 H 527.115 4.19039 -0.445452 0
M  V30 5887 H 525.79 3.22636 0.262216 0
M  V30 5888 H 524.697 3.12735 -2.05299 0
M  V30 5889 H 526.03 4.1254 -2.68462 0
M  V30 5890 N 527.682 1.05563 1.17022 0
M  V30 5891 C 528.928 0.769074 1.87652 0
M  V30 5892 C 529.261 -0.702326 1.81055 0
M  V30 5893 O 528.536 -1.5139 1.22112 0
M  V30 5894 C 528.819 1.25492 3.37526 0
M  V30 5895 C 528.672 2.78953 3.52853 0
M  V30 5896 C 529.991 0.856919 4.31677 0
M  V30 5897 H 527.11 0.280854 0.681388 0
M  V30 5898 H 529.752 1.31027 1.37593 0
M  V30 5899 H 527.902 0.794516 3.80289 0
M  V30 5900 H 529.574 3.33146 3.19079 0
M  V30 5901 H 527.817 3.18046 2.95007 0
M  V30 5902 H 528.488 3.08011 4.58076 0
M  V30 5903 H 530.964 1.25334 3.96775 0
M  V30 5904 H 529.84 1.22443 5.35069 0
M  V30 5905 H 530.101 -0.238787 4.41455 0
M  V30 5906 N 529.16 -1.33526 0.837174 0
M  V30 5907 C 530.07 -2.33023 0.271568 0
M  V30 5908 C 531.086 -1.63272 -0.601514 0
M  V30 5909 O 532.262 -1.94939 -0.506038 0
M  V30 5910 C 529.327 -3.42382 -0.545448 0
M  V30 5911 C 528.388 -4.27857 0.351709 0
M  V30 5912 C 527.621 -5.31994 -0.426409 0
M  V30 5913 O 527.844 -5.45763 -1.65828 0
M  V30 5914 O 526.778 -6.01572 0.1987 0
M  V30 5915 H 530.604 -2.83256 1.09545 0
M  V30 5916 H 528.189 -1.36837 0.599655 0
M  V30 5917 H 530.071 -4.09122 -1.00979 0
M  V30 5918 H 528.746 -2.94369 -1.34641 0
M  V30 5919 H 527.653 -3.6399 0.863853 0
M  V30 5920 H 528.986 -4.79349 1.1174 0
M  V30 5921 O 530.677 -0.734023 -1.43855 0
M  V30 5922 H 531.368 -0.285275 -1.91588 0
M  V30 END ATOM
M  V30 BEGIN BOND
M  V30 END BOND
M  V30 END CTAB
M  END
$$$$
