drugbank_target|Q99835 Smoothened homolog (DB01047; DB06786; DB08828; DB09143; DB11978)
 OpenBabel12092120573D

  0  0  0     0  0            999 V3000
M  V30 BEGIN CTAB
M  V30 COUNTS 12147 12319 0 0 0
M  V30 BEGIN ATOM
M  V30 1 H -0.908 1.98254 -0.117106 0
M  V30 2 N 0 1.576 0 0
M  V30 3 C 0.933 2.03868 1.02534 0
M  V30 4 C 1.911 0.928543 1.3348 0
M  V30 5 O 3.095 1.19667 1.45644 0
M  V30 6 C 0.222 2.43627 2.35294 0
M  V30 7 C -0.732 3.65373 2.2001 0
M  V30 8 S 0.101 5.13292 1.52614 0
M  V30 9 C 1.257 5.56322 2.86805 0
M  V30 10 H 1.49 2.90518 0.631377 0
M  V30 11 H -0.977 1.52953 0.210867 0
M  V30 12 H 0.981 2.67203 3.11629 0
M  V30 13 H -0.358 1.57376 2.7183 0
M  V30 14 H -1.165 3.90944 3.18086 0
M  V30 15 H -1.563 3.418 1.51819 0
M  V30 16 H 0.729 5.58782 3.83104 0
M  V30 17 H 1.672 6.56266 2.65933 0
M  V30 18 H 2.08 4.83886 2.90714 0
M  V30 19 N 1.4781 -0.272755 1.55222 0
M  V30 20 C 2.4411 -1.32041 1.87344 0
M  V30 21 C 3.4411 -1.42342 0.74803 0
M  V30 22 O 4.6311 -1.41488 1.0162 0
M  V30 23 C 1.7631 -2.70173 2.07893 0
M  V30 24 H 2.9561 -1.04789 2.80997 0
M  V30 25 H 0.5091 -0.51083 1.47717 0
M  V30 26 H 1.2441 -3.02605 1.16622 0
M  V30 27 H 1.0291 -2.64082 2.89833 0
M  V30 28 H 2.5191 -3.45869 2.34017 0
M  V30 29 N 2.9562 -1.48159 -0.537278 0
M  V30 30 C 3.9192 -1.61665 -1.62472 0
M  V30 31 C 4.9192 -0.490395 -1.5314 0
M  V30 32 O 6.1092 -0.755998 -1.5694 0
M  V30 33 C 3.2412 -1.57997 -3.02076 0
M  V30 34 H 4.4342 -2.58621 -1.51839 0
M  V30 35 H 1.9872 -1.36647 -0.758771 0
M  V30 36 H 2.7222 -0.624913 -3.18222 0
M  V30 37 H 2.5072 -2.39755 -3.10258 0
M  V30 38 H 3.9972 -1.70627 -3.81151 0
M  V30 39 N 4.4343 0.785586 -1.36625 0
M  V30 40 C 5.3973 1.87999 -1.31107 0
M  V30 41 C 6.3973 1.59316 -0.217959 0
M  V30 42 O 7.5873 1.67656 -0.472977 0
M  V30 43 C 4.7193 3.24861 -1.03334 0
M  V30 44 H 5.9123 1.94307 -2.2844 0
M  V30 45 H 3.4653 0.983813 -1.21453 0
M  V30 46 H 4.2003 3.24235 -0.0647432 0
M  V30 47 H 3.9853 3.4707 -1.82441 0
M  V30 48 H 5.4753 4.04929 -1.02088 0
M  V30 49 N 5.9124 1.20967 1.01018 0
M  V30 50 C 7.3284 0.965905 1.27053 0
M  V30 51 C 7.5284 -0.350785 1.98423 0
M  V30 52 O 6.5844 -1.07773 2.28344 0
M  V30 53 C 7.8974 2.15294 2.09926 0
M  V30 54 C 9.4454 2.19463 2.23171 0
M  V30 55 C 9.9204 3.3767 3.09424 0
M  V30 56 N 11.4114 3.37724 3.17012 0
M  V30 57 C 12.1464 4.25837 3.83993 0
M  V30 58 N 11.6424 5.24138 4.53047 0
M  V30 59 N 13.4354 4.1366 3.80581 0
M  V30 60 H 5.5864 2.0565 0.531194 0
M  V30 61 H 7.8494 0.90024 0.297106 0
M  V30 62 H 7.5554 3.10684 1.64828 0
M  V30 63 H 7.4294 2.13923 3.10672 0
M  V30 64 H 9.8164 1.24632 2.6749 0
M  V30 65 H 9.8974 2.2488 1.21912 0
M  V30 66 H 9.5414 4.32791 2.65808 0
M  V30 67 H 9.4714 3.29491 4.10784 0
M  V30 68 H 11.9624 2.6658 2.6785 0
M  V30 69 H 12.2754 5.87684 5.01844 0
M  V30 70 H 10.6204 5.28068 4.5185 0
M  V30 71 H 13.8114 3.36127 3.25785 0
M  V30 72 H 13.9844 4.82538 4.32505 0
M  V30 73 N 7.3905 -1.2043 1.01659 0
M  V30 74 C 8.8015 -1.71517 0.737482 0
M  V30 75 C 9.1525 -1.81547 -0.743973 0
M  V30 76 O 8.2775 -1.47803 -1.58061 0
M  V30 77 C 8.8725 -3.11515 1.33206 0
M  V30 78 C 7.4315 -3.59912 1.10183 0
M  V30 79 C 6.5785 -2.37116 1.43776 0
M  V30 80 H 9.5295 -1.05444 1.18606 0
M  V30 81 H 9.5505 -3.73575 0.722636 0
M  V30 82 H 9.0625 -3.04182 2.41028 0
M  V30 83 H 7.1635 -3.72577 0.0412756 0
M  V30 84 H 7.2765 -4.44731 1.78188 0
M  V30 85 H 5.6405 -2.39857 0.856778 0
M  V30 86 H 6.4235 -2.32424 2.52654 0
M  V30 87 N 8.8686 -0.792821 -1.36206 0
M  V30 88 C 9.8316 -0.199459 -2.2833 0
M  V30 89 C 10.8316 0.605189 -1.48977 0
M  V30 90 O 12.0216 0.425685 -1.68919 0
M  V30 91 C 9.1536 0.723523 -3.33134 0
M  V30 92 H 10.3466 -1.01181 -2.82316 0
M  V30 93 H 7.8996 -0.562485 -1.45828 0
M  V30 94 H 8.6346 1.56008 -2.84309 0
M  V30 95 H 8.4196 0.148436 -3.91819 0
M  V30 96 H 9.9096 1.13344 -4.01924 0
M  V30 97 N 10.3467 1.47872 -0.545128 0
M  V30 98 C 11.7627 1.5829 -0.204032 0
M  V30 99 C 11.9627 1.54529 1.29317 0
M  V30 100 O 11.0187 1.44232 2.07252 0
M  V30 101 C 12.3317 2.89304 -0.819987 0
M  V30 102 C 13.8797 3.02864 -0.790105 0
M  V30 103 C 14.3547 4.3656 -1.38491 0
M  V30 104 N 15.8457 4.43165 -1.34755 0
M  V30 105 C 16.5807 5.45153 -1.77753 0
M  V30 106 N 16.0767 6.54016 -2.2855 0
M  V30 107 N 17.8697 5.36125 -1.68897 0
M  V30 108 H 10.0207 1.4856 -1.51802 0
M  V30 109 H 12.2837 0.706305 -0.632327 0
M  V30 110 H 11.9897 2.97757 -1.87173 0
M  V30 111 H 11.8637 3.75957 -0.305915 0
M  V30 112 H 14.2507 2.94014 0.252913 0
M  V30 113 H 14.3317 2.17782 -1.34181 0
M  V30 114 H 13.9757 4.46164 -2.42693 0
M  V30 115 H 13.9057 5.20353 -0.808754 0
M  V30 116 H 16.3967 3.65083 -0.975855 0
M  V30 117 H 16.7097 7.27994 -2.59314 0
M  V30 118 H 15.0547 6.54938 -2.32553 0
M  V30 119 H 18.2457 4.49975 -1.28998 0
M  V30 120 H 18.4187 6.15472 -2.02726 0
M  V30 121 N 11.8248 0.280983 1.55075 0
M  V30 122 C 13.0728 -0.333455 1.9933 0
M  V30 123 C 13.3938 -1.55937 1.17085 0
M  V30 124 O 12.6638 -1.94143 0.261805 0
M  V30 125 H 11.2438 -0.126197 0.736263 0
M  V30 126 H 13.9058 0.387678 1.91005 0
M  V30 127 H 13.0018 -0.619292 3.05894 0
M  V30 128 N 13.3029 -1.57598 0.00835791 0
M  V30 129 C 14.7139 -1.7892 -0.53333 0
M  V30 130 C 15.0649 -0.916609 -1.73473 0
M  V30 131 O 14.1899 -0.121336 -2.1606 0
M  V30 132 C 14.7849 -3.24488 -0.974313 0
M  V30 133 C 13.3439 -3.46878 -1.46125 0
M  V30 134 C 12.4909 -2.74157 -0.416302 0
M  V30 135 H 15.4419 -1.56958 0.234495 0
M  V30 136 H 15.4629 -3.3306 -1.83988 0
M  V30 137 H 14.9749 -3.87972 -0.099718 0
M  V30 138 H 13.0759 -2.8862 -2.35646 0
M  V30 139 H 13.1889 -4.55572 -1.48295 0
M  V30 140 H 11.5529 -2.39022 -0.87981 0
M  V30 141 H 12.3359 -3.40345 0.44947 0
M  V30 142 N 14.781 0.264519 -1.55364 0
M  V30 143 C 15.691 1.34902 -1.91934 0
M  V30 144 C 16.707 1.53595 -0.817593 0
M  V30 145 O 17.883 1.67558 -1.11742 0
M  V30 146 C 14.948 2.68676 -2.19121 0
M  V30 147 C 14.009 2.58657 -3.4263 0
M  V30 148 C 13.242 3.86051 -3.68511 0
M  V30 149 O 13.465 4.87126 -2.96757 0
M  V30 150 O 12.399 3.85744 -4.62045 0
M  V30 151 H 16.225 1.06883 -2.8427 0
M  V30 152 H 13.81 0.463775 -1.42019 0
M  V30 153 H 15.692 3.47759 -2.37995 0
M  V30 154 H 14.367 2.96463 -1.29966 0
M  V30 155 H 13.274 1.7792 -3.29082 0
M  V30 156 H 14.607 2.35818 -4.32031 0
M  V30 157 N 16.2591 1.48442 0.529413 0
M  V30 158 C 17.1891 1.65902 1.64313 0
M  V30 159 C 18.1701 0.507897 1.6234 0
M  V30 160 O 19.3551 0.740503 1.79528 0
M  V30 161 C 16.4851 1.69911 3.02898 0
M  V30 162 C 15.4391 2.8453 3.19729 0
M  V30 163 C 14.7651 2.73629 4.59381 0
M  V30 164 C 16.0651 4.25821 3.02447 0
M  V30 165 H 17.7591 2.5914 1.49955 0
M  V30 166 H 15.3051 1.24709 0.719982 0
M  V30 167 H 17.2581 1.80715 3.80684 0
M  V30 168 H 15.9821 0.732524 3.18279 0
M  V30 169 H 14.6411 2.73283 2.44361 0
M  V30 170 H 14.2891 1.74938 4.71599 0
M  V30 171 H 13.9891 3.50541 4.71588 0
M  V30 172 H 15.5131 2.86401 5.39265 0
M  V30 173 H 16.9271 4.37898 3.70024 0
M  V30 174 H 15.3241 5.03735 3.26146 0
M  V30 175 H 16.3941 4.42244 1.98867 0
M  V30 176 N 17.7372 -0.778329 1.37039 0
M  V30 177 C 19.1482 -1.35421 1.28523 0
M  V30 178 C 19.4992 -1.96075 -0.0700901 0
M  V30 179 O 18.6242 -1.93352 -0.971801 0
M  V30 180 C 19.2192 -2.46211 2.32735 0
M  V30 181 C 17.7782 -2.99585 2.27873 0
M  V30 182 C 16.9252 -1.72748 2.16918 0
M  V30 183 H 19.8762 -0.5791 1.47757 0
M  V30 184 H 19.8972 -3.2552 1.9702 0
M  V30 185 H 19.4092 -2.02036 3.31365 0
M  V30 186 H 17.5102 -3.48152 1.32745 0
M  V30 187 H 17.6232 -3.55646 3.21018 0
M  V30 188 H 15.9872 -1.95416 1.63354 0
M  V30 189 H 16.7702 -1.30686 3.17452 0
M  V30 190 N 19.2153 -1.21501 -1.00376 0
M  V30 191 C 20.1453 -0.999478 -2.11028 0
M  V30 192 C 21.1263 0.0759671 -1.6993 0
M  V30 193 O 22.3113 -0.0841106 -1.94018 0
M  V30 194 C 19.4413 -0.564709 -3.42678 0
M  V30 195 C 18.3953 -1.58486 -3.97576 0
M  V30 196 C 17.7213 -1.00628 -5.25146 0
M  V30 197 C 19.0213 -2.97204 -4.29496 0
M  V30 198 H 20.7153 -1.92495 -2.29317 0
M  V30 199 H 18.2613 -0.92693 -1.102 0
M  V30 200 H 20.2143 -0.401091 -4.19487 0
M  V30 201 H 18.9383 0.396411 -3.24185 0
M  V30 202 H 17.5973 -1.73606 -3.22888 0
M  V30 203 H 17.2453 -0.0368439 -5.02987 0
M  V30 204 H 16.9453 -1.68771 -5.62841 0
M  V30 205 H 18.4693 -0.854015 -6.04598 0
M  V30 206 H 19.8833 -2.8552 -4.97143 0
M  V30 207 H 18.2803 -3.62372 -4.78338 0
M  V30 208 H 19.3503 -3.47956 -3.3772 0
M  V30 209 N 20.6934 1.19889 -1.02296 0
M  V30 210 C 21.6234 2.25141 -0.619174 0
M  V30 211 C 22.6044 1.66051 0.368915 0
M  V30 212 O 23.7894 1.92546 0.252941 0
M  V30 213 C 20.9194 3.4728 0.0368783 0
M  V30 214 C 19.8734 4.19005 -0.872865 0
M  V30 215 C 19.1994 5.34637 -0.0822402 0
M  V30 216 C 20.4994 4.74452 -2.18387 0
M  V30 217 H 22.1934 2.59171 -1.49903 0
M  V30 218 H 19.7394 1.24579 -0.722222 0
M  V30 219 H 21.6924 4.20098 0.330958 0
M  V30 220 H 20.4164 3.12433 0.95149 0
M  V30 221 H 19.0754 3.48061 -1.15105 0
M  V30 222 H 18.7234 4.96034 0.83422 0
M  V30 223 H 18.4234 5.83557 -0.688149 0
M  V30 224 H 19.9474 6.10255 0.205238 0
M  V30 225 H 21.3614 5.39055 -1.95172 0
M  V30 226 H 19.7584 5.33834 -2.74119 0
M  V30 227 H 20.8284 3.92844 -2.84257 0
M  V30 228 N 22.1715 0.800033 1.35784 0
M  V30 229 C 23.4195 0.376597 1.9856 0
M  V30 230 C 23.7405 -1.05812 1.63795 0
M  V30 231 O 23.0105 -1.73103 0.917171 0
M  V30 232 H 21.5905 0.136261 0.734467 0
M  V30 233 H 24.2525 1.02442 1.65806 0
M  V30 234 H 23.3485 0.477002 3.08433 0
M  V30 235 N 23.6496 -1.47581 0.552962 0
M  V30 236 C 24.5796 -2.32762 -0.185451 0
M  V30 237 C 25.5606 -1.43527 -0.912905 0
M  V30 238 O 26.7456 -1.72388 -0.894201 0
M  V30 239 C 23.8756 -3.25219 -1.21859 0
M  V30 240 C 22.8296 -4.23661 -0.607864 0
M  V30 241 C 22.1556 -5.05413 -1.74533 0
M  V30 242 C 23.4556 -5.20481 0.435582 0
M  V30 243 H 25.1496 -2.94749 0.525684 0
M  V30 244 H 22.6956 -1.41738 0.254251 0
M  V30 245 H 24.6486 -3.8365 -1.7433 0
M  V30 246 H 23.3726 -2.61279 -1.95961 0
M  V30 247 H 22.0316 -3.66451 -0.104489 0
M  V30 248 H 21.6796 -4.3788 -2.47529 0
M  V30 249 H 21.3796 -5.72059 -1.34249 0
M  V30 250 H 22.9036 -5.66701 -2.27338 0
M  V30 251 H 24.3176 -5.733 -0.00290157 0
M  V30 252 H 22.7146 -5.95305 0.757067 0
M  V30 253 H 23.7846 -4.66217 1.33303 0
M  V30 254 N 25.1277 -0.289203 -1.54924 0
M  V30 255 C 26.0577 0.58549 -2.2604 0
M  V30 256 C 27.0387 1.14753 -1.25562 0
M  V30 257 O 28.2237 1.17906 -1.54311 0
M  V30 258 C 25.3537 1.76305 -2.99222 0
M  V30 259 C 24.3077 1.33191 -4.06748 0
M  V30 260 C 23.6337 2.5937 -4.6758 0
M  V30 261 C 24.9337 0.471775 -5.20165 0
M  V30 262 H 26.6277 -0.00763532 -2.99399 0
M  V30 263 H 24.1737 -0.00511229 -1.43999 0
M  V30 264 H 26.1267 2.38097 -3.47689 0
M  V30 265 H 24.8507 2.38223 -2.23422 0
M  V30 266 H 23.5097 0.737121 -3.59113 0
M  V30 267 H 23.1577 3.19576 -3.88433 0
M  V30 268 H 22.8577 2.31228 -5.40192 0
M  V30 269 H 24.3817 3.21985 -5.18804 0
M  V30 270 H 25.7957 0.995056 -5.64599 0
M  V30 271 H 24.1927 0.284639 -5.99425 0
M  V30 272 H 25.2627 -0.506041 -4.82252 0
M  V30 273 N 26.6058 1.57591 -0.0167156 0
M  V30 274 C 27.5358 2.12496 0.967858 0
M  V30 275 C 28.5168 1.03807 1.34752 0
M  V30 276 O 29.7018 1.31577 1.42833 0
M  V30 277 C 26.8318 2.64194 2.25431 0
M  V30 278 C 25.7858 3.77559 2.01576 0
M  V30 279 C 25.1118 4.15636 3.36379 0
M  V30 280 C 26.4118 5.04151 1.36489 0
M  V30 281 H 28.1058 2.95013 0.510643 0
M  V30 282 H 25.6518 1.41915 0.244181 0
M  V30 283 H 27.6048 3.01236 2.94678 0
M  V30 284 H 26.3288 1.78821 2.73296 0
M  V30 285 H 24.9878 3.40937 1.34751 0
M  V30 286 H 24.6358 3.27263 3.81979 0
M  V30 287 H 24.3358 4.92022 3.21229 0
M  V30 288 H 25.8598 4.5525 4.06915 0
M  V30 289 H 27.2738 5.38857 1.95718 0
M  V30 290 H 25.6708 5.85453 1.31776 0
M  V30 291 H 26.7408 4.83733 0.336219 0
M  V30 292 N 28.0839 -0.256276 1.55502 0
M  V30 293 C 29.0139 -1.32102 1.92539 0
M  V30 294 C 29.9949 -1.50684 0.789194 0
M  V30 295 O 31.1799 -1.63449 1.04872 0
M  V30 296 C 28.3099 -2.67752 2.21192 0
M  V30 297 C 27.2639 -2.63878 3.36975 0
M  V30 298 C 26.5899 -4.03236 3.51147 0
M  V30 299 C 27.8899 -2.21682 4.72921 0
M  V30 300 H 29.5839 -1.01351 2.81724 0
M  V30 301 H 27.1299 -0.486105 1.35547 0
M  V30 302 H 29.0829 -3.42365 2.45691 0
M  V30 303 H 27.8069 -3.0012 1.28824 0
M  V30 304 H 26.4659 -1.91722 3.12471 0
M  V30 305 H 26.1139 -4.32854 2.56216 0
M  V30 306 H 25.8139 -4.01535 4.29003 0
M  V30 307 H 27.3379 -4.79563 3.77957 0
M  V30 308 H 28.7519 -2.86023 4.96854 0
M  V30 309 H 27.1489 -2.3111 5.53812 0
M  V30 310 H 28.2189 -1.16833 4.70615 0
M  V30 311 N 29.562 -1.4872 -0.521534 0
M  V30 312 C 30.492 -1.66771 -1.63431 0
M  V30 313 C 31.473 -0.516499 -1.62069 0
M  V30 314 O 32.658 -0.750013 -1.79132 0
M  V30 315 C 29.788 -1.71515 -3.01993 0
M  V30 316 C 28.742 -2.86222 -3.18216 0
M  V30 317 C 28.068 -2.76061 -4.57924 0
M  V30 318 C 29.368 -4.27419 -3.00184 0
M  V30 319 H 31.062 -2.59932 -1.48579 0
M  V30 320 H 28.608 -1.25089 -0.713358 0
M  V30 321 H 30.561 -1.82731 -3.7972 0
M  V30 322 H 29.285 -0.749393 -3.17886 0
M  V30 323 H 27.944 -2.74575 -2.42908 0
M  V30 324 H 27.592 -1.77437 -4.70665 0
M  V30 325 H 27.292 -3.53037 -4.69722 0
M  V30 326 H 28.816 -2.89256 -5.37739 0
M  V30 327 H 30.23 -4.39855 -3.67697 0
M  V30 328 H 28.627 -5.05458 -3.2347 0
M  V30 329 H 29.697 -4.43293 -1.96518 0
M  V30 330 N 31.0401 0.771051 -1.3745 0
M  V30 331 C 31.9701 1.89827 -1.3597 0
M  V30 332 C 32.9511 1.68562 -0.228216 0
M  V30 333 O 34.1361 1.8941 -0.428675 0
M  V30 334 C 31.2661 3.2712 -1.16662 0
M  V30 335 C 30.2201 3.6295 -2.2683 0
M  V30 336 C 29.5461 4.98791 -1.92644 0
M  V30 337 C 30.8461 3.69627 -3.69017 0
M  V30 338 H 32.5401 1.91323 -2.30295 0
M  V30 339 H 30.0861 0.919082 -1.10855 0
M  V30 340 H 32.0391 4.05615 -1.14256 0
M  V30 341 H 30.7631 3.26059 -0.187926 0
M  V30 342 H 29.4221 2.86763 -2.28392 0
M  V30 343 H 29.0701 4.94271 -0.933021 0
M  V30 344 H 28.7701 5.23733 -2.66416 0
M  V30 345 H 30.2941 5.79685 -1.91826 0
M  V30 346 H 31.7081 4.38273 -3.69581 0
M  V30 347 H 30.1051 4.06067 -4.41848 0
M  V30 348 H 31.1751 2.70273 -4.02592 0
M  V30 349 N 32.5182 1.22032 0.997298 0
M  V30 350 C 33.4482 1.01065 2.10495 0
M  V30 351 C 34.4292 -0.0669542 1.69968 0
M  V30 352 O 35.6142 0.0943987 1.9397 0
M  V30 353 C 32.7442 0.582874 3.42374 0
M  V30 354 C 31.6982 1.60592 3.96729 0
M  V30 355 C 31.0242 1.03412 5.24605 0
M  V30 356 C 32.3242 2.99478 4.27914 0
M  V30 357 H 34.0182 1.93708 2.28292 0
M  V30 358 H 31.5642 0.932761 1.09707 0
M  V30 359 H 33.5172 0.423332 4.19268 0
M  V30 360 H 32.2412 -0.379213 3.24391 0
M  V30 361 H 30.9002 1.75316 3.21963 0
M  V30 362 H 30.5482 0.063518 5.0296 0
M  V30 363 H 30.2482 1.71754 5.61938 0
M  V30 364 H 31.7722 0.886066 6.04137 0
M  V30 365 H 33.1862 2.88153 4.95622 0
M  V30 366 H 31.5832 3.64903 4.76409 0
M  V30 367 H 32.6532 3.49742 3.3587 0
M  V30 368 N 33.9963 -1.19345 1.0293 0
M  V30 369 C 35.2443 -1.88665 0.724574 0
M  V30 370 C 35.5653 -1.80036 -0.749144 0
M  V30 371 O 34.8353 -1.2111 -1.53978 0
M  V30 372 H 33.4153 -0.698406 0.265025 0
M  V30 373 H 36.0773 -1.44885 1.30362 0
M  V30 374 H 35.1733 -2.94987 1.01926 0
M  V30 375 N 35.4744 -0.807222 -1.35358 0
M  V30 376 C 36.7514 -0.311126 -1.9311 0
M  V30 377 C 37.1314 1.19937 -1.73719 0
M  V30 378 O 36.4794 1.99918 -1.10657 0
M  V30 379 C 36.6894 -0.723226 -3.41424 0
M  V30 380 C 38.0374 -0.713078 -4.18569 0
M  V30 381 O 39.0614 -0.664811 -3.49941 0
M  V30 382 O 37.9204 -0.772022 -5.41019 0
M  V30 383 H 35.0144 -0.081526 -0.822972 0
M  V30 384 H 37.5604 -0.890962 -1.4443 0
M  V30 385 H 36.3324 -1.76426 -3.4927 0
M  V30 386 H 35.9554 -0.118232 -3.97424 0
M  V30 387 N 36.9525 1.47285 -0.560781 0
M  V30 388 C 38.3635 1.86258 -0.128343 0
M  V30 389 C 38.7145 1.46699 1.30284 0
M  V30 390 O 37.8395 0.871698 1.98067 0
M  V30 391 C 38.4345 3.38044 -0.22614 0
M  V30 392 C 36.9935 3.76096 0.151283 0
M  V30 393 C 36.1405 2.71335 -0.572084 0
M  V30 394 H 39.0915 1.38752 -0.770297 0
M  V30 395 H 39.1125 3.76441 0.554322 0
M  V30 396 H 38.6245 3.66806 -1.26788 0
M  V30 397 H 36.7255 3.52951 1.19399 0
M  V30 398 H 36.8385 4.78641 -0.209765 0
M  V30 399 H 35.2025 2.54696 -0.0147653 0
M  V30 400 H 35.9855 3.02938 -1.61504 0
M  V30 401 N 38.4306 0.297415 1.54768 0
M  V30 402 C 39.6786 -0.312295 1.99673 0
M  V30 403 C 39.9996 -1.54686 1.18732 0
M  V30 404 O 39.2696 -1.93854 0.282382 0
M  V30 405 H 37.8496 -0.118381 0.73756 0
M  V30 406 H 40.5116 0.407915 1.90583 0
M  V30 407 H 39.6076 -0.586813 3.06534 0
M  V30 408 N 39.9087 -1.5758 0.0250728 0
M  V30 409 C 41.3247 -1.56124 -0.331282 0
M  V30 410 C 41.5247 -1.03029 -1.73169 0
M  V30 411 O 40.5807 -0.675215 -2.43305 0
M  V30 412 C 41.8937 -3.00139 -0.183584 0
M  V30 413 C 43.4417 -3.11946 -0.256654 0
M  V30 414 C 43.9167 -4.57793 -0.137792 0
M  V30 415 N 45.4077 -4.6279 -0.194904 0
M  V30 416 C 46.1427 -5.7326 -0.126655 0
M  V30 417 N 45.6387 -6.928 -0.00755288 0
M  V30 418 N 47.4317 -5.61811 -0.180348 0
M  V30 419 H 39.5827 -1.90424 0.94087 0
M  V30 420 H 41.8457 -0.875761 0.362968 0
M  V30 421 H 41.5517 -3.4292 0.780927 0
M  V30 422 H 41.4257 -3.64899 -0.955448 0
M  V30 423 H 43.8127 -2.69079 -1.21162 0
M  V30 424 H 43.8937 -2.49915 0.545517 0
M  V30 425 H 43.5377 -5.01339 0.813739 0
M  V30 426 H 43.4677 -5.17798 -0.958775 0
M  V30 427 H 45.9587 -3.76807 -0.287267 0
M  V30 428 H 46.2717 -7.72791 0.0379428 0
M  V30 429 H 44.6167 -6.94995 0.0271731 0
M  V30 430 H 47.8077 -4.6731 -0.271767 0
M  V30 431 H 47.9807 -6.47882 -0.123697 0
M  V30 432 N 41.3868 0.248026 -1.55636 0
M  V30 433 C 42.6348 0.974295 -1.77065 0
M  V30 434 C 42.9558 1.85897 -0.588849 0
M  V30 435 O 42.2258 1.91868 0.395407 0
M  V30 436 H 40.8058 0.362733 -0.653019 0
M  V30 437 H 43.4678 0.266244 -1.93073 0
M  V30 438 H 42.5638 1.59667 -2.68166 0
M  V30 439 N 42.8649 1.48995 0.513639 0
M  V30 440 C 43.8279 1.64229 1.59879 0
M  V30 441 C 44.8279 0.514696 1.5234 0
M  V30 442 O 46.0179 0.78087 1.55718 0
M  V30 443 C 43.1499 1.62783 2.99524 0
M  V30 444 H 44.3429 2.61004 1.47705 0
M  V30 445 H 41.8959 1.37837 0.736936 0
M  V30 446 H 42.6309 0.675461 3.17188 0
M  V30 447 H 42.4159 2.4466 3.06404 0
M  V30 448 H 43.9059 1.76669 3.78388 0
M  V30 449 N 44.343 -0.763751 1.37857 0
M  V30 450 C 45.306 -1.85889 1.34081 0
M  V30 451 C 46.306 -1.58949 0.243277 0
M  V30 452 O 47.496 -1.66882 0.499589 0
M  V30 453 C 44.628 -3.23176 1.08489 0
M  V30 454 H 45.821 -1.90648 2.31502 0
M  V30 455 H 43.374 -0.964367 1.23003 0
M  V30 456 H 44.109 -3.24091 0.116318 0
M  V30 457 H 43.894 -3.44124 1.8794 0
M  V30 458 H 45.384 -4.03254 1.08517 0
M  V30 459 N 45.8211 -1.22559 -0.990812 0
M  V30 460 C 47.0461 -1.07862 -1.77145 0
M  V30 461 C 47.4711 0.366447 -1.84496 0
M  V30 462 O 46.8291 1.26478 -1.29896 0
M  V30 463 C 46.8771 -1.69686 -3.18181 0
M  V30 464 O 45.9811 -0.951946 -4.01263 0
M  V30 465 H 45.3221 -0.378712 -0.545411 0
M  V30 466 H 47.8521 -1.62399 -1.2445 0
M  V30 467 H 47.8621 -1.74496 -3.68802 0
M  V30 468 H 46.5371 -2.74841 -3.12146 0
M  V30 469 H 45.1141 -0.980011 -3.59792 0
M  V30 470 N 47.2992 1.18797 -1.03562 0
M  V30 471 C 48.5242 1.9314 -0.755764 0
M  V30 472 C 48.9492 1.7537 0.68022 0
M  V30 473 O 48.3072 1.06046 1.47051 0
M  V30 474 C 48.3552 3.42747 -1.12058 0
M  V30 475 O 47.4592 4.11683 -0.243124 0
M  V30 476 H 46.8002 0.602724 -0.278604 0
M  V30 477 H 49.3302 1.50678 -1.3841 0
M  V30 478 H 49.3402 3.93437 -1.08035 0
M  V30 479 H 48.0152 3.55002 -2.16672 0
M  V30 480 H 46.5922 3.71323 -0.342539 0
M  V30 481 N 48.7773 0.814389 1.34928 0
M  V30 482 C 50.0253 0.397636 1.9815 0
M  V30 483 C 50.3463 -1.04069 1.64908 0
M  V30 484 O 49.6163 -1.72121 0.93548 0
M  V30 485 H 48.1963 0.144043 0.732981 0
M  V30 486 H 50.8583 1.04195 1.6471 0
M  V30 487 H 49.9543 0.509688 3.0791 0
M  V30 488 N 50.2554 -1.46986 0.568584 0
M  V30 489 C 51.2034 -2.31858 -0.185649 0
M  V30 490 C 52.1974 -1.43624 -0.898249 0
M  V30 491 O 53.4034 -1.60327 -0.818242 0
M  V30 492 H 49.7784 -0.747866 -0.0787399 0
M  V30 493 H 51.7494 -2.93303 0.549191 0
M  V30 494 C 50.4984 -3.26513 -1.19519 0
M  V30 495 H 49.8214 -3.94377 -0.656285 0
M  V30 496 H 51.2614 -3.88707 -1.6936 0
M  V30 497 C 49.7204 -2.50847 -2.24894 0
M  V30 498 O 50.2504 -2.26119 -3.32014 0
M  V30 499 N 48.4564 -2.11656 -1.99124 0
M  V30 500 H 48.0034 -2.31966 -1.12024 0
M  V30 501 H 47.9614 -1.61347 -2.69842 0
M  V30 502 N 51.7335 -0.305618 -1.54608 0
M  V30 503 C 52.6965 0.555591 -2.22364 0
M  V30 504 C 53.6965 1.05768 -1.21119 0
M  V30 505 O 54.8865 0.952972 -1.45822 0
M  V30 506 C 52.0185 1.76974 -2.91364 0
M  V30 507 H 53.2115 -0.0364572 -2.99878 0
M  V30 508 H 50.7645 -0.0565007 -1.56198 0
M  V30 509 H 51.4995 2.40151 -2.17941 0
M  V30 510 H 51.2845 1.41732 -3.65588 0
M  V30 511 H 52.7745 2.38148 -3.43038 0
M  V30 512 N 53.2116 1.57565 -0.0334293 0
M  V30 513 C 54.4396 1.9628 0.654347 0
M  V30 514 C 54.8546 0.910138 1.65414 0
M  V30 515 O 54.2116 -0.107595 1.82183 0
M  V30 516 C 54.2626 3.35067 1.35693 0
M  V30 517 O 53.9836 4.36296 0.397191 0
M  V30 518 C 55.4846 3.88439 2.13613 0
M  V30 519 H 52.7046 0.646369 0.180132 0
M  V30 520 H 55.2486 2.04282 -0.0944721 0
M  V30 521 H 53.4036 3.2827 2.05712 0
M  V30 522 H 53.8176 5.1678 0.896597 0
M  V30 523 H 55.2916 4.8788 2.58219 0
M  V30 524 H 55.7686 3.22914 2.97696 0
M  V30 525 H 56.3746 3.98516 1.48543 0
M  V30 526 N 54.6897 -0.239769 1.55765 0
M  V30 527 C 55.9377 -0.964892 1.77579 0
M  V30 528 C 56.2587 -1.85582 0.598699 0
M  V30 529 O 55.5287 -1.92075 -0.385226 0
M  V30 530 H 54.1087 -0.359265 0.654933 0
M  V30 531 H 56.7707 -0.256001 1.93211 0
M  V30 532 H 55.8667 -1.58243 2.69009 0
M  V30 533 N 56.1678 -1.49265 -0.50573 0
M  V30 534 C 57.5788 -1.51769 -1.08734 0
M  V30 535 C 57.9298 -0.301192 -1.93874 0
M  V30 536 O 57.0548 0.589456 -2.08217 0
M  V30 537 C 57.6498 -2.75017 -1.97867 0
M  V30 538 C 56.2088 -2.80314 -2.51199 0
M  V30 539 C 55.3558 -2.4562 -1.28709 0
M  V30 540 H 58.3068 -1.56031 -0.289855 0
M  V30 541 H 58.3278 -2.5491 -2.82491 0
M  V30 542 H 57.8398 -3.63539 -1.35873 0
M  V30 543 H 55.9408 -1.96061 -3.16845 0
M  V30 544 H 56.0538 -3.82366 -2.88675 0
M  V30 545 H 54.4178 -1.97297 -1.61078 0
M  V30 546 H 55.2008 -3.36411 -0.6843 0
M  V30 547 N 57.6459 0.756429 -1.3826 0
M  V30 548 C 58.8939 1.51248 -1.34047 0
M  V30 549 C 59.2149 1.94875 0.0698372 0
M  V30 550 O 58.4849 1.67436 1.01696 0
M  V30 551 H 57.0649 0.561018 -0.493222 0
M  V30 552 H 59.7269 0.899347 -1.7291 0
M  V30 553 H 58.8229 2.40472 -1.98947 0
M  V30 554 N 59.124 1.23083 0.984299 0
M  V30 555 C 60.535 1.05609 1.5396 0
M  V30 556 C 60.886 -0.377793 1.92528 0
M  V30 557 O 60.011 -1.26398 1.75649 0
M  V30 558 C 60.606 1.91087 2.7977 0
M  V30 559 C 59.165 1.77885 3.31713 0
M  V30 560 C 58.312 1.87028 2.04733 0
M  V30 561 H 61.263 1.36802 0.804419 0
M  V30 562 H 61.284 1.43336 3.5247 0
M  V30 563 H 60.796 2.9544 2.51668 0
M  V30 564 H 58.897 0.762995 3.64704 0
M  V30 565 H 59.01 2.61047 4.01735 0
M  V30 566 H 57.374 1.30565 2.18689 0
M  V30 567 H 58.157 2.92929 1.79017 0
M  V30 568 N 60.6021 -1.18246 1.0419 0
M  V30 569 C 62.0181 -1.40269 0.761366 0
M  V30 570 C 62.2181 -1.90777 -0.648578 0
M  V30 571 O 61.2741 -2.0929 -1.41258 0
M  V30 572 C 62.5871 -2.40237 1.8085 0
M  V30 573 C 64.1351 -2.53961 1.82955 0
M  V30 574 C 64.6101 -3.57194 2.86664 0
M  V30 575 N 66.1011 -3.64702 2.85563 0
M  V30 576 C 66.8361 -4.44309 3.6246 0
M  V30 577 N 66.3321 -5.27514 4.49111 0
M  V30 578 N 68.1251 -4.39084 3.50944 0
M  V30 579 H 60.2761 -0.837882 1.95175 0
M  V30 580 H 62.5391 -0.430608 0.84456 0
M  V30 581 H 62.2451 -2.10176 2.81991 0
M  V30 582 H 62.1191 -3.39601 1.64168 0
M  V30 583 H 64.5061 -2.83338 0.824855 0
M  V30 584 H 64.5871 -1.54706 2.03715 0
M  V30 585 H 64.2311 -3.28558 3.87314 0
M  V30 586 H 64.1611 -4.5613 2.6316 0
M  V30 587 H 66.6521 -3.05289 2.22727 0
M  V30 588 H 66.9651 -5.85411 5.04493 0
M  V30 589 H 65.3101 -5.2693 4.53178 0
M  V30 590 H 68.5011 -3.7313 2.82651 0
M  V30 591 H 68.6741 -5.00883 4.11121 0
M  V30 592 N 62.0802 -0.821533 -1.34494 0
M  V30 593 C 63.3052 -0.420873 -2.03085 0
M  V30 594 C 63.7302 0.964915 -1.61465 0
M  V30 595 O 63.0882 1.62763 -0.798607 0
M  V30 596 C 63.1362 -0.529414 -3.56693 0
M  V30 597 O 62.2402 0.451302 -4.09923 0
M  V30 598 H 61.5812 -0.173489 -0.640935 0
M  V30 599 H 64.1112 -1.11157 -1.71771 0
M  V30 600 H 64.1212 -0.404671 -4.05988 0
M  V30 601 H 62.7962 -1.54014 -3.86332 0
M  V30 602 H 61.3732 0.285558 -3.71805 0
M  V30 603 N 63.5583 1.46682 -0.576371 0
M  V30 604 C 64.5213 2.28707 0.150239 0
M  V30 605 C 65.5213 1.38035 0.824794 0
M  V30 606 O 66.7113 1.60476 0.677719 0
M  V30 607 C 63.8433 3.18248 1.22192 0
M  V30 608 H 65.0363 2.94423 -0.570521 0
M  V30 609 H 62.5893 1.52688 -0.334078 0
M  V30 610 H 63.3243 2.57265 1.97447 0
M  V30 611 H 63.1093 3.85 0.742812 0
M  V30 612 H 64.5993 3.80001 1.73172 0
M  V30 613 N 65.0364 0.313813 1.54444 0
M  V30 614 C 66.2844 -0.291099 1.99993 0
M  V30 615 C 66.6054 -1.53418 1.20366 0
M  V30 616 O 65.8754 -1.93544 0.302927 0
M  V30 617 H 64.4554 -0.110552 0.738774 0
M  V30 618 H 67.1174 0.428106 1.9014 0
M  V30 619 H 66.2134 -0.554268 3.07139 0
M  V30 620 N 66.5145 -1.57545 0.0417849 0
M  V30 621 C 67.7625 -1.91937 -0.632829 0
M  V30 622 C 68.0835 -0.919978 -1.71934 0
M  V30 623 O 67.3535 0.0366064 -1.95866 0
M  V30 624 H 65.9335 -0.708493 -0.236742 0
M  V30 625 H 68.5955 -1.9468 0.0925745 0
M  V30 626 H 67.6915 -2.92912 -1.07746 0
M  V30 627 N 67.9926 0.231505 -1.5589 0
M  V30 628 C 69.2176 0.978689 -1.82856 0
M  V30 629 C 69.6426 1.77559 -0.620846 0
M  V30 630 O 69.0006 1.76119 0.430305 0
M  V30 631 C 69.0486 1.87997 -3.07716 0
M  V30 632 O 68.1526 2.97393 -2.85712 0
M  V30 633 H 67.4936 0.277663 -0.603158 0
M  V30 634 H 70.0236 0.24783 -2.03093 0
M  V30 635 H 70.0336 2.2917 -3.37558 0
M  V30 636 H 68.7086 1.29417 -3.95252 0
M  V30 637 H 67.2856 2.60238 -2.67078 0
M  V30 638 N 69.4707 1.49531 0.497807 0
M  V30 639 C 70.4337 1.65916 1.58128 0
M  V30 640 C 71.4337 0.530825 1.51786 0
M  V30 641 O 72.6237 0.797342 1.54881 0
M  V30 642 C 69.7557 1.65951 2.9778 0
M  V30 643 H 70.9487 2.62556 1.44929 0
M  V30 644 H 68.5017 1.38611 0.722275 0
M  V30 645 H 69.2367 0.709065 3.16453 0
M  V30 646 H 69.0217 2.47897 3.03792 0
M  V30 647 H 70.5117 1.80673 3.76493 0
M  V30 648 N 70.9488 -0.749086 1.3866 0
M  V30 649 C 72.3648 -1.05276 1.19955 0
M  V30 650 C 72.5648 -2.01435 0.05134 0
M  V30 651 O 71.6208 -2.45232 -0.60147 0
M  V30 652 C 72.9338 -1.62853 2.52783 0
M  V30 653 C 74.4818 -1.75002 2.59506 0
M  V30 654 C 74.9568 -2.35991 3.92521 0
M  V30 655 N 76.4478 -2.43416 3.94085 0
M  V30 656 C 77.1828 -2.91511 4.9377 0
M  V30 657 N 76.6788 -3.39608 6.03853 0
M  V30 658 N 78.4718 -2.90592 4.81157 0
M  V30 659 H 70.6228 -0.111066 2.12109 0
M  V30 660 H 72.8858 -0.111901 0.941373 0
M  V30 661 H 72.5918 -0.99664 3.37283 0
M  V30 662 H 72.4658 -2.61854 2.715 0
M  V30 663 H 74.8528 -2.37317 1.75398 0
M  V30 664 H 74.9338 -0.74693 2.44652 0
M  V30 665 H 74.5778 -1.74308 4.77053 0
M  V30 666 H 74.5078 -3.3695 4.04688 0
M  V30 667 H 76.9988 -2.09405 3.14576 0
M  V30 668 H 77.3118 -3.74775 6.75843 0
M  V30 669 H 75.6568 -3.37653 6.07466 0
M  V30 670 H 78.8478 -2.52332 3.94267 0
M  V30 671 H 79.0208 -3.27762 5.58996 0
M  V30 672 N 72.4269 -1.23603 -0.977757 0
M  V30 673 C 73.8429 -0.999251 -1.24447 0
M  V30 674 C 74.0429 0.298053 -1.99283 0
M  V30 675 O 73.0989 1.01681 -2.31122 0
M  V30 676 C 74.4119 -2.20784 -2.04144 0
M  V30 677 C 75.9599 -2.25303 -2.17273 0
M  V30 678 C 76.4349 -3.45755 -3.00362 0
M  V30 679 N 77.9259 -3.4601 -3.07947 0
M  V30 680 C 78.6609 -4.35868 -3.72568 0
M  V30 681 N 78.1569 -5.35966 -4.38991 0
M  V30 682 N 79.9499 -4.23605 -3.6948 0
M  V30 683 H 72.1009 -2.06986 -0.476483 0
M  V30 684 H 74.3639 -0.907801 -0.273134 0
M  V30 685 H 74.0699 -3.14945 -1.56533 0
M  V30 686 H 73.9439 -2.22085 -3.04891 0
M  V30 687 H 76.3309 -1.3168 -2.64092 0
M  V30 688 H 76.4119 -2.28033 -1.15907 0
M  V30 689 H 76.0559 -4.39687 -2.5424 0
M  V30 690 H 75.9859 -3.40266 -4.01904 0
M  V30 691 H 78.4769 -2.73588 -2.60688 0
M  V30 692 H 78.7899 -6.00783 -4.86086 0
M  V30 693 H 77.1349 -5.39863 -4.37691 0
M  V30 694 H 80.3259 -3.44647 -3.16759 0
M  V30 695 H 80.4989 -4.93836 -4.1956 0
M  V30 696 N 73.905 1.17692 -1.04816 0
M  V30 697 C 75.13 1.92327 -0.776207 0
M  V30 698 C 75.555 1.76082 0.661581 0
M  V30 699 O 74.913 1.076 1.45917 0
M  V30 700 C 74.961 3.41539 -1.15687 0
M  V30 701 O 74.065 4.11402 -0.286775 0
M  V30 702 H 73.406 0.599735 -0.284981 0
M  V30 703 H 75.936 1.49201 -1.4 0
M  V30 704 H 75.946 3.92269 -1.12202 0
M  V30 705 H 74.621 3.52684 -2.20425 0
M  V30 706 H 73.198 3.70939 -0.381903 0
M  V30 707 N 75.3831 0.828654 1.34056 0
M  V30 708 C 76.3461 0.259927 2.27721 0
M  V30 709 C 77.3461 -0.565478 1.50529 0
M  V30 710 O 78.5361 -0.38075 1.69988 0
M  V30 711 C 75.6681 -0.634944 3.34935 0
M  V30 712 H 76.8611 1.0863 2.79534 0
M  V30 713 H 74.4141 0.600951 1.44285 0
M  V30 714 H 75.1491 -1.48416 2.88346 0
M  V30 715 H 74.9341 -0.0444999 3.92075 0
M  V30 716 H 76.4241 -1.02648 4.04788 0
M  V30 717 N 76.8612 -1.46375 0.584142 0
M  V30 718 C 77.8242 -2.28784 -0.138108 0
M  V30 719 C 78.8242 -1.38471 -0.817462 0
M  V30 720 O 80.0142 -1.60833 -0.669199 0
M  V30 721 C 77.1462 -3.18892 -1.20503 0
M  V30 722 H 78.3392 -2.94117 0.586127 0
M  V30 723 H 75.8922 -1.52509 0.342171 0
M  V30 724 H 76.6272 -2.58309 -1.96079 0
M  V30 725 H 76.4122 -3.85388 -0.722384 0
M  V30 726 H 77.9022 -3.80914 -1.71155 0
M  V30 727 N 78.3393 -0.321999 -1.54275 0
M  V30 728 C 79.5853 0.281461 -2.00837 0
M  V30 729 C 79.9183 1.51909 -1.20985 0
M  V30 730 O 79.1933 1.923 -0.291733 0
M  V30 731 C 79.4763 0.617162 -3.54772 0
M  V30 732 C 79.3293 -0.631064 -4.45351 0
M  V30 733 C 80.6483 1.43542 -4.16033 0
M  V30 734 H 77.7673 0.100826 -0.730071 0
M  V30 735 H 80.4093 -0.438268 -1.84876 0
M  V30 736 H 78.5593 1.23034 -3.68504 0
M  V30 737 H 80.2313 -1.26934 -4.43492 0
M  V30 738 H 78.4743 -1.26025 -4.15091 0
M  V30 739 H 79.1453 -0.351735 -5.50878 0
M  V30 740 H 81.6213 0.917134 -4.05867 0
M  V30 741 H 80.4973 1.63907 -5.23856 0
M  V30 742 H 80.7583 2.43108 -3.69257 0
M  V30 743 N 79.8174 1.5752 -0.0501392 0
M  V30 744 C 81.0454 1.96963 0.633492 0
M  V30 745 C 81.4604 0.927631 1.6444 0
M  V30 746 O 80.8174 -0.0882665 1.82286 0
M  V30 747 C 80.8684 3.36487 1.32132 0
M  V30 748 O 80.5894 4.36693 0.350894 0
M  V30 749 C 82.0904 3.90682 2.09481 0
M  V30 750 H 79.3104 0.648244 0.173266 0
M  V30 751 H 81.8544 2.0417 -0.116134 0
M  V30 752 H 80.0094 3.30434 2.02218 0
M  V30 753 H 80.4234 5.17702 0.841735 0
M  V30 754 H 81.8974 4.90591 2.5303 0
M  V30 755 H 82.3744 3.26053 2.94255 0
M  V30 756 H 82.9804 4.00069 1.44307 0
M  V30 757 N 81.2955 -0.223234 1.56011 0
M  V30 758 C 82.5435 -0.946003 1.78592 0
M  V30 759 C 82.8645 -1.84936 0.618349 0
M  V30 760 O 82.1345 -1.92473 -0.364833 0
M  V30 761 H 80.7145 -0.352298 0.658707 0
M  V30 762 H 83.3765 -0.235494 1.93472 0
M  V30 763 H 82.4725 -1.55381 2.70672 0
M  V30 764 N 82.7736 -1.49793 -0.48987 0
M  V30 765 C 84.1846 -1.52914 -1.07118 0
M  V30 766 C 84.5356 -0.321738 -1.93544 0
M  V30 767 O 83.6606 0.567338 -2.08831 0
M  V30 768 C 84.2556 -2.771 -1.94938 0
M  V30 769 C 82.8146 -2.82963 -2.48212 0
M  V30 770 C 81.9616 -2.46972 -1.26096 0
M  V30 771 H 84.9126 -1.56329 -0.273289 0
M  V30 772 H 84.9336 -2.57892 -2.79771 0
M  V30 773 H 84.4456 -3.64959 -1.32009 0
M  V30 774 H 82.5466 -1.99411 -3.14748 0
M  V30 775 H 82.6596 -3.85406 -2.84603 0
M  V30 776 H 81.0236 -1.98994 -1.58976 0
M  V30 777 H 81.8066 -3.37118 -0.648581 0
M  V30 778 N 84.2517 0.741722 -1.39055 0
M  V30 779 C 85.6627 1.31966 -1.32068 0
M  V30 780 C 86.0137 1.96192 0.0180797 0
M  V30 781 O 85.1387 1.95861 0.920196 0
M  V30 782 C 85.7337 2.39954 -2.39181 0
M  V30 783 C 84.2927 2.93438 -2.35735 0
M  V30 784 C 83.4397 1.66936 -2.21422 0
M  V30 785 H 86.3907 0.539721 -1.4924 0
M  V30 786 H 86.4117 3.20182 -2.05581 0
M  V30 787 H 85.9237 1.9318 -3.36605 0
M  V30 788 H 84.0247 3.4451 -1.41929 0
M  V30 789 H 84.1377 3.4701 -3.30335 0
M  V30 790 H 82.5017 1.91016 -1.68478 0
M  V30 791 H 83.2847 1.22224 -3.20806 0
M  V30 792 N 85.7298 1.2412 0.971189 0
M  V30 793 C 87.1408 1.07236 1.52831 0
M  V30 794 C 87.4918 -0.357352 1.92918 0
M  V30 795 O 86.6168 -1.24528 1.76979 0
M  V30 796 C 87.2118 1.94043 2.77728 0
M  V30 797 C 85.7708 1.81394 3.29808 0
M  V30 798 C 84.9178 1.89189 2.02738 0
M  V30 799 H 87.8688 1.37648 0.789864 0
M  V30 800 H 87.8898 1.47066 3.5093 0
M  V30 801 H 87.4018 2.98093 2.4852 0
M  V30 802 H 85.5028 0.801634 3.63874 0
M  V30 803 H 85.6158 2.65294 3.98944 0
M  V30 804 H 83.9798 1.32877 2.17292 0
M  V30 805 H 84.7628 2.94812 1.759 0
M  V30 806 N 87.2079 -1.17134 1.05439 0
M  V30 807 C 88.6189 -1.69084 0.791676 0
M  V30 808 C 88.9699 -1.83822 -0.685839 0
M  V30 809 O 88.0949 -1.52757 -1.53278 0
M  V30 810 C 88.6899 -3.07119 1.4305 0
M  V30 811 C 87.2489 -3.56225 1.21577 0
M  V30 812 C 86.3959 -2.32421 1.51247 0
M  V30 813 H 89.3469 -1.01617 1.219 0
M  V30 814 H 89.3679 -3.71087 0.84112 0
M  V30 815 H 88.8799 -2.9636 2.50584 0
M  V30 816 H 86.9809 -3.72257 0.159787 0
M  V30 817 H 87.0939 -4.38837 1.92246 0
M  V30 818 H 85.4579 -2.3701 0.932653 0
M  V30 819 H 86.2409 -2.24268 2.5992 0
M  V30 820 N 88.686 -0.835752 -1.33615 0
M  V30 821 C 89.616 -0.281739 -2.31794 0
M  V30 822 C 90.597 0.608833 -1.58831 0
M  V30 823 O 91.782 0.533035 -1.86741 0
M  V30 824 C 88.912 0.546612 -3.42971 0
M  V30 825 C 87.866 -0.247904 -4.27281 0
M  V30 826 C 87.192 0.704001 -5.30045 0
M  V30 827 C 88.492 -1.46324 -5.01385 0
M  V30 828 H 90.186 -1.10206 -2.78379 0
M  V30 829 H 87.732 -0.531388 -1.33837 0
M  V30 830 H 89.685 0.944467 -4.1068 0
M  V30 831 H 88.409 1.40011 -2.95067 0
M  V30 832 H 87.068 -0.627281 -3.61194 0
M  V30 833 H 86.716 1.55381 -4.78399 0
M  V30 834 H 86.416 0.176524 -5.87335 0
M  V30 835 H 87.94 1.09944 -6.0062 0
M  V30 836 H 89.354 -1.13871 -5.61877 0
M  V30 837 H 87.751 -1.92728 -5.6831 0
M  V30 838 H 88.821 -2.23467 -4.30338 0
M  V30 839 N 90.1641 1.46063 -0.591896 0
M  V30 840 C 91.3891 2.07226 -0.0850314 0
M  V30 841 C 91.8141 1.43625 1.21463 0
M  V30 842 O 91.1721 0.523305 1.73583 0
M  V30 843 C 91.2201 3.60554 0.0576567 0
M  V30 844 O 90.3241 3.97128 1.11188 0
M  V30 845 H 89.6651 0.660615 -0.0669568 0
M  V30 846 H 92.1951 1.8756 -0.81745 0
M  V30 847 H 92.2051 4.07165 0.2609 0
M  V30 848 H 90.8801 4.06235 -0.891416 0
M  V30 849 H 89.4571 3.62213 0.886356 0
M  V30 850 N 91.6422 0.330177 1.54103 0
M  V30 851 C 92.5922 -0.548456 2.21305 0
M  V30 852 C 93.5762 -1.07651 1.19583 0
M  V30 853 O 94.7682 -1.01243 1.45186 0
M  V30 854 C 91.8972 -1.70559 2.97934 0
M  V30 855 C 90.9832 -1.19212 4.07 0
M  V30 856 N 91.3742 -0.398831 5.04225 0
M  V30 857 C 89.6722 -1.47024 4.2107 0
M  V30 858 C 90.3732 -0.121761 5.81573 0
M  V30 859 N 89.3492 -0.709722 5.38947 0
M  V30 860 H 93.1512 0.0648483 2.93828 0
M  V30 861 H 90.6652 0.136363 1.61826 0
M  V30 862 H 92.6622 -2.34688 3.44568 0
M  V30 863 H 91.3222 -2.32231 2.26934 0
M  V30 864 H 92.3332 -0.0410869 5.17884 0
M  V30 865 H 89.0102 -2.09232 3.61287 0
M  V30 866 H 90.4002 0.517298 6.69906 0
M  V30 867 N 93.1203 -1.57491 0.0584922 0
M  V30 868 C 94.3603 -1.94851 -0.617458 0
M  V30 869 C 94.7243 -0.937165 -1.67575 0
M  V30 870 O 95.9253 -1.19795 -2.40629 0
M  V30 871 C 94.1963 -3.36955 -1.19147 0
M  V30 872 S 95.7553 -3.96277 -1.8844 0
M  V30 873 H 92.5733 -0.681539 -0.202547 0
M  V30 874 H 95.1753 -1.95073 0.129176 0
M  V30 875 H 93.8793 -4.08355 -0.409215 0
M  V30 876 H 93.4103 -3.40245 -1.97476 0
M  V30 877 H 95.4253 -3.82099 -3.16568 0
M  V30 878 N 94.5984 0.214957 -1.56127 0
M  V30 879 C 95.8464 0.936518 -1.79091 0
M  V30 880 C 96.1674 1.84606 -0.628148 0
M  V30 881 O 95.4374 1.92664 0.35462 0
M  V30 882 H 94.0174 0.3488 -0.660566 0
M  V30 883 H 96.6794 0.22523 -1.93594 0
M  V30 884 H 95.7754 1.53943 -2.71492 0
M  V30 885 N 96.0765 1.50051 0.48192 0
M  V30 886 C 97.4925 1.37237 0.814756 0
M  V30 887 C 97.6925 0.420109 1.97072 0
M  V30 888 O 96.7485 -0.141246 2.52105 0
M  V30 889 C 98.0615 2.78375 1.13701 0
M  V30 890 C 99.6095 2.87213 1.2441 0
M  V30 891 C 100.084 4.29161 1.59954 0
M  V30 892 N 101.575 4.32061 1.66967 0
M  V30 893 C 102.31 5.38879 1.95952 0
M  V30 894 N 101.806 6.55918 2.23031 0
M  V30 895 N 103.599 5.26312 1.97363 0
M  V30 896 H 95.7505 2.10546 -0.28005 0
M  V30 897 H 98.0135 0.945921 -0.0627454 0
M  V30 898 H 97.7195 3.49845 0.360787 0
M  V30 899 H 97.5935 3.14941 2.07586 0
M  V30 900 H 99.9805 2.15969 2.01101 0
M  V30 901 H 100.061 2.54204 0.285299 0
M  V30 902 H 99.7055 5.00938 0.838067 0
M  V30 903 H 99.6355 4.59648 2.56966 0
M  V30 904 H 102.126 3.47661 1.48123 0
M  V30 905 H 102.439 7.33139 2.44391 0
M  V30 906 H 100.784 6.59112 2.20447 0
M  V30 907 H 103.975 4.33876 1.75697 0
M  V30 908 H 104.148 6.09649 2.19618 0
M  V30 909 N 97.5546 -0.734337 1.39446 0
M  V30 910 C 98.5176 -1.83004 1.37994 0
M  V30 911 C 99.5176 -1.58397 0.276938 0
M  V30 912 O 100.708 -1.65785 0.534875 0
M  V30 913 C 97.8396 -3.20802 1.1532 0
M  V30 914 H 99.0326 -1.85694 2.35494 0
M  V30 915 H 96.5856 -0.938059 1.25021 0
M  V30 916 H 97.3206 -3.23772 0.185036 0
M  V30 917 H 97.1056 -3.4006 1.95197 0
M  V30 918 H 98.5956 -4.00862 1.17046 0
M  V30 919 N 99.0327 -1.24633 -0.964593 0
M  V30 920 C 99.9957 -1.0424 -2.04124 0
M  V30 921 C 100.996 0.00137563 -1.608 0
M  V30 922 O 102.186 -0.239883 -1.7254 0
M  V30 923 C 99.3177 -0.580588 -3.3592 0
M  V30 924 H 100.511 -1.99803 -2.23649 0
M  V30 925 H 98.0637 -1.06899 -1.14027 0
M  V30 926 H 98.7987 0.3781 -3.22088 0
M  V30 927 H 98.5837 -1.33398 -3.6871 0
M  V30 928 H 100.074 -0.459034 -4.15069 0
M  V30 929 N 100.511 1.16574 -1.06058 0
M  V30 930 C 101.922 1.68662 -0.800632 0
M  V30 931 C 102.273 1.84184 0.67608 0
M  V30 932 O 101.398 1.53568 1.52466 0
M  V30 933 C 101.993 3.06356 -1.44676 0
M  V30 934 C 100.552 3.55575 -1.23465 0
M  V30 935 C 99.6988 2.31616 -1.52477 0
M  V30 936 H 102.65 1.00969 -1.22438 0
M  V30 937 H 102.671 3.70636 -0.860788 0
M  V30 938 H 102.183 2.95027 -2.52152 0
M  V30 939 H 100.284 3.72167 -0.179527 0
M  V30 940 H 100.397 4.37812 -1.94571 0
M  V30 941 H 98.7608 2.36512 -0.945209 0
M  V30 942 H 99.5438 2.22887 -2.61106 0
M  V30 943 N 101.989 0.842826 1.3317 0
M  V30 944 C 103.229 0.446574 1.99462 0
M  V30 945 C 103.593 -0.976818 1.65295 0
M  V30 946 O 104.794 -1.477 2.24584 0
M  V30 947 C 103.065 0.665353 3.51152 0
M  V30 948 S 104.624 0.364911 4.3728 0
M  V30 949 H 101.442 0.167803 0.690915 0
M  V30 950 H 104.044 1.09297 1.62094 0
M  V30 951 H 102.748 1.7006 3.73507 0
M  V30 952 H 102.279 0.00494568 3.934 0
M  V30 953 H 104.294 -0.813761 4.89482 0
M  V30 954 N 103.467 -1.45747 0.599634 0
M  V30 955 C 104.377 -2.34262 -0.125888 0
M  V30 956 C 105.393 -1.50768 -0.868625 0
M  V30 957 O 106.569 -1.83592 -0.828003 0
M  V30 958 C 103.634 -3.28252 -1.11587 0
M  V30 959 C 102.695 -4.27651 -0.375956 0
M  V30 960 C 101.928 -5.1715 -1.31877 0
M  V30 961 O 102.151 -5.09916 -2.55621 0
M  V30 962 O 101.085 -5.96286 -0.820157 0
M  V30 963 H 104.911 -2.97688 0.601315 0
M  V30 964 H 102.496 -1.44999 0.359934 0
M  V30 965 H 104.378 -3.86191 -1.68626 0
M  V30 966 H 103.053 -2.67401 -1.82424 0
M  V30 967 H 101.96 -3.7335 0.236698 0
M  V30 968 H 103.293 -4.91334 0.29177 0
M  V30 969 N 104.945 -0.338344 -1.53925 0
M  V30 970 C 106.356 0.146651 -1.86123 0
M  V30 971 C 106.707 1.5042 -1.2597 0
M  V30 972 O 105.832 2.08723 -0.571294 0
M  V30 973 C 106.427 0.272879 -3.37699 0
M  V30 974 C 104.986 0.702103 -3.69794 0
M  V30 975 C 104.133 -0.167304 -2.76795 0
M  V30 976 H 107.084 -0.558123 -1.48562 0
M  V30 977 H 107.105 1.10128 -3.64214 0
M  V30 978 H 106.617 -0.715307 -3.81451 0
M  V30 979 H 104.718 1.6995 -3.31584 0
M  V30 980 H 104.831 0.495604 -4.7653 0
M  V30 981 H 103.195 0.359527 -2.5215 0
M  V30 982 H 103.978 -1.15253 -3.23375 0
M  V30 983 N 106.423 1.57458 -0.0668435 0
M  V30 984 C 107.353 2.15468 0.899764 0
M  V30 985 C 108.334 1.08042 1.31381 0
M  V30 986 O 109.519 1.36054 1.38574 0
M  V30 987 C 106.649 2.71232 2.16911 0
M  V30 988 C 105.603 3.83781 1.89463 0
M  V30 989 C 104.929 4.26127 3.22986 0
M  V30 990 C 106.229 5.08238 1.20381 0
M  V30 991 H 107.923 2.96488 0.416529 0
M  V30 992 H 105.469 1.4262 0.198908 0
M  V30 993 H 107.422 3.10458 2.84945 0
M  V30 994 H 106.146 1.87426 2.67468 0
M  V30 995 H 104.805 3.45051 1.23836 0
M  V30 996 H 104.453 3.39249 3.71374 0
M  V30 997 H 104.153 5.01993 3.05413 0
M  V30 998 H 105.677 4.67966 3.92225 0
M  V30 999 H 107.091 5.44811 1.78475 0
M  V30 1000 H 105.488 5.89349 1.13083 0
M  V30 1001 H 106.558 4.84558 0.182153 0
M  V30 1002 N 107.901 -0.206675 1.56239 0
M  V30 1003 C 109.317 -0.557025 1.49564 0
M  V30 1004 C 109.517 -1.86424 0.764735 0
M  V30 1005 O 108.573 -2.50584 0.310491 0
M  V30 1006 C 109.886 -0.622478 2.94186 0
M  V30 1007 C 111.434 -0.712099 3.04792 0
M  V30 1008 C 111.909 -0.808767 4.50803 0
M  V30 1009 N 113.4 -0.8726 4.54907 0
M  V30 1010 C 114.135 -0.967365 5.65181 0
M  V30 1011 N 113.631 -1.02515 6.85173 0
M  V30 1012 N 115.424 -1.00366 5.53067 0
M  V30 1013 H 107.575 0.650943 2.02179 0
M  V30 1014 H 109.838 0.230387 0.919579 0
M  V30 1015 H 109.544 0.268727 3.50672 0
M  V30 1016 H 109.418 -1.4811 3.46905 0
M  V30 1017 H 111.805 -1.59374 2.48363 0
M  V30 1018 H 111.886 0.172489 2.55218 0
M  V30 1019 H 111.53 0.0684754 5.07854 0
M  V30 1020 H 111.46 -1.70899 4.98098 0
M  V30 1021 H 113.951 -0.837657 3.68499 0
M  V30 1022 H 114.264 -1.09765 7.64965 0
M  V30 1023 H 112.609 -0.994026 6.87855 0
M  V30 1024 H 115.8 -0.95527 4.58249 0
M  V30 1025 H 115.973 -1.07405 6.39037 0
M  V30 1026 N 109.379 -1.50304 -0.473955 0
M  V30 1027 C 110.609 -1.64663 -1.24778 0
M  V30 1028 C 111.017 -0.328174 -1.86332 0
M  V30 1029 O 110.36 0.699536 -1.69859 0
M  V30 1030 C 110.422 -2.6778 -2.39863 0
M  V30 1031 C 110.086 -4.11413 -1.98969 0
M  V30 1032 C 111.083 -4.97372 -1.51385 0
M  V30 1033 C 108.768 -4.57312 -2.07777 0
M  V30 1034 C 110.762 -6.27277 -1.13148 0
M  V30 1035 C 108.449 -5.87223 -1.69152 0
M  V30 1036 C 109.447 -6.72031 -1.21915 0
M  V30 1037 O 109.135 -7.99518 -0.838237 0
M  V30 1038 H 108.867 -0.556602 -0.383627 0
M  V30 1039 H 111.421 -1.9726 -0.572491 0
M  V30 1040 H 109.651 -2.30419 -3.10554 0
M  V30 1041 H 111.34 -2.71388 -3.01833 0
M  V30 1042 H 112.106 -4.63128 -1.44004 0
M  V30 1043 H 107.985 -3.91449 -2.43493 0
M  V30 1044 H 111.529 -6.93425 -0.762077 0
M  V30 1045 H 107.426 -6.20989 -1.76191 0
M  V30 1046 H 108.194 -8.12764 -0.967339 0
M  V30 1047 N 110.857 0.726932 -1.39834 0
M  V30 1048 C 111.805 1.86235 -1.39353 0
M  V30 1049 C 112.799 1.67144 -0.275555 0
M  V30 1050 O 114.005 1.74387 -0.44601 0
M  V30 1051 H 110.38 0.613174 -0.43534 0
M  V30 1052 H 112.351 1.83756 -2.35109 0
M  V30 1053 C 111.1 3.23995 -1.26185 0
M  V30 1054 H 110.423 3.39285 -2.11484 0
M  V30 1055 H 111.863 4.03609 -1.29907 0
M  V30 1056 C 110.322 3.36888 0.0290018 0
M  V30 1057 O 110.852 3.89152 0.99619 0
M  V30 1058 N 109.058 2.90446 0.0947437 0
M  V30 1059 H 108.605 2.48102 -0.693035 0
M  V30 1060 H 108.563 2.99451 0.957932 0
M  V30 1061 N 112.336 1.25143 0.95797 0
M  V30 1062 C 113.582 1.09855 1.70469 0
M  V30 1063 C 113.915 -0.360187 1.90831 0
M  V30 1064 O 113.19 -1.26568 1.47685 0
M  V30 1065 C 113.473 1.8497 3.08963 0
M  V30 1066 C 113.326 3.38652 2.96032 0
M  V30 1067 C 114.645 1.63016 4.08795 0
M  V30 1068 H 111.764 0.400465 0.618706 0
M  V30 1069 H 114.406 1.53933 1.11376 0
M  V30 1070 H 112.556 1.47505 3.59409 0
M  V30 1071 H 114.228 3.85772 2.52938 0
M  V30 1072 H 112.471 3.66534 2.32025 0
M  V30 1073 H 113.142 3.8642 3.94187 0
M  V30 1074 H 115.618 1.95625 3.67247 0
M  V30 1075 H 114.494 2.18015 5.03747 0
M  V30 1076 H 114.755 0.570692 4.38401 0
M  V30 1077 N 113.814 -1.1601 1.06675 0
M  V30 1078 C 115.054 -1.88304 0.795037 0
M  V30 1079 C 115.418 -1.80062 -0.666466 0
M  V30 1080 O 116.619 -2.47319 -1.05293 0
M  V30 1081 C 114.89 -3.33664 1.28076 0
M  V30 1082 S 116.449 -4.23768 1.13868 0
M  V30 1083 H 113.267 -0.649928 0.288296 0
M  V30 1084 H 115.869 -1.4001 1.36445 0
M  V30 1085 H 114.573 -3.37203 2.33927 0
M  V30 1086 H 114.104 -3.87009 0.706253 0
M  V30 1087 H 116.119 -4.96148 0.0719668 0
M  V30 1088 N 115.292 -0.849877 -1.32721 0
M  V30 1089 C 116.222 -0.306308 -2.31482 0
M  V30 1090 C 117.203 0.591952 -1.59468 0
M  V30 1091 O 118.388 0.513199 -1.87296 0
M  V30 1092 C 115.518 0.510204 -3.43532 0
M  V30 1093 C 114.472 -0.293209 -4.26994 0
M  V30 1094 C 113.798 0.647743 -5.30762 0
M  V30 1095 C 115.098 -1.51634 -4.99804 0
M  V30 1096 H 116.792 -1.13153 -2.77195 0
M  V30 1097 H 114.338 -0.545553 -1.33266 0
M  V30 1098 H 116.291 0.900856 -4.11658 0
M  V30 1099 H 115.015 1.36874 -2.96535 0
M  V30 1100 H 113.674 -0.665555 -3.60508 0
M  V30 1101 H 113.322 1.50299 -4.8002 0
M  V30 1102 H 113.022 0.11422 -5.87489 0
M  V30 1103 H 114.546 1.03567 -6.01753 0
M  V30 1104 H 115.96 -1.19824 -5.60638 0
M  V30 1105 H 114.357 -1.98745 -5.66234 0
M  V30 1106 H 115.427 -2.28018 -4.27943 0
M  V30 1107 N 116.77 1.45427 -0.607355 0
M  V30 1108 C 118.018 2.01841 -0.102253 0
M  V30 1109 C 118.339 1.47832 1.27164 0
M  V30 1110 O 117.609 0.672497 1.83995 0
M  V30 1111 H 116.189 0.746188 -0.0348101 0
M  V30 1112 H 118.851 1.78229 -0.7887 0
M  V30 1113 H 117.947 3.12057 -0.0518585 0
M  V30 1114 N 118.248 0.346503 1.53744 0
M  V30 1115 C 119.473 -0.253074 2.0585 0
M  V30 1116 C 119.898 -1.43202 1.21962 0
M  V30 1117 O 119.256 -1.79783 0.234073 0
M  V30 1118 C 119.304 -0.643193 3.54817 0
M  V30 1119 O 118.408 -1.74286 3.73762 0
M  V30 1120 H 117.749 -0.0413583 0.662711 0
M  V30 1121 H 120.279 0.501574 1.98357 0
M  V30 1122 H 120.289 -0.919526 3.97503 0
M  V30 1123 H 118.964 0.218966 4.15323 0
M  V30 1124 H 117.541 -1.46356 3.42979 0
M  V30 1125 N 119.726 -1.57421 0.075193 0
M  V30 1126 C 120.972 -1.93905 -0.594025 0
M  V30 1127 C 121.305 -0.955701 -1.69056 0
M  V30 1128 O 120.58 0.0145373 -1.94495 0
M  V30 1129 C 120.863 -3.40638 -1.1678 0
M  V30 1130 C 120.716 -4.49733 -0.0776792 0
M  V30 1131 C 122.035 -3.88259 -2.07228 0
M  V30 1132 H 119.154 -0.705105 -0.214466 0
M  V30 1133 H 121.796 -1.8947 0.141854 0
M  V30 1134 H 119.946 -3.44549 -1.79494 0
M  V30 1135 H 121.618 -4.57942 0.555573 0
M  V30 1136 H 119.861 -4.29751 0.591286 0
M  V30 1137 H 120.532 -5.49549 -0.519603 0
M  V30 1138 H 123.008 -3.86376 -1.54445 0
M  V30 1139 H 121.884 -4.91533 -2.44308 0
M  V30 1140 H 122.145 -3.26396 -2.98191 0
M  V30 1141 N 121.204 0.198386 -1.56346 0
M  V30 1142 C 122.134 1.24865 -1.9731 0
M  V30 1143 C 123.115 1.47651 -0.844576 0
M  V30 1144 O 124.3 1.59444 -1.10866 0
M  V30 1145 C 121.43 2.59358 -2.30977 0
M  V30 1146 C 120.384 2.5119 -3.46537 0
M  V30 1147 C 119.71 3.89926 -3.65871 0
M  V30 1148 C 121.01 2.03977 -4.80823 0
M  V30 1149 H 122.704 0.908252 -2.85291 0
M  V30 1150 H 120.25 0.435462 -1.37258 0
M  V30 1151 H 122.203 3.33011 -2.58228 0
M  V30 1152 H 120.927 2.95132 -1.39874 0
M  V30 1153 H 119.586 1.79993 -3.19371 0
M  V30 1154 H 119.234 4.23046 -2.72105 0
M  V30 1155 H 118.934 3.85336 -4.4361 0
M  V30 1156 H 120.458 4.65205 -3.95495 0
M  V30 1157 H 121.872 2.67386 -5.07127 0
M  V30 1158 H 120.269 2.10397 -5.62008 0
M  V30 1159 H 121.339 0.992861 -4.74626 0
M  V30 1160 N 122.682 1.50554 0.465978 0
M  V30 1161 C 124.093 1.54599 1.04671 0
M  V30 1162 C 124.444 0.352488 1.93008 0
M  V30 1163 O 123.569 -0.534044 2.09707 0
M  V30 1164 C 124.164 2.80166 1.90505 0
M  V30 1165 C 122.723 2.86876 2.43678 0
M  V30 1166 C 121.87 2.48947 1.22151 0
M  V30 1167 H 124.821 1.56744 0.248384 0
M  V30 1168 H 124.842 2.62311 2.75633 0
M  V30 1169 H 124.354 3.67013 1.26186 0
M  V30 1170 H 122.455 2.04393 3.11536 0
M  V30 1171 H 122.568 3.89885 2.78436 0
M  V30 1172 H 120.932 2.01498 1.5579 0
M  V30 1173 H 121.715 3.38107 0.594866 0
M  V30 1174 N 124.16 -0.719506 1.40217 0
M  V30 1175 C 125.39 -1.50646 1.41384 0
M  V30 1176 C 125.798 -1.89197 0.0107743 0
M  V30 1177 O 125.141 -1.55709 -0.974708 0
M  V30 1178 C 125.203 -2.81405 2.23722 0
M  V30 1179 C 124.867 -2.65199 3.72181 0
M  V30 1180 C 125.864 -2.32717 4.64907 0
M  V30 1181 C 123.549 -2.81586 4.1595 0
M  V30 1182 C 125.543 -2.16827 5.99387 0
M  V30 1183 C 123.23 -2.65313 5.50502 0
M  V30 1184 C 124.228 -2.32981 6.42035 0
M  V30 1185 O 123.916 -2.16827 7.74107 0
M  V30 1186 H 123.648 -0.471606 0.484318 0
M  V30 1187 H 126.202 -0.895456 1.84853 0
M  V30 1188 H 124.432 -3.44823 1.75026 0
M  V30 1189 H 126.121 -3.43102 2.16878 0
M  V30 1190 H 126.887 -2.19694 4.32388 0
M  V30 1191 H 122.766 -3.0574 3.45027 0
M  V30 1192 H 126.31 -1.91513 6.70797 0
M  V30 1193 H 122.207 -2.7792 5.82607 0
M  V30 1194 H 122.975 -2.31778 7.84998 0
M  V30 1195 N 125.638 -1.25649 -0.95132 0
M  V30 1196 C 126.886 -1.10375 -1.69298 0
M  V30 1197 C 127.207 0.355339 -1.91735 0
M  V30 1198 O 126.477 1.25188 -1.50681 0
M  V30 1199 H 125.057 -0.405461 -0.627384 0
M  V30 1200 H 127.719 -1.57823 -1.14358 0
M  V30 1201 H 126.815 -1.61465 -2.67087 0
M  V30 1202 N 127.117 1.15442 -1.07289 0
M  V30 1203 C 128.08 2.18358 -0.696591 0
M  V30 1204 C 129.08 1.58637 0.262837 0
M  V30 1205 O 130.27 1.74145 0.0438809 0
M  V30 1206 C 127.402 3.4089 -0.0266151 0
M  V30 1207 H 128.595 2.53162 -1.60776 0
M  V30 1208 H 126.148 1.29893 -0.869342 0
M  V30 1209 H 126.883 3.11653 0.896822 0
M  V30 1210 H 126.668 3.85495 -0.716657 0
M  V30 1211 H 128.158 4.17009 0.222028 0
M  V30 1212 N 128.595 0.856903 1.32268 0
M  V30 1213 C 129.823 0.475439 2.01363 0
M  V30 1214 C 130.238 -0.928486 1.64392 0
M  V30 1215 O 129.595 -1.60624 0.866387 0
M  V30 1216 C 129.646 0.607545 3.56358 0
M  V30 1217 O 129.367 1.95617 3.92002 0
M  V30 1218 C 130.868 0.225382 4.42727 0
M  V30 1219 H 128.088 0.186636 0.644521 0
M  V30 1220 H 130.632 1.15446 1.68797 0
M  V30 1221 H 128.787 -0.0237719 3.87393 0
M  V30 1222 H 129.201 1.95455 4.86721 0
M  V30 1223 H 130.675 0.368813 5.50767 0
M  V30 1224 H 131.152 -0.834369 4.31202 0
M  V30 1225 H 131.758 0.831864 4.17085 0
M  V30 1226 N 130.073 -1.45103 0.615059 0
M  V30 1227 C 131.298 -2.07064 0.117988 0
M  V30 1228 C 131.723 -1.4554 -1.19163 0
M  V30 1229 O 131.081 -0.550855 -1.72729 0
M  V30 1230 C 131.129 -3.606 -0.000288387 0
M  V30 1231 O 130.233 -3.98847 -1.04856 0
M  V30 1232 H 129.574 -0.659467 0.0774581 0
M  V30 1233 H 132.104 -1.86236 0.847186 0
M  V30 1234 H 132.114 -4.07529 -0.196091 0
M  V30 1235 H 130.789 -4.04765 0.955932 0
M  V30 1236 H 129.366 -3.63577 -0.828619 0
M  V30 1237 N 131.551 -0.354651 -1.53558 0
M  V30 1238 C 132.779 0.239515 -2.05509 0
M  V30 1239 C 133.194 1.4333 -1.2289 0
M  V30 1240 O 132.551 1.80538 -0.266899 0
M  V30 1241 C 132.602 0.643719 -3.55723 0
M  V30 1242 O 132.323 -0.502602 -4.35207 0
M  V30 1243 C 133.824 1.29743 -4.23889 0
M  V30 1244 H 131.044 0.0442697 -0.669538 0
M  V30 1245 H 133.588 -0.509856 -1.98042 0
M  V30 1246 H 131.743 1.34302 -3.63376 0
M  V30 1247 H 132.157 -0.178172 -5.24197 0
M  V30 1248 H 133.631 1.53091 -5.30346 0
M  V30 1249 H 134.108 2.25441 -3.76926 0
M  V30 1250 H 134.714 0.639865 -4.20459 0
M  V30 1251 N 133.029 1.57378 -0.0835403 0
M  V30 1252 C 133.959 2.1641 0.87686 0
M  V30 1253 C 134.94 1.09429 1.30228 0
M  V30 1254 O 136.125 1.37516 1.37124 0
M  V30 1255 C 133.255 2.73517 2.14022 0
M  V30 1256 C 132.209 3.85769 1.85381 0
M  V30 1257 C 131.535 4.29529 3.18448 0
M  V30 1258 C 132.835 5.09486 1.14984 0
M  V30 1259 H 134.529 2.96914 0.385059 0
M  V30 1260 H 132.075 1.42823 0.18377 0
M  V30 1261 H 134.028 3.13463 2.81636 0
M  V30 1262 H 132.752 1.90252 2.65465 0
M  V30 1263 H 131.411 3.46345 1.20169 0
M  V30 1264 H 131.059 3.43169 3.67755 0
M  V30 1265 H 130.759 5.05204 3.00071 0
M  V30 1266 H 132.283 4.72099 3.8724 0
M  V30 1267 H 133.697 5.46674 1.72687 0
M  V30 1268 H 132.094 5.90515 1.06826 0
M  V30 1269 H 133.164 4.84724 0.130749 0
M  V30 1270 N 134.507 -0.190092 1.56449 0
M  V30 1271 C 135.437 -1.23816 1.97969 0
M  V30 1272 C 136.418 -1.47201 0.852395 0
M  V30 1273 O 137.603 -1.58854 1.1171 0
M  V30 1274 C 134.733 -2.5813 2.3235 0
M  V30 1275 C 133.687 -2.49348 3.47864 0
M  V30 1276 C 133.013 -3.8798 3.67934 0
M  V30 1277 C 134.313 -2.01424 4.81898 0
M  V30 1278 H 136.007 -0.89311 2.85769 0
M  V30 1279 H 133.553 -0.428177 1.37487 0
M  V30 1280 H 135.506 -3.31637 2.59991 0
M  V30 1281 H 134.23 -2.94386 1.41438 0
M  V30 1282 H 132.889 -1.78297 3.20321 0
M  V30 1283 H 132.537 -4.21597 2.74344 0
M  V30 1284 H 132.237 -3.82978 4.45648 0
M  V30 1285 H 133.761 -4.63101 3.97957 0
M  V30 1286 H 135.175 -2.64693 5.08538 0
M  V30 1287 H 133.572 -2.07413 5.63116 0
M  V30 1288 H 134.642 -0.967677 4.75146 0
M  V30 1289 N 135.985 -1.50799 -0.457987 0
M  V30 1290 C 136.948 -1.7005 -1.53674 0
M  V30 1291 C 137.948 -0.570881 -1.50325 0
M  V30 1292 O 139.138 -0.838126 -1.52712 0
M  V30 1293 C 136.27 -1.73788 -2.93276 0
M  V30 1294 H 137.463 -2.66306 -1.37917 0
M  V30 1295 H 135.016 -1.40477 -0.685271 0
M  V30 1296 H 135.751 -0.792717 -3.14462 0
M  V30 1297 H 135.536 -2.55864 -2.97113 0
M  V30 1298 H 137.026 -1.90591 -3.71571 0
M  V30 1299 N 137.463 0.71206 -1.40597 0
M  V30 1300 C 138.711 1.46907 -1.38791 0
M  V30 1301 C 139.032 1.94998 0.00780391 0
M  V30 1302 O 138.302 1.70587 0.963174 0
M  V30 1303 H 136.882 0.545043 -0.51082 0
M  V30 1304 H 139.544 0.843882 -1.75683 0
M  V30 1305 H 138.64 2.34021 -2.06496 0
M  V30 1306 N 138.941 1.26152 0.944643 0
M  V30 1307 C 140.218 1.02247 1.66748 0
M  V30 1308 C 140.598 -0.448202 2.06287 0
M  V30 1309 O 139.946 -1.42779 1.78399 0
M  V30 1310 C 140.156 1.96788 2.88228 0
M  V30 1311 C 141.504 2.25201 3.59958 0
M  V30 1312 O 142.528 1.94626 2.98327 0
M  V30 1313 O 141.387 2.77242 4.70956 0
M  V30 1314 H 138.481 0.388517 0.730057 0
M  V30 1315 H 141.027 1.37348 0.99668 0
M  V30 1316 H 139.799 2.96047 2.55875 0
M  V30 1317 H 139.422 1.62145 3.63035 0
M  V30 1318 N 140.419 -1.14872 1.07899 0
M  V30 1319 C 141.644 -1.90202 0.826926 0
M  V30 1320 C 142.069 -1.77774 -0.614664 0
M  V30 1321 O 141.427 -1.11431 -1.43013 0
M  V30 1322 C 141.475 -3.38352 1.24702 0
M  V30 1323 O 140.579 -4.10497 0.39575 0
M  V30 1324 H 139.92 -0.591968 0.300782 0
M  V30 1325 H 142.45 -1.45437 1.43907 0
M  V30 1326 H 142.46 -3.89156 1.22563 0
M  V30 1327 H 141.135 -3.46715 2.29698 0
M  V30 1328 H 139.712 -3.69796 0.480117 0
M  V30 1329 N 141.898 -0.863906 -1.31812 0
M  V30 1330 C 143.175 -0.39275 -1.91616 0
M  V30 1331 C 143.555 1.12461 -1.7865 0
M  V30 1332 O 142.903 1.95045 -1.19037 0
M  V30 1333 C 143.113 -0.867385 -3.38049 0
M  V30 1334 C 144.461 -0.889966 -4.15168 0
M  V30 1335 O 145.485 -0.812635 -3.46806 0
M  V30 1336 O 144.344 -1.00079 -5.37258 0
M  V30 1337 H 141.438 -0.116358 -0.818773 0
M  V30 1338 H 143.984 -0.951418 -1.40521 0
M  V30 1339 H 142.756 -1.91081 -3.41473 0
M  V30 1340 H 142.379 -0.286687 -3.96565 0
M  V30 1341 N 143.376 1.44774 -0.622745 0
M  V30 1342 C 144.601 2.06999 -0.128968 0
M  V30 1343 C 145.026 1.4617 1.1839 0
M  V30 1344 O 144.384 0.560007 1.72434 0
M  V30 1345 C 144.432 3.60595 -0.0188351 0
M  V30 1346 O 143.536 3.99398 1.02739 0
M  V30 1347 H 142.877 0.659047 -0.0809544 0
M  V30 1348 H 145.407 1.85784 -0.85705 0
M  V30 1349 H 145.417 4.07627 0.174476 0
M  V30 1350 H 144.092 4.04252 -0.977384 0
M  V30 1351 H 142.669 3.64011 0.809326 0
M  V30 1352 N 144.854 0.36279 1.53368 0
M  V30 1353 C 145.786 -0.519668 2.23231 0
M  V30 1354 C 146.799 -1.04844 1.24546 0
M  V30 1355 O 147.988 -0.955296 1.50786 0
M  V30 1356 C 145.088 -1.72995 2.9142 0
M  V30 1357 C 144.261 -1.33316 4.16588 0
M  V30 1358 C 143.32 -2.40521 4.68013 0
M  V30 1359 O 142.346 -2.03027 5.3176 0
M  V30 1360 N 143.548 -3.72065 4.45587 0
M  V30 1361 H 146.313 0.078751 2.99597 0
M  V30 1362 H 143.874 0.187833 1.60807 0
M  V30 1363 H 145.866 -2.44184 3.22733 0
M  V30 1364 H 144.436 -2.2353 2.18525 0
M  V30 1365 H 143.656 -0.451236 3.91609 0
M  V30 1366 H 144.944 -1.04432 4.97967 0
M  V30 1367 H 144.342 -4.05304 3.94646 0
M  V30 1368 H 142.899 -4.39366 4.81457 0
M  V30 1369 N 146.332 -1.57332 0.0918853 0
M  V30 1370 C 147.242 -2.17368 -0.882505 0
M  V30 1371 C 148.258 -1.14226 -1.31257 0
M  V30 1372 O 149.434 -1.46582 -1.38115 0
M  V30 1373 C 146.499 -2.73962 -2.12476 0
M  V30 1374 C 145.56 -3.92048 -1.7492 0
M  V30 1375 C 144.793 -4.45933 -2.93223 0
M  V30 1376 O 145.016 -3.98764 -4.07852 0
M  V30 1377 O 143.95 -5.36999 -2.71875 0
M  V30 1378 H 147.776 -3.01031 -0.40172 0
M  V30 1379 H 145.361 -1.48813 -0.132291 0
M  V30 1380 H 147.243 -3.10147 -2.85283 0
M  V30 1381 H 145.918 -1.93347 -2.59613 0
M  V30 1382 H 144.825 -3.6068 -0.993025 0
M  V30 1383 H 146.158 -4.74017 -1.32548 0
M  V30 1384 N 147.81 0.181792 -1.56548 0
M  V30 1385 C 148.72 1.24538 -1.98815 0
M  V30 1386 C 149.736 1.49045 -0.897861 0
M  V30 1387 O 150.912 1.61399 -1.20467 0
M  V30 1388 C 147.977 2.56683 -2.33055 0
M  V30 1389 C 147.038 2.40131 -3.55859 0
M  V30 1390 C 146.271 3.65975 -3.88456 0
M  V30 1391 O 146.494 4.70711 -3.22161 0
M  V30 1392 O 145.428 3.6071 -4.81842 0
M  V30 1393 H 149.254 0.916647 -2.89536 0
M  V30 1394 H 146.839 0.387842 -1.44278 0
M  V30 1395 H 148.721 3.34655 -2.56094 0
M  V30 1396 H 147.396 2.89157 -1.45498 0
M  V30 1397 H 146.303 1.60226 -3.38051 0
M  V30 1398 H 147.636 2.12585 -4.43924 0
M  V30 1399 N 149.288 1.51039 0.449983 0
M  V30 1400 C 150.251 1.70863 1.5277 0
M  V30 1401 C 151.251 0.578846 1.5002 0
M  V30 1402 O 152.441 0.846213 1.52266 0
M  V30 1403 C 149.573 1.75341 2.9235 0
M  V30 1404 H 150.766 2.67034 1.36502 0
M  V30 1405 H 148.319 1.40838 0.677812 0
M  V30 1406 H 149.054 0.809383 3.14037 0
M  V30 1407 H 148.839 2.57436 2.95752 0
M  V30 1408 H 150.329 1.92559 3.70555 0
M  V30 1409 N 150.766 -0.704594 1.40972 0
M  V30 1410 C 151.716 -1.81051 1.38581 0
M  V30 1411 C 152.7 -1.58759 0.261585 0
M  V30 1412 O 153.892 -1.69745 0.501556 0
M  V30 1413 C 151.021 -3.19279 1.26157 0
M  V30 1414 C 150.107 -3.47296 2.43405 0
M  V30 1415 N 150.498 -3.46064 3.68881 0
M  V30 1416 C 148.796 -3.77804 2.37023 0
M  V30 1417 C 149.497 -3.72733 4.46592 0
M  V30 1418 N 148.473 -3.9203 3.76581 0
M  V30 1419 H 152.275 -1.78448 2.33525 0
M  V30 1420 H 149.789 -0.904198 1.349 0
M  V30 1421 H 151.786 -3.98488 1.22526 0
M  V30 1422 H 150.446 -3.231 0.321902 0
M  V30 1423 H 151.457 -3.26656 4.01891 0
M  V30 1424 H 148.134 -3.8905 1.51481 0
M  V30 1425 H 149.524 -3.77993 5.55492 0
M  V30 1426 N 152.244 -1.26651 -0.937939 0
M  V30 1427 C 153.492 -1.12165 -1.68118 0
M  V30 1428 C 153.813 0.334983 -1.92101 0
M  V30 1429 O 153.083 1.23583 -1.52 0
M  V30 1430 H 151.663 -0.412093 -0.623048 0
M  V30 1431 H 154.325 -1.59027 -1.12678 0
M  V30 1432 H 153.421 -1.64289 -2.6536 0
M  V30 1433 N 153.722 1.14298 -1.08507 0
M  V30 1434 C 154.669 2.19414 -0.715965 0
M  V30 1435 C 155.639 1.63399 0.298326 0
M  V30 1436 O 156.824 1.89929 0.182101 0
M  V30 1437 C 153.964 3.44845 -0.132534 0
M  V30 1438 C 153.077 4.15007 -1.19973 0
M  V30 1439 C 152.212 5.28024 -0.580048 0
M  V30 1440 C 151.251 5.9002 -1.62921 0
M  V30 1441 N 150.388 6.94485 -1.03125 0
M  V30 1442 H 155.228 2.50336 -1.61666 0
M  V30 1443 H 152.765 1.2293 -0.807882 0
M  V30 1444 H 154.723 4.16601 0.223454 0
M  V30 1445 H 153.353 3.14403 0.731467 0
M  V30 1446 H 152.405 3.41629 -1.67313 0
M  V30 1447 H 153.717 4.57178 -1.99473 0
M  V30 1448 H 152.871 6.06455 -0.172364 0
M  V30 1449 H 151.61 4.87076 0.246603 0
M  V30 1450 H 150.615 5.10291 -2.04654 0
M  V30 1451 H 151.84 6.33042 -2.45835 0
M  V30 1452 H 149.786 6.55612 -0.225711 0
M  V30 1453 H 149.703 7.35148 -1.76334 0
M  V30 1454 H 150.971 7.7679 -0.649458 0
M  V30 1455 N 155.201 0.870884 1.31352 0
M  V30 1456 C 156.131 0.343096 2.30966 0
M  V30 1457 C 157.112 -0.566507 1.60389 0
M  V30 1458 O 158.297 -0.483336 1.88089 0
M  V30 1459 C 155.427 -0.455487 3.443 0
M  V30 1460 C 154.381 0.361103 4.26474 0
M  V30 1461 C 153.707 -0.563221 5.31725 0
M  V30 1462 C 155.007 1.59566 4.97329 0
M  V30 1463 H 156.701 1.17548 2.75359 0
M  V30 1464 H 154.247 0.566686 1.32381 0
M  V30 1465 H 156.2 -0.83525 4.13039 0
M  V30 1466 H 154.924 -1.32139 2.98675 0
M  V30 1467 H 153.583 0.722825 3.59403 0
M  V30 1468 H 153.231 -1.42643 4.82351 0
M  V30 1469 H 152.931 -0.0207409 5.87596 0
M  V30 1470 H 154.455 -0.939808 6.03324 0
M  V30 1471 H 155.869 1.28728 5.58661 0
M  V30 1472 H 154.266 2.07728 5.63 0
M  V30 1473 H 155.336 2.34798 4.24262 0
M  V30 1474 N 156.679 -1.44442 0.630414 0
M  V30 1475 C 157.925 -2.02351 0.134816 0
M  V30 1476 C 158.258 -1.4947 -1.23986 0
M  V30 1477 O 157.533 -0.678475 -1.82283 0
M  V30 1478 C 157.816 -3.59898 0.120707 0
M  V30 1479 C 157.669 -4.23063 1.52767 0
M  V30 1480 C 158.988 -4.36585 -0.555127 0
M  V30 1481 H 156.107 -0.73527 0.0504646 0
M  V30 1482 H 158.749 -1.72022 0.806751 0
M  V30 1483 H 156.899 -3.85868 -0.451477 0
M  V30 1484 H 158.571 -4.08202 2.14869 0
M  V30 1485 H 156.814 -3.80586 2.08175 0
M  V30 1486 H 157.485 -5.32071 1.46984 0
M  V30 1487 H 159.961 -4.16044 -0.0685429 0
M  V30 1488 H 158.837 -5.46294 -0.534185 0
M  V30 1489 H 159.098 -4.11138 -1.62535 0
M  V30 1490 N 158.157 -0.370918 -1.53173 0
M  V30 1491 C 159.087 0.464847 -2.28826 0
M  V30 1492 C 160.068 1.07936 -1.31468 0
M  V30 1493 O 161.253 1.0956 -1.60344 0
M  V30 1494 C 158.383 1.60196 -3.08147 0
M  V30 1495 C 157.337 1.11443 -4.13237 0
M  V30 1496 C 156.663 2.3422 -4.80672 0
M  V30 1497 C 157.963 0.195384 -5.21934 0
M  V30 1498 H 159.657 -0.166329 -2.98938 0
M  V30 1499 H 157.203 -0.0814359 -1.4377 0
M  V30 1500 H 159.156 2.19332 -3.59822 0
M  V30 1501 H 157.88 2.26045 -2.35735 0
M  V30 1502 H 156.539 0.545727 -3.62515 0
M  V30 1503 H 156.187 2.98537 -4.04827 0
M  V30 1504 H 155.887 2.02269 -5.51689 0
M  V30 1505 H 157.411 2.94032 -5.35143 0
M  V30 1506 H 158.825 0.694375 -5.69079 0
M  V30 1507 H 157.222 -0.0335027 -6.00091 0
M  V30 1508 H 158.292 -0.760961 -4.78892 0
M  V30 1509 N 159.635 1.57281 -0.100228 0
M  V30 1510 C 160.881 1.95626 0.556946 0
M  V30 1511 C 161.236 0.981655 1.65473 0
M  V30 1512 O 160.529 0.00849847 1.91598 0
M  V30 1513 C 160.723 3.38305 1.15259 0
M  V30 1514 C 160.552 4.49555 0.114035 0
M  V30 1515 C 159.322 5.0434 -0.311266 0
M  V30 1516 C 161.52 5.10051 -0.659768 0
M  V30 1517 N 159.502 5.99152 -1.33755 0
M  V30 1518 C 160.873 6.00628 -1.53774 0
M  V30 1519 C 162.928 4.92772 -0.712723 0
M  V30 1520 C 161.631 6.7578 -2.46403 0
M  V30 1521 C 163.657 5.6859 -1.62663 0
M  V30 1522 C 163.019 6.58838 -2.49222 0
M  V30 1523 H 159.118 0.7624 0.173982 0
M  V30 1524 H 161.702 1.93829 -0.183988 0
M  V30 1525 H 159.873 3.40786 1.86332 0
M  V30 1526 H 161.605 3.63817 1.77254 0
M  V30 1527 H 158.36 4.73537 0.0774812 0
M  V30 1528 H 158.784 6.5126 -1.84905 0
M  V30 1529 H 163.426 4.22761 -0.0576648 0
M  V30 1530 H 161.144 7.4505 -3.12931 0
M  V30 1531 H 164.73 5.57233 -1.67281 0
M  V30 1532 H 163.61 7.16479 -3.18791 0
M  V30 1533 N 161.113 -0.173488 1.56642 0
M  V30 1534 C 162.338 -0.910149 1.86363 0
M  V30 1535 C 162.763 -1.75132 0.686318 0
M  V30 1536 O 162.121 -1.77595 -0.364643 0
M  V30 1537 C 162.169 -1.76447 3.14482 0
M  V30 1538 O 161.273 -2.86584 2.96553 0
M  V30 1539 H 160.614 -0.255086 0.613047 0
M  V30 1540 H 163.144 -0.172283 2.03873 0
M  V30 1541 H 163.154 -2.16483 3.45831 0
M  V30 1542 H 161.829 -1.14658 3.99783 0
M  V30 1543 H 160.406 -2.50146 2.76553 0
M  V30 1544 N 162.591 -1.51276 -0.441967 0
M  V30 1545 C 163.839 -1.63392 -1.18943 0
M  V30 1546 C 164.16 -0.350159 -1.9183 0
M  V30 1547 O 163.43 0.633784 -1.85364 0
M  V30 1548 H 162.01 -0.602164 -0.442049 0
M  V30 1549 H 164.672 -1.88186 -0.507165 0
M  V30 1550 H 163.768 -2.45934 -1.92154 0
M  V30 1551 N 164.069 0.697108 -1.41344 0
M  V30 1552 C 164.999 1.82353 -1.45841 0
M  V30 1553 C 165.98 1.67115 -0.317247 0
M  V30 1554 O 167.165 1.86871 -0.528474 0
M  V30 1555 C 164.295 3.20476 -1.33838 0
M  V30 1556 C 163.249 3.50415 -2.4575 0
M  V30 1557 C 162.575 4.87878 -2.18813 0
M  V30 1558 C 163.875 3.49546 -3.88091 0
M  V30 1559 H 165.569 1.78846 -2.40113 0
M  V30 1560 H 163.115 0.859028 -1.15571 0
M  V30 1561 H 165.068 3.98988 -1.35596 0
M  V30 1562 H 163.792 3.24604 -0.360498 0
M  V30 1563 H 162.451 2.74253 -2.43271 0
M  V30 1564 H 162.099 4.8863 -1.19371 0
M  V30 1565 H 161.799 5.08875 -2.93803 0
M  V30 1566 H 163.323 5.68702 -2.22284 0
M  V30 1567 H 164.737 4.18066 -3.92293 0
M  V30 1568 H 163.134 3.82075 -4.62751 0
M  V30 1569 H 164.204 2.48552 -4.16353 0
M  V30 1570 N 165.547 1.27147 0.931209 0
M  V30 1571 C 166.963 1.04475 1.20653 0
M  V30 1572 C 167.163 -0.223885 2.00252 0
M  V30 1573 O 166.219 -0.930332 2.34736 0
M  V30 1574 C 167.532 2.28209 1.95809 0
M  V30 1575 C 169.08 2.33211 2.08762 0
M  V30 1576 C 169.555 3.56665 2.87323 0
M  V30 1577 N 171.046 3.57201 2.94892 0
M  V30 1578 C 171.781 4.49395 3.56134 0
M  V30 1579 N 171.277 5.51889 4.18796 0
M  V30 1580 N 173.07 4.37026 3.53504 0
M  V30 1581 H 165.221 2.08612 0.399333 0
M  V30 1582 H 167.484 0.917312 0.239253 0
M  V30 1583 H 167.19 3.20538 1.44736 0
M  V30 1584 H 167.064 2.33247 2.96438 0
M  V30 1585 H 169.451 1.41391 2.59023 0
M  V30 1586 H 169.532 2.32178 1.07364 0
M  V30 1587 H 169.176 4.4882 2.37746 0
M  V30 1588 H 169.106 3.54948 3.88998 0
M  V30 1589 H 171.597 2.83074 2.50354 0
M  V30 1590 H 171.91 6.18409 4.63454 0
M  V30 1591 H 170.255 5.55735 4.17353 0
M  V30 1592 H 173.446 3.56166 3.03749 0
M  V30 1593 H 173.619 5.09067 4.00942 0
M  V30 1594 N 167.025 -1.13721 1.09112 0
M  V30 1595 C 167.973 -2.21103 0.722219 0
M  V30 1596 C 168.967 -1.67147 -0.275374 0
M  V30 1597 O 170.173 -1.79477 -0.137176 0
M  V30 1598 H 166.548 -0.720445 0.215553 0
M  V30 1599 H 168.519 -2.49483 1.63709 0
M  V30 1600 C 167.268 -3.47352 0.15543 0
M  V30 1601 H 166.591 -3.89206 0.914246 0
M  V30 1602 H 168.031 -4.2395 -0.0647967 0
M  V30 1603 C 166.49 -3.1814 -1.10852 0
M  V30 1604 O 167.02 -3.36604 -2.19227 0
M  V30 1605 N 165.226 -2.72045 -1.02176 0
M  V30 1606 H 164.773 -2.57221 -0.139764 0
M  V30 1607 H 164.731 -2.52875 -1.8682 0
M  V30 1608 N 168.503 -0.877838 -1.30888 0
M  V30 1609 C 169.466 -0.344265 -2.266 0
M  V30 1610 C 170.466 0.50922 -1.52524 0
M  V30 1611 O 171.656 0.317398 -1.71284 0
M  V30 1612 C 168.788 0.510198 -3.37061 0
M  V30 1613 H 169.981 -1.1893 -2.7531 0
M  V30 1614 H 167.534 -0.654088 -1.41956 0
M  V30 1615 H 168.269 1.37612 -2.93655 0
M  V30 1616 H 168.054 -0.101047 -3.9197 0
M  V30 1617 H 169.544 0.875537 -4.08319 0
M  V30 1618 N 169.982 1.44106 -0.638065 0
M  V30 1619 C 171.393 1.85316 -0.226894 0
M  V30 1620 C 171.744 1.53399 1.22324 0
M  V30 1621 O 170.869 0.975463 1.93167 0
M  V30 1622 C 171.464 3.3637 -0.405013 0
M  V30 1623 C 170.023 3.76369 -0.0482902 0
M  V30 1624 C 169.17 2.67921 -0.715108 0
M  V30 1625 H 172.121 1.34474 -0.842764 0
M  V30 1626 H 172.142 3.7885 0.354 0
M  V30 1627 H 171.654 3.59569 -1.46053 0
M  V30 1628 H 169.755 3.58784 1.00522 0
M  V30 1629 H 169.868 4.76856 -0.463187 0
M  V30 1630 H 168.232 2.54259 -0.149753 0
M  V30 1631 H 169.015 2.93951 -1.77335 0
M  V30 1632 N 171.46 0.379036 1.52974 0
M  V30 1633 C 172.876 0.0285448 1.59574 0
M  V30 1634 C 173.076 -1.45542 1.39355 0
M  V30 1635 O 172.132 -2.2187 1.20541 0
M  V30 1636 C 173.445 0.496535 2.96572 0
M  V30 1637 C 174.993 0.451909 3.0972 0
M  V30 1638 C 175.468 0.895924 4.49152 0
M  V30 1639 N 176.959 0.851522 4.55306 0
M  V30 1640 C 177.694 1.16661 5.61407 0
M  V30 1641 N 177.19 1.55166 6.752 0
M  V30 1642 N 178.983 1.08853 5.51459 0
M  V30 1643 H 171.134 1.34525 1.64367 0
M  V30 1644 H 173.397 0.550733 0.771619 0
M  V30 1645 H 173.103 1.53258 3.16552 0
M  V30 1646 H 172.977 -0.109802 3.7704 0
M  V30 1647 H 175.364 -0.575029 2.89443 0
M  V30 1648 H 175.445 1.09392 2.3123 0
M  V30 1649 H 175.089 1.92104 4.70168 0
M  V30 1650 H 175.019 0.23103 5.26093 0
M  V30 1651 H 177.51 0.568038 3.73606 0
M  V30 1652 H 177.823 1.776 7.52116 0
M  V30 1653 H 176.168 1.59044 6.76557 0
M  V30 1654 H 179.359 0.786803 4.6144 0
M  V30 1655 H 179.532 1.33742 6.34048 0
M  V30 1656 N 172.938 -1.57226 0.108567 0
M  V30 1657 C 174.178 -1.96717 -0.555155 0
M  V30 1658 C 174.542 -0.990003 -1.64508 0
M  V30 1659 O 175.743 -1.2739 -2.36696 0
M  V30 1660 C 174.014 -3.40575 -1.08367 0
M  V30 1661 S 175.573 -4.02072 -1.75737 0
M  V30 1662 H 172.391 -0.687638 -0.180762 0
M  V30 1663 H 174.993 -1.94563 0.191172 0
M  V30 1664 H 173.697 -4.0945 -0.279092 0
M  V30 1665 H 173.228 -3.46356 -1.86551 0
M  V30 1666 H 175.243 -3.91977 -3.04251 0
M  V30 1667 N 174.416 0.165178 -1.56732 0
M  V30 1668 C 175.662 0.877389 -1.83503 0
M  V30 1669 C 176.017 1.79602 -0.689996 0
M  V30 1670 O 175.31 1.89023 0.313205 0
M  V30 1671 C 175.504 1.70405 -3.1416 0
M  V30 1672 C 175.333 0.866961 -4.41264 0
M  V30 1673 C 174.103 0.539646 -5.0241 0
M  V30 1674 C 176.301 0.205671 -5.13889 0
M  V30 1675 N 174.283 -0.312946 -6.13102 0
M  V30 1676 C 175.654 -0.507823 -6.17917 0
M  V30 1677 C 177.709 0.124468 -4.97744 0
M  V30 1678 C 176.412 -1.29483 -7.0755 0
M  V30 1679 C 178.438 -0.649222 -5.87826 0
M  V30 1680 C 177.8 -1.35106 -6.91322 0
M  V30 1681 H 173.899 0.299477 -0.722383 0
M  V30 1682 H 176.483 0.143949 -1.94167 0
M  V30 1683 H 174.654 2.40887 -3.04677 0
M  V30 1684 H 176.386 2.35804 -3.28905 0
M  V30 1685 H 173.141 0.871176 -4.65519 0
M  V30 1686 H 173.565 -0.729731 -6.73056 0
M  V30 1687 H 178.207 0.652724 -4.17731 0
M  V30 1688 H 175.925 -1.83441 -7.87004 0
M  V30 1689 H 179.511 -0.713804 -5.77405 0
M  V30 1690 H 178.391 -1.94013 -7.59821 0
M  V30 1691 N 175.894 1.51508 0.433938 0
M  V30 1692 C 176.857 1.72473 1.50949 0
M  V30 1693 C 177.857 0.594725 1.49398 0
M  V30 1694 O 179.047 0.862315 1.5136 0
M  V30 1695 C 176.179 1.78431 2.90474 0
M  V30 1696 H 177.372 2.68467 1.33662 0
M  V30 1697 H 174.925 1.41549 0.662836 0
M  V30 1698 H 175.66 0.842645 3.13161 0
M  V30 1699 H 175.445 2.60558 2.93005 0
M  V30 1700 H 176.935 1.96479 3.68491 0
M  V30 1701 N 177.372 -0.689602 1.41712 0
M  V30 1702 C 178.618 -1.45181 1.41599 0
M  V30 1703 C 178.951 -1.94181 0.0270081 0
M  V30 1704 O 178.226 -1.6993 -0.946265 0
M  V30 1705 C 178.509 -2.65945 2.42787 0
M  V30 1706 C 178.362 -2.22672 3.90816 0
M  V30 1707 C 179.681 -3.68149 2.41151 0
M  V30 1708 H 176.8 -0.526576 0.515642 0
M  V30 1709 H 179.442 -0.784947 1.73028 0
M  V30 1710 H 177.592 -3.2284 2.16116 0
M  V30 1711 H 179.264 -1.71058 4.28412 0
M  V30 1712 H 177.507 -1.54394 4.05395 0
M  V30 1713 H 178.178 -3.0935 4.57172 0
M  V30 1714 H 180.654 -3.2094 2.64834 0
M  V30 1715 H 179.53 -4.50248 3.13955 0
M  V30 1716 H 179.791 -4.18259 1.43221 0
M  V30 1717 N 178.85 -1.27639 -0.924453 0
M  V30 1718 C 180.099 -1.13549 -1.66702 0
M  V30 1719 C 180.412 0.317487 -1.93006 0
M  V30 1720 O 181.618 0.579333 -2.65247 0
M  V30 1721 C 180.074 -1.98426 -3.00259 0
M  V30 1722 C 179.682 -3.484 -2.81641 0
M  V30 1723 C 181.426 -1.92993 -3.78092 0
M  V30 1724 C 179.333 -4.25464 -4.10773 0
M  V30 1725 H 178.263 -0.421351 -0.625283 0
M  V30 1726 H 180.914 -1.52085 -1.02676 0
M  V30 1727 H 179.296 -1.52736 -3.6536 0
M  V30 1728 H 180.47 -4.01973 -2.25287 0
M  V30 1729 H 178.785 -3.55245 -2.17232 0
M  V30 1730 H 181.382 -2.47844 -4.7379 0
M  V30 1731 H 181.725 -0.904281 -4.0636 0
M  V30 1732 H 182.258 -2.36595 -3.19793 0
M  V30 1733 H 178.997 -5.28566 -3.87683 0
M  V30 1734 H 178.517 -3.76667 -4.66779 0
M  V30 1735 H 180.196 -4.34812 -4.79111 0
M  V30 1736 N 180.328 1.1314 -1.09713 0
M  V30 1737 C 181.26 2.18343 -0.697056 0
M  V30 1738 C 182.273 1.60669 0.262551 0
M  V30 1739 O 183.462 1.78435 0.0481527 0
M  V30 1740 C 180.562 3.38899 -0.00684728 0
M  V30 1741 C 179.735 4.26078 -0.988741 0
M  V30 1742 C 178.794 5.25155 -0.331394 0
M  V30 1743 O 177.82 5.60701 -0.979926 0
M  V30 1744 N 179.022 5.73271 0.913261 0
M  V30 1745 H 181.787 2.5328 -1.60216 0
M  V30 1746 H 179.348 1.28491 -0.984971 0
M  V30 1747 H 181.34 4.02255 0.444191 0
M  V30 1748 H 179.91 3.02175 0.800551 0
M  V30 1749 H 179.13 3.59453 -1.61826 0
M  V30 1750 H 180.418 4.81178 -1.65364 0
M  V30 1751 H 179.816 5.46544 1.45966 0
M  V30 1752 H 178.373 6.3855 1.30757 0
M  V30 1753 N 181.806 0.884767 1.30421 0
M  V30 1754 C 183.217 0.553656 1.78302 0
M  V30 1755 C 183.568 -0.930153 1.7275 0
M  V30 1756 O 182.693 -1.72681 1.30423 0
M  V30 1757 C 183.288 0.998234 3.2376 0
M  V30 1758 C 181.847 0.71854 3.69478 0
M  V30 1759 C 180.994 1.18132 2.50879 0
M  V30 1760 H 183.945 1.06901 1.17294 0
M  V30 1761 H 183.966 0.327118 3.79091 0
M  V30 1762 H 183.478 2.0782 3.27769 0
M  V30 1763 H 181.579 -0.349444 3.70958 0
M  V30 1764 H 181.692 1.30595 4.60958 0
M  V30 1765 H 180.056 0.600669 2.47516 0
M  V30 1766 H 180.839 2.26902 2.57624 0
M  V30 1767 N 183.284 -1.43765 0.645699 0
M  V30 1768 C 184.214 -2.33471 -0.0370477 0
M  V30 1769 C 185.195 -1.49042 -0.819779 0
M  V30 1770 O 186.38 -1.77726 -0.782758 0
M  V30 1771 C 183.51 -3.32311 -1.0093 0
M  V30 1772 C 182.464 -4.2667 -0.337201 0
M  V30 1773 C 181.79 -5.1549 -1.42037 0
M  V30 1774 C 183.09 -5.16657 0.765706 0
M  V30 1775 H 184.784 -2.90809 0.712069 0
M  V30 1776 H 182.33 -1.39834 0.343876 0
M  V30 1777 H 184.283 -3.9396 -1.49578 0
M  V30 1778 H 183.007 -2.73213 -1.78948 0
M  V30 1779 H 181.666 -3.66374 0.128771 0
M  V30 1780 H 181.314 -4.52735 -2.1918 0
M  V30 1781 H 181.014 -5.79438 -0.975966 0
M  V30 1782 H 182.538 -5.80012 -1.90838 0
M  V30 1783 H 183.952 -5.72158 0.361702 0
M  V30 1784 H 182.349 -5.89286 1.13413 0
M  V30 1785 H 183.419 -4.56796 1.62683 0
M  V30 1786 N 184.763 -0.387143 -1.52771 0
M  V30 1787 C 185.693 0.440551 -2.29306 0
M  V30 1788 C 186.674 1.06535 -1.32606 0
M  V30 1789 O 187.859 1.07853 -1.61497 0
M  V30 1790 C 184.989 1.56919 -3.09829 0
M  V30 1791 C 183.943 1.07054 -4.14395 0
M  V30 1792 C 183.269 2.29109 -4.83129 0
M  V30 1793 C 184.569 0.140015 -5.22112 0
M  V30 1794 H 186.263 -0.198026 -2.98744 0
M  V30 1795 H 183.809 -0.09668 -1.43675 0
M  V30 1796 H 185.762 2.15503 -3.62128 0
M  V30 1797 H 184.486 2.23532 -2.3812 0
M  V30 1798 H 183.145 0.507247 -3.63074 0
M  V30 1799 H 182.793 2.94227 -4.0797 0
M  V30 1800 H 182.493 1.96406 -5.53804 0
M  V30 1801 H 184.017 2.88339 -5.38231 0
M  V30 1802 H 185.431 0.633978 -5.69784 0
M  V30 1803 H 183.828 -0.0971485 -6.00021 0
M  V30 1804 H 184.898 -0.811711 -4.78058 0
M  V30 1805 N 186.241 1.57166 -0.116904 0
M  V30 1806 C 187.481 1.97008 0.544715 0
M  V30 1807 C 187.845 0.998713 1.63981 0
M  V30 1808 O 189.046 1.28644 2.36018 0
M  V30 1809 C 187.317 3.41145 1.06559 0
M  V30 1810 S 188.876 4.02998 1.73603 0
M  V30 1811 H 185.694 0.688587 0.177112 0
M  V30 1812 H 188.296 1.94459 -0.201487 0
M  V30 1813 H 187 4.09592 0.257374 0
M  V30 1814 H 186.531 3.4734 1.84712 0
M  V30 1815 H 188.546 3.93585 3.02168 0
M  V30 1816 N 187.719 -0.156864 1.56817 0
M  V30 1817 C 188.682 -1.17781 1.96622 0
M  V30 1818 C 189.682 -1.36401 0.851555 0
M  V30 1819 O 190.872 -1.33561 1.11836 0
M  V30 1820 C 188.004 -2.54008 2.27361 0
M  V30 1821 H 189.197 -0.836564 2.87996 0
M  V30 1822 H 186.75 -0.39985 1.51099 0
M  V30 1823 H 187.485 -2.9312 1.38748 0
M  V30 1824 H 187.27 -2.41856 3.08623 0
M  V30 1825 H 188.76 -3.27558 2.59029 0
M  V30 1826 N 189.197 -1.51736 -0.425897 0
M  V30 1827 C 190.443 -1.65214 -1.1761 0
M  V30 1828 C 190.776 -0.372778 -1.90589 0
M  V30 1829 O 190.051 0.628139 -1.84078 0
M  V30 1830 C 190.334 -2.86312 -2.18398 0
M  V30 1831 C 190.187 -4.24254 -1.49426 0
M  V30 1832 C 191.506 -3.02925 -3.19256 0
M  V30 1833 H 188.625 -0.601263 -0.426206 0
M  V30 1834 H 191.267 -1.8425 -0.463882 0
M  V30 1835 H 189.417 -2.70213 -2.79137 0
M  V30 1836 H 191.089 -4.52046 -0.919362 0
M  V30 1837 H 189.332 -4.26426 -0.796432 0
M  V30 1838 H 190.003 -5.05001 -2.22885 0
M  V30 1839 H 192.479 -3.1781 -2.68581 0
M  V30 1840 H 191.355 -3.89199 -3.8706 0
M  V30 1841 H 191.616 -2.15497 -3.86023 0
M  V30 1842 N 190.675 0.682077 -1.42076 0
M  V30 1843 C 191.905 1.46844 -1.45329 0
M  V30 1844 C 192.313 1.89102 -0.0609328 0
M  V30 1845 O 191.656 1.58238 0.933082 0
M  V30 1846 C 191.718 2.75375 -2.31104 0
M  V30 1847 C 191.382 2.55238 -3.79081 0
M  V30 1848 C 192.379 2.20309 -4.70914 0
M  V30 1849 C 190.064 2.70459 -4.2327 0
M  V30 1850 C 192.058 2.00859 -6.04925 0
M  V30 1851 C 189.745 2.50624 -5.57343 0
M  V30 1852 C 190.743 2.15876 -6.47986 0
M  V30 1853 O 190.431 1.96227 -7.79583 0
M  V30 1854 H 190.163 0.4586 -0.496651 0
M  V30 1855 H 192.717 0.846131 -1.87162 0
M  V30 1856 H 190.947 3.40061 -1.84107 0
M  V30 1857 H 192.636 3.37231 -2.25898 0
M  V30 1858 H 193.402 2.08153 -4.38061 0
M  V30 1859 H 189.281 2.96485 -3.53012 0
M  V30 1860 H 192.825 1.7366 -6.75639 0
M  V30 1861 H 188.722 2.62375 -5.89771 0
M  V30 1862 H 189.49 2.10883 -7.90867 0
M  V30 1863 N 192.153 1.28127 0.917671 0
M  V30 1864 C 193.086 1.06039 2.02067 0
M  V30 1865 C 194.064 -0.0223285 1.62585 0
M  V30 1866 O 195.248 0.124823 1.88086 0
M  V30 1867 C 192.375 0.610596 3.33151 0
M  V30 1868 C 191.421 1.68937 3.91615 0
M  V30 1869 S 192.254 3.28437 4.22953 0
M  V30 1870 C 193.41 2.85283 5.57103 0
M  V30 1871 H 193.643 1.99425 2.20493 0
M  V30 1872 H 191.176 1.12071 1.06205 0
M  V30 1873 H 193.134 0.357778 4.08938 0
M  V30 1874 H 191.795 -0.303364 3.12632 0
M  V30 1875 H 190.988 1.32619 4.86239 0
M  V30 1876 H 190.59 1.89478 3.2245 0
M  V30 1877 H 192.882 2.3121 6.36827 0
M  V30 1878 H 193.825 3.7869 5.98331 0
M  V30 1879 H 194.233 2.24118 5.18104 0
M  V30 1880 N 193.631 -1.12557 1.10312 0
M  V30 1881 C 195.042 -1.65574 0.862678 0
M  V30 1882 C 195.393 -1.86566 -0.607256 0
M  V30 1883 O 194.518 -1.59121 -1.46662 0
M  V30 1884 C 195.113 -3.00776 1.55947 0
M  V30 1885 C 193.672 -3.50748 1.36576 0
M  V30 1886 C 192.819 -2.25797 1.60968 0
M  V30 1887 H 195.77 -0.963552 1.26101 0
M  V30 1888 H 195.791 -3.67185 0.997753 0
M  V30 1889 H 195.303 -2.85465 2.62928 0
M  V30 1890 H 193.404 -3.71245 0.317531 0
M  V30 1891 H 193.517 -4.30289 2.10686 0
M  V30 1892 H 191.881 -2.32841 1.03234 0
M  V30 1893 H 192.664 -2.13043 2.69198 0
M  V30 1894 N 195.109 -0.891671 -1.2995 0
M  V30 1895 C 196.056 -0.361736 -2.27948 0
M  V30 1896 C 197.026 0.551761 -1.56668 0
M  V30 1897 O 198.211 0.478736 -1.84696 0
M  V30 1898 C 195.351 0.411825 -3.42634 0
M  V30 1899 C 194.464 -0.531651 -4.28716 0
M  V30 1900 C 193.599 0.258167 -5.30572 0
M  V30 1901 C 192.638 -0.680349 -6.08307 0
M  V30 1902 N 191.775 0.0745613 -7.0206 0
M  V30 1903 H 196.615 -1.20254 -2.72659 0
M  V30 1904 H 194.152 -0.604352 -1.34112 0
M  V30 1905 H 196.11 0.876304 -4.07893 0
M  V30 1906 H 194.74 1.21715 -2.98974 0
M  V30 1907 H 193.792 -1.11463 -3.63703 0
M  V30 1908 H 195.104 -1.25038 -4.82874 0
M  V30 1909 H 194.258 0.784204 -6.0161 0
M  V30 1910 H 192.997 1.01008 -4.77126 0
M  V30 1911 H 192.002 -1.21796 -5.3614 0
M  V30 1912 H 193.227 -1.43145 -6.63842 0
M  V30 1913 H 191.173 0.808883 -6.50994 0
M  V30 1914 H 191.09 -0.584409 -7.53738 0
M  V30 1915 H 192.358 0.581123 -7.77331 0
M  V30 1916 N 196.587 1.43421 -0.653314 0
M  V30 1917 C 197.827 2.03689 -0.170346 0
M  V30 1918 C 198.191 1.50427 1.19314 0
M  V30 1919 O 199.392 2.0234 1.76952 0
M  V30 1920 C 197.663 3.56946 -0.180183 0
M  V30 1921 S 199.222 4.38171 0.234925 0
M  V30 1922 H 196.04 0.707345 -0.0719976 0
M  V30 1923 H 198.642 1.75486 -0.86167 0
M  V30 1924 H 197.346 3.93212 -1.17526 0
M  V30 1925 H 196.877 3.89791 0.531675 0
M  V30 1926 H 198.892 4.73808 1.47378 0
M  V30 1927 N 198.065 0.39524 1.52563 0
M  V30 1928 C 198.975 -0.444232 2.30356 0
M  V30 1929 C 199.991 -1.06615 1.37511 0
M  V30 1930 O 201.167 -1.07067 1.70583 0
M  V30 1931 C 198.232 -1.55315 3.09964 0
M  V30 1932 C 197.293 -0.955734 4.18526 0
M  V30 1933 C 196.526 -2.01181 4.9433 0
M  V30 1934 O 196.749 -3.22781 4.70285 0
M  V30 1935 O 195.683 -1.62579 5.79527 0
M  V30 1936 H 199.509 0.189667 3.03107 0
M  V30 1937 H 197.094 0.1588 1.48554 0
M  V30 1938 H 198.976 -2.19724 3.59582 0
M  V30 1939 H 197.651 -2.17191 2.4002 0
M  V30 1940 H 196.558 -0.274743 3.7309 0
M  V30 1941 H 197.891 -0.381109 4.90722 0
M  V30 1942 N 199.544 -1.57102 0.125237 0
M  V30 1943 C 200.492 -2.16905 -0.839927 0
M  V30 1944 C 201.486 -1.11998 -1.27094 0
M  V30 1945 O 202.692 -1.3029 -1.24195 0
M  V30 1946 H 199.067 -0.694252 -0.288995 0
M  V30 1947 H 201.038 -2.96774 -0.311115 0
M  V30 1948 C 199.787 -2.78795 -2.07771 0
M  V30 1949 H 199.11 -3.59221 -1.755 0
M  V30 1950 H 200.55 -3.2417 -2.73295 0
M  V30 1951 C 199.009 -1.76193 -2.87155 0
M  V30 1952 O 199.539 -1.21909 -3.82755 0
M  V30 1953 N 197.745 -1.45991 -2.51267 0
M  V30 1954 H 197.292 -1.90325 -1.73592 0
M  V30 1955 H 197.25 -0.775844 -3.04677 0
M  V30 1956 N 201.022 0.148545 -1.56898 0
M  V30 1957 C 202.299 0.890019 -1.74178 0
M  V30 1958 C 202.679 1.99407 -0.692839 0
M  V30 1959 O 202.027 2.26671 0.288505 0
M  V30 1960 C 202.237 1.43389 -3.18183 0
M  V30 1961 C 203.585 1.89791 -3.79822 0
M  V30 1962 O 204.609 1.53134 -3.21603 0
M  V30 1963 O 203.468 2.57387 -4.82093 0
M  V30 1964 H 200.562 0.420496 -0.712118 0
M  V30 1965 H 203.108 0.134591 -1.69165 0
M  V30 1966 H 201.88 0.640383 -3.86024 0
M  V30 1967 H 201.503 2.25287 -3.27615 0
M  V30 1968 N 202.5 1.5196 0.417844 0
M  V30 1969 C 203.916 1.40569 0.755816 0
M  V30 1970 C 204.116 0.503316 1.95113 0
M  V30 1971 O 203.172 -0.0341925 2.52477 0
M  V30 1972 C 204.485 2.82947 1.01791 0
M  V30 1973 C 206.033 2.92231 1.12116 0
M  V30 1974 C 206.508 4.35559 1.41608 0
M  V30 1975 N 207.999 4.38753 1.48491 0
M  V30 1976 C 208.734 5.46705 1.7292 0
M  V30 1977 N 208.23 6.64788 1.95011 0
M  V30 1978 N 210.023 5.34209 1.74863 0
M  V30 1979 H 202.174 2.09168 -0.369098 0
M  V30 1980 H 204.437 0.942409 -0.102809 0
M  V30 1981 H 204.143 3.5106 0.212081 0
M  V30 1982 H 204.017 3.23462 1.94042 0
M  V30 1983 H 206.404 2.24304 1.9176 0
M  V30 1984 H 206.485 2.55185 0.177225 0
M  V30 1985 H 206.129 5.04042 0.624848 0
M  V30 1986 H 206.059 4.70133 2.37239 0
M  V30 1987 H 208.55 3.5363 1.33244 0
M  V30 1988 H 208.863 7.42845 2.13076 0
M  V30 1989 H 207.208 6.67869 1.92293 0
M  V30 1990 H 210.399 4.40937 1.57137 0
M  V30 1991 H 210.572 6.18415 1.93563 0
M  V30 1992 N 203.978 -0.674533 1.42435 0
M  V30 1993 C 205.224 -1.43671 1.43131 0
M  V30 1994 C 205.557 -1.94142 0.0476021 0
M  V30 1995 O 204.832 -1.70924 -0.928188 0
M  V30 1996 C 205.115 -2.63355 2.45594 0
M  V30 1997 C 204.968 -2.18514 3.93156 0
M  V30 1998 C 206.287 -3.65571 2.45043 0
M  V30 1999 H 203.406 -0.521077 0.521198 0
M  V30 2000 H 206.048 -0.766551 1.7385 0
M  V30 2001 H 204.198 -3.2053 2.19528 0
M  V30 2002 H 205.87 -1.66504 4.30202 0
M  V30 2003 H 204.113 -1.50086 4.07009 0
M  V30 2004 H 204.784 -3.04484 4.60428 0
M  V30 2005 H 207.26 -3.18113 2.68223 0
M  V30 2006 H 206.136 -4.46893 3.18713 0
M  V30 2007 H 206.397 -4.16716 1.47649 0
M  V30 2008 N 205.456 -1.28612 -0.910864 0
M  V30 2009 C 206.366 -1.14643 -2.0468 0
M  V30 2010 C 207.382 -0.0723121 -1.7385 0
M  V30 2011 O 208.558 -0.282178 -1.99413 0
M  V30 2012 C 205.623 -0.812561 -3.37044 0
M  V30 2013 C 204.684 -1.96935 -3.81465 0
M  V30 2014 C 203.917 -1.65131 -5.07511 0
M  V30 2015 O 204.14 -0.567013 -5.67575 0
M  V30 2016 O 203.074 -2.49585 -5.47714 0
M  V30 2017 H 206.9 -2.1001 -2.19384 0
M  V30 2018 H 204.485 -1.07958 -1.03274 0
M  V30 2019 H 206.367 -0.640441 -4.16505 0
M  V30 2020 H 205.042 0.111426 -3.23508 0
M  V30 2021 H 203.949 -2.19664 -3.02818 0
M  V30 2022 H 205.282 -2.87414 -3.99567 0
M  V30 2023 N 206.934 1.1197 -1.10907 0
M  V30 2024 C 207.864 2.19928 -0.784473 0
M  V30 2025 C 208.845 1.6833 0.244726 0
M  V30 2026 O 210.03 1.93892 0.109418 0
M  V30 2027 C 207.16 3.46597 -0.220827 0
M  V30 2028 C 206.114 4.11376 -1.18127 0
M  V30 2029 C 205.44 5.32554 -0.478594 0
M  V30 2030 C 206.74 4.56945 -2.52979 0
M  V30 2031 H 208.434 2.47337 -1.68715 0
M  V30 2032 H 205.98 1.18879 -0.812642 0
M  V30 2033 H 207.933 4.21396 0.0184278 0
M  V30 2034 H 206.657 3.1863 0.717113 0
M  V30 2035 H 205.316 3.38564 -1.40606 0
M  V30 2036 H 204.964 5.00856 0.463976 0
M  V30 2037 H 204.664 5.76844 -1.11912 0
M  V30 2038 H 206.188 6.10096 -0.248 0
M  V30 2039 H 207.602 5.23093 -2.3462 0
M  V30 2040 H 205.999 5.1203 -3.12962 0
M  V30 2041 H 207.069 3.70676 -3.12614 0
M  V30 2042 N 208.412 0.89855 1.29475 0
M  V30 2043 C 209.823 0.572537 1.77705 0
M  V30 2044 C 210.174 -0.911778 1.73727 0
M  V30 2045 O 209.299 -1.71288 1.32247 0
M  V30 2046 C 209.894 1.03252 3.22683 0
M  V30 2047 C 208.453 0.757687 3.68695 0
M  V30 2048 C 207.6 1.20787 2.49612 0
M  V30 2049 H 210.551 1.08139 1.16153 0
M  V30 2050 H 210.572 0.367307 3.78723 0
M  V30 2051 H 210.084 2.11285 3.25546 0
M  V30 2052 H 208.185 -0.310079 3.71308 0
M  V30 2053 H 208.298 1.35476 4.59547 0
M  V30 2054 H 206.662 0.626888 2.46865 0
M  V30 2055 H 207.445 2.29622 2.55203 0
M  V30 2056 N 209.89 -1.43072 0.660911 0
M  V30 2057 C 211.115 -2.06584 0.183805 0
M  V30 2058 C 211.54 -1.49257 -1.14472 0
M  V30 2059 O 210.898 -0.605528 -1.70889 0
M  V30 2060 C 210.946 -3.60418 0.114434 0
M  V30 2061 O 210.05 -4.01981 -0.921137 0
M  V30 2062 H 209.391 -0.656669 0.0983994 0
M  V30 2063 H 211.921 -1.83447 0.906006 0
M  V30 2064 H 211.931 -4.07946 -0.0663394 0
M  V30 2065 H 210.606 -4.01519 1.08422 0
M  V30 2066 H 209.183 -3.66029 -0.71253 0
M  V30 2067 N 211.368 -0.403325 -1.52352 0
M  V30 2068 C 212.784 -0.0539281 -1.59509 0
M  V30 2069 C 212.984 1.43307 -1.41652 0
M  V30 2070 O 212.04 2.19924 -1.24056 0
M  V30 2071 C 213.353 -0.543654 -2.95745 0
M  V30 2072 C 214.901 -0.501125 -3.08962 0
M  V30 2073 C 215.376 -0.967267 -4.47669 0
M  V30 2074 N 216.867 -0.923849 -4.53893 0
M  V30 2075 C 217.602 -1.25578 -5.5948 0
M  V30 2076 N 217.098 -1.65889 -6.72646 0
M  V30 2077 N 218.891 -1.17613 -5.49658 0
M  V30 2078 H 211.042 -1.37123 -1.62206 0
M  V30 2079 H 213.305 -0.56294 -0.76276 0
M  V30 2080 H 213.011 -1.58275 -3.14073 0
M  V30 2081 H 212.885 0.0498042 -3.77167 0
M  V30 2082 H 215.272 0.528909 -2.90321 0
M  V30 2083 H 215.353 -1.13056 -2.2946 0
M  V30 2084 H 214.997 -1.9956 -4.67053 0
M  V30 2085 H 214.927 -0.314698 -5.25659 0
M  V30 2086 H 217.418 -0.627403 -3.72655 0
M  V30 2087 H 217.731 -1.89543 -7.49195 0
M  V30 2088 H 216.076 -1.69787 -6.73942 0
M  V30 2089 H 219.267 -0.860115 -4.6013 0
M  V30 2090 H 219.44 -1.43812 -6.3184 0
M  V30 2091 N 212.846 1.57033 -0.133567 0
M  V30 2092 C 214.074 2.00044 0.528195 0
M  V30 2093 C 214.489 1.01349 1.59291 0
M  V30 2094 O 213.846 0.00848369 1.82498 0
M  V30 2095 C 213.897 3.43018 1.1411 0
M  V30 2096 O 213.618 4.37939 0.11892 0
M  V30 2097 C 215.119 4.01237 1.88477 0
M  V30 2098 H 212.339 0.656517 0.138661 0
M  V30 2099 H 214.883 2.03267 -0.224196 0
M  V30 2100 H 213.038 3.40688 1.84418 0
M  V30 2101 H 213.452 5.21436 0.56613 0
M  V30 2102 H 214.926 5.03314 2.26669 0
M  V30 2103 H 215.403 3.41193 2.76558 0
M  V30 2104 H 216.009 4.07156 1.22898 0
M  V30 2105 N 214.325 -0.140222 1.56975 0
M  V30 2106 C 215.255 -1.17456 2.01808 0
M  V30 2107 C 216.236 -1.44415 0.898794 0
M  V30 2108 O 217.421 -1.5522 1.16707 0
M  V30 2109 C 214.551 -2.50607 2.40444 0
M  V30 2110 C 213.505 -2.38155 3.55621 0
M  V30 2111 C 212.831 -3.76078 3.80091 0
M  V30 2112 C 214.131 -1.85991 4.88062 0
M  V30 2113 H 215.825 -0.801743 2.88466 0
M  V30 2114 H 213.371 -0.38422 1.38779 0
M  V30 2115 H 215.324 -3.23197 2.7041 0
M  V30 2116 H 214.048 -2.89737 1.50732 0
M  V30 2117 H 212.707 -1.68016 3.25832 0
M  V30 2118 H 212.355 -4.12656 2.87618 0
M  V30 2119 H 212.055 -3.68606 4.57606 0
M  V30 2120 H 213.579 -4.50206 4.12488 0
M  V30 2121 H 214.993 -2.4838 5.16701 0
M  V30 2122 H 213.39 -1.89393 5.6943 0
M  V30 2123 H 214.46 -0.816023 4.77984 0
M  V30 2124 N 215.803 -1.52179 -0.40978 0
M  V30 2125 C 217.043 -1.67882 -1.16597 0
M  V30 2126 C 217.407 -0.399795 -1.87791 0
M  V30 2127 O 218.608 -0.43292 -2.65291 0
M  V30 2128 C 216.879 -2.86662 -2.13448 0
M  V30 2129 S 218.438 -3.22843 -2.97183 0
M  V30 2130 H 215.256 -0.59118 -0.395002 0
M  V30 2131 H 217.858 -1.9017 -0.453373 0
M  V30 2132 H 216.562 -3.77998 -1.59831 0
M  V30 2133 H 216.093 -2.66645 -2.89247 0
M  V30 2134 H 218.108 -2.71415 -4.15389 0
M  V30 2135 N 217.281 0.66697 -1.42791 0
M  V30 2136 C 218.213 1.7925 -1.42836 0
M  V30 2137 C 219.226 1.59496 -0.326333 0
M  V30 2138 O 220.415 1.6847 -0.589916 0
M  V30 2139 C 217.515 3.16476 -1.21229 0
M  V30 2140 C 216.688 3.63011 -2.44013 0
M  V30 2141 C 215.747 4.78993 -2.17834 0
M  V30 2142 O 214.773 4.89137 -2.91091 0
M  V30 2143 N 215.975 5.68248 -1.18635 0
M  V30 2144 H 218.74 1.79695 -2.39854 0
M  V30 2145 H 216.301 0.850338 -1.37771 0
M  V30 2146 H 218.293 3.91734 -1.01621 0
M  V30 2147 H 216.863 3.10884 -0.32706 0
M  V30 2148 H 216.083 2.78346 -2.79137 0
M  V30 2149 H 217.371 3.90845 -3.25757 0
M  V30 2150 H 216.769 5.62712 -0.580615 0
M  V30 2151 H 215.326 6.43285 -1.05013 0
M  V30 2152 N 218.759 1.29093 0.90403 0
M  V30 2153 C 219.722 1.1386 1.98919 0
M  V30 2154 C 220.722 0.0753457 1.60623 0
M  V30 2155 O 221.912 0.321931 1.71199 0
M  V30 2156 C 219.044 0.740198 3.32767 0
M  V30 2157 H 220.237 2.10246 2.13861 0
M  V30 2158 H 217.79 1.12218 1.08797 0
M  V30 2159 H 218.525 -0.223997 3.23525 0
M  V30 2160 H 218.31 1.50838 3.61926 0
M  V30 2161 H 219.8 0.656546 4.12407 0
M  V30 2162 N 220.237 -1.11381 1.11499 0
M  V30 2163 C 221.465 -1.86934 0.88675 0
M  V30 2164 C 221.88 -1.80195 -0.563476 0
M  V30 2165 O 221.237 -1.18367 -1.38908 0
M  V30 2166 C 221.288 -3.35722 1.34064 0
M  V30 2167 O 221.009 -3.4232 2.73401 0
M  V30 2168 C 222.51 -4.2818 1.14791 0
M  V30 2169 H 219.73 -0.591117 0.317523 0
M  V30 2170 H 222.274 -1.40865 1.48248 0
M  V30 2171 H 220.429 -3.79294 0.788355 0
M  V30 2172 H 220.843 -4.34971 2.93087 0
M  V30 2173 H 222.317 -5.30817 1.5145 0
M  V30 2174 H 222.794 -4.39113 0.0875279 0
M  V30 2175 H 223.4 -3.90402 1.68721 0
M  V30 2176 N 221.715 -0.905404 -1.28997 0
M  V30 2177 C 223.131 -0.60233 -1.47798 0
M  V30 2178 C 223.331 0.854645 -1.82478 0
M  V30 2179 O 222.387 1.63439 -1.92468 0
M  V30 2180 C 223.7 -1.53306 -2.58685 0
M  V30 2181 C 225.248 -1.53887 -2.72558 0
M  V30 2182 C 225.723 -2.45602 -3.86579 0
M  V30 2183 N 227.214 -2.43681 -3.93921 0
M  V30 2184 C 227.949 -3.11347 -4.81509 0
M  V30 2185 N 227.445 -3.88313 -5.73746 0
M  V30 2186 N 229.238 -3.00476 -4.75048 0
M  V30 2187 H 221.389 -1.84765 -1.04764 0
M  V30 2188 H 223.652 -0.792025 -0.520961 0
M  V30 2189 H 223.358 -2.57141 -2.39941 0
M  V30 2190 H 223.232 -1.25787 -3.55609 0
M  V30 2191 H 225.619 -0.507941 -2.90696 0
M  V30 2192 H 225.7 -1.85447 -1.76191 0
M  V30 2193 H 225.344 -3.48792 -3.69197 0
M  V30 2194 H 225.274 -2.11349 -4.82327 0
M  V30 2195 H 227.765 -1.87767 -3.27951 0
M  V30 2196 H 228.078 -4.36985 -6.37389 0
M  V30 2197 H 226.423 -3.92419 -5.73614 0
M  V30 2198 H 229.614 -2.39858 -4.01977 0
M  V30 2199 H 229.787 -3.53485 -5.43095 0
M  V30 2200 N 223.193 1.4272 -0.668489 0
M  V30 2201 C 224.441 2.01226 -0.187769 0
M  V30 2202 C 224.762 1.53092 1.2078 0
M  V30 2203 O 224.032 0.74993 1.80977 0
M  V30 2204 H 222.612 0.744041 -0.0664272 0
M  V30 2205 H 225.274 1.74723 -0.863583 0
M  V30 2206 H 224.37 3.11556 -0.184166 0
M  V30 2207 N 224.671 0.411399 1.52136 0
M  V30 2208 C 226.082 -0.0576826 1.86611 0
M  V30 2209 C 226.433 -1.44238 1.33003 0
M  V30 2210 O 225.558 -2.05759 0.670228 0
M  V30 2211 C 226.153 -0.111448 3.38617 0
M  V30 2212 C 224.712 -0.52487 3.72723 0
M  V30 2213 C 223.859 0.299176 2.75681 0
M  V30 2214 H 226.81 0.628368 1.4573 0
M  V30 2215 H 226.831 -0.926252 3.69054 0
M  V30 2216 H 226.343 0.896488 3.77604 0
M  V30 2217 H 224.444 -1.53936 3.39315 0
M  V30 2218 H 224.557 -0.267681 4.78352 0
M  V30 2219 H 222.921 -0.238814 2.53578 0
M  V30 2220 H 223.704 1.3055 3.17508 0
M  V30 2221 N 226.149 -1.5696 0.141893 0
M  V30 2222 C 227.389 -1.9785 -0.513304 0
M  V30 2223 C 227.753 -1.02467 -1.62371 0
M  V30 2224 O 228.954 -1.32382 -2.33941 0
M  V30 2225 C 227.225 -3.42797 -1.01118 0
M  V30 2226 S 228.784 -4.05709 -1.67169 0
M  V30 2227 H 225.602 -0.691318 -0.166135 0
M  V30 2228 H 228.204 -1.94114 0.232398 0
M  V30 2229 H 226.908 -4.0995 -0.192179 0
M  V30 2230 H 226.439 -3.50235 -1.79162 0
M  V30 2231 H 228.454 -3.98342 -2.95868 0
M  V30 2232 N 227.627 0.131896 -1.57047 0
M  V30 2233 C 228.59 1.14638 -1.98471 0
M  V30 2234 C 229.59 1.35029 -0.873148 0
M  V30 2235 O 230.78 1.31764 -1.13946 0
M  V30 2236 C 227.912 2.50358 -2.31373 0
M  V30 2237 H 229.105 0.79064 -2.8929 0
M  V30 2238 H 226.658 0.375761 -1.51716 0
M  V30 2239 H 227.393 2.90876 -1.43393 0
M  V30 2240 H 227.178 2.36915 -3.12432 0
M  V30 2241 H 228.668 3.23395 -2.64207 0
M  V30 2242 N 229.106 1.52395 0.401703 0
M  V30 2243 C 230.355 1.66044 1.14509 0
M  V30 2244 C 230.668 0.400216 1.91462 0
M  V30 2245 O 231.874 0.416632 2.68284 0
M  V30 2246 C 230.33 2.93388 2.0845 0
M  V30 2247 C 229.938 4.26545 1.36978 0
M  V30 2248 C 231.682 3.16402 2.83001 0
M  V30 2249 C 229.589 5.45007 2.29611 0
M  V30 2250 H 228.519 0.618562 0.431158 0
M  V30 2251 H 231.17 1.78886 0.40892 0
M  V30 2252 H 229.552 2.74263 2.8565 0
M  V30 2253 H 230.726 4.56179 0.650916 0
M  V30 2254 H 229.041 4.09692 0.74438 0
M  V30 2255 H 231.638 4.02085 3.52465 0
M  V30 2256 H 231.981 2.30943 3.46368 0
M  V30 2257 H 232.514 3.36034 2.12898 0
M  V30 2258 H 229.253 6.32835 1.70879 0
M  V30 2259 H 228.773 5.19702 2.9945 0
M  V30 2260 H 230.452 5.7838 2.89974 0
M  V30 2261 N 230.584 -0.659388 1.43143 0
M  V30 2262 C 231.83 -1.42145 1.44647 0
M  V30 2263 C 232.163 -1.9408 0.0681907 0
M  V30 2264 O 231.438 -1.71899 -0.910007 0
M  V30 2265 C 231.721 -2.60735 2.48373 0
M  V30 2266 C 231.574 -2.14332 3.95451 0
M  V30 2267 C 232.893 -3.62951 2.48906 0
M  V30 2268 H 230.012 -0.51552 0.526696 0
M  V30 2269 H 232.654 -0.748069 1.74654 0
M  V30 2270 H 230.804 -3.18184 2.22916 0
M  V30 2271 H 232.476 -1.61932 4.31944 0
M  V30 2272 H 230.719 -1.4576 4.08578 0
M  V30 2273 H 231.39 -2.99583 4.63631 0
M  V30 2274 H 233.866 -3.1525 2.71582 0
M  V30 2275 H 232.742 -4.43487 3.23435 0
M  V30 2276 H 233.003 -4.15126 1.52061 0
M  V30 2277 N 232.062 -1.29571 -0.897171 0
M  V30 2278 C 232.972 -1.16808 -2.03453 0
M  V30 2279 C 233.988 -0.0907471 -1.73763 0
M  V30 2280 O 235.164 -0.303312 -1.99103 0
M  V30 2281 C 232.229 -0.848264 -3.36163 0
M  V30 2282 C 231.29 -2.0097 -3.79354 0
M  V30 2283 C 230.523 -1.70505 -5.05731 0
M  V30 2284 O 230.746 -0.62718 -5.66941 0
M  V30 2285 O 229.68 -2.5538 -5.45036 0
M  V30 2286 H 233.506 -2.12325 -2.17144 0
M  V30 2287 H 231.091 -1.09047 -1.02123 0
M  V30 2288 H 232.973 -0.684581 -4.15802 0
M  V30 2289 H 231.648 0.0771071 -3.23608 0
M  V30 2290 H 230.555 -2.22863 -3.00471 0
M  V30 2291 H 231.888 -2.91636 -3.96496 0
M  V30 2292 N 233.54 1.10788 -1.12088 0
M  V30 2293 C 234.956 1.34691 -0.856186 0
M  V30 2294 C 235.156 1.94791 0.515615 0
M  V30 2295 O 234.212 2.18524 1.26505 0
M  V30 2296 C 235.525 2.27208 -1.9697 0
M  V30 2297 C 237.073 2.40755 -2.00016 0
M  V30 2298 C 237.548 3.36598 -3.1059 0
M  V30 2299 N 239.039 3.44164 -3.10008 0
M  V30 2300 C 239.774 4.18284 -3.92206 0
M  V30 2301 N 239.27 4.95322 -4.84384 0
M  V30 2302 N 241.063 4.13865 -3.80357 0
M  V30 2303 H 233.214 0.70144 -2.00483 0
M  V30 2304 H 235.477 0.371405 -0.872217 0
M  V30 2305 H 235.183 1.90251 -2.958 0
M  V30 2306 H 235.057 3.27485 -1.87172 0
M  V30 2307 H 237.444 2.76982 -1.01808 0
M  V30 2308 H 237.525 1.40305 -2.13888 0
M  V30 2309 H 237.169 3.01096 -4.09028 0
M  V30 2310 H 237.099 4.36918 -2.93956 0
M  V30 2311 H 239.59 2.8922 -2.43228 0
M  V30 2312 H 239.903 5.49267 -5.43623 0
M  V30 2313 H 238.248 4.94459 -4.884 0
M  V30 2314 H 241.439 3.52773 -3.07683 0
M  V30 2315 H 241.612 4.71372 -4.44649 0
M  V30 2316 N 235.018 0.912232 1.28515 0
M  V30 2317 C 235.928 0.404506 2.31086 0
M  V30 2318 C 236.944 -0.50707 1.66448 0
M  V30 2319 O 238.12 -0.393624 1.97516 0
M  V30 2320 C 235.185 -0.348572 3.44943 0
M  V30 2321 C 234.246 0.59604 4.25142 0
M  V30 2322 C 233.479 -0.121194 5.33562 0
M  V30 2323 O 233.702 -1.34317 5.5436 0
M  V30 2324 O 232.636 0.542716 5.99448 0
M  V30 2325 H 236.462 1.25579 2.76521 0
M  V30 2326 H 234.047 0.676998 1.33181 0
M  V30 2327 H 235.929 -0.77395 4.14232 0
M  V30 2328 H 234.604 -1.17571 3.01594 0
M  V30 2329 H 233.511 1.07079 3.58448 0
M  V30 2330 H 234.844 1.38995 4.72167 0
M  V30 2331 N 236.496 -1.42363 0.676048 0
M  V30 2332 C 237.912 -1.55811 0.345718 0
M  V30 2333 C 238.112 -1.65544 -1.14879 0
M  V30 2334 O 237.168 -1.62306 -1.93424 0
M  V30 2335 C 238.481 -2.80746 1.07713 0
M  V30 2336 C 240.029 -2.9452 1.05958 0
M  V30 2337 C 240.504 -4.22318 1.77233 0
M  V30 2338 N 241.995 -4.29233 1.74108 0
M  V30 2339 C 242.73 -5.26935 2.26113 0
M  V30 2340 N 242.226 -6.30783 2.86505 0
M  V30 2341 N 244.019 -5.18741 2.1648 0
M  V30 2342 H 236.17 -1.34289 1.6456 0
M  V30 2343 H 238.433 -0.646506 0.69335 0
M  V30 2344 H 238.139 -2.79696 2.13221 0
M  V30 2345 H 238.013 -3.71676 0.64316 0
M  V30 2346 H 240.4 -2.95097 0.0128255 0
M  V30 2347 H 240.481 -2.04817 1.53244 0
M  V30 2348 H 240.125 -4.22502 2.81877 0
M  V30 2349 H 240.055 -5.10958 1.27396 0
M  V30 2350 H 242.546 -3.54814 1.30059 0
M  V30 2351 H 242.859 -7.01691 3.23805 0
M  V30 2352 H 241.204 -6.31341 2.90575 0
M  V30 2353 H 244.395 -4.36533 1.68987 0
M  V30 2354 H 244.568 -5.94721 2.57316 0
M  V30 2355 N 237.974 -0.419461 -1.51915 0
M  V30 2356 C 239.222 0.152637 -2.01523 0
M  V30 2357 C 239.543 1.44762 -1.30649 0
M  V30 2358 O 238.813 1.90997 -0.435535 0
M  V30 2359 H 237.393 0.0593966 -0.744635 0
M  V30 2360 H 240.055 -0.558073 -1.86739 0
M  V30 2361 H 239.151 0.341369 -3.10227 0
M  V30 2362 N 239.452 1.56882 -0.150215 0
M  V30 2363 C 240.698 1.97299 0.494427 0
M  V30 2364 C 241.053 1.0338 1.62266 0
M  V30 2365 O 240.346 0.0694497 1.91474 0
M  V30 2366 C 240.54 3.41801 1.04437 0
M  V30 2367 C 240.369 4.49691 -0.0290451 0
M  V30 2368 C 239.139 5.03095 -0.47156 0
M  V30 2369 C 241.337 5.07693 -0.821703 0
M  V30 2370 N 239.319 5.94593 -1.52749 0
M  V30 2371 C 240.69 5.95431 -1.72805 0
M  V30 2372 C 242.745 4.90256 -0.869134 0
M  V30 2373 C 241.448 6.67599 -2.67777 0
M  V30 2374 C 243.474 5.63127 -1.8067 0
M  V30 2375 C 242.836 6.50576 -2.70057 0
M  V30 2376 H 238.935 0.76755 0.149639 0
M  V30 2377 H 241.519 1.93145 -0.24556 0
M  V30 2378 H 239.69 3.46541 1.75396 0
M  V30 2379 H 241.422 3.69272 1.6559 0
M  V30 2380 H 238.177 4.73543 -0.0732101 0
M  V30 2381 H 238.601 6.45047 -2.05531 0
M  V30 2382 H 243.243 4.22363 -0.192134 0
M  V30 2383 H 240.961 7.34717 -3.36476 0
M  V30 2384 H 244.547 5.51629 -1.84924 0
M  V30 2385 H 243.427 7.05974 -3.41424 0
M  V30 2386 N 240.93 -0.123565 1.57115 0
M  V30 2387 C 242.341 -0.681198 1.73829 0
M  V30 2388 C 242.692 -1.80535 0.768214 0
M  V30 2389 O 241.817 -2.16317 -0.0599103 0
M  V30 2390 C 242.412 -1.24246 3.15196 0
M  V30 2391 C 240.971 -1.74643 3.33432 0
M  V30 2392 C 240.118 -0.644284 2.69711 0
M  V30 2393 H 243.069 0.102315 1.5837 0
M  V30 2394 H 243.09 -2.11216 3.16493 0
M  V30 2395 H 242.602 -0.424062 3.85776 0
M  V30 2396 H 240.703 -2.58974 2.67886 0
M  V30 2397 H 240.816 -1.85902 4.41562 0
M  V30 2398 H 239.18 -1.07676 2.3082 0
M  V30 2399 H 239.963 0.163058 3.42913 0
M  V30 2400 N 242.408 -1.52605 -0.393616 0
M  V30 2401 C 243.685 -1.58001 -1.15304 0
M  V30 2402 C 244.065 -0.370385 -2.07825 0
M  V30 2403 O 243.413 0.641638 -2.19306 0
M  V30 2404 C 243.623 -2.91652 -1.91677 0
M  V30 2405 C 244.971 -3.4522 -2.47201 0
M  V30 2406 O 245.995 -2.93495 -2.01839 0
M  V30 2407 O 244.854 -4.35579 -3.3005 0
M  V30 2408 H 241.948 -0.637068 -0.527327 0
M  V30 2409 H 244.494 -1.64939 -0.399141 0
M  V30 2410 H 243.266 -3.71136 -1.23992 0
M  V30 2411 H 242.889 -2.88077 -2.74039 0
M  V30 2412 N 243.887 0.651787 -1.4349 0
M  V30 2413 C 245.134 1.41167 -1.45183 0
M  V30 2414 C 245.462 1.94349 -0.0766601 0
M  V30 2415 O 244.717 1.72804 0.918555 0
M  V30 2416 C 245.016 2.60914 -2.44251 0
M  V30 2417 C 244.682 2.26142 -3.9009 0
M  V30 2418 C 243.344 2.16371 -4.2981 0
M  V30 2419 C 245.696 1.98334 -4.81989 0
M  V30 2420 C 243.024 1.7695 -5.5938 0
M  V30 2421 C 245.376 1.6041 -6.11924 0
M  V30 2422 C 244.04 1.49166 -6.5062 0
M  V30 2423 H 243.31 0.516566 -0.531263 0
M  V30 2424 H 245.957 0.741099 -1.76579 0
M  V30 2425 H 244.262 3.3311 -2.06265 0
M  V30 2426 H 245.959 3.19127 -2.42815 0
M  V30 2427 H 242.549 2.34658 -3.58655 0
M  V30 2428 H 246.733 2.04803 -4.52072 0
M  V30 2429 H 241.989 1.66831 -5.88198 0
M  V30 2430 H 246.163 1.37925 -6.82605 0
M  V30 2431 H 243.79 1.1839 -7.50925 0
M  V30 2432 N 245.365 1.30045 0.890287 0
M  V30 2433 C 246.295 1.18541 2.01172 0
M  V30 2434 C 247.276 0.0773356 1.69924 0
M  V30 2435 O 248.461 0.25845 1.92473 0
M  V30 2436 C 245.591 0.870941 3.36202 0
M  V30 2437 C 244.545 1.93637 3.81692 0
M  V30 2438 C 243.871 1.475 5.13953 0
M  V30 2439 C 245.171 3.34666 4.00994 0
M  V30 2440 H 246.865 2.12359 2.11054 0
M  V30 2441 H 244.411 1.02238 1.01407 0
M  V30 2442 H 246.364 0.777141 4.14172 0
M  V30 2443 H 245.088 -0.102926 3.26438 0
M  V30 2444 H 243.747 2.01972 3.05946 0
M  V30 2445 H 243.395 0.489551 5.00612 0
M  V30 2446 H 243.095 2.1876 5.4536 0
M  V30 2447 H 244.619 1.39489 5.94454 0
M  V30 2448 H 246.033 3.2912 4.69417 0
M  V30 2449 H 244.43 4.03966 4.43769 0
M  V30 2450 H 245.5 3.76949 3.05021 0
M  V30 2451 N 246.843 -1.10192 1.12674 0
M  V30 2452 C 248.259 -1.34235 0.863317 0
M  V30 2453 C 248.459 -1.95062 -0.505277 0
M  V30 2454 O 247.515 -2.19192 -1.25345 0
M  V30 2455 C 248.828 -2.2616 1.98172 0
M  V30 2456 C 250.376 -2.3969 2.0129 0
M  V30 2457 C 250.851 -3.34946 3.1237 0
M  V30 2458 N 252.342 -3.42515 3.11829 0
M  V30 2459 C 253.077 -4.16199 3.94419 0
M  V30 2460 N 252.573 -4.92747 4.87004 0
M  V30 2461 N 254.366 -4.11843 3.82547 0
M  V30 2462 H 246.517 -0.690798 2.00853 0
M  V30 2463 H 248.78 -0.366774 0.874174 0
M  V30 2464 H 248.486 -1.8868 2.96804 0
M  V30 2465 H 248.36 -3.26488 1.88906 0
M  V30 2466 H 250.747 -2.76438 1.03276 0
M  V30 2467 H 250.828 -1.39169 2.14629 0
M  V30 2468 H 250.472 -2.98923 4.10619 0
M  V30 2469 H 250.402 -4.35353 2.96269 0
M  V30 2470 H 252.893 -2.87926 2.44759 0
M  V30 2471 H 253.206 -5.46376 5.46528 0
M  V30 2472 H 251.551 -4.91862 4.91016 0
M  V30 2473 H 254.742 -3.51136 3.0955 0
M  V30 2474 H 254.915 -4.69007 4.47142 0
M  V30 2475 N 248.321 -0.919034 -1.28029 0
M  V30 2476 C 249.561 -0.562107 -1.96519 0
M  V30 2477 C 249.925 0.878784 -1.70708 0
M  V30 2478 O 251.126 1.34355 -2.32813 0
M  V30 2479 C 249.397 -0.868953 -3.46676 0
M  V30 2480 S 250.956 -0.619237 -4.34409 0
M  V30 2481 H 247.774 -0.2078 -0.679956 0
M  V30 2482 H 250.376 -1.18562 -1.55446 0
M  V30 2483 H 249.08 -1.91547 -3.62957 0
M  V30 2484 H 248.611 -0.234301 -3.92702 0
M  V30 2485 H 250.626 0.526995 -4.93394 0
M  V30 2486 N 249.799 1.42003 -0.683588 0
M  V30 2487 C 251.027 2.05746 -0.218182 0
M  V30 2488 C 251.442 1.51396 1.12804 0
M  V30 2489 O 250.799 0.657303 1.70252 0
M  V30 2490 C 250.85 3.61171 -0.154131 0
M  V30 2491 O 250.571 4.13508 -1.44716 0
M  V30 2492 C 252.072 4.42042 0.333713 0
M  V30 2493 H 249.292 0.662888 -0.10402 0
M  V30 2494 H 251.836 1.81987 -0.9328 0
M  V30 2495 H 249.991 3.84012 0.511231 0
M  V30 2496 H 250.405 5.07453 -1.32632 0
M  V30 2497 H 251.879 5.51028 0.327423 0
M  V30 2498 H 252.356 4.17269 1.37053 0
M  V30 2499 H 252.962 4.24239 -0.300222 0
M  V30 2500 N 251.277 0.427512 1.51691 0
M  V30 2501 C 252.688 -0.0378867 1.86662 0
M  V30 2502 C 253.039 -1.42819 1.34525 0
M  V30 2503 O 252.164 -2.05037 0.692014 0
M  V30 2504 C 252.759 -0.0755266 3.38716 0
M  V30 2505 C 251.318 -0.485309 3.73258 0
M  V30 2506 C 250.465 0.328399 2.75349 0
M  V30 2507 H 253.416 0.64379 1.45055 0
M  V30 2508 H 253.437 -0.887056 3.70016 0
M  V30 2509 H 252.949 0.936487 3.76632 0
M  V30 2510 H 251.05 -1.50329 3.40928 0
M  V30 2511 H 251.163 -0.21693 4.78609 0
M  V30 2512 H 249.527 -0.211905 2.53817 0
M  V30 2513 H 250.31 1.3391 3.16106 0
M  V30 2514 N 252.755 -1.56801 0.158532 0
M  V30 2515 C 254.032 -1.88131 -0.535357 0
M  V30 2516 C 254.412 -1.06638 -1.82186 0
M  V30 2517 O 253.76 -0.156533 -2.27963 0
M  V30 2518 C 253.97 -3.39949 -0.789653 0
M  V30 2519 C 255.318 -4.09416 -1.12533 0
M  V30 2520 O 256.342 -3.45194 -0.878622 0
M  V30 2521 O 255.201 -5.22855 -1.59014 0
M  V30 2522 H 252.295 -0.780143 -0.27442 0
M  V30 2523 H 254.841 -1.68564 0.19601 0
M  V30 2524 H 253.613 -3.91115 0.120353 0
M  V30 2525 H 253.236 -3.65084 -1.57479 0
M  V30 2526 N 254.233 0.115231 -1.57178 0
M  V30 2527 C 255.649 0.468877 -1.52557 0
M  V30 2528 C 255.849 1.81649 -0.872125 0
M  V30 2529 O 254.905 2.48347 -0.45606 0
M  V30 2530 C 256.218 0.4499 -2.97315 0
M  V30 2531 C 257.766 0.533185 -3.08425 0
M  V30 2532 C 258.241 0.54456 -4.54751 0
M  V30 2533 N 259.732 0.605892 -4.5922 0
M  V30 2534 C 260.467 0.636203 -5.6986 0
M  V30 2535 N 259.963 0.623931 -6.89985 0
M  V30 2536 N 261.756 0.679496 -5.57978 0
M  V30 2537 H 253.907 -0.767712 -1.9804 0
M  V30 2538 H 256.17 -0.283609 -0.904583 0
M  V30 2539 H 255.876 -0.472721 -3.48509 0
M  V30 2540 H 255.75 1.27632 -3.5495 0
M  V30 2541 H 258.137 1.44623 -2.57232 0
M  V30 2542 H 258.218 -0.320995 -2.53778 0
M  V30 2543 H 257.862 -0.364452 -5.06591 0
M  V30 2544 H 257.792 1.41568 -5.07214 0
M  V30 2545 H 260.283 0.621386 -3.72756 0
M  V30 2546 H 260.596 0.649787 -7.70063 0
M  V30 2547 H 258.941 0.591296 -6.9248 0
M  V30 2548 H 262.132 0.686472 -4.63039 0
M  V30 2549 H 262.305 0.69965 -6.44212 0
M  V30 2550 N 255.711 1.52812 0.385517 0
M  V30 2551 C 256.958 1.68026 1.1302 0
M  V30 2552 C 257.286 0.421934 1.89868 0
M  V30 2553 O 256.541 -0.595749 1.86412 0
M  V30 2554 C 256.84 2.86856 2.13187 0
M  V30 2555 C 256.506 4.24159 1.5297 0
M  V30 2556 C 255.168 4.61501 1.36274 0
M  V30 2557 C 257.52 5.09627 1.09223 0
M  V30 2558 C 254.848 5.81966 0.743837 0
M  V30 2559 C 257.2 6.30719 0.487411 0
M  V30 2560 C 255.864 6.6679 0.307777 0
M  V30 2561 H 255.134 0.614849 0.413571 0
M  V30 2562 H 257.781 1.86962 0.414405 0
M  V30 2563 H 256.086 2.6235 2.90998 0
M  V30 2564 H 257.783 2.95821 2.70722 0
M  V30 2565 H 254.373 3.94746 1.66954 0
M  V30 2566 H 258.557 4.81343 1.20922 0
M  V30 2567 H 253.813 6.08519 0.592891 0
M  V30 2568 H 257.987 6.96259 0.140143 0
M  V30 2569 H 255.614 7.60001 -0.173879 0
M  V30 2570 N 257.189 -0.644168 1.43834 0
M  V30 2571 C 258.6 -1.22554 1.40845 0
M  V30 2572 C 258.951 -1.9585 0.117115 0
M  V30 2573 O 258.076 -2.01734 -0.783086 0
M  V30 2574 C 258.671 -2.22907 2.55143 0
M  V30 2575 C 257.23 -2.76501 2.5539 0
M  V30 2576 C 256.377 -1.51287 2.32396 0
M  V30 2577 H 259.328 -0.43563 1.52604 0
M  V30 2578 H 259.349 -3.05259 2.2715 0
M  V30 2579 H 258.861 -1.69533 3.49114 0
M  V30 2580 H 256.962 -3.33914 1.65324 0
M  V30 2581 H 257.075 -3.23429 3.53455 0
M  V30 2582 H 255.439 -1.78957 1.81236 0
M  V30 2583 H 256.222 -0.998336 3.28463 0
M  V30 2584 N 258.668 -1.30515 -0.883378 0
M  V30 2585 C 259.578 -1.18959 -2.02203 0
M  V30 2586 C 260.594 -0.109172 -1.73657 0
M  V30 2587 O 261.77 -0.324413 -1.9877 0
M  V30 2588 C 258.835 -0.883871 -3.35244 0
M  V30 2589 C 257.896 -2.04982 -3.77201 0
M  V30 2590 C 257.129 -1.75859 -5.03894 0
M  V30 2591 O 257.352 -0.687276 -5.66244 0
M  V30 2592 O 256.286 -2.61146 -5.42297 0
M  V30 2593 H 260.112 -2.14616 -2.1488 0
M  V30 2594 H 257.697 -1.10124 -1.0096 0
M  V30 2595 H 259.579 -0.728644 -4.15053 0
M  V30 2596 H 258.254 0.0427798 -3.23672 0
M  V30 2597 H 257.161 -2.26038 -2.9809 0
M  V30 2598 H 258.494 -2.95825 -3.93381 0
M  V30 2599 N 260.146 1.09593 -1.13257 0
M  V30 2600 C 261.394 1.81375 -0.891492 0
M  V30 2601 C 261.715 1.86049 0.584009 0
M  V30 2602 O 260.985 1.34481 1.42449 0
M  V30 2603 H 259.565 0.671708 -0.326828 0
M  V30 2604 H 262.227 1.3256 -1.42877 0
M  V30 2605 H 261.323 2.84612 -1.28071 0
M  V30 2606 N 261.624 0.925811 1.2754 0
M  V30 2607 C 262.864 0.572521 1.96218 0
M  V30 2608 C 263.228 -0.869719 1.71172 0
M  V30 2609 O 264.429 -1.33119 2.33523 0
M  V30 2610 C 262.7 0.887325 3.4621 0
M  V30 2611 S 264.259 0.642266 4.34074 0
M  V30 2612 H 261.077 0.211403 0.678845 0
M  V30 2613 H 263.679 1.19384 1.54815 0
M  V30 2614 H 262.383 1.93469 3.61936 0
M  V30 2615 H 261.914 0.255123 3.92572 0
M  V30 2616 H 263.929 -0.500822 4.93666 0
M  V30 2617 N 263.102 -1.41638 0.69111 0
M  V30 2618 C 264.33 -2.05628 0.22909 0
M  V30 2619 C 264.745 -1.51992 -1.11999 0
M  V30 2620 O 264.102 -0.666322 -1.69901 0
M  V30 2621 C 264.153 -3.61084 0.173283 0
M  V30 2622 O 263.874 -4.12735 1.46907 0
M  V30 2623 C 265.375 -4.42213 -0.310266 0
M  V30 2624 H 262.595 -0.662327 0.107534 0
M  V30 2625 H 265.139 -1.81489 0.942438 0
M  V30 2626 H 263.294 -3.84278 -0.490858 0
M  V30 2627 H 263.708 -5.06743 1.35322 0
M  V30 2628 H 265.182 -5.51194 -0.298196 0
M  V30 2629 H 265.659 -4.1799 -1.34838 0
M  V30 2630 H 266.265 -4.24074 0.322716 0
M  V30 2631 N 264.58 -0.43555 -1.51462 0
M  V30 2632 C 265.528 0.391205 -2.29287 0
M  V30 2633 C 266.522 1.02247 -1.35062 0
M  V30 2634 O 267.728 0.957646 -1.52411 0
M  V30 2635 H 264.103 0.144968 -0.737895 0
M  V30 2636 H 266.074 -0.286051 -2.97026 0
M  V30 2637 C 264.823 1.48096 -3.14583 0
M  V30 2638 H 264.146 1.00457 -3.86973 0
M  V30 2639 H 265.586 2.03273 -3.72097 0
M  V30 2640 C 264.045 2.46321 -2.29843 0
M  V30 2641 O 264.575 3.50815 -1.95682 0
M  V30 2642 N 262.781 2.17166 -1.931 0
M  V30 2643 H 262.328 1.32218 -2.21079 0
M  V30 2644 H 262.286 2.83127 -1.36698 0
M  V30 2645 N 266.058 1.56714 -0.166846 0
M  V30 2646 C 266.968 2.21331 0.777791 0
M  V30 2647 C 267.984 1.20358 1.25658 0
M  V30 2648 O 269.16 1.53005 1.30964 0
M  V30 2649 C 266.225 2.83787 1.99163 0
M  V30 2650 C 265.286 3.99947 1.56016 0
M  V30 2651 C 264.519 4.59415 2.71613 0
M  V30 2652 O 264.742 4.17769 3.88362 0
M  V30 2653 O 263.676 5.49359 2.45945 0
M  V30 2654 H 267.502 3.02605 0.257636 0
M  V30 2655 H 265.087 1.49275 0.0611393 0
M  V30 2656 H 266.969 3.23405 2.70161 0
M  V30 2657 H 265.644 2.05513 2.50092 0
M  V30 2658 H 264.551 3.65007 0.819809 0
M  V30 2659 H 265.884 4.79801 1.09782 0
M  V30 2660 N 267.536 -0.106894 1.57237 0
M  V30 2661 C 268.782 -0.81373 1.85759 0
M  V30 2662 C 269.115 -1.78952 0.754315 0
M  V30 2663 O 268.39 -1.93029 -0.23879 0
M  V30 2664 C 268.673 -1.55293 3.24894 0
M  V30 2665 C 268.526 -0.595929 4.45835 0
M  V30 2666 C 269.845 -2.5063 3.61763 0
M  V30 2667 H 266.964 -0.294369 0.67566 0
M  V30 2668 H 269.606 -0.0776472 1.89841 0
M  V30 2669 H 267.756 -2.1804 3.21544 0
M  V30 2670 H 269.428 0.0236262 4.61294 0
M  V30 2671 H 267.671 0.0916191 4.33703 0
M  V30 2672 H 268.342 -1.15004 5.39887 0
M  V30 2673 H 270.818 -1.97982 3.65981 0
M  V30 2674 H 269.694 -2.99376 4.60071 0
M  V30 2675 H 269.955 -3.3385 2.89821 0
M  V30 2676 N 269.014 -1.53014 -0.377408 0
M  V30 2677 C 269.946 -1.74884 -1.48149 0
M  V30 2678 C 270.959 -0.629433 -1.5014 0
M  V30 2679 O 272.148 -0.905416 -1.53833 0
M  V30 2680 C 269.248 -1.80299 -2.86959 0
M  V30 2681 C 268.421 -3.09776 -3.08801 0
M  V30 2682 C 267.48 -3.06586 -4.27658 0
M  V30 2683 O 266.506 -3.80419 -4.23403 0
M  V30 2684 N 267.708 -2.26578 -5.34455 0
M  V30 2685 H 270.473 -2.70147 -1.29771 0
M  V30 2686 H 268.034 -1.51646 -0.56703 0
M  V30 2687 H 270.026 -1.75657 -3.64591 0
M  V30 2688 H 268.596 -0.92372 -2.98641 0
M  V30 2689 H 267.816 -3.27815 -2.18931 0
M  V30 2690 H 269.104 -3.95366 -3.20255 0
M  V30 2691 H 268.502 -1.66081 -5.40771 0
M  V30 2692 H 267.059 -2.27766 -6.10709 0
M  V30 2693 N 270.492 0.636531 -1.44174 0
M  V30 2694 C 271.44 1.76995 -1.50915 0
M  V30 2695 C 272.434 1.65053 -0.381295 0
M  V30 2696 O 273.64 1.71197 -0.55601 0
M  V30 2697 H 270.015 0.584247 -0.473455 0
M  V30 2698 H 271.986 1.68432 -2.4632 0
M  V30 2699 C 270.735 3.15314 -1.46534 0
M  V30 2700 H 270.058 3.25149 -2.32633 0
M  V30 2701 H 271.498 3.9453 -1.55312 0
M  V30 2702 C 269.957 3.3639 -0.185305 0
M  V30 2703 O 270.487 3.94699 0.746688 0
M  V30 2704 N 268.693 2.9046 -0.0901606 0
M  V30 2705 H 268.24 2.43193 -0.849416 0
M  V30 2706 H 268.198 3.04937 0.765553 0
M  V30 2707 N 271.97 1.30982 0.876444 0
M  V30 2708 C 273.219 1.19658 1.62373 0
M  V30 2709 C 273.532 -0.245636 1.94052 0
M  V30 2710 O 274.738 -0.48049 2.67214 0
M  V30 2711 C 273.194 2.09433 2.92687 0
M  V30 2712 C 272.802 3.58613 2.68516 0
M  V30 2713 C 274.546 2.06893 3.70669 0
M  V30 2714 C 272.453 4.40416 3.94699 0
M  V30 2715 H 271.383 0.444268 0.609214 0
M  V30 2716 H 274.034 1.55791 0.969605 0
M  V30 2717 H 272.416 1.66191 3.59439 0
M  V30 2718 H 273.59 4.10058 2.10212 0
M  V30 2719 H 271.905 3.63063 2.03898 0
M  V30 2720 H 274.502 2.65258 4.64265 0
M  V30 2721 H 274.845 1.05448 4.02724 0
M  V30 2722 H 275.378 2.48301 3.10792 0
M  V30 2723 H 272.117 5.42591 3.67798 0
M  V30 2724 H 271.637 3.93731 4.52477 0
M  V30 2725 H 273.316 4.52294 4.62644 0
M  V30 2726 N 273.449 -1.08991 1.13837 0
M  V30 2727 C 274.396 -2.15748 0.819835 0
M  V30 2728 C 275.366 -1.64636 -0.220026 0
M  V30 2729 O 276.551 -1.90582 -0.0912757 0
M  V30 2730 C 273.691 -3.4382 0.296913 0
M  V30 2731 C 272.804 -4.0881 1.39636 0
M  V30 2732 C 271.939 -5.24655 0.831314 0
M  V30 2733 C 270.978 -5.81575 1.90886 0
M  V30 2734 N 270.115 -6.88774 1.36142 0
M  V30 2735 H 274.955 -2.42338 1.73426 0
M  V30 2736 H 272.492 -1.18935 0.865613 0
M  V30 2737 H 274.45 -4.17193 -0.0244339 0
M  V30 2738 H 273.08 -3.17535 -0.580628 0
M  V30 2739 H 272.132 -3.33258 1.83422 0
M  V30 2740 H 273.444 -4.47141 2.21058 0
M  V30 2741 H 272.598 -6.04942 0.461515 0
M  V30 2742 H 271.337 -4.87698 -0.013932 0
M  V30 2743 H 270.342 -4.99946 2.28767 0
M  V30 2744 H 271.567 -6.20592 2.75758 0
M  V30 2745 H 269.513 -6.53788 0.538254 0
M  V30 2746 H 269.43 -7.25898 2.11208 0
M  V30 2747 H 270.698 -7.72806 1.01933 0
M  V30 2748 N 274.927 -0.932562 -1.27047 0
M  V30 2749 C 276.174 -0.575559 -1.94148 0
M  V30 2750 C 276.502 0.883984 -1.73251 0
M  V30 2751 O 275.757 1.64655 -1.0577 0
M  V30 2752 C 276.056 -0.853713 -3.47054 0
M  V30 2753 C 275.722 -2.29577 -3.88079 0
M  V30 2754 C 274.384 -2.68999 -3.9899 0
M  V30 2755 C 276.736 -3.23331 -4.08787 0
M  V30 2756 C 274.064 -4.01289 -4.28 0
M  V30 2757 C 276.416 -4.55207 -4.39282 0
M  V30 2758 C 275.08 -4.94457 -4.48407 0
M  V30 2759 H 274.35 -0.210612 -0.710439 0
M  V30 2760 H 276.997 -1.17744 -1.51025 0
M  V30 2761 H 275.302 -0.169204 -3.91434 0
M  V30 2762 H 276.999 -0.55639 -3.97121 0
M  V30 2763 H 273.589 -1.97994 -3.80127 0
M  V30 2764 H 277.773 -2.94074 -3.99793 0
M  V30 2765 H 273.029 -4.31374 -4.33275 0
M  V30 2766 H 277.203 -5.27852 -4.54252 0
M  V30 2767 H 274.83 -5.96994 -4.7064 0
M  V30 2768 N 276.405 1.4127 -0.698611 0
M  V30 2769 C 277.353 2.32588 -0.023855 0
M  V30 2770 C 278.347 1.51128 0.765292 0
M  V30 2771 O 279.553 1.67043 0.670571 0
M  V30 2772 H 275.928 0.751918 0.0110871 0
M  V30 2773 H 277.899 2.87167 -0.811031 0
M  V30 2774 C 276.648 3.35947 0.896369 0
M  V30 2775 H 275.971 3.98684 0.298548 0
M  V30 2776 H 277.411 4.02376 1.33676 0
M  V30 2777 C 275.87 2.70076 2.01396 0
M  V30 2778 O 276.4 2.55093 3.10307 0
M  V30 2779 N 274.606 2.28724 1.79259 0
M  V30 2780 H 274.153 2.4111 0.906841 0
M  V30 2781 H 274.111 1.84986 2.54219 0
M  V30 2782 N 277.883 0.443576 1.51229 0
M  V30 2783 C 279.108 -0.121648 2.07043 0
M  V30 2784 C 279.533 -1.35156 1.30823 0
M  V30 2785 O 278.891 -1.7793 0.347934 0
M  V30 2786 C 278.939 -0.41624 3.5819 0
M  V30 2787 O 278.043 -1.50163 3.8409 0
M  V30 2788 H 277.384 0.000871367 0.663999 0
M  V30 2789 H 279.914 0.626706 1.94765 0
M  V30 2790 H 279.924 -0.664867 4.02546 0
M  V30 2791 H 278.599 0.482653 4.1309 0
M  V30 2792 H 277.176 -1.24248 3.51592 0
M  V30 2793 N 279.361 -1.56624 0.175154 0
M  V30 2794 C 280.586 -2.01813 -0.478137 0
M  V30 2795 C 281.011 -1.05457 -1.55757 0
M  V30 2796 O 280.369 -0.0347439 -1.81267 0
M  V30 2797 C 280.417 -3.45581 -1.02987 0
M  V30 2798 O 279.521 -3.52305 -2.14371 0
M  V30 2799 H 278.862 -0.65413 -0.114059 0
M  V30 2800 H 281.392 -2.02673 0.280173 0
M  V30 2801 H 281.402 -3.84965 -1.35151 0
M  V30 2802 H 280.077 -4.1521 -0.239556 0
M  V30 2803 H 278.654 -3.24783 -1.83222 0
M  V30 2804 N 280.839 0.0985539 -1.57292 0
M  V30 2805 C 282.087 0.801092 -1.85545 0
M  V30 2806 C 282.408 1.79438 -0.763353 0
M  V30 2807 O 281.678 1.94763 0.21073 0
M  V30 2808 H 280.258 0.29884 -0.684619 0
M  V30 2809 H 282.92 0.0810064 -1.94732 0
M  V30 2810 H 282.016 1.3338 -2.82163 0
M  V30 2811 N 282.317 1.53212 0.369288 0
M  V30 2812 C 283.249 1.75668 1.47219 0
M  V30 2813 C 284.262 0.637387 1.49804 0
M  V30 2814 O 285.451 0.913561 1.5335 0
M  V30 2815 C 282.551 1.81818 2.85999 0
M  V30 2816 C 281.724 3.11409 3.07153 0
M  V30 2817 C 280.783 3.08849 4.26026 0
M  V30 2818 O 279.809 3.82659 4.2138 0
M  V30 2819 N 281.011 2.29409 5.33246 0
M  V30 2820 H 283.776 2.70832 1.28337 0
M  V30 2821 H 281.337 1.51944 0.55898 0
M  V30 2822 H 283.329 1.77588 3.63655 0
M  V30 2823 H 281.899 0.939544 2.98146 0
M  V30 2824 H 281.119 3.28971 2.1719 0
M  V30 2825 H 282.407 3.97059 3.18154 0
M  V30 2826 H 281.805 1.68946 5.39883 0
M  V30 2827 H 280.362 2.31001 6.09493 0
M  V30 2828 N 283.795 -0.628877 1.44509 0
M  V30 2829 C 285.035 -1.39993 1.48934 0
M  V30 2830 C 285.399 -1.91627 0.119604 0
M  V30 2831 O 286.6 -2.68772 0.0385283 0
M  V30 2832 C 284.871 -2.53241 2.52198 0
M  V30 2833 S 286.43 -3.41383 2.75687 0
M  V30 2834 H 283.248 -0.477558 0.526744 0
M  V30 2835 H 285.85 -0.727804 1.81448 0
M  V30 2836 H 284.554 -2.13622 3.50419 0
M  V30 2837 H 284.085 -3.25278 2.21264 0
M  V30 2838 H 286.1 -4.50752 2.07453 0
M  V30 2839 N 285.273 -1.31445 -0.869486 0
M  V30 2840 C 286.183 -1.21097 -2.0093 0
M  V30 2841 C 287.199 -0.127584 -1.73532 0
M  V30 2842 O 288.375 -0.345477 -1.98415 0
M  V30 2843 C 285.44 -0.919378 -3.34288 0
M  V30 2844 C 284.501 -2.08971 -3.75006 0
M  V30 2845 C 283.734 -1.81194 -5.02001 0
M  V30 2846 O 283.957 -0.747296 -5.65484 0
M  V30 2847 O 282.891 -2.66883 -5.39497 0
M  V30 2848 H 286.717 -2.16883 -2.12592 0
M  V30 2849 H 284.302 -1.11189 -0.997868 0
M  V30 2850 H 286.184 -0.772625 -4.14257 0
M  V30 2851 H 284.859 0.00844772 -3.23699 0
M  V30 2852 H 283.766 -2.29187 -2.95676 0
M  V30 2853 H 285.099 -2.9998 -3.90221 0
M  V30 2854 N 286.751 1.08385 -1.14413 0
M  V30 2855 C 287.997 1.81044 -0.913834 0
M  V30 2856 C 288.33 1.86004 0.558209 0
M  V30 2857 O 287.605 1.33606 1.4135 0
M  V30 2858 C 287.888 3.26648 -1.51569 0
M  V30 2859 C 287.741 3.29895 -3.0576 0
M  V30 2860 C 289.06 4.23629 -1.19273 0
M  V30 2861 H 286.179 0.65727 -0.333414 0
M  V30 2862 H 288.821 1.26896 -1.41412 0
M  V30 2863 H 286.971 3.72889 -1.09023 0
M  V30 2864 H 288.643 2.91977 -3.57137 0
M  V30 2865 H 286.886 2.69163 -3.40197 0
M  V30 2866 H 287.557 4.32516 -3.42977 0
M  V30 2867 H 290.033 3.85727 -1.56057 0
M  V30 2868 H 288.909 5.23822 -1.64017 0
M  V30 2869 H 289.17 4.41968 -0.108068 0
M  V30 2870 N 288.23 0.939286 1.26551 0
M  V30 2871 C 289.641 0.628782 1.75793 0
M  V30 2872 C 289.992 -0.856046 1.7654 0
M  V30 2873 O 289.117 -1.66994 1.3763 0
M  V30 2874 C 289.712 1.13465 3.19235 0
M  V30 2875 C 288.271 0.874601 3.66098 0
M  V30 2876 C 287.418 1.28667 2.45642 0
M  V30 2877 H 290.369 1.1178 1.12654 0
M  V30 2878 H 290.39 0.487609 3.77363 0
M  V30 2879 H 289.902 2.21535 3.1866 0
M  V30 2880 H 288.003 -0.191793 3.72106 0
M  V30 2881 H 288.116 1.50028 4.55004 0
M  V30 2882 H 286.48 0.705109 2.44745 0
M  V30 2883 H 287.263 2.37625 2.47769 0
M  V30 2884 N 289.708 -1.40897 0.706093 0
M  V30 2885 C 290.638 -2.33418 0.0620085 0
M  V30 2886 C 291.619 -1.52385 -0.755827 0
M  V30 2887 O 292.804 -1.80886 -0.706674 0
M  V30 2888 C 289.934 -3.36293 -0.867445 0
M  V30 2889 C 288.888 -4.27716 -0.155932 0
M  V30 2890 C 288.214 -5.2105 -1.20046 0
M  V30 2891 C 289.514 -5.12944 0.984149 0
M  V30 2892 H 291.208 -2.87527 0.83477 0
M  V30 2893 H 288.754 -1.38249 0.402875 0
M  V30 2894 H 290.707 -3.99949 -1.32735 0
M  V30 2895 H 289.431 -2.80556 -1.67199 0
M  V30 2896 H 288.09 -3.65498 0.284047 0
M  V30 2897 H 287.738 -4.61624 -1.99781 0
M  V30 2898 H 287.438 -5.83056 -0.729328 0
M  V30 2899 H 288.962 -5.87584 -1.66066 0
M  V30 2900 H 290.376 -5.70109 0.604048 0
M  V30 2901 H 288.773 -5.83945 1.38304 0
M  V30 2902 H 289.843 -4.49485 1.81911 0
M  V30 2903 N 291.186 -0.45159 -1.50991 0
M  V30 2904 C 292.432 0.110237 -2.025 0
M  V30 2905 C 292.765 1.41109 -1.33424 0
M  V30 2906 O 292.04 1.89135 -0.453659 0
M  V30 2907 C 292.323 0.314271 -3.58726 0
M  V30 2908 C 292.176 -1.00623 -4.38401 0
M  V30 2909 C 293.495 1.07767 -4.26702 0
M  V30 2910 H 290.614 0.0385897 -0.735989 0
M  V30 2911 H 293.256 -0.593374 -1.80497 0
M  V30 2912 H 291.406 0.913601 -3.77605 0
M  V30 2913 H 293.078 -1.64064 -4.31139 0
M  V30 2914 H 291.321 -1.6075 -4.02917 0
M  V30 2915 H 291.992 -0.817341 -5.45915 0
M  V30 2916 H 294.468 0.56986 -4.12179 0
M  V30 2917 H 293.344 1.18921 -5.35863 0
M  V30 2918 H 293.605 2.10939 -3.88532 0
M  V30 2919 N 292.664 1.56529 -0.183458 0
M  V30 2920 C 294.08 1.58664 0.172554 0
M  V30 2921 C 294.28 1.19925 1.61926 0
M  V30 2922 O 293.336 0.916534 2.35278 0
M  V30 2923 C 294.649 3.00463 -0.119262 0
M  V30 2924 C 296.197 3.12945 -0.0584396 0
M  V30 2925 C 296.672 4.56857 -0.323408 0
M  V30 2926 N 298.163 4.62403 -0.271612 0
M  V30 2927 C 298.898 5.71626 -0.450639 0
M  V30 2928 N 298.394 6.89362 -0.689384 0
M  V30 2929 N 300.187 5.60775 -0.385701 0
M  V30 2930 H 292.338 1.79994 -1.12765 0
M  V30 2931 H 294.601 0.834808 -0.449222 0
M  V30 2932 H 294.307 3.33326 -1.12192 0
M  V30 2933 H 294.181 3.72659 0.583544 0
M  V30 2934 H 296.568 2.79902 0.934805 0
M  V30 2935 H 296.649 2.4316 -0.794144 0
M  V30 2936 H 296.293 4.9061 -1.31392 0
M  V30 2937 H 296.223 5.24816 0.43305 0
M  V30 2938 H 298.714 3.77785 -0.0932256 0
M  V30 2939 H 299.027 7.68489 -0.815113 0
M  V30 2940 H 297.372 6.91196 -0.726142 0
M  V30 2941 H 300.563 4.67674 -0.199687 0
M  V30 2942 H 300.736 6.4584 -0.528646 0
M  V30 2943 N 294.142 -0.090211 1.57342 0
M  V30 2944 C 295.37 -0.806224 1.90546 0
M  V30 2945 C 295.785 -1.72041 0.777644 0
M  V30 2946 O 295.142 -1.80778 -0.250103 0
M  V30 2947 C 295.193 -1.61546 3.23396 0
M  V30 2948 O 294.914 -0.738043 4.31839 0
M  V30 2949 C 296.415 -2.4341 3.70495 0
M  V30 2950 H 293.635 -0.230256 0.630257 0
M  V30 2951 H 296.179 -0.0659843 2.04394 0
M  V30 2952 H 294.334 -2.30816 3.11131 0
M  V30 2953 H 294.748 -1.29901 5.08159 0
M  V30 2954 H 296.222 -2.95676 4.66133 0
M  V30 2955 H 296.699 -3.22098 2.98579 0
M  V30 2956 H 297.305 -1.79331 3.85643 0
M  V30 2957 N 295.62 -1.53406 -0.361157 0
M  V30 2958 C 296.897 -1.60411 -1.11927 0
M  V30 2959 C 297.277 -0.414385 -2.06993 0
M  V30 2960 O 296.625 0.594976 -2.20618 0
M  V30 2961 C 296.835 -2.95652 -1.85448 0
M  V30 2962 C 298.183 -3.50386 -2.39823 0
M  V30 2963 O 299.207 -2.97711 -1.95568 0
M  V30 2964 O 298.066 -4.42482 -3.20737 0
M  V30 2965 H 295.16 -0.64811 -0.513695 0
M  V30 2966 H 297.706 -1.65749 -0.364065 0
M  V30 2967 H 296.478 -3.73682 -1.16091 0
M  V30 2968 H 296.101 -2.93825 -2.67866 0
M  V30 2969 N 297.098 0.621204 -1.44841 0
M  V30 2970 C 298.046 1.75385 -1.52784 0
M  V30 2971 C 299.04 1.64639 -0.398779 0
M  V30 2972 O 300.246 1.70598 -0.574137 0
M  V30 2973 H 296.621 0.579193 -0.479625 0
M  V30 2974 H 298.592 1.6581 -2.48092 0
M  V30 2975 C 297.341 3.13742 -1.4987 0
M  V30 2976 H 296.664 3.22663 -2.36069 0
M  V30 2977 H 298.104 3.92861 -1.59487 0
M  V30 2978 C 296.563 3.36175 -0.220973 0
M  V30 2979 O 297.093 3.95469 0.704782 0
M  V30 2980 N 295.299 2.90348 -0.120963 0
M  V30 2981 H 294.846 2.42278 -0.875162 0
M  V30 2982 H 294.804 3.05732 0.733168 0
M  V30 2983 N 298.576 1.31904 0.862503 0
M  V30 2984 C 299.987 1.19803 1.43193 0
M  V30 2985 C 300.338 -0.192567 1.95253 0
M  V30 2986 O 299.463 -1.09081 1.86896 0
M  V30 2987 C 300.058 2.16883 2.60283 0
M  V30 2988 C 298.617 2.08692 3.13248 0
M  V30 2989 C 297.764 2.05691 1.85975 0
M  V30 2990 H 300.715 1.43846 0.670365 0
M  V30 2991 H 300.736 1.76278 3.37204 0
M  V30 2992 H 300.248 3.18083 2.22363 0
M  V30 2993 H 298.349 1.10713 3.55771 0
M  V30 2994 H 298.462 2.9815 3.75025 0
M  V30 2995 H 296.826 1.50814 2.05249 0
M  V30 2996 H 297.609 3.08659 1.50282 0
M  V30 2997 N 300.054 -1.07777 1.14986 0
M  V30 2998 C 301.001 -2.14867 0.842672 0
M  V30 2999 C 301.971 -1.6486 -0.202552 0
M  V30 3000 O 303.156 -1.90668 -0.0710568 0
M  V30 3001 C 300.296 -3.43486 0.333363 0
M  V30 3002 C 299.409 -4.07306 1.43965 0
M  V30 3003 C 298.544 -5.23744 0.886914 0
M  V30 3004 C 297.583 -5.79517 1.97043 0
M  V30 3005 N 296.72 -6.87291 1.4344 0
M  V30 3006 H 301.56 -2.40485 1.75986 0
M  V30 3007 H 299.097 -1.1801 0.878179 0
M  V30 3008 H 301.055 -4.17195 0.0198163 0
M  V30 3009 H 299.685 -3.18133 -0.546916 0
M  V30 3010 H 298.737 -3.31293 1.86946 0
M  V30 3011 H 300.049 -4.44771 2.25788 0
M  V30 3012 H 299.203 -6.04419 0.525651 0
M  V30 3013 H 297.942 -4.87685 0.0377957 0
M  V30 3014 H 296.947 -4.97491 2.34057 0
M  V30 3015 H 298.172 -6.17632 2.82325 0
M  V30 3016 H 296.118 -6.5318 0.607567 0
M  V30 3017 H 296.035 -7.23617 2.18895 0
M  V30 3018 H 297.303 -7.71682 1.10124 0
M  V30 3019 N 301.532 -0.945985 -1.26051 0
M  V30 3020 C 302.757 -0.612525 -1.98149 0
M  V30 3021 C 303.182 0.806623 -1.69927 0
M  V30 3022 O 302.54 1.54411 -0.950108 0
M  V30 3023 C 302.588 -0.866981 -3.50023 0
M  V30 3024 O 301.692 0.0585333 -4.12358 0
M  V30 3025 H 301.033 -0.23379 -0.621481 0
M  V30 3026 H 303.563 -1.27023 -1.60395 0
M  V30 3027 H 303.573 -0.789792 -4.00283 0
M  V30 3028 H 302.248 -1.90135 -3.69894 0
M  V30 3029 H 300.825 -0.0701241 -3.72834 0
M  V30 3030 N 303.011 1.40521 -0.713556 0
M  V30 3031 C 304.257 2.01714 -0.261382 0
M  V30 3032 C 304.612 1.55562 1.13217 0
M  V30 3033 O 303.905 0.764893 1.7567 0
M  V30 3034 C 304.099 3.56317 -0.278 0
M  V30 3035 C 303.928 4.17476 -1.67163 0
M  V30 3036 C 302.698 4.50998 -2.2788 0
M  V30 3037 C 304.896 4.42472 -2.6215 0
M  V30 3038 N 302.878 4.9754 -3.5962 0
M  V30 3039 C 304.249 4.90985 -3.78594 0
M  V30 3040 C 306.304 4.24508 -2.60188 0
M  V30 3041 C 305.007 5.2342 -4.9338 0
M  V30 3042 C 307.033 4.58043 -3.741 0
M  V30 3043 C 306.395 5.06743 -4.89276 0
M  V30 3044 H 302.494 0.769104 -0.141434 0
M  V30 3045 H 305.078 1.70785 -0.934915 0
M  V30 3046 H 303.249 3.8668 0.36509 0
M  V30 3047 H 304.981 4.0425 0.190695 0
M  V30 3048 H 301.736 4.38062 -1.79997 0
M  V30 3049 H 302.16 5.25196 -4.27198 0
M  V30 3050 H 306.802 3.86078 -1.72348 0
M  V30 3051 H 304.52 5.60765 -5.81866 0
M  V30 3052 H 308.106 4.45785 -3.73854 0
M  V30 3053 H 306.986 5.32204 -5.75959 0
M  V30 3054 N 304.489 0.459591 1.5075 0
M  V30 3055 C 305.719 -0.0972338 2.06371 0
M  V30 3056 C 306.127 -1.35074 1.32483 0
M  V30 3057 O 305.47 -1.79637 0.384226 0
M  V30 3058 C 305.532 -0.462759 3.56509 0
M  V30 3059 C 305.196 0.687084 4.51805 0
M  V30 3060 C 306.193 1.56578 4.95761 0
M  V30 3061 C 303.878 0.874144 4.94635 0
M  V30 3062 C 305.872 2.61604 5.81242 0
M  V30 3063 C 303.559 1.92765 5.79901 0
M  V30 3064 C 304.557 2.79697 6.23104 0
M  V30 3065 O 304.245 3.83235 7.06673 0
M  V30 3066 H 303.977 -0.00140687 0.675999 0
M  V30 3067 H 306.531 0.644011 1.95043 0
M  V30 3068 H 304.761 -1.25703 3.65699 0
M  V30 3069 H 306.45 -0.953323 3.94546 0
M  V30 3070 H 307.216 1.4329 4.6335 0
M  V30 3071 H 303.095 0.207006 4.60535 0
M  V30 3072 H 306.639 3.29489 6.14884 0
M  V30 3073 H 302.536 2.06064 6.11725 0
M  V30 3074 H 303.304 3.80084 7.24899 0
M  V30 3075 N 305.967 -1.56429 0.191757 0
M  V30 3076 C 306.877 -2.22541 -0.742481 0
M  V30 3077 C 307.893 -1.22342 -1.23727 0
M  V30 3078 O 309.069 -1.55069 -1.28513 0
M  V30 3079 C 306.134 -2.8692 -1.94623 0
M  V30 3080 C 305.195 -4.02378 -1.49633 0
M  V30 3081 C 304.428 -4.63678 -2.6427 0
M  V30 3082 O 304.651 -4.23895 -3.81666 0
M  V30 3083 O 303.585 -5.53202 -2.37174 0
M  V30 3084 H 307.411 -3.02977 -0.209462 0
M  V30 3085 H 304.996 -1.49353 -0.0373832 0
M  V30 3086 H 306.878 -3.27663 -2.64982 0
M  V30 3087 H 305.553 -2.09466 -2.46791 0
M  V30 3088 H 304.46 -3.66265 -0.761636 0
M  V30 3089 H 305.793 -4.81487 -1.02134 0
M  V30 3090 N 307.445 0.0818655 -1.57387 0
M  V30 3091 C 308.722 0.815343 -1.77796 0
M  V30 3092 C 309.102 1.96289 -0.77679 0
M  V30 3093 O 308.45 2.27691 0.192106 0
M  V30 3094 C 308.66 1.29765 -3.23978 0
M  V30 3095 C 310.008 1.7351 -3.8753 0
M  V30 3096 O 311.032 1.39356 -3.27808 0
M  V30 3097 O 309.891 2.36708 -4.92576 0
M  V30 3098 H 306.985 0.389914 -0.729312 0
M  V30 3099 H 309.531 0.0627213 -1.69584 0
M  V30 3100 H 308.303 0.47608 -3.88393 0
M  V30 3101 H 307.926 2.11189 -3.36875 0
M  V30 3102 N 308.923 1.53595 0.353017 0
M  V30 3103 C 310.169 1.70638 1.09593 0
M  V30 3104 C 310.502 0.463286 1.88593 0
M  V30 3105 O 309.777 -0.539597 1.86865 0
M  V30 3106 C 310.06 2.96406 2.04489 0
M  V30 3107 C 309.913 4.30901 1.29014 0
M  V30 3108 C 311.232 3.17812 3.0444 0
M  V30 3109 H 308.351 0.620913 0.397034 0
M  V30 3110 H 310.993 1.86254 0.375446 0
M  V30 3111 H 309.143 2.83223 2.65927 0
M  V30 3112 H 310.815 4.55917 0.702638 0
M  V30 3113 H 309.058 4.29741 0.592071 0
M  V30 3114 H 309.729 5.1506 1.98537 0
M  V30 3115 H 312.205 3.30263 2.53112 0
M  V30 3116 H 311.081 4.07223 3.6805 0
M  V30 3117 H 311.342 2.33669 3.75301 0
M  V30 3118 N 310.401 -0.613514 1.45168 0
M  V30 3119 C 311.311 -1.75296 1.55912 0
M  V30 3120 C 312.327 -1.68244 0.443856 0
M  V30 3121 O 313.503 -1.88706 0.70371 0
M  V30 3122 C 310.568 -3.1174 1.5172 0
M  V30 3123 C 309.629 -3.30291 2.74238 0
M  V30 3124 C 308.862 -4.60226 2.70236 0
M  V30 3125 O 309.085 -5.42168 1.77229 0
M  V30 3126 O 308.019 -4.81361 3.61352 0
M  V30 3127 H 311.845 -1.69183 2.52212 0
M  V30 3128 H 309.43 -0.776886 1.27612 0
M  V30 3129 H 311.312 -3.93044 1.51968 0
M  V30 3130 H 309.987 -3.18357 0.585697 0
M  V30 3131 H 308.894 -2.48598 2.79553 0
M  V30 3132 H 310.227 -3.28547 3.66494 0
M  V30 3133 N 311.879 -1.3236 -0.855495 0
M  V30 3134 C 313.127 -1.22629 -1.60644 0
M  V30 3135 C 313.448 0.212136 -1.93843 0
M  V30 3136 O 312.718 1.13666 -1.59552 0
M  V30 3137 H 311.298 -0.450882 -0.595579 0
M  V30 3138 H 313.96 -1.65871 -1.02337 0
M  V30 3139 H 313.056 -1.80832 -2.54374 0
M  V30 3140 N 313.357 1.07166 -1.15556 0
M  V30 3141 C 314.597 1.81391 -0.94216 0
M  V30 3142 C 314.961 1.84788 0.521272 0
M  V30 3143 O 316.162 2.54904 0.85307 0
M  V30 3144 C 314.433 3.22431 -1.54185 0
M  V30 3145 S 315.992 4.13379 -1.47183 0
M  V30 3146 H 312.81 0.624963 -0.339031 0
M  V30 3147 H 315.412 1.28725 -1.4714 0
M  V30 3148 H 314.116 3.17548 -2.59984 0
M  V30 3149 H 313.647 3.80172 -1.01156 0
M  V30 3150 H 315.662 4.94007 -0.466004 0
M  V30 3151 N 314.835 0.952656 1.25548 0
M  V30 3152 C 316.083 0.605176 1.92826 0
M  V30 3153 C 316.404 -0.860261 1.74999 0
M  V30 3154 O 315.674 -1.6125 1.11244 0
M  V30 3155 H 314.254 0.220832 0.713612 0
M  V30 3156 H 316.916 1.21047 1.52754 0
M  V30 3157 H 316.012 0.832798 3.00784 0
M  V30 3158 N 316.313 -1.40141 0.720998 0
M  V30 3159 C 317.562 -2.0002 0.259804 0
M  V30 3160 C 317.875 -1.57839 -1.15526 0
M  V30 3161 O 319.081 -2.10455 -1.71525 0
M  V30 3162 C 317.537 -3.57516 0.413566 0
M  V30 3163 C 317.145 -4.08667 1.83562 0
M  V30 3164 C 318.889 -4.24498 0.0134387 0
M  V30 3165 C 316.796 -5.58686 1.93968 0
M  V30 3166 H 315.726 -0.748195 0.0933806 0
M  V30 3167 H 318.377 -1.60313 0.892866 0
M  V30 3168 H 316.759 -3.9495 -0.288169 0
M  V30 3169 H 317.933 -3.82598 2.56817 0
M  V30 3170 H 316.248 -3.543 2.1877 0
M  V30 3171 H 318.845 -5.34654 0.0703954 0
M  V30 3172 H 319.188 -4.03375 -1.02927 0
M  V30 3173 H 319.721 -3.92188 0.665815 0
M  V30 3174 H 316.46 -5.8467 2.96379 0
M  V30 3175 H 315.98 -5.86602 1.25131 0
M  V30 3176 H 317.659 -6.23875 1.71431 0
M  V30 3177 N 317.792 -0.46758 -1.50504 0
M  V30 3178 C 318.724 0.364655 -2.26281 0
M  V30 3179 C 319.737 0.960151 -1.31472 0
M  V30 3180 O 320.926 0.849153 -1.57008 0
M  V30 3181 C 318.026 1.52509 -3.02645 0
M  V30 3182 C 317.199 1.04302 -4.24782 0
M  V30 3183 C 316.258 2.07709 -4.8347 0
M  V30 3184 O 315.284 1.65913 -5.44483 0
M  V30 3185 N 316.486 3.40485 -4.70159 0
M  V30 3186 H 319.251 -0.28495 -2.98342 0
M  V30 3187 H 316.812 -0.298163 -1.59131 0
M  V30 3188 H 318.804 2.21371 -3.38787 0
M  V30 3189 H 317.374 2.07945 -2.33404 0
M  V30 3190 H 316.594 0.180393 -3.93787 0
M  V30 3191 H 317.882 0.698798 -5.03978 0
M  V30 3192 H 317.28 3.77155 -4.21629 0
M  V30 3193 H 315.837 4.05156 -5.1058 0
M  V30 3194 N 319.27 1.56325 -0.20005 0
M  V30 3195 C 320.51 1.99619 0.439519 0
M  V30 3196 C 320.874 1.08423 1.58456 0
M  V30 3197 O 322.075 1.40973 2.28867 0
M  V30 3198 C 320.346 3.46314 0.883258 0
M  V30 3199 S 321.905 4.11634 1.51997 0
M  V30 3200 H 318.723 0.697007 0.140363 0
M  V30 3201 H 321.325 1.93118 -0.304282 0
M  V30 3202 H 320.029 4.10381 0.0398967 0
M  V30 3203 H 319.56 3.56643 1.6604 0
M  V30 3204 H 321.575 4.09049 2.8088 0
M  V30 3205 N 320.748 -0.0735177 1.57428 0
M  V30 3206 C 321.68 -1.11423 2.00294 0
M  V30 3207 C 322.693 -1.35084 0.908637 0
M  V30 3208 O 323.882 -1.33355 1.18654 0
M  V30 3209 C 320.982 -2.46548 2.32523 0
M  V30 3210 C 320.155 -2.42867 3.63778 0
M  V30 3211 C 319.214 -3.60087 3.83697 0
M  V30 3212 O 318.24 -3.41595 4.55304 0
M  V30 3213 N 319.442 -4.80372 3.25919 0
M  V30 3214 H 322.207 -0.749206 2.90184 0
M  V30 3215 H 319.768 -0.262195 1.59763 0
M  V30 3216 H 321.76 -3.23607 2.43024 0
M  V30 3217 H 320.33 -2.75059 1.48531 0
M  V30 3218 H 319.55 -1.51206 3.64047 0
M  V30 3219 H 320.838 -2.37506 4.49965 0
M  V30 3220 H 320.236 -4.983 2.67795 0
M  V30 3221 H 318.793 -5.54948 3.41871 0
M  V30 3222 N 322.226 -1.5378 -0.344866 0
M  V30 3223 C 323.174 -1.82373 -1.4437 0
M  V30 3224 C 324.168 -0.694128 -1.54526 0
M  V30 3225 O 325.374 -0.877442 -1.57165 0
M  V30 3226 H 321.749 -0.577765 -0.481344 0
M  V30 3227 H 323.72 -2.74306 -1.17468 0
M  V30 3228 C 322.469 -2.04898 -2.80913 0
M  V30 3229 H 321.792 -2.9127 -2.73865 0
M  V30 3230 H 323.232 -2.28871 -3.56923 0
M  V30 3231 C 321.691 -0.834116 -3.26411 0
M  V30 3232 O 322.221 -0.0328885 -4.01687 0
M  V30 3233 N 320.427 -0.65171 -2.83198 0
M  V30 3234 H 319.974 -1.30489 -2.22104 0
M  V30 3235 H 319.932 0.159686 -3.13994 0
M  V30 3236 N 323.704 0.605807 -1.45491 0
M  V30 3237 C 325.115 1.18777 -1.44045 0
M  V30 3238 C 325.466 1.95471 -0.169001 0
M  V30 3239 O 324.591 2.0374 0.729324 0
M  V30 3240 C 325.186 2.16064 -2.60963 0
M  V30 3241 C 323.745 2.69633 -2.62631 0
M  V30 3242 C 322.892 1.45072 -2.36325 0
M  V30 3243 H 325.843 0.395017 -1.53705 0
M  V30 3244 H 325.864 2.9913 -2.35163 0
M  V30 3245 H 325.376 1.60217 -3.53486 0
M  V30 3246 H 323.477 3.29414 -1.74119 0
M  V30 3247 H 323.59 3.13944 -3.61906 0
M  V30 3248 H 321.954 1.74089 -1.85917 0
M  V30 3249 H 322.737 0.910899 -3.30995 0
M  V30 3250 N 325.182 1.32811 0.848464 0
M  V30 3251 C 326.112 1.24882 1.97299 0
M  V30 3252 C 327.093 0.131357 1.69592 0
M  V30 3253 O 328.278 0.319553 1.91553 0
M  V30 3254 C 325.408 0.97746 3.33261 0
M  V30 3255 C 324.362 2.05682 3.75338 0
M  V30 3256 C 323.688 1.63777 5.09 0
M  V30 3257 C 324.988 3.47254 3.90144 0
M  V30 3258 H 326.682 2.18966 2.04191 0
M  V30 3259 H 324.228 1.05413 0.981029 0
M  V30 3260 H 326.181 0.908513 4.1149 0
M  V30 3261 H 324.905 0.000980011 3.266 0
M  V30 3262 H 323.564 2.11603 2.99366 0
M  V30 3263 H 323.212 0.648569 4.98801 0
M  V30 3264 H 322.912 2.36 5.38124 0
M  V30 3265 H 324.436 1.5833 5.89715 0
M  V30 3266 H 325.85 3.43888 4.58709 0
M  V30 3267 H 324.247 4.1788 4.30693 0
M  V30 3268 H 325.317 3.86462 2.92874 0
M  V30 3269 N 326.66 -1.06551 1.16123 0
M  V30 3270 C 327.907 -1.79302 0.941126 0
M  V30 3271 C 328.235 -1.87105 -0.531235 0
M  V30 3272 O 327.49 -1.35692 -1.41018 0
M  V30 3273 C 327.789 -3.23911 1.51052 0
M  V30 3274 C 327.455 -3.36193 3.00475 0
M  V30 3275 C 326.117 -3.39252 3.41265 0
M  V30 3276 C 328.469 -3.38326 3.96465 0
M  V30 3277 C 325.797 -3.42057 4.76669 0
M  V30 3278 C 328.149 -3.4267 5.31752 0
M  V30 3279 C 326.813 -3.4401 5.72026 0
M  V30 3280 H 326.083 -0.656111 0.344382 0
M  V30 3281 H 328.73 -1.25325 1.44796 0
M  V30 3282 H 327.035 -3.80723 0.925063 0
M  V30 3283 H 328.732 -3.78793 1.31593 0
M  V30 3284 H 325.322 -3.34516 2.6795 0
M  V30 3285 H 329.506 -3.35176 3.6602 0
M  V30 3286 H 324.762 -3.41398 5.07206 0
M  V30 3287 H 328.936 -3.43268 6.05921 0
M  V30 3288 H 326.563 -3.45937 6.76928 0
M  V30 3289 N 328.138 -0.959301 -1.25041 0
M  V30 3290 C 329.366 -0.633949 -1.96948 0
M  V30 3291 C 329.781 0.794916 -1.7125 0
M  V30 3292 O 329.138 1.53231 -0.991287 0
M  V30 3293 C 329.189 -0.888805 -3.50403 0
M  V30 3294 O 328.91 -2.26149 -3.75218 0
M  V30 3295 C 330.411 -0.576482 -4.39536 0
M  V30 3296 H 327.631 -0.237263 -0.627652 0
M  V30 3297 H 330.175 -1.28495 -1.59089 0
M  V30 3298 H 328.33 -0.284145 -3.86357 0
M  V30 3299 H 328.744 -2.33514 -4.6965 0
M  V30 3300 H 330.218 -0.805314 -5.46094 0
M  V30 3301 H 330.695 0.489075 -4.36468 0
M  V30 3302 H 331.301 -1.16067 -4.09156 0
M  V30 3303 N 329.616 1.39756 -0.72842 0
M  V30 3304 C 330.526 2.34444 -0.0855374 0
M  V30 3305 C 331.542 1.57976 0.729356 0
M  V30 3306 O 332.718 1.90301 0.659346 0
M  V30 3307 C 329.783 3.36965 0.815798 0
M  V30 3308 C 328.844 4.29299 -0.0105996 0
M  V30 3309 C 328.077 5.26923 0.84781 0
M  V30 3310 O 328.3 5.30859 2.08673 0
M  V30 3311 O 327.234 6.01249 0.279969 0
M  V30 3312 H 331.06 2.91065 -0.866892 0
M  V30 3313 H 328.645 1.4117 -0.48902 0
M  V30 3314 H 330.527 3.99804 1.33171 0
M  V30 3315 H 329.202 2.82739 1.57608 0
M  V30 3316 H 328.109 3.69703 -0.571877 0
M  V30 3317 H 329.442 4.86712 -0.73295 0
M  V30 3318 N 331.094 0.475555 1.50254 0
M  V30 3319 C 332.057 -0.305016 2.27161 0
M  V30 3320 C 333.057 -0.916519 1.32123 0
M  V30 3321 O 334.247 -0.785003 1.5551 0
M  V30 3322 C 331.379 -1.43496 3.09227 0
M  V30 3323 H 332.572 0.369511 2.97615 0
M  V30 3324 H 330.125 0.229747 1.54602 0
M  V30 3325 H 330.86 -2.14441 2.43281 0
M  V30 3326 H 330.645 -1.00223 3.79075 0
M  V30 3327 H 332.135 -1.98548 3.67381 0
M  V30 3328 N 332.573 -1.56217 0.208337 0
M  V30 3329 C 333.483 -2.23316 -0.718836 0
M  V30 3330 C 334.499 -1.23648 -1.22422 0
M  V30 3331 O 335.675 -1.56423 -1.26861 0
M  V30 3332 C 332.74 -2.88968 -1.91568 0
M  V30 3333 C 331.801 -4.03943 -1.45357 0
M  V30 3334 C 331.034 -4.66455 -2.59337 0
M  V30 3335 O 331.257 -4.27919 -3.77149 0
M  V30 3336 O 330.191 -5.55686 -2.31293 0
M  V30 3337 H 334.017 -3.03182 -0.177315 0
M  V30 3338 H 331.602 -1.49384 -0.0215402 0
M  V30 3339 H 333.484 -3.30455 -2.61491 0
M  V30 3340 H 332.159 -2.12071 -2.44556 0
M  V30 3341 H 331.066 -3.67052 -0.722746 0
M  V30 3342 H 332.399 -4.82543 -0.970219 0
M  V30 3343 N 334.051 0.0651679 -1.57465 0
M  V30 3344 C 335.001 1.0838 -2.00594 0
M  V30 3345 C 335.985 1.34106 -0.889071 0
M  V30 3346 O 337.177 1.34295 -1.15299 0
M  V30 3347 C 334.306 2.39565 -2.45894 0
M  V30 3348 C 333.392 2.17085 -3.64328 0
M  V30 3349 N 333.783 1.64553 -4.78285 0
M  V30 3350 C 332.081 2.4753 -3.71006 0
M  V30 3351 C 332.782 1.57042 -5.60101 0
M  V30 3352 N 331.758 2.03328 -5.04141 0
M  V30 3353 H 335.56 0.671062 -2.86136 0
M  V30 3354 H 333.074 0.27213 -1.60104 0
M  V30 3355 H 335.071 3.13308 -2.75034 0
M  V30 3356 H 333.731 2.81549 -1.61741 0
M  V30 3357 H 334.742 1.33323 -5.00445 0
M  V30 3358 H 331.419 2.92835 -2.9758 0
M  V30 3359 H 332.809 1.17223 -6.61595 0
M  V30 3360 N 335.529 1.53961 0.336706 0
M  V30 3361 C 336.461 1.78751 1.4346 0
M  V30 3362 C 337.474 0.669019 1.48418 0
M  V30 3363 O 338.663 0.945884 1.51378 0
M  V30 3364 C 335.763 1.87844 2.82078 0
M  V30 3365 C 334.936 3.17854 3.00479 0
M  V30 3366 C 333.995 3.17816 4.19379 0
M  V30 3367 O 333.021 3.91511 4.13168 0
M  V30 3368 N 334.223 2.40669 5.2826 0
M  V30 3369 H 336.988 2.73493 1.22563 0
M  V30 3370 H 334.549 1.53096 0.526625 0
M  V30 3371 H 336.541 1.85261 3.59806 0
M  V30 3372 H 335.111 1.00257 2.96086 0
M  V30 3373 H 334.331 3.33504 2.10163 0
M  V30 3374 H 335.619 4.03718 3.0966 0
M  V30 3375 H 335.017 1.8036 5.36178 0
M  V30 3376 H 333.574 2.43877 6.04456 0
M  V30 3377 N 337.007 -0.598083 1.45811 0
M  V30 3378 C 338.284 -1.35777 1.40797 0
M  V30 3379 C 338.664 -2.10935 0.083462 0
M  V30 3380 O 338.012 -2.08505 -0.934763 0
M  V30 3381 C 338.222 -2.29666 2.62783 0
M  V30 3382 C 339.57 -2.91977 3.08277 0
M  V30 3383 O 340.594 -2.39984 2.63223 0
M  V30 3384 O 339.453 -3.86376 3.86491 0
M  V30 3385 H 336.547 -0.609291 0.55919 0
M  V30 3386 H 339.093 -0.620379 1.57954 0
M  V30 3387 H 337.865 -1.73454 3.50756 0
M  V30 3388 H 337.488 -3.1077 2.48008 0
M  V30 3389 N 338.485 -1.33259 -0.841409 0
M  V30 3390 C 339.418 -1.1764 -1.95541 0
M  V30 3391 C 340.396 -0.072501 -1.62438 0
M  V30 3392 O 341.58 -0.23427 -1.87039 0
M  V30 3393 C 338.707 -0.803794 -3.29024 0
M  V30 3394 C 337.753 -1.91482 -3.81099 0
M  V30 3395 S 338.586 -3.52538 -4.03085 0
M  V30 3396 C 339.742 -3.17279 -5.39523 0
M  V30 3397 H 339.975 -2.11941 -2.08491 0
M  V30 3398 H 337.508 -1.18072 -0.9949 0
M  V30 3399 H 339.466 -0.595592 -4.06156 0
M  V30 3400 H 338.127 0.120574 -3.13868 0
M  V30 3401 H 337.32 -1.60742 -4.7768 0
M  V30 3402 H 336.922 -2.07956 -3.10854 0
M  V30 3403 H 339.214 -2.67946 -6.22263 0
M  V30 3404 H 340.157 -4.1293 -5.75234 0
M  V30 3405 H 340.565 -2.53943 -5.04156 0
M  V30 3406 N 339.963 1.05934 -1.16686 0
M  V30 3407 C 340.913 2.11764 -0.844978 0
M  V30 3408 C 341.897 1.59922 0.177178 0
M  V30 3409 O 343.089 1.76983 -0.0241768 0
M  V30 3410 C 340.218 3.41493 -0.351812 0
M  V30 3411 C 339.304 4.00152 -1.40496 0
M  V30 3412 N 339.695 4.32874 -2.61636 0
M  V30 3413 C 337.993 4.278 -1.26106 0
M  V30 3414 C 338.694 4.79552 -3.29249 0
M  V30 3415 N 337.67 4.79211 -2.56628 0
M  V30 3416 H 341.472 2.34916 -1.76612 0
M  V30 3417 H 338.986 1.23511 -1.05446 0
M  V30 3418 H 340.983 4.16773 -0.102796 0
M  V30 3419 H 339.643 3.19778 0.56322 0
M  V30 3420 H 340.654 4.23109 -2.98663 0
M  V30 3421 H 337.331 4.15511 -0.407081 0
M  V30 3422 H 338.721 5.14045 -4.32675 0
M  V30 3423 N 341.441 0.965919 1.2453 0
M  V30 3424 C 342.666 0.643971 1.97149 0
M  V30 3425 C 343.091 -0.779487 1.71189 0
M  V30 3426 O 342.449 -1.5288 0.974553 0
M  V30 3427 C 342.497 0.922557 3.48599 0
M  V30 3428 O 341.601 0.00707672 4.12399 0
M  V30 3429 H 340.942 0.243647 0.617683 0
M  V30 3430 H 343.472 1.29558 1.58353 0
M  V30 3431 H 343.482 0.853373 3.98976 0
M  V30 3432 H 342.157 1.95996 3.66822 0
M  V30 3433 H 340.734 0.12943 3.72675 0
M  V30 3434 N 342.919 -1.39368 0.735821 0
M  V30 3435 C 344.149 -2.04498 0.293967 0
M  V30 3436 C 344.557 -1.55593 -1.07645 0
M  V30 3437 O 343.9 -0.716324 -1.69158 0
M  V30 3438 C 343.962 -3.58836 0.218342 0
M  V30 3439 C 343.626 -4.30721 1.52736 0
M  V30 3440 C 344.623 -4.57305 2.47322 0
M  V30 3441 C 342.308 -4.69251 1.79189 0
M  V30 3442 C 344.302 -5.21429 3.66593 0
M  V30 3443 C 341.989 -5.33104 2.98737 0
M  V30 3444 C 342.987 -5.59125 3.9226 0
M  V30 3445 O 342.675 -6.21653 5.09708 0
M  V30 3446 H 342.407 -0.664118 0.126189 0
M  V30 3447 H 344.961 -1.79385 1.00051 0
M  V30 3448 H 343.191 -3.8285 -0.544314 0
M  V30 3449 H 344.88 -4.05447 -0.191626 0
M  V30 3450 H 345.646 -4.27983 2.28156 0
M  V30 3451 H 341.525 -4.48354 1.07239 0
M  V30 3452 H 345.069 -5.41656 4.39607 0
M  V30 3453 H 340.966 -5.61846 3.17803 0
M  V30 3454 H 341.734 -6.40146 5.10054 0
M  V30 3455 N 344.397 -0.483516 -1.5 0
M  V30 3456 C 345.646 0.0689102 -2.01582 0
M  V30 3457 C 345.959 1.39655 -1.36952 0
M  V30 3458 O 347.165 2.03465 -1.79762 0
M  V30 3459 C 345.621 0.173302 -3.59483 0
M  V30 3460 C 345.229 -1.14665 -4.33077 0
M  V30 3461 C 346.973 0.677024 -4.19066 0
M  V30 3462 C 344.88 -1.00537 -5.82792 0
M  V30 3463 H 343.81 0.0295277 -0.753422 0
M  V30 3464 H 346.461 -0.620295 -1.72698 0
M  V30 3465 H 344.843 0.926569 -3.85007 0
M  V30 3466 H 346.017 -1.91184 -4.19268 0
M  V30 3467 H 344.332 -1.58244 -3.85159 0
M  V30 3468 H 346.929 0.799952 -5.28682 0
M  V30 3469 H 347.272 1.67151 -3.81269 0
M  V30 3470 H 347.805 -0.0192083 -3.97795 0
M  V30 3471 H 344.544 -1.9736 -6.25083 0
M  V30 3472 H 344.064 -0.280776 -5.99142 0
M  V30 3473 H 345.743 -0.677 -6.43448 0
M  V30 3474 N 345.875 1.56104 -0.216619 0
M  V30 3475 C 346.838 2.18819 0.681962 0
M  V30 3476 C 347.838 1.14866 1.12528 0
M  V30 3477 O 349.028 1.40128 1.03488 0
M  V30 3478 C 346.16 2.80756 1.93362 0
M  V30 3479 H 347.353 2.99595 0.135254 0
M  V30 3480 H 344.906 1.56265 0.0330003 0
M  V30 3481 H 345.641 2.03837 2.52232 0
M  V30 3482 H 345.426 3.56876 1.62426 0
M  V30 3483 H 346.916 3.28844 2.57393 0
M  V30 3484 N 347.353 -0.0568162 1.57498 0
M  V30 3485 C 348.316 -1.05038 2.03715 0
M  V30 3486 C 349.316 -1.30709 0.936577 0
M  V30 3487 O 350.506 -1.26178 1.20103 0
M  V30 3488 C 347.638 -2.39034 2.43055 0
M  V30 3489 H 348.831 -0.651715 2.92733 0
M  V30 3490 H 346.384 -0.302947 1.53336 0
M  V30 3491 H 347.119 -2.83703 1.57108 0
M  V30 3492 H 346.904 -2.21739 3.2338 0
M  V30 3493 H 348.394 -3.10421 2.79336 0
M  V30 3494 N 348.832 -1.54138 -0.328536 0
M  V30 3495 C 350.079 -1.72105 -1.06706 0
M  V30 3496 C 350.407 -0.492111 -1.88171 0
M  V30 3497 O 349.662 0.526153 -1.88494 0
M  V30 3498 C 349.961 -2.9457 -2.02393 0
M  V30 3499 C 349.627 -4.29544 -1.37122 0
M  V30 3500 C 348.289 -4.6624 -1.19052 0
M  V30 3501 C 350.641 -5.1333 -0.902331 0
M  V30 3502 C 347.969 -5.84325 -0.527331 0
M  V30 3503 C 350.321 -6.32094 -0.252988 0
M  V30 3504 C 348.985 -6.67473 -0.0600901 0
M  V30 3505 H 348.255 -0.629775 -0.390466 0
M  V30 3506 H 350.902 -1.88372 -0.34473 0
M  V30 3507 H 349.207 -2.72969 -2.81061 0
M  V30 3508 H 350.904 -3.05665 -2.59557 0
M  V30 3509 H 347.494 -4.0067 -1.52188 0
M  V30 3510 H 351.678 -4.855 -1.02974 0
M  V30 3511 H 346.934 -6.103 -0.366634 0
M  V30 3512 H 351.108 -6.96299 0.118366 0
M  V30 3513 H 348.735 -7.58832 0.455828 0
M  V30 3514 N 350.31 0.590341 -1.46126 0
M  V30 3515 C 351.558 1.34616 -1.50742 0
M  V30 3516 C 351.879 1.94363 -0.157486 0
M  V30 3517 O 351.149 1.78136 0.815136 0
M  V30 3518 H 349.729 0.499789 -0.555175 0
M  V30 3519 H 352.391 0.691953 -1.82203 0
M  V30 3520 H 351.487 2.15678 -2.25587 0
M  V30 3521 N 351.788 1.33704 0.83433 0
M  V30 3522 C 352.751 1.24244 1.92603 0
M  V30 3523 C 353.751 0.160383 1.59998 0
M  V30 3524 O 354.941 0.412228 1.69252 0
M  V30 3525 C 352.073 0.91555 3.28376 0
M  V30 3526 H 353.266 2.21287 2.02416 0
M  V30 3527 H 350.819 1.17827 1.02696 0
M  V30 3528 H 351.554 -0.0521886 3.24258 0
M  V30 3529 H 351.339 1.69811 3.53422 0
M  V30 3530 H 352.829 0.874231 4.08347 0
M  V30 3531 N 353.266 -1.05314 1.17247 0
M  V30 3532 C 354.512 -1.78557 0.961513 0
M  V30 3533 C 354.845 -1.87419 -0.508697 0
M  V30 3534 O 354.12 -1.37307 -1.37757 0
M  V30 3535 C 354.403 -3.22514 1.60176 0
M  V30 3536 C 354.256 -3.21673 3.14399 0
M  V30 3537 C 355.575 -4.20318 1.30463 0
M  V30 3538 H 352.694 -0.6482 0.350723 0
M  V30 3539 H 355.336 -1.23102 1.44727 0
M  V30 3540 H 353.486 -3.69867 1.18871 0
M  V30 3541 H 355.158 -2.82405 3.64753 0
M  V30 3542 H 353.401 -2.60048 3.47214 0
M  V30 3543 H 354.072 -4.23271 3.54324 0
M  V30 3544 H 356.548 -3.81454 1.66229 0
M  V30 3545 H 355.424 -5.19289 1.77848 0
M  V30 3546 H 355.685 -4.41526 0.22521 0
M  V30 3547 N 354.744 -0.972509 -1.24016 0
M  V30 3548 C 355.972 -0.654803 -1.96265 0
M  V30 3549 C 356.387 0.776708 -1.72083 0
M  V30 3550 O 355.744 1.52171 -1.00748 0
M  V30 3551 C 355.795 -0.92592 -3.49441 0
M  V30 3552 O 355.516 -2.30116 -3.72798 0
M  V30 3553 C 357.017 -0.623068 -4.38899 0
M  V30 3554 H 354.237 -0.243907 -0.6251 0
M  V30 3555 H 356.781 -1.30175 -1.57717 0
M  V30 3556 H 354.936 -0.325108 -3.86033 0
M  V30 3557 H 355.35 -2.38483 -4.67147 0
M  V30 3558 H 356.824 -0.863189 -5.45209 0
M  V30 3559 H 357.301 0.442754 -4.36963 0
M  V30 3560 H 357.907 -1.204 -4.07902 0
M  V30 3561 N 356.222 1.38976 -0.743202 0
M  V30 3562 C 357.47 1.99948 -0.29417 0
M  V30 3563 C 357.791 1.59279 1.12495 0
M  V30 3564 O 357.061 0.844808 1.76748 0
M  V30 3565 H 355.641 0.739473 -0.105774 0
M  V30 3566 H 358.303 1.699 -0.954986 0
M  V30 3567 H 357.399 3.10142 -0.349056 0
M  V30 3568 N 357.7 0.491464 1.49741 0
M  V30 3569 C 358.63 -0.28154 2.31796 0
M  V30 3570 C 359.611 -0.971473 1.3963 0
M  V30 3571 O 360.796 -0.964719 1.68543 0
M  V30 3572 C 357.926 -1.35203 3.19902 0
M  V30 3573 C 356.88 -0.782529 4.20786 0
M  V30 3574 C 356.206 -1.95283 4.97764 0
M  V30 3575 C 357.506 0.21999 5.21837 0
M  V30 3576 H 359.2 0.403355 2.96671 0
M  V30 3577 H 356.746 0.195425 1.42668 0
M  V30 3578 H 358.699 -1.90045 3.76113 0
M  V30 3579 H 357.423 -2.06598 2.52953 0
M  V30 3580 H 356.082 -0.255928 3.65706 0
M  V30 3581 H 355.73 -2.65423 4.2727 0
M  V30 3582 H 355.43 -1.57789 5.66018 0
M  V30 3583 H 356.954 -2.50577 5.56816 0
M  V30 3584 H 358.368 -0.23996 5.72798 0
M  V30 3585 H 356.765 0.51026 5.97927 0
M  V30 3586 H 357.835 1.13911 4.7133 0
M  V30 3587 N 359.178 -1.55987 0.224894 0
M  V30 3588 C 360.418 -2.00293 -0.407706 0
M  V30 3589 C 360.782 -1.1093 -1.56711 0
M  V30 3590 O 361.983 -1.44597 -2.26595 0
M  V30 3591 C 360.254 -3.47675 -0.82805 0
M  V30 3592 S 361.813 -4.14 -1.45429 0
M  V30 3593 H 358.631 -0.699152 -0.129256 0
M  V30 3594 H 361.233 -1.92609 0.334967 0
M  V30 3595 H 359.937 -4.10392 0.0253964 0
M  V30 3596 H 359.468 -3.59239 -1.60345 0
M  V30 3597 H 361.483 -4.13465 -2.74337 0
M  V30 3598 N 360.656 0.0484629 -1.57525 0
M  V30 3599 C 361.884 0.755421 -1.92616 0
M  V30 3600 C 362.299 1.69919 -0.822984 0
M  V30 3601 O 361.656 1.81378 0.202085 0
M  V30 3602 C 361.707 1.52915 -3.27566 0
M  V30 3603 O 361.428 0.62329 -4.33644 0
M  V30 3604 C 362.929 2.33502 -3.76818 0
M  V30 3605 H 360.149 0.213465 -0.63614 0
M  V30 3606 H 362.693 0.0117698 -2.04497 0
M  V30 3607 H 360.848 2.22486 -3.17142 0
M  V30 3608 H 361.262 1.16383 -5.11425 0
M  V30 3609 H 362.736 2.83214 -4.73808 0
M  V30 3610 H 363.213 3.14068 -3.07014 0
M  V30 3611 H 363.819 1.69043 -3.90262 0
M  V30 3612 N 362.134 1.5431 0.320358 0
M  V30 3613 C 363.064 1.86912 1.3995 0
M  V30 3614 C 364.045 0.726211 1.53819 0
M  V30 3615 O 365.23 0.980233 1.67646 0
M  V30 3616 C 362.36 2.09932 2.7667 0
M  V30 3617 C 361.314 3.25776 2.77586 0
M  V30 3618 C 360.64 3.34173 4.17412 0
M  V30 3619 C 361.94 4.6335 2.41048 0
M  V30 3620 H 363.634 2.77292 1.12914 0
M  V30 3621 H 361.18 1.33421 0.541738 0
M  V30 3622 H 363.133 2.31324 3.52232 0
M  V30 3623 H 361.857 1.16304 3.0519 0
M  V30 3624 H 360.516 3.04276 2.04479 0
M  V30 3625 H 360.164 2.38098 4.43078 0
M  V30 3626 H 359.864 4.12033 4.18931 0
M  V30 3627 H 361.388 3.57803 4.94782 0
M  V30 3628 H 362.802 4.84602 3.06324 0
M  V30 3629 H 361.199 5.43782 2.53813 0
M  V30 3630 H 362.269 4.65381 1.36193 0
M  V30 3631 N 363.613 -0.582584 1.46437 0
M  V30 3632 C 364.86 -1.34079 1.51753 0
M  V30 3633 C 365.188 -1.93762 0.169299 0
M  V30 3634 O 364.443 -1.76989 -0.835062 0
M  V30 3635 C 364.742 -2.48964 2.56421 0
M  V30 3636 C 364.408 -2.07273 4.00436 0
M  V30 3637 C 363.07 -1.95618 4.39644 0
M  V30 3638 C 365.422 -1.75111 4.90903 0
M  V30 3639 C 362.75 -1.5006 5.67185 0
M  V30 3640 C 365.102 -1.31032 6.18881 0
M  V30 3641 C 363.766 -1.17954 6.56996 0
M  V30 3642 H 363.036 -0.49063 0.555304 0
M  V30 3643 H 365.683 -0.656007 1.79913 0
M  V30 3644 H 363.988 -3.22889 2.21923 0
M  V30 3645 H 365.685 -3.07178 2.57765 0
M  V30 3646 H 362.275 -2.17279 3.69443 0
M  V30 3647 H 366.459 -1.83001 4.61329 0
M  V30 3648 H 361.715 -1.38577 5.95488 0
M  V30 3649 H 365.889 -1.052 6.88408 0
M  V30 3650 H 363.516 -0.824279 7.55718 0
M  V30 3651 N 365.091 -1.34144 -0.827227 0
M  V30 3652 C 366.319 -1.29325 -1.61501 0
M  V30 3653 C 366.734 0.13354 -1.88327 0
M  V30 3654 O 366.091 1.0793 -1.47164 0
M  V30 3655 C 366.142 -2.07746 -2.95844 0
M  V30 3656 O 365.863 -3.4486 -2.70191 0
M  V30 3657 C 367.364 -2.10273 -3.90256 0
M  V30 3658 H 364.584 -0.445069 -0.50215 0
M  V30 3659 H 367.128 -1.76693 -1.02955 0
M  V30 3660 H 365.283 -1.6403 -3.5096 0
M  V30 3661 H 365.697 -3.85345 -3.55822 0
M  V30 3662 H 367.171 -2.69575 -4.81698 0
M  V30 3663 H 367.648 -1.096 -4.25305 0
M  V30 3664 H 368.254 -2.54059 -3.41078 0
M  V30 3665 N 366.569 1.04691 -1.17803 0
M  V30 3666 C 367.499 2.14494 -0.92275 0
M  V30 3667 C 368.48 1.69546 0.137179 0
M  V30 3668 O 369.665 1.94195 -0.0141108 0
M  V30 3669 C 366.795 3.44491 -0.440803 0
M  V30 3670 C 365.749 4.03031 -1.4405 0
M  V30 3671 C 365.075 5.28432 -0.81631 0
M  V30 3672 C 366.375 4.39932 -2.81527 0
M  V30 3673 H 368.069 2.36107 -1.84103 0
M  V30 3674 H 365.615 1.1347 -0.886599 0
M  V30 3675 H 367.568 4.2066 -0.249602 0
M  V30 3676 H 366.292 3.22546 0.513025 0
M  V30 3677 H 364.951 3.28937 -1.61853 0
M  V30 3678 H 364.599 5.02792 0.144511 0
M  V30 3679 H 364.299 5.68559 -1.48371 0
M  V30 3680 H 365.823 6.07284 -0.635496 0
M  V30 3681 H 367.237 5.07113 -2.67412 0
M  V30 3682 H 365.634 4.9109 -3.44892 0
M  V30 3683 H 366.704 3.50045 -3.35554 0
M  V30 3684 N 368.047 0.979072 1.23499 0
M  V30 3685 C 369.01 0.523244 2.23147 0
M  V30 3686 C 370.01 -0.386406 1.56088 0
M  V30 3687 O 371.2 -0.180283 1.73265 0
M  V30 3688 C 368.332 -0.240739 3.40049 0
M  V30 3689 H 369.525 1.40432 2.64989 0
M  V30 3690 H 367.078 0.764824 1.36309 0
M  V30 3691 H 367.813 -1.13841 3.03662 0
M  V30 3692 H 367.598 0.412207 3.89927 0
M  V30 3693 H 369.088 -0.548297 4.13985 0
M  V30 3694 N 369.525 -1.3858 0.750561 0
M  V30 3695 C 370.753 -2.04471 0.316098 0
M  V30 3696 C 371.168 -1.56606 -1.05452 0
M  V30 3697 O 370.525 -0.737784 -1.66922 0
M  V30 3698 C 370.576 -3.60025 0.326275 0
M  V30 3699 O 370.297 -4.06133 1.6428 0
M  V30 3700 C 371.798 -4.43131 -0.122429 0
M  V30 3701 H 369.018 -0.65717 0.135528 0
M  V30 3702 H 371.562 -1.77329 1.01857 0
M  V30 3703 H 369.717 -3.86014 -0.327431 0
M  V30 3704 H 370.131 -5.00547 1.56693 0
M  V30 3705 H 371.605 -5.51963 -0.0641473 0
M  V30 3706 H 372.082 -4.23333 -1.16988 0
M  V30 3707 H 372.688 -4.22323 0.50229 0
M  V30 3708 N 371.003 -0.499398 -1.49478 0
M  V30 3709 C 372.25 0.0456899 -2.02448 0
M  V30 3710 C 372.578 1.37142 -1.37921 0
M  V30 3711 O 371.833 1.89111 -0.503544 0
M  V30 3712 C 372.132 0.248424 -3.56536 0
M  V30 3713 C 371.798 -0.999107 -4.39692 0
M  V30 3714 C 370.46 -1.34108 -4.62135 0
M  V30 3715 C 372.812 -1.82842 -4.88076 0
M  V30 3716 C 370.14 -2.51191 -5.30208 0
M  V30 3717 C 372.492 -2.99076 -5.57437 0
M  V30 3718 C 371.156 -3.33655 -5.78127 0
M  V30 3719 H 370.426 0.0167191 -0.740811 0
M  V30 3720 H 373.073 -0.65923 -1.79795 0
M  V30 3721 H 371.378 1.03586 -3.77859 0
M  V30 3722 H 373.075 0.684605 -3.95113 0
M  V30 3723 H 369.665 -0.722729 -4.22463 0
M  V30 3724 H 373.849 -1.57737 -4.70566 0
M  V30 3725 H 369.105 -2.78221 -5.44429 0
M  V30 3726 H 373.279 -3.63664 -5.93904 0
M  V30 3727 H 370.906 -4.24483 -6.30649 0
M  V30 3728 N 372.481 1.55866 -0.233164 0
M  V30 3729 C 373.727 1.98897 0.395959 0
M  V30 3730 C 374.06 1.12091 1.58585 0
M  V30 3731 O 373.335 0.181182 1.93654 0
M  V30 3732 C 373.618 3.50658 0.819224 0
M  V30 3733 C 373.471 4.48233 -0.375109 0
M  V30 3734 C 374.79 4.07135 1.67121 0
M  V30 3735 H 371.909 0.723102 0.142451 0
M  V30 3736 H 374.551 1.87082 -0.331725 0
M  V30 3737 H 372.701 3.60857 1.43925 0
M  V30 3738 H 374.373 4.50031 -1.01341 0
M  V30 3739 H 372.616 4.21624 -1.02058 0
M  V30 3740 H 373.287 5.51988 -0.0358328 0
M  V30 3741 H 375.763 3.99952 1.14795 0
M  V30 3742 H 374.639 5.13615 1.93625 0
M  V30 3743 H 374.9 3.54736 2.63846 0
M  V30 3744 N 373.959 -0.0401083 1.57549 0
M  V30 3745 C 374.922 -1.02871 2.04817 0
M  V30 3746 C 375.922 -1.29708 0.950388 0
M  V30 3747 O 377.112 -1.24897 1.21435 0
M  V30 3748 C 374.244 -2.36443 2.45576 0
M  V30 3749 H 375.437 -0.620631 2.93408 0
M  V30 3750 H 372.99 -0.286667 1.53649 0
M  V30 3751 H 373.725 -2.82021 1.60108 0
M  V30 3752 H 373.51 -2.18296 3.25713 0
M  V30 3753 H 375 -3.07441 2.82612 0
M  V30 3754 N 375.437 -1.54477 -0.31217 0
M  V30 3755 C 376.714 -1.63891 -1.06767 0
M  V30 3756 C 377.094 -0.480028 -2.0557 0
M  V30 3757 O 376.442 0.524487 -2.22399 0
M  V30 3758 C 376.652 -3.01402 -1.75948 0
M  V30 3759 C 378 -3.57838 -2.28554 0
M  V30 3760 O 379.024 -3.03782 -1.85998 0
M  V30 3761 O 377.883 -4.52462 -3.06497 0
M  V30 3762 H 374.977 -0.664125 -0.492816 0
M  V30 3763 H 377.523 -1.66823 -0.311149 0
M  V30 3764 H 376.295 -3.77187 -1.04144 0
M  V30 3765 H 375.918 -3.02199 -2.58383 0
M  V30 3766 N 376.915 0.57481 -1.46744 0
M  V30 3767 C 378.161 1.33251 -1.53674 0
M  V30 3768 C 378.516 1.91468 -0.189125 0
M  V30 3769 O 377.809 1.73954 0.803151 0
M  V30 3770 C 378.003 2.476 -2.57738 0
M  V30 3771 C 377.832 2.00586 -4.02487 0
M  V30 3772 C 376.602 1.85237 -4.70123 0
M  V30 3773 C 378.8 1.56078 -4.90045 0
M  V30 3774 N 376.782 1.32377 -5.99458 0
M  V30 3775 C 378.153 1.14863 -6.09267 0
M  V30 3776 C 380.208 1.43968 -4.76632 0
M  V30 3777 C 378.911 0.627435 -7.16558 0
M  V30 3778 C 380.937 0.932512 -5.84002 0
M  V30 3779 C 380.299 0.53019 -7.02402 0
M  V30 3780 H 376.398 0.480284 -0.617131 0
M  V30 3781 H 378.982 0.653592 -1.83402 0
M  V30 3782 H 377.153 3.13045 -2.29907 0
M  V30 3783 H 378.885 3.14567 -2.54616 0
M  V30 3784 H 375.64 2.07423 -4.25761 0
M  V30 3785 H 376.064 1.08085 -6.68316 0
M  V30 3786 H 380.706 1.73689 -3.85476 0
M  V30 3787 H 378.424 0.317821 -8.07475 0
M  V30 3788 H 382.01 0.842611 -5.75666 0
M  V30 3789 H 380.89 0.14381 -7.84068 0
M  V30 3790 N 378.394 1.34581 0.820102 0
M  V30 3791 C 379.81 1.14325 1.11364 0
M  V30 3792 C 380.01 -0.0533648 2.01429 0
M  V30 3793 O 379.066 -0.728044 2.41776 0
M  V30 3794 C 380.379 2.43983 1.75764 0
M  V30 3795 C 381.927 2.50065 1.88246 0
M  V30 3796 C 382.402 3.79732 2.56061 0
M  V30 3797 N 383.893 3.80908 2.63558 0
M  V30 3798 C 384.628 4.77961 3.16766 0
M  V30 3799 N 384.124 5.85397 3.70517 0
M  V30 3800 N 385.917 4.65413 3.15194 0
M  V30 3801 H 378.068 2.11246 0.221096 0
M  V30 3802 H 380.331 0.934289 0.160649 0
M  V30 3803 H 380.037 3.31651 1.1705 0
M  V30 3804 H 379.911 2.57531 2.75604 0
M  V30 3805 H 382.298 1.62834 2.46108 0
M  V30 3806 H 382.379 2.40442 0.873006 0
M  V30 3807 H 382.023 4.67354 1.98853 0
M  V30 3808 H 381.953 3.86639 3.57516 0
M  V30 3809 H 384.444 3.03274 2.25463 0
M  V30 3810 H 384.757 6.55463 4.09376 0
M  V30 3811 H 383.102 5.89107 3.68752 0
M  V30 3812 H 386.293 3.80627 2.72471 0
M  V30 3813 H 386.466 5.41216 3.56356 0
M  V30 3814 N 379.872 -1.04064 1.18357 0
M  V30 3815 C 380.82 -2.14187 0.907007 0
M  V30 3816 C 381.814 -1.68879 -0.132725 0
M  V30 3817 O 383.02 -1.79993 0.0154248 0
M  V30 3818 H 379.395 -0.699585 0.275835 0
M  V30 3819 H 381.366 -2.34711 1.84264 0
M  V30 3820 C 380.115 -3.44785 0.449254 0
M  V30 3821 H 379.438 -3.80058 1.24081 0
M  V30 3822 H 380.878 -4.22974 0.294737 0
M  V30 3823 C 379.337 -3.26391 -0.834909 0
M  V30 3824 O 379.867 -3.53973 -1.89911 0
M  V30 3825 N 378.073 -2.79726 -0.787523 0
M  V30 3826 H 377.62 -2.5748 0.0787347 0
M  V30 3827 H 377.578 -2.67798 -1.64716 0
M  V30 3828 N 381.35 -0.985608 -1.22978 0
M  V30 3829 C 382.575 -0.675254 -1.961 0
M  V30 3830 C 383 0.752154 -1.72407 0
M  V30 3831 O 382.358 1.5131 -0.998751 0
M  V30 3832 C 382.406 -0.977899 -3.47087 0
M  V30 3833 O 381.51 -0.072685 -4.12336 0
M  V30 3834 H 380.851 -0.253443 -0.613728 0
M  V30 3835 H 383.381 -1.32061 -1.56272 0
M  V30 3836 H 383.391 -0.916739 -3.97567 0
M  V30 3837 H 382.066 -2.01807 -3.63657 0
M  V30 3838 H 380.643 -0.188703 -3.72422 0
M  V30 3839 N 382.828 1.3818 -0.7579 0
M  V30 3840 C 383.776 2.32277 -0.122482 0
M  V30 3841 C 384.77 1.54238 0.700505 0
M  V30 3842 O 385.976 1.69737 0.599119 0
M  V30 3843 H 382.351 0.751712 -0.0208143 0
M  V30 3844 H 384.322 2.83469 -0.932099 0
M  V30 3845 C 383.071 3.39447 0.753076 0
M  V30 3846 H 382.394 3.99591 0.129184 0
M  V30 3847 H 383.834 4.07684 1.16489 0
M  V30 3848 C 382.293 2.78375 1.8976 0
M  V30 3849 O 382.823 2.68025 2.99208 0
M  V30 3850 N 381.029 2.36121 1.69397 0
M  V30 3851 H 380.576 2.4474 0.803762 0
M  V30 3852 H 380.534 1.95602 2.46145 0
M  V30 3853 N 384.306 0.507319 1.49211 0
M  V30 3854 C 385.722 0.163682 1.58758 0
M  V30 3855 C 385.922 -1.33208 1.51188 0
M  V30 3856 O 384.978 -2.10855 1.38911 0
M  V30 3857 C 386.291 0.746095 2.91297 0
M  V30 3858 C 387.839 0.712773 3.04776 0
M  V30 3859 C 388.314 1.27336 4.39943 0
M  V30 3860 N 389.805 1.23433 4.46451 0
M  V30 3861 C 390.54 1.63821 5.495 0
M  V30 3862 N 390.036 2.11832 6.5962 0
M  V30 3863 N 391.829 1.55198 5.4025 0
M  V30 3864 H 383.98 1.47972 1.52375 0
M  V30 3865 H 386.243 0.614147 0.722168 0
M  V30 3866 H 385.949 1.79534 3.02424 0
M  V30 3867 H 385.823 0.210137 3.76614 0
M  V30 3868 H 388.21 -0.327656 2.93275 0
M  V30 3869 H 388.291 1.28595 2.21127 0
M  V30 3870 H 387.935 2.3126 4.52196 0
M  V30 3871 H 387.865 0.676066 5.22242 0
M  V30 3872 H 390.356 0.882627 3.67448 0
M  V30 3873 H 390.669 2.40703 7.34358 0
M  V30 3874 H 389.014 2.1581 6.60644 0
M  V30 3875 H 392.205 1.17505 4.53112 0
M  V30 3876 H 392.378 1.86997 6.20432 0
M  V30 3877 N 385.784 -1.5574 0.241426 0
M  V30 3878 C 387.014 -2.02913 -0.38857 0
M  V30 3879 C 387.422 -1.12014 -1.52478 0
M  V30 3880 O 386.765 -0.125903 -1.83268 0
M  V30 3881 C 386.827 -3.4636 -0.963075 0
M  V30 3882 C 386.491 -4.56982 0.0401916 0
M  V30 3883 C 387.488 -5.12941 0.847766 0
M  V30 3884 C 385.173 -5.0203 0.164699 0
M  V30 3885 C 387.167 -6.12437 1.76636 0
M  V30 3886 C 384.854 -6.01358 1.0868 0
M  V30 3887 C 385.852 -6.5644 1.88616 0
M  V30 3888 O 385.54 -7.53831 2.79273 0
M  V30 3889 H 385.272 -0.668983 -0.0971452 0
M  V30 3890 H 387.826 -2.02198 0.361248 0
M  V30 3891 H 386.056 -3.44206 -1.76235 0
M  V30 3892 H 387.745 -3.77065 -1.50257 0
M  V30 3893 H 388.511 -4.78974 0.762133 0
M  V30 3894 H 384.39 -4.58824 -0.447411 0
M  V30 3895 H 387.934 -6.55355 2.39071 0
M  V30 3896 H 383.831 -6.34746 1.17338 0
M  V30 3897 H 384.599 -7.71428 2.73572 0
M  V30 3898 N 387.262 0.0317525 -1.57568 0
M  V30 3899 C 388.673 0.578692 -1.77505 0
M  V30 3900 C 389.024 1.75749 -0.872164 0
M  V30 3901 O 388.149 2.16298 -0.0663106 0
M  V30 3902 C 388.744 1.05658 -3.21904 0
M  V30 3903 C 387.303 1.54906 -3.43047 0
M  V30 3904 C 386.45 0.485939 -2.73009 0
M  V30 3905 H 389.401 -0.194475 -1.57504 0
M  V30 3906 H 389.422 1.92404 -3.28269 0
M  V30 3907 H 388.934 0.198422 -3.87592 0
M  V30 3908 H 387.035 2.42915 -2.82529 0
M  V30 3909 H 387.148 1.59841 -4.5165 0
M  V30 3910 H 385.512 0.940354 -2.36705 0
M  V30 3911 H 386.295 -0.362709 -3.41379 0
M  V30 3912 N 388.74 1.54641 0.303973 0
M  V30 3913 C 389.703 1.84646 1.35789 0
M  V30 3914 C 390.703 0.7192 1.4382 0
M  V30 3915 O 391.893 0.987491 1.43507 0
M  V30 3916 C 389.025 2.02407 2.74307 0
M  V30 3917 H 390.218 2.78829 1.10429 0
M  V30 3918 H 387.771 1.46658 0.540487 0
M  V30 3919 H 388.506 1.10502 3.04893 0
M  V30 3920 H 388.291 2.84453 2.69868 0
M  V30 3921 H 389.781 2.27002 3.50514 0
M  V30 3922 N 390.218 -0.567019 1.47046 0
M  V30 3923 C 391.464 -1.32658 1.53394 0
M  V30 3924 C 391.797 -1.93254 0.19148 0
M  V30 3925 O 391.072 -1.77338 -0.798844 0
M  V30 3926 C 391.355 -2.44412 2.64452 0
M  V30 3927 C 391.208 -1.88749 4.08282 0
M  V30 3928 C 392.527 -3.46387 2.71485 0
M  V30 3929 H 389.646 -0.48098 0.558415 0
M  V30 3930 H 392.288 -0.635481 1.79058 0
M  V30 3931 H 390.438 -3.03363 2.427 0
M  V30 3932 H 392.11 -1.34134 4.41368 0
M  V30 3933 H 390.353 -1.19481 4.17021 0
M  V30 3934 H 391.024 -2.69491 4.81745 0
M  V30 3935 H 393.5 -2.9734 2.91081 0
M  V30 3936 H 392.376 -4.2202 3.50985 0
M  V30 3937 H 392.637 -4.04616 1.78153 0
M  V30 3938 N 391.696 -1.35014 -0.812953 0
M  V30 3939 C 392.945 -1.27269 -1.56479 0
M  V30 3940 C 393.258 0.152771 -1.95002 0
M  V30 3941 O 394.464 0.352451 -2.69203 0
M  V30 3942 C 392.92 -2.23159 -2.82362 0
M  V30 3943 C 392.528 -3.71016 -2.511 0
M  V30 3944 C 394.272 -2.24342 -3.60376 0
M  V30 3945 C 392.179 -4.58746 -3.73237 0
M  V30 3946 H 391.109 -0.472829 -0.587324 0
M  V30 3947 H 393.76 -1.6024 -0.894171 0
M  V30 3948 H 392.142 -1.83151 -3.51101 0
M  V30 3949 H 393.316 -4.1962 -1.90409 0
M  V30 3950 H 391.631 -3.72378 -1.86343 0
M  V30 3951 H 394.228 -2.87107 -4.51081 0
M  V30 3952 H 394.571 -1.24542 -3.97234 0
M  V30 3953 H 395.104 -2.62846 -2.98591 0
M  V30 3954 H 391.843 -5.59521 -3.41492 0
M  V30 3955 H 391.363 -4.14871 -4.33176 0
M  V30 3956 H 393.042 -4.73852 -4.40537 0
M  V30 3957 N 393.175 1.03435 -1.18907 0
M  V30 3958 C 394.105 2.13503 -0.945448 0
M  V30 3959 C 395.086 1.69682 0.119189 0
M  V30 3960 O 396.271 1.94169 -0.034707 0
M  V30 3961 C 393.401 3.44004 -0.477316 0
M  V30 3962 C 392.355 4.0148 -1.48316 0
M  V30 3963 C 391.681 5.27537 -0.872311 0
M  V30 3964 C 392.981 4.36921 -2.86177 0
M  V30 3965 H 394.675 2.34141 -1.86597 0
M  V30 3966 H 392.221 1.12523 -0.898584 0
M  V30 3967 H 394.174 4.20372 -0.294204 0
M  V30 3968 H 392.898 3.23072 0.478786 0
M  V30 3969 H 391.557 3.27201 -1.65332 0
M  V30 3970 H 391.205 5.02917 0.0911752 0
M  V30 3971 H 390.905 5.66954 -1.54393 0
M  V30 3972 H 392.429 6.06576 -0.699871 0
M  V30 3973 H 393.843 5.04248 -2.72776 0
M  V30 3974 H 392.24 4.87405 -3.50081 0
M  V30 3975 H 393.31 3.46466 -3.39248 0
M  V30 3976 N 394.653 0.992116 1.22453 0
M  V30 3977 C 395.9 0.667534 1.91181 0
M  V30 3978 C 396.228 -0.800317 1.77271 0
M  V30 3979 O 395.483 -1.59421 1.13505 0
M  V30 3980 C 395.782 1.01832 3.42586 0
M  V30 3981 C 395.448 2.47831 3.76684 0
M  V30 3982 C 394.11 2.87729 3.85701 0
M  V30 3983 C 396.462 3.42466 3.92895 0
M  V30 3984 C 393.79 4.21252 4.08367 0
M  V30 3985 C 396.142 4.75648 4.17064 0
M  V30 3986 C 394.806 5.15288 4.24305 0
M  V30 3987 H 394.076 0.244268 0.699581 0
M  V30 3988 H 396.723 1.24816 1.45235 0
M  V30 3989 H 395.028 0.355769 3.90181 0
M  V30 3990 H 396.725 0.745228 3.94014 0
M  V30 3991 H 393.315 2.15905 3.70247 0
M  V30 3992 H 397.499 3.12814 3.85307 0
M  V30 3993 H 392.755 4.51554 4.122 0
M  V30 3994 H 396.929 5.48924 4.2855 0
M  V30 3995 H 394.556 6.18769 4.41621 0
M  V30 3996 N 396.131 -1.37776 0.765217 0
M  V30 3997 C 397.361 -2.03828 0.337277 0
M  V30 3998 C 397.769 -1.57841 -1.04321 0
M  V30 3999 O 397.112 -0.752043 -1.67601 0
M  V30 4000 C 397.174 -3.58292 0.294407 0
M  V30 4001 C 396.838 -4.27384 1.61838 0
M  V30 4002 C 397.835 -4.51956 2.56967 0
M  V30 4003 C 395.52 -4.65345 1.89102 0
M  V30 4004 C 397.514 -5.13536 3.77571 0
M  V30 4005 C 395.201 -5.26647 3.09978 0
M  V30 4006 C 396.199 -5.50679 4.04032 0
M  V30 4007 O 395.887 -6.10702 5.2278 0
M  V30 4008 H 395.619 -0.661292 0.140248 0
M  V30 4009 H 398.173 -1.77222 1.03834 0
M  V30 4010 H 396.403 -3.83918 -0.462983 0
M  V30 4011 H 398.092 -4.05763 -0.105581 0
M  V30 4012 H 398.858 -4.23048 2.37183 0
M  V30 4013 H 394.737 -4.45978 1.16725 0
M  V30 4014 H 398.281 -5.3221 4.50997 0
M  V30 4015 H 394.178 -5.54979 3.29649 0
M  V30 4016 H 394.946 -6.29183 5.23517 0
M  V30 4017 N 397.609 -0.515225 -1.4894 0
M  V30 4018 C 398.855 0.0242508 -2.02785 0
M  V30 4019 C 399.188 1.35323 -1.39289 0
M  V30 4020 O 398.463 1.87041 -0.533469 0
M  V30 4021 C 398.746 0.16184 -3.59736 0
M  V30 4022 C 398.599 -1.19127 -4.33738 0
M  V30 4023 C 399.918 0.895719 -4.30888 0
M  V30 4024 H 397.037 0.00733914 -0.736963 0
M  V30 4025 H 399.679 -0.669395 -1.77818 0
M  V30 4026 H 397.829 0.752624 -3.8114 0
M  V30 4027 H 399.501 -1.82202 -4.23792 0
M  V30 4028 H 397.744 -1.77695 -3.95736 0
M  V30 4029 H 398.415 -1.04815 -5.41957 0
M  V30 4030 H 400.891 0.394528 -4.14225 0
M  V30 4031 H 399.767 0.960859 -5.40425 0
M  V30 4032 H 400.028 1.9427 -3.97129 0
M  V30 4033 N 399.087 1.5561 -0.249682 0
M  V30 4034 C 400.035 2.22894 0.664906 0
M  V30 4035 C 401.029 1.21743 1.17792 0
M  V30 4036 O 402.235 1.39748 1.13449 0
M  V30 4037 H 398.61 0.715022 0.232912 0
M  V30 4038 H 400.581 2.98307 0.0742998 0
M  V30 4039 C 399.33 2.94424 1.84959 0
M  V30 4040 H 398.653 3.72031 1.46399 0
M  V30 4041 H 400.093 3.44862 2.4667 0
M  V30 4042 C 398.552 1.98454 2.72245 0
M  V30 4043 O 399.082 1.51939 3.71857 0
M  V30 4044 N 397.288 1.65496 2.38871 0
M  V30 4045 H 396.835 2.03517 1.57919 0
M  V30 4046 H 396.793 1.0155 2.97548 0
M  V30 4047 N 400.565 -0.0233959 1.57583 0
M  V30 4048 C 401.528 -1.00693 2.05897 0
M  V30 4049 C 402.528 -1.28693 0.964092 0
M  V30 4050 O 403.718 -1.23602 1.22753 0
M  V30 4051 C 400.85 -2.33825 2.4807 0
M  V30 4052 H 402.043 -0.589476 2.9405 0
M  V30 4053 H 399.596 -0.270354 1.53944 0
M  V30 4054 H 400.331 -2.80307 1.6309 0
M  V30 4055 H 400.116 -2.1483 3.2801 0
M  V30 4056 H 401.606 -3.04426 2.85857 0
M  V30 4057 N 402.043 -1.548 -0.295768 0
M  V30 4058 C 403.283 -1.76069 -1.03823 0
M  V30 4059 C 403.647 -0.537992 -1.84309 0
M  V30 4060 O 404.848 -0.628514 -2.61349 0
M  V30 4061 C 403.119 -3.01705 -1.91596 0
M  V30 4062 S 404.678 -3.43998 -2.72416 0
M  V30 4063 H 401.496 -0.618852 -0.350062 0
M  V30 4064 H 404.098 -1.93009 -0.31106 0
M  V30 4065 H 402.802 -3.88812 -1.31351 0
M  V30 4066 H 402.333 -2.87366 -2.68671 0
M  V30 4067 H 404.348 -3.0148 -3.94112 0
M  V30 4068 N 403.521 0.559213 -1.47345 0
M  V30 4069 C 404.768 1.31648 -1.53867 0
M  V30 4070 C 405.096 1.93468 -0.200104 0
M  V30 4071 O 404.351 1.78295 0.806799 0
M  V30 4072 C 404.65 2.44853 -2.6035 0
M  V30 4073 C 404.316 2.00876 -4.03683 0
M  V30 4074 C 402.978 1.88599 -4.42701 0
M  V30 4075 C 405.33 1.67279 -4.93626 0
M  V30 4076 C 402.658 1.41017 -5.69501 0
M  V30 4077 C 405.01 1.21169 -6.20887 0
M  V30 4078 C 403.674 1.07487 -6.58789 0
M  V30 4079 H 402.944 0.481734 -0.56304 0
M  V30 4080 H 405.591 0.627301 -1.80934 0
M  V30 4081 H 403.896 3.19318 -2.27032 0
M  V30 4082 H 405.593 3.03039 -2.62619 0
M  V30 4083 H 402.183 2.11374 -3.72853 0
M  V30 4084 H 406.367 1.75638 -4.64182 0
M  V30 4085 H 401.623 1.29086 -5.97618 0
M  V30 4086 H 405.797 0.942345 -6.89995 0
M  V30 4087 H 403.424 0.703946 -7.56934 0
M  V30 4088 N 404.999 1.35443 0.805782 0
M  V30 4089 C 406.246 1.28761 1.56291 0
M  V30 4090 C 406.574 -0.137747 1.94012 0
M  V30 4091 O 405.829 -1.1032 1.61642 0
M  V30 4092 C 406.128 2.14045 2.86216 0
M  V30 4093 C 405.794 3.62826 2.67709 0
M  V30 4094 C 404.456 4.0338 2.6237 0
M  V30 4095 C 406.808 4.57227 2.50186 0
M  V30 4096 C 404.136 5.36501 2.37451 0
M  V30 4097 C 406.488 5.90547 2.26797 0
M  V30 4098 C 405.152 6.30245 2.1988 0
M  V30 4099 H 404.422 0.471171 0.571908 0
M  V30 4100 H 407.069 1.67347 0.930974 0
M  V30 4101 H 405.374 1.68342 3.53791 0
M  V30 4102 H 407.071 2.0621 3.43917 0
M  V30 4103 H 403.661 3.30644 2.72713 0
M  V30 4104 H 407.845 4.2678 2.53323 0
M  V30 4105 H 403.101 5.66259 2.30567 0
M  V30 4106 H 407.275 6.63274 2.12228 0
M  V30 4107 H 404.902 7.33328 2.00333 0
M  V30 4108 N 406.477 -1.02803 1.19454 0
M  V30 4109 C 407.723 -1.76478 0.999171 0
M  V30 4110 C 408.056 -1.88456 -0.468828 0
M  V30 4111 O 407.331 -1.40198 -1.34814 0
M  V30 4112 C 407.614 -3.19044 1.66981 0
M  V30 4113 C 407.467 -3.14932 3.21151 0
M  V30 4114 C 408.786 -4.17456 1.39349 0
M  V30 4115 H 405.905 -0.640614 0.364393 0
M  V30 4116 H 408.547 -1.20005 1.47305 0
M  V30 4117 H 406.697 -3.67263 1.2669 0
M  V30 4118 H 408.369 -2.74605 3.70661 0
M  V30 4119 H 406.612 -2.52625 3.52652 0
M  V30 4120 H 407.283 -4.1566 3.63223 0
M  V30 4121 H 409.759 -3.77842 1.74283 0
M  V30 4122 H 408.635 -5.154 1.88823 0
M  V30 4123 H 408.896 -4.40949 0.318813 0
M  V30 4124 N 407.956 -0.998596 -1.21925 0
M  V30 4125 C 409.204 -0.676325 -1.90448 0
M  V30 4126 C 409.525 0.794719 -1.78071 0
M  V30 4127 O 408.795 1.5701 -1.17152 0
M  V30 4128 H 407.375 -0.247165 -0.704925 0
M  V30 4129 H 410.037 -1.26633 -1.48156 0
M  V30 4130 H 409.133 -0.943858 -2.97486 0
M  V30 4131 N 409.434 1.37368 -0.772513 0
M  V30 4132 C 410.659 2.0447 -0.347386 0
M  V30 4133 C 411.084 1.57882 1.0225 0
M  V30 4134 O 410.442 0.73941 1.65537 0
M  V30 4135 C 410.49 3.58369 -0.400479 0
M  V30 4136 O 409.594 4.0803 0.598789 0
M  V30 4137 H 408.935 0.646773 -0.15027 0
M  V30 4138 H 411.465 1.75667 -1.04892 0
M  V30 4139 H 411.475 4.07183 -0.258045 0
M  V30 4140 H 410.15 3.91633 -1.39986 0
M  V30 4141 H 408.727 3.70534 0.419411 0
M  V30 4142 N 410.912 0.523116 1.48665 0
M  V30 4143 C 412.161 -0.01544 2.01694 0
M  V30 4144 C 412.474 -1.35975 1.40606 0
M  V30 4145 O 413.68 -1.98627 1.85093 0
M  V30 4146 C 412.136 -0.0779303 3.59816 0
M  V30 4147 C 411.744 1.26107 4.29885 0
M  V30 4148 C 413.488 -0.565678 4.20714 0
M  V30 4149 C 411.395 1.15954 5.79921 0
M  V30 4150 H 410.325 -0.00954163 0.75394 0
M  V30 4151 H 412.976 0.665865 1.70993 0
M  V30 4152 H 411.358 -0.824165 3.87329 0
M  V30 4153 H 412.532 2.02233 4.14051 0
M  V30 4154 H 410.847 1.68401 3.80828 0
M  V30 4155 H 413.444 -0.6595 5.30617 0
M  V30 4156 H 413.787 -1.56984 3.85567 0
M  V30 4157 H 414.32 0.12467 3.97605 0
M  V30 4158 H 411.059 2.13864 6.19631 0
M  V30 4159 H 410.579 0.439529 5.98187 0
M  V30 4160 H 412.258 0.847361 6.41427 0
M  V30 4161 N 412.39 -1.55475 0.257931 0
M  V30 4162 C 413.638 -1.98813 -0.363009 0
M  V30 4163 C 413.959 -1.14757 -1.57657 0
M  V30 4164 O 413.229 -0.232956 -1.9451 0
M  V30 4165 H 411.809 -0.734308 -0.137113 0
M  V30 4166 H 414.471 -1.9156 0.359281 0
M  V30 4167 H 413.567 -3.04941 -0.664634 0
M  V30 4168 N 413.868 0.0150385 -1.57593 0
M  V30 4169 C 415.114 0.69849 -1.91031 0
M  V30 4170 C 415.469 1.72208 -0.85804 0
M  V30 4171 O 414.762 1.91147 0.131614 0
M  V30 4172 C 414.956 1.39686 -3.28972 0
M  V30 4173 C 414.785 0.442428 -4.47518 0
M  V30 4174 C 413.555 0.0583223 -5.05266 0
M  V30 4175 C 415.753 -0.285072 -5.13509 0
M  V30 4176 N 413.735 -0.895893 -6.07328 0
M  V30 4177 C 415.106 -1.09447 -6.10263 0
M  V30 4178 C 417.161 -0.350518 -4.96665 0
M  V30 4179 C 415.864 -1.96333 -6.91987 0
M  V30 4180 C 417.89 -1.20655 -5.78962 0
M  V30 4181 C 417.252 -2.00383 -6.75297 0
M  V30 4182 H 413.351 0.22926 -0.747639 0
M  V30 4183 H 415.935 -0.0417748 -1.94655 0
M  V30 4184 H 414.106 2.1075 -3.2625 0
M  V30 4185 H 415.838 2.03381 -3.49883 0
M  V30 4186 H 412.593 0.423506 -4.71703 0
M  V30 4187 H 413.017 -1.36792 -6.63036 0
M  V30 4188 H 417.659 0.251596 -4.22051 0
M  V30 4189 H 415.377 -2.57618 -7.65936 0
M  V30 4190 H 418.963 -1.2609 -5.67972 0
M  V30 4191 H 417.843 -2.65552 -7.3787 0
M  V30 4192 N 415.346 1.54954 0.287554 0
M  V30 4193 C 416.276 1.89839 1.35954 0
M  V30 4194 C 417.257 0.758675 1.52244 0
M  V30 4195 O 418.442 1.01557 1.65529 0
M  V30 4196 C 415.572 2.15753 2.72154 0
M  V30 4197 C 414.526 3.3159 2.70614 0
M  V30 4198 C 413.852 3.42952 4.10229 0
M  V30 4199 C 415.152 4.68359 2.31165 0
M  V30 4200 H 416.846 2.79625 1.07007 0
M  V30 4201 H 414.392 1.3454 0.513316 0
M  V30 4202 H 416.345 2.38743 3.47246 0
M  V30 4203 H 415.069 1.22752 3.02654 0
M  V30 4204 H 413.728 3.08545 1.97979 0
M  V30 4205 H 413.376 2.47443 4.37928 0
M  V30 4206 H 413.076 4.20826 4.10097 0
M  V30 4207 H 414.6 3.68218 4.87081 0
M  V30 4208 H 416.014 4.9099 2.95976 0
M  V30 4209 H 414.411 5.49044 2.42221 0
M  V30 4210 H 415.481 4.68165 1.26291 0
M  V30 4211 N 416.824 -0.551391 1.4764 0
M  V30 4212 C 417.787 -1.64007 1.60107 0
M  V30 4213 C 418.787 -1.53601 0.47576 0
M  V30 4214 O 419.977 -1.57655 0.740988 0
M  V30 4215 C 417.109 -3.03569 1.55108 0
M  V30 4216 H 418.302 -1.543 2.57161 0
M  V30 4217 H 415.855 -0.771776 1.35917 0
M  V30 4218 H 416.59 -3.18804 0.594519 0
M  V30 4219 H 416.375 -3.12532 2.36783 0
M  V30 4220 H 417.865 -3.82762 1.66982 0
M  V30 4221 N 418.302 -1.35869 -0.798587 0
M  V30 4222 C 419.234 -1.25305 -1.91915 0
M  V30 4223 C 420.247 -0.174548 -1.61862 0
M  V30 4224 O 421.436 -0.428499 -1.73281 0
M  V30 4225 C 418.536 -0.9086 -3.26493 0
M  V30 4226 C 417.709 -2.08711 -3.84394 0
M  V30 4227 C 416.768 -1.71717 -4.97393 0
M  V30 4228 O 415.794 -2.43692 -5.14396 0
M  V30 4229 N 416.996 -0.645473 -5.769 0
M  V30 4230 H 419.761 -2.21849 -2.01502 0
M  V30 4231 H 417.322 -1.29143 -0.976408 0
M  V30 4232 H 419.314 -0.642455 -3.99568 0
M  V30 4233 H 417.884 -0.0325815 -3.12583 0
M  V30 4234 H 417.104 -2.51659 -3.03416 0
M  V30 4235 H 418.392 -2.87468 -4.19809 0
M  V30 4236 H 417.79 -0.047648 -5.6568 0
M  V30 4237 H 416.347 -0.43913 -6.50319 0
M  V30 4238 N 419.78 1.02168 -1.19998 0
M  V30 4239 C 421.027 1.75685 -1.00702 0
M  V30 4240 C 421.355 1.88947 0.461426 0
M  V30 4241 O 420.61 1.40832 1.35885 0
M  V30 4242 C 420.909 3.18081 -1.62969 0
M  V30 4243 C 420.575 3.24809 -3.12746 0
M  V30 4244 C 419.237 3.26352 -3.53621 0
M  V30 4245 C 421.589 3.23379 -4.08749 0
M  V30 4246 C 418.917 3.2413 -4.89036 0
M  V30 4247 C 421.269 3.22698 -5.44104 0
M  V30 4248 C 419.933 3.22542 -5.84399 0
M  V30 4249 H 419.203 0.642877 -0.368496 0
M  V30 4250 H 421.85 1.19865 -1.49348 0
M  V30 4251 H 420.155 3.77027 -1.06573 0
M  V30 4252 H 421.852 3.73648 -1.45561 0
M  V30 4253 H 418.442 3.2434 -2.80181 0
M  V30 4254 H 422.626 3.21361 -3.78207 0
M  V30 4255 H 417.882 3.22338 -5.19527 0
M  V30 4256 H 422.056 3.20543 -6.18244 0
M  V30 4257 H 419.683 3.20575 -6.89301 0
M  V30 4258 N 421.258 1.00505 1.21394 0
M  V30 4259 C 422.191 0.51032 2.22421 0
M  V30 4260 C 423.169 -0.436 1.56645 0
M  V30 4261 O 424.353 -0.358709 1.85055 0
M  V30 4262 C 421.48 -0.258733 3.3771 0
M  V30 4263 C 420.526 0.635395 4.2174 0
M  V30 4264 S 421.359 2.09783 4.92698 0
M  V30 4265 C 422.515 1.33862 6.11418 0
M  V30 4266 H 422.748 1.36637 2.64041 0
M  V30 4267 H 420.281 0.812991 1.31262 0
M  V30 4268 H 422.239 -0.696372 4.0455 0
M  V30 4269 H 420.9 -1.0902 2.94573 0
M  V30 4270 H 420.093 0.0430189 5.03982 0
M  V30 4271 H 419.695 1.01031 3.60095 0
M  V30 4272 H 421.987 0.612541 6.74725 0
M  V30 4273 H 422.93 2.13675 6.75092 0
M  V30 4274 H 423.338 0.846568 5.58116 0
M  V30 4275 N 422.737 -1.36956 0.779787 0
M  V30 4276 C 424.014 -1.93697 0.272156 0
M  V30 4277 C 424.394 -1.71267 -1.23413 0
M  V30 4278 O 423.742 -1.06607 -2.02107 0
M  V30 4279 C 423.952 -3.42812 0.654291 0
M  V30 4280 C 425.3 -4.19921 0.628602 0
M  V30 4281 O 426.324 -3.51209 0.594172 0
M  V30 4282 O 425.183 -5.42465 0.662864 0
M  V30 4283 H 422.277 -0.824447 0.0649286 0
M  V30 4284 H 424.823 -1.46196 0.861682 0
M  V30 4285 H 423.595 -3.52754 1.69353 0
M  V30 4286 H 423.218 -3.97582 0.0381369 0
M  V30 4287 N 424.215 -0.530993 -1.48385 0
M  V30 4288 C 425.463 0.00273189 -2.021 0
M  V30 4289 C 425.784 1.34672 -1.41027 0
M  V30 4290 O 425.054 1.8724 -0.576012 0
M  V30 4291 H 423.634 0.00399774 -0.746989 0
M  V30 4292 H 426.296 -0.695054 -1.82085 0
M  V30 4293 H 425.392 0.11031 -3.11905 0
M  V30 4294 N 425.693 1.55336 -0.266172 0
M  V30 4295 C 426.656 2.20878 0.612001 0
M  V30 4296 C 427.656 1.18388 1.08816 0
M  V30 4297 O 428.846 1.4335 0.989774 0
M  V30 4298 C 425.978 2.86765 1.84332 0
M  V30 4299 H 427.171 2.99873 0.0398718 0
M  V30 4300 H 424.724 1.56291 -0.0167309 0
M  V30 4301 H 425.459 2.11759 2.45619 0
M  V30 4302 H 425.244 3.61862 1.5099 0
M  V30 4303 H 426.734 3.36867 2.46801 0
M  V30 4304 N 427.171 -0.0066808 1.57599 0
M  V30 4305 C 428.587 -0.36267 1.55425 0
M  V30 4306 C 428.787 -1.75209 0.995187 0
M  V30 4307 O 427.843 -2.44616 0.626058 0
M  V30 4308 C 429.156 -0.244017 2.99708 0
M  V30 4309 C 430.704 -0.319451 3.11366 0
M  V30 4310 C 431.179 -0.229998 4.57422 0
M  V30 4311 N 432.67 -0.288105 4.62303 0
M  V30 4312 C 433.405 -0.242127 5.72889 0
M  V30 4313 N 432.901 -0.147133 6.92644 0
M  V30 4314 N 434.694 -0.293502 5.61333 0
M  V30 4315 H 426.845 0.902314 1.92281 0
M  V30 4316 H 429.108 0.34525 0.882896 0
M  V30 4317 H 428.814 0.711678 3.44424 0
M  V30 4318 H 428.688 -1.02877 3.629 0
M  V30 4319 H 431.075 -1.26559 2.66584 0
M  V30 4320 H 431.156 0.495055 2.50964 0
M  V30 4321 H 430.8 0.712566 5.02877 0
M  V30 4322 H 430.73 -1.0629 5.15761 0
M  V30 4323 H 433.221 -0.363126 3.76151 0
M  V30 4324 H 433.534 -0.117763 7.7271 0
M  V30 4325 H 431.879 -0.112857 6.94908 0
M  V30 4326 H 435.07 -0.365864 4.66668 0
M  V30 4327 H 435.243 -0.254204 6.47501 0
M  V30 4328 N 428.649 -1.55105 -0.279332 0
M  V30 4329 C 430.065 -1.46803 -0.626187 0
M  V30 4330 C 430.265 -0.676939 -1.89789 0
M  V30 4331 O 429.321 -0.19326 -2.51759 0
M  V30 4332 C 430.634 -2.90962 -0.759034 0
M  V30 4333 C 432.182 -3.01138 -0.853504 0
M  V30 4334 C 432.657 -4.46539 -1.01818 0
M  V30 4335 N 434.148 -4.50341 -1.08386 0
M  V30 4336 C 434.883 -5.60053 -1.22996 0
M  V30 4337 N 434.379 -6.79645 -1.34366 0
M  V30 4338 N 436.172 -5.47783 -1.26056 0
M  V30 4339 H 428.323 -2.04996 0.555921 0
M  V30 4340 H 430.586 -0.929325 0.187239 0
M  V30 4341 H 430.292 -3.51544 0.104852 0
M  V30 4342 H 430.166 -3.39619 -1.64131 0
M  V30 4343 H 432.553 -2.40658 -1.70786 0
M  V30 4344 H 432.634 -2.55745 0.0532466 0
M  V30 4345 H 432.278 -5.0762 -0.168504 0
M  V30 4346 H 432.208 -4.89583 -1.93948 0
M  V30 4347 H 434.699 -3.64191 -1.00864 0
M  V30 4348 H 435.012 -7.59012 -1.4533 0
M  V30 4349 H 433.357 -6.82469 -1.31382 0
M  V30 4350 H 436.548 -4.53294 -1.168 0
M  V30 4351 H 436.721 -6.33331 -1.37098 0
M  V30 4352 N 430.127 0.543554 -1.4793 0
M  V30 4353 C 431.037 1.67657 -1.64098 0
M  V30 4354 C 432.053 1.65934 -0.523622 0
M  V30 4355 O 433.229 1.85133 -0.792943 0
M  V30 4356 C 430.294 3.04146 -1.66421 0
M  V30 4357 C 429.355 3.16831 -2.89684 0
M  V30 4358 C 428.588 4.46809 -2.91886 0
M  V30 4359 O 428.811 5.33095 -2.02895 0
M  V30 4360 O 427.745 4.63573 -3.83906 0
M  V30 4361 H 431.571 1.56957 -2.59997 0
M  V30 4362 H 429.156 0.715116 -1.31173 0
M  V30 4363 H 431.038 3.85346 -1.70548 0
M  V30 4364 H 429.713 3.152 -0.736923 0
M  V30 4365 H 428.62 2.34977 -2.91095 0
M  V30 4366 H 429.953 3.10687 -3.81752 0
M  V30 4367 N 431.605 1.3629 0.791371 0
M  V30 4368 C 432.854 1.29742 1.54434 0
M  V30 4369 C 433.167 -0.121729 1.95221 0
M  V30 4370 O 434.373 -0.309579 2.69729 0
M  V30 4371 C 432.829 2.27623 2.78776 0
M  V30 4372 C 432.437 3.74963 2.45166 0
M  V30 4373 C 434.181 2.30047 3.56761 0
M  V30 4374 C 432.088 4.64626 3.65891 0
M  V30 4375 H 431.018 0.482113 0.579727 0
M  V30 4376 H 433.669 1.61642 0.868565 0
M  V30 4377 H 432.051 1.88714 3.48142 0
M  V30 4378 H 433.225 4.22596 1.83709 0
M  V30 4379 H 431.54 3.75295 1.80396 0
M  V30 4380 H 434.137 2.94247 4.46456 0
M  V30 4381 H 434.48 1.30846 3.95203 0
M  V30 4382 H 435.013 2.67563 2.94372 0
M  V30 4383 H 431.752 5.64883 3.32547 0
M  V30 4384 H 431.272 4.2171 4.26521 0
M  V30 4385 H 432.951 4.80801 4.32943 0
M  V30 4386 N 433.083 -1.0153 1.20538 0
M  V30 4387 C 434.329 -1.75408 1.01783 0
M  V30 4388 C 434.662 -1.88943 -0.448814 0
M  V30 4389 O 433.937 -1.4162 -1.33319 0
M  V30 4390 C 434.22 -3.17255 1.70356 0
M  V30 4391 C 434.073 -3.11508 3.24473 0
M  V30 4392 C 435.392 -4.15955 1.43769 0
M  V30 4393 H 432.511 -0.636713 0.371167 0
M  V30 4394 H 435.153 -1.18436 1.4857 0
M  V30 4395 H 433.303 -3.65898 1.30578 0
M  V30 4396 H 434.975 -2.70658 3.73553 0
M  V30 4397 H 433.218 -2.4887 3.55311 0
M  V30 4398 H 433.889 -4.11784 3.67611 0
M  V30 4399 H 436.365 -3.75973 1.7828 0
M  V30 4400 H 435.241 -5.13368 1.94279 0
M  V30 4401 H 435.502 -4.40586 0.365564 0
M  V30 4402 N 434.561 -1.01147 -1.20859 0
M  V30 4403 C 435.801 -0.706331 -1.91808 0
M  V30 4404 C 436.165 0.749736 -1.76757 0
M  V30 4405 O 437.366 1.16716 -2.42138 0
M  V30 4406 C 435.637 -1.12371 -3.39275 0
M  V30 4407 S 437.196 -0.939764 -4.28619 0
M  V30 4408 H 434.014 -0.257665 -0.662669 0
M  V30 4409 H 436.616 -1.29766 -1.46223 0
M  V30 4410 H 435.32 -2.17943 -3.47749 0
M  V30 4411 H 434.851 -0.524952 -3.89882 0
M  V30 4412 H 436.866 0.159556 -4.95943 0
M  V30 4413 N 436.039 1.36541 -0.78704 0
M  V30 4414 C 437.455 1.52571 -0.46844 0
M  V30 4415 C 437.655 1.7415 1.01361 0
M  V30 4416 O 436.711 1.77163 1.79915 0
M  V30 4417 C 438.024 2.71299 -1.29682 0
M  V30 4418 C 439.572 2.85169 -1.29027 0
M  V30 4419 C 440.047 4.06898 -2.10233 0
M  V30 4420 N 441.538 4.1404 -2.07666 0
M  V30 4421 C 442.273 5.07301 -2.67271 0
M  V30 4422 N 441.769 6.06021 -3.35724 0
M  V30 4423 N 443.562 4.99898 -2.57018 0
M  V30 4424 H 435.713 1.20788 -1.74711 0
M  V30 4425 H 437.976 0.589364 -0.742532 0
M  V30 4426 H 437.682 2.61868 -2.34773 0
M  V30 4427 H 437.556 3.6539 -0.936479 0
M  V30 4428 H 439.943 2.94062 -0.247284 0
M  V30 4429 H 440.024 1.91992 -1.69035 0
M  V30 4430 H 439.668 3.98766 -3.1456 0
M  V30 4431 H 439.598 4.99218 -1.67597 0
M  V30 4432 H 442.089 3.43357 -1.57843 0
M  V30 4433 H 442.402 6.73741 -3.78541 0
M  V30 4434 H 440.747 6.06253 -3.39826 0
M  V30 4435 H 443.938 4.21724 -2.03142 0
M  V30 4436 H 444.111 5.72392 -3.03761 0
M  V30 4437 N 437.518 0.538854 1.48102 0
M  V30 4438 C 438.481 -0.208395 2.28251 0
M  V30 4439 C 439.481 -0.859656 1.35892 0
M  V30 4440 O 440.671 -0.71834 1.58699 0
M  V30 4441 C 437.803 -1.30252 3.15035 0
M  V30 4442 H 438.996 0.495407 2.9578 0
M  V30 4443 H 436.549 0.295112 1.53489 0
M  V30 4444 H 437.284 -2.0393 2.52157 0
M  V30 4445 H 437.069 -0.840551 3.82985 0
M  V30 4446 H 438.559 -1.82787 3.75471 0
M  V30 4447 N 438.996 -1.55193 0.274407 0
M  V30 4448 C 440.273 -1.91584 -0.394331 0
M  V30 4449 C 440.653 -1.19858 -1.73774 0
M  V30 4450 O 440.001 -0.3252 -2.26174 0
M  V30 4451 C 440.211 -3.4487 -0.535311 0
M  V30 4452 C 441.559 -4.16636 -0.818534 0
M  V30 4453 O 442.583 -3.5076 -0.620146 0
M  V30 4454 O 441.442 -5.33209 -1.19792 0
M  V30 4455 H 438.536 -0.798349 -0.215794 0
M  V30 4456 H 441.082 -1.66646 0.320507 0
M  V30 4457 H 439.854 -3.89145 0.410141 0
M  V30 4458 H 439.477 -3.75759 -1.29964 0
M  V30 4459 N 440.474 -0.00167713 -1.576 0
M  V30 4460 C 441.722 0.681471 -1.90264 0
M  V30 4461 C 442.043 1.7422 -0.875924 0
M  V30 4462 O 441.313 1.95709 0.0864412 0
M  V30 4463 H 439.893 0.254696 -0.702239 0
M  V30 4464 H 442.555 -0.0429996 -1.94853 0
M  V30 4465 H 441.651 1.15166 -2.90075 0
M  V30 4466 N 441.952 1.55251 0.271103 0
M  V30 4467 C 443.18 1.79974 1.02064 0
M  V30 4468 C 443.595 0.574003 1.79863 0
M  V30 4469 O 442.952 -0.456962 1.76686 0
M  V30 4470 C 443.003 3.02603 1.97772 0
M  V30 4471 O 442.724 4.20443 1.23124 0
M  V30 4472 C 444.225 3.39944 2.84522 0
M  V30 4473 H 441.445 0.599489 0.301419 0
M  V30 4474 H 443.989 2.02268 0.301313 0
M  V30 4475 H 442.144 2.8243 2.65165 0
M  V30 4476 H 442.558 4.89783 1.87651 0
M  V30 4477 H 444.032 4.28915 3.47471 0
M  V30 4478 H 444.509 2.59432 3.54389 0
M  V30 4479 H 445.115 3.62383 2.22618 0
M  V30 4480 N 443.43 -0.535701 1.48216 0
M  V30 4481 C 444.363 -1.65726 1.56876 0
M  V30 4482 C 445.341 -1.57094 0.419542 0
M  V30 4483 O 446.525 -1.77648 0.630352 0
M  V30 4484 C 443.652 -3.04096 1.49142 0
M  V30 4485 C 442.698 -3.31105 2.68834 0
M  V30 4486 S 443.531 -3.18001 4.30854 0
M  V30 4487 C 444.687 -4.58828 4.25709 0
M  V30 4488 H 444.92 -1.58129 2.51759 0
M  V30 4489 H 442.453 -0.718218 1.36678 0
M  V30 4490 H 444.411 -3.839 1.45366 0
M  V30 4491 H 443.072 -3.09139 0.556067 0
M  V30 4492 H 442.265 -4.32033 2.59545 0
M  V30 4493 H 441.867 -2.58961 2.69843 0
M  V30 4494 H 444.159 -5.5023 3.95289 0
M  V30 4495 H 445.102 -4.73172 5.26796 0
M  V30 4496 H 445.51 -4.37883 3.56257 0
M  V30 4497 N 444.908 -1.36708 -0.784132 0
M  V30 4498 C 446.324 -1.17237 -1.08294 0
M  V30 4499 C 446.524 -5.93947e-05 -2.015 0
M  V30 4500 O 445.58 0.663686 -2.43622 0
M  V30 4501 C 446.893 -2.48557 -1.69233 0
M  V30 4502 C 448.441 -2.54968 -1.8155 0
M  V30 4503 C 448.916 -3.86388 -2.45904 0
M  V30 4504 N 450.407 -3.87762 -2.53367 0
M  V30 4505 C 451.142 -4.86191 -3.03983 0
M  V30 4506 N 450.638 -5.95015 -3.54866 0
M  V30 4507 N 452.431 -4.73606 -3.02743 0
M  V30 4508 H 444.582 -2.11758 -0.16501 0
M  V30 4509 H 446.845 -0.93822 -0.135822 0
M  V30 4510 H 446.551 -3.34638 -1.08215 0
M  V30 4511 H 446.425 -2.64748 -2.68679 0
M  V30 4512 H 448.812 -1.69302 -2.41704 0
M  V30 4513 H 448.893 -2.42672 -0.80895 0
M  V30 4514 H 448.537 -4.72462 -1.86392 0
M  V30 4515 H 448.467 -3.95982 -3.4714 0
M  V30 4516 H 450.958 -3.09145 -2.17343 0
M  V30 4517 H 451.271 -6.66086 -3.91854 0
M  V30 4518 H 449.616 -5.98676 -3.53003 0
M  V30 4519 H 452.807 -3.87717 -2.62284 0
M  V30 4520 H 452.98 -5.50473 -3.41881 0
M  V30 4521 N 446.386 1.0089 -1.21074 0
M  V30 4522 C 447.316 2.1145 -0.990523 0
M  V30 4523 C 448.297 1.69897 0.0831699 0
M  V30 4524 O 449.482 1.94052 -0.0758853 0
M  V30 4525 C 446.612 3.42914 -0.550177 0
M  V30 4526 C 445.566 3.98244 -1.56799 0
M  V30 4527 C 444.892 5.25568 -0.984013 0
M  V30 4528 C 446.192 4.30752 -2.95381 0
M  V30 4529 H 447.886 2.3013 -1.91521 0
M  V30 4530 H 445.432 1.10592 -0.92225 0
M  V30 4531 H 447.385 4.19653 -0.383305 0
M  V30 4532 H 446.109 3.24014 0.41015 0
M  V30 4533 H 444.768 3.23621 -1.72236 0
M  V30 4534 H 444.416 5.02998 -0.0155216 0
M  V30 4535 H 444.116 5.63551 -1.66384 0
M  V30 4536 H 445.64 6.04955 -0.828378 0
M  V30 4537 H 447.054 4.98349 -2.8341 0
M  V30 4538 H 445.451 4.79869 -3.60341 0
M  V30 4539 H 446.521 3.39192 -3.46521 0
M  V30 4540 N 447.864 1.01787 1.20321 0
M  V30 4541 C 449.112 0.706538 1.89347 0
M  V30 4542 C 449.433 -0.766289 1.79313 0
M  V30 4543 O 448.703 -1.55126 1.19635 0
M  V30 4544 H 447.283 0.258348 0.700903 0
M  V30 4545 H 449.945 1.28974 1.46122 0
M  V30 4546 H 449.041 0.991066 2.95946 0
M  V30 4547 N 449.342 -1.36122 0.79427 0
M  V30 4548 C 450.252 -2.33769 0.197296 0
M  V30 4549 C 451.268 -1.61276 -0.653153 0
M  V30 4550 O 452.444 -1.9323 -0.5678 0
M  V30 4551 C 449.509 -3.40474 -0.654098 0
M  V30 4552 C 448.57 -4.28759 0.215411 0
M  V30 4553 C 447.803 -5.30368 -0.595443 0
M  V30 4554 O 448.026 -5.40211 -1.83107 0
M  V30 4555 O 446.96 -6.019 0.00721351 0
M  V30 4556 H 450.786 -2.86597 1.00478 0
M  V30 4557 H 448.371 -1.38676 0.555818 0
M  V30 4558 H 450.253 -4.05703 -1.13944 0
M  V30 4559 H 448.928 -2.89937 -1.43938 0
M  V30 4560 H 447.835 -3.66554 0.747615 0
M  V30 4561 H 449.168 -4.82661 0.964332 0
M  V30 4562 N 450.82 -0.546701 -1.47814 0
M  V30 4563 C 452.231 -0.110564 -1.86372 0
M  V30 4564 C 452.582 1.31678 -1.45449 0
M  V30 4565 O 451.707 1.98889 -0.852758 0
M  V30 4566 C 452.302 -0.193873 -3.38245 0
M  V30 4567 C 450.861 0.187164 -3.75934 0
M  V30 4568 C 450.008 -0.546166 -2.71868 0
M  V30 4569 H 452.959 -0.757022 -1.39481 0
M  V30 4570 H 452.98 0.590218 -3.75895 0
M  V30 4571 H 452.492 -1.23282 -3.67999 0
M  V30 4572 H 450.593 1.22762 -3.51796 0
M  V30 4573 H 450.706 -0.164083 -4.78819 0
M  V30 4574 H 449.07 0.00953904 -2.54698 0
M  V30 4575 H 449.853 -1.58606 -3.04465 0
M  V30 4576 N 452.299 1.55045 -0.282633 0
M  V30 4577 C 453.527 2.04168 0.33512 0
M  V30 4578 C 453.942 1.16071 1.48906 0
M  V30 4579 O 453.299 0.182391 1.81586 0
M  V30 4580 C 453.35 3.52332 0.808957 0
M  V30 4581 O 453.071 4.37078 -0.299038 0
M  V30 4582 C 454.572 4.17375 1.49375 0
M  V30 4583 H 451.792 0.666744 0.0754543 0
M  V30 4584 H 454.336 2.00205 -0.416918 0
M  V30 4585 H 452.491 3.56715 1.51106 0
M  V30 4586 H 452.905 5.24458 0.0665514 0
M  V30 4587 H 454.379 5.22627 1.77664 0
M  V30 4588 H 454.856 3.65999 2.42778 0
M  V30 4589 H 455.462 4.17016 0.835305 0
M  V30 4590 N 453.777 0.010035 1.57597 0
M  V30 4591 C 455.002 -0.687021 1.95691 0
M  V30 4592 C 455.427 -1.65952 0.885519 0
M  V30 4593 O 454.785 -1.80633 -0.15543 0
M  V30 4594 C 454.833 -1.3864 3.32884 0
M  V30 4595 O 453.937 -2.50115 3.27897 0
M  V30 4596 H 453.278 -0.181989 0.638573 0
M  V30 4597 H 455.808 0.0662122 2.04493 0
M  V30 4598 H 455.818 -1.74754 3.6868 0
M  V30 4599 H 454.493 -0.673411 4.10412 0
M  V30 4600 H 453.07 -2.16253 3.03791 0
M  V30 4601 N 455.255 -1.55392 -0.262866 0
M  V30 4602 C 456.203 -1.8977 -1.345 0
M  V30 4603 C 457.197 -0.775063 -1.50629 0
M  V30 4604 O 458.403 -0.959519 -1.52293 0
M  V30 4605 H 454.778 -0.602467 -0.450041 0
M  V30 4606 H 456.749 -2.80147 -1.02762 0
M  V30 4607 C 455.498 -2.19501 -2.69657 0
M  V30 4608 H 454.821 -3.05378 -2.5804 0
M  V30 4609 H 456.261 -2.47469 -3.44289 0
M  V30 4610 C 454.72 -1.00597 -3.21531 0
M  V30 4611 O 455.25 -0.245768 -4.00947 0
M  V30 4612 N 453.456 -0.800911 -2.79345 0
M  V30 4613 H 453.003 -1.42079 -2.14875 0
M  V30 4614 H 452.961 -0.00697996 -3.14399 0
M  V30 4615 N 456.733 0.527833 -1.48498 0
M  V30 4616 C 457.643 1.65907 -1.65867 0
M  V30 4617 C 458.659 1.6537 -0.541192 0
M  V30 4618 O 459.835 1.84282 -0.812534 0
M  V30 4619 C 456.9 3.02364 -1.69637 0
M  V30 4620 C 455.961 3.1374 -2.93028 0
M  V30 4621 C 455.194 4.43688 -2.96609 0
M  V30 4622 O 455.417 5.30913 -2.08538 0
M  V30 4623 O 454.351 4.59475 -3.88802 0
M  V30 4624 H 458.177 1.5419 -2.61647 0
M  V30 4625 H 455.762 0.701163 -1.31924 0
M  V30 4626 H 457.644 3.83515 -1.74625 0
M  V30 4627 H 456.319 3.14401 -0.770312 0
M  V30 4628 H 455.226 2.31877 -2.93571 0
M  V30 4629 H 456.559 3.06621 -3.85026 0
M  V30 4630 N 458.211 1.37122 0.776871 0
M  V30 4631 C 459.439 1.3523 1.5659 0
M  V30 4632 C 459.854 -0.0635518 1.88693 0
M  V30 4633 O 459.211 -1.02394 1.51069 0
M  V30 4634 C 459.262 2.18583 2.8793 0
M  V30 4635 O 458.983 3.5465 2.57206 0
M  V30 4636 C 460.484 2.24612 3.82183 0
M  V30 4637 H 457.704 0.4634 0.485285 0
M  V30 4638 H 460.248 1.80392 0.963266 0
M  V30 4639 H 458.403 1.76943 3.4463 0
M  V30 4640 H 458.817 3.98286 3.41275 0
M  V30 4641 H 460.291 2.87267 4.71361 0
M  V30 4642 H 460.768 1.25309 4.20944 0
M  V30 4643 H 461.374 2.66543 3.31414 0
M  V30 4644 N 459.689 -1.00246 1.21608 0
M  V30 4645 C 460.619 -2.10921 1.00172 0
M  V30 4646 C 461.6 -1.69938 -0.0741587 0
M  V30 4647 O 462.785 -1.94009 0.0861753 0
M  V30 4648 C 459.915 -3.42618 0.568355 0
M  V30 4649 C 458.869 -3.97407 1.58909 0
M  V30 4650 C 458.195 -5.25038 1.01187 0
M  V30 4651 C 459.495 -4.2918 2.97661 0
M  V30 4652 H 461.189 -2.29112 1.92739 0
M  V30 4653 H 458.735 -1.10101 0.928102 0
M  V30 4654 H 460.688 -4.19444 0.405555 0
M  V30 4655 H 459.412 -3.24227 -0.392961 0
M  V30 4656 H 458.071 -3.22703 1.73949 0
M  V30 4657 H 457.719 -5.02982 0.0421965 0
M  V30 4658 H 457.419 -5.62661 1.6937 0
M  V30 4659 H 458.943 -6.04507 0.860448 0
M  V30 4660 H 460.357 -4.96839 2.86049 0
M  V30 4661 H 458.754 -4.77952 3.6288 0
M  V30 4662 H 459.824 -3.3735 3.48315 0
M  V30 4663 N 461.167 -1.02423 -1.1978 0
M  V30 4664 C 462.392 -0.7373 -1.93852 0
M  V30 4665 C 462.817 0.696923 -1.74713 0
M  V30 4666 O 462.175 1.48056 -1.04638 0
M  V30 4667 C 462.223 -1.08783 -3.438 0
M  V30 4668 O 461.327 -0.20383 -4.11896 0
M  V30 4669 H 460.668 -0.27284 -0.605355 0
M  V30 4670 H 463.198 -1.36966 -1.51992 0
M  V30 4671 H 463.208 -1.04276 -3.9445 0
M  V30 4672 H 461.883 -2.13274 -3.57053 0
M  V30 4673 H 460.46 -0.307091 -3.71633 0
M  V30 4674 N 462.645 1.35699 -0.801477 0
M  V30 4675 C 463.885 2.00741 -0.385027 0
M  V30 4676 C 464.249 1.62213 1.02718 0
M  V30 4677 O 465.45 2.19936 1.54537 0
M  V30 4678 C 463.721 3.53032 -0.557057 0
M  V30 4679 S 465.28 4.38195 -0.230272 0
M  V30 4680 H 462.098 0.695748 -0.146477 0
M  V30 4681 H 464.7 1.65378 -1.04261 0
M  V30 4682 H 463.404 3.7856 -1.58494 0
M  V30 4683 H 462.935 3.93229 0.116029 0
M  V30 4684 H 464.95 4.86748 0.963895 0
M  V30 4685 N 464.123 0.554532 1.47522 0
M  V30 4686 C 465.369 0.0295227 2.02779 0
M  V30 4687 C 465.702 -1.31582 1.42828 0
M  V30 4688 O 464.977 -1.85561 0.582872 0
M  V30 4689 C 465.26 -0.0664057 3.60039 0
M  V30 4690 C 465.113 1.30585 4.30427 0
M  V30 4691 C 466.432 -0.781162 4.33112 0
M  V30 4692 H 463.551 0.0122027 0.736899 0
M  V30 4693 H 466.193 0.716305 1.7598 0
M  V30 4694 H 464.343 -0.651307 3.83002 0
M  V30 4695 H 466.015 1.93374 4.18813 0
M  V30 4696 H 464.258 1.88125 3.90886 0
M  V30 4697 H 464.929 1.19147 5.38988 0
M  V30 4698 H 467.405 -0.284565 4.15126 0
M  V30 4699 H 466.281 -0.817237 5.42782 0
M  V30 4700 H 466.542 -1.83672 4.0214 0
M  V30 4701 N 465.601 -1.54893 0.290851 0
M  V30 4702 C 466.85 -1.99111 -0.322113 0
M  V30 4703 C 467.163 -1.18283 -1.55784 0
M  V30 4704 O 468.369 -1.5272 -2.24475 0
M  V30 4705 C 466.825 -3.54442 -0.624438 0
M  V30 4706 C 466.433 -4.44066 0.592373 0
M  V30 4707 C 468.177 -4.07211 -1.19916 0
M  V30 4708 C 466.084 -5.90812 0.263762 0
M  V30 4709 H 465.014 -0.743712 -0.124133 0
M  V30 4710 H 467.665 -1.79132 0.39797 0
M  V30 4711 H 466.047 -3.70281 -1.40384 0
M  V30 4712 H 467.221 -4.39999 1.36886 0
M  V30 4713 H 465.536 -4.02015 1.08502 0
M  V30 4714 H 468.133 -5.14407 -1.45909 0
M  V30 4715 H 468.476 -3.57196 -2.13815 0
M  V30 4716 H 469.009 -3.94873 -0.481687 0
M  V30 4717 H 465.748 -6.44955 1.17105 0
M  V30 4718 H 465.268 -5.97911 -0.475655 0
M  V30 4719 H 466.947 -6.46852 -0.138354 0
M  V30 4720 N 467.08 -0.0183926 -1.57589 0
M  V30 4721 C 468.329 0.66185 -1.90532 0
M  V30 4722 C 468.642 1.73904 -0.895366 0
M  V30 4723 O 469.848 2.47518 -1.11566 0
M  V30 4724 C 468.304 1.22844 -3.38286 0
M  V30 4725 C 467.912 0.185103 -4.47617 0
M  V30 4726 C 469.656 1.88581 -3.80312 0
M  V30 4727 C 467.563 0.762723 -5.86461 0
M  V30 4728 H 466.493 0.250972 -0.711006 0
M  V30 4729 H 469.144 -0.0819435 -1.83317 0
M  V30 4730 H 467.526 2.0235 -3.40398 0
M  V30 4731 H 468.7 -0.58671 -4.5705 0
M  V30 4732 H 467.015 -0.372889 -4.14727 0
M  V30 4733 H 469.612 2.32735 -4.81392 0
M  V30 4734 H 469.955 2.72408 -3.14801 0
M  V30 4735 H 470.488 1.15782 -3.80578 0
M  V30 4736 H 467.227 -0.0371713 -6.55489 0
M  V30 4737 H 466.747 1.50327 -5.80656 0
M  V30 4738 H 468.426 1.25576 -6.34697 0
M  V30 4739 N 468.558 1.5553 0.254621 0
M  V30 4740 C 469.805 1.77 0.983736 0
M  V30 4741 C 470.133 0.58133 1.85609 0
M  V30 4742 O 469.388 -0.435621 1.9079 0
M  V30 4743 C 469.687 3.03891 1.88109 0
M  V30 4744 C 469.353 4.35597 1.16472 0
M  V30 4745 C 468.015 4.7139 0.966714 0
M  V30 4746 C 470.367 5.1705 0.656387 0
M  V30 4747 C 467.695 5.86176 0.247942 0
M  V30 4748 C 470.047 6.32581 -0.0488807 0
M  V30 4749 C 468.711 6.67 -0.258438 0
M  V30 4750 H 467.981 0.647688 0.359974 0
M  V30 4751 H 470.628 1.89802 0.254463 0
M  V30 4752 H 468.933 2.86068 2.67717 0
M  V30 4753 H 470.63 3.17701 2.44677 0
M  V30 4754 H 467.22 4.07475 1.32899 0
M  V30 4755 H 471.404 4.8986 0.796933 0
M  V30 4756 H 466.66 6.11354 0.075035 0
M  V30 4757 H 470.834 6.94942 -0.450444 0
M  V30 4758 H 468.461 7.55793 -0.817358 0
M  V30 4759 N 470.036 -0.519951 1.48776 0
M  V30 4760 C 471.282 -1.27711 1.57536 0
M  V30 4761 C 471.615 -1.92547 0.252866 0
M  V30 4762 O 470.89 -1.7979 -0.742021 0
M  V30 4763 C 471.173 -2.35875 2.72094 0
M  V30 4764 C 471.026 -1.75664 4.1408 0
M  V30 4765 C 472.345 -3.37575 2.82367 0
M  V30 4766 H 469.464 -0.462971 0.573434 0
M  V30 4767 H 472.106 -0.578194 1.80989 0
M  V30 4768 H 470.256 -2.95488 2.52228 0
M  V30 4769 H 471.928 -1.20025 4.45412 0
M  V30 4770 H 470.171 -1.06154 4.20611 0
M  V30 4771 H 470.842 -2.54029 4.90075 0
M  V30 4772 H 473.318 -2.87929 3.00393 0
M  V30 4773 H 472.194 -4.1064 3.64233 0
M  V30 4774 H 472.455 -3.98743 1.90936 0
M  V30 4775 N 471.514 -1.37532 -0.769588 0
M  V30 4776 C 472.763 -1.32183 -1.5235 0
M  V30 4777 C 473.076 0.0906555 -1.9539 0
M  V30 4778 O 474.282 0.266628 -2.70188 0
M  V30 4779 C 472.738 -2.32029 -2.75119 0
M  V30 4780 C 472.346 -3.78816 -2.3917 0
M  V30 4781 C 474.09 -2.35694 -3.53056 0
M  V30 4782 C 471.997 -4.70388 -3.58453 0
M  V30 4783 H 470.927 -0.491275 -0.571984 0
M  V30 4784 H 473.578 -1.63004 -0.842739 0
M  V30 4785 H 471.96 -1.94229 -3.45096 0
M  V30 4786 H 473.134 -4.25466 -1.76962 0
M  V30 4787 H 471.449 -3.78117 -1.74402 0
M  V30 4788 H 474.046 -3.01312 -4.41718 0
M  V30 4789 H 474.389 -1.37117 -3.93071 0
M  V30 4790 H 474.922 -2.72212 -2.90078 0
M  V30 4791 H 471.661 -5.70102 -3.23518 0
M  V30 4792 H 471.181 -4.28442 -4.19758 0
M  V30 4793 H 472.86 -4.87628 -4.25239 0
M  V30 4794 N 472.992 0.995999 -1.22138 0
M  V30 4795 C 474.238 1.73767 -1.04561 0
M  V30 4796 C 474.571 1.89633 0.418698 0
M  V30 4797 O 473.846 1.43723 1.3105 0
M  V30 4798 C 474.129 3.14505 -1.75382 0
M  V30 4799 C 473.982 3.06306 -3.29388 0
M  V30 4800 C 475.301 4.13615 -1.50369 0
M  V30 4801 H 472.42 0.630728 -0.38125 0
M  V30 4802 H 475.062 1.16057 -1.50435 0
M  V30 4803 H 473.212 3.63775 -1.36383 0
M  V30 4804 H 474.884 2.64681 -3.77812 0
M  V30 4805 H 473.127 2.43186 -3.59226 0
M  V30 4806 H 473.798 4.05884 -3.74116 0
M  V30 4807 H 476.274 3.73089 -1.84239 0
M  V30 4808 H 475.15 5.10212 -2.02421 0
M  V30 4809 H 475.411 4.39949 -0.435611 0
M  V30 4810 N 474.47 1.03057 1.19235 0
M  V30 4811 C 475.7 0.746613 1.92638 0
M  V30 4812 C 476.108 -0.698708 1.75826 0
M  V30 4813 O 475.451 -1.487 1.07861 0
M  V30 4814 C 475.513 1.02024 3.44719 0
M  V30 4815 C 475.177 2.45745 3.85303 0
M  V30 4816 C 476.174 3.43887 3.8992 0
M  V30 4817 C 473.859 2.8019 4.16892 0
M  V30 4818 C 475.853 4.74529 4.2556 0
M  V30 4819 C 473.54 4.1104 4.52205 0
M  V30 4820 C 474.538 5.0802 4.56513 0
M  V30 4821 O 474.226 6.36527 4.91008 0
M  V30 4822 H 473.958 0.272401 0.618687 0
M  V30 4823 H 476.512 1.37853 1.52269 0
M  V30 4824 H 474.742 0.331184 3.85279 0
M  V30 4825 H 476.431 0.725677 3.9936 0
M  V30 4826 H 477.197 3.18614 3.65664 0
M  V30 4827 H 473.076 2.05382 4.12722 0
M  V30 4828 H 476.62 5.50222 4.28838 0
M  V30 4829 H 472.517 4.36086 4.7592 0
M  V30 4830 H 473.285 6.41025 5.08949 0
M  V30 4831 N 475.948 -1.35272 0.808662 0
M  V30 4832 C 477.178 -2.02652 0.401953 0
M  V30 4833 C 477.586 -1.6108 -0.992462 0
M  V30 4834 O 476.929 -0.804984 -1.65123 0
M  V30 4835 C 476.991 -3.57174 0.408246 0
M  V30 4836 C 476.655 -4.22019 1.75353 0
M  V30 4837 C 477.652 -4.43552 2.71215 0
M  V30 4838 C 475.337 -4.59093 2.03811 0
M  V30 4839 C 477.331 -5.01264 3.93717 0
M  V30 4840 C 475.018 -5.16519 3.26576 0
M  V30 4841 C 476.016 -5.37546 4.21347 0
M  V30 4842 O 475.704 -5.93761 5.41944 0
M  V30 4843 H 475.436 -0.656495 0.161216 0
M  V30 4844 H 477.99 -1.73829 1.0942 0
M  V30 4845 H 476.22 -3.85197 -0.340608 0
M  V30 4846 H 477.909 -4.05893 0.0235623 0
M  V30 4847 H 478.675 -4.15288 2.50522 0
M  V30 4848 H 474.554 -4.42039 1.30854 0
M  V30 4849 H 478.098 -5.17592 4.67701 0
M  V30 4850 H 473.995 -5.4421 3.47139 0
M  V30 4851 H 474.763 -6.1221 5.43269 0
M  V30 4852 N 477.426 -0.562348 -1.47226 0
M  V30 4853 C 478.389 0.172056 -2.28553 0
M  V30 4854 C 479.389 0.837928 -1.37242 0
M  V30 4855 O 480.579 0.693001 -1.59822 0
M  V30 4856 C 477.711 1.25223 -3.17068 0
M  V30 4857 H 478.904 -0.542401 -2.94954 0
M  V30 4858 H 476.457 -0.319493 -1.53 0
M  V30 4859 H 477.192 1.99892 -2.55369 0
M  V30 4860 H 476.977 0.779515 -3.84273 0
M  V30 4861 H 478.467 1.76791 -3.78332 0
M  V30 4862 N 478.904 1.54736 -0.299062 0
M  V30 4863 C 479.834 2.26409 0.571085 0
M  V30 4864 C 480.815 1.2629 1.13951 0
M  V30 4865 O 482 1.55059 1.16921 0
M  V30 4866 C 479.13 3.00338 1.74396 0
M  V30 4867 C 478.084 4.07588 1.30599 0
M  V30 4868 C 477.41 4.69222 2.56387 0
M  V30 4869 C 478.71 5.20455 0.438645 0
M  V30 4870 H 480.404 2.99388 -0.0266991 0
M  V30 4871 H 477.95 1.43993 -0.0142812 0
M  V30 4872 H 479.903 3.49198 2.35878 0
M  V30 4873 H 478.627 2.24934 2.36796 0
M  V30 4874 H 477.286 3.59575 0.71424 0
M  V30 4875 H 476.934 3.9046 3.17097 0
M  V30 4876 H 476.634 5.41653 2.27784 0
M  V30 4877 H 478.158 5.20844 3.18675 0
M  V30 4878 H 479.572 5.65221 0.959085 0
M  V30 4879 H 477.969 5.99594 0.246466 0
M  V30 4880 H 479.039 4.8192 -0.536738 0
M  V30 4881 N 480.382 0.0267497 1.57577 0
M  V30 4882 C 481.315 -0.99059 2.05579 0
M  V30 4883 C 482.293 -1.31884 0.951065 0
M  V30 4884 O 483.477 -1.43592 1.22121 0
M  V30 4885 C 480.604 -2.31125 2.47586 0
M  V30 4886 C 479.65 -2.13777 3.69055 0
M  V30 4887 S 480.483 -1.4388 5.15809 0
M  V30 4888 C 481.639 -2.77321 5.6111 0
M  V30 4889 H 481.872 -0.581976 2.91548 0
M  V30 4890 H 479.405 -0.184876 1.53289 0
M  V30 4891 H 481.363 -3.07049 2.72454 0
M  V30 4892 H 480.024 -2.6912 1.61967 0
M  V30 4893 H 479.217 -3.11405 3.96287 0
M  V30 4894 H 478.819 -1.45996 3.44327 0
M  V30 4895 H 481.111 -3.73565 5.65204 0
M  V30 4896 H 482.054 -2.54756 6.60685 0
M  V30 4897 H 482.462 -2.82459 4.88751 0
M  V30 4898 N 481.861 -1.55662 -0.24637 0
M  V30 4899 C 482.824 -1.89558 -1.28842 0
M  V30 4900 C 483.824 -0.772082 -1.41052 0
M  V30 4901 O 485.014 -1.04007 -1.39743 0
M  V30 4902 C 482.146 -2.12449 -2.66605 0
M  V30 4903 H 483.339 -2.82735 -1.00004 0
M  V30 4904 H 480.892 -1.48562 -0.485684 0
M  V30 4905 H 481.627 -1.21742 -3.00582 0
M  V30 4906 H 481.412 -2.94273 -2.59125 0
M  V30 4907 H 482.902 -2.39854 -3.41847 0
M  V30 4908 N 483.339 0.512053 -1.4905 0
M  V30 4909 C 484.587 1.26436 -1.57665 0
M  V30 4910 C 484.908 1.93255 -0.260293 0
M  V30 4911 O 484.178 1.82206 0.719564 0
M  V30 4912 H 482.758 0.469658 -0.580888 0
M  V30 4913 H 485.42 0.594398 -1.85615 0
M  V30 4914 H 484.516 2.03417 -2.36702 0
M  V30 4915 N 484.817 1.37938 0.762283 0
M  V30 4916 C 486.063 1.33866 1.52341 0
M  V30 4917 C 486.396 -0.0738961 1.94059 0
M  V30 4918 O 485.671 -1.03326 1.64785 0
M  V30 4919 C 485.954 2.28644 2.78197 0
M  V30 4920 C 485.807 3.78722 2.42672 0
M  V30 4921 C 487.126 2.21702 3.80179 0
M  V30 4922 H 484.245 0.487593 0.55265 0
M  V30 4923 H 486.887 1.68717 0.873767 0
M  V30 4924 H 485.037 1.99055 3.33631 0
M  V30 4925 H 486.709 4.18948 1.93081 0
M  V30 4926 H 484.952 3.96827 1.75244 0
M  V30 4927 H 485.623 4.40486 3.3268 0
M  V30 4928 H 488.099 2.47805 3.34263 0
M  V30 4929 H 486.975 2.90143 4.65949 0
M  V30 4930 H 487.236 1.21301 4.25133 0
M  V30 4931 N 486.295 -0.989507 1.22664 0
M  V30 4932 C 487.541 -1.7321 1.05481 0
M  V30 4933 C 487.874 -1.89852 -0.408635 0
M  V30 4934 O 487.149 -1.44416 -1.30285 0
M  V30 4935 C 487.432 -3.1357 1.77047 0
M  V30 4936 C 487.285 -3.04555 3.31008 0
M  V30 4937 C 488.604 -4.12812 1.5256 0
M  V30 4938 H 485.723 -0.628697 0.384589 0
M  V30 4939 H 488.365 -1.15258 1.51049 0
M  V30 4940 H 486.515 -3.63046 1.3831 0
M  V30 4941 H 488.187 -2.62674 3.7921 0
M  V30 4942 H 486.43 -2.41278 3.6051 0
M  V30 4943 H 487.101 -4.03894 3.76263 0
M  V30 4944 H 489.577 -3.72106 1.86215 0
M  V30 4945 H 488.453 -5.09132 2.05124 0
M  V30 4946 H 488.714 -4.39711 0.458936 0
M  V30 4947 N 487.773 -1.03688 -1.18687 0
M  V30 4948 C 489.019 -0.74888 -1.89112 0
M  V30 4949 C 489.374 0.715345 -1.78607 0
M  V30 4950 O 488.667 1.51498 -1.17299 0
M  V30 4951 C 488.861 -1.14477 -3.3857 0
M  V30 4952 C 488.69 -2.64594 -3.63621 0
M  V30 4953 C 487.46 -3.31685 -3.812 0
M  V30 4954 C 489.658 -3.62811 -3.64517 0
M  V30 4955 N 487.64 -4.70822 -3.93955 0
M  V30 4956 C 489.011 -4.87603 -3.8294 0
M  V30 4957 C 491.066 -3.56495 -3.47585 0
M  V30 4958 C 489.769 -6.0684 -3.86184 0
M  V30 4959 C 491.795 -4.75155 -3.52111 0
M  V30 4960 C 491.157 -5.98765 -3.71026 0
M  V30 4961 H 487.256 -0.32603 -0.710794 0
M  V30 4962 H 489.84 -1.3258 -1.42586 0
M  V30 4963 H 488.011 -0.595974 -3.838 0
M  V30 4964 H 489.743 -0.808187 -3.96548 0
M  V30 4965 H 486.498 -2.82091 -3.80423 0
M  V30 4966 H 486.922 -5.43122 -4.04163 0
M  V30 4967 H 491.564 -2.61907 -3.31911 0
M  V30 4968 H 489.282 -7.01788 -4.00648 0
M  V30 4969 H 492.868 -4.71905 -3.40289 0
M  V30 4970 H 491.748 -6.89047 -3.74412 0
M  V30 4971 N 489.251 1.34841 -0.815825 0
M  V30 4972 C 490.498 1.98499 -0.400535 0
M  V30 4973 C 490.826 1.64699 1.03463 0
M  V30 4974 O 490.081 0.907006 1.73412 0
M  V30 4975 C 490.38 3.53273 -0.541541 0
M  V30 4976 C 490.046 4.06966 -1.94138 0
M  V30 4977 C 488.708 4.21341 -2.32433 0
M  V30 4978 C 491.06 4.35933 -2.85677 0
M  V30 4979 C 488.388 4.62007 -3.61617 0
M  V30 4980 C 490.74 4.78042 -4.14317 0
M  V30 4981 C 489.404 4.90622 -4.52599 0
M  V30 4982 H 488.674 0.72636 -0.146566 0
M  V30 4983 H 491.321 1.60902 -1.0384 0
M  V30 4984 H 489.626 3.91387 0.179741 0
M  V30 4985 H 491.323 4.00497 -0.20085 0
M  V30 4986 H 487.913 3.96235 -1.63388 0
M  V30 4987 H 492.097 4.24372 -2.57337 0
M  V30 4988 H 487.353 4.69937 -3.91113 0
M  V30 4989 H 491.527 4.99415 -4.85342 0
M  V30 4990 H 489.154 5.2189 -5.52752 0
M  V30 4991 N 490.729 0.570148 1.46925 0
M  V30 4992 C 491.975 0.0510284 2.02736 0
M  V30 4993 C 492.308 -1.3006 1.44215 0
M  V30 4994 O 491.583 -1.84932 0.602521 0
M  V30 4995 C 491.866 -0.028215 3.60089 0
M  V30 4996 C 491.719 1.35142 4.29018 0
M  V30 4997 C 493.038 -0.735181 4.33916 0
M  V30 4998 H 490.157 0.0200178 0.736728 0
M  V30 4999 H 492.799 0.73493 1.75211 0
M  V30 5000 H 490.949 -0.610648 3.83671 0
M  V30 5001 H 492.621 1.97806 4.16738 0
M  V30 5002 H 490.864 1.9226 3.88868 0
M  V30 5003 H 491.535 1.24857 5.37694 0
M  V30 5004 H 494.011 -0.240519 4.15404 0
M  V30 5005 H 492.887 -0.759622 5.43618 0
M  V30 5006 H 493.148 -1.79397 4.04066 0
M  V30 5007 N 492.207 -1.54576 0.307264 0
M  V30 5008 C 493.453 -2.0056 -0.300612 0
M  V30 5009 C 493.786 -1.1953 -1.53057 0
M  V30 5010 O 493.061 -0.27337 -1.92569 0
M  V30 5011 C 493.344 -3.54167 -0.650987 0
M  V30 5012 C 493.197 -4.45933 0.588539 0
M  V30 5013 C 494.516 -4.14645 -1.47506 0
M  V30 5014 H 491.635 -0.729075 -0.107788 0
M  V30 5015 H 494.277 -1.85286 0.420606 0
M  V30 5016 H 492.427 -3.67313 -1.26544 0
M  V30 5017 H 494.099 -4.44683 1.22697 0
M  V30 5018 H 492.342 -4.16274 1.22058 0
M  V30 5019 H 493.013 -5.51189 0.299153 0
M  V30 5020 H 495.489 -4.04973 -0.955821 0
M  V30 5021 H 494.365 -5.22269 -1.68899 0
M  V30 5022 H 494.626 -3.66921 -2.4662 0
M  V30 5023 N 493.685 -0.035106 -1.57561 0
M  V30 5024 C 494.615 0.942993 -2.13612 0
M  V30 5025 C 495.596 1.33531 -1.05373 0
M  V30 5026 O 496.781 1.41287 -1.33235 0
M  V30 5027 C 493.911 2.22332 -2.66807 0
M  V30 5028 C 492.865 1.97156 -3.79886 0
M  V30 5029 C 492.191 3.31506 -4.19533 0
M  V30 5030 C 493.491 1.30596 -5.05709 0
M  V30 5031 H 495.185 0.476179 -2.95589 0
M  V30 5032 H 492.731 0.227602 -1.4219 0
M  V30 5033 H 494.684 2.91142 -3.04654 0
M  V30 5034 H 493.408 2.7119 -1.81999 0
M  V30 5035 H 492.067 1.30763 -3.42486 0
M  V30 5036 H 491.715 3.78134 -3.31698 0
M  V30 5037 H 491.415 3.15465 -4.95738 0
M  V30 5038 H 492.939 4.01574 -4.59968 0
M  V30 5039 H 494.353 1.89416 -5.41105 0
M  V30 5040 H 492.75 1.24934 -5.86951 0
M  V30 5041 H 493.82 0.279742 -4.84092 0
M  V30 5042 N 495.163 1.55791 0.238111 0
M  V30 5043 C 496.391 1.82098 0.982233 0
M  V30 5044 C 496.806 0.612025 1.78605 0
M  V30 5045 O 496.163 -0.419381 1.77616 0
M  V30 5046 C 496.214 3.0673 1.91309 0
M  V30 5047 O 495.935 4.2296 1.14179 0
M  V30 5048 C 497.436 3.45903 2.77248 0
M  V30 5049 H 494.656 0.605748 0.288635 0
M  V30 5050 H 497.2 2.02862 0.258341 0
M  V30 5051 H 495.355 2.87991 2.59114 0
M  V30 5052 H 495.769 4.93653 1.7722 0
M  V30 5053 H 497.243 4.36189 3.38295 0
M  V30 5054 H 497.72 2.66891 3.48806 0
M  V30 5055 H 498.326 3.67024 2.14881 0
M  V30 5056 N 496.642 -0.504142 1.49319 0
M  V30 5057 C 497.872 -1.28071 1.62116 0
M  V30 5058 C 498.28 -1.86955 0.290566 0
M  V30 5059 O 497.623 -1.68415 -0.733616 0
M  V30 5060 C 497.685 -2.4521 2.62893 0
M  V30 5061 C 497.349 -2.07218 4.0732 0
M  V30 5062 C 498.346 -1.61375 4.94221 0
M  V30 5063 C 496.031 -2.16949 4.53033 0
M  V30 5064 C 498.025 -1.25763 6.2487 0
M  V30 5065 C 495.712 -1.80949 5.83696 0
M  V30 5066 C 496.71 -1.3543 6.69438 0
M  V30 5067 O 496.398 -0.99915 7.97667 0
M  V30 5068 H 496.13 -0.394763 0.54876 0
M  V30 5069 H 498.684 -0.612118 1.96067 0
M  V30 5070 H 496.914 -3.15134 2.24115 0
M  V30 5071 H 498.603 -3.0724 2.65252 0
M  V30 5072 H 499.369 -1.53306 4.60133 0
M  V30 5073 H 495.248 -2.5133 3.86463 0
M  V30 5074 H 498.792 -0.901631 6.91749 0
M  V30 5075 H 494.689 -1.88667 6.17313 0
M  V30 5076 H 495.457 -1.13089 8.1065 0
M  V30 5077 N 498.12 -1.38341 -0.754957 0
M  V30 5078 C 499.083 -1.35262 -1.85032 0
M  V30 5079 C 500.083 -0.253393 -1.58791 0
M  V30 5080 O 501.273 -0.510205 -1.66561 0
M  V30 5081 C 498.405 -1.10544 -3.22479 0
M  V30 5082 H 499.598 -2.32712 -1.8917 0
M  V30 5083 H 497.151 -1.23614 -0.956515 0
M  V30 5084 H 497.886 -0.136952 -3.24011 0
M  V30 5085 H 497.671 -1.90127 -3.4292 0
M  V30 5086 H 499.161 -1.11082 -4.02555 0
M  V30 5087 N 499.598 0.982988 -1.23187 0
M  V30 5088 C 500.844 1.7273 -1.07405 0
M  V30 5089 C 501.199 1.885 0.385447 0
M  V30 5090 O 500.492 1.4243 1.28157 0
M  V30 5091 C 500.686 3.12736 -1.73006 0
M  V30 5092 C 500.515 3.10621 -3.25184 0
M  V30 5093 C 499.285 3.15957 -3.94334 0
M  V30 5094 C 501.483 2.93992 -4.21987 0
M  V30 5095 N 499.465 3.03701 -5.33516 0
M  V30 5096 C 500.836 2.8987 -5.48065 0
M  V30 5097 C 502.891 2.78457 -4.12754 0
M  V30 5098 C 501.594 2.71804 -6.65969 0
M  V30 5099 C 503.62 2.61754 -5.30319 0
M  V30 5100 C 502.982 2.58328 -6.55321 0
M  V30 5101 H 499.081 0.641279 -0.447533 0
M  V30 5102 H 501.665 1.16664 -1.55877 0
M  V30 5103 H 499.836 3.67026 -1.2707 0
M  V30 5104 H 501.568 3.75786 -1.50224 0
M  V30 5105 H 498.323 3.24034 -3.45397 0
M  V30 5106 H 498.747 3.00855 -6.06478 0
M  V30 5107 H 503.389 2.79898 -3.16886 0
M  V30 5108 H 501.107 2.69108 -7.61975 0
M  V30 5109 H 504.693 2.50702 -5.25014 0
M  V30 5110 H 503.573 2.45564 -7.4476 0
M  V30 5111 N 501.076 1.04316 1.18135 0
M  V30 5112 C 502.026 0.606731 2.19779 0
M  V30 5113 C 503.01 -0.352144 1.56999 0
M  V30 5114 O 504.202 -0.170795 1.76174 0
M  V30 5115 C 501.331 -0.0262443 3.4329 0
M  V30 5116 C 500.417 0.955928 4.13186 0
M  V30 5117 N 500.808 2.12395 4.59045 0
M  V30 5118 C 499.106 0.782473 4.39082 0
M  V30 5119 C 499.807 2.74458 5.12882 0
M  V30 5120 N 498.783 2.02316 5.04548 0
M  V30 5121 H 502.585 1.49679 2.5293 0
M  V30 5122 H 500.099 0.912088 1.34368 0
M  V30 5123 H 502.096 -0.356617 4.15372 0
M  V30 5124 H 500.756 -0.911811 3.11635 0
M  V30 5125 H 501.767 2.50272 4.53414 0
M  V30 5126 H 498.444 -0.0527906 4.17467 0
M  V30 5127 H 499.834 3.73459 5.5855 0
M  V30 5128 N 502.554 -1.34406 0.822964 0
M  V30 5129 C 503.782 -2.02508 0.424039 0
M  V30 5130 C 504.197 -1.61975 -0.970022 0
M  V30 5131 O 503.554 -0.825228 -1.62777 0
M  V30 5132 C 503.605 -3.57789 0.516657 0
M  V30 5133 O 503.326 -3.96853 1.85577 0
M  V30 5134 C 504.827 -4.43157 0.112637 0
M  V30 5135 H 502.047 -0.649063 0.170173 0
M  V30 5136 H 504.591 -1.7168 1.11113 0
M  V30 5137 H 502.746 -3.87207 -0.122353 0
M  V30 5138 H 503.16 -4.91538 1.83005 0
M  V30 5139 H 504.634 -5.51527 0.228526 0
M  V30 5140 H 505.111 -4.28939 -0.943837 0
M  V30 5141 H 505.717 -4.19067 0.725449 0
M  V30 5142 N 504.032 -0.577932 -1.46621 0
M  V30 5143 C 505.257 -0.0652536 -2.07297 0
M  V30 5144 C 505.682 1.22828 -1.4246 0
M  V30 5145 O 505.04 1.74075 -0.506718 0
M  V30 5146 C 505.088 0.0920589 -3.60482 0
M  V30 5147 O 504.192 1.14972 -3.96049 0
M  V30 5148 H 503.533 -0.06065 -0.661224 0
M  V30 5149 H 506.063 -0.799515 -1.88332 0
M  V30 5150 H 506.073 0.299741 -4.06897 0
M  V30 5151 H 504.748 -0.852612 -4.07067 0
M  V30 5152 H 503.325 0.920879 -3.61351 0
M  V30 5153 N 505.51 1.54411 -0.315457 0
M  V30 5154 C 506.757 2.00419 0.289543 0
M  V30 5155 C 507.085 1.20373 1.52776 0
M  V30 5156 O 506.34 0.271769 1.93804 0
M  V30 5157 C 506.639 3.50936 0.676652 0
M  V30 5158 C 506.305 4.48532 -0.461472 0
M  V30 5159 C 504.967 4.74936 -0.773879 0
M  V30 5160 C 507.319 5.06567 -1.22637 0
M  V30 5161 C 504.647 5.56634 -1.85405 0
M  V30 5162 C 506.999 5.89441 -2.29657 0
M  V30 5163 C 505.663 6.1415 -2.61488 0
M  V30 5164 H 504.933 0.733386 0.105951 0
M  V30 5165 H 507.58 1.86434 -0.437554 0
M  V30 5166 H 505.885 3.62606 1.48405 0
M  V30 5167 H 507.582 3.83971 1.15618 0
M  V30 5168 H 504.172 4.28096 -0.207893 0
M  V30 5169 H 508.356 4.86157 -0.998271 0
M  V30 5170 H 503.612 5.74012 -2.10523 0
M  V30 5171 H 507.786 6.33432 -2.89374 0
M  V30 5172 H 505.413 6.77245 -3.45317 0
M  V30 5173 N 506.988 0.0434614 1.5754 0
M  V30 5174 C 507.935 -0.93356 2.11077 0
M  V30 5175 C 508.905 -1.31383 1.01626 0
M  V30 5176 O 510.09 -1.40465 1.29129 0
M  V30 5177 C 507.23 -2.20578 2.65404 0
M  V30 5178 C 506.343 -1.88068 3.88914 0
M  V30 5179 C 505.478 -3.09691 4.31584 0
M  V30 5180 C 504.517 -2.73067 5.47815 0
M  V30 5181 N 503.654 -3.87359 5.85574 0
M  V30 5182 H 508.494 -0.470118 2.94268 0
M  V30 5183 H 506.031 -0.220434 1.45439 0
M  V30 5184 H 507.989 -2.95011 2.94999 0
M  V30 5185 H 506.619 -2.64513 1.85021 0
M  V30 5186 H 505.671 -1.03816 3.6596 0
M  V30 5187 H 506.983 -1.57104 4.73413 0
M  V30 5188 H 506.137 -3.92431 4.62691 0
M  V30 5189 H 504.876 -3.43827 3.45882 0
M  V30 5190 H 503.881 -1.88742 5.16388 0
M  V30 5191 H 505.106 -2.40131 6.35227 0
M  V30 5192 H 503.052 -4.21311 5.02825 0
M  V30 5193 H 502.969 -3.60068 6.64746 0
M  V30 5194 H 504.237 -4.70761 6.21292 0
M  V30 5195 N 508.466 -1.55915 -0.229846 0
M  V30 5196 C 509.429 -1.90914 -1.26824 0
M  V30 5197 C 510.429 -0.786999 -1.40225 0
M  V30 5198 O 511.619 -1.05484 -1.38632 0
M  V30 5199 C 508.751 -2.15264 -2.64337 0
M  V30 5200 H 509.944 -2.8378 -0.969998 0
M  V30 5201 H 507.497 -1.49069 -0.4699 0
M  V30 5202 H 508.232 -1.24923 -2.99274 0
M  V30 5203 H 508.017 -2.97005 -2.55989 0
M  V30 5204 H 509.507 -2.43467 -3.39284 0
M  V30 5205 N 509.944 0.496216 -1.49584 0
M  V30 5206 C 510.874 1.60576 -1.69521 0
M  V30 5207 C 511.855 1.61169 -0.543933 0
M  V30 5208 O 513.04 1.77834 -0.78031 0
M  V30 5209 C 510.17 2.99038 -1.76616 0
M  V30 5210 C 509.124 3.13312 -2.91581 0
M  V30 5211 C 508.45 4.53172 -2.83794 0
M  V30 5212 C 509.75 2.92886 -4.32452 0
M  V30 5213 H 511.444 1.44146 -2.62416 0
M  V30 5214 H 508.99 0.692024 -1.26282 0
M  V30 5215 H 510.943 3.76564 -1.8915 0
M  V30 5216 H 509.667 3.16568 -0.80324 0
M  V30 5217 H 508.326 2.38213 -2.78658 0
M  V30 5218 H 507.974 4.67585 -1.854 0
M  V30 5219 H 507.674 4.63662 -3.60958 0
M  V30 5220 H 509.198 5.32752 -2.98342 0
M  V30 5221 H 510.612 3.60178 -4.46032 0
M  V30 5222 H 509.009 3.14844 -5.10875 0
M  V30 5223 H 510.079 1.88966 -4.46565 0
M  V30 5224 N 511.423 1.38739 0.74761 0
M  V30 5225 C 512.671 1.35007 1.50391 0
M  V30 5226 C 512.992 -0.0574274 1.94915 0
M  V30 5227 O 512.262 -1.00628 1.6808 0
M  V30 5228 H 510.842 0.496784 0.557866 0
M  V30 5229 H 513.504 1.73479 0.888319 0
M  V30 5230 H 512.6 2.00474 2.392 0
M  V30 5231 N 512.901 -0.976442 1.23707 0
M  V30 5232 C 514.129 -1.75341 1.09833 0
M  V30 5233 C 514.544 -1.8553 -0.349885 0
M  V30 5234 O 513.901 -1.33732 -1.24185 0
M  V30 5235 C 513.952 -3.17833 1.72233 0
M  V30 5236 O 513.673 -3.08167 3.11391 0
M  V30 5237 C 515.174 -4.11906 1.63853 0
M  V30 5238 H 512.394 -0.550137 0.384175 0
M  V30 5239 H 514.938 -1.2265 1.63638 0
M  V30 5240 H 513.093 -3.67538 1.22452 0
M  V30 5241 H 513.507 -3.97897 3.41729 0
M  V30 5242 H 514.981 -5.09579 2.12211 0
M  V30 5243 H 515.458 -4.35109 0.598092 0
M  V30 5244 H 516.064 -3.68107 2.13019 0
M  V30 5245 N 514.379 -1.04941 -1.1758 0
M  V30 5246 C 515.607 -0.778294 -1.91703 0
M  V30 5247 C 516.022 0.665697 -1.76675 0
M  V30 5248 O 515.379 1.45456 -1.10222 0
M  V30 5249 C 515.43 -1.14628 -3.42845 0
M  V30 5250 O 515.151 -2.53359 -3.57409 0
M  V30 5251 C 516.652 -0.900931 -4.34049 0
M  V30 5252 H 513.872 -0.283167 -0.608323 0
M  V30 5253 H 516.416 -1.39942 -1.49119 0
M  V30 5254 H 514.571 -0.569953 -3.83184 0
M  V30 5255 H 514.985 -2.67709 -4.51035 0
M  V30 5256 H 516.459 -1.20817 -5.38616 0
M  V30 5257 H 516.936 0.163966 -4.38894 0
M  V30 5258 H 517.542 -1.46097 -3.99419 0
M  V30 5259 N 515.857 1.33968 -0.830081 0
M  V30 5260 C 517.087 2.01987 -0.434142 0
M  V30 5261 C 517.495 1.62639 0.96671 0
M  V30 5262 O 516.838 0.831151 1.63822 0
M  V30 5263 C 516.9 3.5648 -0.465018 0
M  V30 5264 C 516.564 4.19176 -1.82045 0
M  V30 5265 C 517.561 4.39181 -2.78237 0
M  V30 5266 C 515.246 4.55792 -2.11089 0
M  V30 5267 C 517.24 4.94937 -4.01642 0
M  V30 5268 C 514.927 5.11258 -3.34752 0
M  V30 5269 C 515.925 5.30775 -4.29845 0
M  V30 5270 O 515.613 5.85064 -5.51322 0
M  V30 5271 H 515.345 0.653847 -0.171639 0
M  V30 5272 H 517.899 1.72066 -1.12171 0
M  V30 5273 H 516.129 3.8569 0.279284 0
M  V30 5274 H 517.818 4.05804 -0.0881334 0
M  V30 5275 H 518.584 4.11249 -2.57097 0
M  V30 5276 H 514.463 4.39901 -1.3787 0
M  V30 5277 H 518.007 5.10086 -4.75876 0
M  V30 5278 H 513.904 5.38619 -3.55753 0
M  V30 5279 H 514.672 6.03489 -5.5294 0
M  V30 5280 N 517.335 0.585699 1.46312 0
M  V30 5281 C 518.267 -0.183687 2.28463 0
M  V30 5282 C 519.28 -0.85264 1.38686 0
M  V30 5283 O 520.469 -0.721701 1.6326 0
M  V30 5284 C 517.569 -1.27977 3.13808 0
M  V30 5285 C 516.742 -0.702164 4.31727 0
M  V30 5286 C 515.801 -1.68633 4.98447 0
M  V30 5287 O 514.827 -1.22121 5.55945 0
M  V30 5288 N 516.029 -3.02047 4.95729 0
M  V30 5289 H 518.794 0.521127 2.95134 0
M  V30 5290 H 516.355 0.423673 1.56258 0
M  V30 5291 H 518.347 -1.9375 3.55307 0
M  V30 5292 H 516.917 -1.8874 2.4919 0
M  V30 5293 H 516.137 0.1331 3.93975 0
M  V30 5294 H 517.425 -0.296101 5.07938 0
M  V30 5295 H 516.823 -3.42457 4.50266 0
M  V30 5296 H 515.38 -3.63301 5.41161 0
M  V30 5297 N 518.813 -1.54241 0.323641 0
M  V30 5298 C 520.224 -1.85975 -0.164405 0
M  V30 5299 C 520.575 -1.24529 -1.51615 0
M  V30 5300 O 519.7 -0.551351 -2.09258 0
M  V30 5301 C 520.295 -3.37424 -0.305091 0
M  V30 5302 C 518.854 -3.69107 -0.737358 0
M  V30 5303 C 518.001 -2.76942 0.140884 0
M  V30 5304 H 520.952 -1.49088 0.543922 0
M  V30 5305 H 520.973 -3.63147 -1.13598 0
M  V30 5306 H 520.485 -3.82116 0.678876 0
M  V30 5307 H 518.586 -3.29947 -1.73107 0
M  V30 5308 H 518.699 -4.76035 -0.541053 0
M  V30 5309 H 517.063 -2.51795 -0.383572 0
M  V30 5310 H 517.846 -3.24461 1.12162 0
M  V30 5311 N 520.291 -0.0518155 -1.57515 0
M  V30 5312 C 521.221 0.920283 -2.146 0
M  V30 5313 C 522.202 1.32406 -1.06783 0
M  V30 5314 O 523.387 1.39866 -1.34726 0
M  V30 5315 C 520.517 2.1949 -2.6915 0
M  V30 5316 C 519.471 1.93116 -3.81956 0
M  V30 5317 C 518.797 3.27037 -4.23026 0
M  V30 5318 C 520.097 1.25225 -5.07066 0
M  V30 5319 H 521.791 0.444801 -2.96077 0
M  V30 5320 H 519.337 0.212508 -1.42423 0
M  V30 5321 H 521.29 2.87894 -3.07725 0
M  V30 5322 H 520.014 2.69244 -1.84865 0
M  V30 5323 H 518.673 1.27123 -3.43854 0
M  V30 5324 H 518.321 3.74595 -3.3569 0
M  V30 5325 H 518.021 3.10189 -4.99056 0
M  V30 5326 H 519.545 3.96673 -4.64202 0
M  V30 5327 H 520.959 1.83666 -5.43083 0
M  V30 5328 H 519.356 1.18702 -5.88243 0
M  V30 5329 H 520.426 0.228382 -4.84362 0
M  V30 5330 N 521.769 1.56035 0.221574 0
M  V30 5331 C 522.994 1.83476 0.967026 0
M  V30 5332 C 523.419 0.632139 1.7716 0
M  V30 5333 O 522.777 -0.419082 1.7639 0
M  V30 5334 C 522.825 3.08907 1.86034 0
M  V30 5335 O 521.929 2.876 2.95567 0
M  V30 5336 H 521.27 0.604913 0.273817 0
M  V30 5337 H 523.8 2.03247 0.234893 0
M  V30 5338 H 523.81 3.3901 2.27016 0
M  V30 5339 H 522.485 3.96068 1.26898 0
M  V30 5340 H 521.062 2.6873 2.58532 0
M  V30 5341 N 523.247 -0.488276 1.49845 0
M  V30 5342 C 524.495 -1.23911 1.59657 0
M  V30 5343 C 524.816 -1.92816 0.291005 0
M  V30 5344 O 524.086 -1.83328 -0.690485 0
M  V30 5345 H 522.666 -0.460357 0.588286 0
M  V30 5346 H 525.328 -0.564794 1.86537 0
M  V30 5347 H 524.424 -1.99625 2.39909 0
M  V30 5348 N 524.725 -1.39134 -0.740242 0
M  V30 5349 C 525.672 -1.37434 -1.8542 0
M  V30 5350 C 526.642 -0.234822 -1.64432 0
M  V30 5351 O 527.827 -0.429125 -1.85912 0
M  V30 5352 C 524.967 -1.21844 -3.22875 0
M  V30 5353 C 524.08 -2.45296 -3.55603 0
M  V30 5354 C 523.215 -2.22334 -4.82432 0
M  V30 5355 C 522.254 -3.41488 -5.07988 0
M  V30 5356 N 521.391 -3.17877 -6.26018 0
M  V30 5357 H 526.231 -2.3266 -1.86207 0
M  V30 5358 H 523.768 -1.15578 -0.909946 0
M  V30 5359 H 525.726 -1.10818 -4.02213 0
M  V30 5360 H 524.356 -0.3025 -3.21379 0
M  V30 5361 H 523.408 -2.66945 -2.71006 0
M  V30 5362 H 524.72 -3.34063 -3.7041 0
M  V30 5363 H 523.874 -2.0852 -5.69741 0
M  V30 5364 H 522.613 -1.30954 -4.6979 0
M  V30 5365 H 521.618 -3.55807 -4.19144 0
M  V30 5366 H 522.843 -4.33763 -5.22519 0
M  V30 5367 H 520.789 -2.29156 -6.14673 0
M  V30 5368 H 520.706 -4.00198 -6.41387 0
M  V30 5369 H 521.974 -3.07746 -7.16179 0
M  V30 5370 N 526.204 0.969867 -1.24223 0
M  V30 5371 C 527.432 1.74756 -1.10761 0
M  V30 5372 C 527.847 1.85713 0.340041 0
M  V30 5373 O 527.204 1.34389 1.23474 0
M  V30 5374 C 527.255 3.16915 -1.73917 0
M  V30 5375 O 526.976 3.06511 -3.13021 0
M  V30 5376 C 528.477 4.11032 -1.66036 0
M  V30 5377 H 525.697 0.548092 -0.387087 0
M  V30 5378 H 528.241 1.2178 -1.64286 0
M  V30 5379 H 526.396 3.66884 -1.244 0
M  V30 5380 H 526.81 3.96079 -3.43834 0
M  V30 5381 H 528.284 5.08446 -2.14911 0
M  V30 5382 H 528.761 4.34785 -0.621159 0
M  V30 5383 H 529.367 3.66972 -2.14969 0
M  V30 5384 N 527.682 1.05563 1.17022 0
M  V30 5385 C 528.907 0.788437 1.91829 0
M  V30 5386 C 529.332 -0.650356 1.76499 0
M  V30 5387 O 528.69 -1.45229 1.08527 0
M  V30 5388 C 528.738 1.1786 3.40795 0
M  V30 5389 O 527.842 0.312965 4.11211 0
M  V30 5390 H 527.183 0.288794 0.597908 0
M  V30 5391 H 529.713 1.40948 1.48307 0
M  V30 5392 H 529.723 1.14697 3.91546 0
M  V30 5393 H 528.398 2.22666 3.51273 0
M  V30 5394 H 526.975 0.405515 3.70689 0
M  V30 5395 N 529.16 -1.33526 0.837174 0
M  V30 5396 C 530.39 -2.01754 0.444848 0
M  V30 5397 C 530.798 -1.63149 -0.958072 0
M  V30 5398 O 530.141 -0.839827 -1.63379 0
M  V30 5399 C 530.203 -3.56228 0.483917 0
M  V30 5400 C 529.867 -4.18205 1.84265 0
M  V30 5401 C 530.864 -4.37699 2.80563 0
M  V30 5402 C 528.549 -4.54667 2.13503 0
M  V30 5403 C 530.543 -4.928 4.04261 0
M  V30 5404 C 528.23 -5.09475 3.37458 0
M  V30 5405 C 529.228 -5.28488 4.32654 0
M  V30 5406 O 528.916 -5.82132 5.54417 0
M  V30 5407 H 528.648 -0.652928 0.175104 0
M  V30 5408 H 531.202 -1.71469 1.13082 0
M  V30 5409 H 529.432 -3.85833 -0.258826 0
M  V30 5410 H 531.121 -4.05752 0.109653 0
M  V30 5411 H 531.887 -4.0988 2.59274 0
M  V30 5412 H 527.766 -4.39164 1.40201 0
M  V30 5413 H 531.31 -5.07555 4.78574 0
M  V30 5414 H 527.207 -5.36725 3.58604 0
M  V30 5415 H 527.975 -6.00548 5.56133 0
M  V30 5416 N 530.638 -0.59345 -1.46 0
M  V30 5417 C 531.885 -0.0831523 -2.02329 0
M  V30 5418 C 532.213 1.28093 -1.46364 0
M  V30 5419 O 531.468 1.85526 -0.622793 0
M  V30 5420 C 531.767 0.021178 -3.57394 0
M  V30 5421 C 531.433 -1.27671 -4.32448 0
M  V30 5422 C 530.095 -1.63227 -4.5267 0
M  V30 5423 C 532.447 -2.13511 -4.7546 0
M  V30 5424 C 529.775 -2.84401 -5.1316 0
M  V30 5425 C 532.127 -3.33922 -5.37289 0
M  V30 5426 C 530.791 -3.69747 -5.55737 0
M  V30 5427 H 530.061 -0.0304276 -0.740375 0
M  V30 5428 H 532.708 -0.772239 -1.75239 0
M  V30 5429 H 531.013 0.793454 -3.83682 0
M  V30 5430 H 532.71 0.431942 -3.98667 0
M  V30 5431 H 529.3 -0.989937 -4.17011 0
M  V30 5432 H 533.484 -1.87344 -4.59582 0
M  V30 5433 H 528.74 -3.12282 -5.25633 0
M  V30 5434 H 532.914 -4.00698 -5.69574 0
M  V30 5435 H 530.541 -4.6373 -6.02377 0
M  V30 5436 N 532.116 1.54067 -0.331816 0
M  V30 5437 C 533.066 2.21363 0.546101 0
M  V30 5438 C 534.05 1.19698 1.07523 0
M  V30 5439 O 535.242 1.45293 1.01088 0
M  V30 5440 C 532.371 2.98115 1.70242 0
M  V30 5441 C 531.457 4.07127 1.18779 0
M  V30 5442 N 531.848 5.04267 0.393465 0
M  V30 5443 C 530.146 4.21226 1.46576 0
M  V30 5444 C 530.847 5.81585 0.115572 0
M  V30 5445 N 529.823 5.39022 0.703987 0
M  V30 5446 H 533.625 2.93821 -0.0679751 0
M  V30 5447 H 531.139 1.61812 -0.138085 0
M  V30 5448 H 533.136 3.44818 2.34321 0
M  V30 5449 H 531.796 2.27181 2.31989 0
M  V30 5450 H 532.807 5.17888 0.0355757 0
M  V30 5451 H 529.484 3.61509 2.08848 0
M  V30 5452 H 530.874 6.6985 -0.524426 0
M  V30 5453 N 533.594 0.0601682 1.57485 0
M  V30 5454 C 534.524 -0.90889 2.15085 0
M  V30 5455 C 535.505 -1.31838 1.07484 0
M  V30 5456 O 536.69 -1.3915 1.35466 0
M  V30 5457 C 533.82 -2.18059 2.7031 0
M  V30 5458 C 532.774 -1.91088 3.82974 0
M  V30 5459 C 532.1 -3.24789 4.24754 0
M  V30 5460 C 533.4 -1.22535 5.07723 0
M  V30 5461 H 535.094 -0.429093 2.96309 0
M  V30 5462 H 532.64 -0.204952 1.42534 0
M  V30 5463 H 534.593 -2.86258 3.09248 0
M  V30 5464 H 533.317 -2.6826 1.8629 0
M  V30 5465 H 531.976 -1.25297 3.44523 0
M  V30 5466 H 531.624 -3.72809 3.37672 0
M  V30 5467 H 531.324 -3.07538 5.00694 0
M  V30 5468 H 532.848 -3.94205 4.66299 0
M  V30 5469 H 534.262 -1.80783 5.4405 0
M  V30 5470 H 532.659 -1.1558 5.88864 0
M  V30 5471 H 533.729 -0.202692 4.84476 0
M  V30 5472 N 535.072 -1.5615 -0.213296 0
M  V30 5473 C 536.002 -1.96109 -1.26742 0
M  V30 5474 C 536.983 -0.830448 -1.48451 0
M  V30 5475 O 538.168 -1.09339 -1.60495 0
M  V30 5476 C 535.298 -2.28492 -2.61551 0
M  V30 5477 C 534.252 -3.44124 -2.54485 0
M  V30 5478 C 533.578 -3.62134 -3.93399 0
M  V30 5479 C 534.878 -4.78855 -2.08556 0
M  V30 5480 H 536.572 -2.84412 -0.935434 0
M  V30 5481 H 534.118 -1.36836 -0.44854 0
M  V30 5482 H 536.071 -2.55039 -3.3546 0
M  V30 5483 H 534.795 -1.37052 -2.96453 0
M  V30 5484 H 533.454 -3.17639 -1.83033 0
M  V30 5485 H 533.102 -2.68055 -4.25623 0
M  V30 5486 H 532.802 -4.39913 -3.89551 0
M  V30 5487 H 534.326 -3.91038 -4.68958 0
M  V30 5488 H 535.74 -5.04552 -2.72213 0
M  V30 5489 H 534.137 -5.59975 -2.1575 0
M  V30 5490 H 535.207 -4.73657 -1.03811 0
M  V30 5491 N 536.55 0.480323 -1.50102 0
M  V30 5492 C 537.778 1.25657 -1.64371 0
M  V30 5493 C 538.193 1.86011 -0.323316 0
M  V30 5494 O 537.55 1.68803 0.693682 0
M  V30 5495 C 537.601 2.37197 -2.728 0
M  V30 5496 O 537.322 1.7932 -3.9972 0
M  V30 5497 C 538.823 3.2823 -2.9796 0
M  V30 5498 H 536.043 0.380369 -0.552775 0
M  V30 5499 H 538.587 0.574379 -1.96268 0
M  V30 5500 H 536.742 3.01208 -2.43623 0
M  V30 5501 H 537.156 2.52701 -4.59611 0
M  V30 5502 H 538.63 4.02725 -3.77513 0
M  V30 5503 H 539.107 3.86462 -2.08671 0
M  V30 5504 H 539.713 2.69964 -3.28633 0
M  V30 5505 N 538.028 1.39524 0.732853 0
M  V30 5506 C 539.274 1.38072 1.49358 0
M  V30 5507 C 539.629 -0.0227943 1.92386 0
M  V30 5508 O 538.922 -0.98976 1.64056 0
M  V30 5509 C 539.116 2.28916 2.74468 0
M  V30 5510 C 538.945 3.7796 2.43673 0
M  V30 5511 C 537.715 4.46874 2.35863 0
M  V30 5512 C 539.913 4.69886 2.09074 0
M  V30 5513 N 537.895 5.81242 1.97561 0
M  V30 5514 C 539.266 5.9292 1.81234 0
M  V30 5515 C 541.321 4.57887 1.95561 0
M  V30 5516 C 540.024 7.05297 1.41242 0
M  V30 5517 C 542.05 5.70187 1.56972 0
M  V30 5518 C 541.412 6.92297 1.30018 0
M  V30 5519 H 537.511 0.56051 0.5453 0
M  V30 5520 H 540.095 1.75093 0.85151 0
M  V30 5521 H 538.266 1.9405 3.36451 0
M  V30 5522 H 539.998 2.18441 3.40684 0
M  V30 5523 H 536.753 4.00341 2.5303 0
M  V30 5524 H 537.177 6.52356 1.80997 0
M  V30 5525 H 541.819 3.64014 2.15067 0
M  V30 5526 H 539.537 7.99069 1.20476 0
M  V30 5527 H 543.123 5.62892 1.47119 0
M  V30 5528 H 542.003 7.7772 1.00605 0
M  V30 5529 N 539.506 -0.963266 1.24736 0
M  V30 5530 C 540.731 -1.74699 1.11781 0
M  V30 5531 C 541.156 -1.85267 -0.325258 0
M  V30 5532 O 540.514 -1.32681 -1.23553 0
M  V30 5533 C 540.562 -3.14322 1.76731 0
M  V30 5534 O 539.666 -3.99043 1.04109 0
M  V30 5535 H 539.007 -0.53684 0.390767 0
M  V30 5536 H 541.537 -1.20801 1.65131 0
M  V30 5537 H 541.547 -3.64824 1.82668 0
M  V30 5538 H 540.222 -3.05946 2.81726 0
M  V30 5539 H 538.799 -3.5752 1.05991 0
M  V30 5540 N 540.985 -1.06182 -1.16461 0
M  V30 5541 C 541.915 -0.692861 -2.22984 0
M  V30 5542 C 542.896 0.314122 -1.67174 0
M  V30 5543 O 544.081 0.189499 -1.93273 0
M  V30 5544 C 541.211 -0.07732 -3.47214 0
M  V30 5545 C 540.165 -1.01015 -4.15909 0
M  V30 5546 C 539.491 -0.257973 -5.34077 0
M  V30 5547 C 540.791 -2.33868 -4.67015 0
M  V30 5548 H 542.485 -1.58343 -2.54102 0
M  V30 5549 H 540.031 -0.76279 -1.22137 0
M  V30 5550 H 541.984 0.19266 -4.20959 0
M  V30 5551 H 540.708 0.848254 -3.15392 0
M  V30 5552 H 539.367 -1.26486 -3.44088 0
M  V30 5553 H 539.015 0.670684 -4.98509 0
M  V30 5554 H 538.715 -0.879638 -5.80979 0
M  V30 5555 H 540.239 0.00448788 -6.106 0
M  V30 5556 H 541.653 -2.1279 -5.32347 0
M  V30 5557 H 540.05 -2.91522 -5.24533 0
M  V30 5558 H 541.12 -2.97019 -3.83286 0
M  V30 5559 N 542.463 1.3308 -0.844243 0
M  V30 5560 C 543.874 1.7992 -0.498566 0
M  V30 5561 C 544.225 1.69808 0.982834 0
M  V30 5562 O 543.35 1.25051 1.7661 0
M  V30 5563 C 543.945 3.26677 -0.898204 0
M  V30 5564 C 542.504 3.71513 -0.604583 0
M  V30 5565 C 541.651 2.54393 -1.10362 0
M  V30 5566 H 544.602 1.20526 -1.03244 0
M  V30 5567 H 544.623 3.79918 -0.21039 0
M  V30 5568 H 544.135 3.34004 -1.97643 0
M  V30 5569 H 542.236 3.69708 0.46335 0
M  V30 5570 H 542.349 4.64755 -1.16358 0
M  V30 5571 H 540.713 2.49246 -0.524273 0
M  V30 5572 H 541.496 2.6448 -2.18873 0
M  V30 5573 N 543.941 0.601185 1.45683 0
M  V30 5574 C 545.188 0.0938811 2.02282 0
M  V30 5575 C 545.516 -1.27315 1.47041 0
M  V30 5576 O 544.771 -1.85193 0.632623 0
M  V30 5577 C 545.07 -0.00222425 3.574 0
M  V30 5578 C 544.736 1.29963 4.31764 0
M  V30 5579 C 543.398 1.65625 4.51798 0
M  V30 5580 C 545.75 2.1603 4.74321 0
M  V30 5581 C 543.078 2.87119 5.11644 0
M  V30 5582 C 545.43 3.36766 5.3551 0
M  V30 5583 C 544.094 3.72689 5.53768 0
M  V30 5584 H 543.364 0.0343535 0.740203 0
M  V30 5585 H 546.011 0.781522 1.74827 0
M  V30 5586 H 544.316 -0.773096 3.84097 0
M  V30 5587 H 546.013 -0.410794 3.9889 0
M  V30 5588 H 542.603 1.01204 4.1648 0
M  V30 5589 H 546.787 1.89778 4.58582 0
M  V30 5590 H 542.043 3.15065 5.2397 0
M  V30 5591 H 546.217 4.03713 5.67441 0
M  V30 5592 H 543.844 4.66918 5.99909 0
M  V30 5593 N 545.419 -1.53889 0.339982 0
M  V30 5594 C 546.665 -2.01152 -0.258003 0
M  V30 5595 C 546.998 -1.22749 -1.50487 0
M  V30 5596 O 546.273 -0.314156 -1.91946 0
M  V30 5597 C 546.556 -3.55468 -0.575717 0
M  V30 5598 C 546.409 -4.44584 0.682996 0
M  V30 5599 C 547.728 -4.1768 -1.38677 0
M  V30 5600 H 544.847 -0.731198 -0.0922992 0
M  V30 5601 H 547.489 -1.84352 0.459814 0
M  V30 5602 H 545.639 -3.69914 -1.18725 0
M  V30 5603 H 547.311 -4.41981 1.32102 0
M  V30 5604 H 545.554 -4.13592 1.3086 0
M  V30 5605 H 546.225 -5.5043 0.416001 0
M  V30 5606 H 548.701 -4.0691 -0.869705 0
M  V30 5607 H 547.577 -5.25734 -1.57783 0
M  V30 5608 H 547.838 -3.72069 -2.38782 0
M  V30 5609 N 546.897 -0.0685191 -1.57451 0
M  V30 5610 C 547.827 0.89747 -2.15564 0
M  V30 5611 C 548.808 1.31266 -1.08181 0
M  V30 5612 O 549.993 1.38429 -1.36202 0
M  V30 5613 C 547.123 2.16623 -2.71463 0
M  V30 5614 C 546.077 1.89054 -3.83982 0
M  V30 5615 C 545.403 3.22532 -4.26471 0
M  V30 5616 C 546.703 1.1984 -5.08366 0
M  V30 5617 H 548.397 0.413373 -2.96533 0
M  V30 5618 H 545.943 0.197391 -1.42641 0
M  V30 5619 H 547.896 2.84614 -3.10761 0
M  V30 5620 H 546.62 2.67269 -1.8771 0
M  V30 5621 H 545.279 1.23469 -3.45183 0
M  V30 5622 H 544.927 3.71013 -3.39644 0
M  V30 5623 H 544.627 3.04879 -5.02317 0
M  V30 5624 H 546.151 3.91727 -4.68383 0
M  V30 5625 H 547.565 1.77896 -5.45001 0
M  V30 5626 H 545.962 1.12456 -5.89469 0
M  V30 5627 H 547.032 0.176996 -4.84577 0
M  V30 5628 N 548.375 1.56261 0.205012 0
M  V30 5629 C 549.603 1.84141 0.943386 0
M  V30 5630 C 550.018 0.649772 1.77266 0
M  V30 5631 O 549.375 -0.381612 1.78466 0
M  V30 5632 C 549.426 3.10719 1.84759 0
M  V30 5633 O 549.147 4.25286 1.05181 0
M  V30 5634 C 550.648 3.51706 2.69848 0
M  V30 5635 H 547.868 0.611734 0.275721 0
M  V30 5636 H 550.412 2.03364 0.215253 0
M  V30 5637 H 548.567 2.93422 2.52947 0
M  V30 5638 H 548.981 4.97301 1.66709 0
M  V30 5639 H 550.455 4.43266 3.28967 0
M  V30 5640 H 550.932 2.7423 3.43067 0
M  V30 5641 H 551.538 3.71499 2.07047 0
M  V30 5642 N 549.853 -0.472356 1.50355 0
M  V30 5643 C 551.099 -1.22634 1.6152 0
M  V30 5644 C 551.432 -1.91645 0.313995 0
M  V30 5645 O 550.707 -1.82059 -0.684446 0
M  V30 5646 C 550.99 -2.27099 2.7946 0
M  V30 5647 C 550.843 -1.62402 4.19459 0
M  V30 5648 C 552.162 -3.28421 2.92964 0
M  V30 5649 H 549.281 -0.444494 0.587873 0
M  V30 5650 H 551.923 -0.520321 1.82737 0
M  V30 5651 H 550.073 -2.87314 2.61501 0
M  V30 5652 H 551.745 -1.05793 4.49005 0
M  V30 5653 H 549.988 -0.927184 4.23776 0
M  V30 5654 H 550.659 -2.38309 4.97909 0
M  V30 5655 H 553.135 -2.78227 3.09401 0
M  V30 5656 H 552.011 -3.98845 3.77113 0
M  V30 5657 H 552.272 -3.92467 2.03525 0
M  V30 5658 N 551.331 -1.39911 -0.725443 0
M  V30 5659 C 552.294 -1.39156 -1.82121 0
M  V30 5660 C 553.294 -0.287018 -1.58218 0
M  V30 5661 O 554.484 -0.545421 -1.65441 0
M  V30 5662 C 551.616 -1.1736 -3.20062 0
M  V30 5663 H 552.809 -2.36672 -1.84191 0
M  V30 5664 H 550.362 -1.25615 -0.930079 0
M  V30 5665 H 551.097 -0.205648 -3.23647 0
M  V30 5666 H 550.882 -1.97358 -3.3881 0
M  V30 5667 H 552.372 -1.19596 -4.00108 0
M  V30 5668 N 552.809 0.956637 -1.25245 0
M  V30 5669 C 554.058 1.69537 -1.0927 0
M  V30 5670 C 554.371 1.92136 0.366503 0
M  V30 5671 O 555.577 2.63687 0.64665 0
M  V30 5672 C 554.033 3.05211 -1.9072 0
M  V30 5673 C 553.641 2.90416 -3.41119 0
M  V30 5674 C 555.385 3.82882 -1.83308 0
M  V30 5675 C 553.292 4.21468 -4.14872 0
M  V30 5676 H 552.222 0.635804 -0.405302 0
M  V30 5677 H 554.873 1.06513 -1.49423 0
M  V30 5678 H 553.255 3.69128 -1.43389 0
M  V30 5679 H 554.429 2.35444 -3.9611 0
M  V30 5680 H 552.744 2.26203 -3.49602 0
M  V30 5681 H 555.341 4.79944 -2.35706 0
M  V30 5682 H 555.684 4.0853 -0.800572 0
M  V30 5683 H 556.217 3.25711 -2.28379 0
M  V30 5684 H 552.956 4.01009 -5.18529 0
M  V30 5685 H 552.476 4.76213 -3.64665 0
M  V30 5686 H 554.155 4.90022 -4.22478 0
M  V30 5687 N 554.287 1.06798 1.15896 0
M  V30 5688 C 555.217 0.704677 2.22613 0
M  V30 5689 C 556.198 -0.305252 1.67339 0
M  V30 5690 O 557.383 -0.179247 1.93371 0
M  V30 5691 C 554.513 0.0957325 3.47168 0
M  V30 5692 C 553.467 1.0322 4.15367 0
M  V30 5693 C 552.793 0.286293 5.33933 0
M  V30 5694 C 554.093 2.36341 4.65768 0
M  V30 5695 H 555.787 1.59688 2.53259 0
M  V30 5696 H 553.333 0.769257 1.21731 0
M  V30 5697 H 555.286 -0.170333 4.21056 0
M  V30 5698 H 554.01 -0.831516 3.15838 0
M  V30 5699 H 552.669 1.28309 3.43413 0
M  V30 5700 H 552.317 -0.644237 4.98857 0
M  V30 5701 H 552.017 0.910436 5.80504 0
M  V30 5702 H 553.541 0.0278938 6.10594 0
M  V30 5703 H 554.955 2.1561 5.31211 0
M  V30 5704 H 553.352 2.94299 5.2298 0
M  V30 5705 H 554.422 2.99047 3.81705 0
M  V30 5706 N 555.766 -1.3263 0.851289 0
M  V30 5707 C 556.729 -2.27247 0.298541 0
M  V30 5708 C 557.729 -1.51467 -0.539847 0
M  V30 5709 O 558.919 -1.7061 -0.351843 0
M  V30 5710 C 556.051 -3.35964 -0.578004 0
M  V30 5711 H 557.244 -2.7765 1.13359 0
M  V30 5712 H 554.797 -1.43245 0.625354 0
M  V30 5713 H 555.532 -2.90823 -1.435 0
M  V30 5714 H 555.317 -3.92094 0.0220539 0
M  V30 5715 H 556.807 -4.06472 -0.957626 0
M  V30 5716 N 557.244 -0.608902 -1.45362 0
M  V30 5717 C 558.49 -0.104762 -2.02529 0
M  V30 5718 C 558.823 1.26191 -1.47613 0
M  V30 5719 O 558.098 1.8327 -0.65134 0
M  V30 5720 C 558.381 -0.0672661 -3.60037 0
M  V30 5721 C 558.234 -1.4647 -4.25284 0
M  V30 5722 C 559.553 0.619877 -4.35713 0
M  V30 5723 H 556.672 -0.0395438 -0.735938 0
M  V30 5724 H 559.314 -0.781126 -1.73201 0
M  V30 5725 H 557.464 0.50871 -3.85155 0
M  V30 5726 H 559.136 -2.08785 -4.11347 0
M  V30 5727 H 557.379 -2.02502 -3.83634 0
M  V30 5728 H 558.05 -1.39069 -5.34195 0
M  V30 5729 H 560.526 0.130297 -4.15896 0
M  V30 5730 H 559.402 0.615224 -5.45441 0
M  V30 5731 H 559.663 1.68621 -4.0868 0
M  V30 5732 N 558.722 1.53707 -0.348139 0
M  V30 5733 C 559.685 2.23812 0.494058 0
M  V30 5734 C 560.685 1.23989 1.02388 0
M  V30 5735 O 561.875 1.48395 0.912396 0
M  V30 5736 C 559.007 2.96133 1.68872 0
M  V30 5737 H 560.2 2.99663 -0.119141 0
M  V30 5738 H 557.753 1.55983 -0.0995539 0
M  V30 5739 H 558.488 2.24481 2.34049 0
M  V30 5740 H 558.273 3.69357 1.31596 0
M  V30 5741 H 559.763 3.49475 2.28597 0
M  V30 5742 N 560.2 0.0768682 1.57412 0
M  V30 5743 C 561.132 -0.918248 2.10002 0
M  V30 5744 C 562.145 -1.25808 1.03325 0
M  V30 5745 O 563.334 -1.21438 1.30824 0
M  V30 5746 C 560.434 -2.23263 2.54964 0
M  V30 5747 C 559.607 -2.07088 3.8527 0
M  V30 5748 C 558.666 -3.21876 4.16272 0
M  V30 5749 O 557.692 -2.96643 4.8579 0
M  V30 5750 N 558.894 -4.4712 3.70221 0
M  V30 5751 H 561.659 -0.469209 2.96004 0
M  V30 5752 H 559.22 -0.108725 1.61535 0
M  V30 5753 H 561.212 -2.9897 2.72762 0
M  V30 5754 H 559.782 -2.59649 1.74072 0
M  V30 5755 H 559.002 -1.15818 3.76802 0
M  V30 5756 H 560.29 -1.93537 4.70554 0
M  V30 5757 H 559.688 -4.70506 3.1407 0
M  V30 5758 H 558.245 -5.19837 3.93209 0
M  V30 5759 N 561.678 -1.56367 -0.196722 0
M  V30 5760 C 562.924 -1.80796 -0.918725 0
M  V30 5761 C 563.257 -0.650645 -1.82976 0
M  V30 5762 O 562.532 0.348889 -1.91345 0
M  V30 5763 C 562.815 -3.15472 -1.73636 0
M  V30 5764 C 562.668 -4.41693 -0.85015 0
M  V30 5765 C 563.987 -3.46824 -2.70927 0
M  V30 5766 H 561.106 -0.657702 -0.332561 0
M  V30 5767 H 563.748 -1.89086 -0.186186 0
M  V30 5768 H 561.898 -3.08536 -2.36088 0
M  V30 5769 H 563.57 -4.60673 -0.240459 0
M  V30 5770 H 561.813 -4.33517 -0.156785 0
M  V30 5771 H 562.484 -5.32419 -1.45719 0
M  V30 5772 H 564.96 -3.54049 -2.18607 0
M  V30 5773 H 563.836 -4.4218 -3.25219 0
M  V30 5774 H 564.097 -2.70236 -3.49893 0
M  V30 5775 N 563.156 0.464375 -1.50603 0
M  V30 5776 C 564.433 1.22549 -1.5245 0
M  V30 5777 C 564.813 2.09327 -0.273035 0
M  V30 5778 O 564.161 2.16074 0.743242 0
M  V30 5779 C 564.371 2.05074 -2.82393 0
M  V30 5780 C 565.719 2.63036 -3.33313 0
M  V30 5781 O 566.743 2.1531 -2.8376 0
M  V30 5782 O 565.602 3.5001 -4.19709 0
M  V30 5783 H 562.696 0.556471 -0.611775 0
M  V30 5784 H 565.242 0.475648 -1.62898 0
M  V30 5785 H 564.014 1.41169 -3.64948 0
M  V30 5786 H 563.637 2.87179 -2.7498 0
M  V30 5787 N 564.634 1.40294 0.718013 0
M  V30 5788 C 565.882 1.38167 1.47494 0
M  V30 5789 C 566.203 -0.01607 1.94993 0
M  V30 5790 O 565.473 -0.970396 1.70177 0
M  V30 5791 H 564.053 0.508505 0.547203 0
M  V30 5792 H 566.715 1.75324 0.851322 0
M  V30 5793 H 565.811 2.05503 2.34894 0
M  V30 5794 N 566.112 -0.949982 1.2575 0
M  V30 5795 C 567.389 -1.6718 1.01539 0
M  V30 5796 C 567.769 -2.06095 -0.456942 0
M  V30 5797 O 567.117 -1.77792 -1.43534 0
M  V30 5798 C 567.327 -2.8906 1.95564 0
M  V30 5799 C 568.675 -3.60909 2.23673 0
M  V30 5800 O 569.699 -2.9915 1.9336 0
M  V30 5801 O 568.558 -4.72127 2.75243 0
M  V30 5802 H 565.652 -0.731697 0.385419 0
M  V30 5803 H 568.198 -1.00249 1.36924 0
M  V30 5804 H 566.97 -2.57128 2.94959 0
M  V30 5805 H 566.593 -3.63719 1.60605 0
M  V30 5806 N 567.59 -1.07411 -1.15328 0
M  V30 5807 C 568.815 -0.818856 -1.90551 0
M  V30 5808 C 569.24 0.622194 -1.77512 0
M  V30 5809 O 568.598 1.43484 -1.10824 0
M  V30 5810 C 568.646 -1.23267 -3.38877 0
M  V30 5811 O 567.75 -0.378345 -4.10661 0
M  V30 5812 H 567.091 -0.29827 -0.593238 0
M  V30 5813 H 569.621 -1.43289 -1.46046 0
M  V30 5814 H 569.631 -1.20912 -3.89672 0
M  V30 5815 H 568.306 -2.28226 -3.47686 0
M  V30 5816 H 566.883 -0.464437 -3.69996 0
M  V30 5817 N 569.068 1.32177 -0.85831 0
M  V30 5818 C 570.314 1.97417 -0.46417 0
M  V30 5819 C 570.647 1.67746 0.978514 0
M  V30 5820 O 569.922 0.967654 1.68721 0
M  V30 5821 C 570.205 3.53069 -0.708094 0
M  V30 5822 C 570.058 3.92357 -2.19946 0
M  V30 5823 C 571.377 4.39783 -0.166881 0
M  V30 5824 H 568.496 0.717097 -0.17012 0
M  V30 5825 H 571.138 1.56499 -1.07741 0
M  V30 5826 H 569.288 3.88054 -0.186128 0
M  V30 5827 H 570.96 3.67533 -2.78779 0
M  V30 5828 H 569.203 3.41384 -2.67656 0
M  V30 5829 H 569.874 5.00841 -2.32082 0
M  V30 5830 H 572.35 4.11556 -0.613285 0
M  V30 5831 H 571.226 5.47671 -0.367093 0
M  V30 5832 H 571.487 4.32196 0.930559 0
M  V30 5833 N 570.547 0.616602 1.45037 0
M  V30 5834 C 571.772 0.120192 2.07051 0
M  V30 5835 C 572.197 -1.19008 1.45666 0
M  V30 5836 O 571.555 -1.7267 0.552692 0
M  V30 5837 C 571.603 0.00354901 3.606 0
M  V30 5838 O 570.707 -1.04431 3.98958 0
M  V30 5839 H 570.048 0.0781599 0.659384 0
M  V30 5840 H 572.578 0.849167 1.86146 0
M  V30 5841 H 572.588 -0.191754 4.07549 0
M  V30 5842 H 571.263 0.960239 4.04663 0
M  V30 5843 H 569.84 -0.824749 3.63665 0
M  V30 5844 N 572.025 -1.5352 0.356285 0
M  V30 5845 C 573.273 -2.00719 -0.235837 0
M  V30 5846 C 573.594 -1.24551 -1.5004 0
M  V30 5847 O 572.864 -0.356185 -1.92635 0
M  V30 5848 H 571.444 -0.741542 -0.0901366 0
M  V30 5849 H 574.106 -1.88887 0.480378 0
M  V30 5850 H 573.202 -3.08551 -0.469357 0
M  V30 5851 N 573.503 -0.0852151 -1.57369 0
M  V30 5852 C 574.752 0.580443 -1.93168 0
M  V30 5853 C 575.065 1.6995 -0.968319 0
M  V30 5854 O 576.271 2.42564 -1.21963 0
M  V30 5855 C 574.727 1.08386 -3.43192 0
M  V30 5856 C 574.335 -0.00491388 -4.48 0
M  V30 5857 C 576.079 1.72281 -3.87968 0
M  V30 5858 C 573.986 0.513299 -5.89168 0
M  V30 5859 H 572.916 0.22059 -0.72101 0
M  V30 5860 H 575.567 -0.159621 -1.82804 0
M  V30 5861 H 573.949 1.8773 -3.48674 0
M  V30 5862 H 575.123 -0.780032 -4.5415 0
M  V30 5863 H 573.438 -0.548453 -4.12772 0
M  V30 5864 H 576.035 2.12108 -4.9083 0
M  V30 5865 H 576.378 2.58811 -3.26071 0
M  V30 5866 H 576.911 0.995359 -3.85146 0
M  V30 5867 H 573.65 -0.315153 -6.54742 0
M  V30 5868 H 573.17 1.25564 -5.8651 0
M  V30 5869 H 574.849 0.985433 -6.39451 0
M  V30 5870 N 574.981 1.5647 0.188427 0
M  V30 5871 C 576.221 1.82803 0.914469 0
M  V30 5872 C 576.585 0.663681 1.80165 0
M  V30 5873 O 577.786 0.807059 2.56398 0
M  V30 5874 C 576.057 3.14187 1.70357 0
M  V30 5875 S 577.616 3.61947 2.48072 0
M  V30 5876 H 574.434 0.641497 0.306599 0
M  V30 5877 H 577.036 1.94694 0.177361 0
M  V30 5878 H 575.74 3.96937 1.04255 0
M  V30 5879 H 575.271 3.05192 2.48237 0
M  V30 5880 H 577.286 3.27913 3.72407 0
M  V30 5881 N 576.459 -0.456382 1.50847 0
M  V30 5882 C 577.706 -1.20736 1.62571 0
M  V30 5883 C 578.034 -1.9163 0.332904 0
M  V30 5884 O 577.289 -1.8343 -0.682058 0
M  V30 5885 C 577.588 -2.26336 2.76599 0
M  V30 5886 C 577.254 -1.7259 4.16562 0
M  V30 5887 C 575.916 -1.57654 4.54641 0
M  V30 5888 C 578.268 -1.32877 5.03977 0
M  V30 5889 C 575.596 -1.0145 5.77862 0
M  V30 5890 C 577.948 -0.7811 6.27759 0
M  V30 5891 C 576.612 -0.618488 6.64628 0
M  V30 5892 H 575.882 -0.441803 0.594888 0
M  V30 5893 H 578.529 -0.501169 1.84826 0
M  V30 5894 H 576.834 -3.0292 2.48489 0
M  V30 5895 H 578.531 -2.84227 2.82871 0
M  V30 5896 H 575.121 -1.85187 3.86528 0
M  V30 5897 H 579.305 -1.43245 4.75179 0
M  V30 5898 H 574.561 -0.876109 6.0509 0
M  V30 5899 H 578.735 -0.464783 6.94847 0
M  V30 5900 H 576.362 -0.180838 7.59985 0
M  V30 5901 N 577.937 -1.40673 -0.710563 0
M  V30 5902 C 579.183 -1.39428 -1.47267 0
M  V30 5903 C 579.516 0.00182129 -1.942 0
M  V30 5904 O 578.791 0.971387 -1.68506 0
M  V30 5905 C 579.074 -2.38812 -2.6952 0
M  V30 5906 C 578.927 -3.87467 -2.28449 0
M  V30 5907 C 580.246 -2.3566 -3.71689 0
M  V30 5908 H 577.365 -0.507768 -0.534173 0
M  V30 5909 H 580.007 -1.71843 -0.810547 0
M  V30 5910 H 578.157 -2.113 -3.26013 0
M  V30 5911 H 579.829 -4.25825 -1.77399 0
M  V30 5912 H 578.072 -4.03058 -1.60395 0
M  V30 5913 H 578.743 -4.5253 -3.16103 0
M  V30 5914 H 581.219 -2.6004 -3.24836 0
M  V30 5915 H 580.095 -3.07237 -4.54859 0
M  V30 5916 H 580.356 -1.36996 -4.20339 0
M  V30 5917 N 579.415 0.9433 -1.26252 0
M  V30 5918 C 580.663 1.68592 -1.11451 0
M  V30 5919 C 580.984 1.91957 0.343123 0
M  V30 5920 O 580.254 1.51475 1.24226 0
M  V30 5921 H 578.834 0.624789 -0.409448 0
M  V30 5922 H 581.496 1.13351 -1.58548 0
M  V30 5923 H 580.592 2.66054 -1.63162 0
M  V30 5924 N 580.893 1.08022 1.14757 0
M  V30 5925 C 582.123 0.827646 1.89298 0
M  V30 5926 C 582.531 -0.623506 1.78631 0
M  V30 5927 O 581.874 -1.43991 1.14071 0
M  V30 5928 C 581.936 1.16553 3.40082 0
M  V30 5929 C 581.6 2.61866 3.74533 0
M  V30 5930 C 582.597 3.60116 3.74984 0
M  V30 5931 C 580.282 2.97619 4.04633 0
M  V30 5932 C 582.276 4.92151 4.05051 0
M  V30 5933 C 579.963 4.2985 4.34364 0
M  V30 5934 C 580.961 5.26926 4.34555 0
M  V30 5935 O 580.649 6.5678 4.63568 0
M  V30 5936 H 580.381 0.298396 0.606577 0
M  V30 5937 H 582.935 1.44187 1.46285 0
M  V30 5938 H 581.165 0.494296 3.83528 0
M  V30 5939 H 582.854 0.894407 3.95923 0
M  V30 5940 H 583.62 3.33837 3.51821 0
M  V30 5941 H 579.499 2.22702 4.03639 0
M  V30 5942 H 583.043 5.67915 4.05115 0
M  V30 5943 H 578.94 4.55879 4.56995 0
M  V30 5944 H 579.708 6.62035 4.81303 0
M  V30 5945 N 582.371 -1.3172 0.865308 0
M  V30 5946 C 583.318 -2.2863 0.315736 0
M  V30 5947 C 584.288 -1.55524 -0.583213 0
M  V30 5948 O 585.473 -1.83694 -0.51585 0
M  V30 5949 C 582.613 -3.41735 -0.480773 0
M  V30 5950 C 581.726 -4.297 0.445167 0
M  V30 5951 C 580.861 -5.29944 -0.365012 0
M  V30 5952 C 579.9 -6.09554 0.557651 0
M  V30 5953 N 579.037 -7.01768 -0.215994 0
M  V30 5954 H 583.877 -2.75026 1.14736 0
M  V30 5955 H 581.414 -1.35302 0.577209 0
M  V30 5956 H 583.372 -4.06045 -0.958306 0
M  V30 5957 H 582.002 -2.96461 -1.27714 0
M  V30 5958 H 581.054 -3.65875 1.04113 0
M  V30 5959 H 582.366 -4.85295 1.15284 0
M  V30 5960 H 581.52 -5.99908 -0.905255 0
M  V30 5961 H 580.259 -4.74994 -1.106 0
M  V30 5962 H 579.264 -5.38485 1.10969 0
M  V30 5963 H 580.489 -6.66591 1.29742 0
M  V30 5964 H 578.435 -6.49232 -0.939878 0
M  V30 5965 H 578.352 -7.54762 0.432431 0
M  V30 5966 H 579.62 -7.76002 -0.737618 0
M  V30 5967 N 583.85 -0.624285 -1.44708 0
M  V30 5968 C 584.798 0.0969952 -2.32398 0
M  V30 5969 C 585.792 0.842762 -1.46949 0
M  V30 5970 O 586.998 0.756436 -1.63334 0
M  V30 5971 H 583.373 0.0501306 -0.750327 0
M  V30 5972 H 585.344 -0.660767 -2.90992 0
M  V30 5973 C 584.093 1.06967 -3.30837 0
M  V30 5974 H 583.416 0.505242 -3.96595 0
M  V30 5975 H 584.856 1.54397 -3.94889 0
M  V30 5976 C 583.315 2.15153 -2.5925 0
M  V30 5977 O 583.845 3.23139 -2.3863 0
M  V30 5978 N 582.051 1.90898 -2.19103 0
M  V30 5979 H 581.598 1.03086 -2.36074 0
M  V30 5980 H 581.556 2.63485 -1.71531 0
M  V30 5981 N 585.328 1.53329 -0.364422 0
M  V30 5982 C 586.558 2.05359 0.226096 0
M  V30 5983 C 586.966 1.23777 1.43094 0
M  V30 5984 O 586.309 0.271139 1.81688 0
M  V30 5985 C 586.371 3.52918 0.684794 0
M  V30 5986 C 586.035 4.55218 -0.403206 0
M  V30 5987 C 587.032 5.04583 -1.2527 0
M  V30 5988 C 584.717 4.99134 -0.563117 0
M  V30 5989 C 586.711 5.96463 -2.24745 0
M  V30 5990 C 584.398 5.9082 -1.56124 0
M  V30 5991 C 585.396 6.39375 -2.40184 0
M  V30 5992 O 585.084 7.29255 -3.38293 0
M  V30 5993 H 584.816 0.674588 0.0436772 0
M  V30 5994 H 587.37 1.98688 -0.520782 0
M  V30 5995 H 585.6 3.57122 1.48326 0
M  V30 5996 H 587.289 3.87812 1.19818 0
M  V30 5997 H 588.055 4.71403 -1.14034 0
M  V30 5998 H 583.934 4.60928 0.0813909 0
M  V30 5999 H 587.478 6.34285 -2.90393 0
M  V30 6000 H 583.375 6.23414 -1.67407 0
M  V30 6001 H 584.143 7.47249 -3.34009 0
M  V30 6002 N 586.806 0.0935595 1.57322 0
M  V30 6003 C 588.222 -0.263091 1.57417 0
M  V30 6004 C 588.422 -1.68526 1.1046 0
M  V30 6005 O 587.478 -2.40139 0.780357 0
M  V30 6006 C 588.791 -0.0529201 3.00653 0
M  V30 6007 C 590.339 -0.120788 3.12767 0
M  V30 6008 C 590.814 0.0613707 4.57959 0
M  V30 6009 N 592.305 0.00648534 4.632 0
M  V30 6010 C 593.04 0.122699 5.73269 0
M  V30 6011 N 592.536 0.29366 6.92177 0
M  V30 6012 N 594.329 0.0640787 5.62063 0
M  V30 6013 H 586.48 1.02277 1.86154 0
M  V30 6014 H 588.743 0.4007 0.859153 0
M  V30 6015 H 588.449 0.929279 3.39201 0
M  V30 6016 H 588.323 -0.795899 3.68708 0
M  V30 6017 H 590.71 -1.09349 2.74093 0
M  V30 6018 H 590.791 0.653656 2.47307 0
M  V30 6019 H 590.435 1.03093 4.97327 0
M  V30 6020 H 590.365 -0.732748 5.21477 0
M  V30 6021 H 592.856 -0.123173 3.77699 0
M  V30 6022 H 593.169 0.37389 7.71895 0
M  V30 6023 H 591.514 0.329307 6.94219 0
M  V30 6024 H 594.705 -0.0683396 4.6805 0
M  V30 6025 H 594.878 0.158097 6.47807 0
M  V30 6026 N 588.284 -1.56567 -0.180126 0
M  V30 6027 C 589.514 -1.85349 -0.912647 0
M  V30 6028 C 589.922 -0.675795 -1.76719 0
M  V30 6029 O 589.265 0.3645 -1.80047 0
M  V30 6030 C 589.327 -3.08431 -1.84691 0
M  V30 6031 C 588.991 -4.41694 -1.17284 0
M  V30 6032 C 589.988 -5.17062 -0.542532 0
M  V30 6033 C 587.673 -4.8843 -1.17223 0
M  V30 6034 C 589.667 -6.37351 0.0793953 0
M  V30 6035 C 587.354 -6.08652 -0.54647 0
M  V30 6036 C 588.352 -6.82955 0.0782458 0
M  V30 6037 O 588.04 -8.00897 0.694158 0
M  V30 6038 H 587.772 -0.619286 -0.271036 0
M  V30 6039 H 590.326 -2.0454 -0.187768 0
M  V30 6040 H 588.556 -2.85163 -2.61188 0
M  V30 6041 H 590.245 -3.23733 -2.44851 0
M  V30 6042 H 591.011 -4.8204 -0.535045 0
M  V30 6043 H 586.89 -4.30542 -1.64788 0
M  V30 6044 H 590.434 -6.95287 0.567612 0
M  V30 6045 H 586.331 -6.4314 -0.55151 0
M  V30 6046 H 587.099 -8.16352 0.592537 0
M  V30 6047 N 589.762 0.448376 -1.51087 0
M  V30 6048 C 591.178 0.783984 -1.39017 0
M  V30 6049 C 591.378 1.96087 -0.463904 0
M  V30 6050 O 590.434 2.52357 0.0850534 0
M  V30 6051 C 591.747 1.07471 -2.80839 0
M  V30 6052 C 593.295 1.17981 -2.89913 0
M  V30 6053 C 593.77 1.50354 -4.32617 0
M  V30 6054 N 595.261 1.57301 -4.35673 0
M  V30 6055 C 595.996 1.839 -5.4311 0
M  V30 6056 N 595.492 2.08365 -6.60724 0
M  V30 6057 N 597.285 1.8559 -5.30578 0
M  V30 6058 H 589.436 -0.326881 -2.0987 0
M  V30 6059 H 591.699 -0.0838006 -0.944289 0
M  V30 6060 H 591.405 0.282768 -3.50561 0
M  V30 6061 H 591.279 2.00519 -3.19487 0
M  V30 6062 H 593.666 1.9624 -2.20395 0
M  V30 6063 H 593.747 0.228603 -2.54776 0
M  V30 6064 H 593.391 0.726273 -5.0268 0
M  V30 6065 H 593.321 2.46663 -4.65258 0
M  V30 6066 H 595.812 1.40342 -3.50874 0
M  V30 6067 H 596.125 2.27999 -7.38401 0
M  V30 6068 H 594.47 2.0571 -6.63859 0
M  V30 6069 H 597.661 1.65989 -4.37682 0
M  V30 6070 H 597.834 2.05983 -6.1439 0
M  V30 6071 N 591.24 1.41047 0.703093 0
M  V30 6072 C 592.203 1.42036 1.79884 0
M  V30 6073 C 593.203 0.312153 1.57741 0
M  V30 6074 O 594.393 0.571672 1.64553 0
M  V30 6075 C 591.525 1.22437 3.18154 0
M  V30 6076 H 592.718 2.39572 1.80403 0
M  V30 6077 H 590.271 1.27079 0.909977 0
M  V30 6078 H 591.006 0.257112 3.23279 0
M  V30 6079 H 590.791 2.02723 3.35627 0
M  V30 6080 H 592.281 1.25946 3.98155 0
M  V30 6081 N 592.718 -0.936591 1.26751 0
M  V30 6082 C 593.966 -1.67998 1.12343 0
M  V30 6083 C 594.287 -1.92137 -0.332938 0
M  V30 6084 O 593.557 -1.52132 -1.23421 0
M  V30 6085 H 592.137 -0.622609 0.412756 0
M  V30 6086 H 594.799 -1.12509 1.59147 0
M  V30 6087 H 593.895 -2.65185 1.64571 0
M  V30 6088 N 594.196 -1.08629 -1.14182 0
M  V30 6089 C 595.443 -0.817345 -1.85272 0
M  V30 6090 C 595.771 0.656917 -1.83071 0
M  V30 6091 O 595.026 1.49897 -1.25815 0
M  V30 6092 C 595.325 -1.28734 -3.3341 0
M  V30 6093 C 594.991 -2.76981 -3.55798 0
M  V30 6094 C 593.653 -3.17469 -3.61617 0
M  V30 6095 C 596.005 -3.72605 -3.64438 0
M  V30 6096 C 593.333 -4.52371 -3.736 0
M  V30 6097 C 595.685 -5.07286 -3.77947 0
M  V30 6098 C 594.349 -5.47376 -3.82016 0
M  V30 6099 H 593.619 -0.299088 -0.677958 0
M  V30 6100 H 596.266 -1.35962 -1.34857 0
M  V30 6101 H 594.571 -0.664702 -3.8612 0
M  V30 6102 H 596.268 -1.05598 -3.86846 0
M  V30 6103 H 592.858 -2.44644 -3.51919 0
M  V30 6104 H 597.042 -3.42443 -3.5923 0
M  V30 6105 H 592.298 -4.82882 -3.75013 0
M  V30 6106 H 596.472 -5.81243 -3.83575 0
M  V30 6107 H 594.099 -6.51906 -3.91054 0
M  V30 6108 N 595.674 1.31259 -0.872281 0
M  V30 6109 C 596.92 1.96913 -0.485083 0
M  V30 6110 C 597.253 1.68774 0.960667 0
M  V30 6111 O 596.528 0.985495 1.67685 0
M  V30 6112 C 596.811 3.52299 -0.745502 0
M  V30 6113 C 596.664 3.90002 -2.24095 0
M  V30 6114 C 597.983 4.39582 -0.213516 0
M  V30 6115 H 595.102 0.715252 -0.177716 0
M  V30 6116 H 597.744 1.55347 -1.09395 0
M  V30 6117 H 595.894 3.87835 -0.227276 0
M  V30 6118 H 597.566 3.64555 -2.82661 0
M  V30 6119 H 595.809 3.38526 -2.71261 0
M  V30 6120 H 596.48 4.98352 -2.37381 0
M  V30 6121 H 598.956 4.10882 -0.656902 0
M  V30 6122 H 597.832 5.47251 -0.42516 0
M  V30 6123 H 598.093 4.33158 0.884666 0
M  V30 6124 N 597.152 0.631951 1.44375 0
M  V30 6125 C 598.082 -0.0593243 2.33425 0
M  V30 6126 C 599.063 -0.833964 1.48253 0
M  V30 6127 O 600.248 -0.799682 1.76971 0
M  V30 6128 C 597.378 -1.04096 3.31333 0
M  V30 6129 C 596.332 -0.377899 4.26328 0
M  V30 6130 C 595.658 -1.4695 5.14111 0
M  V30 6131 C 596.958 0.716371 5.17364 0
M  V30 6132 H 598.652 0.684287 2.91475 0
M  V30 6133 H 596.198 0.330518 1.40156 0
M  V30 6134 H 598.151 -1.53331 3.92514 0
M  V30 6135 H 596.875 -1.81547 2.71493 0
M  V30 6136 H 595.534 0.0938054 3.6648 0
M  V30 6137 H 595.182 -2.2349 4.50623 0
M  V30 6138 H 594.882 -1.03121 5.78481 0
M  V30 6139 H 596.406 -1.96363 5.78164 0
M  V30 6140 H 597.82 0.307089 5.72477 0
M  V30 6141 H 596.217 1.07784 5.90341 0
M  V30 6142 H 597.287 1.58316 4.58327 0
M  V30 6143 N 598.631 -1.53133 0.372548 0
M  V30 6144 C 599.594 -2.24569 -0.458389 0
M  V30 6145 C 600.594 -1.25603 -1.00402 0
M  V30 6146 O 601.784 -1.49827 -0.888672 0
M  V30 6147 C 598.916 -2.98783 -1.6414 0
M  V30 6148 H 600.109 -2.99436 0.166799 0
M  V30 6149 H 597.662 -1.55805 0.124357 0
M  V30 6150 H 598.397 -2.28176 -2.30448 0
M  V30 6151 H 598.182 -3.71404 -1.25704 0
M  V30 6152 H 599.672 -3.53068 -2.23008 0
M  V30 6153 N 600.109 -0.101901 -1.5727 0
M  V30 6154 C 601.52 0.426173 -1.81771 0
M  V30 6155 C 601.871 1.67725 -1.01797 0
M  V30 6156 O 600.996 2.14958 -0.249386 0
M  V30 6157 C 601.591 0.779962 -3.297 0
M  V30 6158 C 600.15 1.25275 -3.54941 0
M  V30 6159 C 599.297 0.252814 -2.76145 0
M  V30 6160 H 602.248 -0.32726 -1.55289 0
M  V30 6161 H 602.269 1.63891 -3.43395 0
M  V30 6162 H 601.781 -0.130778 -3.8788 0
M  V30 6163 H 599.882 2.18097 -3.021 0
M  V30 6164 H 599.995 1.20988 -4.63572 0
M  V30 6165 H 598.359 0.736362 -2.43823 0
M  V30 6166 H 599.142 -0.650724 -3.37076 0
M  V30 6167 N 601.587 1.56661 0.17182 0
M  V30 6168 C 602.836 1.81158 0.886831 0
M  V30 6169 C 603.149 0.679072 1.83434 0
M  V30 6170 O 604.355 0.808964 2.59168 0
M  V30 6171 C 602.811 3.20999 1.6275 0
M  V30 6172 C 602.419 4.42117 0.723652 0
M  V30 6173 C 604.163 3.5479 2.33076 0
M  V30 6174 C 602.07 5.7298 1.46452 0
M  V30 6175 H 601 0.675543 0.334899 0
M  V30 6176 H 603.651 1.82967 0.139765 0
M  V30 6177 H 602.033 3.13506 2.4193 0
M  V30 6178 H 603.207 4.60789 -0.0311485 0
M  V30 6179 H 601.522 4.16197 0.130063 0
M  V30 6180 H 604.119 4.49806 2.89099 0
M  V30 6181 H 604.462 2.79646 3.08389 0
M  V30 6182 H 604.995 3.63834 1.6084 0
M  V30 6183 H 601.734 6.51152 0.753729 0
M  V30 6184 H 601.254 5.58285 2.19266 0
M  V30 6185 H 602.933 6.14916 2.01214 0
M  V30 6186 N 603.065 -0.440357 1.51323 0
M  V30 6187 C 604.313 -1.18769 1.63518 0
M  V30 6188 C 604.634 -1.91793 0.352201 0
M  V30 6189 O 603.904 -1.85432 -0.631811 0
M  V30 6190 H 602.484 -0.441408 0.602634 0
M  V30 6191 H 605.146 -0.505162 1.8824 0
M  V30 6192 H 604.242 -1.91892 2.46138 0
M  V30 6193 N 604.543 -1.41418 -0.695603 0
M  V30 6194 C 605.473 -1.46035 -1.82197 0
M  V30 6195 C 606.454 -0.319025 -1.67082 0
M  V30 6196 O 607.639 -0.530462 -1.86815 0
M  V30 6197 C 604.769 -1.34179 -3.20333 0
M  V30 6198 C 603.723 -2.46123 -3.50154 0
M  V30 6199 C 603.049 -2.19332 -4.87645 0
M  V30 6200 C 604.349 -3.88463 -3.49133 0
M  V30 6201 H 606.043 -2.40303 -1.78591 0
M  V30 6202 H 603.589 -1.15663 -0.857797 0
M  V30 6203 H 605.542 -1.36021 -3.98844 0
M  V30 6204 H 604.266 -0.363952 -3.24566 0
M  V30 6205 H 602.925 -2.43563 -2.73994 0
M  V30 6206 H 602.573 -1.19891 -4.88503 0
M  V30 6207 H 602.273 -2.94344 -5.08562 0
M  V30 6208 H 603.797 -2.22889 -5.68465 0
M  V30 6209 H 605.211 -3.92738 -4.17648 0
M  V30 6210 H 603.608 -4.63158 -3.81582 0
M  V30 6211 H 604.678 -4.16617 -2.48109 0
M  V30 6212 N 606.021 0.929856 -1.27246 0
M  V30 6213 C 607.267 1.6798 -1.13625 0
M  V30 6214 C 607.6 1.91586 0.317589 0
M  V30 6215 O 606.875 1.50467 1.23247 0
M  V30 6216 C 607.158 3.04766 -1.91806 0
M  V30 6217 C 607.011 2.88415 -3.45162 0
M  V30 6218 C 608.33 4.05063 -1.72082 0
M  V30 6219 H 605.449 0.609632 -0.414147 0
M  V30 6220 H 608.091 1.0792 -1.56376 0
M  V30 6221 H 606.241 3.56034 -1.55474 0
M  V30 6222 H 607.913 2.44282 -3.91311 0
M  V30 6223 H 606.156 2.23802 -3.71611 0
M  V30 6224 H 606.827 3.85482 -3.95105 0
M  V30 6225 H 609.303 3.62798 -2.03757 0
M  V30 6226 H 608.179 4.98765 -2.29182 0
M  V30 6227 H 608.44 4.37021 -0.668206 0
M  V30 6228 N 607.499 1.09233 1.13605 0
M  V30 6229 C 608.429 0.751738 2.21068 0
M  V30 6230 C 609.41 -0.269688 1.67948 0
M  V30 6231 O 610.595 -0.13819 1.93708 0
M  V30 6232 C 607.725 0.16935 3.46887 0
M  V30 6233 C 606.679 1.12007 4.13084 0
M  V30 6234 C 606.005 0.399483 5.33206 0
M  V30 6235 C 607.305 2.46168 4.6065 0
M  V30 6236 H 608.999 1.65024 2.49815 0
M  V30 6237 H 606.545 0.794905 1.20072 0
M  V30 6238 H 608.498 -0.0809824 4.21322 0
M  V30 6239 H 607.222 -0.764335 3.1753 0
M  V30 6240 H 605.881 1.35564 3.40614 0
M  V30 6241 H 605.529 -0.538277 5.00112 0
M  V30 6242 H 605.229 1.03337 5.78442 0
M  V30 6243 H 606.753 0.157403 6.10397 0
M  V30 6244 H 608.167 2.26829 5.26518 0
M  V30 6245 H 606.564 3.05326 5.1662 0
M  V30 6246 H 607.634 3.07076 3.75276 0
M  V30 6247 N 608.977 -1.30795 0.87923 0
M  V30 6248 C 610.226 -1.95636 0.490875 0
M  V30 6249 C 610.539 -1.70214 -0.963674 0
M  V30 6250 O 611.745 -2.28991 -1.45861 0
M  V30 6251 C 610.201 -3.50271 0.826929 0
M  V30 6252 C 609.809 -3.84521 2.29886 0
M  V30 6253 C 611.553 -4.21456 0.507494 0
M  V30 6254 C 609.46 -5.32309 2.57685 0
M  V30 6255 H 608.39 -0.732238 0.179841 0
M  V30 6256 H 611.041 -1.48829 1.07341 0
M  V30 6257 H 609.423 -3.9562 0.173542 0
M  V30 6258 H 610.597 -3.50102 2.99609 0
M  V30 6259 H 608.912 -3.26425 2.58526 0
M  V30 6260 H 611.509 -5.30199 0.692293 0
M  V30 6261 H 611.852 -4.12614 -0.552718 0
M  V30 6262 H 612.385 -3.81772 1.11782 0
M  V30 6263 H 609.124 -5.46195 3.62424 0
M  V30 6264 H 608.644 -5.68048 1.92566 0
M  V30 6265 H 610.323 -5.99678 2.42889 0
M  V30 6266 N 610.455 -0.639598 -1.44038 0
M  V30 6267 C 611.701 -0.147698 -2.02261 0
M  V30 6268 C 612.034 1.23031 -1.50256 0
M  V30 6269 O 611.309 1.81847 -0.690068 0
M  V30 6270 C 611.592 -0.14362 -3.59813 0
M  V30 6271 C 611.445 -1.55458 -4.22082 0
M  V30 6272 C 612.764 0.527317 -4.36929 0
M  V30 6273 H 609.883 -0.0551453 -0.734934 0
M  V30 6274 H 612.525 -0.817688 -1.71505 0
M  V30 6275 H 610.675 0.426898 -3.86147 0
M  V30 6276 H 612.347 -2.17464 -4.06826 0
M  V30 6277 H 610.59 -2.10594 -3.79253 0
M  V30 6278 H 611.261 -1.50369 -5.31124 0
M  V30 6279 H 613.737 0.0420504 -4.16079 0
M  V30 6280 H 612.613 0.499389 -5.46624 0
M  V30 6281 H 612.874 1.59914 -4.12165 0
M  V30 6282 N 611.933 1.52934 -0.380664 0
M  V30 6283 C 613.181 2.01069 0.203874 0
M  V30 6284 C 613.502 1.26922 1.4804 0
M  V30 6285 O 612.772 0.386787 1.92044 0
M  V30 6286 H 611.352 0.742882 0.0783279 0
M  V30 6287 H 614.014 1.88099 -0.510368 0
M  V30 6288 H 613.11 3.09258 0.42021 0
M  V30 6289 N 613.412 0.11024 1.57214 0
M  V30 6290 C 614.66 -0.548783 1.94506 0
M  V30 6291 C 614.981 -1.67772 0.99386 0
M  V30 6292 O 614.251 -1.9584 0.0485841 0
M  V30 6293 H 612.831 -0.205715 0.718116 0
M  V30 6294 H 615.493 0.177127 1.94093 0
M  V30 6295 H 614.589 -0.949096 2.97319 0
M  V30 6296 N 614.89 -1.56749 -0.16351 0
M  V30 6297 C 616.12 -1.86307 -0.892936 0
M  V30 6298 C 616.528 -0.6945 -1.75992 0
M  V30 6299 O 615.871 0.345384 -1.80424 0
M  V30 6300 C 615.933 -3.10372 -1.81409 0
M  V30 6301 C 615.597 -4.42913 -1.12593 0
M  V30 6302 C 616.594 -5.17608 -0.487661 0
M  V30 6303 C 614.279 -4.89646 -1.12035 0
M  V30 6304 C 616.273 -6.3723 0.14699 0
M  V30 6305 C 613.96 -6.09197 -0.481883 0
M  V30 6306 C 614.958 -6.82834 0.150678 0
M  V30 6307 O 614.646 -8.00116 0.779065 0
M  V30 6308 H 614.378 -0.622126 -0.264452 0
M  V30 6309 H 616.932 -2.04728 -0.166063 0
M  V30 6310 H 615.162 -2.87917 -2.58148 0
M  V30 6311 H 616.851 -3.26312 -2.41403 0
M  V30 6312 H 617.617 -4.8258 -0.483888 0
M  V30 6313 H 613.496 -4.32265 -1.60212 0
M  V30 6314 H 617.04 -6.94646 0.641325 0
M  V30 6315 H 612.937 -6.43688 -0.483266 0
M  V30 6316 H 613.705 -8.15678 0.679089 0
M  V30 6317 N 616.368 0.432326 -1.51554 0
M  V30 6318 C 617.615 1.18134 -1.64471 0
M  V30 6319 C 617.943 1.91076 -0.363349 0
M  V30 6320 O 617.198 1.84492 0.65279 0
M  V30 6321 C 617.497 2.21907 -2.80164 0
M  V30 6322 C 617.163 1.65941 -4.19255 0
M  V30 6323 C 615.825 1.50401 -4.57092 0
M  V30 6324 C 618.177 1.24843 -5.06027 0
M  V30 6325 C 615.505 0.922443 -5.79403 0
M  V30 6326 C 617.857 0.68113 -6.28922 0
M  V30 6327 C 616.521 0.512673 -6.65528 0
M  V30 6328 H 615.791 0.432283 -0.601841 0
M  V30 6329 H 618.438 0.471701 -1.856 0
M  V30 6330 H 616.743 2.98928 -2.53277 0
M  V30 6331 H 618.44 2.79691 -2.87357 0
M  V30 6332 H 615.03 1.79014 -3.89425 0
M  V30 6333 H 619.214 1.35667 -4.77397 0
M  V30 6334 H 614.47 0.779733 -6.06408 0
M  V30 6335 H 618.644 0.35418 -6.95499 0
M  V30 6336 H 616.271 0.0599084 -7.60176 0
M  V30 6337 N 617.846 1.41785 0.688094 0
M  V30 6338 C 618.776 1.47 1.8142 0
M  V30 6339 C 619.757 0.327881 1.6691 0
M  V30 6340 O 620.942 0.540362 1.86531 0
M  V30 6341 C 618.072 1.35876 3.19617 0
M  V30 6342 C 617.026 2.47976 3.48844 0
M  V30 6343 C 616.352 2.21915 4.86475 0
M  V30 6344 C 617.652 3.90309 3.47068 0
M  V30 6345 H 619.346 2.41247 1.77314 0
M  V30 6346 H 616.892 1.16116 0.851651 0
M  V30 6347 H 618.845 1.38134 3.98117 0
M  V30 6348 H 617.569 0.38116 3.24368 0
M  V30 6349 H 616.228 2.45013 2.72698 0
M  V30 6350 H 615.876 1.2248 4.8786 0
M  V30 6351 H 615.576 2.97037 5.06994 0
M  V30 6352 H 617.1 2.25901 5.67275 0
M  V30 6353 H 618.514 3.94947 4.1556 0
M  V30 6354 H 616.911 4.65175 3.7912 0
M  V30 6355 H 617.981 4.17927 2.45896 0
M  V30 6356 N 619.324 -0.923095 1.27737 0
M  V30 6357 C 620.573 -1.66581 1.13727 0
M  V30 6358 C 620.886 -1.9304 -0.315433 0
M  V30 6359 O 622.092 -2.65309 -0.57651 0
M  V30 6360 C 620.548 -3.00047 1.98745 0
M  V30 6361 C 620.156 -2.8127 3.48699 0
M  V30 6362 C 621.9 -3.77887 1.93395 0
M  V30 6363 C 619.807 -4.1032 4.25901 0
M  V30 6364 H 618.737 -0.624834 0.422017 0
M  V30 6365 H 621.388 -1.02514 1.52194 0
M  V30 6366 H 619.77 -3.65197 1.53125 0
M  V30 6367 H 620.944 -2.24859 4.02213 0
M  V30 6368 H 619.259 -2.16854 3.55476 0
M  V30 6369 H 621.856 -4.73526 2.48348 0
M  V30 6370 H 622.199 -4.06264 0.908605 0
M  V30 6371 H 622.732 -3.19541 2.36935 0
M  V30 6372 H 619.471 -3.8712 5.28978 0
M  V30 6373 H 618.991 -4.66377 3.77163 0
M  V30 6374 H 620.67 -4.78648 4.35321 0
M  V30 6375 N 620.802 -1.09834 -1.13024 0
M  V30 6376 C 622.218 -0.828875 -1.36388 0
M  V30 6377 C 622.418 0.554756 -1.93713 0
M  V30 6378 O 621.474 1.30882 -2.15931 0
M  V30 6379 C 622.787 -1.92352 -2.3113 0
M  V30 6380 C 624.335 -1.95124 -2.44735 0
M  V30 6381 C 624.81 -3.03745 -3.42787 0
M  V30 6382 N 626.301 -3.03012 -3.5034 0
M  V30 6383 C 627.036 -3.83699 -4.26101 0
M  V30 6384 N 626.532 -4.74306 -5.04981 0
M  V30 6385 N 628.325 -3.71942 -4.21445 0
M  V30 6386 H 620.476 -1.99029 -0.74169 0
M  V30 6387 H 622.739 -0.864557 -0.388903 0
M  V30 6388 H 622.445 -2.91906 -1.96172 0
M  V30 6389 H 622.319 -1.80536 -3.3119 0
M  V30 6390 H 624.706 -0.962069 -2.78977 0
M  V30 6391 H 624.787 -2.11018 -1.44586 0
M  V30 6392 H 624.431 -4.02878 -3.09276 0
M  V30 6393 H 624.361 -2.85094 -4.42752 0
M  V30 6394 H 626.852 -2.37352 -2.94062 0
M  V30 6395 H 627.165 -5.32446 -5.60108 0
M  V30 6396 H 625.51 -4.78339 -5.04199 0
M  V30 6397 H 628.701 -3.00513 -3.589 0
M  V30 6398 H 628.874 -4.35062 -4.80235 0
M  V30 6399 N 622.28 1.30327 -0.886154 0
M  V30 6400 C 623.528 1.9571 -0.504195 0
M  V30 6401 C 623.849 1.70294 0.950003 0
M  V30 6402 O 623.119 1.02718 1.66811 0
M  V30 6403 H 621.699 0.72412 -0.183465 0
M  V30 6404 H 624.361 1.58835 -1.12949 0
M  V30 6405 H 623.457 3.04704 -0.675431 0
M  V30 6406 N 623.758 0.647228 1.43697 0
M  V30 6407 C 625.004 0.158422 2.0218 0
M  V30 6408 C 625.337 -1.22233 1.50907 0
M  V30 6409 O 624.612 -1.81478 0.699702 0
M  V30 6410 C 624.895 0.1627 3.59732 0
M  V30 6411 C 624.748 1.57694 4.21251 0
M  V30 6412 C 626.067 -0.504138 4.37203 0
M  V30 6413 H 623.186 0.059042 0.734631 0
M  V30 6414 H 625.828 0.826772 1.71069 0
M  V30 6415 H 623.978 -0.406414 3.86368 0
M  V30 6416 H 625.65 2.19618 4.05667 0
M  V30 6417 H 623.893 2.12603 3.7813 0
M  V30 6418 H 624.564 1.53183 5.3032 0
M  V30 6419 H 627.04 -0.0199841 4.16095 0
M  V30 6420 H 625.916 -0.470394 5.46881 0
M  V30 6421 H 626.177 -1.57726 4.13007 0
M  V30 6422 N 625.236 -1.5273 0.388769 0
M  V30 6423 C 626.169 -2.22861 -0.490752 0
M  V30 6424 C 627.147 -1.22912 -1.06449 0
M  V30 6425 O 628.331 -1.51896 -1.11624 0
M  V30 6426 C 625.458 -2.94141 -1.67925 0
M  V30 6427 C 624.504 -4.08355 -1.23081 0
M  V30 6428 S 625.337 -5.35077 -0.212786 0
M  V30 6429 C 626.493 -6.09879 -1.40708 0
M  V30 6430 H 626.726 -2.97115 0.104787 0
M  V30 6431 H 624.259 -1.53428 0.172956 0
M  V30 6432 H 626.217 -3.35818 -2.36085 0
M  V30 6433 H 624.878 -2.19568 -2.24608 0
M  V30 6434 H 624.071 -4.57328 -2.11818 0
M  V30 6435 H 623.673 -3.68688 -0.628121 0
M  V30 6436 H 625.965 -6.36018 -2.33424 0
M  V30 6437 H 626.908 -7.01586 -0.958271 0
M  V30 6438 H 627.316 -5.40646 -1.62364 0
M  V30 6439 N 626.714 -0.118576 -1.57153 0
M  V30 6440 C 627.942 0.54726 -1.99531 0
M  V30 6441 C 628.357 1.60251 -0.998246 0
M  V30 6442 O 627.714 1.82498 0.00893106 0
M  V30 6443 C 627.765 1.17378 -3.41913 0
M  V30 6444 O 627.486 0.160703 -4.37805 0
M  V30 6445 C 628.987 1.92297 -3.9942 0
M  V30 6446 H 626.207 0.144919 -0.655164 0
M  V30 6447 H 628.751 -0.20479 -2.03472 0
M  V30 6448 H 626.906 1.87661 -3.38913 0
M  V30 6449 H 627.32 0.61586 -5.20872 0
M  V30 6450 H 628.794 2.31462 -5.01128 0
M  V30 6451 H 629.271 2.79801 -3.38538 0
M  V30 6452 H 629.877 1.26777 -4.05965 0
M  V30 6453 N 628.193 1.56834 0.155195 0
M  V30 6454 C 629.123 2.00678 1.19376 0
M  V30 6455 C 630.104 0.884973 1.45266 0
M  V30 6456 O 631.289 1.1522 1.56326 0
M  V30 6457 C 628.419 2.38042 2.5289 0
M  V30 6458 C 627.373 3.53332 2.41538 0
M  V30 6459 C 626.699 3.76485 3.79688 0
M  V30 6460 C 627.999 4.86265 1.9064 0
M  V30 6461 H 629.693 2.87688 0.829232 0
M  V30 6462 H 627.239 1.38407 0.397445 0
M  V30 6463 H 629.192 2.67314 3.25763 0
M  V30 6464 H 627.916 1.4796 2.91162 0
M  V30 6465 H 626.575 3.24213 1.71117 0
M  V30 6466 H 626.223 2.83667 4.15382 0
M  V30 6467 H 625.923 4.54068 3.72956 0
M  V30 6468 H 627.447 4.08174 4.54122 0
M  V30 6469 H 628.861 5.14308 2.53299 0
M  V30 6470 H 627.258 5.67597 1.94818 0
M  V30 6471 H 628.328 4.77184 0.861596 0
M  V30 6472 N 629.671 -0.424282 1.51781 0
M  V30 6473 C 630.918 -1.1726 1.65095 0
M  V30 6474 C 631.246 -1.90881 0.373477 0
M  V30 6475 O 630.501 -1.84835 -0.642997 0
M  V30 6476 C 630.8 -2.20418 2.81337 0
M  V30 6477 C 630.466 -1.63715 4.20129 0
M  V30 6478 C 629.128 -1.47975 4.57883 0
M  V30 6479 C 631.48 -1.22157 5.06682 0
M  V30 6480 C 628.808 -0.891703 5.79884 0
M  V30 6481 C 631.16 -0.647767 6.29275 0
M  V30 6482 C 629.824 -0.477371 6.65791 0
M  V30 6483 H 629.094 -0.429085 0.604125 0
M  V30 6484 H 631.741 -0.461852 1.85847 0
M  V30 6485 H 630.046 -2.97581 2.54859 0
M  V30 6486 H 631.743 -2.78163 2.88836 0
M  V30 6487 H 628.333 -1.76946 3.90369 0
M  V30 6488 H 632.517 -1.33133 4.7811 0
M  V30 6489 H 627.773 -0.747563 6.06813 0
M  V30 6490 H 631.947 -0.317291 6.95677 0
M  V30 6491 H 629.574 -0.0195936 7.60197 0
M  V30 6492 N 631.149 -1.42148 -0.680565 0
M  V30 6493 C 632.374 -1.45901 -1.47403 0
M  V30 6494 C 632.799 -0.0700985 -1.87969 0
M  V30 6495 O 632.157 0.930145 -1.55621 0
M  V30 6496 C 632.205 -2.38661 -2.70321 0
M  V30 6497 O 631.309 -1.85399 -3.68376 0
M  V30 6498 H 630.65 -0.494565 -0.443059 0
M  V30 6499 H 633.18 -1.86774 -0.835251 0
M  V30 6500 H 633.19 -2.55046 -3.18458 0
M  V30 6501 H 631.865 -3.39571 -2.40134 0
M  V30 6502 H 630.442 -1.78541 -3.2738 0
M  V30 6503 N 632.627 0.916307 -1.28225 0
M  V30 6504 C 633.876 1.65975 -1.14608 0
M  V30 6505 C 634.189 1.93204 0.305191 0
M  V30 6506 O 635.395 2.65611 0.562432 0
M  V30 6507 C 633.851 2.98989 -2.00333 0
M  V30 6508 C 633.459 2.79417 -3.50186 0
M  V30 6509 C 635.203 3.76856 -1.95397 0
M  V30 6510 C 633.11 4.08056 -4.28071 0
M  V30 6511 H 632.04 0.622587 -0.425324 0
M  V30 6512 H 634.691 1.01705 -1.52736 0
M  V30 6513 H 633.073 3.6438 -1.5506 0
M  V30 6514 H 634.247 2.22723 -4.034 0
M  V30 6515 H 632.562 2.14966 -3.56621 0
M  V30 6516 H 635.159 4.72203 -2.50856 0
M  V30 6517 H 635.502 4.05776 -0.930137 0
M  V30 6518 H 636.035 3.1828 -2.38626 0
M  V30 6519 H 632.774 3.8431 -5.31024 0
M  V30 6520 H 632.294 4.64371 -3.79631 0
M  V30 6521 H 633.973 4.76333 -4.37854 0
M  V30 6522 N 634.105 1.10431 1.1244 0
M  V30 6523 C 635.052 0.753103 2.18167 0
M  V30 6524 C 636.022 -0.270549 1.63882 0
M  V30 6525 O 637.207 -0.149837 1.90211 0
M  V30 6526 C 634.347 0.191046 3.44571 0
M  V30 6527 C 633.46 1.26999 4.12911 0
M  V30 6528 C 632.595 0.669586 5.26963 0
M  V30 6529 C 631.634 1.72912 5.87169 0
M  V30 6530 N 630.771 1.14898 6.92635 0
M  V30 6531 H 635.611 1.65892 2.47556 0
M  V30 6532 H 633.148 0.828631 1.21541 0
M  V30 6533 H 635.106 -0.152712 4.1692 0
M  V30 6534 H 633.736 -0.677997 3.15599 0
M  V30 6535 H 632.788 1.73087 3.3874 0
M  V30 6536 H 634.1 2.07204 4.53727 0
M  V30 6537 H 633.254 0.275274 6.06075 0
M  V30 6538 H 631.993 -0.163895 4.87425 0
M  V30 6539 H 630.998 2.13286 5.06744 0
M  V30 6540 H 632.223 2.56544 6.28778 0
M  V30 6541 H 630.169 0.336956 6.55134 0
M  V30 6542 H 630.086 1.88786 7.32049 0
M  V30 6543 H 631.354 0.78121 7.75576 0
M  V30 6544 N 635.583 -1.29855 0.893053 0
M  V30 6545 C 636.808 -2.00512 0.530066 0
M  V30 6546 C 637.233 -1.66446 -0.876199 0
M  V30 6547 O 636.591 -0.885446 -1.58207 0
M  V30 6548 C 636.639 -3.53308 0.721505 0
M  V30 6549 O 635.743 -4.11764 -0.228994 0
M  V30 6550 H 635.084 -0.630617 0.207891 0
M  V30 6551 H 637.614 -1.6551 1.20282 0
M  V30 6552 H 637.624 -4.03206 0.623599 0
M  V30 6553 H 636.299 -3.77439 1.74678 0
M  V30 6554 H 634.876 -3.72805 -0.0841034 0
M  V30 6555 N 637.061 -0.65484 -1.43351 0
M  V30 6556 C 638.009 0.0476784 -2.32551 0
M  V30 6557 C 639.003 0.811403 -1.48703 0
M  V30 6558 O 640.209 0.721621 -1.64902 0
M  V30 6559 H 636.584 0.0342038 -0.751222 0
M  V30 6560 H 638.555 -0.722342 -2.89525 0
M  V30 6561 C 637.304 0.999251 -3.33032 0
M  V30 6562 H 636.627 0.421005 -3.97577 0
M  V30 6563 H 638.067 1.45986 -3.98076 0
M  V30 6564 C 636.526 2.09606 -2.63756 0
M  V30 6565 O 637.056 3.18004 -2.4543 0
M  V30 6566 N 635.262 1.86207 -2.23103 0
M  V30 6567 H 634.809 0.980555 -2.38208 0
M  V30 6568 H 634.767 2.59787 -1.77081 0
M  V30 6569 N 638.539 1.52521 -0.396863 0
M  V30 6570 C 639.489 2.2348 0.451722 0
M  V30 6571 C 640.473 1.2415 1.0235 0
M  V30 6572 O 641.665 1.4945 0.948348 0
M  V30 6573 C 638.794 3.05067 1.57445 0
M  V30 6574 C 637.88 4.11799 1.01404 0
M  V30 6575 N 638.271 5.05482 0.179234 0
M  V30 6576 C 636.569 4.27064 1.28578 0
M  V30 6577 C 637.27 5.81552 -0.131202 0
M  V30 6578 N 636.246 5.41523 0.474735 0
M  V30 6579 H 640.048 2.93269 -0.192534 0
M  V30 6580 H 637.562 1.61081 -0.206591 0
M  V30 6581 H 639.559 3.54446 2.19485 0
M  V30 6582 H 638.219 2.36816 2.22145 0
M  V30 6583 H 639.23 5.17573 -0.18411 0
M  V30 6584 H 635.907 3.70042 1.93327 0
M  V30 6585 H 637.297 6.67023 -0.808061 0
M  V30 6586 N 640.017 0.126909 1.57088 0
M  V30 6587 C 641.428 -0.397201 1.82426 0
M  V30 6588 C 641.779 -1.66084 1.04453 0
M  V30 6589 O 640.904 -2.14534 0.283552 0
M  V30 6590 C 641.499 -0.727411 3.30899 0
M  V30 6591 C 640.058 -1.19612 3.56889 0
M  V30 6592 C 639.205 -0.20885 2.76512 0
M  V30 6593 H 642.156 0.351924 1.54749 0
M  V30 6594 H 642.177 -1.58407 3.45959 0
M  V30 6595 H 641.689 0.19247 3.87622 0
M  V30 6596 H 639.79 -2.13263 3.05532 0
M  V30 6597 H 639.903 -1.13598 4.65438 0
M  V30 6598 H 638.267 -0.697479 2.44964 0
M  V30 6599 H 639.05 0.704267 3.35998 0
M  V30 6600 N 641.495 -1.56914 -0.146875 0
M  V30 6601 C 642.743 -1.82994 -0.85777 0
M  V30 6602 C 643.064 -0.707814 -1.817 0
M  V30 6603 O 642.334 0.270521 -1.94023 0
M  V30 6604 H 640.914 -0.675106 -0.319751 0
M  V30 6605 H 643.576 -1.9439 -0.140849 0
M  V30 6606 H 642.672 -2.77928 -1.41994 0
M  V30 6607 N 642.974 0.416227 -1.52004 0
M  V30 6608 C 643.904 1.51365 -1.77795 0
M  V30 6609 C 644.885 1.58059 -0.628601 0
M  V30 6610 O 646.07 1.73447 -0.873478 0
M  V30 6611 C 643.2 2.89256 -1.92219 0
M  V30 6612 C 642.154 2.97415 -3.0778 0
M  V30 6613 C 641.48 4.37492 -3.07417 0
M  V30 6614 C 642.78 2.69551 -4.47369 0
M  V30 6615 H 644.474 1.30033 -2.69688 0
M  V30 6616 H 642.02 0.624112 -1.29772 0
M  V30 6617 H 643.973 3.66008 -2.08845 0
M  V30 6618 H 642.697 3.11866 -0.969917 0
M  V30 6619 H 641.356 2.23107 -2.90893 0
M  V30 6620 H 641.004 4.571 -2.09925 0
M  V30 6621 H 640.704 4.43877 -3.85029 0
M  V30 6622 H 642.228 5.16188 -3.26162 0
M  V30 6623 H 643.642 3.36028 -4.64497 0
M  V30 6624 H 642.039 2.87321 -5.26846 0
M  V30 6625 H 643.109 1.65029 -4.55953 0
M  V30 6626 N 644.452 1.42507 0.673017 0
M  V30 6627 C 645.382 1.48916 1.79851 0
M  V30 6628 C 646.363 0.345566 1.66553 0
M  V30 6629 O 647.548 0.560116 1.85947 0
M  V30 6630 C 644.678 1.39258 3.18158 0
M  V30 6631 C 643.632 2.51662 3.46194 0
M  V30 6632 C 642.958 2.27062 4.84094 0
M  V30 6633 C 644.258 3.93968 3.42909 0
M  V30 6634 H 645.952 2.43114 1.74745 0
M  V30 6635 H 643.498 1.17013 0.839288 0
M  V30 6636 H 645.451 1.42349 3.96629 0
M  V30 6637 H 644.175 0.415542 3.23946 0
M  V30 6638 H 642.834 2.47891 2.70084 0
M  V30 6639 H 642.482 1.27648 4.86534 0
M  V30 6640 H 642.182 3.02398 5.03815 0
M  V30 6641 H 643.706 2.31905 5.64847 0
M  V30 6642 H 645.12 3.99332 4.11347 0
M  V30 6643 H 643.517 4.6917 3.74165 0
M  V30 6644 H 644.587 4.20512 2.41449 0
M  V30 6645 N 645.93 -0.909495 1.28709 0
M  V30 6646 C 647.155 -1.69801 1.1909 0
M  V30 6647 C 647.58 -1.86479 -0.246388 0
M  V30 6648 O 646.938 -1.37802 -1.17815 0
M  V30 6649 C 646.986 -3.06543 1.89904 0
M  V30 6650 O 646.09 -3.94268 1.2094 0
M  V30 6651 H 645.431 -0.519783 0.413185 0
M  V30 6652 H 647.961 -1.13689 1.70106 0
M  V30 6653 H 647.971 -3.56748 1.97977 0
M  V30 6654 H 646.646 -2.93722 2.94449 0
M  V30 6655 H 645.223 -3.52702 1.2106 0
M  V30 6656 N 647.408 -1.11026 -1.11852 0
M  V30 6657 C 648.318 -0.777252 -2.2135 0
M  V30 6658 C 649.334 0.227821 -1.72502 0
M  V30 6659 O 650.51 0.0650587 -2.01295 0
M  V30 6660 C 647.575 -0.220668 -3.45997 0
M  V30 6661 C 646.636 -1.2838 -4.09655 0
M  V30 6662 C 645.869 -0.753678 -5.28352 0
M  V30 6663 O 646.092 0.417779 -5.68868 0
M  V30 6664 O 645.026 -1.51647 -5.82483 0
M  V30 6665 H 648.852 -1.69141 -2.5224 0
M  V30 6666 H 646.437 -0.885836 -1.20305 0
M  V30 6667 H 648.319 0.0855756 -4.21313 0
M  V30 6668 H 646.994 0.666262 -3.16769 0
M  V30 6669 H 645.901 -1.64299 -3.3609 0
M  V30 6670 H 647.234 -2.14396 -4.43052 0
M  V30 6671 N 648.886 1.2938 -0.899927 0
M  V30 6672 C 649.833 2.27713 -0.376243 0
M  V30 6673 C 650.803 1.57016 0.541774 0
M  V30 6674 O 651.988 1.84997 0.466966 0
M  V30 6675 C 649.128 3.42889 0.39 0
M  V30 6676 C 648.241 4.28369 -0.558938 0
M  V30 6677 C 647.376 5.30726 0.224379 0
M  V30 6678 C 646.415 6.07862 -0.719068 0
M  V30 6679 N 645.552 7.02094 0.0298569 0
M  V30 6680 H 650.392 2.71888 -1.21988 0
M  V30 6681 H 647.929 1.33724 -0.612879 0
M  V30 6682 H 649.887 4.08443 0.850314 0
M  V30 6683 H 648.517 2.99743 1.19809 0
M  V30 6684 H 647.569 3.62986 -1.13777 0
M  V30 6685 H 648.881 4.82068 -1.2811 0
M  V30 6686 H 648.035 6.02098 0.745881 0
M  V30 6687 H 646.774 4.77759 0.979674 0
M  V30 6688 H 645.779 5.35353 -1.25207 0
M  V30 6689 H 647.004 6.62917 -1.4737 0
M  V30 6690 H 644.95 6.51496 0.767415 0
M  V30 6691 H 644.867 7.5335 -0.632391 0
M  V30 6692 H 646.135 7.77685 0.531615 0
M  V30 6693 N 650.364 0.662433 1.43002 0
M  V30 6694 C 651.327 -0.0142016 2.29196 0
M  V30 6695 C 652.327 -0.741394 1.42688 0
M  V30 6696 O 653.517 -0.581257 1.64216 0
M  V30 6697 C 650.649 -1.03084 3.24941 0
M  V30 6698 H 651.842 0.7443 2.90517 0
M  V30 6699 H 649.395 0.424133 1.50435 0
M  V30 6700 H 650.13 -1.81826 2.68533 0
M  V30 6701 H 649.915 -0.512946 3.8873 0
M  V30 6702 H 651.405 -1.50308 3.89612 0
M  V30 6703 N 651.842 -1.52309 0.404946 0
M  V30 6704 C 652.805 -2.25491 -0.410651 0
M  V30 6705 C 653.805 -1.27704 -0.977154 0
M  V30 6706 O 654.995 -1.51679 -0.856691 0
M  V30 6707 C 652.127 -3.02197 -1.57765 0
M  V30 6708 H 653.32 -2.99015 0.230277 0
M  V30 6709 H 650.873 -1.55506 0.157377 0
M  V30 6710 H 651.608 -2.33013 -2.25556 0
M  V30 6711 H 651.393 -3.73987 -1.17797 0
M  V30 6712 H 652.883 -3.57719 -2.15469 0
M  V30 6713 N 653.32 -0.135238 -1.57019 0
M  V30 6714 C 654.545 0.529343 -2.00531 0
M  V30 6715 C 654.97 1.58391 -1.01459 0
M  V30 6716 O 654.328 1.81296 0.0113986 0
M  V30 6717 C 654.376 1.11748 -3.42848 0
M  V30 6718 O 653.48 2.23267 -3.46736 0
M  V30 6719 H 652.821 0.130669 -0.651016 0
M  V30 6720 H 655.351 -0.228503 -2.0332 0
M  V30 6721 H 655.361 1.44905 -3.81401 0
M  V30 6722 H 654.036 0.345147 -4.14465 0
M  V30 6723 H 652.613 1.91428 -3.20015 0
M  V30 6724 N 654.798 1.5699 0.138552 0
M  V30 6725 C 655.745 1.98899 1.17081 0
M  V30 6726 C 656.715 0.857922 1.42228 0
M  V30 6727 O 657.9 1.12065 1.54422 0
M  V30 6728 C 655.04 2.38189 2.4972 0
M  V30 6729 C 654.153 3.64624 2.31674 0
M  V30 6730 C 653.288 3.9298 3.57407 0
M  V30 6731 C 652.327 5.1266 3.34435 0
M  V30 6732 N 651.464 5.36983 4.5232 0
M  V30 6733 H 656.304 2.86881 0.80642 0
M  V30 6734 H 653.841 1.41925 0.386727 0
M  V30 6735 H 655.799 2.59 3.2707 0
M  V30 6736 H 654.429 1.53275 2.84089 0
M  V30 6737 H 653.481 3.51542 1.45337 0
M  V30 6738 H 654.793 4.52131 2.10664 0
M  V30 6739 H 653.947 4.14335 4.43183 0
M  V30 6740 H 652.686 3.03912 3.8143 0
M  V30 6741 H 651.691 4.9117 2.47048 0
M  V30 6742 H 652.916 6.03288 3.11802 0
M  V30 6743 H 650.862 4.50871 4.76499 0
M  V30 6744 H 650.779 6.18775 4.34343 0
M  V30 6745 H 652.047 5.62842 5.39285 0
M  V30 6746 N 656.276 -0.40816 1.52223 0
M  V30 6747 C 657.525 -1.15212 1.65557 0
M  V30 6748 C 657.838 -1.9163 0.392096 0
M  V30 6749 O 659.044 -2.68458 0.405256 0
M  V30 6750 C 657.5 -2.09691 2.92502 0
M  V30 6751 C 657.108 -1.38785 4.25961 0
M  V30 6752 C 658.852 -2.8434 3.152 0
M  V30 6753 C 656.759 -2.31919 5.44029 0
M  V30 6754 H 655.689 -0.433776 0.616729 0
M  V30 6755 H 658.34 -0.4165 1.78711 0
M  V30 6756 H 656.722 -2.8681 2.7305 0
M  V30 6757 H 657.896 -0.670248 4.55899 0
M  V30 6758 H 656.211 -0.761741 4.09373 0
M  V30 6759 H 658.808 -3.54166 4.00587 0
M  V30 6760 H 659.151 -3.47344 2.29473 0
M  V30 6761 H 659.684 -2.14321 3.35129 0
M  V30 6762 H 656.423 -1.7356 6.32105 0
M  V30 6763 H 655.943 -3.0165 5.18428 0
M  V30 6764 H 657.622 -2.92424 5.77146 0
M  V30 6765 N 657.755 -1.42862 -0.66545 0
M  V30 6766 C 658.703 -1.47319 -1.8 0
M  V30 6767 C 659.697 -0.347963 -1.65788 0
M  V30 6768 O 660.903 -0.521406 -1.72283 0
M  V30 6769 H 657.278 -0.461588 -0.593667 0
M  V30 6770 H 659.249 -2.42876 -1.7336 0
M  V30 6771 C 657.998 -1.40152 -3.18203 0
M  V30 6772 H 657.321 -2.26035 -3.2977 0
M  V30 6773 H 658.761 -1.47331 -3.9758 0
M  V30 6774 C 657.22 -0.117493 -3.36695 0
M  V30 6775 O 657.75 0.826058 -3.93115 0
M  V30 6776 N 655.956 -0.0316218 -2.90583 0
M  V30 6777 H 655.503 -0.800247 -2.44855 0
M  V30 6778 H 655.461 0.826835 -3.03333 0
M  V30 6779 N 659.233 0.902656 -1.29189 0
M  V30 6780 C 660.143 2.03946 -1.15944 0
M  V30 6781 C 661.159 1.738 -0.0833803 0
M  V30 6782 O 662.335 1.9923 -0.29487 0
M  V30 6783 C 659.4 3.36519 -0.834006 0
M  V30 6784 C 658.461 3.80203 -1.9936 0
M  V30 6785 C 657.694 5.06449 -1.68359 0
M  V30 6786 O 657.917 5.67202 -0.603141 0
M  V30 6787 O 656.851 5.46114 -2.53067 0
M  V30 6788 H 660.677 2.18043 -2.11403 0
M  V30 6789 H 658.262 1.02584 -1.08613 0
M  V30 6790 H 660.144 4.16089 -0.666949 0
M  V30 6791 H 658.819 3.23573 0.0908245 0
M  V30 6792 H 657.726 3.01413 -2.21588 0
M  V30 6793 H 659.059 3.97729 -2.89952 0
M  V30 6794 N 660.711 1.11618 1.11262 0
M  V30 6795 C 661.939 0.888739 1.8684 0
M  V30 6796 C 662.354 -0.561558 1.80255 0
M  V30 6797 O 661.711 -1.38782 1.18515 0
M  V30 6798 C 661.762 1.34422 3.35579 0
M  V30 6799 O 661.483 2.73766 3.42029 0
M  V30 6800 C 662.984 1.15246 4.28058 0
M  V30 6801 H 660.204 0.318152 0.590779 0
M  V30 6802 H 662.748 1.48398 1.40707 0
M  V30 6803 H 660.903 0.79239 3.7921 0
M  V30 6804 H 661.317 2.9355 4.34659 0
M  V30 6805 H 662.791 1.52015 5.30656 0
M  V30 6806 H 663.268 0.0922007 4.39103 0
M  V30 6807 H 663.874 1.69136 3.90222 0
M  V30 6808 N 662.189 -1.289 0.906776 0
M  V30 6809 C 663.122 -2.25737 0.334362 0
M  V30 6810 C 664.1 -1.52745 -0.557474 0
M  V30 6811 O 665.284 -1.81673 -0.502697 0
M  V30 6812 C 662.411 -3.34642 -0.522716 0
M  V30 6813 C 661.457 -4.25424 0.302777 0
M  V30 6814 S 662.29 -5.07629 1.70508 0
M  V30 6815 C 663.446 -6.20031 0.855118 0
M  V30 6816 H 663.679 -2.73941 1.15514 0
M  V30 6817 H 661.212 -1.37233 0.707573 0
M  V30 6818 H 663.17 -3.97845 -1.01141 0
M  V30 6819 H 661.831 -2.85119 -1.31781 0
M  V30 6820 H 661.024 -5.02767 -0.352257 0
M  V30 6821 H 660.626 -3.66908 0.724873 0
M  V30 6822 H 662.918 -6.77451 0.0816418 0
M  V30 6823 H 663.861 -6.89767 1.60087 0
M  V30 6824 H 664.269 -5.63035 0.406375 0
M  V30 6825 N 663.667 -0.670007 -1.42649 0
M  V30 6826 C 664.597 -0.00258501 -2.335 0
M  V30 6827 C 665.578 0.794364 -1.50412 0
M  V30 6828 O 666.763 0.75248 -1.79029 0
M  V30 6829 C 663.893 0.952748 -3.33976 0
M  V30 6830 C 662.847 0.264733 -4.2718 0
M  V30 6831 C 662.173 1.33267 -5.17826 0
M  V30 6832 C 663.473 -0.853289 -5.15283 0
M  V30 6833 H 665.167 -0.761326 -2.89559 0
M  V30 6834 H 662.713 -0.367561 -1.3923 0
M  V30 6835 H 664.666 1.4287 -3.96442 0
M  V30 6836 H 663.39 1.74285 -2.7621 0
M  V30 6837 H 662.049 -0.190938 -3.66102 0
M  V30 6838 H 661.697 2.11464 -4.5639 0
M  V30 6839 H 661.397 0.877476 -5.81011 0
M  V30 6840 H 662.921 1.80965 -5.83167 0
M  V30 6841 H 664.335 -0.458763 -5.71462 0
M  V30 6842 H 662.732 -1.23398 -5.87276 0
M  V30 6843 H 663.802 -1.70412 -4.53969 0
M  V30 6844 N 665.145 1.52092 -0.413018 0
M  V30 6845 C 666.561 1.59471 -0.0640836 0
M  V30 6846 C 666.761 1.42562 1.42402 0
M  V30 6847 O 665.817 1.25453 2.19129 0
M  V30 6848 C 667.13 2.95392 -0.562474 0
M  V30 6849 C 668.678 3.08637 -0.520788 0
M  V30 6850 C 669.153 4.47044 -0.995752 0
M  V30 6851 N 670.644 4.53296 -0.952732 0
M  V30 6852 C 671.379 5.58669 -1.29138 0
M  V30 6853 N 670.875 6.71576 -1.70168 0
M  V30 6854 N 672.668 5.48898 -1.2111 0
M  V30 6855 H 664.819 1.6133 -1.38153 0
M  V30 6856 H 667.082 0.75916 -0.567785 0
M  V30 6857 H 666.788 3.13059 -1.60271 0
M  V30 6858 H 666.662 3.77191 0.0257875 0
M  V30 6859 H 669.049 2.90652 0.510412 0
M  V30 6860 H 669.13 2.28735 -1.14515 0
M  V30 6861 H 668.774 4.65773 -2.0253 0
M  V30 6862 H 668.704 5.25448 -0.348162 0
M  V30 6863 H 671.195 3.72248 -0.651119 0
M  V30 6864 H 671.508 7.47973 -1.9431 0
M  V30 6865 H 669.853 6.72847 -1.74075 0
M  V30 6866 H 673.044 4.59573 -0.889396 0
M  V30 6867 H 673.217 6.30912 -1.47833 0
M  V30 6868 N 666.623 0.143563 1.56945 0
M  V30 6869 C 667.553 -0.7936 2.196 0
M  V30 6870 C 668.534 -1.25955 1.14321 0
M  V30 6871 O 669.719 -1.31773 1.42651 0
M  V30 6872 C 666.849 -2.03424 2.81489 0
M  V30 6873 C 665.803 -1.70519 3.92565 0
M  V30 6874 C 665.129 -3.01817 4.41373 0
M  V30 6875 C 666.429 -0.95449 5.13504 0
M  V30 6876 H 668.123 -0.271423 2.98167 0
M  V30 6877 H 665.669 -0.12911 1.4342 0
M  V30 6878 H 667.622 -2.69463 3.23987 0
M  V30 6879 H 666.346 -2.58008 2.00248 0
M  V30 6880 H 665.005 -1.06859 3.5068 0
M  V30 6881 H 664.653 -3.54386 3.56959 0
M  V30 6882 H 664.353 -2.80565 5.16292 0
M  V30 6883 H 665.877 -3.68934 4.86539 0
M  V30 6884 H 667.291 -1.5169 5.52868 0
M  V30 6885 H 665.688 -0.842035 5.94163 0
M  V30 6886 H 666.758 0.0544033 4.84869 0
M  V30 6887 N 668.101 -1.57061 -0.130224 0
M  V30 6888 C 669.349 -1.83893 -0.838313 0
M  V30 6889 C 669.67 -0.727046 -1.80939 0
M  V30 6890 O 668.94 0.249927 -1.94299 0
M  V30 6891 H 667.52 -0.67846 -0.312573 0
M  V30 6892 H 670.182 -1.94529 -0.120224 0
M  V30 6893 H 669.278 -2.79419 -1.39038 0
M  V30 6894 N 669.579 0.400081 -1.52437 0
M  V30 6895 C 670.828 1.14332 -1.66166 0
M  V30 6896 C 671.141 1.91419 -0.402253 0
M  V30 6897 O 672.347 2.6824 -0.419487 0
M  V30 6898 C 670.803 2.08137 -2.9361 0
M  V30 6899 C 670.411 1.36524 -4.26691 0
M  V30 6900 C 672.155 2.82664 -3.16703 0
M  V30 6901 C 670.062 2.29031 -5.45251 0
M  V30 6902 H 668.992 0.430499 -0.61902 0
M  V30 6903 H 671.643 0.407017 -1.78929 0
M  V30 6904 H 670.025 2.85358 -2.74567 0
M  V30 6905 H 671.199 0.646061 -4.56249 0
M  V30 6906 H 669.514 0.74002 -4.09771 0
M  V30 6907 H 672.111 3.52037 -4.0246 0
M  V30 6908 H 672.454 3.46122 -2.31312 0
M  V30 6909 H 672.987 2.12541 -3.36261 0
M  V30 6910 H 669.726 1.70206 -6.33017 0
M  V30 6911 H 669.246 2.98896 -5.2002 0
M  V30 6912 H 670.925 2.89359 -5.78689 0
M  V30 6913 N 671.057 1.43213 0.657864 0
M  V30 6914 C 672.304 1.44584 1.41781 0
M  V30 6915 C 672.632 0.0684208 1.9438 0
M  V30 6916 O 671.887 -0.925872 1.72413 0
M  V30 6917 C 672.186 2.43143 2.61947 0
M  V30 6918 C 671.852 3.89128 2.27794 0
M  V30 6919 C 670.514 4.28889 2.18191 0
M  V30 6920 C 672.866 4.81144 2.00375 0
M  V30 6921 C 670.194 5.58625 1.79319 0
M  V30 6922 C 672.546 6.11239 1.63003 0
M  V30 6923 C 671.21 6.49981 1.51922 0
M  V30 6924 H 670.48 0.529069 0.518813 0
M  V30 6925 H 673.127 1.76263 0.748577 0
M  V30 6926 H 671.432 2.04851 3.33981 0
M  V30 6927 H 673.129 2.4146 3.20153 0
M  V30 6928 H 669.719 3.57657 2.36176 0
M  V30 6929 H 673.903 4.512 2.06718 0
M  V30 6930 H 669.159 5.87486 1.69323 0
M  V30 6931 H 673.333 6.82014 1.40817 0
M  V30 6932 H 670.96 7.50416 1.21572 0
M  V30 6933 N 672.536 -0.895792 1.29666 0
M  V30 6934 C 673.784 -1.64339 1.17631 0
M  V30 6935 C 674.105 -1.93099 -0.271643 0
M  V30 6936 O 673.375 -1.55981 -1.18518 0
M  V30 6937 H 671.955 -0.609162 0.432354 0
M  V30 6938 H 674.617 -1.07389 1.62646 0
M  V30 6939 H 673.713 -2.59815 1.72924 0
M  V30 6940 N 674.014 -1.12206 -1.10668 0
M  V30 6941 C 675.261 -0.875875 -1.82578 0
M  V30 6942 C 675.589 0.598342 -1.85068 0
M  V30 6943 O 674.844 1.45818 -1.3052 0
M  V30 6944 C 675.143 -1.39276 -3.29146 0
M  V30 6945 C 674.809 -2.8816 -3.46806 0
M  V30 6946 C 673.471 -3.28813 -3.51334 0
M  V30 6947 C 675.823 -3.8401 -3.52399 0
M  V30 6948 C 673.151 -4.64028 -3.59019 0
M  V30 6949 C 675.503 -5.19053 -3.61617 0
M  V30 6950 C 674.167 -5.59252 -3.64408 0
M  V30 6951 H 673.437 -0.320505 -0.6681 0
M  V30 6952 H 676.084 -1.40184 -1.30464 0
M  V30 6953 H 674.389 -0.787207 -3.8381 0
M  V30 6954 H 676.086 -1.17851 -3.83291 0
M  V30 6955 H 672.676 -2.55716 -3.43958 0
M  V30 6956 H 676.86 -3.53698 -3.48154 0
M  V30 6957 H 672.116 -4.94568 -3.59461 0
M  V30 6958 H 676.29 -5.93152 -3.64889 0
M  V30 6959 H 673.917 -6.64017 -3.70116 0
M  V30 6960 N 675.492 1.28418 -0.913599 0
M  V30 6961 C 676.422 2.29713 -0.418847 0
M  V30 6962 C 677.403 1.62165 0.513469 0
M  V30 6963 O 678.588 1.89576 0.421235 0
M  V30 6964 C 675.718 3.45612 0.342042 0
M  V30 6965 C 674.672 4.25056 -0.501123 0
M  V30 6966 C 673.998 5.3329 0.388097 0
M  V30 6967 C 675.298 4.91814 -1.75831 0
M  V30 6968 H 676.992 2.71346 -1.26538 0
M  V30 6969 H 674.538 1.30446 -0.609903 0
M  V30 6970 H 676.491 4.15562 0.699 0
M  V30 6971 H 675.215 3.02858 1.22248 0
M  V30 6972 H 673.874 3.56833 -0.840598 0
M  V30 6973 H 673.522 4.8678 1.26707 0
M  V30 6974 H 673.222 5.87347 -0.172459 0
M  V30 6975 H 674.746 6.06088 0.74094 0
M  V30 6976 H 676.16 5.54126 -1.47026 0
M  V30 6977 H 674.557 5.55866 -2.26126 0
M  V30 6978 H 675.627 4.16313 -2.4862 0
M  V30 6979 N 676.97 0.677563 1.42291 0
M  V30 6980 C 677.933 0.0101085 2.29198 0
M  V30 6981 C 678.933 -0.726219 1.43467 0
M  V30 6982 O 680.123 -0.563807 1.64824 0
M  V30 6983 C 677.255 -0.996316 3.26016 0
M  V30 6984 H 678.448 0.775071 2.89711 0
M  V30 6985 H 676.001 0.440065 1.49977 0
M  V30 6986 H 676.736 -1.78967 2.70446 0
M  V30 6987 H 676.521 -0.471687 3.89253 0
M  V30 6988 H 678.011 -1.46167 3.91184 0
M  V30 6989 N 678.448 -1.51871 0.421078 0
M  V30 6990 C 679.695 -2.01938 -0.15079 0
M  V30 6991 C 680.023 -1.30611 -1.44121 0
M  V30 6992 O 679.278 -0.404631 -1.91471 0
M  V30 6993 C 679.577 -3.54764 -0.433292 0
M  V30 6994 C 679.243 -4.44288 0.76936 0
M  V30 6995 C 677.905 -4.68477 1.09921 0
M  V30 6996 C 680.257 -4.96915 1.57242 0
M  V30 6997 C 677.585 -5.4254 2.2331 0
M  V30 6998 C 679.937 -5.7222 2.69716 0
M  V30 6999 C 678.601 -5.94678 3.03174 0
M  V30 7000 H 677.871 -0.738943 -0.0551781 0
M  V30 7001 H 680.518 -1.82977 0.564945 0
M  V30 7002 H 678.823 -3.71968 -1.23074 0
M  V30 7003 H 680.52 -3.91023 -0.888922 0
M  V30 7004 H 677.11 -4.25646 0.502305 0
M  V30 7005 H 681.294 -4.78125 1.3308 0
M  V30 7006 H 676.55 -5.58146 2.49565 0
M  V30 7007 H 680.724 -6.11992 3.32323 0
M  V30 7008 H 678.351 -6.51848 3.9115 0
M  V30 7009 N 679.926 -0.151884 -1.56866 0
M  V30 7010 C 681.174 0.497021 -1.95893 0
M  V30 7011 C 681.495 1.65078 -1.03799 0
M  V30 7012 O 680.765 1.95642 -0.10049 0
M  V30 7013 H 679.345 0.186603 -0.723318 0
M  V30 7014 H 682.007 -0.228525 -1.93556 0
M  V30 7015 H 681.103 0.869933 -2.99731 0
M  V30 7016 N 681.404 1.57128 0.121893 0
M  V30 7017 C 682.651 1.847 0.830188 0
M  V30 7018 C 682.979 0.736543 1.80015 0
M  V30 7019 O 682.234 -0.272358 1.93796 0
M  V30 7020 C 682.533 3.1874 1.61677 0
M  V30 7021 C 682.199 4.43901 0.791361 0
M  V30 7022 C 680.861 4.77887 0.563731 0
M  V30 7023 C 683.213 5.20753 0.215823 0
M  V30 7024 C 680.541 5.86168 -0.249737 0
M  V30 7025 C 682.893 6.29891 -0.584821 0
M  V30 7026 C 681.557 6.6241 -0.822794 0
M  V30 7027 H 680.827 0.675866 0.303787 0
M  V30 7028 H 683.474 1.91276 0.0926894 0
M  V30 7029 H 681.779 3.07728 2.42509 0
M  V30 7030 H 683.476 3.37295 2.16872 0
M  V30 7031 H 680.066 4.17272 0.978867 0
M  V30 7032 H 684.25 4.94851 0.378907 0
M  V30 7033 H 679.506 6.0979 -0.44336 0
M  V30 7034 H 683.68 6.88624 -1.03779 0
M  V30 7035 H 681.307 7.46147 -1.45496 0
M  V30 7036 N 682.882 -0.391992 1.52647 0
M  V30 7037 C 684.128 -1.139 1.67793 0
M  V30 7038 C 684.461 -1.89711 0.41514 0
M  V30 7039 O 683.736 -1.85431 -0.586979 0
M  V30 7040 C 684.019 -2.11966 2.91105 0
M  V30 7041 C 683.872 -1.39939 4.27478 0
M  V30 7042 C 685.191 -3.1243 3.09961 0
M  V30 7043 H 682.31 -0.412707 0.610608 0
M  V30 7044 H 684.952 -0.422725 1.85238 0
M  V30 7045 H 683.102 -2.73048 2.76364 0
M  V30 7046 H 684.774 -0.818439 4.53982 0
M  V30 7047 H 683.017 -0.701246 4.28095 0
M  V30 7048 H 683.688 -2.1158 5.09841 0
M  V30 7049 H 686.164 -2.61435 3.23714 0
M  V30 7050 H 685.04 -3.78294 3.97725 0
M  V30 7051 H 685.301 -3.81127 2.24042 0
M  V30 7052 N 684.36 -1.4356 -0.65026 0
M  V30 7053 C 685.29 -1.51758 -1.77459 0
M  V30 7054 C 686.271 -0.372019 -1.65982 0
M  V30 7055 O 687.456 -0.589627 -1.85033 0
M  V30 7056 C 684.586 -1.44302 -3.15902 0
M  V30 7057 C 683.54 -2.57138 -3.42146 0
M  V30 7058 C 682.866 -2.34735 -4.8042 0
M  V30 7059 C 684.166 -3.99373 -3.36598 0
M  V30 7060 H 685.86 -2.45863 -1.70855 0
M  V30 7061 H 683.406 -1.18333 -0.820566 0
M  V30 7062 H 685.359 -1.48641 -3.94314 0
M  V30 7063 H 684.083 -0.467026 -3.23244 0
M  V30 7064 H 682.742 -2.52157 -2.66106 0
M  V30 7065 H 682.39 -1.35372 -4.84441 0
M  V30 7066 H 682.09 -3.10375 -4.9894 0
M  V30 7067 H 683.614 -2.40862 -5.61086 0
M  V30 7068 H 685.028 -4.05826 -4.04942 0
M  V30 7069 H 683.425 -4.75063 -3.66654 0
M  V30 7070 H 684.495 -4.243 -2.34729 0
M  V30 7071 N 685.838 0.888903 -1.30139 0
M  V30 7072 C 687.087 1.63507 -1.18103 0
M  V30 7073 C 687.4 1.93808 0.264141 0
M  V30 7074 O 688.606 2.66744 0.505966 0
M  V30 7075 C 687.062 2.94673 -2.0663 0
M  V30 7076 C 686.67 2.71926 -3.56034 0
M  V30 7077 C 688.414 3.72626 -2.03346 0
M  V30 7078 C 686.321 3.98884 -4.3663 0
M  V30 7079 H 685.251 0.613426 -0.438435 0
M  V30 7080 H 687.902 0.984427 -1.54859 0
M  V30 7081 H 686.284 3.61009 -1.62754 0
M  V30 7082 H 687.458 2.14116 -4.08033 0
M  V30 7083 H 685.773 2.07353 -3.61101 0
M  V30 7084 H 688.37 4.66775 -2.60816 0
M  V30 7085 H 688.713 4.03712 -1.016 0
M  V30 7086 H 689.246 3.13147 -2.45324 0
M  V30 7087 H 685.985 3.72959 -5.39056 0
M  V30 7088 H 685.505 4.56214 -3.89396 0
M  V30 7089 H 687.184 4.66938 -4.47859 0
M  V30 7090 N 687.317 1.12792 1.10072 0
M  V30 7091 C 688.545 0.908506 1.85886 0
M  V30 7092 C 688.96 -0.542408 1.80841 0
M  V30 7093 O 688.317 -1.37517 1.1998 0
M  V30 7094 C 688.368 1.37973 3.34134 0
M  V30 7095 O 688.089 2.77378 3.39106 0
M  V30 7096 C 689.59 1.1978 4.26811 0
M  V30 7097 H 686.81 0.3244 0.587372 0
M  V30 7098 H 689.354 1.49882 1.39125 0
M  V30 7099 H 687.509 0.832566 3.78348 0
M  V30 7100 H 687.923 2.98144 4.31521 0
M  V30 7101 H 689.397 1.57635 5.29014 0
M  V30 7102 H 689.874 0.138768 4.38981 0
M  V30 7103 H 690.48 1.73266 3.88406 0
M  V30 7104 N 688.795 -1.27931 0.920396 0
M  V30 7105 C 690.042 -1.94689 0.557007 0
M  V30 7106 C 690.37 -1.724 -0.900476 0
M  V30 7107 O 689.625 -1.04194 -1.65657 0
M  V30 7108 C 689.924 -3.47853 0.820558 0
M  V30 7109 C 689.59 -3.90252 2.25863 0
M  V30 7110 C 688.252 -4.01539 2.65179 0
M  V30 7111 C 690.604 -4.11853 3.19415 0
M  V30 7112 C 687.932 -4.3181 3.97187 0
M  V30 7113 C 690.284 -4.43606 4.50995 0
M  V30 7114 C 688.948 -4.53105 4.90155 0
M  V30 7115 H 688.218 -0.712416 0.203823 0
M  V30 7116 H 690.865 -1.52142 1.16298 0
M  V30 7117 H 689.17 -3.91578 0.131844 0
M  V30 7118 H 690.867 -3.97634 0.51847 0
M  V30 7119 H 687.457 -3.81999 1.94358 0
M  V30 7120 H 691.641 -4.0258 2.90246 0
M  V30 7121 H 686.897 -4.37371 4.2722 0
M  V30 7122 H 691.071 -4.59268 5.23494 0
M  V30 7123 H 688.698 -4.76315 5.92476 0
M  V30 7124 N 690.273 -0.685099 -1.4193 0
M  V30 7125 C 691.498 -0.218842 -2.06242 0
M  V30 7126 C 691.923 1.11923 -1.51178 0
M  V30 7127 O 691.281 1.69837 -0.634446 0
M  V30 7128 C 691.329 -0.175592 -3.60172 0
M  V30 7129 O 690.433 0.852776 -4.03487 0
M  V30 7130 H 689.774 -0.109531 -0.654904 0
M  V30 7131 H 692.304 -0.937013 -1.81882 0
M  V30 7132 H 692.314 -0.00291151 -4.08 0
M  V30 7133 H 690.989 -1.15222 -3.99621 0
M  V30 7134 H 689.566 0.650301 -3.67186 0
M  V30 7135 N 691.751 1.51645 -0.429126 0
M  V30 7136 C 692.991 2.03924 0.139354 0
M  V30 7137 C 693.355 1.30673 1.40672 0
M  V30 7138 O 694.556 1.73282 2.05491 0
M  V30 7139 C 692.827 3.5557 0.361179 0
M  V30 7140 S 694.386 4.29591 0.894241 0
M  V30 7141 H 691.204 0.710103 0.0356986 0
M  V30 7142 H 693.806 1.86491 -0.586644 0
M  V30 7143 H 692.51 4.06455 -0.567686 0
M  V30 7144 H 692.041 3.77283 1.11449 0
M  V30 7145 H 694.056 4.46102 2.17272 0
M  V30 7146 N 693.229 0.160201 1.56784 0
M  V30 7147 C 694.179 -0.786461 2.14007 0
M  V30 7148 C 695.163 -1.20046 1.07134 0
M  V30 7149 O 696.355 -1.16468 1.33283 0
M  V30 7150 C 693.484 -2.02024 2.77563 0
M  V30 7151 C 692.57 -1.62874 3.91578 0
M  V30 7152 N 692.961 -0.946176 4.96871 0
M  V30 7153 C 691.259 -1.92054 4.02531 0
M  V30 7154 C 691.96 -0.755084 5.76778 0
M  V30 7155 N 690.936 -1.29307 5.27997 0
M  V30 7156 H 694.738 -0.255879 2.92784 0
M  V30 7157 H 692.252 -0.0408778 1.62349 0
M  V30 7158 H 694.249 -2.70855 3.16928 0
M  V30 7159 H 692.909 -2.55587 2.00263 0
M  V30 7160 H 693.92 -0.605455 5.14349 0
M  V30 7161 H 690.597 -2.47374 3.36322 0
M  V30 7162 H 691.987 -0.216138 6.71552 0
M  V30 7163 N 694.707 -1.5719 -0.113559 0
M  V30 7164 C 695.954 -1.85138 -0.820382 0
M  V30 7165 C 696.282 -0.74608 -1.79622 0
M  V30 7166 O 695.537 0.262077 -1.93937 0
M  V30 7167 C 695.836 -3.19593 -1.59984 0
M  V30 7168 C 695.502 -4.44315 -0.767809 0
M  V30 7169 C 694.164 -4.78179 -0.538379 0
M  V30 7170 C 696.516 -5.2086 -0.188203 0
M  V30 7171 C 693.844 -5.86028 0.28082 0
M  V30 7172 C 696.196 -6.29572 0.618217 0
M  V30 7173 C 694.86 -6.61964 0.857912 0
M  V30 7174 H 694.13 -0.677467 -0.300199 0
M  V30 7175 H 696.777 -1.91322 -0.0825443 0
M  V30 7176 H 695.082 -3.0901 -2.40874 0
M  V30 7177 H 696.779 -3.3844 -2.1508 0
M  V30 7178 H 693.369 -4.17786 -0.956724 0
M  V30 7179 H 697.553 -4.95045 -0.352658 0
M  V30 7180 H 692.809 -6.09547 0.475693 0
M  V30 7181 H 696.983 -6.88064 1.0743 0
M  V30 7182 H 694.61 -7.45365 1.49451 0
M  V30 7183 N 696.185 0.383891 -1.52853 0
M  V30 7184 C 697.415 1.14783 -1.7178 0
M  V30 7185 C 697.823 1.84055 -0.438211 0
M  V30 7186 O 697.166 1.73713 0.597465 0
M  V30 7187 C 697.228 2.23543 -2.81547 0
M  V30 7188 C 696.892 1.74195 -4.22499 0
M  V30 7189 C 697.889 1.21591 -5.05481 0
M  V30 7190 C 695.574 1.80262 -4.6884 0
M  V30 7191 C 697.568 0.757104 -6.32888 0
M  V30 7192 C 695.255 1.33993 -5.96229 0
M  V30 7193 C 696.253 0.818049 -6.78083 0
M  V30 7194 O 695.941 0.362123 -8.03084 0
M  V30 7195 H 695.673 0.349908 -0.578395 0
M  V30 7196 H 698.227 0.454377 -2.00311 0
M  V30 7197 H 696.457 2.96328 -2.48449 0
M  V30 7198 H 698.146 2.8519 -2.88828 0
M  V30 7199 H 698.912 1.16257 -4.7086 0
M  V30 7200 H 694.791 2.19825 -4.05213 0
M  V30 7201 H 698.335 0.34908 -6.96726 0
M  V30 7202 H 694.232 1.39015 -6.30353 0
M  V30 7203 H 695 0.483134 -8.17073 0
M  V30 7204 N 697.663 1.43903 0.642637 0
M  V30 7205 C 698.94 1.36556 1.40043 0
M  V30 7206 C 699.32 0.0185588 2.11092 0
M  V30 7207 O 698.668 -0.998438 2.05532 0
M  V30 7208 C 698.878 2.55596 2.37638 0
M  V30 7209 C 700.226 2.99153 3.01318 0
M  V30 7210 O 701.25 2.55719 2.47965 0
M  V30 7211 O 700.109 3.74427 3.98078 0
M  V30 7212 H 697.203 0.540189 0.626198 0
M  V30 7213 H 699.749 1.55971 0.668657 0
M  V30 7214 H 698.521 3.45256 1.84158 0
M  V30 7215 H 698.144 2.38334 3.18249 0
M  V30 7216 N 699.141 -0.881989 1.30609 0
M  V30 7217 C 700.388 -1.63405 1.19604 0
M  V30 7218 C 700.716 -1.92905 -0.248574 0
M  V30 7219 O 699.971 -1.55062 -1.19391 0
M  V30 7220 C 700.27 -2.97999 1.97311 0
M  V30 7221 C 699.936 -2.88039 3.46907 0
M  V30 7222 C 698.598 -2.85029 3.877 0
M  V30 7223 C 700.95 -2.75948 4.42156 0
M  V30 7224 C 698.278 -2.67772 5.2203 0
M  V30 7225 C 700.63 -2.60228 5.76597 0
M  V30 7226 C 699.294 -2.55595 6.16626 0
M  V30 7227 H 698.564 -0.597941 0.437662 0
M  V30 7228 H 701.211 -1.02524 1.61744 0
M  V30 7229 H 699.516 -3.62847 1.47815 0
M  V30 7230 H 701.213 -3.55156 1.86186 0
M  V30 7231 H 697.803 -2.91192 3.14492 0
M  V30 7232 H 701.987 -2.77337 4.1158 0
M  V30 7233 H 697.243 -2.62601 5.52133 0
M  V30 7234 H 701.417 -2.49847 6.50038 0
M  V30 7235 H 699.044 -2.41981 7.20659 0
M  V30 7236 N 700.619 -1.13374 -1.09472 0
M  V30 7237 C 701.866 -0.89519 -1.81639 0
M  V30 7238 C 702.194 0.57868 -1.85692 0
M  V30 7239 O 701.449 1.44426 -1.32059 0
M  V30 7240 C 701.748 -1.42759 -3.2765 0
M  V30 7241 C 701.414 -2.91822 -3.43731 0
M  V30 7242 C 700.076 -3.32521 -3.47827 0
M  V30 7243 C 702.428 -3.87727 -3.48307 0
M  V30 7244 C 699.756 -4.6781 -3.54078 0
M  V30 7245 C 702.108 -5.22859 -3.56091 0
M  V30 7246 C 700.772 -5.63086 -3.58456 0
M  V30 7247 H 700.042 -0.327573 -0.664663 0
M  V30 7248 H 702.689 -1.4156 -1.28969 0
M  V30 7249 H 700.994 -0.827871 -3.82954 0
M  V30 7250 H 702.691 -1.2191 -3.8202 0
M  V30 7251 H 699.281 -2.5935 -3.41226 0
M  V30 7252 H 703.465 -3.57371 -3.44383 0
M  V30 7253 H 698.721 -4.98353 -3.54195 0
M  V30 7254 H 702.895 -5.96989 -3.58577 0
M  V30 7255 H 700.522 -6.67905 -3.63052 0
M  V30 7256 N 702.098 1.27442 -0.927168 0
M  V30 7257 C 703.046 2.28844 -0.416333 0
M  V30 7258 C 704.04 1.61882 0.499057 0
M  V30 7259 O 705.246 1.75969 0.378817 0
M  V30 7260 H 701.621 0.742989 -0.116065 0
M  V30 7261 H 703.592 2.69344 -1.28438 0
M  V30 7262 C 702.341 3.4626 0.316107 0
M  V30 7263 H 701.664 3.97999 -0.379082 0
M  V30 7264 H 703.104 4.19173 0.637975 0
M  V30 7265 C 701.563 3.00211 1.5289 0
M  V30 7266 O 702.093 3.03837 2.62766 0
M  V30 7267 N 700.299 2.55713 1.38054 0
M  V30 7268 H 699.846 2.52962 0.4866 0
M  V30 7269 H 699.804 2.25264 2.19325 0
M  V30 7270 N 703.576 0.692616 1.41565 0
M  V30 7271 C 704.508 -0.0137132 2.29196 0
M  V30 7272 C 705.521 -0.747417 1.44629 0
M  V30 7273 O 706.71 -0.598611 1.68163 0
M  V30 7274 C 703.81 -1.04347 3.22436 0
M  V30 7275 C 702.983 -0.379985 4.35746 0
M  V30 7276 C 702.042 -1.31195 5.09583 0
M  V30 7277 O 701.068 -0.805455 5.63472 0
M  V30 7278 N 702.27 -2.64443 5.16769 0
M  V30 7279 H 705.035 0.738614 2.90456 0
M  V30 7280 H 702.596 0.538415 1.52685 0
M  V30 7281 H 704.588 -1.6686 3.687 0
M  V30 7282 H 703.158 -1.69736 2.62504 0
M  V30 7283 H 702.378 0.424975 3.91903 0
M  V30 7284 H 703.666 0.0814904 5.08735 0
M  V30 7285 H 703.064 -3.08114 4.74428 0
M  V30 7286 H 701.621 -3.22159 5.66619 0
M  V30 7287 N 705.054 -1.51416 0.437162 0
M  V30 7288 C 706.017 -2.26312 -0.362729 0
M  V30 7289 C 707.017 -1.29748 -0.949847 0
M  V30 7290 O 708.207 -1.53462 -0.824325 0
M  V30 7291 C 705.339 -3.05475 -1.5132 0
M  V30 7292 H 706.532 -2.98459 0.29365 0
M  V30 7293 H 704.085 -1.55137 0.190327 0
M  V30 7294 H 704.82 -2.37744 -2.20563 0
M  V30 7295 H 704.605 -3.76401 -1.09838 0
M  V30 7296 H 706.095 -3.62209 -2.07833 0
M  V30 7297 N 706.532 -0.168513 -1.56696 0
M  V30 7298 C 707.442 0.775435 -2.21414 0
M  V30 7299 C 708.458 1.25529 -1.20492 0
M  V30 7300 O 709.634 1.30801 -1.53144 0
M  V30 7301 C 706.699 1.9886 -2.83999 0
M  V30 7302 C 705.76 1.5559 -4.00113 0
M  V30 7303 C 704.993 2.71124 -4.59704 0
M  V30 7304 O 705.216 3.87917 -4.18182 0
M  V30 7305 O 704.15 2.4536 -5.4962 0
M  V30 7306 H 707.976 0.254416 -3.02632 0
M  V30 7307 H 705.561 0.0595507 -1.49281 0
M  V30 7308 H 707.443 2.69816 -3.23693 0
M  V30 7309 H 706.118 2.49874 -2.05779 0
M  V30 7310 H 705.025 0.815924 -3.65094 0
M  V30 7311 H 706.358 1.09271 -4.79917 0
M  V30 7312 N 708.01 1.57248 0.105221 0
M  V30 7313 C 709.256 1.86719 0.806692 0
M  V30 7314 C 709.611 0.758061 1.76837 0
M  V30 7315 O 708.904 -0.240812 1.90081 0
M  V30 7316 C 709.098 3.20437 1.58287 0
M  V30 7317 C 708.927 4.44252 0.697864 0
M  V30 7318 C 707.697 5.04104 0.347444 0
M  V30 7319 C 709.895 5.14299 0.00933014 0
M  V30 7320 N 707.877 6.1146 -0.546786 0
M  V30 7321 C 709.248 6.15528 -0.74336 0
M  V30 7322 C 711.303 4.97857 -0.0656505 0
M  V30 7323 C 710.006 7.02091 -1.56401 0
M  V30 7324 C 712.032 5.84919 -0.873167 0
M  V30 7325 C 711.394 6.8566 -1.61401 0
M  V30 7326 H 707.493 0.73329 0.271679 0
M  V30 7327 H 710.077 1.94575 0.0697152 0
M  V30 7328 H 708.248 3.13651 2.29079 0
M  V30 7329 H 709.98 3.37668 2.23075 0
M  V30 7330 H 706.735 4.68505 0.692817 0
M  V30 7331 H 707.159 6.69779 -0.986157 0
M  V30 7332 H 711.801 4.19919 0.492768 0
M  V30 7333 H 709.519 7.79427 -2.13353 0
M  V30 7334 H 713.105 5.74259 -0.933724 0
M  V30 7335 H 711.985 7.5186 -2.2288 0
M  V30 7336 N 709.488 -0.375779 1.53054 0
M  V30 7337 C 710.398 -1.48381 1.81715 0
M  V30 7338 C 711.414 -1.59087 0.704795 0
M  V30 7339 O 712.59 -1.75174 0.993785 0
M  V30 7340 C 709.655 -2.83767 1.99192 0
M  V30 7341 C 708.716 -2.82673 3.23102 0
M  V30 7342 C 707.949 -4.11601 3.39736 0
M  V30 7343 O 708.172 -5.07243 2.60885 0
M  V30 7344 O 707.106 -4.18034 4.33049 0
M  V30 7345 H 710.932 -1.27089 2.7583 0
M  V30 7346 H 708.517 -0.564902 1.38308 0
M  V30 7347 H 710.399 -3.64004 2.12318 0
M  V30 7348 H 709.074 -3.05057 1.08267 0
M  V30 7349 H 707.981 -2.0117 3.15407 0
M  V30 7350 H 709.314 -2.66335 4.13916 0
M  V30 7351 N 710.966 -1.44241 -0.634997 0
M  V30 7352 C 712.382 -1.28043 -0.952742 0
M  V30 7353 C 712.582 -0.21338 -2.00367 0
M  V30 7354 O 711.638 0.402042 -2.49279 0
M  V30 7355 C 712.951 -2.65076 -1.41968 0
M  V30 7356 C 714.499 -2.72755 -1.53537 0
M  V30 7357 C 714.974 -4.10249 -2.03616 0
M  V30 7358 N 716.465 -4.12406 -2.10892 0
M  V30 7359 C 717.2 -5.15641 -2.50803 0
M  V30 7360 N 716.696 -6.29239 -2.89879 0
M  V30 7361 N 718.489 -5.02995 -2.50903 0
M  V30 7362 H 710.64 -2.12315 0.060098 0
M  V30 7363 H 712.903 -0.947326 -0.0357325 0
M  V30 7364 H 712.609 -3.44213 -0.721804 0
M  V30 7365 H 712.483 -2.91704 -2.39141 0
M  V30 7366 H 714.87 -1.93939 -2.22422 0
M  V30 7367 H 714.951 -2.49872 -0.547496 0
M  V30 7368 H 714.595 -4.8954 -1.35327 0
M  V30 7369 H 714.525 -4.30507 -3.03268 0
M  V30 7370 H 717.016 -3.30417 -1.83393 0
M  V30 7371 H 717.329 -7.03827 -3.19135 0
M  V30 7372 H 715.674 -6.32683 -2.8764 0
M  V30 7373 H 718.865 -4.13306 -2.19763 0
M  V30 7374 H 719.038 -5.83574 -2.81683 0
M  V30 7375 N 712.444 0.87505 -1.31075 0
M  V30 7376 C 713.669 1.66583 -1.23551 0
M  V30 7377 C 714.094 1.87067 0.19686 0
M  V30 7378 O 713.452 1.40877 1.1412 0
M  V30 7379 C 713.5 3.01401 -1.97965 0
M  V30 7380 O 712.604 3.90923 -1.31351 0
M  V30 7381 H 711.945 0.508645 -0.426821 0
M  V30 7382 H 714.475 1.09139 -1.7306 0
M  V30 7383 H 714.485 3.51374 -2.07366 0
M  V30 7384 H 713.16 2.85812 -3.02133 0
M  V30 7385 H 711.737 3.49369 -1.30368 0
M  V30 7386 N 713.922 1.13953 1.08869 0
M  V30 7387 C 715.169 0.90481 1.81161 0
M  V30 7388 C 715.497 -0.568824 1.85996 0
M  V30 7389 O 714.752 -1.43723 1.32823 0
M  V30 7390 C 715.051 1.44495 3.26888 0
M  V30 7391 C 714.717 2.93641 3.42178 0
M  V30 7392 C 713.379 3.34361 3.46059 0
M  V30 7393 C 715.731 3.89568 3.46246 0
M  V30 7394 C 713.059 4.69681 3.51592 0
M  V30 7395 C 715.411 5.2474 3.53314 0
M  V30 7396 C 714.075 5.64979 3.55465 0
M  V30 7397 H 713.345 0.331094 0.662916 0
M  V30 7398 H 715.992 1.42242 1.28217 0
M  V30 7399 H 714.297 0.848169 3.82509 0
M  V30 7400 H 715.994 1.23934 3.81368 0
M  V30 7401 H 712.584 2.61156 3.39846 0
M  V30 7402 H 716.768 3.59192 3.42483 0
M  V30 7403 H 712.024 5.00224 3.51547 0
M  V30 7404 H 716.198 5.98882 3.55406 0
M  V30 7405 H 713.825 6.69821 3.59505 0
M  V30 7406 N 715.4 -1.26948 0.933913 0
M  V30 7407 C 716.816 -1.46419 0.635103 0
M  V30 7408 C 717.016 -1.84336 -0.813785 0
M  V30 7409 O 716.072 -1.96061 -1.59111 0
M  V30 7410 C 717.385 -2.55206 1.5903 0
M  V30 7411 C 718.933 -2.69062 1.5992 0
M  V30 7412 C 719.408 -3.81013 2.54152 0
M  V30 7413 N 720.899 -3.88395 2.52395 0
M  V30 7414 C 721.634 -4.74454 3.21996 0
M  V30 7415 N 721.13 -5.64954 4.00997 0
M  V30 7416 N 722.923 -4.68237 3.10983 0
M  V30 7417 H 715.074 -1.00622 1.87053 0
M  V30 7418 H 717.337 -0.503189 0.803433 0
M  V30 7419 H 717.043 -2.34153 2.62422 0
M  V30 7420 H 716.917 -3.52719 1.33677 0
M  V30 7421 H 719.304 -2.89492 0.572569 0
M  V30 7422 H 719.385 -1.72016 1.89325 0
M  V30 7423 H 719.029 -3.61336 3.5693 0
M  V30 7424 H 718.959 -4.77499 2.22041 0
M  V30 7425 H 721.45 -3.23687 1.95025 0
M  V30 7426 H 721.763 -6.27496 4.51074 0
M  V30 7427 H 720.108 -5.6473 4.05099 0
M  V30 7428 H 723.299 -3.96535 2.48753 0
M  V30 7429 H 723.472 -5.35087 3.65494 0
M  V30 7430 N 716.879 -0.700114 -1.41195 0
M  V30 7431 C 718.156 -0.160836 -1.94938 0
M  V30 7432 C 718.536 1.33014 -1.63922 0
M  V30 7433 O 717.884 2.07878 -0.948636 0
M  V30 7434 C 718.094 -0.456991 -3.45995 0
M  V30 7435 C 719.442 -0.387207 -4.22831 0
M  V30 7436 O 720.466 -0.392164 -3.54035 0
M  V30 7437 O 719.325 -0.351267 -5.4537 0
M  V30 7438 H 716.419 -0.0176304 -0.826812 0
M  V30 7439 H 718.965 -0.776586 -1.50888 0
M  V30 7440 H 717.737 -1.48884 -3.61869 0
M  V30 7441 H 717.36 0.189503 -3.97148 0
M  V30 7442 N 718.357 1.51182 -0.445186 0
M  V30 7443 C 719.587 2.06269 0.116922 0
M  V30 7444 C 719.995 1.31188 1.36332 0
M  V30 7445 O 719.338 0.367067 1.79995 0
M  V30 7446 C 719.4 3.56051 0.496757 0
M  V30 7447 C 719.064 4.52441 -0.64394 0
M  V30 7448 C 720.061 4.97233 -1.5184 0
M  V30 7449 C 717.746 4.95447 -0.826905 0
M  V30 7450 C 719.74 5.83712 -2.56046 0
M  V30 7451 C 717.427 5.81714 -1.87222 0
M  V30 7452 C 718.425 6.25745 -2.73738 0
M  V30 7453 O 718.113 7.10298 -3.76474 0
M  V30 7454 H 717.845 0.675954 0.00785733 0
M  V30 7455 H 720.399 1.95648 -0.625371 0
M  V30 7456 H 718.629 3.64483 1.29187 0
M  V30 7457 H 720.318 3.93618 0.990928 0
M  V30 7458 H 721.084 4.64696 -1.38862 0
M  V30 7459 H 716.963 4.60712 -0.163052 0
M  V30 7460 H 720.507 6.18 -3.23607 0
M  V30 7461 H 716.404 6.13664 -2.00218 0
M  V30 7462 H 717.172 7.28493 -3.73149 0
M  V30 7463 N 719.835 0.176821 1.56605 0
M  V30 7464 C 721.081 -0.467406 1.9734 0
M  V30 7465 C 721.414 -1.62523 1.06301 0
M  V30 7466 O 720.689 -1.94182 0.11125 0
M  V30 7467 C 720.972 -0.945106 3.47476 0
M  V30 7468 C 720.825 0.213273 4.49294 0
M  V30 7469 C 722.144 -1.8169 4.00845 0
M  V30 7470 H 719.263 -0.168426 0.717497 0
M  V30 7471 H 721.905 0.264065 1.88156 0
M  V30 7472 H 720.055 -1.56841 3.55434 0
M  V30 7473 H 721.727 0.850508 4.53392 0
M  V30 7474 H 719.97 0.867918 4.25029 0
M  V30 7475 H 720.641 -0.163187 5.51759 0
M  V30 7476 H 723.117 -1.29139 3.95553 0
M  V30 7477 H 721.993 -2.12015 5.06301 0
M  V30 7478 H 722.254 -2.76463 3.44994 0
M  V30 7479 N 721.313 -1.57302 -0.09688 0
M  V30 7480 C 722.243 -2.0497 -1.11846 0
M  V30 7481 C 723.224 -0.938278 -1.41882 0
M  V30 7482 O 724.409 -1.20943 -1.51942 0
M  V30 7483 C 721.539 -2.47264 -2.43881 0
M  V30 7484 C 720.493 -3.62053 -2.28257 0
M  V30 7485 C 719.819 -3.90318 -3.65453 0
M  V30 7486 C 721.119 -4.93005 -1.72461 0
M  V30 7487 H 722.813 -2.90567 -0.721888 0
M  V30 7488 H 720.359 -1.39786 -0.345803 0
M  V30 7489 H 722.312 -2.7922 -3.15617 0
M  V30 7490 H 721.036 -1.58664 -2.8547 0
M  V30 7491 H 719.695 -3.30341 -1.58967 0
M  V30 7492 H 719.343 -2.98889 -4.04567 0
M  V30 7493 H 719.043 -4.67597 -3.55846 0
M  V30 7494 H 720.567 -4.24747 -4.3866 0
M  V30 7495 H 721.981 -5.23354 -2.34036 0
M  V30 7496 H 720.378 -5.74436 -1.73618 0
M  V30 7497 H 721.448 -4.80053 -0.683898 0
M  V30 7498 N 722.791 0.367657 -1.53252 0
M  V30 7499 C 724.031 1.11923 -1.71034 0
M  V30 7500 C 724.395 1.86618 -0.45143 0
M  V30 7501 O 725.596 2.63996 -0.505915 0
M  V30 7502 C 723.867 2.05461 -2.92439 0
M  V30 7503 S 725.426 2.88167 -3.30916 0
M  V30 7504 H 722.244 0.378549 -0.601848 0
M  V30 7505 H 724.846 0.400757 -1.91348 0
M  V30 7506 H 723.55 1.49346 -3.82262 0
M  V30 7507 H 723.081 2.81784 -2.7452 0
M  V30 7508 H 725.096 4.07746 -2.82767 0
M  V30 7509 N 724.269 1.44576 0.627338 0
M  V30 7510 C 725.201 1.47724 1.75243 0
M  V30 7511 C 726.214 0.370193 1.58535 0
M  V30 7512 O 727.403 0.636151 1.66779 0
M  V30 7513 C 724.503 1.2991 3.13012 0
M  V30 7514 C 723.676 2.5393 3.56143 0
M  V30 7515 C 722.735 2.30961 4.72804 0
M  V30 7516 O 721.761 3.04469 4.80923 0
M  V30 7517 N 722.963 1.34261 5.6476 0
M  V30 7518 H 725.728 2.44718 1.73012 0
M  V30 7519 H 723.289 1.40064 0.812022 0
M  V30 7520 H 725.281 1.12385 3.88782 0
M  V30 7521 H 723.851 0.412668 3.09864 0
M  V30 7522 H 723.071 2.86707 2.70542 0
M  V30 7523 H 724.359 3.36411 3.81713 0
M  V30 7524 H 723.757 0.735573 5.60897 0
M  V30 7525 H 722.314 1.22713 6.40144 0
M  V30 7526 N 725.747 -0.868086 1.31537 0
M  V30 7527 C 726.71 -1.95703 1.19302 0
M  V30 7528 C 727.71 -1.60355 0.119612 0
M  V30 7529 O 728.9 -1.70247 0.36902 0
M  V30 7530 C 726.032 -3.30599 0.831684 0
M  V30 7531 H 727.225 -2.07982 2.16064 0
M  V30 7532 H 724.778 -1.05661 1.15176 0
M  V30 7533 H 725.513 -3.2402 -0.134694 0
M  V30 7534 H 725.298 -3.57629 1.60761 0
M  V30 7535 H 726.788 -4.10439 0.770026 0
M  V30 7536 N 727.225 -1.14528 -1.08264 0
M  V30 7537 C 728.173 -0.829201 -2.17318 0
M  V30 7538 C 729.167 0.193521 -1.68291 0
M  V30 7539 O 730.373 0.0494744 -1.79932 0
M  V30 7540 H 726.748 -0.250435 -0.709074 0
M  V30 7541 H 728.719 -1.75683 -2.41201 0
M  V30 7542 C 727.468 -0.324663 -3.46181 0
M  V30 7543 H 726.791 -1.10299 -3.84284 0
M  V30 7544 H 728.231 -0.142059 -4.23762 0
M  V30 7545 C 726.69 0.952033 -3.23169 0
M  V30 7546 O 727.22 2.02549 -3.46896 0
M  V30 7547 N 725.426 0.887854 -2.76705 0
M  V30 7548 H 724.973 0.0141402 -2.57596 0
M  V30 7549 H 724.931 1.74263 -2.61686 0
M  V30 7550 N 728.703 1.26451 -0.940633 0
M  V30 7551 C 729.949 1.94065 -0.58878 0
M  V30 7552 C 730.282 1.7363 0.869853 0
M  V30 7553 O 729.557 1.073 1.62225 0
M  V30 7554 C 729.84 3.47852 -0.931199 0
M  V30 7555 C 729.693 3.77575 -2.44453 0
M  V30 7556 C 731.012 4.37832 -0.446229 0
M  V30 7557 H 728.131 0.704827 -0.21538 0
M  V30 7558 H 730.773 1.4933 -1.17475 0
M  V30 7559 H 728.923 3.86085 -0.432539 0
M  V30 7560 H 730.595 3.49059 -3.01588 0
M  V30 7561 H 728.838 3.23671 -2.88825 0
M  V30 7562 H 729.509 4.85068 -2.63464 0
M  V30 7563 H 731.985 4.06822 -0.873778 0
M  V30 7564 H 730.861 5.44228 -0.714648 0
M  V30 7565 H 731.122 4.37239 0.653815 0
M  V30 7566 N 730.181 0.707592 1.40822 0
M  V30 7567 C 731.409 0.253073 2.05346 0
M  V30 7568 C 731.824 -1.10218 1.53289 0
M  V30 7569 O 731.181 -1.69112 0.686105 0
M  V30 7570 C 731.232 0.215411 3.60858 0
M  V30 7571 O 730.953 1.51714 4.10992 0
M  V30 7572 C 732.454 -0.258636 4.42545 0
M  V30 7573 H 729.674 0.115256 0.661027 0
M  V30 7574 H 732.218 0.963555 1.80377 0
M  V30 7575 H 730.373 -0.445978 3.84824 0
M  V30 7576 H 730.787 1.41226 5.05129 0
M  V30 7577 H 732.261 -0.233849 5.51504 0
M  V30 7578 H 732.738 -1.2995 4.19535 0
M  V30 7579 H 733.344 0.372186 4.23668 0
M  V30 7580 N 731.66 -1.50943 0.453197 0
M  V30 7581 C 732.909 -2.01402 -0.10951 0
M  V30 7582 C 733.222 -1.3411 -1.42386 0
M  V30 7583 O 734.428 -1.75626 -2.07045 0
M  V30 7584 C 732.884 -3.5906 -0.245693 0
M  V30 7585 C 732.492 -4.353 1.05916 0
M  V30 7586 C 734.236 -4.17617 -0.761318 0
M  V30 7587 C 732.143 -5.84699 0.887752 0
M  V30 7588 H 731.073 -0.752674 -0.0447013 0
M  V30 7589 H 733.724 -1.73913 0.585375 0
M  V30 7590 H 732.106 -3.83062 -1.00395 0
M  V30 7591 H 733.28 -4.23034 1.82698 0
M  V30 7592 H 731.595 -3.88269 1.50452 0
M  V30 7593 H 734.192 -5.26963 -0.906306 0
M  V30 7594 H 734.535 -3.77824 -1.74799 0
M  V30 7595 H 735.068 -3.97753 -0.0609416 0
M  V30 7596 H 731.807 -6.28933 1.84726 0
M  V30 7597 H 731.327 -5.99587 0.160006 0
M  V30 7598 H 733.006 -6.44682 0.547223 0
M  V30 7599 N 733.138 -0.185124 -1.56509 0
M  V30 7600 C 734.386 0.455357 -1.96903 0
M  V30 7601 C 734.707 1.62839 -1.07277 0
M  V30 7602 O 733.977 1.95385 -0.141966 0
M  V30 7603 H 732.557 0.171218 -0.727113 0
M  V30 7604 H 735.219 -0.26953 -1.93027 0
M  V30 7605 H 734.315 0.80616 -3.01509 0
M  V30 7606 N 734.616 1.57351 0.0885366 0
M  V30 7607 C 735.546 2.05561 1.10757 0
M  V30 7608 C 736.527 0.945789 1.41382 0
M  V30 7609 O 737.712 1.21747 1.51299 0
M  V30 7610 C 734.842 2.48554 2.42566 0
M  V30 7611 C 733.796 3.63259 2.26334 0
M  V30 7612 C 733.122 3.9225 3.63378 0
M  V30 7613 C 734.422 4.93913 1.69844 0
M  V30 7614 H 736.116 2.90946 0.706468 0
M  V30 7615 H 733.662 1.39968 0.338385 0
M  V30 7616 H 735.615 2.8089 3.14132 0
M  V30 7617 H 734.339 1.60176 2.84625 0
M  V30 7618 H 732.998 3.31179 1.57213 0
M  V30 7619 H 732.646 3.0103 4.02976 0
M  V30 7620 H 732.346 4.69478 3.53362 0
M  V30 7621 H 733.87 4.27067 4.36401 0
M  V30 7622 H 735.284 5.24588 2.31258 0
M  V30 7623 H 733.681 5.75349 1.70569 0
M  V30 7624 H 734.751 4.80409 0.65843 0
M  V30 7625 N 736.094 -0.359525 1.53444 0
M  V30 7626 C 737.505 -0.936009 1.61542 0
M  V30 7627 C 737.856 -1.90069 0.486633 0
M  V30 7628 O 736.981 -2.12929 -0.386047 0
M  V30 7629 C 737.576 -1.70441 2.92806 0
M  V30 7630 C 736.135 -2.23015 3.03218 0
M  V30 7631 C 735.282 -1.04438 2.56881 0
M  V30 7632 H 738.233 -0.138134 1.58098 0
M  V30 7633 H 738.254 -2.56609 2.80948 0
M  V30 7634 H 737.766 -1.00205 3.74941 0
M  V30 7635 H 735.867 -2.96475 2.25684 0
M  V30 7636 H 735.98 -2.50481 4.08407 0
M  V30 7637 H 734.344 -1.41314 2.11902 0
M  V30 7638 H 735.127 -0.356905 3.4144 0
M  V30 7639 N 737.572 -1.44907 -0.619662 0
M  V30 7640 C 738.8 -1.51795 -1.40591 0
M  V30 7641 C 739.215 -0.146553 -1.8823 0
M  V30 7642 O 738.572 0.849698 -1.61513 0
M  V30 7643 C 738.623 -2.49229 -2.61853 0
M  V30 7644 O 738.344 -3.81039 -2.16197 0
M  V30 7645 C 739.845 -2.65696 -3.54853 0
M  V30 7646 H 737.065 -0.514463 -0.430777 0
M  V30 7647 H 739.609 -1.8998 -0.756813 0
M  V30 7648 H 737.764 -2.14149 -3.2283 0
M  V30 7649 H 738.178 -4.33747 -2.94896 0
M  V30 7650 H 739.652 -3.37874 -4.36515 0
M  V30 7651 H 740.129 -1.71316 -4.0441 0
M  V30 7652 H 740.735 -3.01724 -2.99737 0
M  V30 7653 N 739.05 0.861098 -1.31996 0
M  V30 7654 C 739.997 1.96912 -1.20392 0
M  V30 7655 C 740.967 1.65869 -0.0875899 0
M  V30 7656 O 742.152 1.88992 -0.262011 0
M  V30 7657 C 739.292 3.32435 -0.926335 0
M  V30 7658 C 738.405 3.76018 -2.12684 0
M  V30 7659 C 737.54 5.00301 -1.78529 0
M  V30 7660 C 736.579 5.36357 -2.94937 0
M  V30 7661 N 735.716 6.51818 -2.60917 0
M  V30 7662 H 740.556 2.06169 -2.1517 0
M  V30 7663 H 738.093 1.00917 -1.07024 0
M  V30 7664 H 740.051 4.10478 -0.745917 0
M  V30 7665 H 738.681 3.22796 -0.0153578 0
M  V30 7666 H 737.733 2.93683 -2.41774 0
M  V30 7667 H 739.045 3.98664 -2.99781 0
M  V30 7668 H 738.199 5.86034 -1.57001 0
M  V30 7669 H 736.938 4.79578 -0.886356 0
M  V30 7670 H 735.943 4.49139 -3.17103 0
M  V30 7671 H 737.168 5.59041 -3.85552 0
M  V30 7672 H 735.114 6.32624 -1.73558 0
M  V30 7673 H 735.031 6.7445 -3.41544 0
M  V30 7674 H 736.299 7.4072 -2.42804 0
M  V30 7675 N 740.528 1.15101 1.07655 0
M  V30 7676 C 741.46 0.802722 2.14684 0
M  V30 7677 C 742.473 -0.183874 1.61758 0
M  V30 7678 O 743.662 0.0389349 1.78458 0
M  V30 7679 C 740.762 0.172135 3.38463 0
M  V30 7680 C 739.935 1.19538 4.20749 0
M  V30 7681 C 738.994 0.58714 5.22914 0
M  V30 7682 O 738.02 1.25224 5.55255 0
M  V30 7683 N 739.222 -0.632566 5.77043 0
M  V30 7684 H 741.987 1.72379 2.45164 0
M  V30 7685 H 739.548 1.04647 1.23534 0
M  V30 7686 H 741.54 -0.247465 4.03943 0
M  V30 7687 H 740.11 -0.652214 3.0572 0
M  V30 7688 H 739.33 1.79165 3.51132 0
M  V30 7689 H 740.618 1.88636 4.7254 0
M  V30 7690 H 740.016 -1.19135 5.53013 0
M  V30 7691 H 738.573 -0.994566 6.44167 0
M  V30 7692 N 742.006 -1.2595 0.947325 0
M  V30 7693 C 743.417 -1.75389 0.639963 0
M  V30 7694 C 743.768 -1.77081 -0.844788 0
M  V30 7695 O 742.893 -1.3869 -1.66114 0
M  V30 7696 C 743.488 -3.18506 1.15496 0
M  V30 7697 C 742.047 -3.65534 0.897894 0
M  V30 7698 C 741.194 -2.44818 1.30228 0
M  V30 7699 H 744.145 -1.1194 1.12495 0
M  V30 7700 H 744.166 -3.77045 0.511627 0
M  V30 7701 H 743.678 -3.17243 2.23559 0
M  V30 7702 H 741.779 -3.72221 -0.168096 0
M  V30 7703 H 741.892 -4.54039 1.52922 0
M  V30 7704 H 740.256 -2.44291 0.720678 0
M  V30 7705 H 741.039 -2.46251 2.39198 0
M  V30 7706 N 743.484 -0.715051 -1.40445 0
M  V30 7707 C 744.733 -0.251322 -2.00128 0
M  V30 7708 C 745.046 1.16194 -1.57347 0
M  V30 7709 O 746.252 1.72416 -2.09726 0
M  V30 7710 C 744.708 -0.398407 -3.57688 0
M  V30 7711 C 744.316 -1.81828 -4.09442 0
M  V30 7712 C 746.06 0.00455625 -4.245 0
M  V30 7713 C 743.967 -1.91598 -5.59503 0
M  V30 7714 H 742.897 -0.0902081 -0.748584 0
M  V30 7715 H 745.548 -0.886062 -1.6069 0
M  V30 7716 H 743.93 0.304908 -3.94824 0
M  V30 7717 H 745.104 -2.55193 -3.83684 0
M  V30 7718 H 743.419 -2.17266 -3.55225 0
M  V30 7719 H 746.016 -0.0477303 -5.34679 0
M  V30 7720 H 746.359 1.04636 -4.02935 0
M  V30 7721 H 746.892 -0.649184 -3.92467 0
M  V30 7722 H 743.631 -2.93898 -5.85922 0
M  V30 7723 H 743.151 -1.22644 -5.87127 0
M  V30 7724 H 744.83 -1.68785 -6.24596 0
M  V30 7725 N 744.962 1.50701 -0.461195 0
M  V30 7726 C 746.373 1.867 -0.00370227 0
M  V30 7727 C 746.724 1.37673 1.39787 0
M  V30 7728 O 745.849 0.737515 2.03445 0
M  V30 7729 C 746.444 3.388 5.75786e-05 0
M  V30 7730 C 745.003 3.74247 0.402044 0
M  V30 7731 C 744.15 2.74549 -0.389652 0
M  V30 7732 H 747.101 1.43585 -0.675942 0
M  V30 7733 H 747.122 3.719 0.804414 0
M  V30 7734 H 746.634 3.74452 -1.02015 0
M  V30 7735 H 744.735 3.44192 1.42697 0
M  V30 7736 H 744.848 4.78973 0.110265 0
M  V30 7737 H 743.212 2.54226 0.155314 0
M  V30 7738 H 743.995 3.13044 -1.40919 0
M  V30 7739 N 746.441 0.193421 1.56409 0
M  V30 7740 C 747.718 -0.493318 1.89277 0
M  V30 7741 C 748.098 -1.79765 1.10669 0
M  V30 7742 O 747.446 -2.27558 0.207274 0
M  V30 7743 C 747.656 -0.713732 3.41624 0
M  V30 7744 C 749.004 -1.03385 4.11821 0
M  V30 7745 O 750.028 -0.801511 3.47065 0
M  V30 7746 O 748.887 -1.47327 5.26267 0
M  V30 7747 H 745.981 -0.256973 0.786062 0
M  V30 7748 H 748.527 0.23351 1.68086 0
M  V30 7749 H 747.299 0.207446 3.9075 0
M  V30 7750 H 746.922 -1.49308 3.68501 0
M  V30 7751 N 747.919 -1.57396 -0.0801906 0
M  V30 7752 C 749.159 -1.88668 -0.786367 0
M  V30 7753 C 749.523 -0.786216 -1.75165 0
M  V30 7754 O 750.724 -0.981769 -2.50229 0
M  V30 7755 C 748.995 -3.25176 -1.48308 0
M  V30 7756 S 750.554 -3.78177 -2.22549 0
M  V30 7757 H 747.372 -0.661094 -0.261679 0
M  V30 7758 H 749.974 -1.95453 -0.0428196 0
M  V30 7759 H 748.678 -4.03176 -0.766629 0
M  V30 7760 H 748.209 -3.21567 -2.26623 0
M  V30 7761 H 750.224 -3.52789 -3.48934 0
M  V30 7762 N 749.397 0.351382 -1.53633 0
M  V30 7763 C 750.307 1.45471 -1.84052 0
M  V30 7764 C 751.323 1.57945 -0.730015 0
M  V30 7765 O 752.499 1.73571 -1.02153 0
M  V30 7766 C 749.564 2.80562 -2.03681 0
M  V30 7767 C 748.625 2.77497 -3.27558 0
M  V30 7768 C 747.858 4.06144 -3.46241 0
M  V30 7769 O 748.081 5.03028 -2.68922 0
M  V30 7770 O 747.015 4.11092 -4.39645 0
M  V30 7771 H 750.841 1.22684 -2.77817 0
M  V30 7772 H 748.426 0.542827 -1.3919 0
M  V30 7773 H 750.308 3.6058 -2.18082 0
M  V30 7774 H 748.983 3.03296 -1.13106 0
M  V30 7775 H 747.89 1.96126 -3.18568 0
M  V30 7776 H 749.223 2.59716 -4.18101 0
M  V30 7777 N 750.875 1.45233 0.611969 0
M  V30 7778 C 752.124 1.48296 1.36716 0
M  V30 7779 C 752.437 0.12706 1.95187 0
M  V30 7780 O 753.643 0.0353066 2.71477 0
M  V30 7781 C 752.099 2.61168 2.47627 0
M  V30 7782 C 751.707 4.03051 1.95587 0
M  V30 7783 C 753.451 2.73472 3.24674 0
M  V30 7784 C 751.358 5.07312 3.03954 0
M  V30 7785 H 750.288 0.5518 0.513841 0
M  V30 7786 H 752.939 1.7136 0.656359 0
M  V30 7787 H 751.321 2.31379 3.21372 0
M  V30 7788 H 752.495 4.42497 1.2858 0
M  V30 7789 H 750.81 3.95158 1.31298 0
M  V30 7790 H 753.407 3.48537 4.05494 0
M  V30 7791 H 753.75 1.79953 3.75397 0
M  V30 7792 H 754.283 3.02765 2.58028 0
M  V30 7793 H 751.022 6.02525 2.58154 0
M  V30 7794 H 750.542 4.7244 3.69541 0
M  V30 7795 H 752.221 5.31867 3.6841 0
M  V30 7796 N 752.353 -0.854086 1.3245 0
M  V30 7797 C 753.3 -1.96271 1.21434 0
M  V30 7798 C 754.27 -1.6582 0.0963851 0
M  V30 7799 O 755.455 -1.88851 0.27203 0
M  V30 7800 C 752.595 -3.31939 0.943952 0
M  V30 7801 C 751.708 -3.74885 2.14675 0
M  V30 7802 C 750.843 -4.99347 1.81179 0
M  V30 7803 C 749.882 -5.34785 2.97777 0
M  V30 7804 N 749.019 -6.50425 2.6437 0
M  V30 7805 H 753.859 -2.05025 2.16261 0
M  V30 7806 H 751.396 -1.00348 1.07558 0
M  V30 7807 H 753.354 -4.10076 0.767675 0
M  V30 7808 H 751.984 -3.22784 0.0324763 0
M  V30 7809 H 751.036 -2.92396 2.43328 0
M  V30 7810 H 752.348 -3.97068 3.01891 0
M  V30 7811 H 751.502 -5.85193 1.60107 0
M  V30 7812 H 750.241 -4.79101 0.911777 0
M  V30 7813 H 749.246 -4.47451 3.1948 0
M  V30 7814 H 750.471 -5.56988 3.88511 0
M  V30 7815 H 748.417 -6.31695 1.7691 0
M  V30 7816 H 748.334 -6.7263 3.45116 0
M  V30 7817 H 749.602 -7.39422 2.46729 0
M  V30 7818 N 753.831 -1.1567 -1.07043 0
M  V30 7819 C 754.779 -0.852204 -2.16426 0
M  V30 7820 C 755.773 0.175661 -1.68487 0
M  V30 7821 O 756.979 0.0303874 -1.79974 0
M  V30 7822 H 753.354 -0.257942 -0.706378 0
M  V30 7823 H 755.325 -1.78231 -2.39324 0
M  V30 7824 C 754.074 -0.361362 -3.45817 0
M  V30 7825 H 753.397 -1.14369 -3.83092 0
M  V30 7826 H 754.837 -0.186997 -4.23587 0
M  V30 7827 C 753.296 0.917703 -3.2416 0
M  V30 7828 O 753.826 1.98858 -3.49025 0
M  V30 7829 N 752.032 0.858456 -2.77631 0
M  V30 7830 H 751.579 -0.0131821 -2.57597 0
M  V30 7831 H 751.537 1.71478 -2.6352 0
M  V30 7832 N 755.309 1.25446 -0.953992 0
M  V30 7833 C 756.725 1.4539 -0.658316 0
M  V30 7834 C 756.925 1.85607 0.784356 0
M  V30 7835 O 755.981 1.98568 1.55972 0
M  V30 7836 C 757.294 2.52643 -1.6307 0
M  V30 7837 C 758.842 2.66484 -1.64181 0
M  V30 7838 C 759.317 3.76921 -2.60182 0
M  V30 7839 N 760.808 3.84331 -2.58542 0
M  V30 7840 C 761.543 4.69271 -3.29503 0
M  V30 7841 N 761.039 5.58503 -4.09934 0
M  V30 7842 N 762.832 4.6323 -3.18393 0
M  V30 7843 H 754.983 0.976337 -1.8863 0
M  V30 7844 H 757.246 0.490343 -0.811337 0
M  V30 7845 H 756.952 2.29949 -2.66114 0
M  V30 7846 H 756.826 3.50547 -1.39271 0
M  V30 7847 H 759.213 2.88545 -0.618552 0
M  V30 7848 H 759.294 1.68982 -1.92038 0
M  V30 7849 H 758.938 3.55612 -3.62633 0
M  V30 7850 H 758.868 4.73906 -2.29609 0
M  V30 7851 H 761.359 3.20544 -2.0015 0
M  V30 7852 H 761.672 6.20241 -4.61 0
M  V30 7853 H 760.017 5.58214 -4.14032 0
M  V30 7854 H 763.208 3.92527 -2.5503 0
M  V30 7855 H 763.381 5.29204 -3.73961 0
M  V30 7856 N 756.787 0.722489 1.40064 0
M  V30 7857 C 758.198 0.336507 1.83642 0
M  V30 7858 C 758.549 -1.13002 1.6039 0
M  V30 7859 O 757.674 -1.87036 1.08842 0
M  V30 7860 C 758.269 0.603985 3.33373 0
M  V30 7861 C 756.828 0.271637 3.75419 0
M  V30 7862 C 755.975 0.872898 2.63203 0
M  V30 7863 H 758.926 0.921108 1.29233 0
M  V30 7864 H 758.947 -0.128471 3.80283 0
M  V30 7865 H 758.459 1.67141 3.50265 0
M  V30 7866 H 756.56 -0.790455 3.64119 0
M  V30 7867 H 756.673 0.745457 4.73265 0
M  V30 7868 H 755.037 0.300431 2.52922 0
M  V30 7869 H 755.82 1.94473 2.82905 0
M  V30 7870 N 758.265 -1.50454 0.469181 0
M  V30 7871 C 759.49 -2.0722 -0.0864892 0
M  V30 7872 C 759.915 -1.33098 -1.32916 0
M  V30 7873 O 759.273 -0.378084 -1.77314 0
M  V30 7874 C 759.321 -3.58845 -0.355384 0
M  V30 7875 O 758.425 -3.86583 -1.43622 0
M  V30 7876 H 757.766 -0.663889 0.0121414 0
M  V30 7877 H 760.296 -1.93674 0.659674 0
M  V30 7878 H 760.306 -4.03617 -0.596447 0
M  V30 7879 H 758.981 -4.12211 0.552698 0
M  V30 7880 H 757.558 -3.5365 -1.18262 0
M  V30 7881 N 759.743 -0.201713 -1.56304 0
M  V30 7882 C 760.673 0.71155 -2.22394 0
M  V30 7883 C 761.654 1.21625 -1.18917 0
M  V30 7884 O 762.839 1.26388 -1.47444 0
M  V30 7885 C 759.969 1.92837 -2.88845 0
M  V30 7886 C 758.923 1.55831 -3.98623 0
M  V30 7887 C 758.249 2.85228 -4.52271 0
M  V30 7888 C 759.549 0.763249 -5.16693 0
M  V30 7889 H 761.243 0.160573 -2.98969 0
M  V30 7890 H 758.789 0.0757916 -1.438 0
M  V30 7891 H 760.742 2.57253 -3.33764 0
M  V30 7892 H 759.466 2.50398 -2.09686 0
M  V30 7893 H 758.125 0.9377 -3.54405 0
M  V30 7894 H 757.773 3.40893 -3.69866 0
M  V30 7895 H 757.473 2.6121 -5.26349 0
M  V30 7896 H 758.997 3.50622 -4.99897 0
M  V30 7897 H 760.411 1.31066 -5.58117 0
M  V30 7898 H 758.808 0.620935 -5.96879 0
M  V30 7899 H 759.878 -0.234322 -4.84334 0
M  V30 7900 N 761.222 1.57436 0.0718424 0
M  V30 7901 C 762.152 2.06724 1.08571 0
M  V30 7902 C 763.133 0.960731 1.40371 0
M  V30 7903 O 764.318 1.23345 1.49999 0
M  V30 7904 C 761.448 2.51112 2.39916 0
M  V30 7905 C 760.402 3.65639 2.22469 0
M  V30 7906 C 759.728 3.96082 3.59198 0
M  V30 7907 C 761.028 4.95687 1.64596 0
M  V30 7908 H 762.722 2.91679 0.675569 0
M  V30 7909 H 760.268 1.40319 0.32352 0
M  V30 7910 H 762.221 2.84206 3.11135 0
M  V30 7911 H 760.945 1.63186 2.8291 0
M  V30 7912 H 759.604 3.32828 1.53691 0
M  V30 7913 H 759.252 3.05287 3.99761 0
M  V30 7914 H 758.952 4.73199 3.48362 0
M  V30 7915 H 760.476 4.31672 4.31847 0
M  V30 7916 H 761.89 5.27011 2.25681 0
M  V30 7917 H 760.287 5.77126 1.64457 0
M  V30 7918 H 761.357 4.8108 0.60744 0
M  V30 7919 N 762.7 -0.34323 1.53817 0
M  V30 7920 C 763.946 -1.08504 1.71332 0
M  V30 7921 C 764.279 -1.88294 0.475285 0
M  V30 7922 O 763.554 -1.87205 -0.527688 0
M  V30 7923 C 763.837 -2.02597 2.97702 0
M  V30 7924 C 763.69 -1.26268 4.31713 0
M  V30 7925 C 765.009 -3.0241 3.19744 0
M  V30 7926 H 762.128 -0.393072 0.623429 0
M  V30 7927 H 764.77 -0.363579 1.86489 0
M  V30 7928 H 762.92 -2.64118 2.8491 0
M  V30 7929 H 764.592 -0.673594 4.56356 0
M  V30 7930 H 762.835 -0.564696 4.30109 0
M  V30 7931 H 763.506 -1.95253 5.16314 0
M  V30 7932 H 765.982 -2.51004 3.31868 0
M  V30 7933 H 764.858 -3.65449 4.09558 0
M  V30 7934 H 765.119 -3.73806 2.36054 0
M  V30 7935 N 764.178 -1.45556 -0.604258 0
M  V30 7936 C 765.088 -1.57025 -1.74299 0
M  V30 7937 C 766.104 -0.45456 -1.67958 0
M  V30 7938 O 767.28 -0.715711 -1.88254 0
M  V30 7939 C 764.345 -1.53702 -3.10768 0
M  V30 7940 C 763.406 -2.76335 -3.28538 0
M  V30 7941 C 762.639 -2.73161 -4.58496 0
M  V30 7942 O 762.862 -1.80678 -5.41028 0
M  V30 7943 O 761.796 -3.64409 -4.79051 0
M  V30 7944 H 765.622 -2.53284 -1.67573 0
M  V30 7945 H 763.207 -1.28104 -0.768745 0
M  V30 7946 H 765.089 -1.54468 -3.92068 0
M  V30 7947 H 763.764 -0.605957 -3.17978 0
M  V30 7948 H 762.671 -2.8113 -2.46813 0
M  V30 7949 H 764.004 -3.68578 -3.26207 0
M  V30 7950 N 765.656 0.84705 -1.32902 0
M  V30 7951 C 766.603 1.95624 -1.22473 0
M  V30 7952 C 767.573 1.65767 -0.105178 0
M  V30 7953 O 768.758 1.88704 -0.282042 0
M  V30 7954 C 765.898 3.31434 -0.961542 0
M  V30 7955 C 765.011 3.73741 -2.1666 0
M  V30 7956 C 764.146 4.98379 -1.83825 0
M  V30 7957 C 763.185 5.33199 -3.00609 0
M  V30 7958 N 762.322 6.49014 -2.67816 0
M  V30 7959 H 767.162 2.03875 -2.17345 0
M  V30 7960 H 764.699 0.997764 -1.08088 0
M  V30 7961 H 766.657 4.09663 -0.789411 0
M  V30 7962 H 765.287 3.22762 -0.0495938 0
M  V30 7963 H 764.339 2.91102 -2.44875 0
M  V30 7964 H 765.651 3.95462 -3.03993 0
M  V30 7965 H 764.805 5.84336 -1.63208 0
M  V30 7966 H 763.544 4.78611 -0.937172 0
M  V30 7967 H 762.549 4.4575 -3.21849 0
M  V30 7968 H 763.774 5.5492 -3.9146 0
M  V30 7969 H 761.72 6.30748 -1.80258 0
M  V30 7970 H 761.637 6.7079 -3.48679 0
M  V30 7971 H 762.905 7.38103 -2.50647 0
M  V30 7972 N 767.134 1.16236 1.06428 0
M  V30 7973 C 768.383 0.937523 1.78587 0
M  V30 7974 C 768.696 -0.536 1.88113 0
M  V30 7975 O 769.902 -0.878697 2.56887 0
M  V30 7976 C 768.358 1.62808 3.2097 0
M  V30 7977 C 767.966 3.13927 3.19615 0
M  V30 7978 C 769.71 1.48515 3.97673 0
M  V30 7979 C 767.617 3.75727 4.56709 0
M  V30 7980 H 766.547 0.347125 0.669343 0
M  V30 7981 H 769.198 1.39353 1.19385 0
M  V30 7982 H 767.58 1.09977 3.80422 0
M  V30 7983 H 768.754 3.7359 2.69753 0
M  V30 7984 H 767.069 3.28089 2.56411 0
M  V30 7985 H 769.666 1.92069 4.99013 0
M  V30 7986 H 770.009 0.433913 4.14032 0
M  V30 7987 H 770.542 1.98494 3.44739 0
M  V30 7988 H 767.281 4.80793 4.45554 0
M  V30 7989 H 766.801 3.20849 5.0677 0
M  V30 7990 H 768.48 3.77203 5.25668 0
M  V30 7991 N 768.612 -1.24939 0.960631 0
M  V30 7992 C 769.56 -2.27659 0.47686 0
M  V30 7993 C 770.554 -1.63148 -0.455961 0
M  V30 7994 O 771.76 -1.76911 -0.332029 0
M  V30 7995 H 768.135 -0.739651 0.135723 0
M  V30 7996 H 770.106 -2.65844 1.35534 0
M  V30 7997 C 768.855 -3.46976 -0.224191 0
M  V30 7998 H 768.178 -3.96854 0.484471 0
M  V30 7999 H 769.618 -4.20717 -0.526615 0
M  V30 8000 C 768.077 -3.04159 -1.44876 0
M  V30 8001 O 768.607 -3.10697 -2.54618 0
M  V30 8002 N 766.813 -2.59284 -1.31226 0
M  V30 8003 H 766.36 -2.54164 -0.419361 0
M  V30 8004 H 766.318 -2.31 -2.13275 0
M  V30 8005 N 770.09 -0.729906 -1.39679 0
M  V30 8006 C 771.02 -0.101618 -2.33279 0
M  V30 8007 C 772.001 0.729854 -1.53646 0
M  V30 8008 O 773.186 0.67587 -1.82059 0
M  V30 8009 C 770.316 0.81024 -3.37716 0
M  V30 8010 C 769.27 0.0833126 -4.27919 0
M  V30 8011 C 768.596 1.11185 -5.23012 0
M  V30 8012 C 769.896 -1.07107 -5.112 0
M  V30 8013 H 771.59 -0.883452 -2.86069 0
M  V30 8014 H 769.136 -0.426283 -1.37546 0
M  V30 8015 H 771.089 1.25927 -4.02145 0
M  V30 8016 H 769.813 1.62413 -2.83354 0
M  V30 8017 H 768.472 -0.346043 -3.64963 0
M  V30 8018 H 768.12 1.91917 -4.64948 0
M  V30 8019 H 767.82 0.63026 -5.8421 0
M  V30 8020 H 769.344 1.56068 -5.90318 0
M  V30 8021 H 770.758 -0.700726 -5.69002 0
M  V30 8022 H 769.155 -1.48196 -5.81514 0
M  V30 8023 H 770.225 -1.89513 -4.46332 0
M  V30 8024 N 771.568 1.50203 -0.477153 0
M  V30 8025 C 772.815 2.02358 0.0757385 0
M  V30 8026 C 773.143 1.3587 1.39174 0
M  V30 8027 O 772.398 0.475415 1.89838 0
M  V30 8028 C 772.697 3.56127 0.301325 0
M  V30 8029 C 772.363 4.41126 -0.933725 0
M  V30 8030 C 771.025 4.64075 -1.27233 0
M  V30 8031 C 773.377 4.90737 -1.75576 0
M  V30 8032 C 770.705 5.33878 -2.43292 0
M  V30 8033 C 773.057 5.61816 -2.90768 0
M  V30 8034 C 771.721 5.83016 -3.25036 0
M  V30 8035 H 770.991 0.740482 0.0277147 0
M  V30 8036 H 773.638 1.80754 -0.632467 0
M  V30 8037 H 771.943 3.76279 1.09183 0
M  V30 8038 H 773.64 3.94053 0.743184 0
M  V30 8039 H 770.23 4.23489 -0.659935 0
M  V30 8040 H 774.414 4.72856 -1.50734 0
M  V30 8041 H 769.67 5.48499 -2.70109 0
M  V30 8042 H 773.844 5.99237 -3.54807 0
M  V30 8043 H 771.471 6.36881 -4.15074 0
M  V30 8044 N 773.046 0.209999 1.56195 0
M  V30 8045 C 774.009 -0.691232 2.18528 0
M  V30 8046 C 775.009 -1.13013 1.14388 0
M  V30 8047 O 776.199 -1.04081 1.39688 0
M  V30 8048 C 773.331 -1.94551 2.79934 0
M  V30 8049 H 774.524 -0.147953 2.99535 0
M  V30 8050 H 772.077 -0.0396243 1.5625 0
M  V30 8051 H 772.812 -2.53094 2.02766 0
M  V30 8052 H 772.597 -1.63938 3.56184 0
M  V30 8053 H 774.087 -2.58785 3.2775 0
M  V30 8054 N 774.524 -1.57472 -0.0634922 0
M  V30 8055 C 775.457 -1.99571 -1.10664 0
M  V30 8056 C 776.435 -0.874015 -1.37112 0
M  V30 8057 O 777.619 -1.13702 -1.50347 0
M  V30 8058 C 774.746 -2.3395 -2.44918 0
M  V30 8059 C 773.792 -3.56213 -2.34551 0
M  V30 8060 S 774.625 -5.06727 -1.73169 0
M  V30 8061 C 775.781 -5.44316 -3.08984 0
M  V30 8062 H 776.014 -2.87739 -0.747905 0
M  V30 8063 H 773.547 -1.5198 -0.272316 0
M  V30 8064 H 775.505 -2.54431 -3.22141 0
M  V30 8065 H 774.166 -1.46297 -2.7795 0
M  V30 8066 H 773.359 -3.77812 -3.33578 0
M  V30 8067 H 772.961 -3.35406 -1.65466 0
M  V30 8068 H 775.253 -5.42894 -4.05305 0
M  V30 8069 H 776.196 -6.4502 -2.92156 0
M  V30 8070 H 776.604 -4.71781 -3.09972 0
M  V30 8071 N 776.003 0.335068 -1.53997 0
M  V30 8072 C 777.25 1.07435 -1.71651 0
M  V30 8073 C 777.578 1.88378 -0.48413 0
M  V30 8074 O 776.833 1.8827 0.534139 0
M  V30 8075 C 777.132 2.0364 -2.9371 0
M  V30 8076 C 776.798 1.38942 -4.28959 0
M  V30 8077 C 775.46 1.21027 -4.65732 0
M  V30 8078 C 777.812 0.924083 -5.12943 0
M  V30 8079 C 775.14 0.552097 -5.84097 0
M  V30 8080 C 777.492 0.27978 -6.31981 0
M  V30 8081 C 776.156 0.0883843 -6.67441 0
M  V30 8082 H 775.426 0.393133 -0.628114 0
M  V30 8083 H 778.073 0.352712 -1.88224 0
M  V30 8084 H 776.378 2.82215 -2.71775 0
M  V30 8085 H 778.075 2.6085 -3.04562 0
M  V30 8086 H 774.665 1.53885 -4.00022 0
M  V30 8087 H 778.849 1.05032 -4.85059 0
M  V30 8088 H 774.105 0.392502 -6.10139 0
M  V30 8089 H 778.279 -0.0888479 -6.96343 0
M  V30 8090 H 775.906 -0.423657 -7.59019 0
M  V30 8091 N 777.481 1.45874 0.596531 0
M  V30 8092 C 778.729 1.5017 1.35253 0
M  V30 8093 C 779.05 0.149246 1.94428 0
M  V30 8094 O 778.32 -0.82268 1.77789 0
M  V30 8095 H 776.9 0.553052 0.502138 0
M  V30 8096 H 779.562 1.81908 0.699671 0
M  V30 8097 H 778.658 2.24671 2.16632 0
M  V30 8098 N 778.959 -0.83999 1.33349 0
M  V30 8099 C 780.187 -1.62728 1.27778 0
M  V30 8100 C 780.602 -1.88191 -0.151505 0
M  V30 8101 O 779.959 -1.46128 -1.09329 0
M  V30 8102 C 780.01 -2.97813 2.04913 0
M  V30 8103 O 779.731 -2.73469 3.42266 0
M  V30 8104 C 781.232 -3.92245 2.0654 0
M  V30 8105 H 778.452 -0.506374 0.440257 0
M  V30 8106 H 780.996 -1.04637 1.75703 0
M  V30 8107 H 779.151 -3.52509 1.60674 0
M  V30 8108 H 779.565 -3.59483 3.81932 0
M  V30 8109 H 781.039 -4.84249 2.64966 0
M  V30 8110 H 781.516 -4.26332 1.05537 0
M  V30 8111 H 782.122 -3.43487 2.50793 0
M  V30 8112 N 780.437 -1.16799 -1.0581 0
M  V30 8113 C 781.685 -0.950642 -1.78346 0
M  V30 8114 C 782.006 0.522524 -1.87869 0
M  V30 8115 O 781.276 1.3795 -1.39092 0
M  V30 8116 H 779.856 -0.348736 -0.6606 0
M  V30 8117 H 782.518 -1.47158 -1.27791 0
M  V30 8118 H 781.614 -1.37359 -2.80248 0
M  V30 8119 N 781.915 1.24427 -0.967243 0
M  V30 8120 C 783.164 1.91789 -0.624478 0
M  V30 8121 C 783.477 1.76448 0.844129 0
M  V30 8122 O 784.683 2.38495 1.2974 0
M  V30 8123 C 783.139 3.43743 -1.06626 0
M  V30 8124 C 782.747 3.67771 -2.55829 0
M  V30 8125 C 784.491 4.16958 -0.79662 0
M  V30 8126 C 782.398 5.13293 -2.93742 0
M  V30 8127 H 781.328 0.71811 -0.229856 0
M  V30 8128 H 783.979 1.41081 -1.17339 0
M  V30 8129 H 782.361 3.93484 -0.445663 0
M  V30 8130 H 783.535 3.28631 -3.23015 0
M  V30 8131 H 781.85 3.07841 -2.80398 0
M  V30 8132 H 784.447 5.24171 -1.05589 0
M  V30 8133 H 784.79 4.15442 0.267163 0
M  V30 8134 H 785.323 3.73164 -1.37816 0
M  V30 8135 H 782.062 5.19931 -3.9919 0
M  V30 8136 H 781.582 5.53433 -2.3124 0
M  V30 8137 H 783.261 5.81521 -2.83623 0
M  V30 8138 N 783.393 0.737304 1.3929 0
M  V30 8139 C 784.356 0.10731 2.28949 0
M  V30 8140 C 785.356 -0.664716 1.46418 0
M  V30 8141 O 786.546 -0.493392 1.67067 0
M  V30 8142 C 783.678 -0.857145 3.29948 0
M  V30 8143 H 784.871 0.89725 2.86163 0
M  V30 8144 H 782.424 0.503279 1.47976 0
M  V30 8145 H 783.159 -1.67336 2.77794 0
M  V30 8146 H 782.944 -0.306167 3.90903 0
M  V30 8147 H 784.434 -1.29444 3.97031 0
M  V30 8148 N 784.871 -1.49948 0.485112 0
M  V30 8149 C 785.804 -2.25531 -0.348027 0
M  V30 8150 C 786.782 -1.29433 -0.984172 0
M  V30 8151 O 787.966 -1.58687 -1.01738 0
M  V30 8152 C 785.093 -3.04225 -1.48878 0
M  V30 8153 C 784.139 -4.15355 -0.968616 0
M  V30 8154 S 784.972 -5.35347 0.127934 0
M  V30 8155 C 786.128 -6.17593 -1.01637 0
M  V30 8156 H 786.361 -2.95847 0.293529 0
M  V30 8157 H 783.894 -1.52018 0.27018 0
M  V30 8158 H 785.852 -3.50153 -2.14251 0
M  V30 8159 H 784.513 -2.33407 -2.1019 0
M  V30 8160 H 783.706 -4.69873 -1.82305 0
M  V30 8161 H 783.308 -3.71936 -0.392377 0
M  V30 8162 H 785.6 -6.49576 -1.92503 0
M  V30 8163 H 786.543 -7.0626 -0.510149 0
M  V30 8164 H 786.951 -5.49877 -1.27653 0
M  V30 8165 N 786.349 -0.21828 -1.56081 0
M  V30 8166 C 787.574 0.422302 -2.03055 0
M  V30 8167 C 787.999 1.5279 -1.09713 0
M  V30 8168 O 787.357 1.81102 -0.0847187 0
M  V30 8169 C 787.405 0.934177 -3.48289 0
M  V30 8170 O 786.509 2.04574 -3.58083 0
M  V30 8171 H 785.85 0.0959764 -0.657027 0
M  V30 8172 H 788.38 -0.335958 -2.01823 0
M  V30 8173 H 788.39 1.24484 -3.88546 0
M  V30 8174 H 787.065 0.124963 -4.15712 0
M  V30 8175 H 785.642 1.74196 -3.29712 0
M  V30 8176 N 787.827 1.57504 0.0551401 0
M  V30 8177 C 789.055 1.92294 0.76358 0
M  V30 8178 C 789.47 0.815774 1.70266 0
M  V30 8179 O 788.827 -0.209772 1.8129 0
M  V30 8180 C 788.878 3.26914 1.54302 0
M  V30 8181 O 788.599 4.33375 0.641666 0
M  V30 8182 C 790.1 3.75825 2.35097 0
M  V30 8183 H 787.32 0.635229 0.216159 0
M  V30 8184 H 789.864 2.0449 0.0204385 0
M  V30 8185 H 788.019 3.16196 2.23828 0
M  V30 8186 H 788.433 5.10927 1.1855 0
M  V30 8187 H 789.907 4.72603 2.8522 0
M  V30 8188 H 790.384 3.0568 3.15367 0
M  V30 8189 H 790.99 3.89542 1.70696 0
M  V30 8190 N 789.305 -0.326896 1.54172 0
M  V30 8191 C 790.551 -1.06304 1.7341 0
M  V30 8192 C 790.906 -1.85791 0.499935 0
M  V30 8193 O 790.199 -1.84753 -0.507625 0
M  V30 8194 C 790.393 -2.0208 2.94785 0
M  V30 8195 C 790.222 -1.32009 4.29888 0
M  V30 8196 C 788.992 -1.05798 4.941 0
M  V30 8197 C 791.19 -0.737721 5.08982 0
M  V30 8198 N 789.172 -0.324836 6.1304 0
M  V30 8199 C 790.543 -0.136006 6.19851 0
M  V30 8200 C 792.598 -0.640206 4.93767 0
M  V30 8201 C 791.301 0.553757 7.17165 0
M  V30 8202 C 793.327 0.0358492 5.91389 0
M  V30 8203 C 792.689 0.626522 7.01608 0
M  V30 8204 H 788.788 -0.372808 0.687414 0
M  V30 8205 H 791.372 -0.34462 1.91626 0
M  V30 8206 H 789.543 -2.71197 2.78041 0
M  V30 8207 H 791.275 -2.68655 3.02666 0
M  V30 8208 H 788.03 -1.34945 4.53968 0
M  V30 8209 H 788.454 0.0274982 6.76994 0
M  V30 8210 H 793.096 -1.0826 4.08705 0
M  V30 8211 H 790.814 1.00799 8.01789 0
M  V30 8212 H 794.4 0.110895 5.81694 0
M  V30 8213 H 793.28 1.14135 7.7585 0
M  V30 8214 N 790.784 -1.46188 -0.588786 0
M  V30 8215 C 792.03 -1.51407 -1.34921 0
M  V30 8216 C 792.363 -0.162771 -1.93517 0
M  V30 8217 O 791.638 0.825082 -1.76132 0
M  V30 8218 C 791.921 -2.60795 -2.48311 0
M  V30 8219 C 791.774 -4.05435 -1.94789 0
M  V30 8220 C 793.093 -2.66313 -3.50379 0
M  V30 8221 H 790.212 -0.551213 -0.489217 0
M  V30 8222 H 792.854 -1.78095 -0.661993 0
M  V30 8223 H 791.004 -2.3817 -3.06932 0
M  V30 8224 H 792.676 -4.39328 -1.40672 0
M  V30 8225 H 790.919 -4.15202 -1.25659 0
M  V30 8226 H 791.59 -4.77691 -2.76613 0
M  V30 8227 H 794.066 -2.86634 -3.01629 0
M  V30 8228 H 792.942 -3.44681 -4.27184 0
M  V30 8229 H 793.203 -1.72127 -4.07216 0
M  V30 8230 N 792.262 0.832906 -1.33792 0
M  V30 8231 C 793.508 1.59053 -1.26782 0
M  V30 8232 C 793.863 1.91705 0.163399 0
M  V30 8233 O 793.156 1.5638 1.10706 0
M  V30 8234 C 793.35 2.9047 -2.08235 0
M  V30 8235 C 793.179 2.70656 -3.59132 0
M  V30 8236 C 791.949 2.67905 -4.28433 0
M  V30 8237 C 794.147 2.42871 -4.53341 0
M  V30 8238 N 792.129 2.39531 -5.65242 0
M  V30 8239 C 793.5 2.24101 -5.78082 0
M  V30 8240 C 795.555 2.28517 -4.42362 0
M  V30 8241 C 794.258 1.92432 -6.93082 0
M  V30 8242 C 796.284 1.98242 -5.57184 0
M  V30 8243 C 795.646 1.80288 -6.80937 0
M  V30 8244 H 791.745 0.584823 -0.51914 0
M  V30 8245 H 794.329 0.977252 -1.68398 0
M  V30 8246 H 792.5 3.49739 -1.6893 0
M  V30 8247 H 794.232 3.55744 -1.92947 0
M  V30 8248 H 790.987 2.81624 -3.80768 0
M  V30 8249 H 791.411 2.28211 -6.37377 0
M  V30 8250 H 796.053 2.41107 -3.47314 0
M  V30 8251 H 793.771 1.78579 -7.88121 0
M  V30 8252 H 797.357 1.87882 -5.50628 0
M  V30 8253 H 796.237 1.57199 -7.68283 0
M  V30 8254 N 793.74 1.17359 1.05189 0
M  V30 8255 C 794.968 0.986529 1.81866 0
M  V30 8256 C 795.383 -0.46522 1.82979 0
M  V30 8257 O 794.74 -1.32305 1.25705 0
M  V30 8258 C 794.791 1.52021 3.27982 0
M  V30 8259 O 794.512 2.91511 3.27037 0
M  V30 8260 C 796.013 1.37774 4.21347 0
M  V30 8261 H 793.233 0.349021 0.573084 0
M  V30 8262 H 795.777 1.55648 1.32643 0
M  V30 8263 H 793.932 0.992287 3.74476 0
M  V30 8264 H 794.346 3.16178 4.18488 0
M  V30 8265 H 795.82 1.7993 5.21852 0
M  V30 8266 H 796.297 0.32483 4.37997 0
M  V30 8267 H 796.903 1.89583 3.80708 0
M  V30 8268 N 795.218 -1.23913 0.973828 0
M  V30 8269 C 796.165 -2.25132 0.508366 0
M  V30 8270 C 797.135 -1.59908 -0.449307 0
M  V30 8271 O 798.32 -1.87405 -0.358313 0
M  V30 8272 C 795.46 -3.4458 -0.189422 0
M  V30 8273 C 794.573 -4.24381 0.807738 0
M  V30 8274 C 793.708 -5.31131 0.0854315 0
M  V30 8275 C 792.747 -6.02635 1.07225 0
M  V30 8276 N 791.884 -7.01073 0.379535 0
M  V30 8277 H 796.724 -2.64313 1.37632 0
M  V30 8278 H 794.261 -1.29924 0.689802 0
M  V30 8279 H 796.219 -4.12706 -0.610733 0
M  V30 8280 H 794.849 -3.06218 -1.02129 0
M  V30 8281 H 793.901 -3.55735 1.34747 0
M  V30 8282 H 795.213 -4.73778 1.55998 0
M  V30 8283 H 794.367 -6.05422 -0.393572 0
M  V30 8284 H 793.106 -4.82658 -0.699461 0
M  V30 8285 H 792.111 -5.27143 1.56207 0
M  V30 8286 H 793.336 -6.53197 1.85769 0
M  V30 8287 H 791.282 -6.54862 -0.386269 0
M  V30 8288 H 791.199 -7.48382 1.07054 0
M  V30 8289 H 792.467 -7.79462 -0.0772984 0
M  V30 8290 N 796.696 -0.74468 -1.38897 0
M  V30 8291 C 797.659 -0.11945 -2.28889 0
M  V30 8292 C 798.659 0.656942 -1.46768 0
M  V30 8293 O 799.849 0.484525 -1.67326 0
M  V30 8294 C 796.981 0.839635 -3.30398 0
M  V30 8295 H 798.174 -0.912414 -2.85683 0
M  V30 8296 H 795.727 -0.511119 -1.47707 0
M  V30 8297 H 796.462 1.6586 -2.78677 0
M  V30 8298 H 796.247 0.285432 -3.9106 0
M  V30 8299 H 797.737 1.27337 -3.97712 0
M  V30 8300 N 798.174 1.49689 -0.493057 0
M  V30 8301 C 799.402 2.06836 0.0513141 0
M  V30 8302 C 799.817 1.35436 1.31539 0
M  V30 8303 O 799.174 0.430248 1.77356 0
M  V30 8304 C 799.225 3.60107 0.317003 0
M  V30 8305 O 798.946 4.2882 -0.896957 0
M  V30 8306 C 800.447 4.33945 0.905902 0
M  V30 8307 H 797.667 0.670787 -0.0169048 0
M  V30 8308 H 800.211 1.92574 -0.688139 0
M  V30 8309 H 798.366 3.74099 1.00642 0
M  V30 8310 H 798.78 5.20395 -0.654939 0
M  V30 8311 H 800.254 5.42087 1.04144 0
M  V30 8312 H 800.731 3.95895 1.90168 0
M  V30 8313 H 801.337 4.2454 0.254195 0
M  V30 8314 N 799.652 0.226554 1.55963 0
M  V30 8315 C 800.582 -0.676079 2.23498 0
M  V30 8316 C 801.563 -1.19718 1.20837 0
M  V30 8317 O 802.748 -1.24027 1.49436 0
M  V30 8318 C 799.878 -1.88217 2.91876 0
M  V30 8319 C 798.832 -1.4947 4.01052 0
M  V30 8320 C 798.158 -2.77997 4.56751 0
M  V30 8321 C 799.458 -0.680951 5.17842 0
M  V30 8322 H 801.152 -0.112989 2.99187 0
M  V30 8323 H 798.698 -0.0529046 1.43903 0
M  V30 8324 H 800.651 -2.51911 3.37815 0
M  V30 8325 H 799.375 -2.47031 2.13643 0
M  V30 8326 H 798.034 -0.881199 3.55852 0
M  V30 8327 H 797.682 -3.34966 3.75243 0
M  V30 8328 H 797.382 -2.52803 5.30438 0
M  V30 8329 H 798.906 -3.42625 5.05411 0
M  V30 8330 H 800.32 -1.22171 5.60131 0
M  V30 8331 H 798.717 -0.525898 5.97791 0
M  V30 8332 H 799.787 0.311346 4.83899 0
M  V30 8333 N 801.13 -1.57531 -0.0467866 0
M  V30 8334 C 802.06 -2.08425 -1.05268 0
M  V30 8335 C 803.041 -0.982941 -1.38825 0
M  V30 8336 O 804.226 -1.25716 -1.48018 0
M  V30 8337 C 801.356 -2.54897 -2.35891 0
M  V30 8338 C 800.31 -3.69132 -2.16623 0
M  V30 8339 C 799.636 -4.01747 -3.52851 0
M  V30 8340 C 800.936 -4.98243 -1.56689 0
M  V30 8341 H 802.63 -2.92716 -0.62908 0
M  V30 8342 H 800.176 -1.40816 -0.301156 0
M  V30 8343 H 802.129 -2.8912 -3.06574 0
M  V30 8344 H 800.853 -1.67666 -2.80278 0
M  V30 8345 H 799.512 -3.35231 -1.48377 0
M  V30 8346 H 799.16 -3.11608 -3.94853 0
M  V30 8347 H 798.86 -4.78681 -3.4079 0
M  V30 8348 H 800.384 -4.38487 -4.24925 0
M  V30 8349 H 801.798 -5.30535 -2.17268 0
M  V30 8350 H 800.195 -5.79669 -1.55255 0
M  V30 8351 H 801.265 -4.81986 -0.530827 0
M  V30 8352 N 802.608 0.318715 -1.54344 0
M  V30 8353 C 803.857 1.05363 -1.71993 0
M  V30 8354 C 804.17 1.89018 -0.503155 0
M  V30 8355 O 805.376 2.65639 -0.561085 0
M  V30 8356 C 803.832 1.92281 -3.0423 0
M  V30 8357 C 803.44 1.13715 -4.33328 0
M  V30 8358 C 805.184 2.65479 -3.31242 0
M  V30 8359 C 803.091 1.99806 -5.56625 0
M  V30 8360 H 802.021 0.397081 -0.64097 0
M  V30 8361 H 804.672 0.311598 -1.80835 0
M  V30 8362 H 803.054 2.70402 -2.89307 0
M  V30 8363 H 804.228 0.403305 -4.59032 0
M  V30 8364 H 802.543 0.521769 -4.13118 0
M  V30 8365 H 805.14 3.30209 -4.20555 0
M  V30 8366 H 805.483 3.33374 -2.49334 0
M  V30 8367 H 806.016 1.94417 -3.47054 0
M  V30 8368 H 802.755 1.36411 -6.41149 0
M  V30 8369 H 802.275 2.70911 -5.35133 0
M  V30 8370 H 803.954 2.58277 -5.93213 0
M  V30 8371 N 804.086 1.46499 0.581025 0
M  V30 8372 C 805.332 1.53108 1.33901 0
M  V30 8373 C 805.687 0.181007 1.91547 0
M  V30 8374 O 804.98 -0.810518 1.73612 0
M  V30 8375 C 805.174 2.56686 2.48691 0
M  V30 8376 C 805.003 4.01633 2.0229 0
M  V30 8377 C 803.773 4.69333 1.87228 0
M  V30 8378 C 805.971 4.89379 1.58154 0
M  V30 8379 N 803.953 5.98891 1.34917 0
M  V30 8380 C 805.324 6.08775 1.17445 0
M  V30 8381 C 807.379 4.76017 1.45987 0
M  V30 8382 C 806.082 7.16286 0.657805 0
M  V30 8383 C 808.108 5.83601 0.95726 0
M  V30 8384 C 807.47 7.02171 0.55996 0
M  V30 8385 H 803.569 0.61509 0.482896 0
M  V30 8386 H 806.153 1.83123 0.661361 0
M  V30 8387 H 804.324 2.28578 3.14017 0
M  V30 8388 H 806.056 2.5328 3.15644 0
M  V30 8389 H 802.811 4.24878 2.09226 0
M  V30 8390 H 803.235 6.67852 1.10917 0
M  V30 8391 H 807.877 3.84736 1.75322 0
M  V30 8392 H 805.595 8.07333 0.352047 0
M  V30 8393 H 809.181 5.75304 0.867007 0
M  V30 8394 H 808.061 7.84 0.177046 0
M  V30 8395 N 805.565 -0.825799 1.34232 0
M  V30 8396 C 806.981 -1.11848 1.13851 0
M  V30 8397 C 807.181 -2.01405 -0.0619031 0
M  V30 8398 O 806.237 -2.41465 -0.738287 0
M  V30 8399 C 807.55 -1.76797 2.43235 0
M  V30 8400 C 809.098 -1.89304 2.49265 0
M  V30 8401 C 809.573 -2.57669 3.78643 0
M  V30 8402 N 811.064 -2.65171 3.79788 0
M  V30 8403 C 811.799 -3.1879 4.76614 0
M  V30 8404 N 811.295 -3.72995 5.83821 0
M  V30 8405 N 813.088 -3.17164 4.64073 0
M  V30 8406 H 805.239 -0.230049 2.11151 0
M  V30 8407 H 807.502 -0.164609 0.9336 0
M  V30 8408 H 807.208 -1.18455 3.31152 0
M  V30 8409 H 807.082 -2.76693 2.56361 0
M  V30 8410 H 809.469 -2.46796 1.6179 0
M  V30 8411 H 809.55 -0.883191 2.4007 0
M  V30 8412 H 809.194 -2.00833 4.66507 0
M  V30 8413 H 809.124 -3.59152 3.8512 0
M  V30 8414 H 811.615 -2.26746 3.02315 0
M  V30 8415 H 811.928 -4.12151 6.53721 0
M  V30 8416 H 810.273 -3.71246 5.87538 0
M  V30 8417 H 813.464 -2.74082 3.79469 0
M  V30 8418 H 813.637 -3.58647 5.397 0
M  V30 8419 N 807.043 -1.17915 -1.04565 0
M  V30 8420 C 808.459 -0.927761 -1.29864 0
M  V30 8421 C 808.659 0.409536 -1.97294 0
M  V30 8422 O 807.715 1.14505 -2.25044 0
M  V30 8423 C 809.028 -2.08967 -2.16225 0
M  V30 8424 C 810.576 -2.12741 -2.29587 0
M  V30 8425 C 811.051 -3.28335 -3.19312 0
M  V30 8426 N 812.542 -3.28164 -3.26898 0
M  V30 8427 C 813.277 -4.14249 -3.96466 0
M  V30 8428 N 812.773 -5.10457 -4.68407 0
M  V30 8429 N 814.566 -4.02179 -3.92694 0
M  V30 8430 H 806.717 -2.03983 -0.592011 0
M  V30 8431 H 808.98 -0.891023 -0.323701 0
M  V30 8432 H 808.686 -3.05654 -1.73979 0
M  V30 8433 H 808.56 -2.04606 -3.16885 0
M  V30 8434 H 810.947 -1.16636 -2.71072 0
M  V30 8435 H 811.028 -2.21162 -1.28535 0
M  V30 8436 H 810.672 -4.2471 -2.78539 0
M  V30 8437 H 810.602 -3.17151 -4.20384 0
M  V30 8438 H 813.093 -2.58511 -2.75646 0
M  V30 8439 H 813.406 -5.72526 -5.1907 0
M  V30 8440 H 811.751 -5.14422 -4.67328 0
M  V30 8441 H 814.942 -3.26308 -3.3562 0
M  V30 8442 H 815.115 -4.69486 -4.4664 0
M  V30 8443 N 808.521 1.23394 -0.980386 0
M  V30 8444 C 809.749 1.95844 -0.667286 0
M  V30 8445 C 810.164 1.72574 0.765735 0
M  V30 8446 O 809.521 1.01715 1.51526 0
M  V30 8447 C 809.572 3.48844 -0.948151 0
M  V30 8448 O 809.293 3.71325 -2.32485 0
M  V30 8449 C 810.794 4.38494 -0.651002 0
M  V30 8450 H 808.014 0.623535 -0.247882 0
M  V30 8451 H 810.558 1.56885 -1.31176 0
M  V30 8452 H 808.713 3.85819 -0.349681 0
M  V30 8453 H 809.127 4.65619 -2.41452 0
M  V30 8454 H 810.601 5.44648 -0.897887 0
M  V30 8455 H 811.078 4.37236 0.414922 0
M  V30 8456 H 811.684 4.07127 -1.22995 0
M  V30 8457 N 809.999 0.752036 1.385 0
M  V30 8458 C 811.245 0.316909 2.00916 0
M  V30 8459 C 811.6 -1.08884 1.58625 0
M  V30 8460 O 810.893 -1.73494 0.813047 0
M  V30 8461 C 811.087 0.376155 3.55415 0
M  V30 8462 C 810.916 1.78612 4.12708 0
M  V30 8463 C 809.686 2.4023 4.44542 0
M  V30 8464 C 811.884 2.74253 4.35075 0
M  V30 8465 N 809.866 3.73204 4.87434 0
M  V30 8466 C 811.237 3.9199 4.80358 0
M  V30 8467 C 813.292 2.71795 4.17171 0
M  V30 8468 C 811.995 5.07627 5.09615 0
M  V30 8469 C 814.021 3.86589 4.47552 0
M  V30 8470 C 813.383 5.03064 4.93058 0
M  V30 8471 H 809.482 0.16259 0.764911 0
M  V30 8472 H 812.066 0.981657 1.68142 0
M  V30 8473 H 810.237 -0.258317 3.8754 0
M  V30 8474 H 811.969 -0.0791421 4.04623 0
M  V30 8475 H 808.724 1.92009 4.32931 0
M  V30 8476 H 809.148 4.41519 5.13215 0
M  V30 8477 H 813.79 1.82929 3.81178 0
M  V30 8478 H 811.508 5.97109 5.44506 0
M  V30 8479 H 815.094 3.86005 4.35306 0
M  V30 8480 H 813.974 5.90417 5.16118 0
M  V30 8481 N 811.477 -1.49425 0.500989 0
M  V30 8482 C 812.717 -2.04357 -0.0419004 0
M  V30 8483 C 813.081 -1.37236 -1.34277 0
M  V30 8484 O 814.282 -1.82889 -1.9699 0
M  V30 8485 C 812.553 -3.56889 -0.19112 0
M  V30 8486 S 814.112 -4.33369 -0.688259 0
M  V30 8487 H 810.93 -0.710998 -0.00177796 0
M  V30 8488 H 813.532 -1.83479 0.674953 0
M  V30 8489 H 812.236 -4.03283 0.760964 0
M  V30 8490 H 811.767 -3.82171 -0.933214 0
M  V30 8491 H 813.782 -4.55961 -1.9574 0
M  V30 8492 N 812.955 -0.234822 -1.55841 0
M  V30 8493 C 814.371 0.120295 -1.59146 0
M  V30 8494 C 814.571 1.57896 -1.25184 0
M  V30 8495 O 813.627 2.32138 -0.993393 0
M  V30 8496 C 814.94 -0.217984 -2.99909 0
M  V30 8497 C 816.488 -0.161298 -3.12584 0
M  V30 8498 C 816.963 -0.473438 -4.55546 0
M  V30 8499 N 818.454 -0.423494 -4.6126 0
M  V30 8500 C 819.189 -0.638334 -5.69836 0
M  V30 8501 N 818.685 -0.915659 -6.86722 0
M  V30 8502 N 820.478 -0.569864 -5.59204 0
M  V30 8503 H 812.629 -1.18622 -1.76189 0
M  V30 8504 H 814.892 -0.476426 -0.819587 0
M  V30 8505 H 814.598 -1.2309 -3.29457 0
M  V30 8506 H 814.472 0.460707 -3.74376 0
M  V30 8507 H 816.859 0.842274 -2.82825 0
M  V30 8508 H 816.94 -0.873661 -2.40418 0
M  V30 8509 H 816.584 -1.47451 -4.86025 0
M  V30 8510 H 816.514 0.260268 -5.25956 0
M  V30 8511 H 819.005 -0.217383 -3.77274 0
M  V30 8512 H 819.318 -1.06734 -7.65394 0
M  V30 8513 H 817.663 -0.953 -6.88435 0
M  V30 8514 H 820.854 -0.35334 -4.66765 0
M  V30 8515 H 821.027 -0.740698 -6.43753 0
M  V30 8516 N 814.433 1.57553 0.0384317 0
M  V30 8517 C 815.363 2.0898 1.04161 0
M  V30 8518 C 816.344 0.99029 1.38301 0
M  V30 8519 O 817.529 1.26499 1.47349 0
M  V30 8520 C 814.659 2.56145 2.34536 0
M  V30 8521 C 813.613 3.70275 2.14663 0
M  V30 8522 C 812.939 4.03612 3.50715 0
M  V30 8523 C 814.239 4.99067 1.54045 0
M  V30 8524 H 815.933 2.93046 0.613548 0
M  V30 8525 H 813.479 1.40973 0.293684 0
M  V30 8526 H 815.432 2.90741 3.05037 0
M  V30 8527 H 814.156 1.6915 2.79385 0
M  V30 8528 H 812.815 3.36013 1.46597 0
M  V30 8529 H 812.463 3.13698 3.93195 0
M  V30 8530 H 812.163 4.80482 3.38247 0
M  V30 8531 H 813.687 4.40735 4.22593 0
M  V30 8532 H 815.101 5.3168 2.14451 0
M  V30 8533 H 813.498 5.80484 1.52178 0
M  V30 8534 H 814.568 4.8226 0.505259 0
M  V30 8535 N 815.911 -0.310526 1.54511 0
M  V30 8536 C 817.139 -1.06611 1.77318 0
M  V30 8537 C 817.554 -1.81265 0.528043 0
M  V30 8538 O 816.911 -1.75466 -0.50178 0
M  V30 8539 C 816.962 -2.05409 2.97472 0
M  V30 8540 O 816.683 -1.33785 4.17173 0
M  V30 8541 C 818.184 -2.93082 3.32593 0
M  V30 8542 H 815.404 -0.316578 0.591624 0
M  V30 8543 H 817.948 -0.352691 2.01436 0
M  V30 8544 H 816.103 -2.72266 2.7559 0
M  V30 8545 H 816.517 -2.00055 4.84849 0
M  V30 8546 H 817.991 -3.58274 4.19933 0
M  V30 8547 H 818.468 -3.60877 2.50329 0
M  V30 8548 H 819.074 -2.31768 3.566 0
M  V30 8549 N 817.389 -1.46805 -0.573248 0
M  V30 8550 C 818.637 -1.52302 -1.32847 0
M  V30 8551 C 818.958 -0.180159 -1.94166 0
M  V30 8552 O 818.228 0.794291 -1.79075 0
M  V30 8553 H 816.808 -0.56097 -0.493276 0
M  V30 8554 H 819.47 -1.82998 -0.670642 0
M  V30 8555 H 818.566 -2.28089 -2.13031 0
M  V30 8556 N 818.867 0.818669 -1.34668 0
M  V30 8557 C 819.799 1.93754 -1.22442 0
M  V30 8558 C 820.812 1.62103 -0.150501 0
M  V30 8559 O 822.001 1.73898 -0.402728 0
M  V30 8560 C 819.101 3.27806 -0.860031 0
M  V30 8561 C 818.274 3.8745 -2.02981 0
M  V30 8562 C 817.333 4.99887 -1.64314 0
M  V30 8563 O 816.359 5.17957 -2.36029 0
M  V30 8564 N 817.561 5.77795 -0.55976 0
M  V30 8565 H 820.326 2.04773 -2.18833 0
M  V30 8566 H 817.887 0.995472 -1.27679 0
M  V30 8567 H 819.879 4.00478 -0.583068 0
M  V30 8568 H 818.449 3.12597 0.0138253 0
M  V30 8569 H 817.669 3.07119 -2.47127 0
M  V30 8570 H 818.957 4.2403 -2.81204 0
M  V30 8571 H 818.355 5.65688 0.0363329 0
M  V30 8572 H 816.912 6.50899 -0.342541 0
M  V30 8573 N 820.346 1.18468 1.03938 0
M  V30 8574 C 821.571 1.00638 1.81347 0
M  V30 8575 C 821.996 -0.440477 1.8287 0
M  V30 8576 O 821.354 -1.31609 1.24695 0
M  V30 8577 C 821.402 1.5673 3.24759 0
M  V30 8578 O 820.506 0.789517 4.04772 0
M  V30 8579 H 819.847 0.356432 0.560225 0
M  V30 8580 H 822.377 1.57253 1.30891 0
M  V30 8581 H 822.387 1.59496 3.75533 0
M  V30 8582 H 821.062 2.62043 3.22965 0
M  V30 8583 H 819.639 0.834267 3.63448 0
M  V30 8584 N 821.824 -1.22873 0.986916 0
M  V30 8585 C 823.101 -1.86939 0.575589 0
M  V30 8586 C 823.481 -1.88656 -0.947205 0
M  V30 8587 O 822.829 -1.3728 -1.82665 0
M  V30 8588 C 823.039 -3.28117 1.18914 0
M  V30 8589 C 824.387 -4.04659 1.28593 0
M  V30 8590 O 825.411 -3.3736 1.14308 0
M  V30 8591 O 824.27 -5.25112 1.51391 0
M  V30 8592 H 821.364 -0.803748 0.194724 0
M  V30 8593 H 823.91 -1.30698 1.08241 0
M  V30 8594 H 822.682 -3.21468 2.231 0
M  V30 8595 H 822.305 -3.91956 0.667535 0
M  V30 8596 N 823.302 -0.75937 -1.38099 0
M  V30 8597 C 824.579 -0.243371 -1.9408 0
M  V30 8598 C 824.959 1.25942 -1.69416 0
M  V30 8599 O 824.307 2.03667 -1.03595 0
M  V30 8600 C 824.517 -0.603328 -3.43745 0
M  V30 8601 C 825.865 -0.566195 -4.20808 0
M  V30 8602 O 826.889 -0.541969 -3.52053 0
M  V30 8603 O 825.748 -0.582261 -5.43389 0
M  V30 8604 H 822.842 -0.0526825 -0.82532 0
M  V30 8605 H 825.388 -0.839884 -1.47459 0
M  V30 8606 H 824.16 -1.64098 -3.55229 0
M  V30 8607 H 823.783 0.0208887 -3.97595 0
M  V30 8608 N 824.78 1.49157 -0.508906 0
M  V30 8609 C 825.69 2.33045 0.269656 0
M  V30 8610 C 826.706 1.45143 0.959662 0
M  V30 8611 O 827.882 1.78155 0.939295 0
M  V30 8612 C 824.947 3.20772 1.31554 0
M  V30 8613 C 824.008 4.24531 0.638131 0
M  V30 8614 C 823.241 5.08065 1.63418 0
M  V30 8615 O 823.464 4.93238 2.86483 0
M  V30 8616 O 822.398 5.90117 1.18516 0
M  V30 8617 H 826.224 3.00821 -0.417183 0
M  V30 8618 H 823.809 1.46938 -0.270119 0
M  V30 8619 H 825.691 3.75095 1.92047 0
M  V30 8620 H 824.366 2.55681 1.98516 0
M  V30 8621 H 823.273 3.74099 -0.00674357 0
M  V30 8622 H 824.606 4.92199 0.0108155 0
M  V30 8623 N 826.258 0.243083 1.55714 0
M  V30 8624 C 827.669 -0.260788 1.8487 0
M  V30 8625 C 828.02 -1.57879 1.16485 0
M  V30 8626 O 827.145 -2.1184 0.441908 0
M  V30 8627 C 827.74 -0.479954 3.35383 0
M  V30 8628 C 826.299 -0.928096 3.64778 0
M  V30 8629 C 825.446 -0.00316416 2.773 0
M  V30 8630 H 828.397 0.465743 1.51712 0
M  V30 8631 H 828.418 -1.32308 3.56756 0
M  V30 8632 H 827.93 0.479468 3.85127 0
M  V30 8633 H 826.031 -1.90012 3.20509 0
M  V30 8634 H 826.144 -0.7876 4.72582 0
M  V30 8635 H 824.508 -0.513849 2.49463 0
M  V30 8636 H 825.291 0.951562 3.29849 0
M  V30 8637 N 827.736 -1.57571 -0.0300757 0
M  V30 8638 C 828.683 -2.06492 -1.03101 0
M  V30 8639 C 829.653 -0.953862 -1.3598 0
M  V30 8640 O 830.838 -1.22436 -1.46335 0
M  V30 8641 C 827.978 -2.54826 -2.32718 0
M  V30 8642 C 827.091 -3.79718 -2.06006 0
M  V30 8643 C 826.226 -4.16668 -3.29487 0
M  V30 8644 C 825.265 -5.3448 -2.98324 0
M  V30 8645 N 824.402 -5.66867 -4.14254 0
M  V30 8646 H 829.242 -2.91755 -0.606877 0
M  V30 8647 H 826.779 -1.44252 -0.288038 0
M  V30 8648 H 828.737 -2.80916 -3.08451 0
M  V30 8649 H 827.367 -1.72481 -2.72856 0
M  V30 8650 H 826.419 -3.60718 -1.20774 0
M  V30 8651 H 827.731 -4.65569 -1.79017 0
M  V30 8652 H 826.885 -4.43881 -4.13588 0
M  V30 8653 H 825.624 -3.29466 -3.59588 0
M  V30 8654 H 824.629 -5.07021 -2.12625 0
M  V30 8655 H 825.854 -6.23334 -2.69502 0
M  V30 8656 H 823.8 -4.82625 -4.44308 0
M  V30 8657 H 823.717 -6.47226 -3.90685 0
M  V30 8658 H 824.985 -5.98656 -4.99231 0
M  V30 8659 N 829.214 0.302327 -1.54673 0
M  V30 8660 C 830.63 0.647911 -1.45857 0
M  V30 8661 C 830.83 1.90773 -0.64869 0
M  V30 8662 O 829.886 2.52018 -0.155865 0
M  V30 8663 C 831.199 0.802144 -2.89804 0
M  V30 8664 C 832.747 0.898114 -2.99838 0
M  V30 8665 C 833.222 1.08436 -4.44978 0
M  V30 8666 N 834.713 1.15059 -4.48682 0
M  V30 8667 C 835.448 1.31296 -5.58166 0
M  V30 8668 N 834.944 1.4444 -6.77576 0
M  V30 8669 N 836.737 1.34174 -5.45851 0
M  V30 8670 H 828.888 -0.525428 -2.05798 0
M  V30 8671 H 831.151 -0.173423 -0.932002 0
M  V30 8672 H 830.857 -0.0526531 -3.51661 0
M  V30 8673 H 830.731 1.69155 -3.37145 0
M  V30 8674 H 833.118 1.7434 -2.38096 0
M  V30 8675 H 833.199 -0.0152752 -2.55795 0
M  V30 8676 H 832.843 0.243843 -5.07314 0
M  V30 8677 H 832.773 2.01195 -4.8665 0
M  V30 8678 H 835.264 1.0626 -3.62653 0
M  V30 8679 H 835.577 1.56582 -7.56771 0
M  V30 8680 H 833.922 1.41499 -6.80443 0
M  V30 8681 H 837.113 1.23516 -4.5151 0
M  V30 8682 H 837.286 1.46485 -6.31226 0
M  V30 8683 N 830.692 1.47107 0.565454 0
M  V30 8684 C 831.941 1.5257 1.31929 0
M  V30 8685 C 832.254 0.189092 1.94684 0
M  V30 8686 O 833.46 0.121657 2.71227 0
M  V30 8687 C 831.916 2.68914 2.39193 0
M  V30 8688 C 831.524 4.09069 1.82665 0
M  V30 8689 C 833.268 2.83663 3.1581 0
M  V30 8690 C 831.175 5.16726 2.87661 0
M  V30 8691 H 830.105 0.567869 0.496025 0
M  V30 8692 H 832.756 1.73361 0.60151 0
M  V30 8693 H 831.138 2.41486 3.13848 0
M  V30 8694 H 832.312 4.46364 1.14438 0
M  V30 8695 H 830.627 3.99135 1.1866 0
M  V30 8696 H 833.224 3.61261 3.94201 0
M  V30 8697 H 833.567 1.91804 3.69482 0
M  V30 8698 H 834.1 3.10821 2.48265 0
M  V30 8699 H 830.839 6.10433 2.38854 0
M  V30 8700 H 830.359 4.83957 3.54324 0
M  V30 8701 H 832.038 5.43319 3.51303 0
M  V30 8702 N 832.17 -0.811516 1.35101 0
M  V30 8703 C 833.117 -1.92308 1.27617 0
M  V30 8704 C 834.087 -1.6543 0.149091 0
M  V30 8705 O 835.272 -1.8789 0.331974 0
M  V30 8706 C 832.412 -3.28768 1.04908 0
M  V30 8707 C 831.525 -3.67865 2.26493 0
M  V30 8708 C 830.66 -4.9333 1.96974 0
M  V30 8709 C 829.699 -5.25041 3.1464 0
M  V30 8710 N 828.836 -6.41685 2.84929 0
M  V30 8711 H 833.676 -1.98041 2.22674 0
M  V30 8712 H 831.213 -0.968755 1.10696 0
M  V30 8713 H 833.171 -4.07426 0.897749 0
M  V30 8714 H 831.801 -3.22517 0.135151 0
M  V30 8715 H 830.853 -2.84507 2.52507 0
M  V30 8716 H 832.165 -3.87263 3.14371 0
M  V30 8717 H 831.319 -5.79803 1.78643 0
M  V30 8718 H 830.058 -4.75958 1.06374 0
M  V30 8719 H 829.063 -4.3706 3.33554 0
M  V30 8720 H 830.288 -5.44346 4.06035 0
M  V30 8721 H 828.234 -6.25747 1.96918 0
M  V30 8722 H 828.151 -6.6131 3.66341 0
M  V30 8723 H 829.419 -7.31198 2.70128 0
M  V30 8724 N 833.648 -1.19017 -1.03309 0
M  V30 8725 C 834.595 -0.924088 -2.11493 0
M  V30 8726 C 835.565 0.139464 -1.65513 0
M  V30 8727 O 836.75 -0.00178761 -1.908 0
M  V30 8728 C 833.89 -0.464255 -3.41963 0
M  V30 8729 C 833.003 -1.5941 -4.01513 0
M  V30 8730 C 832.138 -1.08622 -5.19976 0
M  V30 8731 C 831.177 -2.19024 -5.71572 0
M  V30 8732 N 830.314 -1.69575 -6.81314 0
M  V30 8733 H 835.154 -1.85039 -2.33591 0
M  V30 8734 H 832.691 -0.922593 -1.14572 0
M  V30 8735 H 834.649 -0.179078 -4.16815 0
M  V30 8736 H 833.279 0.425062 -3.19989 0
M  V30 8737 H 832.331 -1.99458 -3.23915 0
M  V30 8738 H 833.643 -2.42604 -4.35826 0
M  V30 8739 H 832.797 -0.756022 -6.01971 0
M  V30 8740 H 831.536 -0.223955 -4.87186 0
M  V30 8741 H 830.541 -2.5288 -4.88193 0
M  V30 8742 H 831.766 -3.05699 -6.06403 0
M  V30 8743 H 829.712 -0.856494 -6.50385 0
M  V30 8744 H 829.629 -2.46361 -7.14732 0
M  V30 8745 H 830.897 -1.39505 -7.66915 0
M  V30 8746 N 835.127 1.22348 -0.993418 0
M  V30 8747 C 836.352 1.95666 -0.687727 0
M  V30 8748 C 836.777 1.72883 0.741161 0
M  V30 8749 O 836.135 1.00837 1.50671 0
M  V30 8750 C 836.183 3.46457 -0.99998 0
M  V30 8751 O 835.287 4.12281 -0.0989386 0
M  V30 8752 H 834.628 0.612102 -0.257346 0
M  V30 8753 H 837.158 1.55428 -1.33054 0
M  V30 8754 H 837.168 3.96976 -0.942035 0
M  V30 8755 H 835.843 3.62365 -2.04118 0
M  V30 8756 H 834.42 3.72295 -0.212413 0
M  V30 8757 N 836.605 0.766683 1.37694 0
M  V30 8758 C 837.552 0.147725 2.30327 0
M  V30 8759 C 838.522 -0.695366 1.50844 0
M  V30 8760 O 839.707 -0.64878 1.79431 0
M  V30 8761 C 836.847 -0.72935 3.37305 0
M  V30 8762 C 835.96 0.129795 4.31805 0
M  V30 8763 C 835.095 -0.751511 5.25857 0
M  V30 8764 C 834.134 0.110475 6.12 0
M  V30 8765 N 833.271 -0.728522 6.9831 0
M  V30 8766 H 838.111 0.943204 2.82679 0
M  V30 8767 H 835.648 0.476736 1.3916 0
M  V30 8768 H 837.606 -1.25263 3.97951 0
M  V30 8769 H 836.236 -1.49048 2.86329 0
M  V30 8770 H 835.288 0.770829 3.72508 0
M  V30 8771 H 836.6 0.794923 4.92425 0
M  V30 8772 H 835.754 -1.34146 5.91684 0
M  V30 8773 H 834.493 -1.45034 4.65636 0
M  V30 8774 H 833.498 0.712999 5.45157 0
M  V30 8775 H 834.723 0.806557 6.74293 0
M  V30 8776 H 832.669 -1.41206 6.40622 0
M  V30 8777 H 832.586 -0.12058 7.55904 0
M  V30 8778 H 833.854 -1.30303 7.68532 0
M  V30 8779 N 838.083 -1.48885 0.516809 0
M  V30 8780 C 839.016 -2.26218 -0.30011 0
M  V30 8781 C 839.994 -1.31491 -0.956496 0
M  V30 8782 O 841.178 -1.6081 -0.983488 0
M  V30 8783 C 838.305 -3.07315 -1.42392 0
M  V30 8784 C 837.351 -4.17316 -0.880295 0
M  V30 8785 S 838.184 -5.34955 0.24146 0
M  V30 8786 C 839.34 -6.1961 -0.885138 0
M  V30 8787 H 839.573 -2.95158 0.356217 0
M  V30 8788 H 837.106 -1.5141 0.302365 0
M  V30 8789 H 839.064 -3.54619 -2.06775 0
M  V30 8790 H 837.725 -2.37813 -2.05192 0
M  V30 8791 H 836.918 -4.73635 -1.72297 0
M  V30 8792 H 836.52 -3.72685 -0.313396 0
M  V30 8793 H 838.812 -6.53513 -1.78682 0
M  V30 8794 H 839.755 -7.07183 -0.360226 0
M  V30 8795 H 840.163 -5.52461 -1.1596 0
M  V30 8796 N 839.561 -0.251338 -1.55583 0
M  V30 8797 C 840.81 0.372681 -1.98227 0
M  V30 8798 C 841.123 1.58743 -1.1428 0
M  V30 8799 O 842.329 2.28289 -1.46957 0
M  V30 8800 C 840.785 0.714439 -3.52738 0
M  V30 8801 C 840.393 -0.479168 -4.4543 0
M  V30 8802 C 842.137 1.3024 -4.04027 0
M  V30 8803 C 840.044 -0.113318 -5.91291 0
M  V30 8804 H 838.974 0.14302 -0.740312 0
M  V30 8805 H 841.625 -0.352253 -1.80087 0
M  V30 8806 H 840.007 1.49762 -3.66589 0
M  V30 8807 H 841.181 -1.25644 -4.4334 0
M  V30 8808 H 839.496 -0.982359 -4.04646 0
M  V30 8809 H 842.093 1.58953 -5.10527 0
M  V30 8810 H 842.436 2.22837 -3.51638 0
M  V30 8811 H 842.969 0.582024 -3.93519 0
M  V30 8812 H 839.708 -1.00654 -6.47726 0
M  V30 8813 H 839.228 0.627666 -5.96507 0
M  V30 8814 H 840.907 0.30293 -6.4629 0
M  V30 8815 N 841.039 1.57585 0.0217189 0
M  V30 8816 C 842.002 2.06004 1.00474 0
M  V30 8817 C 843.002 0.965461 1.2859 0
M  V30 8818 O 844.192 1.22884 1.23471 0
M  V30 8819 C 841.324 2.48319 2.33561 0
M  V30 8820 H 842.517 2.94112 0.586346 0
M  V30 8821 H 840.07 1.53973 0.268716 0
M  V30 8822 H 840.805 1.63389 2.80133 0
M  V30 8823 H 840.59 3.28239 2.1448 0
M  V30 8824 H 842.08 2.86181 3.04122 0
M  V30 8825 N 842.517 -0.29412 1.54831 0
M  V30 8826 C 843.464 -1.36296 1.86258 0
M  V30 8827 C 844.434 -1.50061 0.712097 0
M  V30 8828 O 845.619 -1.64809 0.961381 0
M  V30 8829 C 842.759 -2.72187 2.12151 0
M  V30 8830 C 841.872 -2.66816 3.39755 0
M  V30 8831 C 841.007 -3.94747 3.55455 0
M  V30 8832 C 840.046 -3.838 4.76827 0
M  V30 8833 N 839.183 -5.03521 4.89296 0
M  V30 8834 H 844.023 -1.08796 2.7743 0
M  V30 8835 H 841.56 -0.526069 1.37371 0
M  V30 8836 H 843.518 -3.51225 2.25159 0
M  V30 8837 H 842.148 -2.97934 1.24237 0
M  V30 8838 H 841.2 -1.79605 3.3533 0
M  V30 8839 H 842.512 -2.5462 4.28917 0
M  V30 8840 H 841.666 -4.82223 3.68166 0
M  V30 8841 H 840.405 -4.09785 2.64438 0
M  V30 8842 H 839.41 -2.94708 4.64141 0
M  V30 8843 H 840.635 -3.70301 5.69258 0
M  V30 8844 H 838.581 -5.1901 4.01204 0
M  V30 8845 H 838.498 -4.93775 5.72471 0
M  V30 8846 H 839.766 -5.92629 5.06371 0
M  V30 8847 N 843.995 -1.47404 -0.557645 0
M  V30 8848 C 844.958 -1.59411 -1.64684 0
M  V30 8849 C 845.958 -0.469244 -1.53801 0
M  V30 8850 O 847.148 -0.734298 -1.57967 0
M  V30 8851 C 844.28 -1.5382 -3.04224 0
M  V30 8852 H 845.473 -2.56504 -1.55389 0
M  V30 8853 H 843.026 -1.35588 -0.777531 0
M  V30 8854 H 843.761 -0.581 -3.19053 0
M  V30 8855 H 843.546 -2.35456 -3.13533 0
M  V30 8856 H 845.036 -1.65358 -3.83466 0
M  V30 8857 N 845.473 0.80434 -1.35529 0
M  V30 8858 C 846.72 1.56154 -1.28927 0
M  V30 8859 C 847.048 1.94026 0.135682 0
M  V30 8860 O 846.303 1.61759 1.10148 0
M  V30 8861 C 846.602 2.85988 -2.14349 0
M  V30 8862 C 846.268 2.67323 -3.6311 0
M  V30 8863 C 844.93 2.61941 -4.03659 0
M  V30 8864 C 847.282 2.49699 -4.57493 0
M  V30 8865 C 844.61 2.3688 -5.36754 0
M  V30 8866 C 846.962 2.26168 -5.90788 0
M  V30 8867 C 845.626 2.19209 -6.30479 0
M  V30 8868 H 844.896 0.571407 -0.471779 0
M  V30 8869 H 847.543 0.929193 -1.67446 0
M  V30 8870 H 845.848 3.53612 -1.68718 0
M  V30 8871 H 847.545 3.43697 -2.06576 0
M  V30 8872 H 844.135 2.72361 -3.30934 0
M  V30 8873 H 848.319 2.52869 -4.27049 0
M  V30 8874 H 843.575 2.29964 -5.66504 0
M  V30 8875 H 847.749 2.11522 -6.63499 0
M  V30 8876 H 845.376 1.99553 -7.33541 0
M  V30 8877 N 846.951 1.19563 1.02676 0
M  V30 8878 C 848.176 1.02556 1.80269 0
M  V30 8879 C 848.601 -0.421056 1.83327 0
M  V30 8880 O 847.959 -1.30279 1.26084 0
M  V30 8881 C 848.007 1.60165 3.23078 0
M  V30 8882 O 847.111 0.832404 4.03912 0
M  V30 8883 H 846.452 0.362354 0.556413 0
M  V30 8884 H 848.982 1.58633 1.29216 0
M  V30 8885 H 848.992 1.6347 3.7382 0
M  V30 8886 H 847.667 2.65454 3.20167 0
M  V30 8887 H 846.244 0.872768 3.62543 0
M  V30 8888 N 848.429 -1.21819 0.999893 0
M  V30 8889 C 849.376 -2.24003 0.556005 0
M  V30 8890 C 850.346 -1.60825 -0.415287 0
M  V30 8891 O 851.531 -1.88123 -0.318481 0
M  V30 8892 C 848.671 -3.44904 -0.116289 0
M  V30 8893 C 847.784 -4.22573 0.897574 0
M  V30 8894 C 846.919 -5.30831 0.198073 0
M  V30 8895 C 845.958 -6.00225 1.19983 0
M  V30 8896 N 845.095 -7.00111 0.528157 0
M  V30 8897 H 849.935 -2.61334 1.43208 0
M  V30 8898 H 847.472 -1.28431 0.717205 0
M  V30 8899 H 849.43 -4.13908 -0.523055 0
M  V30 8900 H 848.06 -3.08315 -0.956108 0
M  V30 8901 H 847.112 -3.52797 1.42262 0
M  V30 8902 H 848.424 -4.70363 1.66013 0
M  V30 8903 H 847.578 -6.06121 -0.265065 0
M  V30 8904 H 846.317 -4.84033 -0.596924 0
M  V30 8905 H 845.322 -5.23711 1.67353 0
M  V30 8906 H 846.547 -6.4911 1.99582 0
M  V30 8907 H 844.493 -6.55534 -0.247276 0
M  V30 8908 H 844.41 -7.45943 1.22904 0
M  V30 8909 H 845.678 -7.7945 0.0880543 0
M  V30 8910 N 849.908 -0.773975 -1.37286 0
M  V30 8911 C 851.324 -0.45386 -1.53011 0
M  V30 8912 C 851.524 1.03018 -1.73175 0
M  V30 8913 O 850.58 1.81597 -1.75438 0
M  V30 8914 C 851.893 -1.27087 -2.72524 0
M  V30 8915 C 853.441 -1.26299 -2.86387 0
M  V30 8916 C 853.916 -2.0634 -4.08886 0
M  V30 8917 N 855.407 -2.03706 -4.16003 0
M  V30 8918 C 856.142 -2.62418 -5.09828 0
M  V30 8919 N 855.638 -3.29926 -6.09197 0
M  V30 8920 N 857.431 -2.52236 -5.02328 0
M  V30 8921 H 849.582 -1.73551 -1.22449 0
M  V30 8922 H 851.845 -0.736874 -0.596423 0
M  V30 8923 H 851.551 -2.32263 -2.64096 0
M  V30 8924 H 851.425 -0.90157 -3.66267 0
M  V30 8925 H 853.812 -0.219213 -2.94285 0
M  V30 8926 H 853.893 -1.67195 -1.93596 0
M  V30 8927 H 853.537 -3.10741 -4.01749 0
M  V30 8928 H 853.467 -1.62825 -5.00795 0
M  V30 8929 H 855.958 -1.54559 -3.44848 0
M  V30 8930 H 856.271 -3.72095 -6.77322 0
M  V30 8931 H 854.616 -3.34026 -6.09469 0
M  V30 8932 H 857.807 -1.99108 -4.23643 0
M  V30 8933 H 857.98 -2.98286 -5.75265 0
M  V30 8934 N 851.386 1.48609 -0.524698 0
M  V30 8935 C 852.336 2.26505 0.260696 0
M  V30 8936 C 853.32 1.32378 0.914597 0
M  V30 8937 O 854.512 1.5695 0.818277 0
M  V30 8938 C 851.641 3.17313 1.31024 0
M  V30 8939 C 850.727 4.18911 0.661391 0
M  V30 8940 N 851.118 5.05183 -0.24981 0
M  V30 8941 C 849.416 4.36425 0.91922 0
M  V30 8942 C 850.117 5.78348 -0.623598 0
M  V30 8943 N 849.093 5.43598 0.0140839 0
M  V30 8944 H 852.895 2.90582 -0.440388 0
M  V30 8945 H 850.409 1.5875 -0.342364 0
M  V30 8946 H 852.406 3.71772 1.88656 0
M  V30 8947 H 851.066 2.54791 2.01275 0
M  V30 8948 H 852.077 5.1415 -0.622093 0
M  V30 8949 H 848.754 3.85095 1.6127 0
M  V30 8950 H 850.144 6.57775 -1.37046 0
M  V30 8951 N 852.864 0.259585 1.55447 0
M  V30 8952 C 853.774 -0.645026 2.25558 0
M  V30 8953 C 854.79 -1.18291 1.27606 0
M  V30 8954 O 855.966 -1.21649 1.6051 0
M  V30 8955 C 853.031 -1.81964 2.9511 0
M  V30 8956 C 852.092 -1.31997 4.08504 0
M  V30 8957 C 851.325 -2.43861 4.74729 0
M  V30 8958 O 851.548 -3.62876 4.40088 0
M  V30 8959 O 850.482 -2.12898 5.6299 0
M  V30 8960 H 854.308 -0.0775399 3.03601 0
M  V30 8961 H 851.893 0.0275859 1.49375 0
M  V30 8962 H 853.775 -2.50485 3.38873 0
M  V30 8963 H 852.45 -2.37451 2.19997 0
M  V30 8964 H 851.357 -0.601676 3.6923 0
M  V30 8965 H 852.69 -0.811045 4.85472 0
M  V30 8966 N 854.342 -1.57594 -0.0133615 0
M  V30 8967 C 855.272 -2.10611 -1.00823 0
M  V30 8968 C 856.253 -1.01217 -1.36708 0
M  V30 8969 O 857.438 -1.28827 -1.45318 0
M  V30 8970 C 854.568 -2.59844 -2.30431 0
M  V30 8971 C 853.522 -3.73644 -2.08745 0
M  V30 8972 C 852.848 -4.09141 -3.4425 0
M  V30 8973 C 854.148 -5.01454 -1.46086 0
M  V30 8974 H 855.842 -2.93985 -0.566849 0
M  V30 8975 H 853.388 -1.41423 -0.271219 0
M  V30 8976 H 855.341 -2.95557 -3.00373 0
M  V30 8977 H 854.065 -1.73573 -2.76658 0
M  V30 8978 H 852.724 -3.38303 -1.41232 0
M  V30 8979 H 852.372 -3.19914 -3.88155 0
M  V30 8980 H 852.072 -4.85802 -3.3056 0
M  V30 8981 H 853.596 -4.47402 -4.15528 0
M  V30 8982 H 855.01 -5.35024 -2.05966 0
M  V30 8983 H 853.407 -5.82832 -1.42924 0
M  V30 8984 H 854.477 -4.83003 -0.428471 0
M  V30 8985 N 855.82 0.285905 -1.54985 0
M  V30 8986 C 856.75 1.35752 -1.89983 0
M  V30 8987 C 857.731 1.52163 -0.760295 0
M  V30 8988 O 858.916 1.65421 -1.01733 0
M  V30 8989 C 856.046 2.71925 -2.16042 0
M  V30 8990 C 855 2.70261 -3.31878 0
M  V30 8991 C 854.326 4.09864 -3.43388 0
M  V30 8992 C 855.626 2.30667 -4.68604 0
M  V30 8993 H 857.32 1.06709 -2.79738 0
M  V30 8994 H 854.866 0.511884 -1.34595 0
M  V30 8995 H 856.819 3.46992 -2.39113 0
M  V30 8996 H 855.543 3.02523 -1.23074 0
M  V30 8997 H 854.202 1.97651 -3.08755 0
M  V30 8998 H 853.85 4.37664 -2.47909 0
M  V30 8999 H 853.55 4.09648 -4.21262 0
M  V30 9000 H 855.074 4.86689 -3.68736 0
M  V30 9001 H 856.488 2.95453 -4.91305 0
M  V30 9002 H 854.885 2.41637 -5.49301 0
M  V30 9003 H 855.955 1.25793 -4.68299 0
M  V30 9004 N 857.298 1.47698 0.54982 0
M  V30 9005 C 858.23 1.56806 1.67166 0
M  V30 9006 C 859.243 0.453709 1.5635 0
M  V30 9007 O 860.432 0.723663 1.63173 0
M  V30 9008 C 857.532 1.4632 3.05686 0
M  V30 9009 C 856.705 2.72452 3.42182 0
M  V30 9010 C 855.764 2.55698 4.59897 0
M  V30 9011 O 854.79 3.29534 4.64108 0
M  V30 9012 N 855.992 1.64009 5.56849 0
M  V30 9013 H 858.757 2.53545 1.59797 0
M  V30 9014 H 856.318 1.44171 0.736635 0
M  V30 9015 H 858.31 1.32835 3.82279 0
M  V30 9016 H 856.88 0.57634 3.07241 0
M  V30 9017 H 856.1 3.00644 2.54964 0
M  V30 9018 H 857.388 3.56172 3.63344 0
M  V30 9019 H 856.786 1.03186 5.5621 0
M  V30 9020 H 855.343 1.56473 6.3274 0
M  V30 9021 N 858.776 -0.797141 1.35954 0
M  V30 9022 C 859.724 -1.93084 1.29697 0
M  V30 9023 C 860.718 -1.68329 0.190152 0
M  V30 9024 O 861.924 -1.7643 0.3567 0
M  V30 9025 H 858.299 -0.634531 0.403577 0
M  V30 9026 H 860.27 -1.95481 2.25455 0
M  V30 9027 C 859.019 -3.29996 1.09536 0
M  V30 9028 H 858.342 -3.49607 1.93946 0
M  V30 9029 H 859.782 -4.09696 1.09202 0
M  V30 9030 C 858.241 -3.36304 -0.200381 0
M  V30 9031 O 858.771 -3.83579 -1.19291 0
M  V30 9032 N 856.977 -2.89587 -0.242406 0
M  V30 9033 H 856.524 -2.51307 0.565897 0
M  V30 9034 H 856.482 -2.94189 -1.10906 0
M  V30 9035 N 860.254 -1.20106 -1.0204 0
M  V30 9036 C 861.665 -1.00992 -1.57027 0
M  V30 9037 C 862.016 0.434782 -1.91322 0
M  V30 9038 O 861.141 1.31557 -1.71819 0
M  V30 9039 C 861.736 -1.82697 -2.85319 0
M  V30 9040 C 860.295 -1.67959 -3.36848 0
M  V30 9041 C 859.442 -1.80868 -2.10195 0
M  V30 9042 H 862.393 -1.34354 -0.844676 0
M  V30 9043 H 862.414 -1.32809 -3.5657 0
M  V30 9044 H 861.926 -2.87839 -2.60328 0
M  V30 9045 H 860.027 -0.654389 -3.66809 0
M  V30 9046 H 860.14 -2.49006 -4.09308 0
M  V30 9047 H 858.504 -1.24015 -2.22469 0
M  V30 9048 H 859.287 -2.87486 -1.87635 0
M  V30 9049 N 861.732 1.21287 -1.00634 0
M  V30 9050 C 862.98 1.90013 -0.688438 0
M  V30 9051 C 863.301 1.78573 0.783365 0
M  V30 9052 O 862.571 1.1815 1.56261 0
M  V30 9053 H 861.151 0.703336 -0.251648 0
M  V30 9054 H 863.813 1.47346 -1.27574 0
M  V30 9055 H 862.909 2.96879 -0.962781 0
M  V30 9056 N 863.21 0.781244 1.36873 0
M  V30 9057 C 864.142 0.132075 2.28819 0
M  V30 9058 C 865.155 -0.653925 1.49089 0
M  V30 9059 O 866.344 -0.490453 1.7163 0
M  V30 9060 C 863.444 -0.836297 3.28419 0
M  V30 9061 C 862.617 -0.102097 4.37281 0
M  V30 9062 C 861.676 -0.985217 5.16894 0
M  V30 9063 O 860.702 -0.445478 5.67454 0
M  V30 9064 N 861.904 -2.31043 5.3254 0
M  V30 9065 H 864.669 0.921838 2.85171 0
M  V30 9066 H 862.23 0.634427 1.48952 0
M  V30 9067 H 864.222 -1.43074 3.78566 0
M  V30 9068 H 862.792 -1.52698 2.72767 0
M  V30 9069 H 862.012 0.67335 3.88407 0
M  V30 9070 H 863.3 0.404862 5.07187 0
M  V30 9071 H 862.698 -2.77318 4.93063 0
M  V30 9072 H 861.255 -2.85472 5.8596 0
M  V30 9073 N 864.689 -1.48329 0.532571 0
M  V30 9074 C 865.599 -2.33445 -0.232546 0
M  V30 9075 C 866.615 -1.46651 -0.93645 0
M  V30 9076 O 867.791 -1.79627 -0.910834 0
M  V30 9077 C 864.856 -3.22824 -1.26434 0
M  V30 9078 C 863.917 -4.25492 -0.570511 0
M  V30 9079 C 863.15 -5.10601 -1.55315 0
M  V30 9080 O 863.373 -4.97733 -2.78599 0
M  V30 9081 O 862.307 -5.91927 -1.09112 0
M  V30 9082 H 866.133 -3.00119 0.464988 0
M  V30 9083 H 863.718 -1.46489 0.293462 0
M  V30 9084 H 865.6 -3.78103 -1.86055 0
M  V30 9085 H 864.275 -2.58807 -1.94424 0
M  V30 9086 H 863.182 -3.74041 0.0662587 0
M  V30 9087 H 864.515 -4.92154 0.0674904 0
M  V30 9088 N 866.167 -0.267825 -1.55308 0
M  V30 9089 C 867.097 0.616585 -2.25212 0
M  V30 9090 C 868.078 1.16472 -1.23969 0
M  V30 9091 O 869.263 1.20021 -1.52672 0
M  V30 9092 C 866.393 1.80412 -2.96764 0
M  V30 9093 C 865.347 1.38784 -4.04874 0
M  V30 9094 C 864.673 2.65789 -4.63961 0
M  V30 9095 C 865.973 0.543415 -5.19465 0
M  V30 9096 H 867.667 0.0336257 -2.99381 0
M  V30 9097 H 865.213 0.0147328 -1.43992 0
M  V30 9098 H 867.166 2.42866 -3.44375 0
M  V30 9099 H 865.89 2.4128 -2.20118 0
M  V30 9100 H 864.549 0.786541 -3.58063 0
M  V30 9101 H 864.197 3.24899 -3.83992 0
M  V30 9102 H 863.897 2.38651 -5.36954 0
M  V30 9103 H 865.421 3.29104 -5.14318 0
M  V30 9104 H 866.835 1.07277 -5.63174 0
M  V30 9105 H 865.232 0.367219 -5.98975 0
M  V30 9106 H 866.302 -0.439534 -4.82904 0
M  V30 9107 N 867.645 1.57599 0.00500368 0
M  V30 9108 C 868.87 1.95026 0.705663 0
M  V30 9109 C 869.295 0.869643 1.6679 0
M  V30 9110 O 868.653 -0.172659 1.80476 0
M  V30 9111 C 868.701 3.31545 1.4181 0
M  V30 9112 O 867.805 3.25495 2.53232 0
M  V30 9113 H 867.146 0.636808 0.188074 0
M  V30 9114 H 869.676 2.04547 -0.046696 0
M  V30 9115 H 869.686 3.66996 1.78265 0
M  V30 9116 H 868.361 4.09751 0.712543 0
M  V30 9117 H 866.938 3.01714 2.19142 0
M  V30 9118 N 869.123 -0.277682 1.55134 0
M  V30 9119 C 870.37 -1.0099 1.7552 0
M  V30 9120 C 870.698 -1.86452 0.553712 0
M  V30 9121 O 869.953 -1.90122 -0.463896 0
M  V30 9122 C 870.252 -1.92599 3.01065 0
M  V30 9123 C 869.918 -1.22926 4.3382 0
M  V30 9124 C 868.58 -1.03659 4.69902 0
M  V30 9125 C 870.932 -0.733071 5.16019 0
M  V30 9126 C 868.26 -0.334933 5.85743 0
M  V30 9127 C 870.612 -0.0450319 6.32584 0
M  V30 9128 C 869.276 0.159393 6.6731 0
M  V30 9129 H 868.546 -0.36955 0.642273 0
M  V30 9130 H 871.193 -0.282611 1.89403 0
M  V30 9131 H 869.498 -2.71934 2.82062 0
M  V30 9132 H 871.195 -2.49367 3.14034 0
M  V30 9133 H 867.785 -1.38933 4.05457 0
M  V30 9134 H 871.969 -0.869565 4.88623 0
M  V30 9135 H 867.225 -0.165783 6.11175 0
M  V30 9136 H 871.399 0.34723 6.95534 0
M  V30 9137 H 869.026 0.70507 7.56923 0
M  V30 9138 N 870.601 -1.47988 -0.541979 0
M  V30 9139 C 871.826 -1.59286 -1.32826 0
M  V30 9140 C 872.251 -0.24894 -1.86445 0
M  V30 9141 O 871.609 0.777581 -1.63778 0
M  V30 9142 C 871.657 -2.6334 -2.46343 0
M  V30 9143 O 870.761 -2.19667 -3.49028 0
M  V30 9144 H 870.102 -0.534543 -0.393903 0
M  V30 9145 H 872.632 -1.93885 -0.653427 0
M  V30 9146 H 872.642 -2.84238 -2.92699 0
M  V30 9147 H 871.317 -3.60913 -2.06675 0
M  V30 9148 H 869.894 -2.08932 -3.08872 0
M  V30 9149 N 872.079 0.78992 -1.36375 0
M  V30 9150 C 873.012 1.90907 -1.25019 0
M  V30 9151 C 873.99 1.62043 -0.134463 0
M  V30 9152 O 875.174 1.86008 -0.305506 0
M  V30 9153 C 872.301 3.25716 -0.928822 0
M  V30 9154 C 871.347 3.73511 -2.05892 0
M  V30 9155 S 872.18 3.89332 -3.6767 0
M  V30 9156 C 873.336 5.27017 -3.37645 0
M  V30 9157 H 873.569 2.00247 -2.19746 0
M  V30 9158 H 871.102 0.949097 -1.21785 0
M  V30 9159 H 873.06 4.03586 -0.750219 0
M  V30 9160 H 871.721 3.141 0.000658424 0
M  V30 9161 H 870.914 4.71195 -1.78862 0
M  V30 9162 H 870.516 3.02688 -2.19672 0
M  V30 9163 H 872.808 6.1158 -2.91507 0
M  V30 9164 H 873.751 5.5905 -4.3459 0
M  V30 9165 H 874.159 4.94093 -2.73006 0
M  V30 9166 N 873.557 1.20646 1.01402 0
M  V30 9167 C 874.507 0.925209 2.08384 0
M  V30 9168 C 875.491 -0.115994 1.60481 0
M  V30 9169 O 876.683 0.0917276 1.76762 0
M  V30 9170 C 873.812 0.48193 3.399 0
M  V30 9171 C 872.898 1.5567 3.94497 0
M  V30 9172 N 873.289 2.77971 4.2257 0
M  V30 9173 C 871.587 1.42347 4.22674 0
M  V30 9174 C 872.288 3.47317 4.66632 0
M  V30 9175 N 871.264 2.74736 4.69064 0
M  V30 9176 H 875.066 1.85452 2.28002 0
M  V30 9177 H 872.58 1.10084 1.19395 0
M  V30 9178 H 874.577 0.261835 4.16077 0
M  V30 9179 H 873.237 -0.440725 3.21695 0
M  V30 9180 H 874.248 3.14598 4.11398 0
M  V30 9181 H 870.925 0.565417 4.13654 0
M  V30 9182 H 872.315 4.51985 4.97151 0
M  V30 9183 N 875.035 -1.20752 1.01276 0
M  V30 9184 C 876.263 -1.94006 0.718976 0
M  V30 9185 C 876.678 -1.74544 -0.719711 0
M  V30 9186 O 876.035 -1.05697 -1.48776 0
M  V30 9187 C 876.086 -3.46208 1.04031 0
M  V30 9188 O 875.807 -3.65031 2.42248 0
M  V30 9189 C 877.308 -4.36614 0.767032 0
M  V30 9190 H 874.528 -0.616743 0.264327 0
M  V30 9191 H 877.072 -1.53352 1.3529 0
M  V30 9192 H 875.227 -3.84756 0.451852 0
M  V30 9193 H 875.641 -4.59054 2.53712 0
M  V30 9194 H 877.115 -5.42076 1.04198 0
M  V30 9195 H 877.592 -4.38182 -0.298851 0
M  V30 9196 H 878.198 -4.03723 1.33746 0
M  V30 9197 N 876.513 -0.788492 -1.36457 0
M  V30 9198 C 877.759 -0.360995 -1.99561 0
M  V30 9199 C 878.092 1.06433 -1.62437 0
M  V30 9200 O 877.367 1.7352 -0.878705 0
M  V30 9201 C 877.65 -0.523735 -3.56271 0
M  V30 9202 C 877.503 -1.99268 -4.03252 0
M  V30 9203 C 878.822 0.0617908 -4.40057 0
M  V30 9204 H 875.941 -0.13264 -0.724966 0
M  V30 9205 H 878.583 -0.994659 -1.61884 0
M  V30 9206 H 876.733 0.0156979 -3.88497 0
M  V30 9207 H 878.405 -2.59311 -3.81518 0
M  V30 9208 H 876.648 -2.49561 -3.54826 0
M  V30 9209 H 877.319 -2.05752 -5.12221 0
M  V30 9210 H 879.795 -0.398674 -4.14186 0
M  V30 9211 H 878.671 -0.0821089 -5.48839 0
M  V30 9212 H 878.932 1.15381 -4.26778 0
M  V30 9213 N 877.991 1.48044 -0.54043 0
M  V30 9214 C 879.216 2.07396 -0.0124765 0
M  V30 9215 C 879.641 1.39288 1.26414 0
M  V30 9216 O 878.999 0.462252 1.75308 0
M  V30 9217 C 879.047 3.60131 0.18377 0
M  V30 9218 O 878.151 3.92995 1.25014 0
M  V30 9219 H 877.492 0.662554 -0.0438026 0
M  V30 9220 H 880.022 1.90306 -0.751327 0
M  V30 9221 H 880.032 4.06003 0.403197 0
M  V30 9222 H 878.707 4.09105 -0.74874 0
M  V30 9223 H 877.284 3.5889 1.01254 0
M  V30 9224 N 879.47 0.276058 1.55163 0
M  V30 9225 C 880.42 -0.625549 2.19251 0
M  V30 9226 C 881.404 -1.11769 1.15744 0
M  V30 9227 O 882.596 -1.0626 1.41555 0
M  V30 9228 C 879.725 -1.80879 2.91784 0
M  V30 9229 C 878.811 -1.33379 4.0258 0
M  V30 9230 N 879.202 -0.575002 5.02521 0
M  V30 9231 C 877.5 -1.61666 4.15668 0
M  V30 9232 C 878.201 -0.325164 5.8079 0
M  V30 9233 N 877.177 -0.897851 5.36134 0
M  V30 9234 H 880.979 -0.0379943 2.93875 0
M  V30 9235 H 878.493 0.079661 1.62205 0
M  V30 9236 H 880.49 -2.466 3.36146 0
M  V30 9237 H 879.15 -2.40028 2.1867 0
M  V30 9238 H 880.161 -0.222256 5.17423 0
M  V30 9239 H 876.838 -2.21745 3.53745 0
M  V30 9240 H 878.228 0.282598 6.71305 0
M  V30 9241 N 880.948 -1.576 0.00335426 0
M  V30 9242 C 882.225 -1.81945 -0.718015 0
M  V30 9243 C 882.605 -0.881788 -1.91801 0
M  V30 9244 O 881.953 0.0687118 -2.28397 0
M  V30 9245 C 882.163 -3.30521 -1.12058 0
M  V30 9246 C 883.511 -3.96345 -1.52303 0
M  V30 9247 O 884.535 -3.34864 -1.21428 0
M  V30 9248 O 883.394 -5.04655 -2.09728 0
M  V30 9249 H 880.488 -0.749328 -0.34991 0
M  V30 9250 H 883.034 -1.69675 0.0290654 0
M  V30 9251 H 881.806 -3.90399 -0.265378 0
M  V30 9252 H 881.429 -3.47802 -1.92665 0
M  V30 9253 N 882.426 0.269451 -1.5528 0
M  V30 9254 C 883.674 0.998604 -1.75705 0
M  V30 9255 C 883.995 1.86691 -0.563175 0
M  V30 9256 O 883.265 1.91305 0.421811 0
M  V30 9257 H 881.845 0.371698 -0.647958 0
M  V30 9258 H 884.507 0.292826 -1.92688 0
M  V30 9259 H 883.603 1.63348 -2.6594 0
M  V30 9260 N 883.904 1.48273 0.534124 0
M  V30 9261 C 885.315 1.49667 1.1161 0
M  V30 9262 C 885.666 0.264139 1.94414 0
M  V30 9263 O 884.791 -0.629084 2.07054 0
M  V30 9264 C 885.386 2.71191 2.03079 0
M  V30 9265 C 883.945 2.7547 2.56502 0
M  V30 9266 C 883.092 2.43119 1.33373 0
M  V30 9267 H 886.043 1.55449 0.319578 0
M  V30 9268 H 886.064 2.49473 2.87304 0
M  V30 9269 H 885.576 3.60879 1.42785 0
M  V30 9270 H 883.677 1.89979 3.20529 0
M  V30 9271 H 883.79 3.76787 2.95919 0
M  V30 9272 H 882.154 1.94187 1.64813 0
M  V30 9273 H 882.937 3.35044 0.748375 0
M  V30 9274 N 885.382 -0.782676 1.36792 0
M  V30 9275 C 886.628 -1.54311 1.3159 0
M  V30 9276 C 886.961 -1.93928 -0.102696 0
M  V30 9277 O 886.236 -1.63233 -1.05761 0
M  V30 9278 C 886.519 -2.81561 2.24489 0
M  V30 9279 C 886.372 -2.48268 3.75078 0
M  V30 9280 C 887.691 -3.83428 2.16034 0
M  V30 9281 H 884.81 -0.559828 0.479335 0
M  V30 9282 H 887.452 -0.898717 1.67401 0
M  V30 9283 H 885.602 -3.36549 1.9408 0
M  V30 9284 H 887.274 -1.99279 4.16036 0
M  V30 9285 H 885.517 -1.81116 3.94182 0
M  V30 9286 H 886.188 -3.39183 4.35499 0
M  V30 9287 H 888.664 -3.37905 2.42815 0
M  V30 9288 H 887.54 -4.70204 2.83194 0
M  V30 9289 H 887.801 -4.26887 1.14976 0
M  V30 9290 N 886.86 -1.21182 -1.00761 0
M  V30 9291 C 887.823 -0.970339 -2.07646 0
M  V30 9292 C 888.823 0.0576345 -1.60697 0
M  V30 9293 O 890.013 -0.179369 -1.73274 0
M  V30 9294 C 887.145 -0.462703 -3.37745 0
M  V30 9295 H 888.338 -1.91856 -2.30502 0
M  V30 9296 H 885.891 -1.02844 -1.17698 0
M  V30 9297 H 886.626 0.490559 -3.20568 0
M  V30 9298 H 886.411 -1.20416 -3.73152 0
M  V30 9299 H 887.901 -0.313531 -4.16421 0
M  V30 9300 N 888.338 1.20213 -1.01915 0
M  V30 9301 C 889.586 1.89272 -0.708552 0
M  V30 9302 C 889.907 1.79394 0.76438 0
M  V30 9303 O 889.177 1.198 1.54999 0
M  V30 9304 H 887.757 0.700628 -0.259094 0
M  V30 9305 H 890.419 1.45985 -1.29129 0
M  V30 9306 H 889.515 2.95841 -0.994215 0
M  V30 9307 N 889.816 0.795718 1.36037 0
M  V30 9308 C 890.746 0.212803 2.32528 0
M  V30 9309 C 891.727 -0.655716 1.56953 0
M  V30 9310 O 892.912 -0.588238 1.85077 0
M  V30 9311 C 890.042 -0.648189 3.41198 0
M  V30 9312 C 888.996 0.120948 4.27829 0
M  V30 9313 C 888.322 -0.861044 5.27722 0
M  V30 9314 C 889.622 1.31375 5.05508 0
M  V30 9315 H 891.316 1.01893 2.81528 0
M  V30 9316 H 888.862 0.491422 1.35355 0
M  V30 9317 H 890.815 -1.06597 4.07695 0
M  V30 9318 H 889.539 -1.48709 2.9078 0
M  V30 9319 H 888.198 0.519777 3.62897 0
M  V30 9320 H 887.846 -1.69515 4.73575 0
M  V30 9321 H 887.546 -0.350808 5.86552 0
M  V30 9322 H 889.07 -1.27726 5.97092 0
M  V30 9323 H 890.484 0.971406 5.6501 0
M  V30 9324 H 888.881 1.75772 5.73781 0
M  V30 9325 H 889.951 2.10593 4.36782 0
M  V30 9326 N 891.294 -1.47756 0.548274 0
M  V30 9327 C 892.257 -2.28379 -0.193857 0
M  V30 9328 C 893.257 -1.36436 -0.850986 0
M  V30 9329 O 894.447 -1.59154 -0.70822 0
M  V30 9330 C 891.579 -3.15858 -1.28243 0
M  V30 9331 H 892.772 -2.95458 0.514231 0
M  V30 9332 H 890.325 -1.53298 0.304879 0
M  V30 9333 H 891.06 -2.5345 -2.0232 0
M  V30 9334 H 890.845 -3.83512 -0.816148 0
M  V30 9335 H 892.335 -3.76627 -1.80393 0
M  V30 9336 N 892.772 -0.284283 -1.55015 0
M  V30 9337 C 894.019 0.329864 -1.99795 0
M  V30 9338 C 894.347 1.55171 -1.1727 0
M  V30 9339 O 893.602 1.94312 -0.232667 0
M  V30 9340 C 893.901 0.747219 -3.49502 0
M  V30 9341 C 893.567 -0.37101 -4.49371 0
M  V30 9342 C 892.229 -0.678034 -4.76399 0
M  V30 9343 C 894.581 -1.12406 -5.08935 0
M  V30 9344 C 891.909 -1.74152 -5.60257 0
M  V30 9345 C 894.261 -2.17734 -5.93948 0
M  V30 9346 C 892.925 -2.49061 -6.19294 0
M  V30 9347 H 892.195 0.120706 -0.731103 0
M  V30 9348 H 894.842 -0.399904 -1.87278 0
M  V30 9349 H 893.147 1.55681 -3.59542 0
M  V30 9350 H 894.844 1.2333 -3.81563 0
M  V30 9351 H 891.434 -0.1216 -4.28427 0
M  V30 9352 H 895.618 -0.900119 -4.88069 0
M  V30 9353 H 890.874 -1.98915 -5.78137 0
M  V30 9354 H 895.048 -2.76553 -6.39133 0
M  V30 9355 H 892.675 -3.31602 -6.84064 0
M  V30 9356 N 894.251 1.57596 -0.0117121 0
M  V30 9357 C 895.528 1.82323 0.708356 0
M  V30 9358 C 895.908 0.891947 1.91331 0
M  V30 9359 O 895.256 -0.0565984 2.2843 0
M  V30 9360 C 895.466 3.31111 1.10303 0
M  V30 9361 C 896.814 3.97147 1.50199 0
M  V30 9362 O 897.838 3.35503 1.1965 0
M  V30 9363 O 896.697 5.0576 2.07049 0
M  V30 9364 H 893.791 0.751173 0.345931 0
M  V30 9365 H 896.337 1.69657 -0.0380632 0
M  V30 9366 H 895.109 3.90534 0.24467 0
M  V30 9367 H 894.732 3.48818 1.90818 0
M  V30 9368 N 895.729 -0.261212 1.5542 0
M  V30 9369 C 896.659 -1.32712 1.92119 0
M  V30 9370 C 897.64 -1.50934 0.784406 0
M  V30 9371 O 898.825 -1.63781 1.04352 0
M  V30 9372 C 895.955 -2.68453 2.20341 0
M  V30 9373 C 894.909 -2.64947 3.36136 0
M  V30 9374 C 894.235 -4.04349 3.49865 0
M  V30 9375 C 895.535 -2.23182 4.72215 0
M  V30 9376 H 897.229 -1.02245 2.81401 0
M  V30 9377 H 894.775 -0.490406 1.35392 0
M  V30 9378 H 896.728 -3.43144 2.44603 0
M  V30 9379 H 895.452 -3.00527 1.27871 0
M  V30 9380 H 894.111 -1.92714 3.11861 0
M  V30 9381 H 893.759 -4.33665 2.5484 0
M  V30 9382 H 893.459 -4.02895 4.27726 0
M  V30 9383 H 894.983 -4.80761 3.76432 0
M  V30 9384 H 896.397 -2.87599 4.95943 0
M  V30 9385 H 894.794 -2.32867 5.53076 0
M  V30 9386 H 895.864 -1.18327 4.70241 0
M  V30 9387 N 897.207 -1.48554 -0.526253 0
M  V30 9388 C 898.155 -1.63804 -1.65139 0
M  V30 9389 C 899.149 -0.504398 -1.61716 0
M  V30 9390 O 900.355 -0.683241 -1.66529 0
M  V30 9391 H 896.73 -0.516071 -0.546969 0
M  V30 9392 H 898.701 -2.58294 -1.49421 0
M  V30 9393 C 897.45 -1.69843 -3.03395 0
M  V30 9394 H 896.773 -2.56438 -3.06724 0
M  V30 9395 H 898.213 -1.84555 -3.81727 0
M  V30 9396 C 896.672 -0.437875 -3.34042 0
M  V30 9397 O 897.202 0.447604 -3.99198 0
M  V30 9398 N 895.408 -0.308444 -2.88958 0
M  V30 9399 H 894.955 -1.02998 -2.36112 0
M  V30 9400 H 894.913 0.533952 -3.09833 0
M  V30 9401 N 898.685 0.775411 -1.37205 0
M  V30 9402 C 899.595 1.91967 -1.34855 0
M  V30 9403 C 900.611 1.72214 -0.248656 0
M  V30 9404 O 901.787 1.95512 -0.483421 0
M  V30 9405 C 898.852 3.27038 -1.15096 0
M  V30 9406 C 897.913 3.5947 -2.34691 0
M  V30 9407 C 897.146 4.88097 -2.15865 0
M  V30 9408 O 897.369 5.58871 -1.14102 0
M  V30 9409 O 896.303 5.19507 -3.03967 0
M  V30 9410 H 900.129 1.969 -2.31223 0
M  V30 9411 H 897.714 0.917647 -1.17897 0
M  V30 9412 H 899.596 4.07837 -1.0605 0
M  V30 9413 H 898.271 3.22965 -0.217999 0
M  V30 9414 H 897.178 2.7892 -2.49308 0
M  V30 9415 H 898.511 3.68282 -3.26541 0
M  V30 9416 N 900.163 1.21714 1.00117 0
M  V30 9417 C 901.574 1.03477 1.55401 0
M  V30 9418 C 901.925 -0.40429 1.91989 0
M  V30 9419 O 901.05 -1.28807 1.7389 0
M  V30 9420 C 901.645 1.87213 2.82377 0
M  V30 9421 C 900.204 1.73297 3.34133 0
M  V30 9422 C 899.351 1.84189 2.07291 0
M  V30 9423 H 902.302 1.3568 0.823195 0
M  V30 9424 H 902.323 1.38465 3.54412 0
M  V30 9425 H 901.835 2.91944 2.55715 0
M  V30 9426 H 899.936 0.712662 3.65721 0
M  V30 9427 H 900.049 2.55486 4.05294 0
M  V30 9428 H 898.413 1.27538 2.20468 0
M  V30 9429 H 899.196 2.90435 1.83037 0
M  V30 9430 N 901.641 -1.19671 1.02551 0
M  V30 9431 C 902.866 -1.93774 0.739363 0
M  V30 9432 C 903.291 -1.74787 -0.695064 0
M  V30 9433 O 902.649 -1.04796 -1.47944 0
M  V30 9434 C 902.697 -3.43684 1.09149 0
M  V30 9435 O 901.801 -4.11874 0.208213 0
M  V30 9436 H 901.142 -0.605064 0.273484 0
M  V30 9437 H 903.672 -1.51846 1.37128 0
M  V30 9438 H 903.682 -3.94339 1.04695 0
M  V30 9439 H 902.357 -3.56826 2.13654 0
M  V30 9440 H 900.934 -3.716 0.311045 0
M  V30 9441 N 903.119 -0.802921 -1.35613 0
M  V30 9442 C 904.082 -0.216422 -2.28176 0
M  V30 9443 C 905.082 0.594101 -1.49422 0
M  V30 9444 O 906.272 0.41312 -1.6923 0
M  V30 9445 C 903.404 0.698746 -3.33662 0
M  V30 9446 H 904.597 -1.03276 -2.81557 0
M  V30 9447 H 902.15 -0.573307 -1.45406 0
M  V30 9448 H 902.885 1.53891 -2.85461 0
M  V30 9449 H 902.67 0.119314 -3.91918 0
M  V30 9450 H 904.16 1.10354 -4.02755 0
M  V30 9451 N 904.597 1.47463 -0.556102 0
M  V30 9452 C 905.874 1.9557 0.0339892 0
M  V30 9453 C 906.254 1.49869 1.48669 0
M  V30 9454 O 905.602 0.737019 2.16288 0
M  V30 9455 C 905.812 3.48826 -0.110343 0
M  V30 9456 C 907.16 4.24585 0.0355716 0
M  V30 9457 O 908.184 3.5618 -0.0378356 0
M  V30 9458 O 907.043 5.46158 0.193299 0
M  V30 9459 H 904.137 0.824461 0.0647521 0
M  V30 9460 H 906.683 1.57868 -0.622547 0
M  V30 9461 H 905.455 3.74891 -1.12126 0
M  V30 9462 H 905.078 3.9329 0.583855 0
M  V30 9463 N 906.075 0.2925 1.54862 0
M  V30 9464 C 907.321 -0.319736 2.00264 0
M  V30 9465 C 907.654 -1.5419 1.18064 0
M  V30 9466 O 906.929 -1.92821 0.254983 0
M  V30 9467 C 907.212 -0.684753 3.5353 0
M  V30 9468 C 907.065 0.545961 4.46474 0
M  V30 9469 C 908.384 -1.51456 4.13218 0
M  V30 9470 H 905.503 -0.11474 0.728014 0
M  V30 9471 H 908.145 0.402907 1.85679 0
M  V30 9472 H 906.295 -1.30044 3.66089 0
M  V30 9473 H 907.967 1.18448 4.45834 0
M  V30 9474 H 906.21 1.1808 4.1742 0
M  V30 9475 H 906.881 0.246544 5.51449 0
M  V30 9476 H 909.357 -0.994421 4.04043 0
M  V30 9477 H 908.233 -1.73875 5.20633 0
M  V30 9478 H 908.494 -2.5011 3.64551 0
M  V30 9479 N 907.553 -1.57587 0.0200696 0
M  V30 9480 C 908.778 -1.96124 -0.674547 0
M  V30 9481 C 909.203 -0.896068 -1.65385 0
M  V30 9482 O 908.561 0.143925 -1.80728 0
M  V30 9483 C 908.609 -3.3376 -1.36517 0
M  V30 9484 O 907.713 -3.29483 -2.48022 0
M  V30 9485 H 907.054 -0.639719 -0.177919 0
M  V30 9486 H 909.584 -2.04447 0.0792317 0
M  V30 9487 H 909.594 -3.69785 -1.72403 0
M  V30 9488 H 908.269 -4.10832 -0.647265 0
M  V30 9489 H 906.846 -3.05162 -2.14314 0
M  V30 9490 N 909.032 0.252966 -1.55557 0
M  V30 9491 C 910.257 1.0038 -1.8149 0
M  V30 9492 C 910.682 1.78397 -0.596318 0
M  V30 9493 O 910.04 1.7551 0.454535 0
M  V30 9494 C 910.088 1.9222 -3.05096 0
M  V30 9495 O 909.192 3.01302 -2.81587 0
M  V30 9496 H 908.533 0.285949 -0.599274 0
M  V30 9497 H 911.063 0.275795 -2.02733 0
M  V30 9498 H 911.073 2.338 -3.34368 0
M  V30 9499 H 909.748 1.34852 -3.93431 0
M  V30 9500 H 908.325 2.63894 -2.63466 0
M  V30 9501 N 910.51 1.48831 0.518367 0
M  V30 9502 C 911.473 1.63721 1.604 0
M  V30 9503 C 912.473 0.509857 1.52503 0
M  V30 9504 O 913.663 0.775922 1.55965 0
M  V30 9505 C 910.795 1.61831 3.00039 0
M  V30 9506 H 911.988 2.60534 1.48533 0
M  V30 9507 H 909.541 1.37602 0.741309 0
M  V30 9508 H 910.276 0.665387 3.17401 0
M  V30 9509 H 910.061 2.43686 3.0718 0
M  V30 9510 H 911.551 1.75467 3.78947 0
M  V30 9511 N 911.988 -0.768124 1.37614 0
M  V30 9512 C 913.234 -1.52823 1.34226 0
M  V30 9513 C 913.589 -1.92266 -0.0717482 0
M  V30 9514 O 912.882 -1.61484 -1.03119 0
M  V30 9515 C 913.076 -2.80204 2.21856 0
M  V30 9516 C 912.905 -2.53213 3.71636 0
M  V30 9517 C 911.675 -2.47159 4.40727 0
M  V30 9518 C 913.873 -2.20965 4.64413 0
M  V30 9519 N 911.855 -2.12289 5.76026 0
M  V30 9520 C 913.226 -1.96264 5.88116 0
M  V30 9521 C 915.281 -2.07151 4.52761 0
M  V30 9522 C 913.984 -1.59145 7.01474 0
M  V30 9523 C 916.01 -1.71432 5.66008 0
M  V30 9524 C 915.372 -1.47594 6.88764 0
M  V30 9525 H 911.471 -0.559388 0.546451 0
M  V30 9526 H 914.055 -0.895795 1.72869 0
M  V30 9527 H 912.226 -3.4128 1.85424 0
M  V30 9528 H 913.958 -3.46133 2.097 0
M  V30 9529 H 910.713 -2.63137 3.93772 0
M  V30 9530 H 911.137 -1.97541 6.47539 0
M  V30 9531 H 915.779 -2.24262 3.58422 0
M  V30 9532 H 913.497 -1.40773 7.95744 0
M  V30 9533 H 917.083 -1.61397 5.58965 0
M  V30 9534 H 915.963 -1.20365 7.74908 0
M  V30 9535 N 913.466 -1.22244 -0.994698 0
M  V30 9536 C 914.429 -0.992308 -2.06606 0
M  V30 9537 C 915.429 0.0405872 -1.60749 0
M  V30 9538 O 916.619 -0.197737 -1.73074 0
M  V30 9539 C 913.751 -0.498499 -3.37236 0
M  V30 9540 H 914.944 -1.9429 -2.28455 0
M  V30 9541 H 912.497 -1.04087 -1.166 0
M  V30 9542 H 913.232 0.456531 -3.21071 0
M  V30 9543 H 913.017 -1.24367 -3.71854 0
M  V30 9544 H 914.507 -0.35768 -4.16065 0
M  V30 9545 N 914.944 1.19125 -1.03184 0
M  V30 9546 C 915.876 2.21914 -0.573294 0
M  V30 9547 C 916.889 1.5894 0.352397 0
M  V30 9548 O 918.078 1.77883 0.148318 0
M  V30 9549 C 915.178 3.38403 0.18355 0
M  V30 9550 C 914.351 4.3096 -0.747817 0
M  V30 9551 C 913.41 5.26188 -0.0358489 0
M  V30 9552 O 912.436 5.65321 -0.663388 0
M  V30 9553 N 913.638 5.67235 1.23387 0
M  V30 9554 H 916.403 2.61881 -1.45734 0
M  V30 9555 H 913.964 1.33821 -0.911231 0
M  V30 9556 H 915.956 3.99124 0.669468 0
M  V30 9557 H 914.526 2.97201 0.969043 0
M  V30 9558 H 913.746 3.67976 -1.41377 0
M  V30 9559 H 915.034 4.89708 -1.38071 0
M  V30 9560 H 914.432 5.37481 1.76439 0
M  V30 9561 H 912.989 6.30196 1.66423 0
M  V30 9562 N 916.422 0.810101 1.35185 0
M  V30 9563 C 917.372 0.195541 2.2716 0
M  V30 9564 C 918.356 -0.632691 1.47939 0
M  V30 9565 O 919.548 -0.489372 1.701 0
M  V30 9566 C 916.677 -0.652164 3.37049 0
M  V30 9567 C 915.763 0.185989 4.23692 0
M  V30 9568 N 916.154 1.25073 4.90092 0
M  V30 9569 C 914.452 -0.0318033 4.45989 0
M  V30 9570 C 915.153 1.76272 5.54349 0
M  V30 9571 N 914.129 1.06861 5.32993 0
M  V30 9572 H 917.931 1.01018 2.75994 0
M  V30 9573 H 915.445 0.651612 1.48754 0
M  V30 9574 H 917.442 -1.10851 4.01893 0
M  V30 9575 H 916.102 -1.46511 2.89767 0
M  V30 9576 H 917.113 1.63341 4.91467 0
M  V30 9577 H 913.79 -0.813607 4.09496 0
M  V30 9578 H 915.18 2.65278 6.17315 0
M  V30 9579 N 917.9 -1.47166 0.563914 0
M  V30 9580 C 919.146 -2.02756 0.0424338 0
M  V30 9581 C 919.479 -1.43662 -1.3067 0
M  V30 9582 O 918.754 -0.594676 -1.85186 0
M  V30 9583 C 919.037 -3.60074 -0.0434793 0
M  V30 9584 C 918.89 -4.29587 1.33323 0
M  V30 9585 C 920.209 -4.336 -0.753568 0
M  V30 9586 H 917.328 -0.736806 0.0168946 0
M  V30 9587 H 919.97 -1.75521 0.727496 0
M  V30 9588 H 918.12 -3.83409 -0.626906 0
M  V30 9589 H 919.792 -4.17573 1.96037 0
M  V30 9590 H 918.035 -3.8968 1.9061 0
M  V30 9591 H 918.706 -5.38218 1.22576 0
M  V30 9592 H 921.182 -4.15299 -0.258126 0
M  V30 9593 H 920.058 -5.43291 -0.782659 0
M  V30 9594 H 920.319 -4.03302 -1.81108 0
M  V30 9595 N 919.378 -0.300708 -1.54705 0
M  V30 9596 C 920.606 0.31127 -2.04545 0
M  V30 9597 C 921.021 1.47542 -1.178 0
M  V30 9598 O 920.378 1.81361 -0.203571 0
M  V30 9599 C 920.429 0.767783 -3.53253 0
M  V30 9600 O 920.15 -0.350027 -4.36699 0
M  V30 9601 C 921.651 1.44494 -4.1909 0
M  V30 9602 H 918.871 0.067668 -0.667579 0
M  V30 9603 H 921.415 -0.440254 -1.99705 0
M  V30 9604 H 919.57 1.46933 -3.58454 0
M  V30 9605 H 919.984 0.00534038 -5.245 0
M  V30 9606 H 921.458 1.71553 -5.24665 0
M  V30 9607 H 921.935 2.3849 -3.68808 0
M  V30 9608 H 922.541 0.786581 -4.17963 0
M  V30 9609 N 920.856 1.57574 -0.0284266 0
M  V30 9610 C 921.803 2.10176 0.953658 0
M  V30 9611 C 922.773 1.00367 1.32347 0
M  V30 9612 O 923.958 1.27783 1.4169 0
M  V30 9613 C 921.098 2.63287 2.231 0
M  V30 9614 C 920.211 3.87102 1.91771 0
M  V30 9615 C 919.346 4.28609 3.13795 0
M  V30 9616 C 918.385 5.45184 2.78282 0
M  V30 9617 N 917.522 5.81851 3.92929 0
M  V30 9618 H 922.362 2.93806 0.498176 0
M  V30 9619 H 919.899 1.45222 0.234302 0
M  V30 9620 H 921.857 2.9217 2.97813 0
M  V30 9621 H 920.487 1.82489 2.66266 0
M  V30 9622 H 919.539 3.64952 1.07303 0
M  V30 9623 H 920.851 4.71892 1.61615 0
M  V30 9624 H 920.005 4.58925 3.96829 0
M  V30 9625 H 918.744 3.42585 3.47112 0
M  V30 9626 H 917.749 5.14563 1.93661 0
M  V30 9627 H 918.974 6.32907 2.46182 0
M  V30 9628 H 916.92 4.98782 4.2609 0
M  V30 9629 H 916.837 6.6128 3.66395 0
M  V30 9630 H 918.105 6.16772 4.76669 0
M  V30 9631 N 922.334 -0.244713 1.55689 0
M  V30 9632 C 923.267 -1.32946 1.85474 0
M  V30 9633 C 924.245 -1.46279 0.710021 0
M  V30 9634 O 925.429 -1.62459 0.956004 0
M  V30 9635 C 922.556 -2.7027 2.04137 0
M  V30 9636 C 921.602 -2.74075 3.2678 0
M  V30 9637 S 922.435 -2.30465 4.8337 0
M  V30 9638 C 923.591 -3.69709 5.05041 0
M  V30 9639 H 923.824 -1.07482 2.77191 0
M  V30 9640 H 921.357 -0.445807 1.47824 0
M  V30 9641 H 923.315 -3.4934 2.15574 0
M  V30 9642 H 921.976 -2.9297 1.13259 0
M  V30 9643 H 921.169 -3.74932 3.36812 0
M  V30 9644 H 920.771 -2.03051 3.1408 0
M  V30 9645 H 923.063 -4.65222 4.92518 0
M  V30 9646 H 924.006 -3.6461 6.07014 0
M  V30 9647 H 924.414 -3.62323 4.32877 0
M  V30 9648 N 923.813 -1.49104 -0.510467 0
M  V30 9649 C 925.059 -1.58346 -1.26705 0
M  V30 9650 C 925.392 -0.265121 -1.92382 0
M  V30 9651 O 924.667 0.730558 -1.80258 0
M  V30 9652 C 924.95 -2.7359 -2.34137 0
M  V30 9653 C 924.803 -4.1519 -1.73024 0
M  V30 9654 C 926.122 -2.84511 -3.3577 0
M  V30 9655 H 923.241 -0.57637 -0.459311 0
M  V30 9656 H 925.883 -1.81353 -0.566658 0
M  V30 9657 H 924.033 -2.54105 -2.93876 0
M  V30 9658 H 925.705 -4.46167 -1.17186 0
M  V30 9659 H 923.948 -4.21279 -1.03473 0
M  V30 9660 H 924.619 -4.91683 -2.50903 0
M  V30 9661 H 927.095 -3.0222 -2.86011 0
M  V30 9662 H 925.971 -3.6684 -4.08313 0
M  V30 9663 H 926.232 -1.93471 -3.97519 0
M  V30 9664 N 925.291 0.760815 -1.38019 0
M  V30 9665 C 926.254 1.85604 -1.34476 0
M  V30 9666 C 927.254 1.58897 -0.24666 0
M  V30 9667 O 928.444 1.66776 -0.50314 0
M  V30 9668 C 925.576 3.22945 -1.09176 0
M  V30 9669 H 926.769 1.90155 -2.31908 0
M  V30 9670 H 924.322 0.961746 -1.23208 0
M  V30 9671 H 925.057 3.24066 -0.123216 0
M  V30 9672 H 924.842 3.43723 -1.88672 0
M  V30 9673 H 926.332 4.03022 -1.09375 0
M  V30 9674 N 926.769 1.22769 0.988202 0
M  V30 9675 C 928.185 0.988665 1.2529 0
M  V30 9676 C 928.385 -0.314938 1.99024 0
M  V30 9677 O 927.441 -1.03637 2.30251 0
M  V30 9678 C 928.754 2.19046 2.06009 0
M  V30 9679 C 930.302 2.23452 2.19176 0
M  V30 9680 C 930.777 3.43196 3.03283 0
M  V30 9681 N 932.268 3.43387 3.10869 0
M  V30 9682 C 933.003 4.32693 3.7625 0
M  V30 9683 N 932.499 5.32224 4.43519 0
M  V30 9684 N 934.292 4.20457 3.73058 0
M  V30 9685 H 926.443 2.06575 0.494014 0
M  V30 9686 H 928.706 0.905452 0.28082 0
M  V30 9687 H 928.412 3.13607 1.59197 0
M  V30 9688 H 928.286 2.19492 3.06763 0
M  V30 9689 H 930.673 1.29436 2.65199 0
M  V30 9690 H 930.754 2.27042 1.17836 0
M  V30 9691 H 930.398 4.37515 2.57959 0
M  V30 9692 H 930.328 3.36847 4.04774 0
M  V30 9693 H 932.819 2.71368 2.62998 0
M  V30 9694 H 933.132 5.9664 4.91163 0
M  V30 9695 H 931.477 5.36133 4.42252 0
M  V30 9696 H 934.668 3.41949 3.19669 0
M  V30 9697 H 934.841 4.90261 4.23731 0
M  V30 9698 N 928.247 -1.18576 1.03814 0
M  V30 9699 C 929.663 -1.4051 0.756909 0
M  V30 9700 C 929.863 -1.9057 -0.654631 0
M  V30 9701 O 928.919 -2.0884 -1.41922 0
M  V30 9702 C 930.232 -2.4081 1.80087 0
M  V30 9703 C 931.78 -2.54541 1.82148 0
M  V30 9704 C 932.255 -3.58102 2.85529 0
M  V30 9705 N 933.746 -3.65607 2.84404 0
M  V30 9706 C 934.481 -4.45458 3.61047 0
M  V30 9707 N 933.977 -5.28937 4.47434 0
M  V30 9708 N 935.77 -4.40196 3.49548 0
M  V30 9709 H 927.921 -0.844075 1.94908 0
M  V30 9710 H 930.184 -0.433287 0.843188 0
M  V30 9711 H 929.89 -2.1107 2.81322 0
M  V30 9712 H 929.764 -3.4012 1.63089 0
M  V30 9713 H 932.151 -2.83598 0.815855 0
M  V30 9714 H 932.232 -1.55352 2.03223 0
M  V30 9715 H 931.876 -3.29786 3.86269 0
M  V30 9716 H 931.806 -4.56963 2.6171 0
M  V30 9717 H 934.297 -3.05994 2.21756 0
M  V30 9718 H 934.61 -5.8701 5.02632 0
M  V30 9719 H 932.955 -5.28366 4.51503 0
M  V30 9720 H 936.146 -3.74026 2.81464 0
M  V30 9721 H 936.319 -5.02186 4.09528 0
M  V30 9722 N 929.725 -0.817259 -1.34754 0
M  V30 9723 C 930.973 -0.401852 -1.98065 0
M  V30 9724 C 931.294 1.03718 -1.65129 0
M  V30 9725 O 930.564 1.71921 -0.939141 0
M  V30 9726 H 929.144 -0.145603 -0.732672 0
M  V30 9727 H 931.806 -1.04545 -1.64488 0
M  V30 9728 H 930.902 -0.516241 -3.07801 0
M  V30 9729 N 931.203 1.46865 -0.571711 0
M  V30 9730 C 932.166 2.28658 0.157499 0
M  V30 9731 C 933.166 1.37773 0.829172 0
M  V30 9732 O 934.356 1.6026 0.682811 0
M  V30 9733 C 931.488 3.17859 1.23202 0
M  V30 9734 H 932.681 2.94603 -0.561171 0
M  V30 9735 H 930.234 1.52793 -0.329229 0
M  V30 9736 H 930.969 2.56637 1.98262 0
M  V30 9737 H 930.754 3.84762 0.755031 0
M  V30 9738 H 932.244 3.7945 1.74378 0
M  V30 9739 N 932.681 0.308908 1.54543 0
M  V30 9740 C 933.93 -0.298854 1.99474 0
M  V30 9741 C 934.243 -1.54393 1.20093 0
M  V30 9742 O 935.449 -2.22677 1.55329 0
M  V30 9743 C 933.905 -0.58303 3.55146 0
M  V30 9744 C 933.513 0.644157 4.43345 0
M  V30 9745 C 935.257 -1.15155 4.08582 0
M  V30 9746 C 933.164 0.332694 5.90463 0
M  V30 9747 H 932.094 -0.115445 0.74511 0
M  V30 9748 H 934.745 0.418848 1.78656 0
M  V30 9749 H 933.127 -1.36053 3.71894 0
M  V30 9750 H 934.301 1.42012 4.38371 0
M  V30 9751 H 932.616 1.13186 4.00722 0
M  V30 9752 H 935.213 -1.39896 5.16075 0
M  V30 9753 H 935.556 -2.09632 3.59667 0
M  V30 9754 H 936.089 -0.435571 3.95408 0
M  V30 9755 H 932.828 1.24624 6.43544 0
M  V30 9756 H 932.348 -0.405844 5.98425 0
M  V30 9757 H 934.027 -0.0628545 6.46969 0
M  V30 9758 N 934.159 -1.57557 0.0367827 0
M  V30 9759 C 935.089 -2.13712 -0.940719 0
M  V30 9760 C 936.07 -1.05515 -1.33419 0
M  V30 9761 O 937.255 -1.33385 -1.41146 0
M  V30 9762 C 934.385 -2.67043 -2.22048 0
M  V30 9763 C 933.339 -3.80096 -1.96752 0
M  V30 9764 C 932.665 -4.19886 -3.31059 0
M  V30 9765 C 933.965 -5.05848 -1.30058 0
M  V30 9766 H 935.659 -2.9564 -0.473033 0
M  V30 9767 H 933.205 -1.42214 -0.226089 0
M  V30 9768 H 935.158 -3.04964 -2.90818 0
M  V30 9769 H 933.882 -1.82287 -2.70996 0
M  V30 9770 H 932.541 -3.42625 -1.30398 0
M  V30 9771 H 932.189 -3.32101 -3.77781 0
M  V30 9772 H 931.889 -4.96073 -3.14937 0
M  V30 9773 H 933.413 -4.60395 -4.01084 0
M  V30 9774 H 934.827 -5.41306 -1.8884 0
M  V30 9775 H 933.224 -5.87084 -1.24309 0
M  V30 9776 H 934.294 -4.84122 -0.274591 0
M  V30 9777 N 935.637 0.236453 -1.55816 0
M  V30 9778 C 937.048 0.80468 -1.68469 0
M  V30 9779 C 937.399 1.85601 -0.636133 0
M  V30 9780 O 936.524 2.15323 0.215622 0
M  V30 9781 C 937.119 1.46634 -3.05424 0
M  V30 9782 C 935.678 1.98214 -3.19981 0
M  V30 9783 C 934.825 0.83695 -2.64368 0
M  V30 9784 H 937.776 0.0120647 -1.58695 0
M  V30 9785 H 937.797 2.33472 -3.00451 0
M  V30 9786 H 937.309 0.700931 -3.81718 0
M  V30 9787 H 935.41 2.77604 -2.4853 0
M  V30 9788 H 935.523 2.17235 -4.2702 0
M  V30 9789 H 933.887 1.24028 -2.22462 0
M  V30 9790 H 934.67 0.084451 -3.43196 0
M  V30 9791 N 937.115 1.49373 0.502552 0
M  V30 9792 C 938.047 1.62045 1.62093 0
M  V30 9793 C 939.06 0.503221 1.54827 0
M  V30 9794 O 940.249 0.775208 1.60788 0
M  V30 9795 C 937.349 1.55971 3.00876 0
M  V30 9796 C 936.522 2.832 3.33341 0
M  V30 9797 C 935.581 2.702 4.51529 0
M  V30 9798 O 934.607 3.44132 4.53389 0
M  V30 9799 N 935.809 1.81642 5.5135 0
M  V30 9800 H 938.574 2.58501 1.51649 0
M  V30 9801 H 936.135 1.46442 0.690396 0
M  V30 9802 H 938.127 1.4493 3.77859 0
M  V30 9803 H 936.697 0.673795 3.05252 0
M  V30 9804 H 935.917 3.08604 2.4527 0
M  V30 9805 H 937.205 3.67551 3.51829 0
M  V30 9806 H 936.603 1.20829 5.52645 0
M  V30 9807 H 935.16 1.76524 6.27441 0
M  V30 9808 N 938.594 -0.753485 1.38421 0
M  V30 9809 C 939.871 -1.50318 1.25155 0
M  V30 9810 C 940.251 -2.10588 -0.147003 0
M  V30 9811 O 939.599 -1.97071 -1.15651 0
M  V30 9812 C 939.809 -2.56946 2.36177 0
M  V30 9813 C 941.157 -3.23846 2.74607 0
M  V30 9814 O 942.181 -2.67251 2.3549 0
M  V30 9815 O 941.04 -4.2621 3.42064 0
M  V30 9816 H 938.134 -0.666624 0.48943 0
M  V30 9817 H 940.68 -0.788887 1.50249 0
M  V30 9818 H 939.452 -2.1066 3.29754 0
M  V30 9819 H 939.075 -3.35956 2.12648 0
M  V30 9820 N 940.072 -1.23292 -0.981677 0
M  V30 9821 C 941.321 -1.05832 -1.71705 0
M  V30 9822 C 941.634 0.40514 -1.91358 0
M  V30 9823 O 942.84 0.699645 -2.6233 0
M  V30 9824 C 941.296 -1.84532 -3.08992 0
M  V30 9825 C 940.904 -3.35199 -2.9723 0
M  V30 9826 C 942.648 -1.75557 -3.86497 0
M  V30 9827 C 940.555 -4.06296 -4.29741 0
M  V30 9828 H 939.485 -0.39241 -0.64384 0
M  V30 9829 H 942.136 -1.47247 -1.09502 0
M  V30 9830 H 940.518 -1.35923 -3.71942 0
M  V30 9831 H 941.692 -3.91286 -2.43377 0
M  V30 9832 H 940.007 -3.44973 -2.332 0
M  V30 9833 H 942.604 -2.25989 -4.84596 0
M  V30 9834 H 942.947 -0.718101 -4.1006 0
M  V30 9835 H 943.48 -2.21771 -3.30246 0
M  V30 9836 H 940.219 -5.10344 -4.11375 0
M  V30 9837 H 939.739 -3.54997 -4.83464 0
M  V30 9838 H 941.418 -4.12519 -4.98434 0
M  V30 9839 N 941.55 1.18024 -1.04442 0
M  V30 9840 C 942.775 1.92573 -0.770097 0
M  V30 9841 C 943.2 1.75871 0.667169 0
M  V30 9842 O 942.558 1.07136 1.46258 0
M  V30 9843 C 942.606 3.41904 -1.14602 0
M  V30 9844 O 941.71 4.11491 -0.273712 0
M  V30 9845 H 941.051 0.600636 -0.283076 0
M  V30 9846 H 943.581 1.49645 -1.39526 0
M  V30 9847 H 943.591 3.92623 -1.10956 0
M  V30 9848 H 942.266 3.53382 -2.19304 0
M  V30 9849 H 940.843 3.71059 -0.370124 0
M  V30 9850 N 943.028 0.824394 1.34319 0
M  V30 9851 C 944.274 0.413779 1.98534 0
M  V30 9852 C 944.607 -1.02089 1.65201 0
M  V30 9853 O 943.882 -1.71129 0.924402 0
M  V30 9854 C 944.165 0.61801 3.54757 0
M  V30 9855 C 944.018 2.0989 3.97827 0
M  V30 9856 C 945.337 0.0549041 4.40066 0
M  V30 9857 H 942.456 0.151815 0.721194 0
M  V30 9858 H 945.098 1.03723 1.5919 0
M  V30 9859 H 943.248 0.0873107 3.88402 0
M  V30 9860 H 944.92 2.69335 3.74508 0
M  V30 9861 H 943.163 2.58881 3.48085 0
M  V30 9862 H 943.834 2.1926 5.06586 0
M  V30 9863 H 946.31 0.508348 4.12983 0
M  V30 9864 H 945.186 0.227595 5.48428 0
M  V30 9865 H 945.447 -1.04025 4.29687 0
M  V30 9866 N 944.506 -1.46559 0.579492 0
M  V30 9867 C 945.734 -2.06784 0.0693648 0
M  V30 9868 C 946.149 -1.42875 -1.23419 0
M  V30 9869 O 945.506 -0.532919 -1.74546 0
M  V30 9870 C 945.557 -3.61343 -0.106511 0
M  V30 9871 O 945.278 -4.22861 1.14545 0
M  V30 9872 C 946.779 -4.38489 -0.651359 0
M  V30 9873 H 943.999 -0.66866 0.0559848 0
M  V30 9874 H 946.543 -1.88235 0.799245 0
M  V30 9875 H 944.698 -3.7933 -0.786601 0
M  V30 9876 H 945.112 -5.15691 0.95723 0
M  V30 9877 H 946.586 -5.47237 -0.723615 0
M  V30 9878 H 947.063 -4.06309 -1.66763 0
M  V30 9879 H 947.669 -4.253 -0.0062433 0
M  V30 9880 N 945.984 -0.3171 -1.54377 0
M  V30 9881 C 947.395 0.172287 -1.85903 0
M  V30 9882 C 947.746 1.52141 -1.23885 0
M  V30 9883 O 946.871 2.0949 -0.542476 0
M  V30 9884 C 947.466 0.319392 -3.37291 0
M  V30 9885 C 946.025 0.752998 -3.68791 0
M  V30 9886 C 945.172 -0.129143 -2.76999 0
M  V30 9887 H 948.123 -0.537597 -1.49317 0
M  V30 9888 H 948.144 1.15137 -3.62662 0
M  V30 9889 H 947.656 -0.662671 -3.82401 0
M  V30 9890 H 945.757 1.74504 -3.2921 0
M  V30 9891 H 945.87 0.561228 -4.75801 0
M  V30 9892 H 944.234 0.394242 -2.5163 0
M  V30 9893 H 945.017 -1.10785 -3.24933 0
M  V30 9894 N 947.462 1.57535 -0.0451378 0
M  V30 9895 C 948.708 1.92736 0.630921 0
M  V30 9896 C 949.041 0.923265 1.70849 0
M  V30 9897 O 948.316 -0.0516512 1.94431 0
M  V30 9898 C 948.599 3.38348 1.23259 0
M  V30 9899 C 948.452 4.49503 0.16349 0
M  V30 9900 C 949.771 3.84233 2.14599 0
M  V30 9901 H 946.89 0.700884 0.227883 0
M  V30 9902 H 949.532 1.89706 -0.10567 0
M  V30 9903 H 947.682 3.41061 1.86037 0
M  V30 9904 H 949.354 4.58919 -0.46808 0
M  V30 9905 H 947.597 4.30802 -0.509166 0
M  V30 9906 H 948.268 5.48457 0.624382 0
M  V30 9907 H 950.744 3.83358 1.6179 0
M  V30 9908 H 949.62 4.86781 2.53644 0
M  V30 9909 H 949.881 3.20646 3.04366 0
M  V30 9910 N 948.94 -0.228186 1.55939 0
M  V30 9911 C 949.903 -1.26621 1.91049 0
M  V30 9912 C 950.903 -1.40141 0.788491 0
M  V30 9913 O 952.093 -1.3852 1.05631 0
M  V30 9914 C 949.225 -2.64108 2.15545 0
M  V30 9915 H 950.418 -0.966978 2.83883 0
M  V30 9916 H 947.971 -0.468313 1.49119 0
M  V30 9917 H 948.706 -2.99141 1.25241 0
M  V30 9918 H 948.491 -2.55673 2.97277 0
M  V30 9919 H 949.981 -3.39025 2.43827 0
M  V30 9920 N 950.418 -1.49637 -0.494624 0
M  V30 9921 C 951.646 -1.63164 -1.2722 0
M  V30 9922 C 952.061 -0.305552 -1.86311 0
M  V30 9923 O 951.418 0.709758 -1.68133 0
M  V30 9924 C 951.469 -2.70524 -2.39789 0
M  V30 9925 O 951.19 -3.97991 -1.83126 0
M  V30 9926 C 952.691 -2.94814 -3.31058 0
M  V30 9927 H 949.911 -0.54912 -0.385627 0
M  V30 9928 H 952.455 -1.95711 -0.593081 0
M  V30 9929 H 950.61 -2.40738 -3.03519 0
M  V30 9930 H 951.024 -4.57179 -2.57075 0
M  V30 9931 H 952.498 -3.73653 -4.06309 0
M  V30 9932 H 952.975 -2.04974 -3.88436 0
M  V30 9933 H 953.581 -3.26042 -2.73088 0
M  V30 9934 N 951.896 0.746133 -1.38819 0
M  V30 9935 C 953.307 1.32384 -1.31648 0
M  V30 9936 C 953.658 1.96185 0.0243086 0
M  V30 9937 O 952.783 1.95567 0.92641 0
M  V30 9938 C 953.378 2.40712 -2.38418 0
M  V30 9939 C 951.937 2.94185 -2.34803 0
M  V30 9940 C 951.084 1.67639 -2.20891 0
M  V30 9941 H 954.035 0.544457 -1.49068 0
M  V30 9942 H 954.056 3.20833 -2.04564 0
M  V30 9943 H 953.568 1.94247 -3.3599 0
M  V30 9944 H 951.669 3.44959 -1.40834 0
M  V30 9945 H 951.782 3.48057 -3.29231 0
M  V30 9946 H 950.146 1.9155 -1.67871 0
M  V30 9947 H 950.929 1.23242 -3.20416 0
M  V30 9948 N 953.375 1.23811 0.975125 0
M  V30 9949 C 954.621 1.07495 1.71967 0
M  V30 9950 C 954.954 -0.386451 1.90316 0
M  V30 9951 O 954.229 -1.28591 1.45927 0
M  V30 9952 C 954.512 1.80694 3.11483 0
M  V30 9953 C 954.365 3.3454 3.00671 0
M  V30 9954 C 955.684 1.57367 4.11003 0
M  V30 9955 H 952.803 0.3919 0.624166 0
M  V30 9956 H 955.445 1.52383 1.13487 0
M  V30 9957 H 953.595 1.42538 3.61407 0
M  V30 9958 H 955.267 3.8225 2.5823 0
M  V30 9959 H 953.51 3.63301 2.37054 0
M  V30 9960 H 954.181 3.80951 3.99475 0
M  V30 9961 H 956.657 1.90545 3.69908 0
M  V30 9962 H 955.533 2.11052 5.06703 0
M  V30 9963 H 955.794 0.510221 4.39146 0
M  V30 9964 N 954.853 -1.17469 1.05066 0
M  V30 9965 C 956.264 -1.69334 0.786304 0
M  V30 9966 C 956.615 -1.83604 -0.691671 0
M  V30 9967 O 955.74 -1.52269 -1.53763 0
M  V30 9968 C 956.335 -3.07572 1.42074 0
M  V30 9969 C 954.894 -3.56609 1.20446 0
M  V30 9970 C 954.041 -2.329 1.50508 0
M  V30 9971 H 956.992 -1.02003 1.21577 0
M  V30 9972 H 957.013 -3.71352 0.829334 0
M  V30 9973 H 956.525 -2.97154 2.49642 0
M  V30 9974 H 954.626 -3.72306 0.147968 0
M  V30 9975 H 954.739 -4.39446 1.90852 0
M  V30 9976 H 953.103 -2.37305 0.925124 0
M  V30 9977 H 953.886 -2.25093 2.59207 0
M  V30 9978 N 956.331 -0.831506 -1.3388 0
M  V30 9979 C 957.742 -0.481375 -1.80388 0
M  V30 9980 C 958.093 0.998993 -1.68863 0
M  V30 9981 O 957.218 1.77795 -1.2336 0
M  V30 9982 C 957.813 -0.86699 -3.27519 0
M  V30 9983 C 956.372 -0.569105 -3.72073 0
M  V30 9984 C 955.519 -1.07929 -2.55434 0
M  V30 9985 H 958.47 -1.02089 -1.21505 0
M  V30 9986 H 958.491 -0.174128 -3.80101 0
M  V30 9987 H 958.003 -1.94447 -3.35875 0
M  V30 9988 H 956.104 0.498607 -3.69249 0
M  V30 9989 H 956.217 -1.11918 -4.65845 0
M  V30 9990 H 954.581 -0.500465 -2.49735 0
M  V30 9991 H 955.364 -2.16339 -2.66556 0
M  V30 9992 N 957.809 1.4625 -0.587256 0
M  V30 9993 C 958.719 2.34147 0.145744 0
M  V30 9994 C 959.735 1.50026 0.881376 0
M  V30 9995 O 960.911 1.82884 0.843539 0
M  V30 9996 C 957.976 3.27294 1.14366 0
M  V30 9997 C 957.037 4.27317 0.412199 0
M  V30 9998 C 956.27 5.16013 1.36257 0
M  V30 9999 O 956.493 5.0773 2.59934 0
M  V30 10000 O 955.427 5.95569 0.870681 0
M  V30 10001 H 959.253 2.98187 -0.576055 0
M  V30 10002 H 956.838 1.45299 -0.347628 0
M  V30 10003 H 958.72 3.84747 1.71894 0
M  V30 10004 H 957.395 2.65845 1.84684 0
M  V30 10005 H 956.302 3.73538 -0.205036 0
M  V30 10006 H 957.635 4.91564 -0.250104 0
M  V30 10007 N 959.287 0.325282 1.54207 0
M  V30 10008 C 960.197 -0.548778 2.28091 0
M  V30 10009 C 961.213 -1.12772 1.32508 0
M  V30 10010 O 962.389 -1.14732 1.65525 0
M  V30 10011 C 959.454 -1.69284 3.02562 0
M  V30 10012 C 958.515 -1.14553 4.13734 0
M  V30 10013 C 957.748 -2.23506 4.84645 0
M  V30 10014 O 957.971 -3.43884 4.55082 0
M  V30 10015 O 956.905 -1.88828 5.71513 0
M  V30 10016 H 960.731 0.0512974 3.03657 0
M  V30 10017 H 958.316 0.0909159 1.49123 0
M  V30 10018 H 960.198 -2.35887 3.49192 0
M  V30 10019 H 958.873 -2.27906 2.2987 0
M  V30 10020 H 957.78 -0.444532 3.71449 0
M  V30 10021 H 959.113 -0.60441 4.88475 0
M  V30 10022 N 960.765 -1.57509 0.0534917 0
M  V30 10023 C 961.697 -2.08616 -0.949322 0
M  V30 10024 C 962.71 -1.01446 -1.27328 0
M  V30 10025 O 963.899 -1.29007 -1.23367 0
M  V30 10026 C 960.999 -2.51622 -2.27024 0
M  V30 10027 C 960.172 -3.82154 -2.12785 0
M  V30 10028 C 959.231 -4.11448 -3.2802 0
M  V30 10029 O 958.257 -4.81333 -3.03822 0
M  V30 10030 N 959.459 -3.63543 -4.52567 0
M  V30 10031 H 962.224 -2.95275 -0.5131 0
M  V30 10032 H 959.785 -1.61355 -0.132693 0
M  V30 10033 H 961.777 -2.68293 -3.02986 0
M  V30 10034 H 960.347 -1.70198 -2.62205 0
M  V30 10035 H 959.567 -3.75041 -1.21399 0
M  V30 10036 H 960.855 -4.67629 -2.00501 0
M  V30 10037 H 960.253 -3.07051 -4.75117 0
M  V30 10038 H 958.81 -3.85448 -5.25617 0
M  V30 10039 N 962.243 0.219913 -1.56058 0
M  V30 10040 C 963.206 1.25606 -1.91718 0
M  V30 10041 C 964.206 1.39721 -0.795912 0
M  V30 10042 O 965.396 1.37958 -1.06364 0
M  V30 10043 C 962.528 2.62961 -2.16943 0
M  V30 10044 H 963.721 0.951909 -2.84392 0
M  V30 10045 H 961.274 0.460398 -1.49365 0
M  V30 10046 H 962.009 2.98472 -1.26826 0
M  V30 10047 H 961.794 2.54093 -2.98629 0
M  V30 10048 H 963.284 3.37727 -2.45622 0
M  V30 10049 N 963.721 1.49897 0.486681 0
M  V30 10050 C 964.669 1.68125 1.60738 0
M  V30 10051 C 965.663 0.547097 1.60322 0
M  V30 10052 O 966.869 0.727153 1.64659 0
M  V30 10053 H 963.244 0.530391 0.533094 0
M  V30 10054 H 965.215 2.62165 1.42521 0
M  V30 10055 C 963.964 1.77827 2.98786 0
M  V30 10056 H 963.287 2.6448 2.99818 0
M  V30 10057 H 964.727 1.94611 3.76699 0
M  V30 10058 C 963.186 0.526287 3.32764 0
M  V30 10059 O 963.716 -0.341607 4.00245 0
M  V30 10060 N 961.922 0.384947 2.88039 0
M  V30 10061 H 961.469 1.09222 2.33299 0
M  V30 10062 H 961.427 -0.451618 3.11139 0
M  V30 10063 N 965.199 -0.738761 1.39212 0
M  V30 10064 C 966.129 -1.86602 1.40364 0
M  V30 10065 C 967.11 -1.67984 0.267495 0
M  V30 10066 O 968.295 -1.88358 0.472765 0
M  V30 10067 C 965.425 -3.24308 1.24265 0
M  V30 10068 C 964.379 -3.57557 2.35239 0
M  V30 10069 C 963.705 -4.94159 2.04233 0
M  V30 10070 C 965.005 -3.60914 3.77543 0
M  V30 10071 H 966.699 -1.85896 2.34698 0
M  V30 10072 H 964.245 -0.892959 1.1297 0
M  V30 10073 H 966.198 -4.02838 1.23692 0
M  V30 10074 H 964.922 -3.25531 0.263974 0
M  V30 10075 H 963.581 -2.81354 2.35022 0
M  V30 10076 H 963.229 -4.91959 1.04813 0
M  V30 10077 H 962.929 -5.17373 2.78567 0
M  V30 10078 H 964.453 -5.7505 2.05303 0
M  V30 10079 H 965.867 -4.29528 3.79709 0
M  V30 10080 H 964.264 -3.95644 4.51205 0
M  V30 10081 H 965.334 -2.60803 4.08791 0
M  V30 10082 N 966.677 -1.24326 -0.968545 0
M  V30 10083 C 967.923 -1.09413 -1.71465 0
M  V30 10084 C 968.278 0.363422 -1.88937 0
M  V30 10085 O 967.571 1.26486 -1.43916 0
M  V30 10086 C 967.765 -1.76644 -3.10695 0
M  V30 10087 C 967.594 -3.28787 -3.06805 0
M  V30 10088 C 966.364 -3.97995 -3.11333 0
M  V30 10089 C 968.562 -4.25389 -2.89047 0
M  V30 10090 N 966.544 -5.37024 -2.97453 0
M  V30 10091 C 967.915 -5.51411 -2.83454 0
M  V30 10092 C 969.97 -4.15976 -2.73621 0
M  V30 10093 C 968.673 -6.69096 -2.64013 0
M  V30 10094 C 970.699 -5.33338 -2.55547 0
M  V30 10095 C 970.061 -6.58291 -2.50663 0
M  V30 10096 H 966.16 -0.454986 -0.636012 0
M  V30 10097 H 968.744 -1.57228 -1.14837 0
M  V30 10098 H 966.915 -1.31344 -3.65518 0
M  V30 10099 H 968.647 -1.54599 -3.74007 0
M  V30 10100 H 965.402 -3.49155 -3.19981 0
M  V30 10101 H 965.826 -6.09948 -2.93756 0
M  V30 10102 H 970.468 -3.20131 -2.76181 0
M  V30 10103 H 968.186 -7.65064 -2.60197 0
M  V30 10104 H 971.772 -5.27904 -2.44557 0
M  V30 10105 H 970.652 -7.47575 -2.36856 0
M  V30 10106 N 968.156 1.1691 -1.05688 0
M  V30 10107 C 969.086 2.23275 -0.683402 0
M  V30 10108 C 970.067 1.6704 0.321206 0
M  V30 10109 O 971.252 1.93191 0.197691 0
M  V30 10110 C 968.382 3.47244 -0.0626006 0
M  V30 10111 C 967.336 4.16333 -0.992513 0
M  V30 10112 C 966.662 5.34182 -0.23533 0
M  V30 10113 C 967.962 4.68002 -2.31886 0
M  V30 10114 H 969.656 2.54771 -1.57264 0
M  V30 10115 H 967.202 1.2246 -0.757606 0
M  V30 10116 H 969.155 4.20874 0.210503 0
M  V30 10117 H 967.879 3.1503 0.861616 0
M  V30 10118 H 966.538 3.44622 -1.25026 0
M  V30 10119 H 966.186 4.9822 0.69181 0
M  V30 10120 H 965.886 5.81346 -0.855002 0
M  V30 10121 H 967.41 6.10592 0.0303717 0
M  V30 10122 H 968.824 5.33244 -2.10531 0
M  V30 10123 H 967.221 5.25764 -2.89296 0
M  V30 10124 H 968.291 3.84541 -2.95391 0
M  V30 10125 N 969.634 0.838594 1.33437 0
M  V30 10126 C 970.88 0.434813 1.98084 0
M  V30 10127 C 971.213 -1.00331 1.66275 0
M  V30 10128 O 970.488 -1.70139 0.942501 0
M  V30 10129 C 970.771 0.655602 3.54082 0
M  V30 10130 C 970.624 2.14097 3.95578 0
M  V30 10131 C 971.943 0.101576 4.39983 0
M  V30 10132 H 969.062 0.159456 0.719544 0
M  V30 10133 H 971.704 1.05406 1.58081 0
M  V30 10134 H 969.854 0.128501 3.88287 0
M  V30 10135 H 971.526 2.73292 3.71631 0
M  V30 10136 H 969.769 2.62558 3.4532 0
M  V30 10137 H 970.44 2.24621 5.04231 0
M  V30 10138 H 972.916 0.552122 4.12421 0
M  V30 10139 H 971.792 0.28575 5.48156 0
M  V30 10140 H 972.053 -0.994616 4.30767 0
M  V30 10141 N 971.112 -1.45937 0.595003 0
M  V30 10142 C 972.022 -2.34221 -0.133325 0
M  V30 10143 C 973.038 -1.50491 -0.873407 0
M  V30 10144 O 974.214 -1.83328 -0.833828 0
M  V30 10145 C 971.279 -3.27896 -1.12628 0
M  V30 10146 C 970.34 -4.27529 -0.389532 0
M  V30 10147 C 969.573 -5.16729 -1.33519 0
M  V30 10148 O 969.796 -5.09102 -2.57238 0
M  V30 10149 O 968.73 -5.96023 -0.839084 0
M  V30 10150 H 972.556 -2.97877 0.591861 0
M  V30 10151 H 970.141 -1.45113 0.355329 0
M  V30 10152 H 972.023 -3.85654 -1.69851 0
M  V30 10153 H 970.698 -2.6682 -1.83272 0
M  V30 10154 H 969.605 -3.73424 0.224843 0
M  V30 10155 H 970.938 -4.91425 0.276169 0
M  V30 10156 N 972.59 -0.333456 -1.54032 0
M  V30 10157 C 973.553 0.515392 -2.2333 0
M  V30 10158 C 974.553 1.03566 -1.23007 0
M  V30 10159 O 975.743 0.926514 -1.47517 0
M  V30 10160 C 972.875 1.7169 -2.94508 0
M  V30 10161 H 974.068 -0.0905407 -2.99763 0
M  V30 10162 H 971.621 -0.0846651 -1.56071 0
M  V30 10163 H 972.356 2.3618 -2.22237 0
M  V30 10164 H 972.141 1.35115 -3.68085 0
M  V30 10165 H 973.631 2.31922 -3.47278 0
M  V30 10166 N 974.068 1.57479 -0.061844 0
M  V30 10167 C 974.978 2.15645 0.923826 0
M  V30 10168 C 975.994 1.117 1.33413 0
M  V30 10169 O 977.17 1.4392 1.40887 0
M  V30 10170 C 974.235 2.69857 2.17665 0
M  V30 10171 C 973.296 3.88638 1.8237 0
M  V30 10172 C 972.529 4.40256 3.01679 0
M  V30 10173 O 972.752 3.90908 4.15388 0
M  V30 10174 O 971.686 5.31713 2.82073 0
M  V30 10175 H 975.512 3.0021 0.459094 0
M  V30 10176 H 973.097 1.48534 0.160665 0
M  V30 10177 H 974.979 3.04647 2.9115 0
M  V30 10178 H 973.654 1.88357 2.63255 0
M  V30 10179 H 972.561 3.58719 1.06167 0
M  V30 10180 H 973.894 4.71401 1.4157 0
M  V30 10181 N 975.546 -0.211634 1.56173 0
M  V30 10182 C 976.795 -0.932647 1.78842 0
M  V30 10183 C 977.108 -1.85103 0.63217 0
M  V30 10184 O 978.314 -2.61143 0.742746 0
M  V30 10185 C 976.77 -1.70866 3.16753 0
M  V30 10186 C 976.378 -0.835934 4.40132 0
M  V30 10187 C 978.122 -2.4203 3.48743 0
M  V30 10188 C 976.029 -1.60987 5.69067 0
M  V30 10189 H 974.959 -0.351983 0.666801 0
M  V30 10190 H 977.61 -0.186284 1.82552 0
M  V30 10191 H 975.992 -2.4983 3.07247 0
M  V30 10192 H 977.166 -0.0861298 4.60719 0
M  V30 10193 H 975.481 -0.235941 4.15731 0
M  V30 10194 H 978.078 -3.00453 4.42303 0
M  V30 10195 H 978.421 -3.15406 2.71707 0
M  V30 10196 H 978.954 -1.70048 3.59623 0
M  V30 10197 H 975.693 -0.9192 6.49023 0
M  V30 10198 H 975.213 -2.33403 5.52524 0
M  V30 10199 H 976.892 -2.16798 6.09596 0
M  V30 10200 N 977.024 -1.50153 -0.478725 0
M  V30 10201 C 978.249 -1.64776 -1.2595 0
M  V30 10202 C 978.674 -0.327794 -1.85222 0
M  V30 10203 O 978.032 0.707418 -1.66929 0
M  V30 10204 C 978.08 -2.73551 -2.34952 0
M  V30 10205 O 977.184 -2.34273 -3.39397 0
M  V30 10206 H 976.525 -0.550769 -0.370877 0
M  V30 10207 H 979.055 -1.96482 -0.570605 0
M  V30 10208 H 979.065 -2.96397 -2.8038 0
M  V30 10209 H 977.74 -3.69354 -1.91181 0
M  V30 10210 H 976.317 -2.21844 -2.99733 0
M  V30 10211 N 978.502 0.731368 -1.39602 0
M  V30 10212 C 979.913 1.30981 -1.33045 0
M  V30 10213 C 980.264 1.962 0.00349918 0
M  V30 10214 O 979.389 1.96539 0.905615 0
M  V30 10215 C 979.984 2.3817 -2.40958 0
M  V30 10216 C 978.543 2.91678 -2.3791 0
M  V30 10217 C 977.69 1.65286 -2.22656 0
M  V30 10218 H 980.641 0.528615 -1.49637 0
M  V30 10219 H 980.662 3.18645 -2.07955 0
M  V30 10220 H 980.174 1.90673 -3.38032 0
M  V30 10221 H 978.275 3.43446 -1.44485 0
M  V30 10222 H 978.388 3.44545 -3.32904 0
M  V30 10223 H 976.752 1.89759 -1.69893 0
M  V30 10224 H 977.535 1.19836 -3.21705 0
M  V30 10225 N 979.98 1.24838 0.961938 0
M  V30 10226 C 980.89 1.06304 2.09133 0
M  V30 10227 C 981.906 0.00221475 1.74 0
M  V30 10228 O 983.082 0.201611 2.00388 0
M  V30 10229 C 980.147 0.676117 3.40043 0
M  V30 10230 C 979.208 1.81407 3.89089 0
M  V30 10231 C 978.441 1.44551 5.13752 0
M  V30 10232 O 978.664 0.337894 5.69398 0
M  V30 10233 O 977.598 2.27316 5.57325 0
M  V30 10234 H 981.424 2.01001 2.27667 0
M  V30 10235 H 979.009 1.0371 1.07539 0
M  V30 10236 H 980.891 0.472124 4.18747 0
M  V30 10237 H 979.566 -0.241667 3.22797 0
M  V30 10238 H 978.473 2.07286 3.11421 0
M  V30 10239 H 979.806 2.71083 4.10822 0
M  V30 10240 N 981.458 -1.16348 1.06306 0
M  V30 10241 C 982.388 -2.2291 0.695234 0
M  V30 10242 C 983.369 -1.67208 -0.312343 0
M  V30 10243 O 984.554 -1.93293 -0.187442 0
M  V30 10244 C 981.684 -3.47205 0.0810149 0
M  V30 10245 C 980.638 -4.15801 1.01458 0
M  V30 10246 C 979.964 -5.3405 0.263656 0
M  V30 10247 C 981.264 -4.66766 2.34365 0
M  V30 10248 H 982.958 -2.53934 1.58613 0
M  V30 10249 H 980.504 -1.22056 0.76409 0
M  V30 10250 H 982.457 -4.2098 -0.18818 0
M  V30 10251 H 981.181 -3.15482 -0.844897 0
M  V30 10252 H 979.84 -3.43954 1.26852 0
M  V30 10253 H 979.488 -4.9858 -0.665378 0
M  V30 10254 H 979.188 -5.80885 0.88582 0
M  V30 10255 H 980.712 -6.106 0.00200994 0
M  V30 10256 H 982.126 -5.3212 2.13356 0
M  V30 10257 H 980.523 -5.24223 2.9208 0
M  V30 10258 H 981.593 -3.82969 2.97426 0
M  V30 10259 N 982.937 -0.845659 -1.3299 0
M  V30 10260 C 983.869 -0.241097 -2.27928 0
M  V30 10261 C 984.882 0.582048 -1.5204 0
M  V30 10262 O 986.071 0.408008 -1.73774 0
M  V30 10263 C 983.171 0.678652 -3.32035 0
M  V30 10264 C 982.344 -0.106652 -4.3727 0
M  V30 10265 C 981.403 0.737478 -5.21006 0
M  V30 10266 O 980.429 0.174231 -5.68933 0
M  V30 10267 N 981.631 2.05372 -5.42957 0
M  V30 10268 H 984.396 -1.05685 -2.80448 0
M  V30 10269 H 981.957 -0.704771 -1.45755 0
M  V30 10270 H 983.949 1.24849 -3.84961 0
M  V30 10271 H 982.519 1.3951 -2.79742 0
M  V30 10272 H 981.739 -0.857897 -3.84752 0
M  V30 10273 H 983.027 -0.646386 -5.04677 0
M  V30 10274 H 982.425 2.53478 -5.05733 0
M  V30 10275 H 980.982 2.5719 -5.98913 0
M  V30 10276 N 984.415 1.45619 -0.602734 0
M  V30 10277 C 985.362 2.30493 0.118944 0
M  V30 10278 C 986.332 1.41816 0.864723 0
M  V30 10279 O 987.517 1.7075 0.851424 0
M  V30 10280 C 984.657 3.2664 1.11356 0
M  V30 10281 C 983.77 4.3042 0.369161 0
M  V30 10282 C 982.905 5.13678 1.35307 0
M  V30 10283 C 981.944 6.09189 0.596207 0
M  V30 10284 N 981.081 6.85245 1.52916 0
M  V30 10285 H 985.921 2.91672 -0.610836 0
M  V30 10286 H 983.458 1.43731 -0.313032 0
M  V30 10287 H 985.416 3.80846 1.7033 0
M  V30 10288 H 984.046 2.67225 1.81081 0
M  V30 10289 H 983.098 3.78913 -0.335994 0
M  V30 10290 H 984.41 4.98307 -0.221603 0
M  V30 10291 H 983.564 5.7226 2.01502 0
M  V30 10292 H 982.303 4.45798 1.97777 0
M  V30 10293 H 981.308 5.49743 -0.0793984 0
M  V30 10294 H 982.533 6.79096 -0.0233734 0
M  V30 10295 H 980.479 6.20058 2.14159 0
M  V30 10296 H 980.396 7.49467 0.991713 0
M  V30 10297 H 981.664 7.48371 2.18083 0
M  V30 10298 N 985.893 0.34162 1.53853 0
M  V30 10299 C 987.309 -0.0103769 1.59597 0
M  V30 10300 C 987.509 -1.48897 1.35764 0
M  V30 10301 O 986.565 -2.24743 1.15095 0
M  V30 10302 C 987.878 0.424067 2.97695 0
M  V30 10303 C 989.426 0.376247 3.1073 0
M  V30 10304 C 989.901 0.786129 4.51203 0
M  V30 10305 N 991.392 0.74024 4.57247 0
M  V30 10306 C 992.127 1.02937 5.64085 0
M  V30 10307 N 991.623 1.38655 6.78783 0
M  V30 10308 N 993.416 0.953734 5.5395 0
M  V30 10309 H 985.567 1.30477 1.67599 0
M  V30 10310 H 987.83 0.531753 0.78482 0
M  V30 10311 H 987.536 1.45493 3.20195 0
M  V30 10312 H 987.41 -0.201713 3.7666 0
M  V30 10313 H 989.797 -0.645441 2.87955 0
M  V30 10314 H 989.878 1.0372 2.33828 0
M  V30 10315 H 989.522 1.80582 4.74713 0
M  V30 10316 H 989.452 0.102671 5.265 0
M  V30 10317 H 991.943 0.476763 3.7488 0
M  V30 10318 H 992.256 1.59206 7.56223 0
M  V30 10319 H 990.601 1.42498 6.80235 0
M  V30 10320 H 993.792 0.674044 4.63222 0
M  V30 10321 H 993.965 1.18241 6.37121 0
M  V30 10322 N 987.371 -1.57444 0.0701946 0
M  V30 10323 C 988.301 -2.15659 -0.895176 0
M  V30 10324 C 989.282 -1.08321 -1.31151 0
M  V30 10325 O 990.467 -1.36349 -1.38284 0
M  V30 10326 C 987.597 -2.71693 -2.16334 0
M  V30 10327 C 986.551 -3.84183 -1.88645 0
M  V30 10328 C 985.877 -4.26814 -3.22078 0
M  V30 10329 C 987.177 -5.08493 -1.19299 0
M  V30 10330 H 988.871 -2.96576 -0.410217 0
M  V30 10331 H 986.417 -1.42662 -0.195872 0
M  V30 10332 H 988.37 -3.11064 -2.84284 0
M  V30 10333 H 987.094 -1.87994 -2.67069 0
M  V30 10334 H 985.753 -3.45314 -1.23101 0
M  V30 10335 H 985.401 -3.40039 -3.70651 0
M  V30 10336 H 985.101 -5.02642 -3.04344 0
M  V30 10337 H 986.625 -4.68799 -3.91228 0
M  V30 10338 H 988.039 -5.4519 -1.77316 0
M  V30 10339 H 986.436 -5.89588 -1.11828 0
M  V30 10340 H 987.506 -4.84595 -0.171839 0
M  V30 10341 N 988.849 0.203349 -1.56283 0
M  V30 10342 C 990.097 0.923183 -1.79782 0
M  V30 10343 C 990.418 1.84134 -0.64185 0
M  V30 10344 O 989.688 1.92922 0.340292 0
M  V30 10345 H 988.268 0.343881 -0.66314 0
M  V30 10346 H 990.93 0.210837 -1.93756 0
M  V30 10347 H 990.026 1.51921 -2.72629 0
M  V30 10348 N 990.327 1.50405 0.470755 0
M  V30 10349 C 991.743 1.37838 0.804534 0
M  V30 10350 C 991.943 0.434743 1.96754 0
M  V30 10351 O 990.999 -0.122507 2.52203 0
M  V30 10352 C 992.312 2.79212 1.11629 0
M  V30 10353 C 993.86 2.88129 1.22272 0
M  V30 10354 C 994.335 4.30337 1.5676 0
M  V30 10355 N 995.826 4.3329 1.63751 0
M  V30 10356 C 996.561 5.4032 1.91942 0
M  V30 10357 N 996.057 6.57558 2.18151 0
M  V30 10358 N 997.85 5.27764 1.93446 0
M  V30 10359 H 990.001 2.10332 -0.295689 0
M  V30 10360 H 992.264 0.945429 -0.0697733 0
M  V30 10361 H 991.97 3.50103 0.334778 0
M  V30 10362 H 991.844 3.16475 2.0524 0
M  V30 10363 H 994.231 2.17457 1.9949 0
M  V30 10364 H 994.312 2.54409 0.2664 0
M  V30 10365 H 993.956 5.01547 0.800817 0
M  V30 10366 H 993.886 4.61545 2.53543 0
M  V30 10367 H 996.377 3.48752 1.45535 0
M  V30 10368 H 996.69 7.34935 2.38936 0
M  V30 10369 H 995.035 6.60732 2.15542 0
M  V30 10370 H 998.226 4.35169 1.72468 0
M  V30 10371 H 998.399 6.11264 2.15081 0
M  V30 10372 N 991.805 -0.723954 1.39988 0
M  V30 10373 C 992.752 -1.83803 1.39589 0
M  V30 10374 C 993.722 -1.64146 0.253996 0
M  V30 10375 O 994.907 -1.85398 0.450793 0
M  V30 10376 C 992.047 -3.21431 1.25604 0
M  V30 10377 C 991.16 -3.52717 2.49429 0
M  V30 10378 C 990.295 -4.79805 2.27949 0
M  V30 10379 C 989.334 -5.03968 3.47394 0
M  V30 10380 N 988.471 -6.22266 3.25161 0
M  V30 10381 H 993.311 -1.83479 2.34818 0
M  V30 10382 H 990.848 -0.896396 1.16633 0
M  V30 10383 H 992.806 -4.00892 1.15504 0
M  V30 10384 H 991.436 -3.21005 0.339986 0
M  V30 10385 H 990.488 -2.67872 2.7009 0
M  V30 10386 H 991.8 -3.66486 3.38363 0
M  V30 10387 H 990.954 -5.67268 2.15155 0
M  V30 10388 H 989.693 -4.68229 1.36428 0
M  V30 10389 H 988.698 -4.14963 3.60674 0
M  V30 10390 H 989.923 -5.17422 4.39831 0
M  V30 10391 H 987.869 -6.11957 2.36314 0
M  V30 10392 H 987.786 -6.36673 4.07656 0
M  V30 10393 H 989.054 -7.12539 3.16083 0
M  V30 10394 N 993.283 -1.25346 -0.955304 0
M  V30 10395 C 994.23 -1.05672 -2.05188 0
M  V30 10396 C 995.2 0.0339217 -1.66065 0
M  V30 10397 O 996.385 -0.123126 -1.90402 0
M  V30 10398 C 993.525 -0.680791 -3.38318 0
M  V30 10399 C 992.638 -1.84622 -3.90562 0
M  V30 10400 C 991.773 -1.41471 -5.12015 0
M  V30 10401 C 990.812 -2.54931 -5.56486 0
M  V30 10402 N 989.949 -2.1256 -6.69151 0
M  V30 10403 H 994.789 -1.9952 -2.2135 0
M  V30 10404 H 992.326 -0.993588 -1.08472 0
M  V30 10405 H 994.284 -0.443794 -4.14833 0
M  V30 10406 H 992.914 0.2207 -3.22045 0
M  V30 10407 H 991.966 -2.19654 -3.10574 0
M  V30 10408 H 993.278 -2.6983 -4.19515 0
M  V30 10409 H 992.432 -1.13732 -5.95945 0
M  V30 10410 H 991.171 -0.533334 -4.84775 0
M  V30 10411 H 990.176 -2.83415 -4.71122 0
M  V30 10412 H 991.401 -3.43645 -5.85734 0
M  V30 10413 H 989.347 -1.26838 -6.43621 0
M  V30 10414 H 989.264 -2.91317 -6.97618 0
M  V30 10415 H 990.532 -1.87996 -7.5649 0
M  V30 10416 N 994.761 1.15782 -1.06922 0
M  V30 10417 C 995.708 2.2038 -0.685659 0
M  V30 10418 C 996.678 1.62972 0.320816 0
M  V30 10419 O 997.863 1.8966 0.208258 0
M  V30 10420 C 995.003 3.44995 -0.084998 0
M  V30 10421 C 994.116 4.16621 -1.14242 0
M  V30 10422 C 993.251 5.28773 -0.507226 0
M  V30 10423 C 992.29 5.92209 -1.54774 0
M  V30 10424 N 991.427 6.9584 -0.935443 0
M  V30 10425 H 996.267 2.5254 -1.58201 0
M  V30 10426 H 993.804 1.24031 -0.790864 0
M  V30 10427 H 995.762 4.16254 0.280845 0
M  V30 10428 H 994.392 3.13365 0.774725 0
M  V30 10429 H 993.444 3.43903 -1.62589 0
M  V30 10430 H 994.756 4.59884 -1.93154 0
M  V30 10431 H 993.91 6.06635 -0.0887719 0
M  V30 10432 H 992.649 4.8669 0.313704 0
M  V30 10433 H 991.654 5.13063 -1.97602 0
M  V30 10434 H 992.879 6.3637 -2.37088 0
M  V30 10435 H 990.825 6.5586 -0.135339 0
M  V30 10436 H 990.742 7.37508 -1.66186 0
M  V30 10437 H 992.01 7.77611 -0.542346 0
M  V30 10438 N 996.239 0.8527 1.3254 0
M  V30 10439 C 997.655 0.542298 1.50104 0
M  V30 10440 C 997.855 -0.927465 1.78886 0
M  V30 10441 O 996.911 -1.7106 1.85728 0
M  V30 10442 C 998.224 1.4276 2.64651 0
M  V30 10443 C 999.772 1.42782 2.78536 0
M  V30 10444 C 1000.25 2.29828 3.9616 0
M  V30 10445 N 1001.74 2.27613 4.03418 0
M  V30 10446 C 1002.47 2.91696 4.93661 0
M  V30 10447 N 1001.97 3.64883 5.88925 0
M  V30 10448 N 1003.76 2.81094 4.86768 0
M  V30 10449 H 995.913 1.80395 1.12123 0
M  V30 10450 H 998.176 0.770394 0.552446 0
M  V30 10451 H 997.882 2.47266 2.50105 0
M  V30 10452 H 997.756 1.11358 3.60388 0
M  V30 10453 H 1000.14 0.390417 2.92506 0
M  V30 10454 H 1000.22 1.78198 1.83519 0
M  V30 10455 H 999.868 3.33635 3.82949 0
M  V30 10456 H 999.798 1.91746 4.9045 0
M  V30 10457 H 1002.29 1.74402 3.3525 0
M  V30 10458 H 1002.6 4.10952 6.54476 0
M  V30 10459 H 1000.95 3.68991 5.88957 0
M  V30 10460 H 1004.14 2.23469 4.11314 0
M  V30 10461 H 1004.31 3.31318 5.56895 0
M  V30 10462 N 997.718 -1.45297 0.610449 0
M  V30 10463 C 999.134 -1.57225 0.274332 0
M  V30 10464 C 999.334 -1.60136 -1.22306 0
M  V30 10465 O 998.39 -1.5332 -2.00622 0
M  V30 10466 C 999.703 -2.85365 0.948028 0
M  V30 10467 C 1001.25 -2.99044 0.924216 0
M  V30 10468 C 1001.73 -4.29958 1.57798 0
M  V30 10469 N 1003.22 -4.36723 1.5436 0
M  V30 10470 C 1003.95 -5.36695 2.01857 0
M  V30 10471 N 1003.45 -6.43187 2.57453 0
M  V30 10472 N 1005.24 -5.28071 1.92608 0
M  V30 10473 H 997.392 -1.41651 1.58268 0
M  V30 10474 H 999.655 -0.67744 0.663158 0
M  V30 10475 H 999.361 -2.89125 2.00249 0
M  V30 10476 H 999.235 -3.74222 0.473062 0
M  V30 10477 H 1001.62 -2.94849 -0.121709 0
M  V30 10478 H 1001.7 -2.1159 1.43748 0
M  V30 10479 H 1001.35 -4.34912 2.62325 0
M  V30 10480 H 1001.28 -5.16234 1.03972 0
M  V30 10481 H 1003.77 -3.60374 1.13749 0
M  V30 10482 H 1004.08 -7.15722 2.91482 0
M  V30 10483 H 1002.43 -6.4393 2.61493 0
M  V30 10484 H 1005.62 -4.43783 1.48912 0
M  V30 10485 H 1005.79 -6.05832 2.29938 0
M  V30 10486 N 999.196 -0.349774 -1.5367 0
M  V30 10487 C 1000.14 0.504121 -2.25227 0
M  V30 10488 C 1001.11 1.09048 -1.2529 0
M  V30 10489 O 1002.3 1.12594 -1.54037 0
M  V30 10490 C 999.438 1.64601 -3.03316 0
M  V30 10491 C 998.551 1.08635 -4.18118 0
M  V30 10492 C 997.686 2.19605 -4.83681 0
M  V30 10493 C 996.725 1.61023 -5.90541 0
M  V30 10494 N 995.862 2.6576 -6.49858 0
M  V30 10495 H 1000.7 -0.112621 -2.97787 0
M  V30 10496 H 998.239 -0.0673503 -1.46946 0
M  V30 10497 H 1000.2 2.31836 -3.46854 0
M  V30 10498 H 998.827 2.23364 -2.33041 0
M  V30 10499 H 997.879 0.304748 -3.79177 0
M  V30 10500 H 999.191 0.617911 -4.94958 0
M  V30 10501 H 998.345 2.94693 -5.30322 0
M  V30 10502 H 997.084 2.69795 -4.06278 0
M  V30 10503 H 996.089 0.844428 -5.43277 0
M  V30 10504 H 997.314 1.11677 -6.69855 0
M  V30 10505 H 995.26 3.15193 -5.75317 0
M  V30 10506 H 995.177 2.23557 -7.2219 0
M  V30 10507 H 996.445 3.40598 -7.01151 0
M  V30 10508 N 1000.67 1.57404 -0.0785433 0
M  V30 10509 C 1002.09 1.57158 0.2781 0
M  V30 10510 C 1002.29 1.08847 1.69572 0
M  V30 10511 O 1001.35 0.757407 2.40873 0
M  V30 10512 C 1002.66 3.00589 0.0816067 0
M  V30 10513 C 1004.21 3.12637 0.150627 0
M  V30 10514 C 1004.68 4.57997 -0.0176685 0
M  V30 10515 N 1006.17 4.63185 0.0377145 0
M  V30 10516 C 1006.91 5.7336 -0.0679907 0
M  V30 10517 N 1006.4 6.92426 -0.227598 0
M  V30 10518 N 1008.2 5.62099 -0.0104424 0
M  V30 10519 H 1000.35 1.87121 -1.00496 0
M  V30 10520 H 1002.61 0.862937 -0.392484 0
M  V30 10521 H 1002.32 3.40072 -0.896869 0
M  V30 10522 H 1002.19 3.67931 0.831046 0
M  V30 10523 H 1004.58 2.73037 1.11959 0
M  V30 10524 H 1004.66 2.4792 -0.630028 0
M  V30 10525 H 1004.3 4.98288 -0.983431 0
M  V30 10526 H 1004.23 5.20754 0.782475 0
M  V30 10527 H 1006.72 3.77564 0.159208 0
M  V30 10528 H 1007.04 7.72217 -0.300217 0
M  V30 10529 H 1005.38 6.94502 -0.263049 0
M  V30 10530 H 1008.57 4.67964 0.112999 0
M  V30 10531 H 1008.75 6.47928 -0.0962747 0
M  V30 10532 N 1002.15 -0.195058 1.56388 0
M  V30 10533 C 1003.1 -1.24175 1.94549 0
M  V30 10534 C 1004.07 -1.45229 0.806089 0
M  V30 10535 O 1005.25 -1.58362 1.06425 0
M  V30 10536 C 1002.39 -2.58145 2.29031 0
M  V30 10537 C 1001.51 -2.44669 3.56035 0
M  V30 10538 C 1000.64 -3.71342 3.7984 0
M  V30 10539 C 999.681 -3.52699 5.0027 0
M  V30 10540 N 998.818 -4.71385 5.20328 0
M  V30 10541 H 1003.66 -0.909319 2.83788 0
M  V30 10542 H 1001.19 -0.437641 1.40439 0
M  V30 10543 H 1003.15 -3.36195 2.4704 0
M  V30 10544 H 1001.78 -2.8943 1.42933 0
M  V30 10545 H 1000.83 -1.57916 3.46073 0
M  V30 10546 H 1002.15 -2.26827 4.44242 0
M  V30 10547 H 1001.3 -4.57832 3.98088 0
M  V30 10548 H 1000.04 -3.92138 2.89964 0
M  V30 10549 H 999.045 -2.64594 4.81944 0
M  V30 10550 H 1000.27 -3.33349 5.91655 0
M  V30 10551 H 998.216 -4.92444 4.33399 0
M  V30 10552 H 998.133 -4.56368 6.02714 0
M  V30 10553 H 999.401 -5.59226 5.43035 0
M  V30 10554 N 1003.63 -1.50653 -0.462772 0
M  V30 10555 C 1004.58 -1.70122 -1.55971 0
M  V30 10556 C 1005.55 -0.542581 -1.56988 0
M  V30 10557 O 1006.73 -0.774114 -1.74391 0
M  V30 10558 C 1003.87 -1.80899 -2.93887 0
M  V30 10559 C 1002.98 -3.08318 -3.02595 0
M  V30 10560 C 1002.12 -3.09841 -4.31477 0
M  V30 10561 C 1001.16 -4.3168 -4.33957 0
M  V30 10562 N 1000.3 -4.30894 -5.54323 0
M  V30 10563 H 1005.14 -2.63768 -1.38674 0
M  V30 10564 H 1002.67 -1.30746 -0.674091 0
M  V30 10565 H 1004.63 -1.85128 -3.73876 0
M  V30 10566 H 1003.26 -0.906854 -3.098 0
M  V30 10567 H 1002.31 -3.13521 -2.15427 0
M  V30 10568 H 1003.62 -3.98282 -3.00288 0
M  V30 10569 H 1002.78 -3.12845 -5.1982 0
M  V30 10570 H 1001.52 -2.17722 -4.36404 0
M  V30 10571 H 1000.52 -4.28879 -3.4401 0
M  V30 10572 H 1001.75 -5.25035 -4.30715 0
M  V30 10573 H 999.694 -3.41633 -5.6002 0
M  V30 10574 H 999.611 -5.14636 -5.53792 0
M  V30 10575 H 1000.88 -4.38056 -6.44769 0
M  V30 10576 N 1005.11 0.71652 -1.4037 0
M  V30 10577 C 1006.02 1.86074 -1.42876 0
M  V30 10578 C 1007.03 1.71005 -0.321475 0
M  V30 10579 O 1008.21 1.93286 -0.565909 0
M  V30 10580 C 1005.28 3.21862 -1.28863 0
M  V30 10581 C 1004.34 3.49193 -2.49726 0
M  V30 10582 C 1003.57 4.78502 -2.36372 0
M  V30 10583 O 1003.79 5.53529 -1.37703 0
M  V30 10584 O 1002.73 5.06147 -3.25728 0
M  V30 10585 H 1006.55 1.86916 -2.39366 0
M  V30 10586 H 1004.14 0.866818 -1.21683 0
M  V30 10587 H 1006.02 4.02972 -1.23253 0
M  V30 10588 H 1004.69 3.2175 -0.354783 0
M  V30 10589 H 1003.6 2.68095 -2.60913 0
M  V30 10590 H 1004.93 3.54101 -3.41868 0
M  V30 10591 N 1006.59 1.25851 0.948643 0
M  V30 10592 C 1007.83 1.11119 1.69648 0
M  V30 10593 C 1008.17 -0.345995 1.91093 0
M  V30 10594 O 1007.44 -1.25467 1.48621 0
M  V30 10595 C 1007.72 1.87261 3.0758 0
M  V30 10596 C 1007.58 3.40842 2.93507 0
M  V30 10597 C 1008.9 1.6605 4.07573 0
M  V30 10598 H 1006.01 0.405052 0.615713 0
M  V30 10599 H 1008.66 1.54756 1.10229 0
M  V30 10600 H 1006.81 1.50172 3.58303 0
M  V30 10601 H 1008.48 3.87641 2.50064 0
M  V30 10602 H 1006.72 3.68248 2.29294 0
M  V30 10603 H 1007.39 3.89339 3.91305 0
M  V30 10604 H 1009.87 1.98348 3.65783 0
M  V30 10605 H 1008.74 2.21753 5.02113 0
M  V30 10606 H 1009.01 0.603256 4.37965 0
M  V30 10607 N 1008.06 -1.15214 1.07534 0
M  V30 10608 C 1009.3 -1.87708 0.809009 0
M  V30 10609 C 1009.67 -1.80552 -0.653066 0
M  V30 10610 O 1010.87 -2.48095 -1.03452 0
M  V30 10611 C 1009.14 -3.32703 1.30552 0
M  V30 10612 S 1010.7 -4.2291 1.17015 0
M  V30 10613 H 1007.52 -0.647767 0.293118 0
M  V30 10614 H 1010.12 -1.38992 1.37482 0
M  V30 10615 H 1008.82 -3.35456 2.36427 0
M  V30 10616 H 1008.35 -3.86473 0.734995 0
M  V30 10617 H 1010.37 -4.96081 0.108836 0
M  V30 10618 N 1009.54 -0.859717 -1.32086 0
M  V30 10619 C 1010.95 -0.519529 -1.79326 0
M  V30 10620 C 1011.3 0.96295 -1.70944 0
M  V30 10621 O 1010.43 1.75139 -1.27104 0
M  V30 10622 C 1011.02 -0.936267 -3.25606 0
M  V30 10623 C 1009.58 -0.647899 -3.70782 0
M  V30 10624 C 1008.73 -1.13323 -2.53087 0
M  V30 10625 H 1011.68 -1.04643 -1.19312 0
M  V30 10626 H 1011.7 -0.254714 -3.79646 0
M  V30 10627 H 1011.21 -2.01527 -3.31675 0
M  V30 10628 H 1009.32 0.420172 -3.70223 0
M  V30 10629 H 1009.43 -1.21774 -4.63366 0
M  V30 10630 H 1007.79 -0.553325 -2.48617 0
M  V30 10631 H 1008.58 -2.21945 -2.61907 0
M  V30 10632 N 1011.02 1.44971 -0.618145 0
M  V30 10633 C 1011.95 2.33357 0.0815955 0
M  V30 10634 C 1012.93 1.47451 0.848072 0
M  V30 10635 O 1014.12 1.762 0.816532 0
M  V30 10636 C 1011.25 3.30324 1.07253 0
M  V30 10637 C 1010.2 4.25948 0.418563 0
M  V30 10638 C 1009.53 5.12685 1.51849 0
M  V30 10639 C 1010.83 5.18024 -0.66697 0
M  V30 10640 H 1012.52 2.92115 -0.656442 0
M  V30 10641 H 1010.07 1.40465 -0.317129 0
M  V30 10642 H 1012.02 3.91033 1.57069 0
M  V30 10643 H 1010.74 2.69748 1.8413 0
M  V30 10644 H 1009.4 3.66553 -0.0588308 0
M  V30 10645 H 1009.05 4.4847 2.2778 0
M  V30 10646 H 1008.75 5.7747 1.08637 0
M  V30 10647 H 1010.27 5.76264 2.01871 0
M  V30 10648 H 1011.69 5.72744 -0.252448 0
M  V30 10649 H 1010.09 5.91343 -1.02146 0
M  V30 10650 H 1011.16 4.59817 -1.53936 0
M  V30 10651 N 1012.5 0.357919 1.53482 0
M  V30 10652 C 1013.46 -0.479797 2.24122 0
M  V30 10653 C 1014.46 -1.01596 1.24639 0
M  V30 10654 O 1015.65 -0.902928 1.48973 0
M  V30 10655 C 1012.78 -1.66983 2.97203 0
M  V30 10656 H 1013.98 0.138219 2.99581 0
M  V30 10657 H 1011.53 0.109484 1.55916 0
M  V30 10658 H 1012.26 -2.32615 2.25966 0
M  V30 10659 H 1012.05 -1.29242 3.70188 0
M  V30 10660 H 1013.54 -2.26367 3.50924 0
M  V30 10661 N 1013.98 -1.5736 0.0868897 0
M  V30 10662 C 1015.39 -1.81356 -0.443499 0
M  V30 10663 C 1015.74 -1.00192 -1.68689 0
M  V30 10664 O 1014.86 -0.228863 -2.15186 0
M  V30 10665 C 1015.46 -3.28941 -0.811387 0
M  V30 10666 C 1014.02 -3.53729 -1.28656 0
M  V30 10667 C 1013.16 -2.75891 -0.279153 0
M  V30 10668 H 1016.12 -1.55594 0.312427 0
M  V30 10669 H 1016.14 -3.41815 -1.6716 0
M  V30 10670 H 1015.65 -3.87987 0.0937598 0
M  V30 10671 H 1013.75 -3.00005 -2.2097 0
M  V30 10672 H 1013.86 -4.62396 -1.25406 0
M  V30 10673 H 1012.23 -2.4311 -0.759595 0
M  V30 10674 H 1013.01 -3.37682 0.618529 0
M  V30 10675 N 1015.45 0.186762 -1.56489 0
M  V30 10676 C 1016.87 0.750675 -1.70944 0
M  V30 10677 C 1017.22 1.83483 -0.694858 0
M  V30 10678 O 1016.34 2.159 0.147009 0
M  V30 10679 C 1016.94 1.36843 -3.09934 0
M  V30 10680 C 1015.5 1.87934 -3.26125 0
M  V30 10681 C 1014.64 0.75242 -2.66897 0
M  V30 10682 H 1017.59 -0.0384292 -1.58653 0
M  V30 10683 H 1017.61 2.23795 -3.07727 0
M  V30 10684 H 1017.13 0.579135 -3.83755 0
M  V30 10685 H 1015.23 2.69556 -2.57235 0
M  V30 10686 H 1015.34 2.0354 -4.33715 0
M  V30 10687 H 1013.7 1.16888 -2.26295 0
M  V30 10688 H 1014.49 -0.0247769 -3.43291 0
M  V30 10689 N 1016.93 1.50896 0.454776 0
M  V30 10690 C 1018.34 1.55372 1.0352 0
M  V30 10691 C 1018.69 0.366822 1.9274 0
M  V30 10692 O 1017.82 -0.518444 2.10098 0
M  V30 10693 C 1018.41 2.81574 1.88418 0
M  V30 10694 C 1016.97 2.88679 2.4154 0
M  V30 10695 C 1016.12 2.49847 1.20298 0
M  V30 10696 H 1019.07 1.56924 0.236729 0
M  V30 10697 H 1019.09 2.64352 2.73676 0
M  V30 10698 H 1018.6 3.67941 1.23455 0
M  V30 10699 H 1016.71 2.06702 3.10008 0
M  V30 10700 H 1016.82 3.91944 2.7553 0
M  V30 10701 H 1015.18 2.02651 1.54288 0
M  V30 10702 H 1015.97 3.3854 0.569723 0
M  V30 10703 N 1018.41 -0.709066 1.40748 0
M  V30 10704 C 1019.32 -1.85314 1.43861 0
M  V30 10705 C 1020.34 -1.70832 0.330539 0
M  V30 10706 O 1021.51 -1.92983 0.576152 0
M  V30 10707 C 1018.58 -3.21174 1.30568 0
M  V30 10708 C 1017.64 -3.47863 2.51574 0
M  V30 10709 C 1016.87 -4.77241 2.38906 0
M  V30 10710 O 1017.09 -5.52791 1.40636 0
M  V30 10711 O 1016.03 -5.04413 3.28407 0
M  V30 10712 H 1019.85 -1.85644 2.40354 0
M  V30 10713 H 1017.44 -0.860352 1.2214 0
M  V30 10714 H 1019.32 -4.02313 1.25388 0
M  V30 10715 H 1018 -3.21557 0.371841 0
M  V30 10716 H 1016.9 -2.66708 2.62331 0
M  V30 10717 H 1018.24 -3.52283 3.43741 0
M  V30 10718 N 1019.89 -1.26353 -0.941956 0
M  V30 10719 C 1020.82 -1.10341 -2.05784 0
M  V30 10720 C 1021.8 -0.00881565 -1.70098 0
M  V30 10721 O 1022.99 -0.180699 -1.93357 0
M  V30 10722 C 1020.12 -0.734788 -3.39438 0
M  V30 10723 C 1019.07 -1.78103 -3.89183 0
M  V30 10724 C 1018.4 -1.26675 -5.19478 0
M  V30 10725 C 1019.7 -3.1824 -4.14151 0
M  V30 10726 H 1021.39 -2.03684 -2.19438 0
M  V30 10727 H 1018.94 -0.980698 -1.05443 0
M  V30 10728 H 1020.89 -0.609653 -4.16967 0
M  V30 10729 H 1019.61 0.234354 -3.25758 0
M  V30 10730 H 1018.27 -1.89482 -3.13835 0
M  V30 10731 H 1017.92 -0.287472 -5.02178 0
M  V30 10732 H 1017.62 -1.96612 -5.53731 0
M  V30 10733 H 1019.14 -1.15427 -5.99591 0
M  V30 10734 H 1020.56 -3.09942 -4.82296 0
M  V30 10735 H 1018.95 -3.8576 -4.59684 0
M  V30 10736 H 1020.02 -3.64354 -3.19959 0
M  V30 10737 N 1021.37 1.14642 -1.08144 0
M  V30 10738 C 1022.32 2.17665 -0.678661 0
M  V30 10739 C 1023.3 1.58072 0.300336 0
M  V30 10740 O 1024.49 1.7664 0.112781 0
M  V30 10741 C 1021.62 3.43191 -0.0866362 0
M  V30 10742 C 1020.71 4.0982 -1.09126 0
M  V30 10743 N 1021.1 4.51814 -2.27372 0
M  V30 10744 C 1019.4 4.36272 -0.926411 0
M  V30 10745 C 1020.1 5.03581 -2.91172 0
M  V30 10746 N 1019.07 4.97624 -2.18795 0
M  V30 10747 H 1022.88 2.47872 -1.57914 0
M  V30 10748 H 1020.39 1.31296 -0.955772 0
M  V30 10749 H 1022.39 4.1632 0.219859 0
M  V30 10750 H 1021.05 3.14464 0.80886 0
M  V30 10751 H 1022.06 4.44941 -2.65044 0
M  V30 10752 H 1018.74 4.17414 -0.084492 0
M  V30 10753 H 1020.13 5.45969 -3.91621 0
M  V30 10754 N 1022.85 0.866709 1.31628 0
M  V30 10755 C 1024.26 0.529032 1.79048 0
M  V30 10756 C 1024.61 -0.953871 1.71452 0
M  V30 10757 O 1023.73 -1.74462 1.28031 0
M  V30 10758 C 1024.33 0.953522 3.25105 0
M  V30 10759 C 1022.89 0.667554 3.70433 0
M  V30 10760 C 1022.03 1.14664 2.52483 0
M  V30 10761 H 1024.98 1.05275 1.18756 0
M  V30 10762 H 1025.01 0.274844 3.79506 0
M  V30 10763 H 1024.52 2.03283 3.30602 0
M  V30 10764 H 1022.62 -0.400532 3.70441 0
M  V30 10765 H 1022.73 1.2423 4.62714 0
M  V30 10766 H 1021.1 0.566502 2.4832 0
M  V30 10767 H 1021.88 2.2333 2.60727 0
M  V30 10768 N 1024.32 -1.44642 0.625825 0
M  V30 10769 C 1025.73 -1.85502 0.211175 0
M  V30 10770 C 1026.09 -1.52356 -1.2362 0
M  V30 10771 O 1025.21 -0.959051 -1.93988 0
M  V30 10772 C 1025.81 -3.36702 0.37648 0
M  V30 10773 C 1024.36 -3.76396 0.0163795 0
M  V30 10774 C 1023.51 -2.68517 0.692368 0
M  V30 10775 H 1026.46 -1.35183 0.831333 0
M  V30 10776 H 1026.48 -3.78536 -0.386106 0
M  V30 10777 H 1026 -3.60795 1.42999 0
M  V30 10778 H 1024.1 -3.57919 -1.0356 0
M  V30 10779 H 1024.21 -4.77231 0.422742 0
M  V30 10780 H 1022.57 -2.54377 0.128191 0
M  V30 10781 H 1023.36 -2.95444 1.74837 0
M  V30 10782 N 1025.8 -0.366053 -1.5329 0
M  V30 10783 C 1026.76 0.467904 -2.24373 0
M  V30 10784 C 1027.76 1.00934 -1.25176 0
M  V30 10785 O 1028.95 0.895015 -1.49449 0
M  V30 10786 C 1026.09 1.65405 -2.98084 0
M  V30 10787 H 1027.28 -0.154105 -2.99504 0
M  V30 10788 H 1024.83 -0.117751 -1.55856 0
M  V30 10789 H 1025.57 2.31413 -2.27197 0
M  V30 10790 H 1025.35 1.27277 -3.70868 0
M  V30 10791 H 1026.84 2.24503 -3.52119 0
M  V30 10792 N 1027.28 1.57312 -0.0952337 0
M  V30 10793 C 1028.69 1.81589 0.433875 0
M  V30 10794 C 1029.04 1.01086 1.68155 0
M  V30 10795 O 1028.17 0.240272 2.15062 0
M  V30 10796 C 1028.76 3.29366 0.793931 0
M  V30 10797 C 1027.32 3.54407 1.26778 0
M  V30 10798 C 1026.47 2.76035 0.264518 0
M  V30 10799 H 1029.42 1.55426 -0.320675 0
M  V30 10800 H 1029.44 3.42697 1.65345 0
M  V30 10801 H 1028.95 3.87932 -0.114334 0
M  V30 10802 H 1027.05 3.01173 2.19376 0
M  V30 10803 H 1027.17 4.63055 1.22952 0
M  V30 10804 H 1025.53 2.43509 0.746691 0
M  V30 10805 H 1026.31 3.37349 -0.636429 0
M  V30 10806 N 1028.76 -0.17846 1.56586 0
M  V30 10807 C 1029.72 -1.20479 1.94981 0
M  V30 10808 C 1030.72 -1.37561 0.832677 0
M  V30 10809 O 1031.91 -1.35089 1.09984 0
M  V30 10810 C 1029.04 -2.57117 2.23839 0
M  V30 10811 H 1030.24 -0.876173 2.86816 0
M  V30 10812 H 1027.79 -0.420635 1.50534 0
M  V30 10813 H 1028.52 -2.95005 1.34695 0
M  V30 10814 H 1028.31 -2.46086 3.05261 0
M  V30 10815 H 1029.8 -3.31096 2.5449 0
M  V30 10816 N 1030.24 -1.51135 -0.446768 0
M  V30 10817 C 1031.65 -1.55919 -1.02694 0
M  V30 10818 C 1032 -0.377038 -1.92543 0
M  V30 10819 O 1031.12 0.507295 -2.1037 0
M  V30 10820 C 1031.72 -2.8257 -1.86922 0
M  V30 10821 C 1030.28 -2.89956 -2.40005 0
M  V30 10822 C 1029.42 -2.50482 -1.18971 0
M  V30 10823 H 1032.37 -1.57048 -0.228403 0
M  V30 10824 H 1032.4 -2.65799 -2.7227 0
M  V30 10825 H 1031.91 -3.6859 -1.21502 0
M  V30 10826 H 1030.01 -2.08343 -3.08907 0
M  V30 10827 H 1030.12 -3.93399 -2.73448 0
M  V30 10828 H 1028.49 -2.03466 -1.53211 0
M  V30 10829 H 1029.27 -3.38837 -0.551762 0
M  V30 10830 N 1031.71 0.701592 -1.41122 0
M  V30 10831 C 1032.94 1.49553 -1.43696 0
M  V30 10832 C 1033.36 1.88053 -0.0421865 0
M  V30 10833 O 1032.72 1.54223 0.953144 0
M  V30 10834 C 1032.77 2.73834 -2.34622 0
M  V30 10835 O 1031.87 3.71088 -1.7991 0
M  V30 10836 H 1031.21 0.450352 -0.487933 0
M  V30 10837 H 1033.74 0.862886 -1.85514 0
M  V30 10838 H 1033.75 3.22209 -2.5029 0
M  V30 10839 H 1032.43 2.45149 -3.35969 0
M  V30 10840 H 1031.01 3.29994 -1.73661 0
M  V30 10841 N 1033.19 1.2685 0.935242 0
M  V30 10842 C 1034.42 1.15538 1.71635 0
M  V30 10843 C 1034.83 -0.288698 1.8658 0
M  V30 10844 O 1034.19 -1.19721 1.37743 0
M  V30 10845 C 1034.24 1.8259 3.11999 0
M  V30 10846 O 1033.96 3.21355 2.97763 0
M  V30 10847 C 1035.46 1.77307 4.06297 0
M  V30 10848 H 1032.68 0.402055 0.537208 0
M  V30 10849 H 1035.23 1.67582 1.17203 0
M  V30 10850 H 1033.38 1.3447 3.63313 0
M  V30 10851 H 1033.8 3.54626 3.86446 0
M  V30 10852 H 1035.27 2.28851 5.02326 0
M  V30 10853 H 1035.75 0.740823 4.32907 0
M  V30 10854 H 1036.35 2.25007 3.60904 0
M  V30 10855 N 1034.67 -1.14067 1.0875 0
M  V30 10856 C 1035.92 -1.84535 0.814235 0
M  V30 10857 C 1036.23 -1.84044 -0.662355 0
M  V30 10858 O 1037.44 -2.50336 -1.05091 0
M  V30 10859 C 1035.89 -3.31273 1.40663 0
M  V30 10860 C 1035.5 -3.40171 2.91526 0
M  V30 10861 C 1037.25 -4.0683 1.21201 0
M  V30 10862 C 1035.15 -4.81141 3.43885 0
M  V30 10863 H 1034.08 -0.691346 0.300926 0
M  V30 10864 H 1036.73 -1.28562 1.30935 0
M  V30 10865 H 1035.12 -3.87005 0.839215 0
M  V30 10866 H 1036.29 -2.94471 3.54434 0
M  V30 10867 H 1034.61 -2.78073 3.09942 0
M  V30 10868 H 1037.2 -5.10891 1.57781 0
M  V30 10869 H 1037.55 -4.16022 0.152092 0
M  V30 10870 H 1038.08 -3.57408 1.74655 0
M  V30 10871 H 1034.82 -4.77138 4.49466 0
M  V30 10872 H 1034.34 -5.27365 2.85738 0
M  V30 10873 H 1036.02 -5.50042 3.40681 0
M  V30 10874 N 1036.15 -0.873678 -1.31166 0
M  V30 10875 C 1037.56 -0.53852 -1.78765 0
M  V30 10876 C 1037.91 0.944765 -1.71955 0
M  V30 10877 O 1037.04 1.73781 -1.28954 0
M  V30 10878 C 1037.63 -0.970749 -3.24595 0
M  V30 10879 C 1036.19 -0.687189 -3.70074 0
M  V30 10880 C 1035.34 -1.16001 -2.51871 0
M  V30 10881 H 1038.29 -1.05903 -1.18196 0
M  V30 10882 H 1038.31 -0.294966 -3.79355 0
M  V30 10883 H 1037.82 -2.05034 -3.29519 0
M  V30 10884 H 1035.92 0.380881 -3.70648 0
M  V30 10885 H 1036.03 -1.26682 -4.62048 0
M  V30 10886 H 1034.4 -0.579663 -2.48016 0
M  V30 10887 H 1035.18 -2.2471 -2.59539 0
M  V30 10888 N 1037.63 1.44308 -0.633487 0
M  V30 10889 C 1039.04 1.56768 -0.29931 0
M  V30 10890 C 1039.24 1.62061 1.19743 0
M  V30 10891 O 1038.3 1.56492 1.98158 0
M  V30 10892 C 1039.61 2.8382 -0.993307 0
M  V30 10893 C 1041.16 2.97536 -0.971674 0
M  V30 10894 C 1041.63 4.27393 -1.64618 0
M  V30 10895 N 1043.13 4.34212 -1.61288 0
M  V30 10896 C 1043.86 5.33415 -2.1037 0
M  V30 10897 N 1043.36 6.3901 -2.67653 0
M  V30 10898 N 1045.15 5.24939 -2.00985 0
M  V30 10899 H 1037.3 1.39115 -1.60501 0
M  V30 10900 H 1039.56 0.666804 -0.673852 0
M  V30 10901 H 1039.27 2.85902 -2.04823 0
M  V30 10902 H 1039.14 3.73422 -0.532537 0
M  V30 10903 H 1041.53 2.95005 0.0747854 0
M  V30 10904 H 1041.61 2.09276 -1.47096 0
M  V30 10905 H 1041.26 4.30683 -2.6921 0
M  V30 10906 H 1041.19 5.14515 -1.12171 0
M  V30 10907 H 1043.68 3.58519 -1.19468 0
M  V30 10908 H 1043.99 7.10994 -3.02831 0
M  V30 10909 H 1042.33 6.39689 -2.71705 0
M  V30 10910 H 1045.53 4.41357 -1.55953 0
M  V30 10911 H 1045.7 6.02097 -2.39547 0
M  V30 10912 N 1039.1 0.374177 1.53094 0
M  V30 10913 C 1040.03 -0.459976 2.28925 0
M  V30 10914 C 1041.02 -1.07656 1.31698 0
M  V30 10915 O 1042.2 -1.09219 1.60577 0
M  V30 10916 C 1039.33 -1.5954 3.08487 0
M  V30 10917 C 1038.28 -1.10563 4.13473 0
M  V30 10918 C 1037.61 -2.33196 4.81169 0
M  V30 10919 C 1038.91 -0.184275 5.21975 0
M  V30 10920 H 1040.6 0.172692 2.98902 0
M  V30 10921 H 1038.15 0.0844956 1.43752 0
M  V30 10922 H 1040.1 -2.18565 3.60288 0
M  V30 10923 H 1038.83 -2.25543 2.36216 0
M  V30 10924 H 1037.49 -0.53801 3.62631 0
M  V30 10925 H 1037.13 -2.97675 4.05461 0
M  V30 10926 H 1036.83 -2.01094 5.52119 0
M  V30 10927 H 1038.36 -2.92892 5.35767 0
M  V30 10928 H 1039.77 -0.682262 5.69226 0
M  V30 10929 H 1038.17 0.0462746 6.00082 0
M  V30 10930 H 1039.24 0.771152 4.78729 0
M  V30 10931 N 1040.58 -1.57259 0.103575 0
M  V30 10932 C 1041.99 -1.81816 -0.424239 0
M  V30 10933 C 1042.34 -1.01976 -1.67617 0
M  V30 10934 O 1041.47 -0.251673 -2.14932 0
M  V30 10935 C 1042.06 -3.29783 -0.776453 0
M  V30 10936 C 1040.62 -3.55074 -1.24897 0
M  V30 10937 C 1039.77 -2.76172 -0.249875 0
M  V30 10938 H 1042.72 -1.55254 0.328913 0
M  V30 10939 H 1042.74 -3.43569 -1.63526 0
M  V30 10940 H 1042.25 -3.87865 0.134906 0
M  V30 10941 H 1040.36 -3.02332 -2.17775 0
M  V30 10942 H 1040.47 -4.637 -1.20495 0
M  V30 10943 H 1038.83 -2.43902 -0.733767 0
M  V30 10944 H 1039.62 -3.37007 0.65431 0
M  V30 10945 N 1042.06 0.170153 -1.56679 0
M  V30 10946 C 1042.99 1.23525 -1.93066 0
M  V30 10947 C 1044.01 1.40414 -0.823879 0
M  V30 10948 O 1045.19 1.40396 -1.10232 0
M  V30 10949 C 1042.29 2.60376 -2.16928 0
M  V30 10950 C 1041.47 2.6477 -3.4816 0
M  V30 10951 C 1040.53 3.82993 -3.60837 0
M  V30 10952 O 1039.55 3.68937 -4.33444 0
M  V30 10953 N 1040.75 4.99498 -2.95773 0
M  V30 10954 H 1043.52 0.926172 -2.8503 0
M  V30 10955 H 1041.08 0.359909 -1.57849 0
M  V30 10956 H 1043.07 3.37934 -2.22672 0
M  V30 10957 H 1041.64 2.83669 -1.31342 0
M  V30 10958 H 1040.86 1.73298 -3.54064 0
M  V30 10959 H 1042.15 2.64717 -4.34514 0
M  V30 10960 H 1041.55 5.13819 -2.36657 0
M  V30 10961 H 1040.11 5.74914 -3.07111 0
M  V30 10962 N 1043.54 1.5137 0.438746 0
M  V30 10963 C 1044.47 1.75528 1.53987 0
M  V30 10964 C 1045.45 0.605067 1.58975 0
M  V30 10965 O 1046.63 0.847634 1.74725 0
M  V30 10966 C 1043.76 1.87904 2.92078 0
M  V30 10967 C 1042.72 3.0333 3.01951 0
M  V30 10968 C 1042.04 3.00888 4.42007 0
M  V30 10969 C 1043.34 4.43319 2.76163 0
M  V30 10970 H 1045.04 2.67728 1.34022 0
M  V30 10971 H 1042.58 1.28831 0.643308 0
M  V30 10972 H 1044.54 2.03388 3.69068 0
M  V30 10973 H 1043.26 0.923514 3.13271 0
M  V30 10974 H 1041.92 2.87549 2.274 0
M  V30 10975 H 1041.57 2.03116 4.60166 0
M  V30 10976 H 1041.27 3.78397 4.49544 0
M  V30 10977 H 1042.79 3.18464 5.20973 0
M  V30 10978 H 1044.21 4.59458 3.42887 0
M  V30 10979 H 1042.6 5.22523 2.9511 0
M  V30 10980 H 1043.67 4.53453 1.71779 0
M  V30 10981 N 1045.02 -0.694098 1.41492 0
M  V30 10982 C 1046.43 -1.27407 1.36471 0
M  V30 10983 C 1046.78 -1.9614 0.0485209 0
M  V30 10984 O 1045.9 -1.98871 -0.853188 0
M  V30 10985 C 1046.5 -2.31698 2.47188 0
M  V30 10986 C 1045.06 -2.85268 2.45559 0
M  V30 10987 C 1044.2 -1.59325 2.2696 0
M  V30 10988 H 1047.16 -0.488756 1.50986 0
M  V30 10989 H 1047.18 -3.1302 2.1633 0
M  V30 10990 H 1046.69 -1.81644 3.42968 0
M  V30 10991 H 1044.79 -3.39494 1.5354 0
M  V30 10992 H 1044.9 -3.35598 3.41922 0
M  V30 10993 H 1043.27 -1.85188 1.74864 0
M  V30 10994 H 1044.05 -1.11265 3.24769 0
M  V30 10995 N 1046.49 -1.27344 -0.928501 0
M  V30 10996 C 1047.91 -1.04732 -1.2043 0
M  V30 10997 C 1048.11 0.219623 -2.003 0
M  V30 10998 O 1047.17 0.925333 -2.34934 0
M  V30 10999 C 1048.48 -2.28625 -1.95323 0
M  V30 11000 C 1050.03 -2.33655 -2.08265 0
M  V30 11001 C 1050.5 -3.57275 -2.86563 0
M  V30 11002 N 1051.99 -3.57828 -2.94132 0
M  V30 11003 C 1052.73 -4.50152 -3.55177 0
M  V30 11004 N 1052.22 -5.52779 -4.17621 0
M  V30 11005 N 1054.02 -4.37777 -3.52573 0
M  V30 11006 H 1046.17 -2.08697 -0.394892 0
M  V30 11007 H 1048.43 -0.91782 -0.2373 0
M  V30 11008 H 1048.14 -3.20845 -1.44054 0
M  V30 11009 H 1048.01 -2.33878 -2.95941 0
M  V30 11010 H 1050.4 -1.41942 -2.58721 0
M  V30 11011 H 1050.48 -2.32406 -1.0687 0
M  V30 11012 H 1050.12 -4.49325 -2.3679 0
M  V30 11013 H 1050.05 -3.55775 -3.88242 0
M  V30 11014 H 1052.54 -2.83607 -2.49751 0
M  V30 11015 H 1052.86 -6.19394 -4.62137 0
M  V30 11016 H 1051.2 -5.56622 -4.16169 0
M  V30 11017 H 1054.39 -3.56811 -3.02991 0
M  V30 11018 H 1054.57 -5.09919 -3.99858 0
M  V30 11019 N 1047.97 1.13488 -1.09353 0
M  V30 11020 C 1048.9 2.18563 -0.69012 0
M  V30 11021 C 1049.92 1.60585 0.267651 0
M  V30 11022 O 1051.11 1.78419 0.0538176 0
M  V30 11023 C 1048.21 3.389 0.00391255 0
M  V30 11024 C 1047.38 4.2639 -0.975209 0
M  V30 11025 C 1046.44 5.25258 -0.314719 0
M  V30 11026 O 1045.46 5.6101 -0.962119 0
M  V30 11027 N 1046.67 5.72978 0.931458 0
M  V30 11028 H 1049.43 2.53788 -1.59411 0
M  V30 11029 H 1046.99 1.28803 -0.980886 0
M  V30 11030 H 1048.98 4.02112 0.45696 0
M  V30 11031 H 1047.55 3.0192 0.81014 0
M  V30 11032 H 1046.77 3.59964 -1.60684 0
M  V30 11033 H 1048.06 4.817 -1.63836 0
M  V30 11034 H 1047.46 5.46078 1.477 0
M  V30 11035 H 1046.02 6.38131 1.32784 0
M  V30 11036 N 1049.45 0.880621 1.30701 0
M  V30 11037 C 1050.4 0.342397 2.28246 0
M  V30 11038 C 1051.37 -0.565023 1.56194 0
M  V30 11039 O 1052.55 -0.494377 1.84284 0
M  V30 11040 C 1049.69 -0.440859 3.42272 0
M  V30 11041 C 1048.81 0.495284 4.29151 0
M  V30 11042 C 1047.94 -0.303141 5.30334 0
M  V30 11043 C 1046.98 0.628751 6.08862 0
M  V30 11044 N 1046.12 -0.13408 7.01972 0
M  V30 11045 H 1050.96 1.17938 2.73669 0
M  V30 11046 H 1048.49 0.59296 1.34619 0
M  V30 11047 H 1050.45 -0.910854 4.07135 0
M  V30 11048 H 1049.08 -1.24245 2.97931 0
M  V30 11049 H 1048.13 1.08376 3.64635 0
M  V30 11050 H 1049.45 1.2094 4.83916 0
M  V30 11051 H 1048.6 -0.835181 6.00924 0
M  V30 11052 H 1047.34 -1.05049 4.76252 0
M  V30 11053 H 1046.34 1.17246 5.37153 0
M  V30 11054 H 1047.57 1.37512 6.65032 0
M  V30 11055 H 1045.52 -0.864046 6.50285 0
M  V30 11056 H 1045.43 0.520486 7.54206 0
M  V30 11057 H 1046.7 -0.647005 7.7681 0
M  V30 11058 N 1050.93 -1.4397 0.641131 0
M  V30 11059 C 1052.17 -2.03826 0.153071 0
M  V30 11060 C 1052.53 -1.4941 -1.20585 0
M  V30 11061 O 1053.73 -2.00832 -1.78661 0
M  V30 11062 C 1052.01 -3.57085 0.149914 0
M  V30 11063 S 1053.56 -4.37956 -0.272065 0
M  V30 11064 H 1050.38 -0.70793 0.0659981 0
M  V30 11065 H 1052.98 -1.76211 0.846761 0
M  V30 11066 H 1051.69 -3.94194 1.14188 0
M  V30 11067 H 1051.22 -3.89326 -0.564703 0
M  V30 11068 H 1053.23 -4.72542 -1.5139 0
M  V30 11069 N 1052.41 -0.382291 -1.52893 0
M  V30 11070 C 1053.34 0.447829 -2.29165 0
M  V30 11071 C 1054.32 1.06956 -1.32267 0
M  V30 11072 O 1055.5 1.08365 -1.61154 0
M  V30 11073 C 1052.63 1.57902 -3.09329 0
M  V30 11074 C 1051.59 1.08369 -4.14053 0
M  V30 11075 C 1050.91 2.30641 -4.82399 0
M  V30 11076 C 1052.21 0.156591 -5.22065 0
M  V30 11077 H 1053.91 -0.188541 -2.98806 0
M  V30 11078 H 1051.45 -0.0921179 -1.43705 0
M  V30 11079 H 1053.41 2.16652 -3.61442 0
M  V30 11080 H 1052.13 2.24287 -2.37409 0
M  V30 11081 H 1050.79 0.518772 -3.62911 0
M  V30 11082 H 1050.44 2.9552 -4.07034 0
M  V30 11083 H 1050.14 1.98163 -5.53177 0
M  V30 11084 H 1051.66 2.90047 -5.37313 0
M  V30 11085 H 1053.08 0.652065 -5.6958 0
M  V30 11086 H 1051.47 -0.0780978 -6.00049 0
M  V30 11087 H 1052.54 -0.796529 -4.78313 0
M  V30 11088 N 1053.89 1.57202 -0.111913 0
M  V30 11089 C 1055.13 1.95239 0.548607 0
M  V30 11090 C 1055.46 0.994897 1.6678 0
M  V30 11091 O 1054.74 0.0308603 1.94476 0
M  V30 11092 C 1055.02 3.43271 1.08798 0
M  V30 11093 C 1054.88 4.49792 -0.0273064 0
M  V30 11094 C 1056.19 3.92989 1.98109 0
M  V30 11095 H 1053.31 0.709919 0.197951 0
M  V30 11096 H 1055.96 1.89087 -0.186036 0
M  V30 11097 H 1054.11 3.48644 1.71404 0
M  V30 11098 H 1055.78 4.56521 -0.662302 0
M  V30 11099 H 1054.02 4.28254 -0.691426 0
M  V30 11100 H 1054.69 5.50612 0.391201 0
M  V30 11101 H 1057.17 3.89875 1.45385 0
M  V30 11102 H 1056.04 4.97101 2.32769 0
M  V30 11103 H 1056.3 3.33267 2.90492 0
M  V30 11104 N 1055.36 -0.161842 1.56767 0
M  V30 11105 C 1056.33 -1.18404 1.96247 0
M  V30 11106 C 1057.33 -1.3667 0.84722 0
M  V30 11107 O 1058.52 -1.33915 1.11411 0
M  V30 11108 C 1055.65 -2.54728 2.26553 0
M  V30 11109 H 1056.84 -0.845703 2.87729 0
M  V30 11110 H 1054.39 -0.404645 1.50971 0
M  V30 11111 H 1055.13 -2.93559 1.37816 0
M  V30 11112 H 1054.91 -2.42834 3.07854 0
M  V30 11113 H 1056.4 -3.28378 2.57987 0
M  V30 11114 N 1056.84 -1.516 -0.430713 0
M  V30 11115 C 1057.8 -1.72794 -1.50582 0
M  V30 11116 C 1058.8 -0.597903 -1.49271 0
M  V30 11117 O 1059.99 -0.865535 -1.51176 0
M  V30 11118 C 1057.13 -1.79049 -2.90093 0
M  V30 11119 H 1058.32 -2.68751 -1.33091 0
M  V30 11120 H 1055.87 -1.4169 -0.659822 0
M  V30 11121 H 1056.61 -0.849309 -3.12981 0
M  V30 11122 H 1056.39 -2.61181 -2.92449 0
M  V30 11123 H 1057.88 -1.97262 -3.68072 0
M  V30 11124 N 1058.32 0.686584 -1.41858 0
M  V30 11125 C 1059.57 1.44379 -1.41418 0
M  V30 11126 C 1059.89 1.94981 -0.0273696 0
M  V30 11127 O 1059.16 1.72296 0.932248 0
M  V30 11128 H 1057.74 0.53574 -0.520568 0
M  V30 11129 H 1060.4 0.812056 -1.77177 0
M  V30 11130 H 1059.5 2.30258 -2.10684 0
M  V30 11131 N 1059.8 1.27835 0.921735 0
M  V30 11132 C 1060.76 1.11108 2.00469 0
M  V30 11133 C 1061.76 0.053203 1.60712 0
M  V30 11134 O 1062.95 0.298308 1.71627 0
M  V30 11135 C 1060.08 0.694269 3.33755 0
M  V30 11136 H 1061.28 2.07279 2.16738 0
M  V30 11137 H 1058.83 1.10708 1.10333 0
M  V30 11138 H 1059.56 -0.268561 3.23186 0
M  V30 11139 H 1059.35 1.45836 3.6397 0
M  V30 11140 H 1060.84 0.59965 4.13272 0
M  V30 11141 N 1061.28 -1.12907 1.09954 0
M  V30 11142 C 1062.52 -1.84786 0.850039 0
M  V30 11143 C 1062.88 -1.82214 -0.617724 0
M  V30 11144 O 1062.17 -1.25319 -1.44934 0
M  V30 11145 C 1062.36 -3.31885 1.32616 0
M  V30 11146 C 1062.19 -3.48782 2.83868 0
M  V30 11147 C 1060.96 -3.62708 3.51811 0
M  V30 11148 C 1063.16 -3.44367 3.8199 0
M  V30 11149 N 1061.14 -3.67921 4.91434 0
M  V30 11150 C 1062.51 -3.56015 5.07596 0
M  V30 11151 C 1064.57 -3.27801 3.74768 0
M  V30 11152 C 1063.27 -3.52807 6.26833 0
M  V30 11153 C 1065.3 -3.25904 4.93499 0
M  V30 11154 C 1064.66 -3.38108 6.1795 0
M  V30 11155 H 1060.76 -0.692126 0.363986 0
M  V30 11156 H 1063.34 -1.35208 1.40096 0
M  V30 11157 H 1061.51 -3.80016 0.802625 0
M  V30 11158 H 1063.25 -3.91598 1.02142 0
M  V30 11159 H 1060 -3.64613 3.02248 0
M  V30 11160 H 1060.42 -3.74204 5.64181 0
M  V30 11161 H 1065.07 -3.17264 2.7947 0
M  V30 11162 H 1062.78 -3.62116 7.22425 0
M  V30 11163 H 1066.37 -3.14275 4.89615 0
M  V30 11164 H 1065.25 -3.36607 7.08283 0
M  V30 11165 N 1062.75 -0.88754 -1.30232 0
M  V30 11166 C 1064 -0.506277 -1.95656 0
M  V30 11167 C 1064.32 0.948191 -1.70395 0
M  V30 11168 O 1063.59 1.66701 -1.02895 0
M  V30 11169 H 1062.17 -0.184235 -0.723924 0
M  V30 11170 H 1064.83 -1.13118 -1.58715 0
M  V30 11171 H 1063.93 -0.678673 -3.04632 0
M  V30 11172 N 1064.23 1.43628 -0.648757 0
M  V30 11173 C 1065.2 2.29172 0.0360713 0
M  V30 11174 C 1066.2 1.41974 0.754976 0
M  V30 11175 O 1067.39 1.63654 0.5969 0
M  V30 11176 C 1064.52 3.23942 1.0618 0
M  V30 11177 H 1065.71 2.91214 -0.716544 0
M  V30 11178 H 1063.26 1.50833 -0.409759 0
M  V30 11179 H 1064 2.66786 1.8438 0
M  V30 11180 H 1063.78 3.88223 0.550016 0
M  V30 11181 H 1065.27 3.8816 1.54019 0
M  V30 11182 N 1065.71 0.390394 1.52688 0
M  V30 11183 C 1066.96 -0.191067 2.01195 0
M  V30 11184 C 1067.28 -1.47229 1.27862 0
M  V30 11185 O 1066.55 -1.91793 0.399007 0
M  V30 11186 H 1065.13 -0.073596 0.743366 0
M  V30 11187 H 1067.79 0.522334 1.8777 0
M  V30 11188 H 1066.89 -0.40051 3.0952 0
M  V30 11189 N 1067.19 -1.57141 0.120249 0
M  V30 11190 C 1068.47 -1.8677 -0.581075 0
M  V30 11191 C 1068.85 -1.02163 -1.84732 0
M  V30 11192 O 1068.19 -0.100897 -2.28277 0
M  V30 11193 C 1068.4 -3.37923 -0.872316 0
M  V30 11194 C 1069.75 -4.0655 -1.22483 0
M  V30 11195 O 1070.78 -3.42948 -0.962539 0
M  V30 11196 O 1069.63 -5.18821 -1.71717 0
M  V30 11197 H 1066.73 -0.773219 -0.293362 0
M  V30 11198 H 1069.27 -1.68992 0.154846 0
M  V30 11199 H 1068.05 -3.91292 0.0249416 0
M  V30 11200 H 1067.67 -3.61135 -1.66335 0
M  V30 11201 N 1068.67 0.153526 -1.5685 0
M  V30 11202 C 1069.89 0.886343 -1.87507 0
M  V30 11203 C 1070.32 1.74244 -0.708565 0
M  V30 11204 O 1069.67 1.78045 0.341997 0
M  V30 11205 C 1069.72 1.72428 -3.16703 0
M  V30 11206 O 1068.83 2.82784 -3.00178 0
M  V30 11207 H 1068.17 0.247259 -0.616246 0
M  V30 11208 H 1070.7 0.146306 -2.04076 0
M  V30 11209 H 1070.71 2.12062 -3.4856 0
M  V30 11210 H 1069.38 1.09558 -4.01211 0
M  V30 11211 H 1067.96 2.46604 -2.79716 0
M  V30 11212 N 1070.14 1.51827 0.422667 0
M  V30 11213 C 1071.38 1.66888 1.18016 0
M  V30 11214 C 1071.75 0.383859 1.88124 0
M  V30 11215 O 1072.95 0.410413 2.65648 0
M  V30 11216 C 1071.22 2.84842 2.1587 0
M  V30 11217 S 1072.78 3.20312 2.99909 0
M  V30 11218 H 1069.6 0.58781 0.4 0
M  V30 11219 H 1072.2 1.89779 0.46948 0
M  V30 11220 H 1070.9 3.76629 1.63029 0
M  V30 11221 H 1070.43 2.64183 2.91497 0
M  V30 11222 H 1072.45 2.67884 4.17675 0
M  V30 11223 N 1071.62 -0.679052 1.4222 0
M  V30 11224 C 1073.04 -0.991665 1.25053 0
M  V30 11225 C 1073.24 -2.00928 0.151665 0
M  V30 11226 O 1072.29 -2.47925 -0.478507 0
M  V30 11227 C 1073.61 -1.50053 2.60585 0
M  V30 11228 C 1075.16 -1.61852 2.67905 0
M  V30 11229 C 1075.63 -2.16135 4.03794 0
M  V30 11230 N 1077.12 -2.23474 4.05726 0
M  V30 11231 C 1077.86 -2.66541 5.07685 0
M  V30 11232 N 1077.35 -3.09092 6.20028 0
M  V30 11233 N 1079.15 -2.66252 4.95042 0
M  V30 11234 H 1071.3 -0.00521851 2.12399 0
M  V30 11235 H 1073.56 -0.0648465 0.94578 0
M  V30 11236 H 1073.27 -0.82731 3.41831 0
M  V30 11237 H 1073.14 -2.47998 2.84213 0
M  V30 11238 H 1075.53 -2.28281 1.87008 0
M  V30 11239 H 1075.61 -0.624074 2.4807 0
M  V30 11240 H 1075.25 -1.50316 4.85147 0
M  V30 11241 H 1075.18 -3.16363 4.20978 0
M  V30 11242 H 1077.67 -1.93467 3.24621 0
M  V30 11243 H 1077.99 -3.40627 6.93681 0
M  V30 11244 H 1076.33 -3.06959 6.23539 0
M  V30 11245 H 1079.52 -2.32369 4.06352 0
M  V30 11246 H 1079.69 -2.99496 5.74636 0
M  V30 11247 N 1073.1 -1.28322 -0.914942 0
M  V30 11248 C 1074.03 -1.07947 -2.02188 0
M  V30 11249 C 1075.05 -0.0315743 -1.62769 0
M  V30 11250 O 1076.23 -0.274503 -1.76377 0
M  V30 11251 C 1073.33 -0.61805 -3.33217 0
M  V30 11252 C 1072.51 -1.74109 -4.01254 0
M  V30 11253 C 1071.57 -1.27325 -5.10563 0
M  V30 11254 O 1070.59 -1.97526 -5.33828 0
M  V30 11255 N 1071.79 -0.1358 -5.80341 0
M  V30 11256 H 1074.56 -2.03275 -2.20225 0
M  V30 11257 H 1072.12 -1.20059 -1.08616 0
M  V30 11258 H 1074.11 -0.288693 -4.03669 0
M  V30 11259 H 1072.68 0.242348 -3.11659 0
M  V30 11260 H 1071.9 -2.2401 -3.24366 0
M  V30 11261 H 1073.19 -2.49448 -4.43456 0
M  V30 11262 H 1072.59 0.449846 -5.63909 0
M  V30 11263 H 1071.15 0.134289 -6.51662 0
M  V30 11264 N 1074.58 1.12322 -1.10551 0
M  V30 11265 C 1075.83 1.83495 -0.846998 0
M  V30 11266 C 1076.15 1.8457 0.629205 0
M  V30 11267 O 1075.42 1.30968 1.45686 0
M  V30 11268 H 1074 0.679479 -0.310351 0
M  V30 11269 H 1076.66 1.36004 -1.39602 0
M  V30 11270 H 1075.76 2.87651 -1.21092 0
M  V30 11271 N 1076.06 0.894434 1.2976 0
M  V30 11272 C 1077.02 0.373094 2.26143 0
M  V30 11273 C 1078.02 -0.489756 1.5316 0
M  V30 11274 O 1079.21 -0.29556 1.71674 0
M  V30 11275 C 1076.34 -0.467234 3.37683 0
M  V30 11276 H 1077.53 1.22427 2.73773 0
M  V30 11277 H 1075.09 0.672112 1.41111 0
M  V30 11278 H 1075.82 -1.33861 2.95384 0
M  V30 11279 H 1075.61 0.150954 3.91809 0
M  V30 11280 H 1077.1 -0.823469 4.094 0
M  V30 11281 N 1077.53 -1.43282 0.656365 0
M  V30 11282 C 1078.78 -2.02603 0.179905 0
M  V30 11283 C 1079.14 -1.50875 -1.19393 0
M  V30 11284 O 1078.43 -0.6935 -1.78609 0
M  V30 11285 C 1078.62 -3.57148 0.134225 0
M  V30 11286 C 1078.45 -4.23872 1.50209 0
M  V30 11287 C 1077.22 -4.59812 2.09526 0
M  V30 11288 C 1079.42 -4.52674 2.44112 0
M  V30 11289 N 1077.4 -5.11624 3.39284 0
M  V30 11290 C 1078.77 -5.05839 3.58506 0
M  V30 11291 C 1080.83 -4.34645 2.42874 0
M  V30 11292 C 1079.53 -5.42872 4.71892 0
M  V30 11293 C 1081.56 -4.72742 3.55343 0
M  V30 11294 C 1080.92 -5.26043 4.68463 0
M  V30 11295 H 1077.02 -0.774177 0.110334 0
M  V30 11296 H 1079.6 -1.74413 0.865352 0
M  V30 11297 H 1077.77 -3.84896 -0.520575 0
M  V30 11298 H 1079.5 -4.03154 -0.3534 0
M  V30 11299 H 1076.26 -4.44958 1.62203 0
M  V30 11300 H 1076.68 -5.4198 4.05693 0
M  V30 11301 H 1081.33 -3.92708 1.56654 0
M  V30 11302 H 1079.04 -5.83752 5.58802 0
M  V30 11303 H 1082.63 -4.60485 3.55591 0
M  V30 11304 H 1081.51 -5.54975 5.54051 0
M  V30 11305 N 1079.01 -0.398486 -1.52479 0
M  V30 11306 C 1080.24 0.180557 -2.06111 0
M  V30 11307 C 1080.66 1.39751 -1.26945 0
M  V30 11308 O 1080.01 1.79699 -0.318497 0
M  V30 11309 C 1080.06 0.541573 -3.5742 0
M  V30 11310 O 1079.79 -0.627043 -4.33589 0
M  V30 11311 C 1081.29 1.17549 -4.27431 0
M  V30 11312 H 1078.51 0.0250754 -0.670531 0
M  V30 11313 H 1081.05 -0.566368 -1.96501 0
M  V30 11314 H 1079.21 1.23839 -3.67073 0
M  V30 11315 H 1079.62 -0.328233 -5.23472 0
M  V30 11316 H 1081.09 1.37839 -5.34513 0
M  V30 11317 H 1081.57 2.14553 -3.83228 0
M  V30 11318 H 1082.18 0.51918 -4.22119 0
M  V30 11319 N 1080.49 1.57075 -0.12858 0
M  V30 11320 C 1081.42 2.18833 0.814519 0
M  V30 11321 C 1082.4 1.13114 1.2704 0
M  V30 11322 O 1083.59 1.41387 1.33129 0
M  V30 11323 C 1080.72 2.79535 2.06101 0
M  V30 11324 C 1079.67 3.9092 1.74257 0
M  V30 11325 C 1079 4.38473 3.06015 0
M  V30 11326 C 1080.3 5.1257 1.00345 0
M  V30 11327 H 1081.99 2.97895 0.299862 0
M  V30 11328 H 1079.54 1.4329 0.14279 0
M  V30 11329 H 1081.49 3.21401 2.72543 0
M  V30 11330 H 1080.21 1.97777 2.59907 0
M  V30 11331 H 1078.87 3.49645 1.102 0
M  V30 11332 H 1078.52 3.53561 3.57776 0
M  V30 11333 H 1078.22 5.13591 2.85479 0
M  V30 11334 H 1079.75 4.82997 3.7356 0
M  V30 11335 H 1081.16 5.51395 1.56959 0
M  V30 11336 H 1079.56 5.93333 0.898693 0
M  V30 11337 H 1080.63 4.84899 -0.0081335 0
M  V30 11338 N 1081.97 -0.145205 1.5693 0
M  V30 11339 C 1083.22 -0.858786 1.83719 0
M  V30 11340 C 1083.55 -1.80738 0.710452 0
M  V30 11341 O 1082.82 -1.92389 -0.285791 0
M  V30 11342 C 1083.11 -1.6317 3.2101 0
M  V30 11343 C 1082.96 -0.704472 4.44249 0
M  V30 11344 C 1084.28 -2.59377 3.55544 0
M  V30 11345 H 1081.4 -0.310757 0.66828 0
M  V30 11346 H 1084.04 -0.123918 1.89595 0
M  V30 11347 H 1082.19 -2.25816 3.16132 0
M  V30 11348 H 1083.86 -0.08887 4.61214 0
M  V30 11349 H 1082.1 -0.0141693 4.33798 0
M  V30 11350 H 1082.78 -1.28135 5.36922 0
M  V30 11351 H 1085.25 -2.06848 3.61044 0
M  V30 11352 H 1084.13 -3.10506 4.52634 0
M  V30 11353 H 1084.39 -3.40819 2.81594 0
M  V30 11354 N 1083.45 -1.52049 -0.414609 0
M  V30 11355 C 1084.67 -1.6997 -1.18848 0
M  V30 11356 C 1085.1 -0.406058 -1.83665 0
M  V30 11357 O 1084.46 0.635981 -1.69779 0
M  V30 11358 C 1084.5 -2.8327 -2.23138 0
M  V30 11359 O 1083.61 -2.48457 -3.29155 0
M  V30 11360 H 1082.95 -0.566003 -0.347183 0
M  V30 11361 H 1085.48 -1.98726 -0.486757 0
M  V30 11362 H 1085.49 -3.08022 -2.67557 0
M  V30 11363 H 1084.16 -3.7713 -1.75344 0
M  V30 11364 H 1082.74 -2.34357 -2.90054 0
M  V30 11365 N 1084.93 0.6715 -1.42579 0
M  V30 11366 C 1085.87 1.80623 -1.46554 0
M  V30 11367 C 1086.87 1.65934 -0.340932 0
M  V30 11368 O 1088.07 1.72502 -0.514098 0
M  V30 11369 H 1084.45 0.595619 -0.459067 0
M  V30 11370 H 1086.42 1.74388 -2.42139 0
M  V30 11371 C 1085.17 3.18794 -1.38801 0
M  V30 11372 H 1084.49 3.30725 -2.24635 0
M  V30 11373 H 1085.93 3.98201 -1.45645 0
M  V30 11374 C 1084.39 3.36742 -0.103219 0
M  V30 11375 O 1084.92 3.92761 0.842715 0
M  V30 11376 N 1083.13 2.90594 -0.0193034 0
M  V30 11377 H 1082.67 2.45192 -0.78986 0
M  V30 11378 H 1082.63 3.0298 0.839686 0
M  V30 11379 N 1086.4 1.28806 0.908124 0
M  V30 11380 C 1087.81 1.14719 1.47297 0
M  V30 11381 C 1088.17 -0.260763 1.94459 0
M  V30 11382 O 1087.29 -1.15553 1.82966 0
M  V30 11383 C 1087.89 2.07643 2.67712 0
M  V30 11384 C 1086.44 1.97605 3.20358 0
M  V30 11385 C 1085.59 1.99058 1.93058 0
M  V30 11386 H 1088.54 1.41413 0.720283 0
M  V30 11387 H 1088.56 1.64372 3.43165 0
M  V30 11388 H 1088.08 3.10108 2.33355 0
M  V30 11389 H 1086.18 0.981982 3.59427 0
M  V30 11390 H 1086.29 2.84846 3.85226 0
M  V30 11391 H 1084.65 1.43541 2.104 0
M  V30 11392 H 1085.44 3.03212 1.60989 0
M  V30 11393 N 1087.88 -1.11734 1.11145 0
M  V30 11394 C 1089.13 -1.83405 0.858413 0
M  V30 11395 C 1089.46 -1.84488 -0.615975 0
M  V30 11396 O 1088.71 -1.29123 -1.47057 0
M  V30 11397 C 1089.01 -3.3046 1.36129 0
M  V30 11398 C 1088.68 -3.4954 2.84837 0
M  V30 11399 C 1087.34 -3.54456 3.25445 0
M  V30 11400 C 1089.69 -3.56048 3.8063 0
M  V30 11401 C 1087.02 -3.63431 4.60581 0
M  V30 11402 C 1089.37 -3.66554 5.15579 0
M  V30 11403 C 1088.03 -3.69728 5.55749 0
M  V30 11404 H 1087.3 -0.671128 0.314115 0
M  V30 11405 H 1089.95 -1.31795 1.38933 0
M  V30 11406 H 1088.26 -3.84544 0.750547 0
M  V30 11407 H 1089.95 -3.84398 1.14188 0
M  V30 11408 H 1086.54 -3.46382 2.52423 0
M  V30 11409 H 1090.73 -3.51513 3.5036 0
M  V30 11410 H 1085.98 -3.64164 4.91116 0
M  V30 11411 H 1090.16 -3.70532 5.89643 0
M  V30 11412 H 1087.78 -3.76435 6.60455 0
M  V30 11413 N 1089.36 -0.901303 -1.29284 0
M  V30 11414 C 1090.6 -0.534971 -1.97275 0
M  V30 11415 C 1090.96 0.902226 -1.69481 0
M  V30 11416 O 1092.16 1.37551 -2.3094 0
M  V30 11417 C 1090.44 -0.821095 -3.4784 0
M  V30 11418 S 1091.99 -0.559312 -4.35221 0
M  V30 11419 H 1088.81 -0.198409 -0.682755 0
M  V30 11420 H 1091.41 -1.16408 -1.57065 0
M  V30 11421 H 1090.12 -1.86527 -3.65562 0
M  V30 11422 H 1089.65 -0.18016 -3.92987 0
M  V30 11423 H 1091.66 0.59494 -4.9262 0
M  V30 11424 N 1090.84 1.42931 -0.663954 0
M  V30 11425 C 1092.25 1.84877 -0.260283 0
M  V30 11426 C 1092.6 1.5558 1.19538 0
M  V30 11427 O 1091.72 1.01015 1.91377 0
M  V30 11428 C 1092.32 3.35585 -0.465618 0
M  V30 11429 C 1090.88 3.76221 -0.116169 0
M  V30 11430 C 1090.03 2.66587 -0.763317 0
M  V30 11431 H 1092.98 1.32932 -0.866882 0
M  V30 11432 H 1093 3.79427 0.285608 0
M  V30 11433 H 1092.51 3.56877 -1.52515 0
M  V30 11434 H 1090.61 3.60539 0.940342 0
M  V30 11435 H 1090.72 4.75943 -0.549123 0
M  V30 11436 H 1089.09 2.53948 -0.19559 0
M  V30 11437 H 1089.87 2.90704 -1.82609 0
M  V30 11438 N 1092.32 0.406567 1.52266 0
M  V30 11439 C 1093.23 -0.4271 2.30679 0
M  V30 11440 C 1094.24 -1.0559 1.383 0
M  V30 11441 O 1095.42 -1.05797 1.71374 0
M  V30 11442 C 1092.48 -1.53008 3.1111 0
M  V30 11443 C 1091.54 -0.924604 4.19225 0
M  V30 11444 C 1090.78 -1.97502 4.95811 0
M  V30 11445 O 1091 -3.19277 4.72671 0
M  V30 11446 O 1089.93 -1.58268 5.80719 0
M  V30 11447 H 1093.76 0.212187 3.02958 0
M  V30 11448 H 1091.34 0.169835 1.48432 0
M  V30 11449 H 1093.23 -2.17046 3.61205 0
M  V30 11450 H 1091.9 -2.15401 2.41628 0
M  V30 11451 H 1090.81 -0.247009 3.73284 0
M  V30 11452 H 1092.14 -0.34463 4.90992 0
M  V30 11453 N 1093.79 -1.57004 0.136909 0
M  V30 11454 C 1095.21 -1.82675 -0.385577 0
M  V30 11455 C 1095.56 -1.05508 -1.65416 0
M  V30 11456 O 1094.68 -0.297207 -2.14349 0
M  V30 11457 C 1095.28 -3.31356 -0.706326 0
M  V30 11458 C 1093.84 -3.57644 -1.17337 0
M  V30 11459 C 1092.98 -2.7664 -0.191239 0
M  V30 11460 H 1095.93 -1.54522 0.36177 0
M  V30 11461 H 1095.95 -3.4696 -1.56201 0
M  V30 11462 H 1095.47 -3.87492 0.217147 0
M  V30 11463 H 1093.57 -3.06883 -2.11313 0
M  V30 11464 H 1093.68 -4.66152 -1.10632 0
M  V30 11465 H 1092.04 -2.45403 -0.681867 0
M  V30 11466 H 1092.83 -3.35543 0.725647 0
M  V30 11467 N 1095.27 0.136881 -1.57004 0
M  V30 11468 C 1096.5 0.866405 -1.88436 0
M  V30 11469 C 1096.92 1.73483 -0.727006 0
M  V30 11470 O 1096.28 1.78398 0.323094 0
M  V30 11471 C 1096.33 1.69059 -3.18514 0
M  V30 11472 O 1095.43 2.79584 -3.03161 0
M  V30 11473 H 1094.77 0.240709 -0.618834 0
M  V30 11474 H 1097.3 0.124653 -2.0422 0
M  V30 11475 H 1097.31 2.08353 -3.50789 0
M  V30 11476 H 1095.99 1.05296 -4.0235 0
M  V30 11477 H 1094.57 2.43623 -2.82315 0
M  V30 11478 N 1096.75 1.52266 0.40654 0
M  V30 11479 C 1098.16 1.58587 0.985241 0
M  V30 11480 C 1098.51 0.427955 1.91476 0
M  V30 11481 O 1097.64 -0.451341 2.11641 0
M  V30 11482 C 1098.23 2.87426 1.79365 0
M  V30 11483 C 1096.79 2.96217 2.32233 0
M  V30 11484 C 1095.94 2.53548 1.12288 0
M  V30 11485 H 1098.89 1.57598 0.186685 0
M  V30 11486 H 1098.91 2.72925 2.65127 0
M  V30 11487 H 1098.42 3.71682 1.11687 0
M  V30 11488 H 1096.52 2.1646 3.03275 0
M  V30 11489 H 1096.64 4.00511 2.62922 0
M  V30 11490 H 1095 2.07457 1.47763 0
M  V30 11491 H 1095.78 3.40181 0.461731 0
M  V30 11492 N 1098.23 -0.663929 1.42933 0
M  V30 11493 C 1099.64 -1.24484 1.39143 0
M  V30 11494 C 1099.99 -1.95993 0.0901142 0
M  V30 11495 O 1099.12 -2.00636 -0.810812 0
M  V30 11496 C 1099.71 -2.26402 2.52047 0
M  V30 11497 C 1098.27 -2.79995 2.51555 0
M  V30 11498 C 1097.42 -1.54475 2.30289 0
M  V30 11499 H 1100.37 -0.456619 1.51989 0
M  V30 11500 H 1100.39 -3.08361 2.22921 0
M  V30 11501 H 1099.9 -1.74328 3.46744 0
M  V30 11502 H 1098 -3.36161 1.60707 0
M  V30 11503 H 1098.11 -3.2827 3.48964 0
M  V30 11504 H 1096.48 -1.81437 1.78753 0
M  V30 11505 H 1097.26 -1.04351 3.27056 0
M  V30 11506 N 1099.71 -1.29285 -0.901281 0
M  V30 11507 C 1100.64 -1.10086 -2.01032 0
M  V30 11508 C 1101.65 -0.0488364 -1.62727 0
M  V30 11509 O 1102.84 -0.293194 -1.76076 0
M  V30 11510 C 1099.94 -0.653357 -3.32542 0
M  V30 11511 C 1099.11 -1.78355 -3.99385 0
M  V30 11512 C 1098.17 -1.32733 -5.09184 0
M  V30 11513 O 1097.2 -2.03177 -5.31703 0
M  V30 11514 N 1098.4 -0.197345 -5.80164 0
M  V30 11515 H 1101.17 -2.056 -2.18057 0
M  V30 11516 H 1098.73 -1.21204 -1.07337 0
M  V30 11517 H 1100.72 -0.331491 -4.0334 0
M  V30 11518 H 1099.29 0.209278 -3.11899 0
M  V30 11519 H 1098.51 -2.27438 -3.21972 0
M  V30 11520 H 1099.8 -2.54137 -4.40785 0
M  V30 11521 H 1099.19 0.390011 -5.64354 0
M  V30 11522 H 1097.75 0.0651642 -6.51767 0
M  V30 11523 N 1101.18 1.11143 -1.11736 0
M  V30 11524 C 1102.46 1.79384 -0.779785 0
M  V30 11525 C 1102.84 1.98015 0.731668 0
M  V30 11526 O 1102.19 1.56731 1.66276 0
M  V30 11527 C 1102.4 3.12868 -1.54643 0
M  V30 11528 C 1103.75 3.8786 -1.7277 0
M  V30 11529 O 1104.77 3.22566 -1.51094 0
M  V30 11530 O 1103.63 5.05034 -2.08813 0
M  V30 11531 H 1100.72 0.777128 -0.282845 0
M  V30 11532 H 1103.27 1.17858 -1.22096 0
M  V30 11533 H 1102.04 2.94682 -2.57446 0
M  V30 11534 H 1101.67 3.82109 -1.09901 0
M  V30 11535 N 1102.66 0.908147 1.28804 0
M  V30 11536 C 1104.07 0.585727 1.77274 0
M  V30 11537 C 1104.42 -0.898842 1.744 0
M  V30 11538 O 1103.55 -1.70301 1.33516 0
M  V30 11539 C 1104.14 1.05647 3.21907 0
M  V30 11540 C 1102.7 0.785066 3.68122 0
M  V30 11541 C 1101.85 1.22638 2.48707 0
M  V30 11542 H 1104.8 1.09 1.15346 0
M  V30 11543 H 1104.82 0.395442 3.7844 0
M  V30 11544 H 1104.33 2.13698 3.23967 0
M  V30 11545 H 1102.44 -0.282477 3.71528 0
M  V30 11546 H 1102.55 1.38888 4.58527 0
M  V30 11547 H 1100.91 0.645217 2.46392 0
M  V30 11548 H 1101.7 2.31512 2.5349 0
M  V30 11549 N 1104.14 -1.42577 0.671525 0
M  V30 11550 C 1105.39 -2.01584 0.192431 0
M  V30 11551 C 1105.72 -1.53076 -1.19992 0
M  V30 11552 O 1104.97 -0.722196 -1.81887 0
M  V30 11553 C 1105.27 -3.56985 0.172097 0
M  V30 11554 C 1104.94 -4.24912 1.50867 0
M  V30 11555 C 1103.6 -4.43182 1.87464 0
M  V30 11556 C 1105.95 -4.6322 2.38908 0
M  V30 11557 C 1103.28 -4.97031 3.11732 0
M  V30 11558 C 1105.63 -5.18447 3.62485 0
M  V30 11559 C 1104.29 -5.34932 3.99255 0
M  V30 11560 H 1103.56 -0.737647 0.0704155 0
M  V30 11561 H 1106.21 -1.70807 0.865862 0
M  V30 11562 H 1104.52 -3.87411 -0.584835 0
M  V30 11563 H 1106.21 -4.00419 -0.215749 0
M  V30 11564 H 1102.8 -4.11048 1.21397 0
M  V30 11565 H 1106.99 -4.4878 2.1192 0
M  V30 11566 H 1102.24 -5.07979 3.40246 0
M  V30 11567 H 1106.42 -5.47075 4.30909 0
M  V30 11568 H 1104.04 -5.76422 4.95623 0
M  V30 11569 N 1105.62 -0.414636 -1.52048 0
M  V30 11570 C 1106.55 0.399119 -2.30064 0
M  V30 11571 C 1107.53 1.04126 -1.34506 0
M  V30 11572 O 1108.71 1.04923 -1.63416 0
M  V30 11573 C 1105.84 1.51305 -3.12608 0
M  V30 11574 C 1104.8 0.995621 -4.16259 0
M  V30 11575 C 1104.12 2.20357 -4.87183 0
M  V30 11576 C 1105.42 0.0458178 -5.2228 0
M  V30 11577 H 1107.12 -0.251879 -2.98339 0
M  V30 11578 H 1104.66 -0.122579 -1.43477 0
M  V30 11579 H 1106.62 2.08936 -3.65956 0
M  V30 11580 H 1105.34 2.19201 -2.42113 0
M  V30 11581 H 1104 0.441676 -3.6393 0
M  V30 11582 H 1103.65 2.8682 -4.13211 0
M  V30 11583 H 1103.35 1.86385 -5.57256 0
M  V30 11584 H 1104.87 2.78584 -5.43345 0
M  V30 11585 H 1106.29 0.531102 -5.70835 0
M  V30 11586 H 1104.68 -0.20536 -5.99749 0
M  V30 11587 H 1105.75 -0.897807 -4.76516 0
M  V30 11588 N 1107.1 1.56929 -0.145233 0
M  V30 11589 C 1108.51 1.82877 0.375884 0
M  V30 11590 C 1108.86 1.06384 1.64854 0
M  V30 11591 O 1107.98 0.30857 2.14189 0
M  V30 11592 C 1108.58 3.31725 0.688744 0
M  V30 11593 C 1107.14 3.58261 1.15439 0
M  V30 11594 C 1106.28 2.76737 0.176565 0
M  V30 11595 H 1109.24 1.54328 -0.36996 0
M  V30 11596 H 1109.26 3.47784 1.54359 0
M  V30 11597 H 1108.77 3.87371 -0.237694 0
M  V30 11598 H 1106.87 3.08 2.09683 0
M  V30 11599 H 1106.98 4.66732 1.08158 0
M  V30 11600 H 1105.35 2.45761 0.668843 0
M  V30 11601 H 1106.13 3.35154 -0.743432 0
M  V30 11602 N 1108.58 -0.128553 1.57075 0
M  V30 11603 C 1109.8 -0.8564 1.88893 0
M  V30 11604 C 1110.23 -1.73095 0.736196 0
M  V30 11605 O 1109.58 -1.78567 -0.313629 0
M  V30 11606 C 1109.63 -1.67368 3.19406 0
M  V30 11607 O 1108.74 -2.77973 3.04639 0
M  V30 11608 H 1108.08 -0.237424 0.620102 0
M  V30 11609 H 1110.61 -0.113821 2.04283 0
M  V30 11610 H 1110.62 -2.0649 3.51889 0
M  V30 11611 H 1109.29 -1.03161 4.02903 0
M  V30 11612 H 1107.87 -2.42123 2.83603 0
M  V30 11613 N 1110.05 -1.5248 -0.398459 0
M  V30 11614 C 1111.02 -1.75949 -1.46883 0
M  V30 11615 C 1112.02 -0.629431 -1.47969 0
M  V30 11616 O 1113.21 -0.897407 -1.49306 0
M  V30 11617 C 1110.34 -1.85162 -2.8623 0
M  V30 11618 H 1111.53 -2.71513 -1.2736 0
M  V30 11619 H 1109.08 -1.43058 -0.629619 0
M  V30 11620 H 1109.82 -0.915505 -3.11109 0
M  V30 11621 H 1109.6 -2.67326 -2.86844 0
M  V30 11622 H 1111.09 -2.05025 -3.63805 0
M  V30 11623 N 1111.53 0.65634 -1.43283 0
M  V30 11624 C 1112.94 1.23744 -1.39801 0
M  V30 11625 C 1113.29 1.95942 -0.100507 0
M  V30 11626 O 1112.42 2.01063 0.800161 0
M  V30 11627 C 1113.01 2.25062 -2.53244 0
M  V30 11628 C 1111.57 2.78657 -2.53036 0
M  V30 11629 C 1110.72 1.53251 -2.31105 0
M  V30 11630 H 1113.67 0.448553 -1.52229 0
M  V30 11631 H 1113.69 3.07174 -2.24553 0
M  V30 11632 H 1113.2 1.72487 -3.47664 0
M  V30 11633 H 1111.3 3.35304 -1.62487 0
M  V30 11634 H 1111.42 3.26414 -3.507 0
M  V30 11635 H 1109.78 1.80487 -1.79713 0
M  V30 11636 H 1110.56 1.02615 -3.27605 0
M  V30 11637 N 1113.01 1.29761 0.894412 0
M  V30 11638 C 1113.97 1.15335 1.98067 0
M  V30 11639 C 1114.97 0.0872804 1.60563 0
M  V30 11640 O 1116.16 0.334645 1.70955 0
M  V30 11641 C 1113.29 0.764907 3.32208 0
M  V30 11642 H 1114.49 2.11829 2.12293 0
M  V30 11643 H 1112.04 1.13023 1.0796 0
M  V30 11644 H 1112.78 -0.199948 3.23683 0
M  V30 11645 H 1112.56 1.53523 3.60795 0
M  V30 11646 H 1114.05 0.687176 4.11907 0
M  V30 11647 N 1114.49 -1.10549 1.12324 0
M  V30 11648 C 1115.9 -1.63991 0.892402 0
M  V30 11649 C 1116.25 -1.87631 -0.573506 0
M  V30 11650 O 1115.37 -1.6174 -1.43768 0
M  V30 11651 C 1115.97 -2.97914 1.61347 0
M  V30 11652 C 1114.53 -3.48227 1.42881 0
M  V30 11653 C 1113.68 -2.22857 1.65015 0
M  V30 11654 H 1116.63 -0.94065 1.27818 0
M  V30 11655 H 1116.65 -3.65326 1.06382 0
M  V30 11656 H 1116.16 -2.80677 2.68034 0
M  V30 11657 H 1114.26 -3.70611 0.384441 0
M  V30 11658 H 1114.37 -4.26419 2.18413 0
M  V30 11659 H 1112.74 -2.30941 1.07417 0
M  V30 11660 H 1113.52 -2.08152 2.72997 0
M  V30 11661 N 1115.97 -0.914965 -1.28321 0
M  V30 11662 C 1117.21 -0.549562 -1.95212 0
M  V30 11663 C 1117.54 0.904658 -1.71842 0
M  V30 11664 O 1116.82 1.64354 -1.04009 0
M  V30 11665 C 1117.1 -0.860927 -3.49657 0
M  V30 11666 C 1116.96 -2.36797 -3.82423 0
M  V30 11667 C 1118.27 -0.357926 -4.38642 0
M  V30 11668 H 1115.39 -0.201136 -0.709023 0
M  V30 11669 H 1118.04 -1.14443 -1.51667 0
M  V30 11670 H 1116.19 -0.354665 -3.86878 0
M  V30 11671 H 1117.86 -2.94494 -3.55065 0
M  V30 11672 H 1116.1 -2.82245 -3.29424 0
M  V30 11673 H 1116.77 -2.53637 -4.90278 0
M  V30 11674 H 1119.25 -0.791636 -4.085 0
M  V30 11675 H 1118.12 -0.604855 -5.45557 0
M  V30 11676 H 1118.38 0.741775 -4.35833 0
M  V30 11677 N 1117.44 1.42219 -0.679077 0
M  V30 11678 C 1118.41 2.29197 -0.0125475 0
M  V30 11679 C 1119.41 1.43544 0.724691 0
M  V30 11680 O 1120.6 1.64884 0.562052 0
M  V30 11681 C 1117.73 3.26122 0.992846 0
M  V30 11682 H 1118.92 2.89629 -0.778154 0
M  V30 11683 H 1116.47 1.4993 -0.44166 0
M  V30 11684 H 1117.21 2.70637 1.78679 0
M  V30 11685 H 1116.99 3.89302 0.467544 0
M  V30 11686 H 1118.48 3.91339 1.45751 0
M  V30 11687 N 1118.92 0.422693 1.51826 0
M  V30 11688 C 1120.17 -0.141187 2.02909 0
M  V30 11689 C 1120.52 -1.41649 1.30205 0
M  V30 11690 O 1119.82 -1.87297 0.403769 0
M  V30 11691 C 1120.01 -0.429516 3.5481 0
M  V30 11692 C 1119.84 0.816291 4.42229 0
M  V30 11693 C 1118.61 1.34551 4.87057 0
M  V30 11694 C 1120.81 1.69829 4.85451 0
M  V30 11695 N 1118.79 2.54538 5.58644 0
M  V30 11696 C 1120.16 2.74431 5.55956 0
M  V30 11697 C 1122.21 1.71445 4.67452 0
M  V30 11698 C 1120.92 3.80576 6.10372 0
M  V30 11699 C 1122.94 2.76516 5.22774 0
M  V30 11700 C 1122.31 3.79839 5.93213 0
M  V30 11701 H 1118.4 -0.0128783 0.781894 0
M  V30 11702 H 1120.99 0.580083 1.85858 0
M  V30 11703 H 1119.16 -1.11982 3.71907 0
M  V30 11704 H 1120.89 -0.983467 3.92568 0
M  V30 11705 H 1117.65 0.901554 4.6494 0
M  V30 11706 H 1118.07 3.15342 5.99073 0
M  V30 11707 H 1122.71 0.92899 4.12468 0
M  V30 11708 H 1120.43 4.59969 6.6442 0
M  V30 11709 H 1124.02 2.7869 5.10708 0
M  V30 11710 H 1122.9 4.59806 6.35254 0
M  V30 11711 N 1120.4 -1.5685 0.153553 0
M  V30 11712 C 1121.36 -2.15894 -0.769564 0
M  V30 11713 C 1122.36 -1.10239 -1.17064 0
M  V30 11714 O 1123.55 -1.35845 -1.09049 0
M  V30 11715 C 1120.68 -2.72738 -2.04516 0
M  V30 11716 H 1121.88 -2.98807 -0.255842 0
M  V30 11717 H 1119.43 -1.56005 -0.0959279 0
M  V30 11718 H 1120.17 -1.9351 -2.60239 0
M  V30 11719 H 1119.95 -3.50042 -1.76672 0
M  V30 11720 H 1121.44 -3.18208 -2.70432 0
M  V30 11721 N 1121.88 0.120221 -1.57141 0
M  V30 11722 C 1122.83 1.15332 -1.96679 0
M  V30 11723 C 1123.81 1.37134 -0.841607 0
M  V30 11724 O 1125 1.38247 -1.10529 0
M  V30 11725 C 1122.13 2.48021 -2.37361 0
M  V30 11726 C 1121.22 2.29699 -3.5651 0
M  V30 11727 N 1121.61 1.81186 -4.72234 0
M  V30 11728 C 1119.91 2.60359 -3.62118 0
M  V30 11729 C 1120.61 1.76542 -5.54263 0
M  V30 11730 N 1119.58 2.20843 -4.96719 0
M  V30 11731 H 1123.39 0.770763 -2.83613 0
M  V30 11732 H 1120.9 0.327979 -1.59054 0
M  V30 11733 H 1122.9 3.22739 -2.63903 0
M  V30 11734 H 1121.56 2.87036 -1.51791 0
M  V30 11735 H 1122.57 1.50751 -4.95474 0
M  V30 11736 H 1119.25 3.03067 -2.87152 0
M  V30 11737 H 1120.64 1.40298 -6.57089 0
M  V30 11738 N 1123.36 1.52689 0.390367 0
M  V30 11739 C 1124.6 1.67335 1.13329 0
M  V30 11740 C 1124.93 0.415068 1.90531 0
M  V30 11741 O 1124.2 -0.570504 1.87409 0
M  V30 11742 H 1122.78 0.616821 0.421356 0
M  V30 11743 H 1125.44 1.89799 0.443 0
M  V30 11744 H 1124.53 2.52314 1.83696 0
M  V30 11745 N 1124.83 -0.648732 1.43629 0
M  V30 11746 C 1126.25 -0.964917 1.27128 0
M  V30 11747 C 1126.45 -2.00561 0.194251 0
M  V30 11748 O 1125.51 -2.48884 -0.42581 0
M  V30 11749 C 1126.82 -1.44491 2.6371 0
M  V30 11750 C 1128.37 -1.56133 2.71278 0
M  V30 11751 C 1128.84 -2.07521 4.08288 0
M  V30 11752 N 1130.33 -2.14817 4.10375 0
M  V30 11753 C 1131.07 -2.55712 5.13224 0
M  V30 11754 N 1130.56 -2.9587 6.26444 0
M  V30 11755 N 1132.36 -2.55691 5.00578 0
M  V30 11756 H 1124.51 0.0398357 2.12363 0
M  V30 11757 H 1126.77 -0.0447705 0.946942 0
M  V30 11758 H 1126.48 -0.754616 3.43509 0
M  V30 11759 H 1126.35 -2.41914 2.89409 0
M  V30 11760 H 1128.74 -2.24263 1.91808 0
M  V30 11761 H 1128.82 -0.571314 2.49338 0
M  V30 11762 H 1128.46 -1.39992 4.88226 0
M  V30 11763 H 1128.39 -3.07362 4.27594 0
M  V30 11764 H 1130.88 -1.86538 3.28652 0
M  V30 11765 H 1131.2 -3.25837 7.0075 0
M  V30 11766 H 1129.54 -2.93664 6.2991 0
M  V30 11767 H 1132.73 -2.23697 4.1119 0
M  V30 11768 H 1132.91 -2.87239 5.80859 0
M  V30 11769 N 1126.31 -1.30234 -0.887518 0
M  V30 11770 C 1127.73 -1.0851 -1.17037 0
M  V30 11771 C 1127.93 0.155788 -2.00897 0
M  V30 11772 O 1126.98 0.850123 -2.37759 0
M  V30 11773 C 1128.3 -2.34723 -1.87951 0
M  V30 11774 C 1129.85 -2.40163 -2.00726 0
M  V30 11775 C 1130.32 -3.66211 -2.75051 0
M  V30 11776 N 1131.81 -3.67004 -2.82599 0
M  V30 11777 C 1132.55 -4.61224 -3.40676 0
M  V30 11778 N 1132.04 -5.65786 -3.99823 0
M  V30 11779 N 1133.84 -4.48772 -3.38467 0
M  V30 11780 H 1125.99 -2.09847 -0.328297 0
M  V30 11781 H 1128.25 -0.924904 -0.20798 0
M  V30 11782 H 1127.96 -3.25265 -1.33773 0
M  V30 11783 H 1127.83 -2.43175 -2.8835 0
M  V30 11784 H 1130.22 -1.50101 -2.54074 0
M  V30 11785 H 1130.3 -2.35688 -0.994218 0
M  V30 11786 H 1129.94 -4.56631 -2.22376 0
M  V30 11787 H 1129.87 -3.67947 -3.76726 0
M  V30 11788 H 1132.36 -2.91409 -2.40602 0
M  V30 11789 H 1132.68 -6.33783 -4.42197 0
M  V30 11790 H 1131.02 -5.69581 -3.9825 0
M  V30 11791 H 1134.21 -3.6627 -2.91485 0
M  V30 11792 H 1134.38 -5.22382 -3.83433 0
M  V30 11793 N 1127.79 1.09952 -1.12909 0
M  V30 11794 C 1128.72 2.16257 -0.759305 0
M  V30 11795 C 1129.74 1.61355 0.216427 0
M  V30 11796 O 1130.92 1.785 -0.00297224 0
M  V30 11797 C 1128.02 3.38741 -0.103908 0
M  V30 11798 C 1127.2 4.23072 -1.11037 0
M  V30 11799 C 1126.26 5.23991 -0.481667 0
M  V30 11800 O 1125.28 5.57665 -1.14011 0
M  V30 11801 N 1126.48 5.75652 0.748698 0
M  V30 11802 H 1129.25 2.48588 -1.67405 0
M  V30 11803 H 1126.81 1.25617 -1.02137 0
M  V30 11804 H 1128.8 4.03362 0.328799 0
M  V30 11805 H 1127.37 3.04344 0.713677 0
M  V30 11806 H 1126.59 3.5467 -1.72054 0
M  V30 11807 H 1127.88 4.76244 -1.79078 0
M  V30 11808 H 1127.28 5.505 1.30253 0
M  V30 11809 H 1125.84 6.42033 1.12415 0
M  V30 11810 N 1129.27 0.921757 1.27833 0
M  V30 11811 C 1130.52 0.557974 1.94245 0
M  V30 11812 C 1130.84 -0.90268 1.72849 0
M  V30 11813 O 1130.11 -1.63915 1.07279 0
M  V30 11814 H 1128.69 0.203364 0.718785 0
M  V30 11815 H 1131.35 1.17286 1.5566 0
M  V30 11816 H 1130.45 0.759202 3.02725 0
M  V30 11817 N 1130.75 -1.41857 0.686609 0
M  V30 11818 C 1131.68 -2.33481 0.0298353 0
M  V30 11819 C 1132.66 -1.51329 -0.776756 0
M  V30 11820 O 1133.84 -1.79895 -0.731535 0
M  V30 11821 C 1130.97 -3.35065 -0.913707 0
M  V30 11822 C 1129.93 -4.2746 -0.214861 0
M  V30 11823 C 1129.25 -5.19346 -1.27215 0
M  V30 11824 C 1130.55 -5.14252 0.913367 0
M  V30 11825 H 1132.25 -2.8865 0.795067 0
M  V30 11826 H 1129.79 -1.38792 0.383785 0
M  V30 11827 H 1131.75 -3.98082 -1.38234 0
M  V30 11828 H 1130.47 -2.78226 -1.7105 0
M  V30 11829 H 1129.13 -3.65855 0.233651 0
M  V30 11830 H 1128.78 -4.58827 -2.06124 0
M  V30 11831 H 1128.48 -5.81996 -0.80961 0
M  V30 11832 H 1130 -5.85239 -1.74147 0
M  V30 11833 H 1131.41 -5.70887 0.525424 0
M  V30 11834 H 1129.81 -5.85796 1.30244 0
M  V30 11835 H 1130.88 -4.51949 1.75699 0
M  V30 11836 N 1132.22 -0.430739 -1.51599 0
M  V30 11837 C 1133.47 0.137657 -2.01631 0
M  V30 11838 C 1133.79 1.43787 -1.31721 0
M  V30 11839 O 1133.06 1.90668 -0.449717 0
M  V30 11840 H 1131.64 0.0538611 -0.745056 0
M  V30 11841 H 1134.31 -0.571935 -1.86319 0
M  V30 11842 H 1133.4 0.318305 -3.10473 0
M  V30 11843 N 1133.7 1.56767 -0.161869 0
M  V30 11844 C 1135.11 1.83265 0.356466 0
M  V30 11845 C 1135.46 1.08127 1.63716 0
M  V30 11846 O 1134.59 0.33127 2.13849 0
M  V30 11847 C 1135.18 3.32437 0.653521 0
M  V30 11848 C 1133.74 3.59465 1.11633 0
M  V30 11849 C 1132.89 2.76909 0.147204 0
M  V30 11850 H 1135.84 1.53926 -0.386308 0
M  V30 11851 H 1135.86 3.49401 1.50662 0
M  V30 11852 H 1135.37 3.87098 -0.278766 0
M  V30 11853 H 1133.48 3.10206 2.06404 0
M  V30 11854 H 1133.59 4.67853 1.03202 0
M  V30 11855 H 1131.95 2.46457 0.642739 0
M  V30 11856 H 1132.74 3.34346 -0.778938 0
M  V30 11857 N 1135.18 -0.111886 1.57202 0
M  V30 11858 C 1136.43 -0.817022 1.84412 0
M  V30 11859 C 1136.74 -1.80708 0.748608 0
M  V30 11860 O 1137.95 -2.55891 0.907319 0
M  V30 11861 C 1136.4 -1.50376 3.26979 0
M  V30 11862 C 1136.01 -0.554334 4.44557 0
M  V30 11863 C 1137.76 -2.19361 3.63429 0
M  V30 11864 C 1135.66 -1.24471 5.78153 0
M  V30 11865 H 1134.59 -0.308864 0.687836 0
M  V30 11866 H 1137.24 -0.0698109 1.83367 0
M  V30 11867 H 1135.63 -2.29785 3.22514 0
M  V30 11868 H 1136.8 0.207045 4.60335 0
M  V30 11869 H 1135.12 0.0289261 4.1639 0
M  V30 11870 H 1137.71 -2.71716 4.60515 0
M  V30 11871 H 1138.06 -2.97488 2.91215 0
M  V30 11872 H 1138.59 -1.46833 3.69709 0
M  V30 11873 H 1135.33 -0.504584 6.53555 0
M  V30 11874 H 1134.85 -1.97792 5.66249 0
M  V30 11875 H 1136.53 -1.77591 6.2215 0
M  V30 11876 N 1136.66 -1.52894 -0.382264 0
M  V30 11877 C 1137.61 -1.74531 -1.46707 0
M  V30 11878 C 1138.59 -0.599499 -1.49315 0
M  V30 11879 O 1139.78 -0.857577 -1.54837 0
M  V30 11880 C 1136.91 -1.92366 -2.84342 0
M  V30 11881 C 1136 -3.12899 -2.86278 0
M  V30 11882 N 1136.39 -4.35125 -2.57876 0
M  V30 11883 C 1134.69 -3.13282 -3.17444 0
M  V30 11884 C 1135.39 -5.16769 -2.67066 0
M  V30 11885 N 1134.37 -4.52606 -3.0108 0
M  V30 11886 H 1138.17 -2.66653 -1.23585 0
M  V30 11887 H 1135.68 -1.51292 -0.590286 0
M  V30 11888 H 1137.68 -2.0599 -3.62455 0
M  V30 11889 H 1136.34 -1.01461 -3.08441 0
M  V30 11890 H 1137.35 -4.63143 -2.31774 0
M  V30 11891 H 1134.03 -2.32211 -3.46964 0
M  V30 11892 H 1135.42 -6.24219 -2.48595 0
M  V30 11893 N 1138.14 0.641106 -1.43971 0
M  V30 11894 C 1139.36 1.43324 -1.4991 0
M  V30 11895 C 1139.79 1.87705 -0.121908 0
M  V30 11896 O 1139.15 1.58127 0.886875 0
M  V30 11897 C 1139.19 2.63637 -2.46025 0
M  V30 11898 O 1138.3 3.63123 -1.95488 0
M  V30 11899 H 1137.64 0.429252 -0.506595 0
M  V30 11900 H 1140.17 0.783427 -1.89007 0
M  V30 11901 H 1140.18 3.11304 -2.63731 0
M  V30 11902 H 1138.85 2.30678 -3.46064 0
M  V30 11903 H 1137.43 3.22332 -1.87501 0
M  V30 11904 N 1139.62 1.30703 0.880598 0
M  V30 11905 C 1141.03 1.09129 1.1646 0
M  V30 11906 C 1141.23 -0.145131 2.00977 0
M  V30 11907 O 1140.29 -0.837502 2.38206 0
M  V30 11908 C 1141.6 2.35717 1.86703 0
M  V30 11909 C 1143.15 2.41224 1.9945 0
M  V30 11910 C 1143.62 3.67665 2.73105 0
M  V30 11911 N 1145.11 3.68498 2.80648 0
M  V30 11912 C 1145.85 4.63024 3.38225 0
M  V30 11913 N 1145.35 5.67898 3.96817 0
M  V30 11914 N 1147.14 4.50561 3.36082 0
M  V30 11915 H 1139.29 2.10019 0.317164 0
M  V30 11916 H 1141.55 0.925994 0.203072 0
M  V30 11917 H 1141.26 3.2597 1.32046 0
M  V30 11918 H 1141.13 2.447 2.87057 0
M  V30 11919 H 1143.52 1.51446 2.53275 0
M  V30 11920 H 1143.6 2.36212 0.981704 0
M  V30 11921 H 1143.24 4.57803 2.19951 0
M  V30 11922 H 1143.17 3.69939 3.7477 0
M  V30 11923 H 1145.67 2.92681 2.39053 0
M  V30 11924 H 1145.98 6.3612 4.3883 0
M  V30 11925 H 1144.32 5.71685 3.95223 0
M  V30 11926 H 1147.51 3.67811 2.89539 0
M  V30 11927 H 1147.69 5.24408 3.80657 0
M  V30 11928 N 1141.09 -1.09351 1.1349 0
M  V30 11929 C 1142.32 -1.85304 0.920324 0
M  V30 11930 C 1142.74 -1.81182 -0.530883 0
M  V30 11931 O 1142.09 -1.20853 -1.36751 0
M  V30 11932 C 1142.14 -3.33249 1.40098 0
M  V30 11933 O 1141.87 -3.37333 2.79531 0
M  V30 11934 C 1143.37 -4.2604 1.22495 0
M  V30 11935 H 1140.59 -0.585294 0.328134 0
M  V30 11936 H 1143.13 -1.38168 1.50765 0
M  V30 11937 H 1141.29 -3.7781 0.85664 0
M  V30 11938 H 1141.7 -4.29614 3.00885 0
M  V30 11939 H 1143.17 -5.27999 1.61 0
M  V30 11940 H 1143.65 -4.38883 0.166717 0
M  V30 11941 H 1144.26 -3.87295 1.75735 0
M  V30 11942 N 1142.57 -0.928524 -1.27343 0
M  V30 11943 C 1143.52 -0.418768 -2.28799 0
M  V30 11944 C 1144.51 0.497334 -1.61935 0
M  V30 11945 O 1145.72 0.376945 -1.76009 0
M  V30 11946 H 1142.09 -0.116855 -0.742865 0
M  V30 11947 H 1144.07 -1.28725 -2.69207 0
M  V30 11948 C 1142.81 0.312422 -3.46294 0
M  V30 11949 H 1142.14 -0.383317 -3.97958 0
M  V30 11950 H 1143.58 0.633514 -4.19241 0
M  V30 11951 C 1142.04 1.5257 -3.00373 0
M  V30 11952 O 1142.57 2.62443 -3.04116 0
M  V30 11953 N 1140.77 1.37782 -2.5586 0
M  V30 11954 H 1140.32 0.483908 -2.53014 0
M  V30 11955 H 1140.28 2.19085 -2.25498 0
M  V30 11956 N 1144.05 1.41491 -0.694123 0
M  V30 11957 C 1144.98 2.33462 -0.0422169 0
M  V30 11958 C 1145.96 1.51739 0.76872 0
M  V30 11959 O 1147.15 1.8028 0.721985 0
M  V30 11960 C 1144.28 3.35545 0.895925 0
M  V30 11961 C 1143.23 4.27568 0.192188 0
M  V30 11962 C 1142.56 5.20014 1.24459 0
M  V30 11963 C 1143.86 5.1376 -0.940626 0
M  V30 11964 H 1145.55 2.88225 -0.810363 0
M  V30 11965 H 1143.1 1.38586 -0.39114 0
M  V30 11966 H 1145.05 3.9881 1.36121 0
M  V30 11967 H 1143.77 2.79129 1.69572 0
M  V30 11968 H 1142.43 3.65726 -0.25305 0
M  V30 11969 H 1142.08 4.59913 2.03687 0
M  V30 11970 H 1141.78 5.82417 0.778734 0
M  V30 11971 H 1143.3 5.86155 1.71041 0
M  V30 11972 H 1144.72 5.70601 -0.555692 0
M  V30 11973 H 1143.11 5.85097 -1.33349 0
M  V30 11974 H 1144.18 4.51011 -1.78093 0
M  V30 11975 N 1145.53 0.438773 1.51369 0
M  V30 11976 C 1146.46 -0.417215 2.24354 0
M  V30 11977 C 1147.44 -1.02351 1.26345 0
M  V30 11978 O 1148.62 -1.06569 1.55484 0
M  V30 11979 C 1145.75 -1.58163 2.99503 0
M  V30 11980 C 1144.8 -1.09588 4.1218 0
M  V30 11981 S 1145.63 -0.0367491 5.35487 0
M  V30 11982 C 1146.78 -1.2058 6.14175 0
M  V30 11983 H 1147.02 0.202416 2.9661 0
M  V30 11984 H 1144.55 0.223306 1.52777 0
M  V30 11985 H 1146.51 -2.24917 3.43399 0
M  V30 11986 H 1145.17 -2.17268 2.26833 0
M  V30 11987 H 1144.36 -1.96667 4.64045 0
M  V30 11988 H 1143.96 -0.506564 3.70554 0
M  V30 11989 H 1146.26 -2.12387 6.43349 0
M  V30 11990 H 1147.2 -0.727087 7.04357 0
M  V30 11991 H 1147.61 -1.44501 5.45692 0
M  V30 11992 N 1147.01 -1.56678 0.170181 0
M  V30 11993 C 1148.28 -1.88524 -0.521362 0
M  V30 11994 C 1148.66 -1.07989 -1.81388 0
M  V30 11995 O 1148.01 -0.17347 -2.27841 0
M  V30 11996 C 1148.22 -3.40527 -0.764367 0
M  V30 11997 C 1149.57 -4.10241 -1.09487 0
M  V30 11998 O 1150.59 -3.45837 -0.852945 0
M  V30 11999 O 1149.45 -5.24022 -1.55124 0
M  V30 12000 H 1146.55 -0.782161 -0.268614 0
M  V30 12001 H 1149.09 -1.68414 0.208531 0
M  V30 12002 H 1147.86 -3.91015 0.149416 0
M  V30 12003 H 1147.49 -3.66244 -1.54762 0
M  V30 12004 N 1148.48 0.103547 -1.57259 0
M  V30 12005 C 1149.71 0.82235 -1.89855 0
M  V30 12006 C 1150.13 1.72694 -0.76303 0
M  V30 12007 O 1149.48 1.8056 0.265421 0
M  V30 12008 C 1149.53 1.64282 -3.22015 0
M  V30 12009 O 1149.26 0.774628 -4.31197 0
M  V30 12010 C 1150.76 2.46543 -3.68418 0
M  V30 12011 H 1147.98 0.235591 -0.628282 0
M  V30 12012 H 1150.52 0.0833106 -2.0433 0
M  V30 12013 H 1148.68 2.33446 -3.09163 0
M  V30 12014 H 1149.09 1.34205 -5.0704 0
M  V30 12015 H 1150.56 2.99618 -4.63609 0
M  V30 12016 H 1151.04 3.24618 -2.95838 0
M  V30 12017 H 1151.65 1.82594 -3.84109 0
M  V30 12018 N 1149.96 1.53094 0.37415 0
M  V30 12019 C 1150.87 1.81872 1.48188 0
M  V30 12020 C 1151.89 0.706487 1.59012 0
M  V30 12021 O 1153.06 0.995648 1.75068 0
M  V30 12022 C 1150.13 1.99494 2.83554 0
M  V30 12023 C 1149.19 3.23402 2.82329 0
M  V30 12024 C 1148.42 3.40174 4.11239 0
M  V30 12025 O 1148.65 2.61425 5.06965 0
M  V30 12026 O 1147.58 4.33493 4.17573 0
M  V30 12027 H 1151.41 2.75965 1.26795 0
M  V30 12028 H 1148.99 1.38368 0.56343 0
M  V30 12029 H 1150.87 2.12705 3.63778 0
M  V30 12030 H 1149.55 1.08591 3.04942 0
M  V30 12031 H 1148.45 3.15621 2.00834 0
M  V30 12032 H 1149.79 4.14199 2.65894 0
M  V30 12033 N 1151.44 -0.633461 1.44309 0
M  V30 12034 C 1152.37 -1.75676 1.53819 0
M  V30 12035 C 1153.35 -1.65537 0.391365 0
M  V30 12036 O 1154.54 -1.84332 0.611181 0
M  V30 12037 C 1151.67 -3.14197 1.47979 0
M  V30 12038 C 1150.62 -3.39122 2.61113 0
M  V30 12039 C 1149.95 -4.77648 2.40325 0
M  V30 12040 C 1151.25 -3.31914 4.03274 0
M  V30 12041 H 1152.94 -1.67974 2.47841 0
M  V30 12042 H 1150.49 -0.8067 1.19283 0
M  V30 12043 H 1152.44 -3.92553 1.53233 0
M  V30 12044 H 1151.16 -3.22677 0.504718 0
M  V30 12045 H 1149.82 -2.63145 2.55245 0
M  V30 12046 H 1149.47 -4.82829 1.41016 0
M  V30 12047 H 1149.17 -4.95284 3.16177 0
M  V30 12048 H 1150.69 -5.58237 2.47394 0
M  V30 12049 H 1152.11 -4.00178 4.10524 0
M  V30 12050 H 1150.5 -3.61085 4.7931 0
M  V30 12051 H 1151.57 -2.29761 4.2701 0
M  V30 12052 N 1152.92 -1.31168 -0.873655 0
M  V30 12053 C 1153.85 -1.12836 -1.98351 0
M  V30 12054 C 1154.83 -0.0328679 -1.62567 0
M  V30 12055 O 1156.01 -0.18859 -1.87554 0
M  V30 12056 C 1153.14 -0.72332 -3.30886 0
M  V30 12057 C 1152.19 -1.82132 -3.85656 0
M  V30 12058 S 1153.02 -3.42604 -4.11562 0
M  V30 12059 C 1154.18 -3.04028 -5.471 0
M  V30 12060 H 1154.41 -2.06793 -2.13597 0
M  V30 12061 H 1151.94 -1.15611 -1.0234 0
M  V30 12062 H 1153.9 -0.496371 -4.07488 0
M  V30 12063 H 1152.56 0.197077 -3.13481 0
M  V30 12064 H 1151.75 -1.49046 -4.81458 0
M  V30 12065 H 1151.36 -2.00314 -3.15833 0
M  V30 12066 H 1153.65 -2.52692 -6.28612 0
M  V30 12067 H 1154.59 -3.9878 -5.85133 0
M  V30 12068 H 1155 -2.41574 -5.10198 0
M  V30 12069 N 1154.4 1.08748 -1.14068 0
M  V30 12070 C 1155.67 1.7769 -0.81766 0
M  V30 12071 C 1156.05 1.99522 0.689501 0
M  V30 12072 O 1155.4 1.60222 1.62914 0
M  V30 12073 C 1155.61 3.09517 -1.61245 0
M  V30 12074 C 1156.96 3.84108 -1.80958 0
M  V30 12075 O 1157.98 3.19289 -1.57902 0
M  V30 12076 O 1156.84 5.00491 -2.19479 0
M  V30 12077 H 1153.94 0.770953 -0.299265 0
M  V30 12078 H 1156.48 1.15242 -1.24569 0
M  V30 12079 H 1155.25 2.89155 -2.63638 0
M  V30 12080 H 1154.88 3.79692 -1.17982 0
M  V30 12081 N 1155.87 0.935264 1.26849 0
M  V30 12082 C 1156.84 0.44485 2.24842 0
M  V30 12083 C 1157.84 -0.440781 1.54641 0
M  V30 12084 O 1159.03 -0.240793 1.72528 0
M  V30 12085 C 1156.16 -0.359566 3.38998 0
M  V30 12086 H 1157.35 1.31074 2.6974 0
M  V30 12087 H 1154.91 0.716665 1.38901 0
M  V30 12088 H 1155.64 -1.24396 2.99493 0
M  V30 12089 H 1155.43 0.275529 3.91131 0
M  V30 12090 H 1156.92 -0.692804 4.11813 0
M  V30 12091 N 1157.35 -1.41121 0.701616 0
M  V30 12092 C 1158.63 -1.9492 0.162911 0
M  V30 12093 C 1159.01 -1.64064 -1.32839 0
M  V30 12094 O 1158.36 -0.950848 -2.07777 0
M  V30 12095 C 1158.57 -3.45946 0.460673 0
M  V30 12096 C 1159.92 -4.22789 0.391706 0
M  V30 12097 O 1160.94 -3.53993 0.395931 0
M  V30 12098 O 1159.8 -5.45332 0.357071 0
M  V30 12099 H 1156.89 -0.826793 0.0185103 0
M  V30 12100 H 1159.44 -1.50805 0.778192 0
M  V30 12101 H 1158.21 -3.61711 1.49269 0
M  V30 12102 H 1157.83 -3.97168 -0.185277 0
M  V30 12103 N 1158.83 -0.446794 -1.51134 0
M  V30 12104 C 1160.06 0.117242 -2.07068 0
M  V30 12105 C 1160.48 1.34877 -1.3111 0
M  V30 12106 O 1159.84 1.77856 -0.35172 0
M  V30 12107 C 1159.89 0.408616 -3.58277 0
M  V30 12108 O 1158.99 1.49345 -3.84408 0
M  V30 12109 H 1158.33 -0.00228458 -0.663996 0
M  V30 12110 H 1160.86 -0.63085 -1.94632 0
M  V30 12111 H 1160.87 0.656298 -4.02687 0
M  V30 12112 H 1159.55 -0.491444 -4.12986 0
M  V30 12113 H 1158.12 1.23499 -3.51856 0
M  V30 12114 N 1160.31 1.56586 -0.178487 0
M  V30 12115 C 1161.59 1.88798 0.511356 0
M  V30 12116 C 1161.97 1.08949 1.80813 0
M  V30 12117 O 1161.31 0.185551 2.27745 0
M  V30 12118 C 1161.52 3.40927 0.746298 0
M  V30 12119 C 1162.87 4.10816 1.0731 0
M  V30 12120 O 1163.9 3.46285 0.834592 0
M  V30 12121 O 1162.75 5.24837 1.52343 0
M  V30 12122 H 1159.85 0.783574 0.264463 0
M  V30 12123 H 1162.39 1.68301 -0.21746 0
M  V30 12124 H 1161.17 3.9093 -0.17015 0
M  V30 12125 H 1160.79 3.67059 1.52817 0
M  V30 12126 N 1161.79 -0.095206 1.57312 0
M  V30 12127 C 1163.03 -0.798719 1.86083 0
M  V30 12128 C 1163.36 -1.78739 0.766991 0
M  V30 12129 O 1162.62 -1.9423 -0.239425 0
M  V30 12130 C 1162.92 -1.56244 3.21438 0
M  V30 12131 C 1162.58 -0.715903 4.4518 0
M  V30 12132 C 1161.24 -0.482537 4.78774 0
M  V30 12133 C 1163.6 -0.127404 5.21044 0
M  V30 12134 C 1160.92 0.349193 5.8566 0
M  V30 12135 C 1163.28 0.691649 6.28808 0
M  V30 12136 C 1161.94 0.935107 6.60918 0
M  V30 12137 H 1161.21 -0.292272 0.680924 0
M  V30 12138 H 1163.86 -0.0602105 1.91405 0
M  V30 12139 H 1162.16 -2.37251 3.118 0
M  V30 12140 H 1163.86 -2.11116 3.40927 0
M  V30 12141 H 1160.45 -0.907902 4.18874 0
M  V30 12142 H 1164.63 -0.29486 4.95423 0
M  V30 12143 H 1159.89 0.546797 6.0895 0
M  V30 12144 H 1164.06 1.15452 6.86763 0
M  V30 12145 H 1161.69 1.58139 7.4357 0
M  V30 12146 O 1163.3 -1.59719 -0.239187 0
M  V30 12147 H 1163.99 -1.72464 -0.881815 0
M  V30 END ATOM
M  V30 BEGIN BOND
M  V30 END BOND
M  V30 END CTAB
M  END
$$$$
