drugbank_target|P21291 Cysteine and glycine-rich protein 1 (DB11638)
 OpenBabel12092121083D

  0  0  0     0  0            999 V3000
M  V30 BEGIN CTAB
M  V30 COUNTS 2830 2863 0 0 0
M  V30 BEGIN ATOM
M  V30 1 H -0.908 1.98254 -0.117106 0
M  V30 2 N 0 1.576 0 0
M  V30 3 C 0.933 2.03868 1.02534 0
M  V30 4 C 1.911 0.928543 1.3348 0
M  V30 5 O 3.095 1.19667 1.45644 0
M  V30 6 C 0.222 2.43627 2.35294 0
M  V30 7 C -0.732 3.65373 2.2001 0
M  V30 8 S 0.101 5.13292 1.52614 0
M  V30 9 C 1.257 5.56322 2.86805 0
M  V30 10 H 1.49 2.90518 0.631377 0
M  V30 11 H -0.977 1.52953 0.210867 0
M  V30 12 H 0.981 2.67203 3.11629 0
M  V30 13 H -0.358 1.57376 2.7183 0
M  V30 14 H -1.165 3.90944 3.18086 0
M  V30 15 H -1.563 3.418 1.51819 0
M  V30 16 H 0.729 5.58782 3.83104 0
M  V30 17 H 1.672 6.56266 2.65933 0
M  V30 18 H 2.08 4.83886 2.90714 0
M  V30 19 N 1.4781 -0.272755 1.55222 0
M  V30 20 C 2.8891 -0.84378 1.66545 0
M  V30 21 C 3.2401 -1.87035 0.592641 0
M  V30 22 O 2.3651 -2.14761 -0.265818 0
M  V30 23 C 2.9601 -1.53723 3.01918 0
M  V30 24 C 1.5191 -2.05628 3.15268 0
M  V30 25 C 0.6661 -0.898424 2.62343 0
M  V30 26 H 3.6171 -0.0490998 1.58624 0
M  V30 27 H 3.6381 -2.40421 2.94921 0
M  V30 28 H 3.1501 -0.78983 3.79978 0
M  V30 29 H 1.2511 -2.83329 2.41983 0
M  V30 30 H 1.3641 -2.27142 4.21833 0
M  V30 31 H -0.2719 -1.29186 2.19506 0
M  V30 32 H 0.5111 -0.164528 3.42906 0
M  V30 33 N 2.9562 -1.48159 -0.537278 0
M  V30 34 C 3.9042 -1.62573 -1.66352 0
M  V30 35 C 4.8982 -0.492366 -1.62087 0
M  V30 36 O 6.1042 -0.670847 -1.67032 0
M  V30 37 H 2.4792 -0.511992 -0.550789 0
M  V30 38 H 4.4502 -2.57176 -1.51337 0
M  V30 39 C 3.1992 -1.67583 -3.04649 0
M  V30 40 H 2.5222 -2.54151 -3.08622 0
M  V30 41 H 3.9622 -1.81713 -3.83088 0
M  V30 42 C 2.4212 -0.413039 -3.34358 0
M  V30 43 O 2.9512 0.477259 -3.98855 0
M  V30 44 N 1.1572 -0.286961 -2.8918 0
M  V30 45 H 0.7042 -1.01241 -2.36871 0
M  V30 46 H 0.6622 0.556963 -3.09427 0
M  V30 47 N 4.4343 0.785586 -1.36625 0
M  V30 48 C 5.6803 1.5452 -1.32269 0
M  V30 49 C 6.0353 1.92159 0.0962266 0
M  V30 50 O 5.3283 1.60158 1.05167 0
M  V30 51 C 5.5223 2.83007 -2.1827 0
M  V30 52 C 5.3513 2.57925 -3.68382 0
M  V30 53 C 4.1213 2.52752 -4.37544 0
M  V30 54 C 6.3193 2.26861 -4.61561 0
M  V30 55 N 4.3013 2.19608 -5.73276 0
M  V30 56 C 5.6723 2.03738 -5.85569 0
M  V30 57 C 7.7273 2.129 -4.50087 0
M  V30 58 C 6.4303 1.68065 -6.9939 0
M  V30 59 C 8.4563 1.78626 -5.63779 0
M  V30 60 C 7.8183 1.56353 -6.86828 0
M  V30 61 H 3.9173 0.566301 -0.539283 0
M  V30 62 H 6.5013 0.917736 -1.71714 0
M  V30 63 H 4.6723 3.43614 -1.81063 0
M  V30 64 H 6.4043 3.48775 -2.05275 0
M  V30 65 H 3.1593 2.6813 -3.90389 0
M  V30 66 H 3.5833 2.05771 -6.44971 0
M  V30 67 H 8.2253 2.28808 -3.55537 0
M  V30 68 H 5.9433 1.50895 -7.93887 0
M  V30 69 H 9.5293 1.68502 -5.56865 0
M  V30 70 H 8.4093 1.30223 -7.73312 0
M  V30 71 N 5.9124 1.20967 1.01018 0
M  V30 72 C 7.1604 1.02172 1.74371 0
M  V30 73 C 7.4814 -0.446414 1.89821 0
M  V30 74 O 6.7514 -1.32234 1.44537 0
M  V30 75 H 5.3314 0.375066 0.646014 0
M  V30 76 H 7.9934 1.52187 1.21758 0
M  V30 77 H 7.0894 1.48538 2.74487 0
M  V30 78 N 7.3905 -1.2043 1.01659 0
M  V30 79 C 8.6385 -1.89423 0.704522 0
M  V30 80 C 8.9595 -1.79231 -0.768197 0
M  V30 81 O 8.2295 -1.1947 -1.55254 0
M  V30 82 H 6.8095 -0.701178 0.257602 0
M  V30 83 H 9.4715 -1.4626 1.28818 0
M  V30 84 H 8.5675 -2.96052 0.987916 0
M  V30 85 N 8.8686 -0.792821 -1.36206 0
M  V30 86 C 10.1166 -0.366062 -1.98757 0
M  V30 87 C 10.4376 1.0668 -1.63231 0
M  V30 88 O 9.7076 1.73587 -0.907978 0
M  V30 89 H 8.2876 -0.132364 -0.735179 0
M  V30 90 H 10.9496 -1.01562 -1.66347 0
M  V30 91 H 10.0456 -0.460638 -3.08682 0
M  V30 92 N 10.3467 1.47872 -0.545128 0
M  V30 93 C 11.2937 2.29849 0.2093 0
M  V30 94 C 12.2637 1.38313 0.919707 0
M  V30 95 O 13.4487 1.67277 0.917772 0
M  V30 96 C 10.5887 3.22019 1.24088 0
M  V30 97 C 9.7017 4.2864 0.537778 0
M  V30 98 C 8.8367 5.07973 1.5536 0
M  V30 99 C 7.8757 6.06381 0.8348 0
M  V30 100 N 7.0127 6.78717 1.79688 0
M  V30 101 H 11.8527 2.93845 -0.49591 0
M  V30 102 H 9.3897 1.44848 -0.256389 0
M  V30 103 H 11.3477 3.73868 1.85144 0
M  V30 104 H 9.9777 2.59914 1.91428 0
M  V30 105 H 9.0297 3.7994 -0.187046 0
M  V30 106 H 10.3417 4.98793 -0.0258907 0
M  V30 107 H 9.4957 5.63912 2.23803 0
M  V30 108 H 8.2347 4.37693 2.15118 0
M  V30 109 H 7.2397 5.49631 0.136388 0
M  V30 110 H 8.4647 6.78665 0.24313 0
M  V30 111 H 6.4107 6.11177 2.38326 0
M  V30 112 H 6.3277 7.44998 1.28505 0
M  V30 113 H 7.5957 7.39237 2.47282 0
M  V30 114 N 11.8248 0.280983 1.55075 0
M  V30 115 C 12.7718 -0.603937 2.22758 0
M  V30 116 C 13.7418 -1.1452 1.20309 0
M  V30 117 O 14.9268 -1.19343 1.48869 0
M  V30 118 C 12.0668 -1.77947 2.95684 0
M  V30 119 C 11.1798 -1.2715 4.12864 0
M  V30 120 C 10.3148 -2.4093 4.7342 0
M  V30 121 C 9.3538 -1.87165 5.82783 0
M  V30 122 N 8.4908 -2.94441 6.37377 0
M  V30 123 H 13.3308 -0.020124 2.97993 0
M  V30 124 H 10.8678 0.00183425 1.471 0
M  V30 125 H 12.8258 -2.47055 3.36184 0
M  V30 126 H 11.4558 -2.33522 2.22861 0
M  V30 127 H 10.5078 -0.473331 3.77444 0
M  V30 128 H 11.8198 -0.837751 4.91715 0
M  V30 129 H 10.9738 -3.18021 5.1667 0
M  V30 130 H 9.7128 -2.87623 3.93859 0
M  V30 131 H 8.7178 -1.08556 5.38976 0
M  V30 132 H 9.9428 -1.41401 6.64216 0
M  V30 133 H 7.8888 -3.40505 5.60707 0
M  V30 134 H 7.8058 -2.55501 7.11516 0
M  V30 135 H 9.0738 -3.71489 6.85285 0
M  V30 136 N 13.3029 -1.57598 0.00835791 0
M  V30 137 C 14.5429 -1.92788 -0.679136 0
M  V30 138 C 14.9069 -0.883378 -1.70471 0
M  V30 139 O 16.1079 -1.12079 -2.44319 0
M  V30 140 C 14.3789 -3.32994 -1.29807 0
M  V30 141 S 15.9379 -3.90082 -2.00952 0
M  V30 142 H 12.7559 -0.67475 -0.224127 0
M  V30 143 H 15.3579 -1.95385 0.0670497 0
M  V30 144 H 14.0619 -4.06846 -0.538922 0
M  V30 145 H 13.5929 -3.33791 -2.082 0
M  V30 146 H 15.6079 -3.71834 -3.28563 0
M  V30 147 N 14.781 0.264519 -1.55364 0
M  V30 148 C 16.029 0.993021 -1.76021 0
M  V30 149 C 16.35 1.86511 -0.569099 0
M  V30 150 O 15.62 1.91438 0.415735 0
M  V30 151 H 14.2 0.369639 -0.649135 0
M  V30 152 H 16.862 0.286707 -1.9278 0
M  V30 153 H 15.958 1.62502 -2.66457 0
M  V30 154 N 16.2591 1.48442 0.529413 0
M  V30 155 C 17.5051 1.5672 1.28711 0
M  V30 156 C 17.8381 0.2406 1.92704 0
M  V30 157 O 17.1131 -0.753454 1.79313 0
M  V30 158 C 17.3961 2.70587 2.37603 0
M  V30 159 C 17.2491 4.12953 1.78297 0
M  V30 160 C 18.5681 2.80212 3.39366 0
M  V30 161 H 15.6871 0.570474 0.466613 0
M  V30 162 H 18.3291 1.80617 0.589706 0
M  V30 163 H 16.4791 2.50342 2.97088 0
M  V30 164 H 18.1511 4.44639 1.22858 0
M  V30 165 H 16.3941 4.19927 1.0883 0
M  V30 166 H 17.0651 4.88448 2.57144 0
M  V30 167 H 19.5411 2.98553 2.89836 0
M  V30 168 H 18.4171 3.61611 4.12951 0
M  V30 169 H 18.6781 1.88393 3.99951 0
M  V30 170 N 17.7372 -0.778329 1.37039 0
M  V30 171 C 18.9772 -1.54973 1.33276 0
M  V30 172 C 19.3412 -1.91816 -0.0839376 0
M  V30 173 O 20.5422 -2.6767 -0.246228 0
M  V30 174 C 18.8132 -2.78517 2.23971 0
M  V30 175 S 20.3722 -3.6865 2.37997 0
M  V30 176 H 17.1902 -0.530639 0.473226 0
M  V30 177 H 19.7922 -0.915806 1.72723 0
M  V30 178 H 18.4962 -2.4952 3.25835 0
M  V30 179 H 18.0272 -3.46875 1.85584 0
M  V30 180 H 20.0422 -4.70182 1.58567 0
M  V30 181 N 19.2153 -1.21501 -1.00376 0
M  V30 182 C 20.1473 -0.933174 -2.09343 0
M  V30 183 C 21.1603 0.0840896 -1.62583 0
M  V30 184 O 22.3493 -0.148563 -1.77881 0
M  V30 185 C 19.4493 -0.379869 -3.36764 0
M  V30 186 C 18.6223 -1.45176 -4.12605 0
M  V30 187 C 17.6813 -0.907476 -5.18316 0
M  V30 188 O 16.7073 -1.5912 -5.46507 0
M  V30 189 N 17.9093 0.276649 -5.7984 0
M  V30 190 H 20.6743 -1.87124 -2.34104 0
M  V30 191 H 18.2353 -1.12043 -1.16867 0
M  V30 192 H 20.2273 -0.00131488 -4.047 0
M  V30 193 H 18.7973 0.463048 -3.09151 0
M  V30 194 H 18.0173 -2.00411 -3.39454 0
M  V30 195 H 19.3053 -2.17328 -4.6005 0
M  V30 196 H 18.7033 0.849147 -5.59291 0
M  V30 197 H 17.2603 0.596702 -6.49063 0
M  V30 198 N 20.6934 1.19889 -1.02296 0
M  V30 199 C 21.6404 2.22901 -0.598651 0
M  V30 200 C 22.6104 1.61588 0.384521 0
M  V30 201 O 23.7954 1.88697 0.282522 0
M  V30 202 C 20.9354 3.45063 0.0504476 0
M  V30 203 C 20.0484 4.20783 -0.978053 0
M  V30 204 C 19.1834 5.30356 -0.299338 0
M  V30 205 C 18.2224 5.97826 -1.31416 0
M  V30 206 N 17.3594 6.98975 -0.661667 0
M  V30 207 H 22.1994 2.58554 -1.48169 0
M  V30 208 H 19.7364 1.27039 -0.741584 0
M  V30 209 H 21.6944 4.14831 0.443971 0
M  V30 210 H 20.3244 3.10084 0.897097 0
M  V30 211 H 19.3764 3.50018 -1.48969 0
M  V30 212 H 20.6884 4.67109 -1.74958 0
M  V30 213 H 19.8424 6.06516 0.149347 0
M  V30 214 H 18.5814 4.85084 0.504445 0
M  V30 215 H 17.5864 5.20422 -1.77317 0
M  V30 216 H 18.8114 6.45183 -2.11933 0
M  V30 217 H 16.7574 6.55886 0.122132 0
M  V30 218 H 16.6744 7.43461 -1.37117 0
M  V30 219 H 17.9424 7.7914 -0.236785 0
M  V30 220 N 22.1715 0.800033 1.35784 0
M  V30 221 C 23.3995 0.389606 2.03199 0
M  V30 222 C 23.8145 -0.997375 1.60306 0
M  V30 223 O 23.1715 -1.64154 0.797481 0
M  V30 224 C 23.2225 0.455855 3.58614 0
M  V30 225 O 22.9435 1.78815 3.99946 0
M  V30 226 C 24.4445 0.0374032 4.43284 0
M  V30 227 H 21.6645 0.159132 0.651857 0
M  V30 228 H 24.2085 1.08183 1.73541 0
M  V30 229 H 22.3635 -0.188057 3.86943 0
M  V30 230 H 22.7775 1.74636 4.94573 0
M  V30 231 H 24.2515 0.134882 5.51835 0
M  V30 232 H 24.7285 -1.01651 4.27275 0
M  V30 233 H 25.3345 0.654215 4.20238 0
M  V30 234 N 23.6496 -1.47581 0.552962 0
M  V30 235 C 24.8956 -2.02782 0.0273648 0
M  V30 236 C 25.2286 -1.42687 -1.31734 0
M  V30 237 O 24.5036 -0.580897 -1.85623 0
M  V30 238 C 24.7866 -3.60031 -0.0702371 0
M  V30 239 C 24.6396 -4.30566 1.30126 0
M  V30 240 C 25.9586 -4.33028 -0.785771 0
M  V30 241 H 23.0776 -0.736912 0.0114185 0
M  V30 242 H 25.7196 -1.76056 0.714432 0
M  V30 243 H 23.8696 -3.82932 -0.655382 0
M  V30 244 H 25.5416 -4.19018 1.92929 0
M  V30 245 H 23.7846 -3.91086 1.87709 0
M  V30 246 H 24.4556 -5.39114 1.18573 0
M  V30 247 H 26.9316 -4.15095 -0.288982 0
M  V30 248 H 25.8076 -5.42695 -0.823013 0
M  V30 249 H 26.0686 -4.01945 -1.841 0
M  V30 250 N 25.1277 -0.289203 -1.54924 0
M  V30 251 C 26.3577 0.325989 -2.04012 0
M  V30 252 C 26.7657 1.48961 -1.1665 0
M  V30 253 O 26.1087 1.82794 -0.1822 0
M  V30 254 C 26.1707 0.856112 -3.49158 0
M  V30 255 C 25.8347 -0.180697 -4.56643 0
M  V30 256 C 26.8317 -1.0051 -5.10092 0
M  V30 257 C 24.5167 -0.318998 -5.01286 0
M  V30 258 C 26.5107 -1.95385 -6.06715 0
M  V30 259 C 24.1977 -1.27121 -5.97732 0
M  V30 260 C 25.1957 -2.08713 -6.50329 0
M  V30 261 O 24.8837 -3.02322 -7.44887 0
M  V30 262 H 24.6157 0.0765276 -0.671654 0
M  V30 263 H 27.1697 -0.423254 -2.00992 0
M  V30 264 H 25.3997 1.65567 -3.49463 0
M  V30 265 H 27.0887 1.38591 -3.81507 0
M  V30 266 H 27.8547 -0.90906 -4.76404 0
M  V30 267 H 23.7337 0.306108 -4.59983 0
M  V30 268 H 27.2777 -2.59111 -6.47694 0
M  V30 269 H 23.1747 -1.36801 -6.30837 0
M  V30 270 H 23.9427 -2.97165 -7.6265 0
M  V30 271 N 26.6058 1.57591 -0.0167156 0
M  V30 272 C 27.8528 1.91283 0.664597 0
M  V30 273 C 28.1808 0.891949 1.72842 0
M  V30 274 O 27.4358 -0.100931 1.9544 0
M  V30 275 C 27.7348 3.3172 1.33029 0
M  V30 276 C 27.4008 4.4914 0.398047 0
M  V30 277 C 26.0628 4.80992 0.141421 0
M  V30 278 C 28.4148 5.20634 -0.242825 0
M  V30 279 C 25.7428 5.81703 -0.764092 0
M  V30 280 C 28.0948 6.22311 -1.13632 0
M  V30 281 C 26.7588 6.52611 -1.40196 0
M  V30 282 H 26.0288 0.699956 0.243193 0
M  V30 283 H 28.6758 1.9135 -0.0758267 0
M  V30 284 H 26.9808 3.27856 2.14517 0
M  V30 285 H 28.6778 3.55055 1.86379 0
M  V30 286 H 25.2678 4.24262 0.608238 0
M  V30 287 H 29.4518 4.96267 -0.0576019 0
M  V30 288 H 24.7078 6.03532 -0.977732 0
M  V30 289 H 28.8818 6.76834 -1.63917 0
M  V30 290 H 26.5088 7.30467 -2.10529 0
M  V30 291 N 28.0839 -0.256276 1.55502 0
M  V30 292 C 29.0469 -1.30047 1.88734 0
M  V30 293 C 30.0469 -1.4154 0.763086 0
M  V30 294 O 31.2369 -1.40403 1.03115 0
M  V30 295 C 28.3689 -2.67953 2.10747 0
M  V30 296 H 29.5619 -1.01802 2.82093 0
M  V30 297 H 27.1149 -0.495134 1.4825 0
M  V30 298 H 27.8499 -3.01351 1.19825 0
M  V30 299 H 27.6349 -2.60993 2.92617 0
M  V30 300 H 29.1249 -3.43368 2.37673 0
M  V30 301 N 29.562 -1.4872 -0.521534 0
M  V30 302 C 30.472 -1.66569 -1.65203 0
M  V30 303 C 31.488 -0.548197 -1.65139 0
M  V30 304 O 32.664 -0.820339 -1.83936 0
M  V30 305 C 29.729 -1.70917 -3.01642 0
M  V30 306 C 28.79 -2.94356 -3.12495 0
M  V30 307 C 28.023 -2.98487 -4.42426 0
M  V30 308 O 28.246 -2.10786 -5.30024 0
M  V30 309 O 27.18 -3.90746 -4.57822 0
M  V30 310 H 31.006 -2.62298 -1.5308 0
M  V30 311 H 28.591 -1.3222 -0.695565 0
M  V30 312 H 30.473 -1.7625 -3.82771 0
M  V30 313 H 29.148 -0.783633 -3.14071 0
M  V30 314 H 28.055 -2.94552 -2.3063 0
M  V30 315 H 29.388 -3.86322 -3.04986 0
M  V30 316 N 31.0401 0.771051 -1.3745 0
M  V30 317 C 31.9501 1.91538 -1.35464 0
M  V30 318 C 32.9661 1.72134 -0.254123 0
M  V30 319 O 34.1421 1.95358 -0.489626 0
M  V30 320 C 31.2071 3.26671 -1.16134 0
M  V30 321 C 30.2681 3.58723 -2.35831 0
M  V30 322 C 29.5011 4.87409 -2.17413 0
M  V30 323 O 29.7241 5.58506 -1.15876 0
M  V30 324 O 28.6581 5.18539 -3.05615 0
M  V30 325 H 32.4841 1.96165 -2.31847 0
M  V30 326 H 30.0691 0.9139 -1.18187 0
M  V30 327 H 31.9511 4.07499 -1.07345 0
M  V30 328 H 30.6261 3.22894 -0.228251 0
M  V30 329 H 29.5331 2.78127 -2.50192 0
M  V30 330 H 30.8661 3.67243 -3.27709 0
M  V30 331 N 32.5182 1.22032 0.997298 0
M  V30 332 C 33.7642 1.04376 1.73878 0
M  V30 333 C 34.0972 -0.420716 1.89588 0
M  V30 334 O 33.3722 -1.31202 1.43583 0
M  V30 335 C 33.6552 1.75047 3.14691 0
M  V30 336 C 33.5082 3.29062 3.06656 0
M  V30 337 C 34.8272 1.49928 4.13775 0
M  V30 338 H 31.9462 0.380578 0.631133 0
M  V30 339 H 34.5882 1.50312 1.16217 0
M  V30 340 H 32.7382 1.35996 3.63919 0
M  V30 341 H 34.4102 3.7753 2.65083 0
M  V30 342 H 32.6532 3.58967 2.43568 0
M  V30 343 H 33.3242 3.73683 4.06282 0
M  V30 344 H 35.8002 1.83842 3.73285 0
M  V30 345 H 34.6762 2.01878 5.10428 0
M  V30 346 H 34.9372 0.430929 4.39995 0
M  V30 347 N 33.9963 -1.19345 1.0293 0
M  V30 348 C 34.9283 -2.22036 0.56857 0
M  V30 349 C 35.9413 -1.58865 -0.355779 0
M  V30 350 O 37.1303 -1.77851 -0.152103 0
M  V30 351 C 34.2303 -3.38363 -0.190752 0
M  V30 352 C 33.4033 -4.31118 0.738643 0
M  V30 353 C 32.4623 -5.26194 0.0246497 0
M  V30 354 O 31.4883 -5.65461 0.651354 0
M  V30 355 N 32.6903 -5.66971 -1.24594 0
M  V30 356 H 35.4553 -2.6219 1.45177 0
M  V30 357 H 33.0163 -1.34015 0.908381 0
M  V30 358 H 35.0083 -3.98981 -0.677961 0
M  V30 359 H 33.5783 -2.96994 -0.975366 0
M  V30 360 H 32.7983 -3.68276 1.40593 0
M  V30 361 H 34.0863 -4.90001 1.37029 0
M  V30 362 H 33.4843 -5.37104 -1.77583 0
M  V30 363 H 32.0413 -6.2984 -1.67764 0
M  V30 364 N 35.4744 -0.807222 -1.35358 0
M  V30 365 C 36.7144 -0.393534 -2.00576 0
M  V30 366 C 37.0784 1.0203 -1.62647 0
M  V30 367 O 38.2794 1.53603 -2.20589 0
M  V30 368 C 36.5504 -0.572017 -3.52793 0
M  V30 369 S 38.1094 -0.248845 -4.38094 0
M  V30 370 H 34.9274 -0.149425 -0.695121 0
M  V30 371 H 37.5294 -1.04961 -1.64935 0
M  V30 372 H 36.2334 -1.60097 -3.77885 0
M  V30 373 H 35.7644 0.099359 -3.93275 0
M  V30 374 H 37.7794 0.943253 -4.87152 0
M  V30 375 N 36.9525 1.47285 -0.560781 0
M  V30 376 C 37.8625 2.33846 0.187954 0
M  V30 377 C 38.8785 1.48412 0.908293 0
M  V30 378 O 40.0545 1.81332 0.876388 0
M  V30 379 C 37.1195 3.25178 1.2025 0
M  V30 380 C 36.1805 4.26504 0.489208 0
M  V30 381 C 35.4135 5.13472 1.45542 0
M  V30 382 O 35.6365 5.02959 2.6905 0
M  V30 383 O 34.5705 5.93902 0.977963 0
M  V30 384 H 38.3965 2.99177 -0.522177 0
M  V30 385 H 35.9815 1.45903 -0.321364 0
M  V30 386 H 37.8635 3.81584 1.78805 0
M  V30 387 H 36.5385 2.6247 1.89449 0
M  V30 388 H 35.4455 3.73847 -0.137627 0
M  V30 389 H 36.7785 4.91935 -0.161399 0
M  V30 390 N 38.4306 0.297415 1.54768 0
M  V30 391 C 39.6786 -0.312295 1.99673 0
M  V30 392 C 39.9996 -1.54686 1.18732 0
M  V30 393 O 39.2696 -1.93854 0.282382 0
M  V30 394 H 37.8496 -0.118381 0.73756 0
M  V30 395 H 40.5116 0.407915 1.90583 0
M  V30 396 H 39.6076 -0.586813 3.06534 0
M  V30 397 N 39.9087 -1.5758 0.0250728 0
M  V30 398 C 40.8567 -2.11125 -0.97617 0
M  V30 399 C 41.8507 -1.03689 -1.33959 0
M  V30 400 O 43.0567 -1.22128 -1.3223 0
M  V30 401 H 39.4317 -0.674468 -0.332561 0
M  V30 402 H 41.4027 -2.94194 -0.499223 0
M  V30 403 C 40.1517 -2.65017 -2.2508 0
M  V30 404 H 39.4747 -3.47333 -1.9799 0
M  V30 405 H 40.9147 -3.06133 -2.93357 0
M  V30 406 C 39.3737 -1.57574 -2.97779 0
M  V30 407 O 39.9037 -0.973203 -3.89733 0
M  V30 408 N 38.1097 -1.29716 -2.60043 0
M  V30 409 H 37.6567 -1.789 -1.85345 0
M  V30 410 H 37.6147 -0.58051 -3.08994 0
M  V30 411 N 41.3868 0.248026 -1.55636 0
M  V30 412 C 42.6118 0.998028 -1.81808 0
M  V30 413 C 43.0368 1.78207 -0.601979 0
M  V30 414 O 42.3948 1.75653 0.448961 0
M  V30 415 C 42.4428 1.9125 -3.05705 0
M  V30 416 O 41.5468 3.00406 -2.82542 0
M  V30 417 H 40.8878 0.284045 -0.600179 0
M  V30 418 H 43.4178 0.269357 -2.02819 0
M  V30 419 H 43.4278 2.32737 -3.35108 0
M  V30 420 H 42.1028 1.33602 -3.93857 0
M  V30 421 H 40.6798 2.63056 -2.64303 0
M  V30 422 N 42.8649 1.48995 0.513639 0
M  V30 423 C 44.1119 1.57843 1.26854 0
M  V30 424 C 44.4399 0.259501 1.92761 0
M  V30 425 O 43.6949 -0.75159 1.80692 0
M  V30 426 C 43.9939 2.67756 2.36731 0
M  V30 427 C 43.6599 4.09669 1.88368 0
M  V30 428 C 42.3219 4.48291 1.74896 0
M  V30 429 C 44.6739 4.98537 1.52021 0
M  V30 430 C 42.0019 5.73568 1.23438 0
M  V30 431 C 44.3539 6.24319 1.0202 0
M  V30 432 C 43.0179 6.61783 0.871778 0
M  V30 433 H 42.2879 0.577587 0.464192 0
M  V30 434 H 44.9349 1.82778 0.571366 0
M  V30 435 H 43.2399 2.36743 3.12185 0
M  V30 436 H 44.9369 2.71813 2.9482 0
M  V30 437 H 41.5269 3.79176 1.99808 0
M  V30 438 H 45.7109 4.69363 1.61281 0
M  V30 439 H 40.9669 6.01304 1.10648 0
M  V30 440 H 45.1409 6.92566 0.729722 0
M  V30 441 H 42.7679 7.5874 0.470852 0
M  V30 442 N 44.343 -0.763751 1.37857 0
M  V30 443 C 45.293 -1.86765 1.30777 0
M  V30 444 C 46.277 -1.59726 0.194015 0
M  V30 445 O 47.469 -1.7172 0.42911 0
M  V30 446 C 44.598 -3.24343 1.12502 0
M  V30 447 C 43.684 -3.57307 2.28456 0
M  V30 448 N 44.075 -3.61398 3.53871 0
M  V30 449 C 42.373 -3.87517 2.20786 0
M  V30 450 C 43.074 -3.91339 4.30382 0
M  V30 451 N 42.05 -4.07649 3.59615 0
M  V30 452 H 45.852 -1.88191 2.25746 0
M  V30 453 H 43.366 -0.9606 1.30944 0
M  V30 454 H 45.363 -4.03327 1.05514 0
M  V30 455 H 44.023 -3.24175 0.184574 0
M  V30 456 H 45.034 -3.43407 3.87675 0
M  V30 457 H 41.711 -3.95125 1.34844 0
M  V30 458 H 43.101 -4.01213 5.3896 0
M  V30 459 N 45.8211 -1.22559 -0.990812 0
M  V30 460 C 46.7681 -0.997519 -2.0813 0
M  V30 461 C 47.7381 0.0814702 -1.659 0
M  V30 462 O 48.9231 -0.0685424 -1.90677 0
M  V30 463 C 46.0631 -0.583615 -3.40129 0
M  V30 464 C 45.1761 -1.7336 -3.9569 0
M  V30 465 C 44.3111 -1.26748 -5.15857 0
M  V30 466 C 43.3501 -2.38888 -5.63559 0
M  V30 467 N 42.4871 -1.93308 -6.74964 0
M  V30 468 H 47.3271 -1.93099 -2.26973 0
M  V30 469 H 44.8641 -0.962114 -1.11273 0
M  V30 470 H 46.8221 -0.324801 -4.15934 0
M  V30 471 H 45.4521 0.312845 -3.2128 0
M  V30 472 H 44.5041 -2.10669 -3.16738 0
M  V30 473 H 45.8161 -2.57704 -4.27071 0
M  V30 474 H 44.9701 -0.966173 -5.98957 0
M  V30 475 H 43.7091 -0.394272 -4.86104 0
M  V30 476 H 42.7141 -2.69805 -4.79046 0
M  V30 477 H 43.9391 -3.26728 -5.95336 0
M  V30 478 H 41.8851 -1.08352 -6.4699 0
M  V30 479 H 41.8021 -2.71217 -7.05675 0
M  V30 480 H 43.0701 -1.66252 -7.61564 0
M  V30 481 N 47.2992 1.18797 -1.03562 0
M  V30 482 C 48.5242 1.9314 -0.755764 0
M  V30 483 C 48.9492 1.7537 0.68022 0
M  V30 484 O 48.3072 1.06046 1.47051 0
M  V30 485 C 48.3552 3.42747 -1.12058 0
M  V30 486 O 47.4592 4.11683 -0.243124 0
M  V30 487 H 46.8002 0.602724 -0.278604 0
M  V30 488 H 49.3302 1.50678 -1.3841 0
M  V30 489 H 49.3402 3.93437 -1.08035 0
M  V30 490 H 48.0152 3.55002 -2.16672 0
M  V30 491 H 46.5922 3.71323 -0.342539 0
M  V30 492 N 48.7773 0.814389 1.34928 0
M  V30 493 C 50.0173 0.404165 2.00364 0
M  V30 494 C 50.3813 -1.01166 1.63185 0
M  V30 495 O 51.5823 -1.52431 2.21401 0
M  V30 496 C 49.8533 0.590718 3.52484 0
M  V30 497 S 51.4123 0.272075 4.37956 0
M  V30 498 H 48.2303 0.15311 0.694319 0
M  V30 499 H 50.8323 1.05834 1.64376 0
M  V30 500 H 49.5363 1.62099 3.77031 0
M  V30 501 H 49.0673 -0.0785013 3.93322 0
M  V30 502 H 51.0823 -0.917405 4.87645 0
M  V30 503 N 50.2554 -1.46986 0.568584 0
M  V30 504 C 51.5024 -2.02441 0.0487986 0
M  V30 505 C 51.8304 -1.44169 -1.30559 0
M  V30 506 O 51.0854 -0.591213 -1.86556 0
M  V30 507 C 51.3844 -3.57306 -0.081836 0
M  V30 508 C 51.0504 -4.34552 1.20313 0
M  V30 509 C 49.7124 -4.55376 1.5552 0
M  V30 510 C 52.0644 -4.79016 2.05411 0
M  V30 511 C 49.3924 -5.17913 2.7565 0
M  V30 512 C 51.7444 -5.42879 3.24754 0
M  V30 513 C 50.4084 -5.61933 3.60261 0
M  V30 514 H 49.6784 -0.740785 0.0178567 0
M  V30 515 H 52.3254 -1.76525 0.742384 0
M  V30 516 H 50.6304 -3.8228 -0.858463 0
M  V30 517 H 52.3274 -3.97876 -0.499546 0
M  V30 518 H 48.9174 -4.18631 0.919014 0
M  V30 519 H 53.1014 -4.62696 1.79516 0
M  V30 520 H 48.3574 -5.30858 3.03315 0
M  V30 521 H 52.5314 -5.76293 3.90973 0
M  V30 522 H 50.1584 -6.10161 4.53439 0
M  V30 523 N 51.7335 -0.305618 -1.54608 0
M  V30 524 C 52.6635 0.561482 -2.26649 0
M  V30 525 C 53.6445 1.13415 -1.26772 0
M  V30 526 O 54.8295 1.16262 -1.55553 0
M  V30 527 C 51.9595 1.73122 -3.01075 0
M  V30 528 C 50.9135 1.2887 -4.08138 0
M  V30 529 C 50.2395 2.54396 -4.70305 0
M  V30 530 C 51.5395 0.416578 -5.20636 0
M  V30 531 H 53.2335 -0.0393902 -2.99374 0
M  V30 532 H 50.7795 -0.020385 -1.43986 0
M  V30 533 H 52.7325 2.34396 -3.50195 0
M  V30 534 H 51.4565 2.3584 -2.25936 0
M  V30 535 H 50.1155 0.698991 -3.59875 0
M  V30 536 H 49.7635 3.15439 -3.918 0
M  V30 537 H 49.4635 2.25486 -5.42614 0
M  V30 538 H 50.9875 3.16464 -5.2219 0
M  V30 539 H 52.4015 0.935116 -5.65622 0
M  V30 540 H 50.7985 0.221046 -5.99693 0
M  V30 541 H 51.8685 -0.557162 -4.81688 0
M  V30 542 N 53.2116 1.57565 -0.0334293 0
M  V30 543 C 54.4516 1.93844 0.648379 0
M  V30 544 C 54.8156 0.910387 1.69044 0
M  V30 545 O 56.0166 1.15952 2.42505 0
M  V30 546 C 54.2876 3.35017 1.24492 0
M  V30 547 S 55.8466 3.93229 1.94721 0
M  V30 548 H 52.6646 0.678231 0.213364 0
M  V30 549 H 55.2666 1.95254 -0.0981253 0
M  V30 550 H 53.9706 4.07652 0.474128 0
M  V30 551 H 53.5016 3.37061 2.02864 0
M  V30 552 H 55.5166 3.77014 3.22606 0
M  V30 553 N 54.6897 -0.239769 1.55765 0
M  V30 554 C 55.6227 -1.32356 1.85895 0
M  V30 555 C 56.6007 -1.46053 0.714662 0
M  V30 556 O 57.7847 -1.62154 0.961157 0
M  V30 557 C 54.9117 -2.6962 2.04994 0
M  V30 558 C 53.9577 -2.73036 3.27648 0
M  V30 559 S 54.7907 -2.28929 4.84099 0
M  V30 560 C 55.9467 -3.68103 5.06212 0
M  V30 561 H 56.1797 -1.06601 2.77531 0
M  V30 562 H 53.7127 -0.441112 1.47965 0
M  V30 563 H 55.6707 -3.48653 2.16682 0
M  V30 564 H 54.3317 -2.92609 1.14188 0
M  V30 565 H 53.5247 -3.7386 3.38 0
M  V30 566 H 53.1267 -2.02052 3.14723 0
M  V30 567 H 55.4187 -4.63656 4.93993 0
M  V30 568 H 56.3617 -3.6268 6.08168 0
M  V30 569 H 56.7697 -3.60947 4.34025 0
M  V30 570 N 56.1678 -1.49265 -0.50573 0
M  V30 571 C 57.4138 -1.58748 -1.26202 0
M  V30 572 C 57.7468 -0.271227 -1.92297 0
M  V30 573 O 57.0218 0.724831 -1.80489 0
M  V30 574 C 57.3048 -2.74332 -2.33268 0
M  V30 575 C 57.1578 -4.15737 -1.71705 0
M  V30 576 C 58.4768 -2.85576 -3.34865 0
M  V30 577 H 55.5958 -0.577826 -0.457478 0
M  V30 578 H 58.2378 -1.81532 -0.560897 0
M  V30 579 H 56.3878 -2.55036 -2.93068 0
M  V30 580 H 58.0598 -4.46537 -1.15769 0
M  V30 581 H 56.3028 -4.21605 -1.02135 0
M  V30 582 H 56.9738 -4.92477 -2.49341 0
M  V30 583 H 59.4498 -3.03127 -2.8505 0
M  V30 584 H 58.3258 -3.68135 -4.07146 0
M  V30 585 H 58.5868 -1.94732 -3.96903 0
M  V30 586 N 57.6459 0.756429 -1.3826 0
M  V30 587 C 58.8859 1.52833 -1.35725 0
M  V30 588 C 59.2499 1.91926 0.0534106 0
M  V30 589 O 60.4509 2.68028 0.203613 0
M  V30 590 C 58.7219 2.74919 -2.28373 0
M  V30 591 S 60.2809 3.64817 -2.43832 0
M  V30 592 H 57.0989 0.523043 -0.481608 0
M  V30 593 H 59.7009 0.888212 -1.74158 0
M  V30 594 H 58.4049 2.44304 -3.29763 0
M  V30 595 H 57.9359 3.43878 -1.91079 0
M  V30 596 H 59.9509 4.676 -1.66027 0
M  V30 597 N 59.124 1.23083 0.984299 0
M  V30 598 C 60.071 1.00854 2.07598 0
M  V30 599 C 61.041 -0.0726709 1.65941 0
M  V30 600 O 62.226 0.0786535 1.90638 0
M  V30 601 C 59.366 0.601645 3.39815 0
M  V30 602 C 58.479 1.75456 3.94765 0
M  V30 603 C 57.614 1.29482 5.15177 0
M  V30 604 C 56.653 2.41873 5.62284 0
M  V30 605 N 55.79 1.96885 6.73929 0
M  V30 606 H 60.63 1.943 2.25946 0
M  V30 607 H 58.167 0.968001 1.10762 0
M  V30 608 H 60.125 0.346854 4.15756 0
M  V30 609 H 58.755 -0.295803 3.21442 0
M  V30 610 H 57.807 2.12346 3.15616 0
M  V30 611 H 59.119 2.59965 4.25699 0
M  V30 612 H 58.273 0.997923 5.98437 0
M  V30 613 H 57.012 0.420046 4.85888 0
M  V30 614 H 56.017 2.72342 4.77608 0
M  V30 615 H 57.242 3.29881 5.93595 0
M  V30 616 H 55.188 1.11782 6.46406 0
M  V30 617 H 55.105 2.74956 7.04227 0
M  V30 618 H 56.373 1.70289 7.60672 0
M  V30 619 N 60.6021 -1.18246 1.0419 0
M  V30 620 C 61.5491 -2.2192 0.634037 0
M  V30 621 C 62.5191 -1.62179 -0.358765 0
M  V30 622 O 63.7041 -1.89122 -0.252466 0
M  V30 623 C 60.8441 -3.451 0.00445535 0
M  V30 624 C 59.9571 -4.19174 1.04487 0
M  V30 625 C 59.0921 -5.29813 0.383676 0
M  V30 626 C 58.1311 -5.9566 1.4091 0
M  V30 627 N 57.2681 -6.97834 0.772784 0
M  V30 628 H 62.1081 -2.56164 1.52263 0
M  V30 629 H 59.6451 -1.25843 0.761701 0
M  V30 630 H 61.6031 -4.15485 -0.377919 0
M  V30 631 H 60.2331 -3.11472 -0.847652 0
M  V30 632 H 59.2851 -3.47604 1.54518 0
M  V30 633 H 60.5971 -4.64267 1.82368 0
M  V30 634 H 59.7511 -6.06677 -0.0528366 0
M  V30 635 H 58.4901 -4.85825 -0.427208 0
M  V30 636 H 57.4951 -5.17535 1.85574 0
M  V30 637 H 58.7201 -6.4173 2.22171 0
M  V30 638 H 56.6661 -6.55998 -0.0177708 0
M  V30 639 H 56.5831 -7.41186 1.48928 0
M  V30 640 H 57.8511 -7.78665 0.36071 0
M  V30 641 N 62.0802 -0.821533 -1.34494 0
M  V30 642 C 63.0282 -0.230702 -2.31453 0
M  V30 643 C 64.0222 0.627793 -1.57338 0
M  V30 644 O 65.2282 0.519288 -1.72347 0
M  V30 645 H 61.6032 -0.0558577 -0.749923 0
M  V30 646 H 63.5742 -1.06332 -2.78812 0
M  V30 647 C 62.3232 0.59391 -3.4259 0
M  V30 648 H 61.6462 -0.0573588 -3.99759 0
M  V30 649 H 63.0862 0.973446 -4.12674 0
M  V30 650 C 61.5452 1.76568 -2.86924 0
M  V30 651 O 62.0752 2.8638 -2.81691 0
M  V30 652 N 60.2812 1.58198 -2.43766 0
M  V30 653 H 59.8282 0.68872 -2.48222 0
M  V30 654 H 59.7862 2.36752 -2.06871 0
M  V30 655 N 63.5583 1.46682 -0.576371 0
M  V30 656 C 64.4883 2.33028 0.148397 0
M  V30 657 C 65.4693 1.44961 0.889956 0
M  V30 658 O 66.6543 1.73789 0.866662 0
M  V30 659 C 63.7843 3.27117 1.1667 0
M  V30 660 C 62.7383 4.24575 0.540386 0
M  V30 661 C 62.0643 5.08126 1.6647 0
M  V30 662 C 63.3643 5.19722 -0.518331 0
M  V30 663 H 65.0583 2.93875 -0.572509 0
M  V30 664 H 62.6043 1.41315 -0.276768 0
M  V30 665 H 64.5573 3.86374 1.68204 0
M  V30 666 H 63.2813 2.64364 1.9178 0
M  V30 667 H 61.9403 3.66571 0.0461769 0
M  V30 668 H 61.5883 4.41762 2.40531 0
M  V30 669 H 61.2883 5.74122 1.25131 0
M  V30 670 H 62.8123 5.70246 2.18293 0
M  V30 671 H 64.2263 5.73232 -0.0883058 0
M  V30 672 H 62.6233 5.94026 -0.851679 0
M  V30 673 H 63.6933 4.64037 -1.40703 0
M  V30 674 N 65.0364 0.313813 1.54444 0
M  V30 675 C 66.3134 -0.345447 1.92525 0
M  V30 676 C 66.6934 -1.70667 1.24242 0
M  V30 677 O 66.0414 -2.25273 0.382654 0
M  V30 678 C 66.2514 -0.44737 3.46121 0
M  V30 679 C 67.5994 -0.712238 4.18584 0
M  V30 680 O 68.6234 -0.530678 3.52225 0
M  V30 681 O 67.4824 -1.06183 5.36085 0
M  V30 682 H 64.5764 -0.195407 0.803583 0
M  V30 683 H 67.1224 0.362813 1.65776 0
M  V30 684 H 65.8944 0.509043 3.87975 0
M  V30 685 H 65.5174 -1.20359 3.78945 0
M  V30 686 N 66.5145 -1.57545 0.0417849 0
M  V30 687 C 67.7395 -1.97035 -0.647455 0
M  V30 688 C 68.1645 -0.918775 -1.64135 0
M  V30 689 O 67.5225 0.119006 -1.80909 0
M  V30 690 C 67.5705 -3.35609 -1.31905 0
M  V30 691 O 66.6745 -3.3287 -2.43457 0
M  V30 692 H 66.0155 -0.64211 -0.169086 0
M  V30 693 H 68.5455 -2.04318 0.107399 0
M  V30 694 H 68.5555 -3.72126 -1.67291 0
M  V30 695 H 67.2305 -4.11685 -0.590586 0
M  V30 696 H 65.8075 -3.08087 -2.10088 0
M  V30 697 N 67.9926 0.231505 -1.5589 0
M  V30 698 C 69.2206 0.974505 -1.82513 0
M  V30 699 C 69.6356 1.78344 -0.619591 0
M  V30 700 O 68.9926 1.77792 0.411848 0
M  V30 701 C 69.0436 1.90007 -3.07538 0
M  V30 702 O 68.7646 1.12385 -4.2344 0
M  V30 703 C 70.2656 2.75779 -3.47075 0
M  V30 704 H 67.4856 0.286065 -0.606966 0
M  V30 705 H 70.0296 0.249739 -2.02969 0
M  V30 706 H 68.1846 2.57891 -2.89086 0
M  V30 707 H 68.5986 1.75125 -4.944 0
M  V30 708 H 70.0726 3.36443 -4.37619 0
M  V30 709 H 70.5496 3.47672 -2.68367 0
M  V30 710 H 71.1556 2.13323 -3.67931 0
M  V30 711 N 69.4707 1.49531 0.497807 0
M  V30 712 C 70.6987 1.62893 1.27567 0
M  V30 713 C 71.1137 0.301585 1.86376 0
M  V30 714 O 70.4707 -0.713335 1.67982 0
M  V30 715 C 70.5217 2.70013 2.40364 0
M  V30 716 O 70.2427 3.976 1.83972 0
M  V30 717 C 71.7437 2.94109 3.31685 0
M  V30 718 H 68.9637 0.548298 0.386794 0
M  V30 719 H 71.5077 1.95584 0.597245 0
M  V30 720 H 69.6627 2.40092 3.04031 0
M  V30 721 H 70.0767 4.56631 2.58047 0
M  V30 722 H 71.5507 3.72788 4.07104 0
M  V30 723 H 72.0277 2.04147 3.88871 0
M  V30 724 H 72.6337 3.2546 2.73781 0
M  V30 725 N 70.9488 -0.749086 1.3866 0
M  V30 726 C 72.1948 -1.51056 1.35314 0
M  V30 727 C 72.5278 -1.94121 -0.0553751 0
M  V30 728 O 71.8028 -1.65763 -1.01749 0
M  V30 729 C 72.0858 -2.76003 2.31288 0
M  V30 730 C 71.9388 -2.39047 3.8102 0
M  V30 731 C 73.2578 -3.78046 2.2532 0
M  V30 732 H 70.3768 -0.547972 0.492844 0
M  V30 733 H 73.0188 -0.857628 1.69543 0
M  V30 734 H 71.1688 -3.31716 2.02229 0
M  V30 735 H 72.8408 -1.89074 4.20771 0
M  V30 736 H 71.0838 -1.71449 3.98482 0
M  V30 737 H 71.7548 -3.28462 4.4364 0
M  V30 738 H 74.2308 -3.31884 2.50983 0
M  V30 739 H 73.1068 -4.63159 2.94576 0
M  V30 740 H 73.3678 -4.23957 1.25352 0
M  V30 741 N 72.4269 -1.23603 -0.977757 0
M  V30 742 C 73.3899 -1.02069 -2.05218 0
M  V30 743 C 74.3899 0.0184305 -1.60789 0
M  V30 744 O 75.5799 -0.221569 -1.72785 0
M  V30 745 C 72.7119 -0.544926 -3.36517 0
M  V30 746 H 73.9049 -1.9742 -2.25755 0
M  V30 747 H 71.4579 -1.05684 -1.15155 0
M  V30 748 H 72.1929 0.412241 -3.21669 0
M  V30 749 H 71.9779 -1.2948 -3.70105 0
M  V30 750 H 73.4679 -0.414985 -4.15533 0
M  V30 751 N 73.905 1.17692 -1.04816 0
M  V30 752 C 75.151 1.88137 -0.75711 0
M  V30 753 C 75.484 1.80604 0.713841 0
M  V30 754 O 74.759 1.21146 1.52164 0
M  V30 755 C 75.042 3.38318 -1.2334 0
M  V30 756 C 74.895 3.54622 -2.76701 0
M  V30 757 C 76.214 4.32214 -0.829415 0
M  V30 758 H 73.333 0.683163 -0.27651 0
M  V30 759 H 75.975 1.38424 -1.30149 0
M  V30 760 H 74.125 3.80787 -0.770286 0
M  V30 761 H 75.797 3.21194 -3.31107 0
M  V30 762 H 74.04 2.97026 -3.16161 0
M  V30 763 H 74.711 4.60028 -3.05088 0
M  V30 764 H 77.187 3.97565 -1.22805 0
M  V30 765 H 76.063 5.35838 -1.19033 0
M  V30 766 H 76.324 4.41294 0.266891 0
M  V30 767 N 75.3831 0.828654 1.34056 0
M  V30 768 C 76.3331 0.226828 2.26869 0
M  V30 769 C 77.3171 -0.612243 1.48796 0
M  V30 770 O 78.5091 -0.465884 1.70759 0
M  V30 771 C 75.6381 -0.605654 3.37915 0
M  V30 772 C 74.7241 0.244361 4.23395 0
M  V30 773 N 75.1151 1.31815 4.88322 0
M  V30 774 C 73.4131 0.0296616 4.4599 0
M  V30 775 C 74.1141 1.83895 5.51867 0
M  V30 776 N 73.0901 1.14196 5.3147 0
M  V30 777 H 76.8921 1.04811 2.74576 0
M  V30 778 H 74.4061 0.67205 1.47842 0
M  V30 779 H 76.4031 -1.05302 4.03382 0
M  V30 780 H 75.0631 -1.42504 2.91758 0
M  V30 781 H 76.0741 1.70099 4.8917 0
M  V30 782 H 72.7511 -0.757097 4.10578 0
M  V30 783 H 74.1411 2.7376 6.136 0
M  V30 784 N 76.8612 -1.46375 0.584142 0
M  V30 785 C 78.1092 -2.01978 0.0701287 0
M  V30 786 C 78.4302 -1.4579 -1.295 0
M  V30 787 O 77.7002 -0.64314 -1.85042 0
M  V30 788 H 76.2802 -0.746648 0.0229345 0
M  V30 789 H 78.9422 -1.79461 0.760245 0
M  V30 790 H 78.0382 -3.121 0.0022064 0
M  V30 791 N 78.3393 -0.321999 -1.54275 0
M  V30 792 C 79.2493 0.553631 -2.27974 0
M  V30 793 C 80.2653 1.13054 -1.32268 0
M  V30 794 O 81.4413 1.15084 -1.6528 0
M  V30 795 C 78.5063 1.69927 -3.02201 0
M  V30 796 C 77.5673 1.15433 -4.1349 0
M  V30 797 C 76.8003 2.24537 -4.84168 0
M  V30 798 O 77.0233 3.44852 -4.5435 0
M  V30 799 O 75.9573 1.90044 -5.7111 0
M  V30 800 H 79.7833 -0.0448345 -3.03667 0
M  V30 801 H 77.3683 -0.0877418 -1.49142 0
M  V30 802 H 79.2503 2.3663 -3.48689 0
M  V30 803 H 77.9253 2.28395 -2.29385 0
M  V30 804 H 76.8323 0.452436 -3.71354 0
M  V30 805 H 78.1653 0.614805 -4.88345 0
M  V30 806 N 79.8174 1.5752 -0.0501392 0
M  V30 807 C 80.7274 2.14952 0.939827 0
M  V30 808 C 81.7434 1.10706 1.34239 0
M  V30 809 O 82.9194 1.42869 1.41952 0
M  V30 810 C 79.9844 2.68232 2.19665 0
M  V30 811 C 79.0454 3.87272 1.85253 0
M  V30 812 C 78.2784 4.38002 3.04943 0
M  V30 813 O 78.5014 3.87811 4.18281 0
M  V30 814 O 77.4354 5.29602 2.86017 0
M  V30 815 H 81.2614 2.9986 0.481392 0
M  V30 816 H 78.8464 1.4841 0.171699 0
M  V30 817 H 80.7284 3.02475 2.93406 0
M  V30 818 H 79.4034 1.86395 2.64648 0
M  V30 819 H 78.3104 3.5792 1.0883 0
M  V30 820 H 79.6434 4.70336 1.4507 0
M  V30 821 N 81.2955 -0.223234 1.56011 0
M  V30 822 C 82.5445 -0.945912 1.78144 0
M  V30 823 C 82.8575 -1.85567 0.618396 0
M  V30 824 O 84.0635 -2.61688 0.723318 0
M  V30 825 C 82.5195 -1.73216 3.15475 0
M  V30 826 C 82.1275 -0.868619 4.39499 0
M  V30 827 C 83.8715 -2.44615 3.46935 0
M  V30 828 C 81.7785 -1.65212 5.67855 0
M  V30 829 H 80.7085 -0.356929 0.664167 0
M  V30 830 H 83.3595 -0.199845 1.82409 0
M  V30 831 H 81.7415 -2.52107 3.05382 0
M  V30 832 H 82.9155 -0.120366 4.60643 0
M  V30 833 H 81.2305 -0.26683 4.15544 0
M  V30 834 H 83.8275 -3.03732 4.40058 0
M  V30 835 H 84.1705 -3.17417 2.69355 0
M  V30 836 H 84.7035 -1.72715 3.58349 0
M  V30 837 H 81.4425 -0.967407 6.48322 0
M  V30 838 H 80.9625 -2.37503 5.50774 0
M  V30 839 H 82.6415 -2.21322 6.07968 0
M  V30 840 N 82.7736 -1.49793 -0.48987 0
M  V30 841 C 84.0036 -1.6333 -1.26518 0
M  V30 842 C 84.4116 -0.308392 -1.8667 0
M  V30 843 O 83.7546 0.717512 -1.69108 0
M  V30 844 C 83.8166 -2.6522 -2.4269 0
M  V30 845 C 83.4806 -4.09279 -2.03321 0
M  V30 846 C 84.4776 -4.95738 -1.56652 0
M  V30 847 C 82.1626 -4.55082 -2.12616 0
M  V30 848 C 84.1566 -6.26041 -1.19795 0
M  V30 849 C 81.8436 -5.85396 -1.75371 0
M  V30 850 C 82.8416 -6.707 -1.29036 0
M  V30 851 O 82.5296 -7.98584 -0.92299 0
M  V30 852 H 82.2616 -0.552502 -0.389509 0
M  V30 853 H 84.8156 -1.96642 -0.593381 0
M  V30 854 H 83.0456 -2.27112 -3.12981 0
M  V30 855 H 84.7346 -2.68171 -3.04695 0
M  V30 856 H 85.5006 -4.61575 -1.48908 0
M  V30 857 H 81.3796 -3.88844 -2.47631 0
M  V30 858 H 84.9236 -6.92578 -0.835582 0
M  V30 859 H 80.8206 -6.19085 -1.82768 0
M  V30 860 H 81.5886 -8.11692 -1.05349 0
M  V30 861 N 84.2517 0.741722 -1.39055 0
M  V30 862 C 85.4917 1.51385 -1.37338 0
M  V30 863 C 85.8557 1.91972 0.0330513 0
M  V30 864 O 87.0567 2.68229 0.175174 0
M  V30 865 C 85.3277 2.72481 -2.31276 0
M  V30 866 S 86.8867 3.62211 -2.47687 0
M  V30 867 H 83.7047 0.517906 -0.487129 0
M  V30 868 H 86.3067 0.86969 -1.7509 0
M  V30 869 H 85.0107 2.40793 -3.32336 0
M  V30 870 H 84.5417 3.41832 -1.94716 0
M  V30 871 H 86.5567 4.65812 -1.70978 0
M  V30 872 N 85.7298 1.2412 0.971189 0
M  V30 873 C 86.6768 1.0305 2.06517 0
M  V30 874 C 87.6468 -0.0550666 1.66009 0
M  V30 875 O 88.8318 0.0988688 1.90544 0
M  V30 876 C 85.9718 0.637653 3.39158 0
M  V30 877 C 85.0848 1.79633 3.92882 0
M  V30 878 C 84.2198 1.34939 5.13775 0
M  V30 879 C 83.2588 2.47823 5.59687 0
M  V30 880 N 82.3958 2.04022 6.71803 0
M  V30 881 H 87.2358 1.96685 2.23873 0
M  V30 882 H 84.7728 0.979694 1.09729 0
M  V30 883 H 86.7308 0.390931 4.15364 0
M  V30 884 H 85.3608 -0.261693 3.21737 0
M  V30 885 H 84.4128 2.15681 3.13346 0
M  V30 886 H 85.7248 2.64466 4.22918 0
M  V30 887 H 84.8788 1.06134 5.97345 0
M  V30 888 H 83.6178 0.471557 4.85415 0
M  V30 889 H 82.6228 2.77392 4.74693 0
M  V30 890 H 83.8478 3.36158 5.90063 0
M  V30 891 H 81.7938 1.18632 6.45184 0
M  V30 892 H 81.7108 2.82409 7.01271 0
M  V30 893 H 82.9788 1.78347 7.58823 0
M  V30 894 N 87.2079 -1.17134 1.05439 0
M  V30 895 C 88.4329 -1.91913 0.786396 0
M  V30 896 C 88.8579 -1.7643 -0.652234 0
M  V30 897 O 88.2159 -1.08372 -1.45345 0
M  V30 898 C 88.2639 -3.40921 1.17497 0
M  V30 899 O 87.3679 -4.11244 0.308589 0
M  V30 900 H 86.7089 -0.598215 0.288158 0
M  V30 901 H 89.2389 -1.48457 1.4079 0
M  V30 902 H 89.2489 -3.91668 1.14281 0
M  V30 903 H 87.9239 -3.5151 2.22292 0
M  V30 904 H 86.5009 -3.70731 0.40157 0
M  V30 905 N 88.686 -0.835752 -1.33615 0
M  V30 906 C 89.926 -0.43599 -1.99696 0
M  V30 907 C 90.29 0.98557 -1.64774 0
M  V30 908 O 91.491 1.48889 -2.23798 0
M  V30 909 C 89.762 -0.646721 -3.515 0
M  V30 910 S 91.321 -0.341715 -4.37467 0
M  V30 911 H 88.139 -0.164136 -0.691795 0
M  V30 912 H 90.741 -1.08436 -1.62671 0
M  V30 913 H 89.445 -1.68077 -3.74404 0
M  V30 914 H 88.976 0.0159173 -3.93397 0
M  V30 915 H 90.991 0.839708 -4.89043 0
M  V30 916 N 90.1641 1.46063 -0.591896 0
M  V30 917 C 91.3941 2.06418 -0.0867676 0
M  V30 918 C 91.8021 1.43975 1.22751 0
M  V30 919 O 91.1451 0.542531 1.75506 0
M  V30 920 C 91.2071 3.59213 0.143725 0
M  V30 921 C 90.8711 4.439 -1.08635 0
M  V30 922 C 91.8681 4.79864 -2.00067 0
M  V30 923 C 89.5531 4.84896 -1.31077 0
M  V30 924 C 91.5471 5.55661 -3.12282 0
M  V30 925 C 89.2341 5.6045 -2.43596 0
M  V30 926 C 90.2321 5.95747 -3.34027 0
M  V30 927 O 89.9201 6.69772 -4.4459 0
M  V30 928 H 89.6521 0.673443 -0.0587447 0
M  V30 929 H 92.2061 1.88539 -0.814994 0
M  V30 930 H 90.4361 3.75433 0.926668 0
M  V30 931 H 92.1251 4.01463 0.5985 0
M  V30 932 H 92.8911 4.48763 -1.83947 0
M  V30 933 H 88.7701 4.56867 -0.61594 0
M  V30 934 H 92.3141 5.8313 -3.82891 0
M  V30 935 H 88.2111 5.90965 -2.59674 0
M  V30 936 H 88.9791 6.88207 -4.43073 0
M  V30 937 N 91.6422 0.330177 1.54103 0
M  V30 938 C 92.8902 -0.269871 2.0029 0
M  V30 939 C 93.2112 -1.52133 1.21986 0
M  V30 940 O 92.4812 -1.93212 0.323438 0
M  V30 941 H 91.0612 -0.10271 0.739905 0
M  V30 942 H 93.7232 0.448249 1.89675 0
M  V30 943 H 92.8192 -0.52166 3.07709 0
M  V30 944 N 93.1203 -1.57491 0.0584922 0
M  V30 945 C 94.0673 -2.11958 -0.913376 0
M  V30 946 C 95.0373 -1.02875 -1.30407 0
M  V30 947 O 96.2223 -1.30464 -1.39226 0
M  V30 948 C 93.3623 -2.67497 -2.18035 0
M  V30 949 C 92.4753 -3.90691 -1.84349 0
M  V30 950 C 91.6103 -4.3452 -3.05559 0
M  V30 951 C 90.6493 -5.50395 -2.67827 0
M  V30 952 N 89.7863 -5.89244 -3.81754 0
M  V30 953 H 94.6263 -2.94704 -0.442017 0
M  V30 954 H 92.1633 -1.45643 -0.206545 0
M  V30 955 H 94.1213 -2.978 -2.92183 0
M  V30 956 H 92.7513 -1.87537 -2.62735 0
M  V30 957 H 91.8033 -3.66934 -1.00319 0
M  V30 958 H 93.1153 -4.7489 -1.5258 0
M  V30 959 H 92.2693 -4.66414 -3.87998 0
M  V30 960 H 91.0083 -3.49147 -3.40511 0
M  V30 961 H 90.0133 -5.18165 -1.83806 0
M  V30 962 H 91.2383 -6.3749 -2.34059 0
M  V30 963 H 89.1843 -5.06823 -4.16493 0
M  V30 964 H 89.1013 -6.68151 -3.53708 0
M  V30 965 H 90.3693 -6.25756 -4.64811 0
M  V30 966 N 94.5984 0.214957 -1.56127 0
M  V30 967 C 95.5454 1.26642 -1.92952 0
M  V30 968 C 96.5154 1.46244 -0.78753 0
M  V30 969 O 97.7004 1.59704 -1.04399 0
M  V30 970 C 94.8404 2.6104 -2.25726 0
M  V30 971 C 93.9534 2.49183 -3.52891 0
M  V30 972 C 93.0884 3.76149 -3.7508 0
M  V30 973 C 92.1274 3.59041 -4.95738 0
M  V30 974 N 91.2644 4.77972 -5.14283 0
M  V30 975 H 96.1044 0.945384 -2.82607 0
M  V30 976 H 93.6414 0.455489 -1.3987 0
M  V30 977 H 95.5994 3.39313 -2.42739 0
M  V30 978 H 94.2294 2.91227 -1.39236 0
M  V30 979 H 93.2814 1.6231 -3.44034 0
M  V30 980 H 94.5934 2.32466 -4.41318 0
M  V30 981 H 93.7474 4.62865 -3.92226 0
M  V30 982 H 92.4864 3.95799 -2.84947 0
M  V30 983 H 91.4914 2.7071 -4.78535 0
M  V30 984 H 92.7164 3.40856 -5.87362 0
M  V30 985 H 90.6624 4.97923 -4.27093 0
M  V30 986 H 90.5794 4.64006 -5.96853 0
M  V30 987 H 91.8474 5.66096 -5.35869 0
M  V30 988 N 96.0765 1.50051 0.48192 0
M  V30 989 C 97.3065 1.63999 1.2565 0
M  V30 990 C 97.7145 0.318288 1.86504 0
M  V30 991 O 97.0575 -0.708534 1.69486 0
M  V30 992 C 97.1195 2.66504 2.4128 0
M  V30 993 C 96.7835 4.10352 2.01148 0
M  V30 994 C 97.7805 4.96562 1.54021 0
M  V30 995 C 95.4655 4.56203 2.10199 0
M  V30 996 C 97.4595 6.26668 1.16473 0
M  V30 997 C 95.1465 5.86318 1.72264 0
M  V30 998 C 96.1445 6.71375 1.25477 0
M  V30 999 O 95.8325 7.99062 0.880626 0
M  V30 1000 H 95.5645 0.55456 0.386574 0
M  V30 1001 H 98.1185 1.96954 0.582944 0
M  V30 1002 H 96.3485 2.28769 3.11772 0
M  V30 1003 H 98.0375 2.69783 3.03268 0
M  V30 1004 H 98.8035 4.62358 1.46458 0
M  V30 1005 H 94.6825 3.90152 2.45566 0
M  V30 1006 H 98.2265 6.93011 0.798841 0
M  V30 1007 H 94.1235 6.20046 1.79482 0
M  V30 1008 H 94.8915 8.12239 1.01043 0
M  V30 1009 N 97.5546 -0.734337 1.39446 0
M  V30 1010 C 98.8026 -1.49096 1.36436 0
M  V30 1011 C 99.1236 -1.94961 -0.0388255 0
M  V30 1012 O 98.3936 -1.69033 -0.990191 0
M  V30 1013 H 96.9736 -0.5531 0.502085 0
M  V30 1014 H 99.6356 -0.871725 1.74319 0
M  V30 1015 H 98.7316 -2.37276 2.02747 0
M  V30 1016 N 99.0327 -1.24633 -0.964593 0
M  V30 1017 C 100.444 -1.08045 -1.5226 0
M  V30 1018 C 100.795 0.347116 -1.93105 0
M  V30 1019 O 99.9197 1.23588 -1.77637 0
M  V30 1020 C 100.515 -1.95514 -2.76695 0
M  V30 1021 C 99.0737 -1.8314 -3.28841 0
M  V30 1022 C 98.2207 -1.90262 -2.01732 0
M  V30 1023 H 101.172 -1.38064 -0.782553 0
M  V30 1024 H 101.193 -1.48925 -3.50145 0
M  V30 1025 H 100.705 -2.99407 -2.46936 0
M  V30 1026 H 98.8057 -0.82092 -3.63444 0
M  V30 1027 H 98.9187 -2.67406 -3.97531 0
M  V30 1028 H 97.2827 -1.34027 -2.16584 0
M  V30 1029 H 98.0657 -2.9574 -1.74334 0
M  V30 1030 N 100.511 1.16574 -1.06058 0
M  V30 1031 C 101.458 2.20883 -0.669263 0
M  V30 1032 C 102.428 1.62729 0.332918 0
M  V30 1033 O 103.613 1.895 0.222346 0
M  V30 1034 C 100.753 3.45049 -0.0593572 0
M  V30 1035 C 99.8658 4.17458 -1.11143 0
M  V30 1036 C 99.0008 5.29135 -0.467916 0
M  V30 1037 C 98.0398 5.93343 -1.50369 0
M  V30 1038 N 97.1768 6.96516 -0.883706 0
M  V30 1039 H 102.017 2.53709 -1.5632 0
M  V30 1040 H 99.5538 1.24616 -0.781625 0
M  V30 1041 H 101.512 4.16033 0.311771 0
M  V30 1042 H 100.142 3.12781 0.797992 0
M  V30 1043 H 99.1938 3.45101 -1.60029 0
M  V30 1044 H 100.506 4.61307 -1.89731 0
M  V30 1045 H 99.6598 6.06684 -0.0436871 0
M  V30 1046 H 98.3988 4.86443 0.349864 0
M  V30 1047 H 97.4038 5.14517 -1.93784 0
M  V30 1048 H 98.6288 6.38114 -2.32352 0
M  V30 1049 H 96.5748 6.55943 -0.086595 0
M  V30 1050 H 96.4918 7.38723 -1.607 0
M  V30 1051 H 97.7598 7.77993 -0.484543 0
M  V30 1052 N 101.989 0.842826 1.3317 0
M  V30 1053 C 103.237 0.439577 1.97262 0
M  V30 1054 C 103.558 -1.00548 1.67078 0
M  V30 1055 O 102.828 -1.70098 0.971779 0
M  V30 1056 H 101.408 0.159558 0.72976 0
M  V30 1057 H 104.07 1.07665 1.62463 0
M  V30 1058 H 103.166 0.574886 3.0676 0
M  V30 1059 N 103.467 -1.45747 0.599634 0
M  V30 1060 C 104.697 -2.06369 0.0977132 0
M  V30 1061 C 105.105 -1.44624 -1.21985 0
M  V30 1062 O 104.448 -0.551831 -1.75216 0
M  V30 1063 C 104.51 -3.59284 -0.124673 0
M  V30 1064 C 104.174 -4.43318 1.10987 0
M  V30 1065 C 105.171 -4.78796 2.02609 0
M  V30 1066 C 102.856 -4.84194 1.33647 0
M  V30 1067 C 104.85 -5.53997 3.15224 0
M  V30 1068 C 102.537 -5.5915 2.46565 0
M  V30 1069 C 103.535 -5.93968 3.37182 0
M  V30 1070 O 103.223 -6.67405 4.48136 0
M  V30 1071 H 102.955 -0.673122 0.0623153 0
M  V30 1072 H 105.509 -1.88104 0.824981 0
M  V30 1073 H 103.739 -3.75919 -0.906745 0
M  V30 1074 H 105.428 -4.01775 -0.577201 0
M  V30 1075 H 106.194 -4.47781 1.86325 0
M  V30 1076 H 102.073 -4.56534 0.64016 0
M  V30 1077 H 105.617 -5.81091 3.85978 0
M  V30 1078 H 101.514 -5.89579 2.62805 0
M  V30 1079 H 102.282 -6.85847 4.46717 0
M  V30 1080 N 104.945 -0.338344 -1.53925 0
M  V30 1081 C 106.193 0.259245 -2.0043 0
M  V30 1082 C 106.514 1.51484 -1.22791 0
M  V30 1083 O 105.784 1.93037 -0.33368 0
M  V30 1084 H 104.364 0.0987845 -0.740439 0
M  V30 1085 H 107.026 -0.458302 -1.89435 0
M  V30 1086 H 106.122 0.505334 -3.07982 0
M  V30 1087 N 106.423 1.57458 -0.0668435 0
M  V30 1088 C 107.653 1.97337 0.611677 0
M  V30 1089 C 108.061 0.943744 1.63982 0
M  V30 1090 O 107.404 -0.0785584 1.83532 0
M  V30 1091 C 107.466 3.33511 1.34205 0
M  V30 1092 C 107.13 4.54598 0.467941 0
M  V30 1093 C 108.127 5.19186 -0.272439 0
M  V30 1094 C 105.812 5.0075 0.39427 0
M  V30 1095 C 107.806 6.28274 -1.07476 0
M  V30 1096 C 105.493 6.09711 -0.411729 0
M  V30 1097 C 106.491 6.73335 -1.14492 0
M  V30 1098 O 106.179 7.80199 -1.93763 0
M  V30 1099 H 105.911 0.654042 0.170893 0
M  V30 1100 H 108.465 2.04961 -0.134289 0
M  V30 1101 H 106.695 3.22487 2.13398 0
M  V30 1102 H 108.384 3.58029 1.91233 0
M  V30 1103 H 109.15 4.84477 -0.225086 0
M  V30 1104 H 105.029 4.51009 0.954569 0
M  V30 1105 H 108.573 6.77866 -1.64755 0
M  V30 1106 H 104.47 6.43854 -0.460664 0
M  V30 1107 H 105.238 7.97053 -1.86142 0
M  V30 1108 N 107.901 -0.206675 1.56239 0
M  V30 1109 C 109.149 -0.927007 1.79586 0
M  V30 1110 C 109.47 -1.8427 0.637929 0
M  V30 1111 O 108.74 -1.92849 -0.344398 0
M  V30 1112 H 107.32 -0.345292 0.662407 0
M  V30 1113 H 109.982 -0.21496 1.93711 0
M  V30 1114 H 109.078 -1.52501 2.72305 0
M  V30 1115 N 109.379 -1.50304 -0.473955 0
M  V30 1116 C 110.311 -1.65109 -1.58971 0
M  V30 1117 C 111.324 -0.532676 -1.53839 0
M  V30 1118 O 112.513 -0.805751 -1.59279 0
M  V30 1119 C 109.613 -1.61684 -2.97845 0
M  V30 1120 C 108.786 -2.8951 -3.27876 0
M  V30 1121 C 107.845 -2.78768 -4.4629 0
M  V30 1122 O 106.871 -3.52722 -4.46739 0
M  V30 1123 N 108.073 -1.9213 -5.47783 0
M  V30 1124 H 110.838 -2.61347 -1.46689 0
M  V30 1125 H 108.399 -1.47732 -0.662324 0
M  V30 1126 H 110.391 -1.52114 -3.75024 0
M  V30 1127 H 108.961 -0.731925 -3.03911 0
M  V30 1128 H 108.181 -3.13228 -2.39336 0
M  V30 1129 H 109.469 -3.74199 -3.4475 0
M  V30 1130 H 108.867 -1.31353 -5.50239 0
M  V30 1131 H 107.424 -1.88466 -6.23958 0
M  V30 1132 N 110.857 0.726932 -1.39834 0
M  V30 1133 C 112.105 1.4837 -1.37225 0
M  V30 1134 C 112.426 1.94979 0.0284857 0
M  V30 1135 O 111.696 1.69555 0.981213 0
M  V30 1136 H 110.276 0.55043 -0.505011 0
M  V30 1137 H 112.938 0.862468 -1.74778 0
M  V30 1138 H 112.034 2.36198 -2.04003 0
M  V30 1139 N 112.336 1.25143 0.95797 0
M  V30 1140 C 113.299 1.05321 2.03569 0
M  V30 1141 C 114.299 0.007152 1.60798 0
M  V30 1142 O 115.489 0.24903 1.72411 0
M  V30 1143 C 112.621 0.598394 3.35607 0
M  V30 1144 H 113.814 2.00986 2.22586 0
M  V30 1145 H 111.367 1.07502 1.13459 0
M  V30 1146 H 112.102 -0.361014 3.22284 0
M  V30 1147 H 111.887 1.35351 3.67998 0
M  V30 1148 H 113.377 0.48104 4.1482 0
M  V30 1149 N 113.814 -1.1601 1.06675 0
M  V30 1150 C 115.062 -1.86264 0.784229 0
M  V30 1151 C 115.383 -1.82328 -0.691488 0
M  V30 1152 O 114.653 -1.25947 -1.50047 0
M  V30 1153 H 113.233 -0.689621 0.28711 0
M  V30 1154 H 115.895 -1.40664 1.34906 0
M  V30 1155 H 114.991 -2.91595 1.11259 0
M  V30 1156 N 115.292 -0.849877 -1.32721 0
M  V30 1157 C 116.52 -0.464754 -2.01613 0
M  V30 1158 C 116.935 0.937191 -1.63897 0
M  V30 1159 O 116.292 1.61081 -0.857856 0
M  V30 1160 C 116.343 -0.588638 -3.56675 0
M  V30 1161 O 116.064 -1.93535 -3.93034 0
M  V30 1162 C 117.565 -0.2019 -4.4284 0
M  V30 1163 H 114.785 -0.183215 -0.645502 0
M  V30 1164 H 117.329 -1.1455 -1.69407 0
M  V30 1165 H 115.484 0.0443159 -3.87375 0
M  V30 1166 H 115.898 -1.92871 -4.87751 0
M  V30 1167 H 117.372 -0.339599 -5.50954 0
M  V30 1168 H 117.849 0.857224 -4.30753 0
M  V30 1169 H 118.455 -0.809733 -4.17521 0
M  V30 1170 N 116.77 1.45427 -0.607355 0
M  V30 1171 C 117.7 2.3329 0.0989352 0
M  V30 1172 C 118.681 1.46816 0.859007 0
M  V30 1173 O 119.866 1.75588 0.829604 0
M  V30 1174 C 116.996 3.29518 1.09705 0
M  V30 1175 C 115.95 4.25626 0.450206 0
M  V30 1176 C 115.276 5.11542 1.55655 0
M  V30 1177 C 116.576 5.18505 -0.628455 0
M  V30 1178 H 118.27 2.92595 -0.634716 0
M  V30 1179 H 115.816 1.40696 -0.306681 0
M  V30 1180 H 117.769 3.89855 1.59971 0
M  V30 1181 H 116.493 2.68372 1.86129 0
M  V30 1182 H 115.152 3.66586 -0.0315886 0
M  V30 1183 H 114.8 4.46765 2.31107 0
M  V30 1184 H 114.5 5.76647 1.12925 0
M  V30 1185 H 116.024 5.74748 2.06148 0
M  V30 1186 H 117.438 5.72916 -0.209877 0
M  V30 1187 H 115.835 5.92085 -0.977489 0
M  V30 1188 H 116.905 4.60948 -1.50514 0
M  V30 1189 N 118.248 0.346503 1.53744 0
M  V30 1190 C 119.473 -0.253074 2.0585 0
M  V30 1191 C 119.898 -1.43202 1.21962 0
M  V30 1192 O 119.256 -1.79783 0.234073 0
M  V30 1193 C 119.304 -0.643193 3.54817 0
M  V30 1194 O 118.408 -1.74286 3.73762 0
M  V30 1195 H 117.749 -0.0413583 0.662711 0
M  V30 1196 H 120.279 0.501574 1.98357 0
M  V30 1197 H 120.289 -0.919526 3.97503 0
M  V30 1198 H 118.964 0.218966 4.15323 0
M  V30 1199 H 117.541 -1.46356 3.42979 0
M  V30 1200 N 119.726 -1.57421 0.075193 0
M  V30 1201 C 120.954 -1.97946 -0.602076 0
M  V30 1202 C 121.369 -0.953674 -1.62943 0
M  V30 1203 O 120.726 0.0592551 -1.82404 0
M  V30 1204 C 120.777 -3.38546 -1.26762 0
M  V30 1205 O 120.498 -4.37195 -0.281376 0
M  V30 1206 C 121.999 -3.93966 -2.03239 0
M  V30 1207 H 119.219 -0.650918 -0.162931 0
M  V30 1208 H 121.763 -2.03959 0.148601 0
M  V30 1209 H 119.918 -3.33609 -1.96936 0
M  V30 1210 H 120.332 -5.18975 -0.759267 0
M  V30 1211 H 121.806 -4.94555 -2.45193 0
M  V30 1212 H 122.283 -3.30693 -2.8903 0
M  V30 1213 H 122.889 -4.02315 -1.37924 0
M  V30 1214 N 121.204 0.198386 -1.56346 0
M  V30 1215 C 122.481 0.944982 -1.71258 0
M  V30 1216 C 122.861 2.0151 -0.629048 0
M  V30 1217 O 122.209 2.25639 0.360473 0
M  V30 1218 C 122.419 1.5344 -3.1346 0
M  V30 1219 C 123.767 2.01778 -3.73591 0
M  V30 1220 O 124.791 1.63288 -3.16568 0
M  V30 1221 O 123.65 2.72594 -4.73661 0
M  V30 1222 H 120.744 0.442939 -0.69838 0
M  V30 1223 H 123.29 0.188342 -1.68652 0
M  V30 1224 H 122.062 0.762869 -3.83792 0
M  V30 1225 H 121.685 2.35596 -3.20282 0
M  V30 1226 N 122.682 1.50554 0.465978 0
M  V30 1227 C 123.629 1.6979 1.56333 0
M  V30 1228 C 124.599 0.539239 1.57103 0
M  V30 1229 O 125.784 0.770401 1.74555 0
M  V30 1230 C 122.924 1.80273 2.94271 0
M  V30 1231 C 122.037 3.07674 3.0325 0
M  V30 1232 C 121.172 3.08922 4.32135 0
M  V30 1233 C 120.211 4.30755 4.34875 0
M  V30 1234 N 119.348 4.29714 5.55239 0
M  V30 1235 H 124.188 2.63472 1.39235 0
M  V30 1236 H 121.725 1.30602 0.676873 0
M  V30 1237 H 123.683 1.84332 3.74269 0
M  V30 1238 H 122.313 0.900258 3.09992 0
M  V30 1239 H 121.365 3.13062 2.16094 0
M  V30 1240 H 122.677 3.97642 3.01135 0
M  V30 1241 H 121.831 3.11738 5.20485 0
M  V30 1242 H 120.57 2.16792 4.36866 0
M  V30 1243 H 119.575 4.28146 3.44922 0
M  V30 1244 H 120.8 5.24117 4.31831 0
M  V30 1245 H 118.746 3.4044 5.60746 0
M  V30 1246 H 118.663 5.13456 5.54886 0
M  V30 1247 H 119.931 4.36683 6.457 0
M  V30 1248 N 124.16 -0.719506 1.40217 0
M  V30 1249 C 125.408 -1.47641 1.3801 0
M  V30 1250 C 125.729 -1.94992 -0.018145 0
M  V30 1251 O 124.999 -1.70073 -0.972207 0
M  V30 1252 H 123.579 -0.547744 0.507923 0
M  V30 1253 H 126.241 -0.853187 1.75233 0
M  V30 1254 H 125.337 -2.35112 2.05253 0
M  V30 1255 N 125.638 -1.25649 -0.95132 0
M  V30 1256 C 126.548 -1.08073 -2.08224 0
M  V30 1257 C 127.564 -0.0169666 -1.73992 0
M  V30 1258 O 128.74 -0.218593 -2.0021 0
M  V30 1259 C 125.805 -0.704922 -3.39458 0
M  V30 1260 C 124.866 -1.84699 -3.87537 0
M  V30 1261 C 124.099 -1.48902 -5.12508 0
M  V30 1262 O 124.322 -0.386156 -5.69091 0
M  V30 1263 O 123.256 -2.32033 -5.55378 0
M  V30 1264 H 127.082 -2.02924 -2.25954 0
M  V30 1265 H 124.667 -1.04618 -1.06656 0
M  V30 1266 H 126.549 -0.507609 -4.18332 0
M  V30 1267 H 125.224 0.214291 -3.2299 0
M  V30 1268 H 124.131 -2.09919 -3.09653 0
M  V30 1269 H 125.464 -2.74557 -4.08509 0
M  V30 1270 N 127.117 1.15442 -1.07289 0
M  V30 1271 C 128.342 1.90638 -0.816828 0
M  V30 1272 C 128.767 1.77445 0.624083 0
M  V30 1273 O 128.125 1.10671 1.43602 0
M  V30 1274 C 128.173 3.39008 -1.22906 0
M  V30 1275 O 127.277 4.10701 -0.373975 0
M  V30 1276 H 126.618 0.593555 -0.297638 0
M  V30 1277 H 129.148 1.46198 -1.43134 0
M  V30 1278 H 129.158 3.89801 -1.20497 0
M  V30 1279 H 127.833 3.47929 -2.27856 0
M  V30 1280 H 126.41 3.70046 -0.460499 0
M  V30 1281 N 128.595 0.856903 1.32268 0
M  V30 1282 C 129.525 0.31858 2.31316 0
M  V30 1283 C 130.506 -0.583487 1.59779 0
M  V30 1284 O 131.691 -0.503259 1.87566 0
M  V30 1285 C 128.821 -0.491979 3.43798 0
M  V30 1286 C 127.775 0.315849 4.26833 0
M  V30 1287 C 127.101 -0.619586 5.31098 0
M  V30 1288 C 128.401 1.54282 4.98993 0
M  V30 1289 H 130.095 1.14621 2.76591 0
M  V30 1290 H 127.641 0.552613 1.32974 0
M  V30 1291 H 129.594 -0.879012 4.1213 0
M  V30 1292 H 128.318 -1.35299 2.97257 0
M  V30 1293 H 126.977 0.684664 3.6015 0
M  V30 1294 H 126.625 -1.47751 4.8081 0
M  V30 1295 H 126.325 -0.0830621 5.87541 0
M  V30 1296 H 127.849 -1.00375 6.02293 0
M  V30 1297 H 129.263 1.22796 5.59995 0
M  V30 1298 H 127.66 2.01745 5.65172 0
M  V30 1299 H 128.73 2.30285 4.26728 0
M  V30 1300 N 130.073 -1.45103 0.615059 0
M  V30 1301 C 131.321 -2.01784 0.112955 0
M  V30 1302 C 131.642 -1.48504 -1.26378 0
M  V30 1303 O 130.912 -0.682245 -1.83636 0
M  V30 1304 H 129.492 -0.745993 0.0387668 0
M  V30 1305 H 132.154 -1.77808 0.798141 0
M  V30 1306 H 131.25 -3.12025 0.0684069 0
M  V30 1307 N 131.551 -0.354651 -1.53558 0
M  V30 1308 C 132.8 0.239504 -2.00273 0
M  V30 1309 C 133.113 1.50759 -1.24623 0
M  V30 1310 O 134.319 2.17968 -1.61871 0
M  V30 1311 C 132.775 0.477341 -3.5672 0
M  V30 1312 C 132.383 -0.775488 -4.41237 0
M  V30 1313 C 134.127 1.02975 -4.11821 0
M  V30 1314 C 132.034 -0.507838 -5.89216 0
M  V30 1315 H 130.964 0.0932743 -0.748208 0
M  V30 1316 H 133.615 -0.471701 -1.77334 0
M  V30 1317 H 131.997 1.24953 -3.7577 0
M  V30 1318 H 133.171 -1.54963 -4.33962 0
M  V30 1319 H 131.486 -1.25033 -3.97185 0
M  V30 1320 H 134.083 1.24513 -5.2 0
M  V30 1321 H 134.426 1.98862 -3.65731 0
M  V30 1322 H 134.959 0.317994 -3.96527 0
M  V30 1323 H 131.698 -1.43674 -6.39561 0
M  V30 1324 H 131.218 0.228011 -5.99366 0
M  V30 1325 H 132.897 -0.129238 -6.46871 0
M  V30 1326 N 133.029 1.57378 -0.0835403 0
M  V30 1327 C 133.976 2.13384 0.879539 0
M  V30 1328 C 134.946 1.04936 1.28754 0
M  V30 1329 O 136.131 1.32662 1.37133 0
M  V30 1330 C 133.271 2.70932 2.13752 0
M  V30 1331 C 132.384 3.93575 1.7811 0
M  V30 1332 C 131.519 4.39326 2.98607 0
M  V30 1333 C 130.558 5.54587 2.59037 0
M  V30 1334 N 129.695 5.95243 3.72331 0
M  V30 1335 H 134.535 2.9537 0.395076 0
M  V30 1336 H 132.072 1.45953 0.183349 0
M  V30 1337 H 134.03 3.02411 2.87408 0
M  V30 1338 H 132.66 1.91693 2.59718 0
M  V30 1339 H 131.712 3.68483 0.94469 0
M  V30 1340 H 133.024 4.77258 1.45005 0
M  V30 1341 H 132.178 4.72528 3.80529 0
M  V30 1342 H 130.917 3.5452 3.34913 0
M  V30 1343 H 129.922 5.21024 1.75539 0
M  V30 1344 H 131.147 6.41133 2.23887 0
M  V30 1345 H 129.093 5.13385 4.08378 0
M  V30 1346 H 129.01 6.73694 3.43034 0
M  V30 1347 H 130.278 6.33072 4.54797 0
M  V30 1348 N 134.507 -0.190092 1.56449 0
M  V30 1349 C 135.457 -1.23977 1.91347 0
M  V30 1350 C 136.441 -1.40747 0.779693 0
M  V30 1351 O 137.633 -1.43033 1.04262 0
M  V30 1352 C 134.762 -2.58347 2.26079 0
M  V30 1353 C 133.848 -2.4535 3.45925 0
M  V30 1354 N 134.239 -2.02039 4.63696 0
M  V30 1355 C 132.537 -2.76229 3.50162 0
M  V30 1356 C 133.238 -2.01053 5.4585 0
M  V30 1357 N 132.214 -2.42747 4.8639 0
M  V30 1358 H 136.016 -0.896318 2.79899 0
M  V30 1359 H 133.53 -0.398496 1.57435 0
M  V30 1360 H 135.527 -3.34173 2.49267 0
M  V30 1361 H 134.187 -2.93512 1.38856 0
M  V30 1362 H 135.198 -1.7267 4.88268 0
M  V30 1363 H 131.875 -3.15556 2.73369 0
M  V30 1364 H 133.265 -1.69426 6.50188 0
M  V30 1365 N 135.985 -1.50799 -0.457987 0
M  V30 1366 C 136.895 -1.73426 -1.57989 0
M  V30 1367 C 137.911 -0.617745 -1.62665 0
M  V30 1368 O 139.087 -0.897614 -1.80291 0
M  V30 1369 C 136.152 -1.83557 -2.94122 0
M  V30 1370 C 135.213 -3.07345 -2.99729 0
M  V30 1371 C 134.446 -3.16983 -4.29368 0
M  V30 1372 O 134.669 -2.33077 -5.20607 0
M  V30 1373 O 133.603 -4.09812 -4.40837 0
M  V30 1374 H 137.429 -2.68555 -1.41817 0
M  V30 1375 H 135.014 -1.35052 -0.638859 0
M  V30 1376 H 136.896 -1.92326 -3.74952 0
M  V30 1377 H 135.571 -0.916137 -3.10465 0
M  V30 1378 H 134.478 -3.04068 -2.1793 0
M  V30 1379 H 135.811 -3.9891 -2.88326 0
M  V30 1380 N 137.463 0.71206 -1.40597 0
M  V30 1381 C 138.373 1.8562 -1.43466 0
M  V30 1382 C 139.389 1.70902 -0.326902 0
M  V30 1383 O 140.565 1.93105 -0.572043 0
M  V30 1384 C 137.63 3.21451 -1.29884 0
M  V30 1385 C 136.691 3.48398 -2.50833 0
M  V30 1386 C 135.924 4.77749 -2.3789 0
M  V30 1387 O 136.147 5.53089 -1.39459 0
M  V30 1388 O 135.081 5.05111 -3.27333 0
M  V30 1389 H 138.907 1.86155 -2.39958 0
M  V30 1390 H 136.492 0.86295 -1.21957 0
M  V30 1391 H 138.374 4.02579 -1.24531 0
M  V30 1392 H 137.049 3.21636 -0.364997 0
M  V30 1393 H 135.956 2.67265 -2.61763 0
M  V30 1394 H 137.289 3.53014 -3.4299 0
M  V30 1395 N 138.941 1.26152 0.944643 0
M  V30 1396 C 139.904 1.07474 2.0244 0
M  V30 1397 C 140.904 0.0242064 1.60782 0
M  V30 1398 O 142.094 0.267302 1.72137 0
M  V30 1399 C 139.226 0.633956 3.34953 0
M  V30 1400 H 140.419 2.03336 2.20442 0
M  V30 1401 H 137.972 1.087 1.12312 0
M  V30 1402 H 138.707 -0.326811 3.22649 0
M  V30 1403 H 138.492 1.39247 3.66542 0
M  V30 1404 H 139.982 0.52501 4.14287 0
M  V30 1405 N 140.419 -1.14872 1.07899 0
M  V30 1406 C 141.83 -1.67367 0.827363 0
M  V30 1407 C 142.181 -1.85236 -0.646693 0
M  V30 1408 O 141.306 -1.55974 -1.50004 0
M  V30 1409 C 141.901 -3.04016 1.49532 0
M  V30 1410 C 140.46 -3.53566 1.29106 0
M  V30 1411 C 139.607 -2.29161 1.56143 0
M  V30 1412 H 142.558 -0.990083 1.24028 0
M  V30 1413 H 142.579 -3.69219 0.919643 0
M  V30 1414 H 142.091 -2.90978 2.56814 0
M  V30 1415 H 140.192 -3.71835 0.238713 0
M  V30 1416 H 140.305 -4.34661 2.01511 0
M  V30 1417 H 138.669 -2.34978 0.982717 0
M  V30 1418 H 139.452 -2.18705 2.64619 0
M  V30 1419 N 141.898 -0.863906 -1.31812 0
M  V30 1420 C 143.146 -0.470904 -1.96537 0
M  V30 1421 C 143.467 0.978771 -1.68657 0
M  V30 1422 O 142.737 1.6853 -0.998717 0
M  V30 1423 H 141.317 -0.171148 -0.72713 0
M  V30 1424 H 143.979 -1.10236 -1.60729 0
M  V30 1425 H 143.075 -0.623616 -3.05806 0
M  V30 1426 N 143.376 1.44774 -0.622745 0
M  V30 1427 C 144.326 2.2774 0.108889 0
M  V30 1428 C 145.31 1.38189 0.824175 0
M  V30 1429 O 146.502 1.62063 0.711664 0
M  V30 1430 C 143.631 3.25353 1.09546 0
M  V30 1431 C 142.717 4.22392 0.380232 0
M  V30 1432 N 143.108 5.02388 -0.586535 0
M  V30 1433 C 141.406 4.41588 0.625792 0
M  V30 1434 C 142.107 5.72894 -1.00834 0
M  V30 1435 N 141.083 5.42479 -0.348878 0
M  V30 1436 H 144.885 2.86993 -0.63341 0
M  V30 1437 H 142.399 1.5611 -0.447589 0
M  V30 1438 H 144.396 3.83538 1.63414 0
M  V30 1439 H 143.056 2.6766 1.83815 0
M  V30 1440 H 144.067 5.0885 -0.963975 0
M  V30 1441 H 140.744 3.95003 1.352 0
M  V30 1442 H 142.134 6.47158 -1.80656 0
M  V30 1443 N 144.854 0.36279 1.53368 0
M  V30 1444 C 146.27 0.0116182 1.59596 0
M  V30 1445 C 146.47 -1.47012 1.37803 0
M  V30 1446 O 145.526 -2.23136 1.18181 0
M  V30 1447 C 146.839 0.465052 2.97082 0
M  V30 1448 C 148.387 0.419033 3.10182 0
M  V30 1449 C 148.862 0.848235 4.50077 0
M  V30 1450 N 150.353 0.803183 4.56183 0
M  V30 1451 C 151.088 1.107 5.62613 0
M  V30 1452 N 150.584 1.47996 6.76808 0
M  V30 1453 N 152.377 1.02998 5.52583 0
M  V30 1454 H 144.528 1.32775 1.65785 0
M  V30 1455 H 146.791 0.542518 0.777417 0
M  V30 1456 H 146.497 1.49892 3.18159 0
M  V30 1457 H 146.371 -0.149786 3.76902 0
M  V30 1458 H 148.758 -0.605696 2.88817 0
M  V30 1459 H 148.839 1.06933 2.32377 0
M  V30 1460 H 148.483 1.87107 4.7218 0
M  V30 1461 H 148.413 0.175218 5.26308 0
M  V30 1462 H 150.904 0.52838 3.74188 0
M  V30 1463 H 151.217 1.69613 7.53957 0
M  V30 1464 H 149.562 1.51859 6.78206 0
M  V30 1465 H 152.753 0.737817 4.62249 0
M  V30 1466 H 152.926 1.2701 6.35431 0
M  V30 1467 N 146.332 -1.57332 0.0918853 0
M  V30 1468 C 147.743 -1.81496 -0.437739 0
M  V30 1469 C 148.094 -1.00727 -1.6837 0
M  V30 1470 O 147.219 -0.235694 -2.15113 0
M  V30 1471 C 147.814 -3.29197 -0.800939 0
M  V30 1472 C 146.373 -3.54136 -1.27532 0
M  V30 1473 C 145.52 -2.75979 -0.270392 0
M  V30 1474 H 148.471 -1.55494 0.317366 0
M  V30 1475 H 148.492 -3.42344 -1.66074 0
M  V30 1476 H 148.004 -3.87955 0.106078 0
M  V30 1477 H 146.105 -3.00705 -2.20016 0
M  V30 1478 H 146.218 -4.62792 -1.23938 0
M  V30 1479 H 144.582 -2.43349 -0.751872 0
M  V30 1480 H 145.365 -3.37484 0.629248 0
M  V30 1481 N 147.81 0.181792 -1.56548 0
M  V30 1482 C 149.038 0.915947 -1.85521 0
M  V30 1483 C 149.453 1.76282 -0.676016 0
M  V30 1484 O 148.81 1.79012 0.355077 0
M  V30 1485 C 148.861 1.80126 -3.13427 0
M  V30 1486 O 148.582 0.988562 -4.26801 0
M  V30 1487 C 150.083 2.64597 -3.55673 0
M  V30 1488 H 147.303 0.26661 -0.61576 0
M  V30 1489 H 149.847 0.185039 -2.03661 0
M  V30 1490 H 148.002 2.48563 -2.97145 0
M  V30 1491 H 148.416 1.59308 -4.99721 0
M  V30 1492 H 149.89 3.2235 -4.48101 0
M  V30 1493 H 150.367 3.38958 -2.79292 0
M  V30 1494 H 150.973 2.0151 -3.74532 0
M  V30 1495 N 149.288 1.51039 0.449983 0
M  V30 1496 C 150.516 1.66869 1.2232 0
M  V30 1497 C 150.931 0.360727 1.85322 0
M  V30 1498 O 150.288 -0.659531 1.70166 0
M  V30 1499 C 150.339 2.77524 2.31652 0
M  V30 1500 O 150.06 4.03252 1.7123 0
M  V30 1501 C 151.561 3.04512 3.2216 0
M  V30 1502 H 148.781 0.560326 0.369155 0
M  V30 1503 H 151.325 1.97385 0.534719 0
M  V30 1504 H 149.48 2.49642 2.96239 0
M  V30 1505 H 149.894 4.64609 2.43389 0
M  V30 1506 H 151.368 3.85551 3.95038 0
M  V30 1507 H 151.845 2.16415 3.8218 0
M  V30 1508 H 152.451 3.34005 2.63288 0
M  V30 1509 N 150.766 -0.704594 1.40972 0
M  V30 1510 C 151.714 -1.83994 1.42299 0
M  V30 1511 C 152.708 -1.66684 0.302111 0
M  V30 1512 O 153.914 -1.73655 0.473697 0
M  V30 1513 H 150.289 -0.606171 0.44504 0
M  V30 1514 H 152.26 -1.79992 2.38003 0
M  V30 1515 C 151.009 -3.21946 1.31323 0
M  V30 1516 H 150.332 -3.35878 2.16855 0
M  V30 1517 H 151.772 -4.01491 1.36311 0
M  V30 1518 C 150.231 -3.36891 0.0245977 0
M  V30 1519 O 150.761 -3.90687 -0.934153 0
M  V30 1520 N 148.967 -2.90559 -0.0485243 0
M  V30 1521 H 148.514 -2.46968 0.732419 0
M  V30 1522 H 148.472 -3.00937 -0.910171 0
M  V30 1523 N 152.244 -1.26651 -0.937939 0
M  V30 1524 C 153.655 -1.1125 -1.49934 0
M  V30 1525 C 154.006 0.306077 -1.93798 0
M  V30 1526 O 153.131 1.19792 -1.80219 0
M  V30 1527 C 153.726 -2.01339 -2.72485 0
M  V30 1528 C 152.285 -1.90074 -3.24883 0
M  V30 1529 C 151.432 -1.94498 -1.97651 0
M  V30 1530 H 154.383 -1.39693 -0.753091 0
M  V30 1531 H 154.404 -1.56319 -3.46907 0
M  V30 1532 H 153.916 -3.04577 -2.40529 0
M  V30 1533 H 152.017 -0.897827 -3.61621 0
M  V30 1534 H 152.13 -2.75778 -3.9177 0
M  V30 1535 H 150.494 -1.38591 -2.13693 0
M  V30 1536 H 151.277 -2.99372 -1.68022 0
M  V30 1537 N 153.722 1.14298 -1.08507 0
M  V30 1538 C 154.67 2.21483 -0.710483 0
M  V30 1539 C 155.664 1.66998 0.284234 0
M  V30 1540 O 156.87 1.79401 0.146692 0
M  V30 1541 H 153.245 0.721578 -0.211729 0
M  V30 1542 H 155.216 2.50348 -1.62384 0
M  V30 1543 C 153.965 3.4743 -0.137007 0
M  V30 1544 H 153.288 3.89686 -0.893592 0
M  V30 1545 H 154.728 4.2391 0.0872789 0
M  V30 1546 C 153.187 3.17548 1.12538 0
M  V30 1547 O 153.717 3.35437 2.21009 0
M  V30 1548 N 151.923 2.71499 1.03617 0
M  V30 1549 H 151.47 2.57143 0.153403 0
M  V30 1550 H 151.428 2.51881 1.88158 0
M  V30 1551 N 155.201 0.870884 1.31352 0
M  V30 1552 C 156.164 0.332243 2.26779 0
M  V30 1553 C 157.164 -0.517302 1.52252 0
M  V30 1554 O 158.354 -0.326477 1.71113 0
M  V30 1555 C 155.486 -0.528066 3.36785 0
M  V30 1556 H 156.679 1.17469 2.75937 0
M  V30 1557 H 154.232 0.64655 1.423 0
M  V30 1558 H 154.967 -1.39167 2.92922 0
M  V30 1559 H 154.752 0.0802582 3.92018 0
M  V30 1560 H 156.242 -0.897179 4.07849 0
M  V30 1561 N 156.679 -1.44442 0.630414 0
M  V30 1562 C 157.904 -2.06927 0.139944 0
M  V30 1563 C 158.329 -1.46795 -1.17613 0
M  V30 1564 O 157.687 -0.569144 -1.72135 0
M  V30 1565 C 157.735 -3.6058 0.0379581 0
M  V30 1566 O 156.839 -3.99937 -1.0062 0
M  V30 1567 H 156.18 -0.658608 0.0844483 0
M  V30 1568 H 158.71 -1.85327 0.866891 0
M  V30 1569 H 158.72 -4.07714 -0.152856 0
M  V30 1570 H 157.395 -4.03728 0.998809 0
M  V30 1571 H 155.972 -3.64436 -0.79001 0
M  V30 1572 N 158.157 -0.370918 -1.53173 0
M  V30 1573 C 159.104 0.473035 -2.259 0
M  V30 1574 C 160.074 1.07311 -1.26781 0
M  V30 1575 O 161.259 1.1046 -1.55574 0
M  V30 1576 C 158.399 1.60405 -3.05556 0
M  V30 1577 C 157.512 1.02863 -4.19575 0
M  V30 1578 C 156.647 2.12918 -4.86661 0
M  V30 1579 C 155.686 1.52869 -5.92704 0
M  V30 1580 N 154.823 2.56779 -6.53459 0
M  V30 1581 H 159.663 -0.153649 -2.97604 0
M  V30 1582 H 157.2 -0.0875946 -1.46839 0
M  V30 1583 H 159.158 2.27034 -3.50016 0
M  V30 1584 H 157.788 2.20131 -2.36097 0
M  V30 1585 H 156.84 0.252465 -3.79561 0
M  V30 1586 H 158.152 0.549642 -4.95762 0
M  V30 1587 H 157.306 2.87356 -5.34333 0
M  V30 1588 H 156.045 2.6417 -4.09958 0
M  V30 1589 H 155.05 0.769479 -5.44389 0
M  V30 1590 H 156.275 1.02435 -6.7133 0
M  V30 1591 H 154.221 3.07235 -5.79606 0
M  V30 1592 H 154.138 2.13583 -7.25202 0
M  V30 1593 H 155.406 3.30903 -7.05779 0
M  V30 1594 N 159.635 1.57281 -0.100228 0
M  V30 1595 C 160.882 1.94537 0.562268 0
M  V30 1596 C 161.21 0.982315 1.67871 0
M  V30 1597 O 160.465 0.00280936 1.957 0
M  V30 1598 C 160.764 3.38305 1.15259 0
M  V30 1599 C 160.43 4.50618 0.159409 0
M  V30 1600 C 159.092 4.81066 -0.113741 0
M  V30 1601 C 161.444 5.18615 -0.518461 0
M  V30 1602 C 158.772 5.76835 -1.07137 0
M  V30 1603 C 161.124 6.15412 -1.46459 0
M  V30 1604 C 159.788 6.44262 -1.74592 0
M  V30 1605 H 159.058 0.711863 0.205748 0
M  V30 1606 H 161.705 1.90679 -0.17715 0
M  V30 1607 H 160.01 3.38766 1.96836 0
M  V30 1608 H 161.707 3.64435 1.67297 0
M  V30 1609 H 158.297 4.2689 0.382491 0
M  V30 1610 H 162.481 4.95264 -0.320581 0
M  V30 1611 H 157.737 5.975 -1.29628 0
M  V30 1612 H 161.911 6.67194 -1.99564 0
M  V30 1613 H 159.538 7.1828 -2.48953 0
M  V30 1614 N 161.113 -0.173488 1.56642 0
M  V30 1615 C 162.076 -1.19859 1.95362 0
M  V30 1616 C 163.076 -1.37296 0.83704 0
M  V30 1617 O 164.266 -1.34739 1.10413 0
M  V30 1618 C 161.398 -2.56405 2.24654 0
M  V30 1619 H 162.591 -0.867062 2.87092 0
M  V30 1620 H 160.144 -0.415853 1.50666 0
M  V30 1621 H 160.879 -2.94576 1.35631 0
M  V30 1622 H 160.664 -2.45115 3.06041 0
M  V30 1623 H 162.154 -3.30287 2.5554 0
M  V30 1624 N 162.591 -1.51276 -0.441967 0
M  V30 1625 C 163.523 -1.68444 -1.55433 0
M  V30 1626 C 164.536 -0.565187 -1.52674 0
M  V30 1627 O 165.725 -0.839356 -1.57534 0
M  V30 1628 C 162.825 -1.67966 -2.94348 0
M  V30 1629 C 161.998 -2.964 -3.21661 0
M  V30 1630 C 161.057 -2.88171 -4.40277 0
M  V30 1631 O 160.083 -3.62119 -4.39157 0
M  V30 1632 N 161.285 -2.03706 -5.43584 0
M  V30 1633 H 164.05 -2.644 -1.41112 0
M  V30 1634 H 161.611 -1.49104 -0.630838 0
M  V30 1635 H 163.603 -1.60035 -3.71713 0
M  V30 1636 H 162.173 -0.796225 -3.0229 0
M  V30 1637 H 161.393 -3.18234 -2.32638 0
M  V30 1638 H 162.681 -3.81427 -3.36736 0
M  V30 1639 H 162.079 -1.42995 -5.47329 0
M  V30 1640 H 160.636 -2.01658 -6.1982 0
M  V30 1641 N 164.069 0.697108 -1.41344 0
M  V30 1642 C 165.016 1.81106 -1.43071 0
M  V30 1643 C 165.986 1.63632 -0.285275 0
M  V30 1644 O 167.171 1.84504 -0.486091 0
M  V30 1645 C 164.311 3.18975 -1.31715 0
M  V30 1646 C 163.424 3.47892 -2.56115 0
M  V30 1647 C 162.559 4.75367 -2.37064 0
M  V30 1648 C 161.598 4.97247 -3.56948 0
M  V30 1649 N 160.735 6.15947 -3.36977 0
M  V30 1650 H 165.575 1.78965 -2.38276 0
M  V30 1651 H 163.112 0.873975 -1.18322 0
M  V30 1652 H 165.07 3.98615 -1.23133 0
M  V30 1653 H 163.7 3.20297 -0.401183 0
M  V30 1654 H 162.752 2.62669 -2.75153 0
M  V30 1655 H 164.064 3.59962 -3.45295 0
M  V30 1656 H 163.218 5.63059 -2.25941 0
M  V30 1657 H 161.957 4.65541 -1.45338 0
M  V30 1658 H 160.962 4.08004 -3.68527 0
M  V30 1659 H 162.187 5.08934 -4.49626 0
M  V30 1660 H 160.133 6.07336 -2.47949 0
M  V30 1661 H 160.05 6.28777 -4.19732 0
M  V30 1662 H 161.318 7.06377 -3.29623 0
M  V30 1663 N 165.547 1.27147 0.931209 0
M  V30 1664 C 166.796 1.12664 1.67302 0
M  V30 1665 C 167.109 -0.327718 1.92835 0
M  V30 1666 O 168.315 -0.593392 2.64936 0
M  V30 1667 C 166.771 1.9683 3.01307 0
M  V30 1668 C 166.379 3.46901 2.83485 0
M  V30 1669 C 168.123 1.90985 3.79111 0
M  V30 1670 C 166.03 4.23279 4.13024 0
M  V30 1671 H 164.96 0.41803 0.627509 0
M  V30 1672 H 167.611 1.51539 1.03481 0
M  V30 1673 H 165.993 1.50797 3.66164 0
M  V30 1674 H 167.167 4.00773 2.27415 0
M  V30 1675 H 165.482 3.54088 2.19113 0
M  V30 1676 H 168.079 2.45328 4.75098 0
M  V30 1677 H 168.422 0.882718 4.06834 0
M  V30 1678 H 168.955 2.34895 3.21044 0
M  V30 1679 H 165.694 5.26503 3.90481 0
M  V30 1680 H 165.214 3.74186 4.6877 0
M  V30 1681 H 166.893 4.32265 4.81411 0
M  V30 1682 N 167.025 -1.13721 1.09112 0
M  V30 1683 C 168.273 -1.84559 0.823562 0
M  V30 1684 C 168.594 -1.83754 -0.652658 0
M  V30 1685 O 167.864 -1.29102 -1.47342 0
M  V30 1686 H 166.444 -0.683376 0.301673 0
M  V30 1687 H 169.106 -1.37771 1.37859 0
M  V30 1688 H 168.202 -2.8917 1.17419 0
M  V30 1689 N 168.503 -0.877838 -1.30888 0
M  V30 1690 C 169.751 -0.491723 -1.96027 0
M  V30 1691 C 170.072 0.960827 -1.69685 0
M  V30 1692 O 169.342 1.67462 -1.01654 0
M  V30 1693 H 167.922 -0.17885 -0.725273 0
M  V30 1694 H 170.584 -1.11935 -1.59551 0
M  V30 1695 H 169.68 -0.656016 -3.05128 0
M  V30 1696 N 169.982 1.44106 -0.638065 0
M  V30 1697 C 171.207 2.0685 -0.150916 0
M  V30 1698 C 171.632 1.47417 1.16833 0
M  V30 1699 O 170.99 0.578264 1.71831 0
M  V30 1700 C 171.038 3.60555 -0.05708 0
M  V30 1701 O 170.142 4.00465 0.984972 0
M  V30 1702 H 169.483 0.658151 -0.0879399 0
M  V30 1703 H 172.013 1.84865 -0.876707 0
M  V30 1704 H 172.023 4.07789 0.131232 0
M  V30 1705 H 170.698 4.03193 -1.02021 0
M  V30 1706 H 169.275 3.64849 0.770672 0
M  V30 1707 N 171.46 0.379036 1.52974 0
M  V30 1708 C 172.37 -0.468639 2.29872 0
M  V30 1709 C 173.386 -1.08067 1.36373 0
M  V30 1710 O 174.562 -1.08871 1.69438 0
M  V30 1711 C 171.627 -1.58594 3.083 0
M  V30 1712 C 170.688 -1.00007 4.17489 0
M  V30 1713 C 169.921 -2.06413 4.92168 0
M  V30 1714 O 170.144 -3.27751 4.66835 0
M  V30 1715 O 169.078 -1.68717 5.7777 0
M  V30 1716 H 172.904 0.157508 3.03291 0
M  V30 1717 H 170.489 0.143035 1.48714 0
M  V30 1718 H 172.371 -2.23525 3.57232 0
M  V30 1719 H 171.046 -2.19724 2.37703 0
M  V30 1720 H 169.953 -0.314299 3.72777 0
M  V30 1721 H 171.286 -0.433135 4.90291 0
M  V30 1722 N 172.938 -1.57226 0.108567 0
M  V30 1723 C 174.354 -1.5766 -0.248058 0
M  V30 1724 C 174.554 -1.12063 -1.67464 0
M  V30 1725 O 173.61 -0.803236 -2.39383 0
M  V30 1726 C 174.923 -3.0069 -0.0242287 0
M  V30 1727 C 176.471 -3.12868 -0.0909372 0
M  V30 1728 C 176.946 -4.57879 0.105067 0
M  V30 1729 N 178.437 -4.63172 0.0506846 0
M  V30 1730 C 179.172 -5.73126 0.177396 0
M  V30 1731 N 178.668 -6.91866 0.359696 0
M  V30 1732 N 180.461 -5.61977 0.117709 0
M  V30 1733 H 172.612 -1.85169 1.04049 0
M  V30 1734 H 174.875 -0.85529 0.40888 0
M  V30 1735 H 174.581 -3.38299 0.961604 0
M  V30 1736 H 174.455 -3.6945 -0.76068 0
M  V30 1737 H 176.842 -2.75124 -1.06729 0
M  V30 1738 H 176.923 -2.46672 0.677225 0
M  V30 1739 H 176.567 -4.96321 1.07834 0
M  V30 1740 H 176.497 -5.22153 -0.682954 0
M  V30 1741 H 178.988 -3.778 -0.0871266 0
M  V30 1742 H 179.301 -7.71503 0.447529 0
M  V30 1743 H 177.646 -6.93874 0.395536 0
M  V30 1744 H 180.837 -4.68094 -0.0236741 0
M  V30 1745 H 181.01 -6.47627 0.219905 0
M  V30 1746 N 174.416 0.165178 -1.56732 0
M  V30 1747 C 175.656 0.887231 -1.8414 0
M  V30 1748 C 176.02 1.79159 -0.690353 0
M  V30 1749 O 177.221 2.55172 -0.845032 0
M  V30 1750 C 175.492 1.65674 -3.16681 0
M  V30 1751 S 177.051 2.42671 -3.6559 0
M  V30 1752 H 173.869 0.297042 -0.645978 0
M  V30 1753 H 176.471 0.148439 -1.94936 0
M  V30 1754 H 175.175 0.983507 -3.98441 0
M  V30 1755 H 174.706 2.43679 -3.08843 0
M  V30 1756 H 176.721 3.67499 -3.33406 0
M  V30 1757 N 175.894 1.51508 0.433938 0
M  V30 1758 C 177.305 1.56784 1.01369 0
M  V30 1759 C 177.656 0.393349 1.92217 0
M  V30 1760 O 176.781 -0.489441 2.10792 0
M  V30 1761 C 177.376 2.84144 1.8452 0
M  V30 1762 C 175.935 2.9198 2.37539 0
M  V30 1763 C 175.082 2.51482 1.16843 0
M  V30 1764 H 178.033 1.57236 0.215081 0
M  V30 1765 H 178.054 2.68098 2.70007 0
M  V30 1766 H 177.566 3.69607 1.18373 0
M  V30 1767 H 175.667 2.10955 3.0713 0
M  V30 1768 H 175.78 3.95704 2.70103 0
M  V30 1769 H 174.144 2.04758 1.51481 0
M  V30 1770 H 174.927 3.39293 0.523015 0
M  V30 1771 N 177.372 -0.689602 1.41712 0
M  V30 1772 C 178.788 -1.00093 1.24312 0
M  V30 1773 C 178.988 -2.01036 0.136729 0
M  V30 1774 O 178.044 -2.47562 -0.496918 0
M  V30 1775 C 179.357 -1.51985 2.59463 0
M  V30 1776 C 180.905 -1.63838 2.66695 0
M  V30 1777 C 181.38 -2.1913 4.02177 0
M  V30 1778 N 182.871 -2.26483 4.04054 0
M  V30 1779 C 183.606 -2.70306 5.0569 0
M  V30 1780 N 183.102 -3.13691 6.17713 0
M  V30 1781 N 184.895 -2.69923 4.9305 0
M  V30 1782 H 177.046 -0.0210029 2.1239 0
M  V30 1783 H 179.309 -0.0718733 0.945272 0
M  V30 1784 H 179.015 -0.85269 3.41207 0
M  V30 1785 H 178.889 -2.50103 2.82362 0
M  V30 1786 H 181.276 -2.29664 1.85306 0
M  V30 1787 H 181.357 -0.642492 2.476 0
M  V30 1788 H 181.001 -1.53918 4.84016 0
M  V30 1789 H 180.931 -3.19482 4.18615 0
M  V30 1790 H 183.422 -1.95874 3.23174 0
M  V30 1791 H 183.735 -3.45773 6.9113 0
M  V30 1792 H 182.08 -3.11585 6.21241 0
M  V30 1793 H 185.271 -2.35382 4.04614 0
M  V30 1794 H 185.444 -3.03758 5.72394 0
M  V30 1795 N 178.85 -1.27639 -0.924453 0
M  V30 1796 C 180.09 -1.15407 -1.68703 0
M  V30 1797 C 180.454 0.294581 -1.89727 0
M  V30 1798 O 181.655 0.539385 -2.63333 0
M  V30 1799 C 179.926 -1.9195 -3.0148 0
M  V30 1800 S 181.485 -1.95969 -3.92609 0
M  V30 1801 H 178.303 -0.411937 -0.579507 0
M  V30 1802 H 180.905 -1.61592 -1.10038 0
M  V30 1803 H 179.609 -2.96387 -2.83871 0
M  V30 1804 H 179.14 -1.46272 -3.65196 0
M  V30 1805 H 181.155 -1.05846 -4.84779 0
M  V30 1806 N 180.328 1.1314 -1.09713 0
M  V30 1807 C 181.553 1.88862 -0.857081 0
M  V30 1808 C 181.978 1.78729 0.586304 0
M  V30 1809 O 181.336 1.13692 1.41222 0
M  V30 1810 C 181.384 3.36325 -1.30069 0
M  V30 1811 O 180.488 4.09815 -0.461007 0
M  V30 1812 H 179.829 0.587108 -0.310162 0
M  V30 1813 H 182.359 1.43129 -1.46203 0
M  V30 1814 H 182.369 3.87157 -1.28738 0
M  V30 1815 H 181.044 3.43017 -2.35185 0
M  V30 1816 H 179.621 3.68986 -0.538888 0
M  V30 1817 N 181.806 0.884767 1.30421 0
M  V30 1818 C 182.738 0.308655 2.27112 0
M  V30 1819 C 183.751 -0.536655 1.53701 0
M  V30 1820 O 184.94 -0.35624 1.74909 0
M  V30 1821 C 182.04 -0.579782 3.33904 0
M  V30 1822 C 181.213 0.236417 4.36761 0
M  V30 1823 C 180.272 -0.582482 5.22966 0
M  V30 1824 O 179.298 -0.00525502 5.692 0
M  V30 1825 N 180.5 -1.89163 5.48815 0
M  V30 1826 H 183.265 1.13964 2.77186 0
M  V30 1827 H 180.826 0.747731 1.43599 0
M  V30 1828 H 182.818 -1.13366 3.88497 0
M  V30 1829 H 181.388 -1.31144 2.83761 0
M  V30 1830 H 180.608 0.97174 3.82035 0
M  V30 1831 H 181.896 0.795924 5.02536 0
M  V30 1832 H 181.294 -2.38352 5.13035 0
M  V30 1833 H 179.851 -2.39296 6.06284 0
M  V30 1834 N 183.284 -1.43765 0.645699 0
M  V30 1835 C 184.247 -2.29163 -0.0409488 0
M  V30 1836 C 185.247 -1.41813 -0.757996 0
M  V30 1837 O 186.437 -1.63527 -0.600382 0
M  V30 1838 C 183.569 -3.23716 -1.06869 0
M  V30 1839 H 184.762 -2.91366 0.710345 0
M  V30 1840 H 182.315 -1.5092 0.406547 0
M  V30 1841 H 183.05 -2.66393 -1.84947 0
M  V30 1842 H 182.835 -3.88105 -0.558277 0
M  V30 1843 H 184.325 -3.87831 -1.54845 0
M  V30 1844 N 184.763 -0.387143 -1.52771 0
M  V30 1845 C 186.009 0.196025 -2.0185 0
M  V30 1846 C 186.342 1.46641 -1.27319 0
M  V30 1847 O 185.617 1.90889 -0.373032 0
M  V30 1848 C 185.9 0.466136 -3.5707 0
M  V30 1849 C 185.753 -0.819385 -4.42274 0
M  V30 1850 C 187.072 1.25768 -4.21747 0
M  V30 1851 H 184.191 0.0697708 -0.73369 0
M  V30 1852 H 186.833 -0.516286 -1.82851 0
M  V30 1853 H 184.983 1.07293 -3.7339 0
M  V30 1854 H 186.655 -1.4563 -4.37709 0
M  V30 1855 H 184.898 -1.43517 -4.09372 0
M  V30 1856 H 185.569 -0.585065 -5.48891 0
M  V30 1857 H 188.045 0.744167 -4.09391 0
M  V30 1858 H 186.921 1.41541 -5.30337 0
M  V30 1859 H 187.182 2.27228 -3.79236 0
M  V30 1860 N 186.241 1.57166 -0.116904 0
M  V30 1861 C 187.471 1.99184 0.548586 0
M  V30 1862 C 187.879 0.995436 1.60897 0
M  V30 1863 O 187.222 -0.0201293 1.83689 0
M  V30 1864 C 187.284 3.37611 1.23526 0
M  V30 1865 C 186.948 4.55857 0.323077 0
M  V30 1866 C 187.945 5.18056 -0.437476 0
M  V30 1867 C 185.63 5.01751 0.234761 0
M  V30 1868 C 187.624 6.24536 -1.2741 0
M  V30 1869 C 185.311 6.08093 -0.605496 0
M  V30 1870 C 186.309 6.69352 -1.35856 0
M  V30 1871 O 185.997 7.7364 -2.18487 0
M  V30 1872 H 185.729 0.659148 0.149999 0
M  V30 1873 H 188.283 2.0443 -0.199428 0
M  V30 1874 H 186.513 3.29113 2.0303 0
M  V30 1875 H 188.202 3.63932 1.79745 0
M  V30 1876 H 188.968 4.83516 -0.379105 0
M  V30 1877 H 184.847 4.53817 0.810601 0
M  V30 1878 H 188.391 6.72281 -1.86237 0
M  V30 1879 H 184.288 6.42063 -0.665268 0
M  V30 1880 H 185.056 7.90727 -2.11406 0
M  V30 1881 N 187.719 -0.156864 1.56817 0
M  V30 1882 C 188.682 -1.17781 1.96622 0
M  V30 1883 C 189.682 -1.36401 0.851555 0
M  V30 1884 O 190.872 -1.33561 1.11836 0
M  V30 1885 C 188.004 -2.54008 2.27361 0
M  V30 1886 H 189.197 -0.836564 2.87996 0
M  V30 1887 H 186.75 -0.39985 1.51099 0
M  V30 1888 H 187.485 -2.9312 1.38748 0
M  V30 1889 H 187.27 -2.41856 3.08623 0
M  V30 1890 H 188.76 -3.27558 2.59029 0
M  V30 1891 N 189.197 -1.51736 -0.425897 0
M  V30 1892 C 190.16 -1.73271 -1.50032 0
M  V30 1893 C 191.16 -0.602639 -1.4908 0
M  V30 1894 O 192.35 -0.87033 -1.509 0
M  V30 1895 C 189.482 -1.79969 -2.89523 0
M  V30 1896 H 190.675 -2.69172 -1.32237 0
M  V30 1897 H 188.228 -1.41899 -0.65532 0
M  V30 1898 H 188.963 -0.859241 -3.1271 0
M  V30 1899 H 188.748 -2.62109 -2.91619 0
M  V30 1900 H 190.238 -1.9843 -3.67444 0
M  V30 1901 N 190.675 0.682077 -1.42076 0
M  V30 1902 C 191.585 1.82535 -1.47371 0
M  V30 1903 C 192.601 1.7017 -0.363079 0
M  V30 1904 O 193.777 1.91848 -0.612875 0
M  V30 1905 C 190.842 3.18624 -1.36674 0
M  V30 1906 C 189.903 3.42999 -2.58167 0
M  V30 1907 C 189.136 4.72595 -2.4797 0
M  V30 1908 O 189.359 5.50006 -1.5116 0
M  V30 1909 O 188.293 4.98054 -3.37974 0
M  V30 1910 H 192.119 1.81023 -2.43853 0
M  V30 1911 H 189.704 0.836887 -1.2376 0
M  V30 1912 H 191.586 3.99847 -1.33043 0
M  V30 1913 H 190.261 3.20789 -0.433138 0
M  V30 1914 H 189.168 2.61653 -2.67373 0
M  V30 1915 H 190.501 3.45659 -3.50401 0
M  V30 1916 N 192.153 1.28127 0.917671 0
M  V30 1917 C 193.1 1.11717 2.0196 0
M  V30 1918 C 194.07 0.0153929 1.66093 0
M  V30 1919 O 195.255 0.179596 1.89953 0
M  V30 1920 C 192.395 0.780927 3.36148 0
M  V30 1921 C 191.508 1.96135 3.84909 0
M  V30 1922 C 190.643 1.56609 5.0759 0
M  V30 1923 C 189.682 2.71339 5.48673 0
M  V30 1924 N 188.819 2.32332 6.62545 0
M  V30 1925 H 193.659 2.06003 2.15329 0
M  V30 1926 H 191.196 1.02535 1.05475 0
M  V30 1927 H 193.154 0.56675 4.13333 0
M  V30 1928 H 191.784 -0.124998 3.22558 0
M  V30 1929 H 190.836 2.28777 3.03916 0
M  V30 1930 H 192.148 2.82165 4.1132 0
M  V30 1931 H 191.302 1.31374 5.92305 0
M  V30 1932 H 190.041 0.677014 4.82978 0
M  V30 1933 H 189.046 2.97276 4.62501 0
M  V30 1934 H 190.271 3.60882 5.75274 0
M  V30 1935 H 188.217 1.45889 6.39572 0
M  V30 1936 H 188.134 3.11899 6.88662 0
M  V30 1937 H 189.402 2.10371 7.50576 0
M  V30 1938 N 193.631 -1.12557 1.10312 0
M  V30 1939 C 194.877 -1.84311 0.846011 0
M  V30 1940 C 195.21 -1.83805 -0.626859 0
M  V30 1941 O 194.485 -1.28268 -1.46211 0
M  V30 1942 C 194.768 -3.32048 1.39341 0
M  V30 1943 C 194.621 -3.41016 2.93305 0
M  V30 1944 C 195.94 -4.27764 1.03468 0
M  V30 1945 H 193.059 -0.669192 0.30879 0
M  V30 1946 H 195.701 -1.32057 1.36605 0
M  V30 1947 H 193.851 -3.76678 0.951087 0
M  V30 1948 H 195.523 -3.05031 3.46055 0
M  V30 1949 H 193.766 -2.81603 3.29973 0
M  V30 1950 H 194.437 -4.44948 3.26689 0
M  V30 1951 H 196.913 -3.91253 1.41633 0
M  V30 1952 H 195.789 -5.29549 1.44463 0
M  V30 1953 H 196.05 -4.42064 -0.0560404 0
M  V30 1954 N 195.109 -0.891671 -1.2995 0
M  V30 1955 C 196.358 -0.509521 -1.95158 0
M  V30 1956 C 196.671 0.947388 -1.71125 0
M  V30 1957 O 197.877 1.43669 -2.30372 0
M  V30 1958 C 196.333 -0.860315 -3.49466 0
M  V30 1959 C 195.941 -2.33545 -3.8231 0
M  V30 1960 C 197.685 -0.547687 -4.20952 0
M  V30 1961 C 195.592 -2.62752 -5.29826 0
M  V30 1962 H 194.522 -0.18682 -0.730489 0
M  V30 1963 H 197.173 -1.08756 -1.47798 0
M  V30 1964 H 195.555 -0.211285 -3.95436 0
M  V30 1965 H 196.729 -3.02936 -3.47227 0
M  V30 1966 H 195.044 -2.61629 -3.23944 0
M  V30 1967 H 197.641 -0.742854 -5.29515 0
M  V30 1968 H 197.984 0.51332 -4.13123 0
M  V30 1969 H 198.517 -1.1542 -3.80688 0
M  V30 1970 H 195.256 -3.6762 -5.42712 0
M  V30 1971 H 194.776 -1.97977 -5.66185 0
M  V30 1972 H 196.455 -2.48601 -5.97333 0
M  V30 1973 N 196.587 1.43421 -0.653314 0
M  V30 1974 C 197.835 2.01414 -0.166415 0
M  V30 1975 C 198.156 1.51803 1.22397 0
M  V30 1976 O 197.426 0.730693 1.81763 0
M  V30 1977 H 196.006 0.744703 -0.0585319 0
M  V30 1978 H 198.668 1.75629 -0.845003 0
M  V30 1979 H 197.764 3.11734 -0.151111 0
M  V30 1980 N 198.065 0.39524 1.52563 0
M  V30 1981 C 199.028 -0.425001 2.25225 0
M  V30 1982 C 200.028 -0.985266 1.27079 0
M  V30 1983 O 201.218 -0.866332 1.5113 0
M  V30 1984 C 198.35 -1.59686 3.01186 0
M  V30 1985 H 199.543 0.211233 2.99155 0
M  V30 1986 H 197.096 0.147472 1.55603 0
M  V30 1987 H 197.831 -2.27035 2.31572 0
M  V30 1988 H 197.616 -1.20176 3.73229 0
M  V30 1989 H 199.106 -2.17743 3.5634 0
M  V30 1990 N 199.544 -1.57102 0.125237 0
M  V30 1991 C 200.792 -1.95021 -0.530198 0
M  V30 1992 C 201.113 -1.00982 -1.66816 0
M  V30 1993 O 200.383 -0.0672693 -1.95784 0
M  V30 1994 H 198.963 -0.720046 -0.198853 0
M  V30 1995 H 201.625 -1.93916 0.19564 0
M  V30 1996 H 200.721 -2.98211 -0.920681 0
M  V30 1997 N 201.022 0.148545 -1.56898 0
M  V30 1998 C 201.969 1.18345 -1.98149 0
M  V30 1999 C 202.939 1.42772 -0.848848 0
M  V30 2000 O 204.124 1.55132 -1.11079 0
M  V30 2001 C 201.264 2.51231 -2.36594 0
M  V30 2002 C 200.377 2.33991 -3.63142 0
M  V30 2003 C 199.512 3.59902 -3.90697 0
M  V30 2004 C 198.551 3.37692 -5.1052 0
M  V30 2005 N 197.688 4.5573 -5.34092 0
M  V30 2006 H 202.528 0.82467 -2.86362 0
M  V30 2007 H 200.065 0.395756 -1.41676 0
M  V30 2008 H 202.023 3.28713 -2.56912 0
M  V30 2009 H 200.653 2.85059 -1.51463 0
M  V30 2010 H 199.705 1.47572 -3.50609 0
M  V30 2011 H 201.017 2.13539 -4.5078 0
M  V30 2012 H 200.171 4.45813 -4.11505 0
M  V30 2013 H 198.91 3.83357 -3.01477 0
M  V30 2014 H 197.915 2.5017 -4.89587 0
M  V30 2015 H 199.14 3.15637 -6.0129 0
M  V30 2016 H 197.086 4.79361 -4.47827 0
M  V30 2017 H 197.003 4.38274 -6.15996 0
M  V30 2018 H 198.271 5.42858 -5.59397 0
M  V30 2019 N 202.5 1.5196 0.417844 0
M  V30 2020 C 203.725 1.69717 1.1921 0
M  V30 2021 C 204.15 0.402148 1.83751 0
M  V30 2022 O 203.508 -0.639593 1.69643 0
M  V30 2023 C 203.556 2.82794 2.2374 0
M  V30 2024 O 202.66 2.47756 3.29683 0
M  V30 2025 H 202.001 0.565263 0.348387 0
M  V30 2026 H 204.531 1.98621 0.490985 0
M  V30 2027 H 204.541 3.07452 2.68212 0
M  V30 2028 H 203.216 3.76756 1.76146 0
M  V30 2029 H 201.793 2.33739 2.90552 0
M  V30 2030 N 203.978 -0.674533 1.42435 0
M  V30 2031 C 205.224 -1.43521 1.4413 0
M  V30 2032 C 205.579 -1.92316 0.0567773 0
M  V30 2033 O 204.872 -1.68008 -0.921076 0
M  V30 2034 C 205.066 -2.64767 2.40069 0
M  V30 2035 C 204.895 -2.27836 3.87713 0
M  V30 2036 C 203.665 -2.17183 4.56245 0
M  V30 2037 C 205.863 -1.89466 4.78129 0
M  V30 2038 N 203.845 -1.73358 5.88915 0
M  V30 2039 C 205.216 -1.56561 5.99907 0
M  V30 2040 C 207.271 -1.7646 4.65582 0
M  V30 2041 C 205.974 -1.11957 7.10534 0
M  V30 2042 C 208 -1.3326 5.76191 0
M  V30 2043 C 207.362 -1.0128 6.97081 0
M  V30 2044 H 203.461 -0.521656 0.582579 0
M  V30 2045 H 206.045 -0.778381 1.78464 0
M  V30 2046 H 204.216 -3.28139 2.07796 0
M  V30 2047 H 205.948 -3.3136 2.32342 0
M  V30 2048 H 202.703 -2.3626 4.10461 0
M  V30 2049 H 203.127 -1.53867 6.59283 0
M  V30 2050 H 207.769 -1.99831 3.72595 0
M  V30 2051 H 205.487 -0.873318 8.03367 0
M  V30 2052 H 209.073 -1.23717 5.68494 0
M  V30 2053 H 207.953 -0.683597 7.81215 0
M  V30 2054 N 205.456 -1.28612 -0.910864 0
M  V30 2055 C 206.406 -1.09423 -2.00026 0
M  V30 2056 C 207.39 -0.0170079 -1.60891 0
M  V30 2057 O 208.582 -0.237472 -1.754 0
M  V30 2058 C 205.711 -0.76114 -3.34756 0
M  V30 2059 C 204.797 -1.87735 -3.80285 0
M  V30 2060 N 205.188 -3.11938 -3.98156 0
M  V30 2061 C 203.486 -1.76786 -4.09467 0
M  V30 2062 C 204.187 -3.84687 -4.36338 0
M  V30 2063 N 203.163 -3.12555 -4.44759 0
M  V30 2064 H 206.965 -2.03658 -2.11898 0
M  V30 2065 H 204.479 -1.19573 -1.09891 0
M  V30 2066 H 206.476 -0.604743 -4.12491 0
M  V30 2067 H 205.136 0.173403 -3.24237 0
M  V30 2068 H 206.147 -3.47516 -3.83996 0
M  V30 2069 H 202.824 -0.905284 -4.07567 0
M  V30 2070 H 204.214 -4.91518 -4.58104 0
M  V30 2071 N 206.934 1.1197 -1.10907 0
M  V30 2072 C 207.881 2.17846 -0.762345 0
M  V30 2073 C 208.851 1.63995 0.263599 0
M  V30 2074 O 210.036 1.90273 0.141773 0
M  V30 2075 C 207.176 3.44487 -0.205651 0
M  V30 2076 C 206.289 4.12369 -1.28748 0
M  V30 2077 C 205.424 5.26674 -0.691919 0
M  V30 2078 C 204.463 5.86431 -1.75399 0
M  V30 2079 N 203.6 6.92142 -1.17833 0
M  V30 2080 H 208.44 2.46851 -1.6694 0
M  V30 2081 H 205.977 1.21188 -0.833776 0
M  V30 2082 H 207.935 4.16981 0.135037 0
M  V30 2083 H 206.565 3.15884 0.664613 0
M  V30 2084 H 205.617 3.38003 -1.74522 0
M  V30 2085 H 206.929 4.52844 -2.09125 0
M  V30 2086 H 206.083 6.05953 -0.300963 0
M  V30 2087 H 204.822 4.8749 0.143232 0
M  V30 2088 H 203.827 5.05835 -2.15432 0
M  V30 2089 H 205.052 6.27685 -2.59208 0
M  V30 2090 H 202.998 6.54985 -0.364725 0
M  V30 2091 H 202.915 7.31242 -1.91887 0
M  V30 2092 H 204.183 7.75237 -0.81408 0
M  V30 2093 N 208.412 0.89855 1.29475 0
M  V30 2094 C 209.375 0.380272 2.26023 0
M  V30 2095 C 210.375 -0.484891 1.53315 0
M  V30 2096 O 211.565 -0.290108 1.71767 0
M  V30 2097 C 208.697 -0.45651 3.3783 0
M  V30 2098 H 209.89 1.23295 2.73383 0
M  V30 2099 H 207.443 0.676589 1.40897 0
M  V30 2100 H 208.178 -1.32922 2.95808 0
M  V30 2101 H 207.963 0.163393 3.91759 0
M  V30 2102 H 209.453 -0.810466 4.0966 0
M  V30 2103 N 209.89 -1.43072 0.660911 0
M  V30 2104 C 211.13 -2.03596 0.181146 0
M  V30 2105 C 211.494 -1.51057 -1.18515 0
M  V30 2106 O 212.695 -2.03275 -1.75877 0
M  V30 2107 C 210.966 -3.56845 0.19911 0
M  V30 2108 S 212.525 -4.38289 -0.211684 0
M  V30 2109 H 209.343 -0.706954 0.0757479 0
M  V30 2110 H 211.945 -1.75027 0.870965 0
M  V30 2111 H 210.649 -3.92583 1.1961 0
M  V30 2112 H 210.18 -3.90067 -0.510996 0
M  V30 2113 H 212.195 -4.74583 -1.44863 0
M  V30 2114 N 211.368 -0.403325 -1.52352 0
M  V30 2115 C 212.615 0.174347 -2.01748 0
M  V30 2116 C 212.943 1.45636 -1.2892 0
M  V30 2117 O 212.198 1.9193 -0.382258 0
M  V30 2118 C 212.497 0.474665 -3.54234 0
M  V30 2119 C 212.163 -0.717458 -4.45155 0
M  V30 2120 C 210.825 -1.04447 -4.69728 0
M  V30 2121 C 213.177 -1.51432 -4.98716 0
M  V30 2122 C 210.505 -2.16963 -5.45109 0
M  V30 2123 C 212.857 -2.6302 -5.75329 0
M  V30 2124 C 211.521 -2.96213 -5.98175 0
M  V30 2125 H 210.791 0.0637981 -0.738248 0
M  V30 2126 H 213.438 -0.543553 -1.83624 0
M  V30 2127 H 211.743 1.27406 -3.70506 0
M  V30 2128 H 213.44 0.934496 -3.89959 0
M  V30 2129 H 210.03 -0.452596 -4.26204 0
M  V30 2130 H 214.214 -1.27491 -4.79645 0
M  V30 2131 H 209.47 -2.43034 -5.61021 0
M  V30 2132 H 213.644 -3.25158 -6.15829 0
M  V30 2133 H 211.271 -3.83516 -6.56368 0
M  V30 2134 N 212.846 1.57033 -0.133567 0
M  V30 2135 C 214.262 1.58035 0.222944 0
M  V30 2136 C 214.462 1.14713 1.6566 0
M  V30 2137 O 213.518 0.841218 2.38075 0
M  V30 2138 C 214.831 3.00691 -0.0236116 0
M  V30 2139 C 216.379 3.12973 0.0411512 0
M  V30 2140 C 216.854 4.57654 -0.177899 0
M  V30 2141 N 218.345 4.63033 -0.124365 0
M  V30 2142 C 219.08 5.72771 -0.268553 0
M  V30 2143 N 218.576 6.91206 -0.46972 0
M  V30 2144 N 220.369 5.61718 -0.2071 0
M  V30 2145 H 212.52 1.8349 -1.06981 0
M  V30 2146 H 214.783 0.848677 -0.422436 0
M  V30 2147 H 214.489 3.36726 -1.0153 0
M  V30 2148 H 214.363 3.70614 0.701808 0
M  V30 2149 H 216.75 2.76787 1.02338 0
M  V30 2150 H 216.831 2.45564 -0.716383 0
M  V30 2151 H 216.475 4.94542 -1.15717 0
M  V30 2152 H 216.405 5.23173 0.599797 0
M  V30 2153 H 218.896 3.7789 0.027011 0
M  V30 2154 H 219.209 7.70693 -0.570212 0
M  V30 2155 H 217.554 6.93156 -0.505876 0
M  V30 2156 H 220.745 4.68072 -0.0507986 0
M  V30 2157 H 220.918 6.47195 -0.322909 0
M  V30 2158 N 214.325 -0.140222 1.56975 0
M  V30 2159 C 215.565 -0.857823 1.85528 0
M  V30 2160 C 215.929 -1.78039 0.718768 0
M  V30 2161 O 217.13 -2.53795 0.885521 0
M  V30 2162 C 215.401 -1.60615 3.19277 0
M  V30 2163 S 216.96 -2.36824 3.69405 0
M  V30 2164 H 213.778 -0.286727 0.650622 0
M  V30 2165 H 216.38 -0.117408 1.95147 0
M  V30 2166 H 215.084 -0.919994 3.99955 0
M  V30 2167 H 214.615 -2.38735 3.12681 0
M  V30 2168 H 216.63 -3.62148 3.3921 0
M  V30 2169 N 215.803 -1.52179 -0.40978 0
M  V30 2170 C 216.766 -1.74853 -1.48186 0
M  V30 2171 C 217.766 -0.618417 -1.48433 0
M  V30 2172 O 218.956 -0.886286 -1.49969 0
M  V30 2173 C 216.088 -1.8303 -2.87598 0
M  V30 2174 H 217.281 -2.70559 -1.29374 0
M  V30 2175 H 214.834 -1.42586 -0.640233 0
M  V30 2176 H 215.569 -0.89236 -3.11781 0
M  V30 2177 H 215.354 -2.65187 -2.88822 0
M  V30 2178 H 216.844 -2.02316 -3.65319 0
M  V30 2179 N 217.281 0.66697 -1.42791 0
M  V30 2180 C 218.228 1.7803 -1.4688 0
M  V30 2181 C 219.198 1.6299 -0.319919 0
M  V30 2182 O 220.383 1.83432 -0.525118 0
M  V30 2183 C 217.523 3.1611 -1.38451 0
M  V30 2184 C 216.636 3.42381 -2.63437 0
M  V30 2185 C 215.771 4.70232 -2.47094 0
M  V30 2186 C 214.81 4.89564 -3.67415 0
M  V30 2187 N 213.947 6.08661 -3.49966 0
M  V30 2188 H 218.787 1.7387 -2.42019 0
M  V30 2189 H 216.324 0.84868 -1.20149 0
M  V30 2190 H 218.282 3.95914 -1.31561 0
M  V30 2191 H 216.912 3.19374 -0.469033 0
M  V30 2192 H 215.964 2.56774 -2.80662 0
M  V30 2193 H 217.276 3.52557 -3.52853 0
M  V30 2194 H 216.43 5.5814 -2.37834 0
M  V30 2195 H 215.169 4.62353 -1.5518 0
M  V30 2196 H 214.174 4.00096 -3.77099 0
M  V30 2197 H 215.399 4.99282 -4.6032 0
M  V30 2198 H 213.345 6.0194 -2.60776 0
M  V30 2199 H 213.262 6.19733 -4.32975 0
M  V30 2200 H 214.53 6.99226 -3.44532 0
M  V30 2201 N 218.759 1.29093 0.90403 0
M  V30 2202 C 219.999 1.18076 1.66845 0
M  V30 2203 C 220.363 -0.26436 1.90171 0
M  V30 2204 O 221.564 -0.497423 2.64157 0
M  V30 2205 C 219.835 1.96722 2.98388 0
M  V30 2206 S 221.394 2.0219 3.89441 0
M  V30 2207 H 218.212 0.421104 0.572881 0
M  V30 2208 H 220.814 1.63322 1.07453 0
M  V30 2209 H 219.518 3.00866 2.7912 0
M  V30 2210 H 219.049 1.52064 3.62823 0
M  V30 2211 H 221.064 1.13545 4.83034 0
M  V30 2212 N 220.237 -1.11381 1.11499 0
M  V30 2213 C 221.485 -1.8277 0.862524 0
M  V30 2214 C 221.806 -1.85097 -0.613534 0
M  V30 2215 O 221.076 -1.32198 -1.4457 0
M  V30 2216 H 219.656 -0.676823 0.316101 0
M  V30 2217 H 222.318 -1.34816 1.4075 0
M  V30 2218 H 221.414 -2.86614 1.23527 0
M  V30 2219 N 221.715 -0.905404 -1.28997 0
M  V30 2220 C 222.662 -0.385892 -2.27551 0
M  V30 2221 C 223.632 0.535113 -1.57244 0
M  V30 2222 O 224.817 0.459119 -1.85194 0
M  V30 2223 C 221.957 0.375461 -3.43051 0
M  V30 2224 C 221.07 -0.577092 -4.28128 0
M  V30 2225 C 220.205 0.201879 -5.30816 0
M  V30 2226 C 219.244 -0.744829 -6.07551 0
M  V30 2227 N 218.381 9.42587e-05 -7.021 0
M  V30 2228 H 223.221 -1.23139 -2.71368 0
M  V30 2229 H 220.758 -0.618542 -1.33463 0
M  V30 2230 H 222.716 0.832992 -4.088 0
M  V30 2231 H 221.346 1.18537 -3.00248 0
M  V30 2232 H 220.398 -1.15315 -3.62501 0
M  V30 2233 H 221.71 -1.30152 -4.8152 0
M  V30 2234 H 220.864 0.720351 -6.02408 0
M  V30 2235 H 219.603 0.959413 -4.7817 0
M  V30 2236 H 218.608 -1.27475 -5.34818 0
M  V30 2237 H 219.833 -1.50178 -6.62286 0
M  V30 2238 H 217.779 0.739791 -6.51815 0
M  V30 2239 H 217.696 -0.664321 -7.53076 0
M  V30 2240 H 218.964 0.498644 -7.77903 0
M  V30 2241 N 223.193 1.4272 -0.668489 0
M  V30 2242 C 224.441 2.01226 -0.187769 0
M  V30 2243 C 224.762 1.53092 1.2078 0
M  V30 2244 O 224.032 0.74993 1.80977 0
M  V30 2245 H 222.612 0.744041 -0.0664272 0
M  V30 2246 H 225.274 1.74723 -0.863583 0
M  V30 2247 H 224.37 3.11556 -0.184166 0
M  V30 2248 N 224.671 0.411399 1.52136 0
M  V30 2249 C 225.601 -0.404015 2.29978 0
M  V30 2250 C 226.582 -1.04412 1.34284 0
M  V30 2251 O 227.767 -1.0527 1.63192 0
M  V30 2252 C 224.897 -1.5197 3.12286 0
M  V30 2253 C 223.851 -1.00448 4.16046 0
M  V30 2254 C 223.177 -2.21393 4.86712 0
M  V30 2255 C 224.477 -0.0569336 5.22269 0
M  V30 2256 H 226.171 0.245529 2.98392 0
M  V30 2257 H 223.717 0.119525 1.43503 0
M  V30 2258 H 225.67 -2.09715 3.6551 0
M  V30 2259 H 224.394 -2.19716 2.41646 0
M  V30 2260 H 223.053 -0.449421 3.63835 0
M  V30 2261 H 222.701 -2.87699 4.12599 0
M  V30 2262 H 222.401 -1.87571 5.56858 0
M  V30 2263 H 223.925 -2.7974 5.4275 0
M  V30 2264 H 225.339 -0.54325 5.7072 0
M  V30 2265 H 223.736 0.192594 5.99791 0
M  V30 2266 H 224.806 0.887663 4.76706 0
M  V30 2267 N 226.149 -1.5696 0.141893 0
M  V30 2268 C 227.059 -2.20066 -0.812905 0
M  V30 2269 C 228.075 -1.18344 -1.27557 0
M  V30 2270 O 229.251 -1.50902 -1.33381 0
M  V30 2271 C 226.316 -2.80583 -2.03652 0
M  V30 2272 C 225.377 -3.97414 -1.62359 0
M  V30 2273 C 224.61 -4.55036 -2.78887 0
M  V30 2274 O 224.833 -4.11538 -3.94959 0
M  V30 2275 O 223.767 -5.45376 -2.54653 0
M  V30 2276 H 227.593 -3.02157 -0.305746 0
M  V30 2277 H 225.178 -1.49159 -0.0848799 0
M  V30 2278 H 227.06 -3.19067 -2.75272 0
M  V30 2279 H 225.735 -2.01508 -2.5333 0
M  V30 2280 H 224.642 -3.63656 -0.877775 0
M  V30 2281 H 225.975 -4.77994 -1.17401 0
M  V30 2282 N 227.627 0.131896 -1.57047 0
M  V30 2283 C 228.852 0.860418 -1.8871 0
M  V30 2284 C 229.277 1.73251 -0.73251 0
M  V30 2285 O 228.635 1.785 0.317429 0
M  V30 2286 C 228.683 1.68047 -3.19049 0
M  V30 2287 O 227.787 2.7862 -3.04047 0
M  V30 2288 H 227.128 0.238743 -0.619595 0
M  V30 2289 H 229.658 0.118169 -2.04258 0
M  V30 2290 H 229.668 2.07238 -3.51449 0
M  V30 2291 H 228.343 1.04018 -4.02682 0
M  V30 2292 H 226.92 2.42726 -2.83088 0
M  V30 2293 N 229.106 1.52395 0.401703 0
M  V30 2294 C 230.334 1.70676 1.16949 0
M  V30 2295 C 230.749 0.419503 1.8408 0
M  V30 2296 O 230.106 -0.605061 1.72178 0
M  V30 2297 C 230.157 2.84753 2.22706 0
M  V30 2298 O 229.878 4.08495 1.58314 0
M  V30 2299 C 231.379 3.14608 3.12309 0
M  V30 2300 H 228.599 0.571787 0.351142 0
M  V30 2301 H 231.143 1.98987 0.471652 0
M  V30 2302 H 229.298 2.58941 2.88147 0
M  V30 2303 H 229.712 4.72117 2.28485 0
M  V30 2304 H 231.186 3.97923 3.82572 0
M  V30 2305 H 231.663 2.28464 3.75101 0
M  V30 2306 H 232.269 3.42212 2.52529 0
M  V30 2307 N 230.584 -0.659388 1.43143 0
M  V30 2308 C 231.812 -1.44723 1.47861 0
M  V30 2309 C 232.227 -1.88563 0.0945886 0
M  V30 2310 O 231.584 -1.59108 -0.893915 0
M  V30 2311 C 231.635 -2.68627 2.41913 0
M  V30 2312 O 231.356 -2.26623 3.74932 0
M  V30 2313 C 232.857 -3.62045 2.55809 0
M  V30 2314 H 230.077 -0.444801 0.502387 0
M  V30 2315 H 232.621 -0.808916 1.87821 0
M  V30 2316 H 230.776 -3.28613 2.05164 0
M  V30 2317 H 231.19 -3.06745 4.2545 0
M  V30 2318 H 232.664 -4.45666 3.25708 0
M  V30 2319 H 233.141 -4.08981 1.60099 0
M  V30 2320 H 233.747 -3.07944 2.93344 0
M  V30 2321 N 232.062 -1.29571 -0.897171 0
M  V30 2322 C 232.992 -1.17473 -2.01798 0
M  V30 2323 C 233.973 -0.068323 -1.69963 0
M  V30 2324 O 235.158 -0.248239 -1.92607 0
M  V30 2325 C 232.288 -0.853099 -3.36659 0
M  V30 2326 C 231.242 -1.9161 -3.82713 0
M  V30 2327 C 230.568 -1.44773 -5.14728 0
M  V30 2328 C 231.868 -3.32535 -4.02763 0
M  V30 2329 H 233.562 -2.11237 -2.12177 0
M  V30 2330 H 231.108 -1.01699 -1.01948 0
M  V30 2331 H 233.061 -0.755165 -4.14578 0
M  V30 2332 H 231.785 0.120236 -3.26379 0
M  V30 2333 H 230.444 -2.00346 -3.07013 0
M  V30 2334 H 230.092 -0.462995 -5.00865 0
M  V30 2335 H 229.792 -2.15865 -5.46513 0
M  V30 2336 H 231.316 -1.36334 -5.95185 0
M  V30 2337 H 232.73 -3.26626 -4.71156 0
M  V30 2338 H 231.127 -4.01607 -4.45905 0
M  V30 2339 H 232.197 -3.75326 -3.07016 0
M  V30 2340 N 233.54 1.10788 -1.12088 0
M  V30 2341 C 234.503 2.15207 -0.788577 0
M  V30 2342 C 235.503 1.59609 0.195317 0
M  V30 2343 O 236.693 1.74174 -0.0300193 0
M  V30 2344 C 233.825 3.4047 -0.171174 0
M  V30 2345 H 235.018 2.46116 -1.71368 0
M  V30 2346 H 232.571 1.26089 -0.923652 0
M  V30 2347 H 233.306 3.15176 0.763832 0
M  V30 2348 H 233.091 3.82109 -0.879514 0
M  V30 2349 H 234.581 4.17576 0.04496 0
M  V30 2350 N 235.018 0.912232 1.28515 0
M  V30 2351 C 236.295 0.463597 1.90027 0
M  V30 2352 C 236.675 -1.05753 1.82701 0
M  V30 2353 O 236.023 -1.90492 1.26194 0
M  V30 2354 C 236.233 0.992253 3.34597 0
M  V30 2355 C 237.581 1.04344 4.11579 0
M  V30 2356 O 238.605 0.94079 3.43551 0
M  V30 2357 O 237.464 1.1995 5.33174 0
M  V30 2358 H 234.558 0.146666 0.813891 0
M  V30 2359 H 237.104 1.00292 1.36893 0
M  V30 2360 H 235.876 2.03623 3.34146 0
M  V30 2361 H 235.499 0.433672 3.95228 0
M  V30 2362 N 236.496 -1.42363 0.676048 0
M  V30 2363 C 237.443 -2.308 -0.00150904 0
M  V30 2364 C 238.413 -1.46032 -0.791444 0
M  V30 2365 O 239.598 -1.74861 -0.76344 0
M  V30 2366 C 236.738 -3.31883 -0.945919 0
M  V30 2367 C 235.851 -4.31741 -0.149675 0
M  V30 2368 C 234.986 -5.19898 -1.08995 0
M  V30 2369 C 234.025 -6.11434 -0.285465 0
M  V30 2370 N 233.162 -6.92138 -1.17851 0
M  V30 2371 H 238.002 -2.88187 0.758455 0
M  V30 2372 H 235.539 -1.41952 0.38576 0
M  V30 2373 H 237.497 -3.89019 -1.50731 0
M  V30 2374 H 236.127 -2.76093 -1.6725 0
M  V30 2375 H 235.179 -3.76713 0.528359 0
M  V30 2376 H 236.491 -4.96534 0.474866 0
M  V30 2377 H 235.645 -5.81772 -1.72123 0
M  V30 2378 H 234.384 -4.55284 -1.74837 0
M  V30 2379 H 233.389 -5.48627 0.359018 0
M  V30 2380 H 234.614 -6.78097 0.368883 0
M  V30 2381 H 232.56 -6.30152 -1.82332 0
M  V30 2382 H 232.477 -7.53542 -0.609082 0
M  V30 2383 H 233.745 -7.58499 -1.79722 0
M  V30 2384 N 237.974 -0.419461 -1.51915 0
M  V30 2385 C 239.251 0.211999 -1.94448 0
M  V30 2386 C 239.631 1.61703 -1.35703 0
M  V30 2387 O 238.979 2.22102 -0.536931 0
M  V30 2388 C 239.189 0.207872 -3.4838 0
M  V30 2389 C 240.537 0.422192 -4.22496 0
M  V30 2390 O 241.561 0.286778 -3.55044 0
M  V30 2391 O 240.42 0.690009 -5.42126 0
M  V30 2392 H 237.514 0.139586 -0.815135 0
M  V30 2393 H 240.06 -0.476151 -1.62883 0
M  V30 2394 H 238.832 -0.775102 -3.83546 0
M  V30 2395 H 238.455 0.939688 -3.86336 0
M  V30 2396 N 239.452 1.56882 -0.150215 0
M  V30 2397 C 240.7 1.9584 0.499105 0
M  V30 2398 C 241.021 1.03623 1.65188 0
M  V30 2399 O 240.291 0.0984084 1.95653 0
M  V30 2400 H 238.871 0.723119 0.187373 0
M  V30 2401 H 241.533 1.9358 -0.226466 0
M  V30 2402 H 240.629 2.99638 0.873122 0
M  V30 2403 N 240.93 -0.123565 1.57115 0
M  V30 2404 C 241.84 -1.17074 2.033 0
M  V30 2405 C 242.856 -1.4561 0.952559 0
M  V30 2406 O 244.032 -1.56817 1.26374 0
M  V30 2407 C 241.097 -2.47857 2.42421 0
M  V30 2408 C 240.158 -2.26758 3.64526 0
M  V30 2409 C 239.391 -3.51305 4.01771 0
M  V30 2410 O 239.614 -4.5843 3.39409 0
M  V30 2411 O 238.548 -3.42578 4.94898 0
M  V30 2412 H 242.374 -0.808555 2.92739 0
M  V30 2413 H 239.959 -0.334027 1.45618 0
M  V30 2414 H 241.841 -3.2492 2.68338 0
M  V30 2415 H 240.516 -2.83558 1.5613 0
M  V30 2416 H 239.423 -1.47569 3.43765 0
M  V30 2417 H 240.756 -1.95963 4.51508 0
M  V30 2418 N 242.408 -1.52605 -0.393616 0
M  V30 2419 C 243.657 -1.66649 -1.13627 0
M  V30 2420 C 243.97 -0.410364 -1.91247 0
M  V30 2421 O 245.176 -0.430854 -2.68059 0
M  V30 2422 C 243.632 -2.9449 -2.06891 0
M  V30 2423 C 243.24 -4.27266 -1.34714 0
M  V30 2424 C 244.984 -3.17899 -2.81319 0
M  V30 2425 C 242.891 -5.46217 -2.26717 0
M  V30 2426 H 241.821 -0.62084 -0.427871 0
M  V30 2427 H 244.472 -1.791 -0.399428 0
M  V30 2428 H 242.854 -2.75774 -2.84191 0
M  V30 2429 H 244.028 -4.56518 -0.626714 0
M  V30 2430 H 242.343 -4.10081 -0.722643 0
M  V30 2431 H 244.94 -4.03949 -3.50328 0
M  V30 2432 H 245.283 -2.32777 -3.45139 0
M  V30 2433 H 245.816 -3.37159 -2.11113 0
M  V30 2434 H 242.555 -6.33733 -1.67521 0
M  V30 2435 H 242.075 -5.21283 -2.96689 0
M  V30 2436 H 243.754 -5.7991 -2.86903 0
M  V30 2437 N 243.887 0.651787 -1.4349 0
M  V30 2438 C 245.117 1.43728 -1.48411 0
M  V30 2439 C 245.525 1.8893 -0.10103 0
M  V30 2440 O 244.868 1.60182 0.899307 0
M  V30 2441 C 244.93 2.70411 -2.36893 0
M  V30 2442 C 244.594 2.4714 -3.8441 0
M  V30 2443 C 245.591 2.10271 -4.75481 0
M  V30 2444 C 243.276 2.6142 -4.28912 0
M  V30 2445 C 245.27 1.87982 -6.0905 0
M  V30 2446 C 242.957 2.38746 -5.62533 0
M  V30 2447 C 243.955 2.02083 -6.5242 0
M  V30 2448 O 243.643 1.79647 -7.8357 0
M  V30 2449 H 243.375 0.447962 -0.506267 0
M  V30 2450 H 245.929 0.80624 -1.88915 0
M  V30 2451 H 244.159 3.36079 -1.91278 0
M  V30 2452 H 245.848 3.32364 -2.33 0
M  V30 2453 H 246.614 1.98814 -4.42378 0
M  V30 2454 H 242.493 2.88931 -3.59222 0
M  V30 2455 H 246.037 1.5929 -6.7917 0
M  V30 2456 H 241.934 2.49806 -5.95203 0
M  V30 2457 H 242.702 1.9406 -7.95162 0
M  V30 2458 N 245.365 1.30045 0.890287 0
M  V30 2459 C 246.605 1.19839 1.65584 0
M  V30 2460 C 246.969 -0.244175 1.90441 0
M  V30 2461 O 248.17 -0.469378 2.6467 0
M  V30 2462 C 246.441 1.99876 2.96284 0
M  V30 2463 S 248 2.06309 3.87275 0
M  V30 2464 H 244.818 0.427157 0.568382 0
M  V30 2465 H 247.42 1.64453 1.05715 0
M  V30 2466 H 246.124 3.03809 2.75913 0
M  V30 2467 H 245.655 1.55903 3.61189 0
M  V30 2468 H 247.67 1.18661 4.81803 0
M  V30 2469 N 246.843 -1.10192 1.12674 0
M  V30 2470 C 247.79 -2.16606 0.796906 0
M  V30 2471 C 248.76 -1.64394 -0.237476 0
M  V30 2472 O 249.945 -1.90474 -0.111484 0
M  V30 2473 C 247.085 -3.44116 0.26043 0
M  V30 2474 C 246.198 -4.10268 1.35293 0
M  V30 2475 C 245.333 -5.25507 0.775621 0
M  V30 2476 C 244.372 -5.83567 1.84706 0
M  V30 2477 N 243.509 -6.90179 1.28829 0
M  V30 2478 H 248.349 -2.44163 1.70846 0
M  V30 2479 H 245.886 -1.19846 0.85295 0
M  V30 2480 H 247.844 -4.17143 -0.0686814 0
M  V30 2481 H 246.474 -3.16901 -0.614274 0
M  V30 2482 H 245.526 -3.35184 1.79877 0
M  V30 2483 H 246.838 -4.4946 2.16303 0
M  V30 2484 H 245.992 -6.05398 0.397327 0
M  V30 2485 H 244.731 -4.87656 -0.0656581 0
M  V30 2486 H 243.736 -5.02344 2.23452 0
M  V30 2487 H 244.961 -6.23482 2.69161 0
M  V30 2488 H 242.907 -6.54322 0.468881 0
M  V30 2489 H 242.824 -7.28097 2.03497 0
M  V30 2490 H 244.092 -7.73844 0.937311 0
M  V30 2491 N 248.321 -0.919034 -1.28029 0
M  V30 2492 C 249.569 -0.553838 -1.94363 0
M  V30 2493 C 249.89 0.906357 -1.72656 0
M  V30 2494 O 249.16 1.64143 -1.0693 0
M  V30 2495 H 247.74 -0.201834 -0.719216 0
M  V30 2496 H 250.402 -1.16954 -1.55909 0
M  V30 2497 H 249.498 -0.752758 -3.02886 0
M  V30 2498 N 249.799 1.42003 -0.683588 0
M  V30 2499 C 251.039 2.03282 -0.213513 0
M  V30 2500 C 251.403 1.52924 1.16097 0
M  V30 2501 O 252.604 2.06048 1.7262 0
M  V30 2502 C 250.875 3.56483 -0.255856 0
M  V30 2503 S 252.434 4.3857 0.14193 0
M  V30 2504 H 249.252 0.705659 -0.0869853 0
M  V30 2505 H 251.854 1.73619 -0.8987 0
M  V30 2506 H 250.558 3.90631 -1.25841 0
M  V30 2507 H 250.089 3.90831 0.448875 0
M  V30 2508 H 252.104 4.76828 1.37295 0
M  V30 2509 N 251.277 0.427512 1.51691 0
M  V30 2510 C 252.507 -0.140986 2.06118 0
M  V30 2511 C 252.915 -1.37854 1.29588 0
M  V30 2512 O 252.258 -1.80411 0.346036 0
M  V30 2513 C 252.32 -0.538276 3.55447 0
M  V30 2514 C 251.984 0.591095 4.53161 0
M  V30 2515 C 252.981 1.46027 4.98971 0
M  V30 2516 C 250.666 0.769028 4.96378 0
M  V30 2517 C 252.66 2.49216 5.8666 0
M  V30 2518 C 250.347 1.80421 5.83859 0
M  V30 2519 C 251.345 2.66417 6.28897 0
M  V30 2520 O 251.033 3.68159 7.14643 0
M  V30 2521 H 250.765 -0.0157455 0.675817 0
M  V30 2522 H 253.319 0.602495 1.96365 0
M  V30 2523 H 251.549 -1.33432 3.6295 0
M  V30 2524 H 253.238 -1.0368 3.92435 0
M  V30 2525 H 254.004 1.33429 4.66285 0
M  V30 2526 H 249.883 0.109273 4.6087 0
M  V30 2527 H 253.427 3.16372 6.21735 0
M  V30 2528 H 249.324 1.93042 6.15959 0
M  V30 2529 H 250.092 3.64622 7.32798 0
M  V30 2530 N 252.755 -1.56801 0.158532 0
M  V30 2531 C 253.718 -2.16138 -0.762705 0
M  V30 2532 C 254.718 -1.1061 -1.16713 0
M  V30 2533 O 255.908 -1.36191 -1.08617 0
M  V30 2534 C 253.04 -2.73386 -2.03649 0
M  V30 2535 H 254.233 -2.98886 -0.246354 0
M  V30 2536 H 251.786 -1.56035 -0.0909744 0
M  V30 2537 H 252.521 -1.94335 -2.59623 0
M  V30 2538 H 252.306 -3.50601 -1.75559 0
M  V30 2539 H 253.796 -3.19065 -2.6942 0
M  V30 2540 N 254.233 0.115231 -1.57178 0
M  V30 2541 C 255.18 1.14115 -2.00615 0
M  V30 2542 C 256.15 1.40939 -0.878941 0
M  V30 2543 O 257.335 1.52741 -1.14345 0
M  V30 2544 C 254.475 2.46156 -2.4187 0
M  V30 2545 C 253.588 2.26236 -3.68024 0
M  V30 2546 C 252.723 3.51534 -3.98243 0
M  V30 2547 C 251.762 3.26787 -5.17568 0
M  V30 2548 N 250.899 4.44298 -5.43639 0
M  V30 2549 H 255.739 0.763743 -2.88047 0
M  V30 2550 H 253.276 0.365615 -1.42484 0
M  V30 2551 H 255.234 3.23189 -2.63827 0
M  V30 2552 H 253.864 2.81783 -1.57475 0
M  V30 2553 H 252.916 1.40102 -3.5366 0
M  V30 2554 H 254.228 2.03929 -4.55208 0
M  V30 2555 H 253.382 4.36984 -4.20868 0
M  V30 2556 H 252.121 3.76876 -3.09541 0
M  V30 2557 H 251.126 2.39729 -4.94783 0
M  V30 2558 H 252.351 3.02812 -6.0785 0
M  V30 2559 H 250.297 4.69754 -4.57895 0
M  V30 2560 H 250.214 4.25109 -6.25154 0
M  V30 2561 H 251.482 5.3087 -5.70786 0
M  V30 2562 N 255.711 1.52812 0.385517 0
M  V30 2563 C 256.659 1.78482 1.49155 0
M  V30 2564 C 257.653 0.652914 1.56312 0
M  V30 2565 O 258.859 0.835464 1.59436 0
M  V30 2566 H 255.234 0.5648 0.496493 0
M  V30 2567 H 257.205 2.71095 1.24699 0
M  V30 2568 C 255.954 1.97378 2.86247 0
M  V30 2569 H 255.277 2.83907 2.81491 0
M  V30 2570 H 256.717 2.19327 3.62866 0
M  V30 2571 C 255.176 0.74728 3.28508 0
M  V30 2572 O 255.706 -0.0736232 4.01633 0
M  V30 2573 N 253.912 0.576396 2.84826 0
M  V30 2574 H 253.459 1.24555 2.25486 0
M  V30 2575 H 253.417 -0.24288 3.1346 0
M  V30 2576 N 257.189 -0.644168 1.43834 0
M  V30 2577 C 258.436 -1.40395 1.4593 0
M  V30 2578 C 258.764 -1.94305 0.0869658 0
M  V30 2579 O 258.019 -1.73288 -0.909378 0
M  V30 2580 C 258.318 -2.59615 2.45631 0
M  V30 2581 C 257.984 -2.2407 3.91284 0
M  V30 2582 C 256.646 -2.14089 4.30952 0
M  V30 2583 C 258.998 -1.95775 4.83034 0
M  V30 2584 C 256.326 -1.73981 5.6031 0
M  V30 2585 C 258.678 -1.57163 6.12766 0
M  V30 2586 C 257.342 -1.45713 6.51402 0
M  V30 2587 H 256.612 -0.513741 0.533995 0
M  V30 2588 H 259.259 -0.731724 1.76969 0
M  V30 2589 H 257.564 -3.32011 2.08028 0
M  V30 2590 H 259.261 -3.17834 2.44504 0
M  V30 2591 H 255.851 -2.32753 3.59895 0
M  V30 2592 H 260.035 -2.02403 4.53152 0
M  V30 2593 H 255.291 -1.63709 5.89075 0
M  V30 2594 H 259.465 -1.34303 6.83327 0
M  V30 2595 H 257.092 -1.14406 7.51542 0
M  V30 2596 N 258.668 -1.30515 -0.883378 0
M  V30 2597 C 259.916 -1.19194 -1.63209 0
M  V30 2598 C 260.237 0.253205 -1.93349 0
M  V30 2599 O 259.507 1.17025 -1.57105 0
M  V30 2600 H 258.087 -0.438148 -0.605009 0
M  V30 2601 H 260.749 -1.63663 -1.05832 0
M  V30 2602 H 259.845 -1.75396 -2.58153 0
M  V30 2603 N 260.146 1.09593 -1.13257 0
M  V30 2604 C 261.557 1.63229 -0.906274 0
M  V30 2605 C 261.908 1.8811 0.557578 0
M  V30 2606 O 261.033 1.62953 1.42391 0
M  V30 2607 C 261.628 2.96535 -1.63867 0
M  V30 2608 C 260.187 3.47003 -1.45828 0
M  V30 2609 C 259.334 2.2145 -1.66898 0
M  V30 2610 H 262.285 0.92978 -1.28611 0
M  V30 2611 H 262.306 3.64411 -1.09476 0
M  V30 2612 H 261.818 2.78394 -2.70404 0
M  V30 2613 H 259.919 3.70272 -0.415848 0
M  V30 2614 H 260.032 4.24551 -2.2202 0
M  V30 2615 H 258.396 2.30022 -1.09371 0
M  V30 2616 H 259.179 2.0583 -2.74752 0
M  V30 2617 N 261.624 0.925811 1.2754 0
M  V30 2618 C 262.571 0.422045 2.26908 0
M  V30 2619 C 263.541 -0.510029 1.58076 0
M  V30 2620 O 264.726 -0.429599 1.85901 0
M  V30 2621 C 261.866 -0.320837 3.43605 0
M  V30 2622 C 260.979 0.64513 4.27156 0
M  V30 2623 C 260.114 -0.117405 5.3107 0
M  V30 2624 C 259.153 0.841391 6.0629 0
M  V30 2625 N 258.29 0.111604 7.02011 0
M  V30 2626 H 263.13 1.27441 2.69375 0
M  V30 2627 H 260.667 0.639697 1.32462 0
M  V30 2628 H 262.625 -0.76785 4.10073 0
M  V30 2629 H 261.255 -1.13745 3.02096 0
M  V30 2630 H 260.307 1.21067 3.6062 0
M  V30 2631 H 261.619 1.37797 4.79389 0
M  V30 2632 H 260.773 -0.624422 6.03478 0
M  V30 2633 H 259.512 -0.883219 4.79636 0
M  V30 2634 H 258.517 1.35967 5.32722 0
M  V30 2635 H 259.742 1.60696 6.59813 0
M  V30 2636 H 257.688 -0.635999 6.5291 0
M  V30 2637 H 257.605 0.784044 7.51923 0
M  V30 2638 H 258.873 -0.374823 7.78598 0
M  V30 2639 N 263.102 -1.41638 0.69111 0
M  V30 2640 C 264.35 -2.00902 0.219758 0
M  V30 2641 C 264.671 -1.54994 -1.18329 0
M  V30 2642 O 263.941 -0.778628 -1.79762 0
M  V30 2643 H 262.521 -0.74289 0.0782558 0
M  V30 2644 H 265.183 -1.73327 0.891271 0
M  V30 2645 H 264.279 -3.11224 0.233708 0
M  V30 2646 N 264.58 -0.43555 -1.51462 0
M  V30 2647 C 265.827 0.131514 -2.02072 0
M  V30 2648 C 266.155 1.42868 -1.31981 0
M  V30 2649 O 265.41 1.91076 -0.422883 0
M  V30 2650 C 265.709 0.39942 -3.55161 0
M  V30 2651 C 265.375 -0.81172 -4.43533 0
M  V30 2652 C 264.037 -1.14387 -4.67407 0
M  V30 2653 C 266.389 -1.61976 -4.95392 0
M  V30 2654 C 263.717 -2.28477 -5.40384 0
M  V30 2655 C 266.069 -2.75164 -5.6962 0
M  V30 2656 C 264.733 -3.08835 -5.91758 0
M  V30 2657 H 264.003 0.0481244 -0.739436 0
M  V30 2658 H 266.65 -0.58238 -1.8243 0
M  V30 2659 H 264.955 1.19519 -3.73125 0
M  V30 2660 H 266.652 0.85157 -3.91854 0
M  V30 2661 H 263.242 -0.542898 -4.25148 0
M  V30 2662 H 267.426 -1.37637 -4.76833 0
M  V30 2663 H 262.682 -2.5488 -5.55739 0
M  V30 2664 H 266.856 -3.38147 -6.08793 0
M  V30 2665 H 264.483 -3.97353 -6.48086 0
M  V30 2666 N 266.058 1.56714 -0.166846 0
M  V30 2667 C 267.306 1.96358 0.478305 0
M  V30 2668 C 267.627 1.0537 1.6408 0
M  V30 2669 O 266.897 0.119154 1.95537 0
M  V30 2670 H 265.477 0.725065 0.179692 0
M  V30 2671 H 268.139 1.93329 -0.246985 0
M  V30 2672 H 267.235 3.00547 0.841292 0
M  V30 2673 N 267.536 -0.106894 1.57237 0
M  V30 2674 C 268.783 -0.812526 1.85484 0
M  V30 2675 C 269.111 -1.79304 0.753687 0
M  V30 2676 O 268.366 -1.94047 -0.253853 0
M  V30 2677 C 268.665 -1.58628 3.20268 0
M  V30 2678 C 268.331 -0.748967 4.44636 0
M  V30 2679 C 266.993 -0.518104 4.78403 0
M  V30 2680 C 269.345 -0.166122 5.20935 0
M  V30 2681 C 266.673 0.305659 5.85903 0
M  V30 2682 C 269.025 0.644899 6.29304 0
M  V30 2683 C 267.689 0.885965 6.61594 0
M  V30 2684 H 266.959 -0.297324 0.678734 0
M  V30 2685 H 269.606 -0.0744332 1.91355 0
M  V30 2686 H 267.911 -2.39562 3.10028 0
M  V30 2687 H 269.608 -2.13643 3.39349 0
M  V30 2688 H 266.198 -0.939006 4.18187 0
M  V30 2689 H 270.382 -0.33167 4.95191 0
M  V30 2690 H 265.638 0.501528 6.0934 0
M  V30 2691 H 269.812 1.10345 6.87602 0
M  V30 2692 H 267.439 1.52609 7.44725 0
M  V30 2693 N 269.014 -1.53014 -0.377408 0
M  V30 2694 C 270.262 -1.6829 -1.11906 0
M  V30 2695 C 270.583 -0.431206 -1.90173 0
M  V30 2696 O 269.853 0.554595 -1.87886 0
M  V30 2697 H 268.433 -0.620371 -0.416112 0
M  V30 2698 H 271.095 -1.90167 -0.426893 0
M  V30 2699 H 270.191 -2.53862 -1.8155 0
M  V30 2700 N 270.492 0.636531 -1.44174 0
M  V30 2701 C 271.424 1.7618 -1.46606 0
M  V30 2702 C 272.437 1.58768 -0.360091 0
M  V30 2703 O 273.626 1.67181 -0.625518 0
M  V30 2704 C 270.726 3.13833 -1.27915 0
M  V30 2705 C 269.899 3.57753 -2.51658 0
M  V30 2706 C 268.958 4.74265 -2.27945 0
M  V30 2707 O 267.984 4.82852 -3.01401 0
M  V30 2708 N 269.186 5.65604 -1.30662 0
M  V30 2709 H 271.951 1.74567 -2.43612 0
M  V30 2710 H 269.512 0.820924 -1.39544 0
M  V30 2711 H 271.504 3.8949 -1.09907 0
M  V30 2712 H 270.074 3.10121 -0.39293 0
M  V30 2713 H 269.294 2.72362 -2.84978 0
M  V30 2714 H 270.582 3.83847 -3.33974 0
M  V30 2715 H 269.98 5.61354 -0.699844 0
M  V30 2716 H 268.537 6.40913 -1.18634 0
M  V30 2717 N 271.97 1.30982 0.876444 0
M  V30 2718 C 273.218 1.20058 1.62575 0
M  V30 2719 C 273.539 -0.242947 1.93481 0
M  V30 2720 O 272.809 -1.1619 1.57724 0
M  V30 2721 H 271.389 0.44135 0.602677 0
M  V30 2722 H 274.051 1.64222 1.04962 0
M  V30 2723 H 273.147 1.76762 2.57219 0
M  V30 2724 N 273.449 -1.08991 1.13837 0
M  V30 2725 C 274.412 -2.13925 0.822715 0
M  V30 2726 C 275.412 -1.599 -0.1699 0
M  V30 2727 O 276.602 -1.74104 0.0577251 0
M  V30 2728 C 273.734 -3.40155 0.225318 0
M  V30 2729 H 274.927 -2.43358 1.75262 0
M  V30 2730 H 272.48 -1.24603 0.943594 0
M  V30 2731 H 273.215 -3.16352 -0.713594 0
M  V30 2732 H 273 -3.80661 0.940193 0
M  V30 2733 H 274.49 -4.17594 0.0214784 0
M  V30 2734 N 274.927 -0.932562 -1.27047 0
M  V30 2735 C 276.175 -0.574422 -1.93765 0
M  V30 2736 C 276.496 0.887993 -1.73608 0
M  V30 2737 O 275.766 1.62999 -1.08665 0
M  V30 2738 H 274.346 -0.209451 -0.717035 0
M  V30 2739 H 277.008 -1.18601 -1.5466 0
M  V30 2740 H 276.104 -0.784841 -3.02071 0
M  V30 2741 N 276.405 1.4127 -0.698611 0
M  V30 2742 C 277.368 2.29158 -0.044132 0
M  V30 2743 C 278.368 1.44529 0.704841 0
M  V30 2744 O 279.558 1.65643 0.539276 0
M  V30 2745 C 276.69 3.27459 0.947809 0
M  V30 2746 H 277.883 2.88529 -0.817994 0
M  V30 2747 H 275.436 1.49307 -0.46228 0
M  V30 2748 H 276.171 2.73073 1.74933 0
M  V30 2749 H 275.956 3.8991 0.41385 0
M  V30 2750 H 277.446 3.93311 1.40344 0
M  V30 2751 N 277.883 0.443576 1.51229 0
M  V30 2752 C 278.813 -0.355142 2.30783 0
M  V30 2753 C 279.794 -1.0154 1.36468 0
M  V30 2754 O 280.979 -1.01785 1.65389 0
M  V30 2755 C 278.109 -1.45312 3.15439 0
M  V30 2756 C 277.063 -0.916002 4.18083 0
M  V30 2757 C 276.389 -2.1102 4.91299 0
M  V30 2758 C 277.689 0.0538602 5.22272 0
M  V30 2759 H 279.383 0.308767 2.97804 0
M  V30 2760 H 276.929 0.149937 1.43217 0
M  V30 2761 H 278.882 -2.01914 3.69876 0
M  V30 2762 H 277.606 -2.14541 2.46252 0
M  V30 2763 H 276.265 -0.372145 3.64706 0
M  V30 2764 H 275.913 -2.78882 4.18609 0
M  V30 2765 H 275.613 -1.75717 5.60712 0
M  V30 2766 H 277.137 -2.68164 5.48562 0
M  V30 2767 H 278.551 -0.422069 5.71744 0
M  V30 2768 H 276.948 0.319776 5.99247 0
M  V30 2769 H 278.018 0.98858 4.74716 0
M  V30 2770 N 279.361 -1.56624 0.175154 0
M  V30 2771 C 280.607 -1.9729 -0.469506 0
M  V30 2772 C 280.94 -1.06128 -1.62636 0
M  V30 2773 O 280.215 -0.109183 -1.94193 0
M  V30 2774 C 280.498 -3.47375 -0.948804 0
M  V30 2775 C 280.351 -4.49317 0.208491 0
M  V30 2776 C 281.67 -4.00652 -1.82116 0
M  V30 2777 H 278.789 -0.717317 -0.16919 0
M  V30 2778 H 281.431 -1.88184 0.262062 0
M  V30 2779 H 279.581 -3.55267 -1.57219 0
M  V30 2780 H 281.253 -4.53482 0.845682 0
M  V30 2781 H 279.496 -4.25121 0.863395 0
M  V30 2782 H 280.167 -5.51741 -0.169059 0
M  V30 2783 H 282.643 -3.95416 -1.2956 0
M  V30 2784 H 281.519 -5.06075 -2.12554 0
M  V30 2785 H 281.78 -3.44699 -2.7683 0
M  V30 2786 N 280.839 0.0985539 -1.57292 0
M  V30 2787 C 281.789 1.1261 -1.9825 0
M  V30 2788 C 282.773 1.35961 -0.860426 0
M  V30 2789 O 283.965 1.36711 -1.12424 0
M  V30 2790 C 281.094 2.44727 -2.40757 0
M  V30 2791 C 280.18 2.24764 -3.59642 0
M  V30 2792 N 280.571 1.74661 -4.74687 0
M  V30 2793 C 278.869 2.55344 -3.65672 0
M  V30 2794 C 279.57 1.68887 -5.56644 0
M  V30 2795 N 278.546 2.13976 -4.99715 0
M  V30 2796 H 282.348 0.731604 -2.84648 0
M  V30 2797 H 279.862 0.306029 -1.59491 0
M  V30 2798 H 281.859 3.19072 -2.68326 0
M  V30 2799 H 280.519 2.84917 -1.55733 0
M  V30 2800 H 281.53 1.43908 -4.97505 0
M  V30 2801 H 278.207 2.99081 -2.91302 0
M  V30 2802 H 279.597 1.3123 -6.5896 0
M  V30 2803 N 282.317 1.53212 0.369288 0
M  V30 2804 C 283.542 1.73423 1.1375 0
M  V30 2805 C 283.967 0.460404 1.82378 0
M  V30 2806 O 283.325 -0.585298 1.71592 0
M  V30 2807 C 283.373 2.89769 2.1463 0
M  V30 2808 O 282.477 2.58119 3.21634 0
M  V30 2809 H 281.818 0.576061 0.330227 0
M  V30 2810 H 284.348 2.00083 0.427547 0
M  V30 2811 H 284.358 3.15829 2.58294 0
M  V30 2812 H 283.033 3.8217 1.64071 0
M  V30 2813 H 281.61 2.42864 2.82969 0
M  V30 2814 N 283.795 -0.628877 1.44509 0
M  V30 2815 C 284.705 -1.7694 1.54044 0
M  V30 2816 C 285.721 -1.68705 0.425987 0
M  V30 2817 O 286.897 -1.89442 0.683656 0
M  V30 2818 C 283.962 -3.13332 1.48405 0
M  V30 2819 C 283.023 -3.33181 2.70719 0
M  V30 2820 C 282.256 -4.63067 2.6534 0
M  V30 2821 O 282.479 -5.44017 1.71469 0
M  V30 2822 O 281.413 -4.85167 3.56226 0
M  V30 2823 H 285.239 -1.71848 2.50403 0
M  V30 2824 H 282.824 -0.790378 1.26781 0
M  V30 2825 H 284.706 -3.94634 1.47791 0
M  V30 2826 H 283.381 -3.1896 0.551898 0
M  V30 2827 H 282.288 -2.51549 2.769 0
M  V30 2828 H 283.621 -3.32416 3.62988 0
M  V30 2829 O 285.312 -1.41833 -0.772381 0
M  V30 2830 H 286.003 -1.31768 -1.41975 0
M  V30 END ATOM
M  V30 BEGIN BOND
M  V30 END BOND
M  V30 END CTAB
M  END
$$$$
