drugbank_target|P30301 Lens fiber major intrinsic protein (DB02451)
 OpenBabel12092120433D

  0  0  0     0  0            999 V3000
M  V30 BEGIN CTAB
M  V30 COUNTS 3992 4048 0 0 0
M  V30 BEGIN ATOM
M  V30 1 H -0.908 1.98254 -0.117106 0
M  V30 2 N 0 1.576 0 0
M  V30 3 C 0.933 2.03868 1.02534 0
M  V30 4 C 1.911 0.928543 1.3348 0
M  V30 5 O 3.095 1.19667 1.45644 0
M  V30 6 C 0.222 2.43627 2.35294 0
M  V30 7 C -0.732 3.65373 2.2001 0
M  V30 8 S 0.101 5.13292 1.52614 0
M  V30 9 C 1.257 5.56322 2.86805 0
M  V30 10 H 1.49 2.90518 0.631377 0
M  V30 11 H -0.977 1.52953 0.210867 0
M  V30 12 H 0.981 2.67203 3.11629 0
M  V30 13 H -0.358 1.57376 2.7183 0
M  V30 14 H -1.165 3.90944 3.18086 0
M  V30 15 H -1.563 3.418 1.51819 0
M  V30 16 H 0.729 5.58782 3.83104 0
M  V30 17 H 1.672 6.56266 2.65933 0
M  V30 18 H 2.08 4.83886 2.90714 0
M  V30 19 N 1.4781 -0.272755 1.55222 0
M  V30 20 C 2.7241 -1.00172 1.77023 0
M  V30 21 C 3.0791 -1.83928 0.564633 0
M  V30 22 O 2.3721 -1.86416 -0.442674 0
M  V30 23 C 2.5661 -1.91642 3.01675 0
M  V30 24 C 2.3951 -1.16888 4.34243 0
M  V30 25 C 1.1651 -0.884464 4.97499 0
M  V30 26 C 3.3631 -0.55919 5.11251 0
M  V30 27 N 1.3451 -0.11015 6.13801 0
M  V30 28 C 2.7161 0.0809469 6.19947 0
M  V30 29 C 4.7711 -0.467058 4.95705 0
M  V30 30 C 3.4741 0.804335 7.14789 0
M  V30 31 C 5.5001 0.242739 5.90902 0
M  V30 32 C 4.8621 0.871613 6.98987 0
M  V30 33 H 0.9611 -0.348529 0.700037 0
M  V30 34 H 3.5451 -0.277365 1.92714 0
M  V30 35 H 1.7161 -2.61303 2.87359 0
M  V30 36 H 3.4481 -2.57901 3.1188 0
M  V30 37 H 0.2031 -1.18979 4.58411 0
M  V30 38 H 0.6271 0.264344 6.76484 0
M  V30 39 H 5.2691 -0.93894 4.12242 0
M  V30 40 H 2.9871 1.2879 7.97771 0
M  V30 41 H 6.5731 0.314347 5.8095 0
M  V30 42 H 5.4531 1.4121 7.71381 0
M  V30 43 N 2.9562 -1.48159 -0.537278 0
M  V30 44 C 3.8662 -1.64807 -1.6696 0
M  V30 45 C 4.8822 -0.530651 -1.65711 0
M  V30 46 O 6.0582 -0.800784 -1.84796 0
M  V30 47 C 3.1232 -1.67708 -3.03438 0
M  V30 48 C 2.1842 -2.91025 -3.156 0
M  V30 49 C 1.4172 -2.93778 -4.45567 0
M  V30 50 O 1.6402 -2.05153 -5.3223 0
M  V30 51 O 0.5742 -3.85868 -4.61941 0
M  V30 52 H 4.4002 -2.6066 -1.55853 0
M  V30 53 H 1.9852 -1.31475 -0.709549 0
M  V30 54 H 3.8672 -1.7218 -3.84619 0
M  V30 55 H 2.5422 -0.750278 -3.14885 0
M  V30 56 H 1.4492 -2.92089 -2.33741 0
M  V30 57 H 2.7822 -3.83065 -3.09066 0
M  V30 58 N 4.4343 0.785586 -1.36625 0
M  V30 59 C 5.3643 1.91259 -1.33949 0
M  V30 60 C 6.3453 1.68795 -0.210325 0
M  V30 61 O 7.5303 1.89854 -0.408561 0
M  V30 62 C 4.6603 3.28339 -1.13186 0
M  V30 63 C 3.6143 3.65335 -2.22967 0
M  V30 64 C 2.9403 5.00806 -1.87342 0
M  V30 65 C 4.2403 3.7352 -3.65075 0
M  V30 66 H 5.9343 1.93755 -2.28253 0
M  V30 67 H 3.4803 0.930788 -1.09874 0
M  V30 68 H 5.4333 4.06804 -1.09948 0
M  V30 69 H 4.1573 3.2624 -0.153332 0
M  V30 70 H 2.8163 2.89169 -2.25337 0
M  V30 71 H 2.4643 4.95233 -0.880545 0
M  V30 72 H 2.1643 5.26529 -2.60846 0
M  V30 73 H 3.6883 5.81687 -1.85667 0
M  V30 74 H 5.1023 4.42168 -3.64911 0
M  V30 75 H 3.4993 4.10731 -4.37516 0
M  V30 76 H 4.5693 2.74527 -3.99703 0
M  V30 77 N 5.9124 1.20967 1.01018 0
M  V30 78 C 7.3284 0.965905 1.27053 0
M  V30 79 C 7.5284 -0.350785 1.98423 0
M  V30 80 O 6.5844 -1.07773 2.28344 0
M  V30 81 C 7.8974 2.15294 2.09926 0
M  V30 82 C 9.4454 2.19463 2.23171 0
M  V30 83 C 9.9204 3.3767 3.09424 0
M  V30 84 N 11.4114 3.37724 3.17012 0
M  V30 85 C 12.1464 4.25837 3.83993 0
M  V30 86 N 11.6424 5.24138 4.53047 0
M  V30 87 N 13.4354 4.1366 3.80581 0
M  V30 88 H 5.5864 2.0565 0.531194 0
M  V30 89 H 7.8494 0.90024 0.297106 0
M  V30 90 H 7.5554 3.10684 1.64828 0
M  V30 91 H 7.4294 2.13923 3.10672 0
M  V30 92 H 9.8164 1.24632 2.6749 0
M  V30 93 H 9.8974 2.2488 1.21912 0
M  V30 94 H 9.5414 4.32791 2.65808 0
M  V30 95 H 9.4714 3.29491 4.10784 0
M  V30 96 H 11.9624 2.6658 2.6785 0
M  V30 97 H 12.2754 5.87684 5.01844 0
M  V30 98 H 10.6204 5.28068 4.5185 0
M  V30 99 H 13.8114 3.36127 3.25785 0
M  V30 100 H 13.9844 4.82538 4.32505 0
M  V30 101 N 7.3905 -1.2043 1.01659 0
M  V30 102 C 8.6155 -1.94318 0.724942 0
M  V30 103 C 9.0405 -1.74266 -0.708034 0
M  V30 104 O 8.3985 -1.03694 -1.48719 0
M  V30 105 C 8.4465 -3.44486 1.06591 0
M  V30 106 O 7.5505 -4.12017 0.177599 0
M  V30 107 H 6.8915 -0.60708 0.26898 0
M  V30 108 H 9.4215 -1.52861 1.35995 0
M  V30 109 H 9.4315 -3.95106 1.01762 0
M  V30 110 H 8.1065 -3.58404 2.10997 0
M  V30 111 H 6.6835 -3.71821 0.283421 0
M  V30 112 N 8.8686 -0.792821 -1.36206 0
M  V30 113 C 9.8316 -0.199459 -2.2833 0
M  V30 114 C 10.8316 0.605189 -1.48977 0
M  V30 115 O 12.0216 0.425685 -1.68919 0
M  V30 116 C 9.1536 0.723523 -3.33134 0
M  V30 117 H 10.3466 -1.01181 -2.82316 0
M  V30 118 H 7.8996 -0.562485 -1.45828 0
M  V30 119 H 8.6346 1.56008 -2.84309 0
M  V30 120 H 8.4196 0.148436 -3.91819 0
M  V30 121 H 9.9096 1.13344 -4.01924 0
M  V30 122 N 10.3467 1.47872 -0.545128 0
M  V30 123 C 11.5717 2.07391 -0.0190611 0
M  V30 124 C 11.9967 1.39688 1.25971 0
M  V30 125 O 11.3547 0.467816 1.7516 0
M  V30 126 C 11.4027 3.60188 0.172335 0
M  V30 127 O 10.5067 3.9339 1.23766 0
M  V30 128 H 9.8477 0.662411 -0.0459059 0
M  V30 129 H 12.3777 1.90066 -0.757365 0
M  V30 130 H 12.3877 4.06129 0.390305 0
M  V30 131 H 11.0627 4.08865 -0.761725 0
M  V30 132 H 9.6397 3.5921 1.00114 0
M  V30 133 N 11.8248 0.280983 1.55075 0
M  V30 134 C 13.0718 -0.334115 1.99725 0
M  V30 135 C 13.3998 -1.5542 1.1694 0
M  V30 136 O 12.6548 -1.94361 0.228531 0
M  V30 137 C 12.9538 -0.754656 3.49342 0
M  V30 138 C 12.6198 0.361445 4.49449 0
M  V30 139 C 11.2818 0.667893 4.76542 0
M  V30 140 C 13.6338 1.11322 5.09173 0
M  V30 141 C 10.9618 1.7296 5.60626 0
M  V30 142 C 13.3138 2.1647 5.9441 0
M  V30 143 C 11.9778 2.47742 6.19822 0
M  V30 144 H 11.2478 -0.122261 0.730844 0
M  V30 145 H 13.8948 0.395917 1.87363 0
M  V30 146 H 12.1998 -1.56446 3.5921 0
M  V30 147 H 13.8968 -1.24142 3.813 0
M  V30 148 H 10.4868 0.112481 4.28452 0
M  V30 149 H 14.6708 0.88973 4.8826 0
M  V30 150 H 9.9268 1.97684 5.78559 0
M  V30 151 H 14.1008 2.75193 6.3972 0
M  V30 152 H 11.7278 3.30145 6.84769 0
M  V30 153 N 13.3029 -1.57598 0.00835791 0
M  V30 154 C 14.5489 -1.92046 -0.670055 0
M  V30 155 C 14.9039 -0.88351 -1.70915 0
M  V30 156 O 14.1969 0.103223 -1.91322 0
M  V30 157 C 14.3909 -3.3101 -1.34787 0
M  V30 158 C 14.2199 -4.48126 -0.375945 0
M  V30 159 C 12.9899 -5.05297 0.0166914 0
M  V30 160 C 15.1879 -5.1303 0.361272 0
M  V30 161 N 13.1699 -6.05931 0.985952 0
M  V30 162 C 14.5409 -6.08571 1.18495 0
M  V30 163 C 16.5959 -4.9609 0.42421 0
M  V30 164 C 15.2989 -6.88996 2.06584 0
M  V30 165 C 17.3249 -5.77107 1.29236 0
M  V30 166 C 16.6869 -6.72248 2.10386 0
M  V30 167 H 12.7859 -0.75096 -0.218136 0
M  V30 168 H 15.3699 -1.94572 0.0706669 0
M  V30 169 H 13.5409 -3.29342 -2.05884 0
M  V30 170 H 15.2729 -3.52864 -1.98164 0
M  V30 171 H 12.0279 -4.72279 -0.353435 0
M  V30 172 H 12.4519 -6.60932 1.4662 0
M  V30 173 H 17.0939 -4.22378 -0.188915 0
M  V30 174 H 14.8119 -7.62028 2.6896 0
M  V30 175 H 18.3979 -5.66038 1.34508 0
M  V30 176 H 17.2779 -7.33846 2.76476 0
M  V30 177 N 14.781 0.264519 -1.55364 0
M  V30 178 C 16.197 0.61215 -1.47394 0
M  V30 179 C 16.397 1.89134 -0.695018 0
M  V30 180 O 15.453 2.51563 -0.217275 0
M  V30 181 C 16.766 0.731235 -2.91674 0
M  V30 182 C 18.314 0.82473 -3.01939 0
M  V30 183 C 18.789 0.975522 -4.4749 0
M  V30 184 N 20.28 1.04083 -4.51354 0
M  V30 185 C 21.015 1.17646 -5.61201 0
M  V30 186 N 20.511 1.27874 -6.80896 0
M  V30 187 N 22.304 1.20823 -5.48961 0
M  V30 188 H 14.455 -0.575456 -2.04456 0
M  V30 189 H 16.718 -0.196099 -0.927496 0
M  V30 190 H 16.424 -0.138392 -3.51428 0
M  V30 191 H 16.298 1.60883 -3.41169 0
M  V30 192 H 18.685 1.68482 -2.42276 0
M  V30 193 H 18.766 -0.0776479 -2.55682 0
M  V30 194 H 18.41 0.120058 -5.07758 0
M  V30 195 H 18.34 1.89268 -4.91412 0
M  V30 196 H 20.831 0.973846 -3.65136 0
M  V30 197 H 21.144 1.38081 -7.60364 0
M  V30 198 H 19.489 1.24863 -6.83692 0
M  V30 199 H 22.68 1.12469 -4.54388 0
M  V30 200 H 22.853 1.31049 -6.3461 0
M  V30 201 N 16.2591 1.48442 0.529413 0
M  V30 202 C 17.2221 1.62524 1.61612 0
M  V30 203 C 18.2221 0.498509 1.52877 0
M  V30 204 O 19.4121 0.76431 1.56537 0
M  V30 205 C 16.5441 1.59597 3.01233 0
M  V30 206 H 17.7371 2.59423 1.50465 0
M  V30 207 H 15.2901 1.37047 0.751514 0
M  V30 208 H 16.0251 0.641781 3.17886 0
M  V30 209 H 15.8101 2.41397 3.08982 0
M  V30 210 H 17.3001 1.72646 3.80241 0
M  V30 211 N 17.7372 -0.778329 1.37039 0
M  V30 212 C 18.9862 -1.53189 1.3121 0
M  V30 213 C 19.2992 -1.95328 -0.103095 0
M  V30 214 O 20.5052 -2.70012 -0.283826 0
M  V30 215 C 18.9612 -2.76591 2.30272 0
M  V30 216 C 18.5692 -2.41577 3.77286 0
M  V30 217 C 20.3132 -3.5455 2.33441 0
M  V30 218 C 18.2202 -3.61441 4.68096 0
M  V30 219 H 17.1502 -0.5751 0.487622 0
M  V30 220 H 19.8012 -0.853101 1.62464 0
M  V30 221 H 18.1832 -3.46326 1.92027 0
M  V30 222 H 19.3572 -1.79668 4.2433 0
M  V30 223 H 17.6722 -1.76806 3.76999 0
M  V30 224 H 20.2692 -4.43628 2.98493 0
M  V30 225 H 20.6122 -3.93936 1.34611 0
M  V30 226 H 21.1452 -2.91805 2.7036 0
M  V30 227 H 17.8842 -3.27142 5.6803 0
M  V30 228 H 17.4042 -4.22478 4.25761 0
M  V30 229 H 19.0832 -4.28335 4.8491 0
M  V30 230 N 19.2153 -1.21501 -1.00376 0
M  V30 231 C 20.4623 -1.03299 -1.74171 0
M  V30 232 C 20.7903 0.433326 -1.89612 0
M  V30 233 O 20.0453 1.33779 -1.42834 0
M  V30 234 C 20.3443 -1.67673 -3.15627 0
M  V30 235 C 20.0103 -3.17533 -3.2013 0
M  V30 236 C 18.6723 -3.58427 -3.21067 0
M  V30 237 C 21.0243 -4.13504 -3.17275 0
M  V30 238 C 18.3523 -4.93794 -3.16835 0
M  V30 239 C 20.7043 -5.48834 -3.14585 0
M  V30 240 C 19.3683 -5.89123 -3.13831 0
M  V30 241 H 18.6383 -0.377999 -0.637336 0
M  V30 242 H 21.2853 -1.51111 -1.17634 0
M  V30 243 H 19.5903 -1.12158 -3.75404 0
M  V30 244 H 21.2873 -1.51091 -3.71446 0
M  V30 245 H 17.8773 -2.84965 -3.20145 0
M  V30 246 H 22.0613 -3.82936 -3.15711 0
M  V30 247 H 17.3173 -5.24255 -3.1459 0
M  V30 248 H 21.4913 -6.22934 -3.1133 0
M  V30 249 H 19.1183 -6.93984 -3.10307 0
M  V30 250 N 20.6934 1.19889 -1.02296 0
M  V30 251 C 21.6564 2.21116 -0.603351 0
M  V30 252 C 22.6564 1.5738 0.329884 0
M  V30 253 O 23.8464 1.73802 0.117702 0
M  V30 254 C 20.9784 3.40696 0.117992 0
M  V30 255 H 22.1714 2.59754 -1.49893 0
M  V30 256 H 19.7244 1.33463 -0.813468 0
M  V30 257 H 20.4594 3.07569 1.0282 0
M  V30 258 H 20.2444 3.88188 -0.552511 0
M  V30 259 H 21.7344 4.15692 0.398696 0
M  V30 260 N 22.1715 0.800033 1.35784 0
M  V30 261 C 23.0815 0.207204 2.33683 0
M  V30 262 C 24.0975 -0.64631 1.61551 0
M  V30 263 O 25.2735 -0.559604 1.93469 0
M  V30 264 C 22.3385 -0.639659 3.40748 0
M  V30 265 C 21.3995 0.233585 4.28664 0
M  V30 266 C 20.6325 -0.572954 5.30616 0
M  V30 267 O 20.8555 -1.80816 5.40982 0
M  V30 268 O 19.7895 0.0327285 6.01891 0
M  V30 269 H 23.6155 1.01692 2.86169 0
M  V30 270 H 21.2005 0.561691 1.38439 0
M  V30 271 H 23.0825 -1.12223 4.06182 0
M  V30 272 H 21.7575 -1.42708 2.90544 0
M  V30 273 H 20.6645 0.763147 3.66233 0
M  V30 274 H 21.9975 0.984784 4.82248 0
M  V30 275 N 23.6496 -1.47581 0.552962 0
M  V30 276 C 24.8966 -2.02482 0.0273243 0
M  V30 277 C 25.2246 -1.42776 -1.32081 0
M  V30 278 O 24.4796 -0.571393 -1.87173 0
M  V30 279 C 24.7786 -3.57199 -0.119728 0
M  V30 280 C 24.4446 -4.35804 1.15697 0
M  V30 281 C 23.1066 -4.57 1.50681 0
M  V30 282 C 25.4586 -4.81167 2.00319 0
M  V30 283 C 22.7866 -5.20807 2.70142 0
M  V30 284 C 25.1386 -5.46293 3.18978 0
M  V30 285 C 23.8026 -5.65722 3.54281 0
M  V30 286 H 23.0726 -0.740933 0.00999866 0
M  V30 287 H 25.7196 -1.77302 0.72362 0
M  V30 288 H 24.0246 -3.81348 -0.89896 0
M  V30 289 H 25.7216 -3.97324 -0.541718 0
M  V30 290 H 22.3116 -4.19582 0.874561 0
M  V30 291 H 26.4956 -4.64574 1.74599 0
M  V30 292 H 21.7516 -5.34045 2.97668 0
M  V30 293 H 25.9256 -5.80407 3.84838 0
M  V30 294 H 23.5526 -6.14936 4.46942 0
M  V30 295 N 25.1277 -0.289203 -1.54924 0
M  V30 296 C 26.3747 0.323519 -1.99899 0
M  V30 297 C 26.7027 1.54797 -1.17762 0
M  V30 298 O 25.9577 1.94237 -0.238835 0
M  V30 299 C 26.2567 0.736119 -3.49737 0
M  V30 300 C 25.9227 -0.385276 -4.49251 0
M  V30 301 C 24.5847 -0.693156 -4.76181 0
M  V30 302 C 26.9367 -1.14021 -5.08575 0
M  V30 303 C 24.2647 -1.7593 -5.59701 0
M  V30 304 C 26.6167 -2.19619 -5.93254 0
M  V30 305 C 25.2807 -2.51026 -6.185 0
M  V30 306 H 24.5507 0.118384 -0.731482 0
M  V30 307 H 27.1977 -0.405847 -1.8715 0
M  V30 308 H 25.5027 1.54539 -3.60035 0
M  V30 309 H 27.1997 1.22118 -3.81953 0
M  V30 310 H 23.7897 -0.135202 -4.28387 0
M  V30 311 H 27.9737 -0.915611 -4.87781 0
M  V30 312 H 23.2297 -2.0075 -5.77503 0
M  V30 313 H 27.4037 -2.78581 -6.38252 0
M  V30 314 H 25.0307 -3.33772 -6.83008 0
M  V30 315 N 26.6058 1.57591 -0.0167156 0
M  V30 316 C 27.5688 2.08393 0.954204 0
M  V30 317 C 28.5688 0.996531 1.26198 0
M  V30 318 O 29.7588 1.25858 1.20438 0
M  V30 319 C 26.8908 2.5394 2.27436 0
M  V30 320 H 28.0838 2.95455 0.514451 0
M  V30 321 H 25.6368 1.54582 0.231089 0
M  V30 322 H 26.3718 1.70171 2.76066 0
M  V30 323 H 26.1568 3.33371 2.06412 0
M  V30 324 H 27.6468 2.93512 2.97053 0
M  V30 325 N 28.0839 -0.256276 1.55502 0
M  V30 326 C 29.3119 -1.00342 1.8094 0
M  V30 327 C 29.7269 -1.79307 0.59114 0
M  V30 328 O 29.0839 -1.77114 -0.440081 0
M  V30 329 C 29.1349 -1.94875 3.04476 0
M  V30 330 O 28.8559 -1.19107 4.21598 0
M  V30 331 C 30.3569 -2.81266 3.42644 0
M  V30 332 H 27.5769 -0.295685 0.602338 0
M  V30 333 H 30.1209 -0.281998 2.02546 0
M  V30 334 H 28.2759 -2.62457 2.84947 0
M  V30 335 H 28.6899 -1.82969 4.91551 0
M  V30 336 H 30.1639 -3.43362 4.32211 0
M  V30 337 H 30.6409 -3.51897 2.62802 0
M  V30 338 H 31.2469 -2.1915 3.64491 0
M  V30 339 N 29.562 -1.4872 -0.521534 0
M  V30 340 C 30.492 -1.66771 -1.63431 0
M  V30 341 C 31.473 -0.516499 -1.62069 0
M  V30 342 O 32.658 -0.750013 -1.79132 0
M  V30 343 C 29.788 -1.71515 -3.01993 0
M  V30 344 C 28.742 -2.86222 -3.18216 0
M  V30 345 C 28.068 -2.76061 -4.57924 0
M  V30 346 C 29.368 -4.27419 -3.00184 0
M  V30 347 H 31.062 -2.59932 -1.48579 0
M  V30 348 H 28.608 -1.25089 -0.713358 0
M  V30 349 H 30.561 -1.82731 -3.7972 0
M  V30 350 H 29.285 -0.749393 -3.17886 0
M  V30 351 H 27.944 -2.74575 -2.42908 0
M  V30 352 H 27.592 -1.77437 -4.70665 0
M  V30 353 H 27.292 -3.53037 -4.69722 0
M  V30 354 H 28.816 -2.89256 -5.37739 0
M  V30 355 H 30.23 -4.39855 -3.67697 0
M  V30 356 H 28.627 -5.05458 -3.2347 0
M  V30 357 H 29.697 -4.43293 -1.96518 0
M  V30 358 N 31.0401 0.771051 -1.3745 0
M  V30 359 C 32.2871 1.52963 -1.32697 0
M  V30 360 C 32.6151 1.94299 0.0883274 0
M  V30 361 O 31.8701 1.64397 1.0617 0
M  V30 362 C 32.1691 2.80676 -2.2126 0
M  V30 363 C 31.8351 2.58389 -3.69521 0
M  V30 364 C 30.4971 2.52019 -4.09927 0
M  V30 365 C 32.8491 2.38469 -4.63446 0
M  V30 366 C 30.1771 2.23721 -5.42371 0
M  V30 367 C 32.5291 2.11694 -5.96128 0
M  V30 368 C 31.1931 2.03769 -6.35637 0
M  V30 369 H 30.4631 0.559732 -0.485573 0
M  V30 370 H 33.1101 0.888083 -1.69662 0
M  V30 371 H 31.4151 3.49392 -1.77291 0
M  V30 372 H 33.1121 3.38557 -2.14895 0
M  V30 373 H 29.7021 2.6421 -3.37478 0
M  V30 374 H 33.8861 2.4238 -4.33089 0
M  V30 375 H 29.1421 2.16081 -5.71943 0
M  V30 376 H 33.3161 1.9528 -6.6846 0
M  V30 377 H 30.9431 1.81606 -7.38189 0
M  V30 378 N 32.5182 1.22032 0.997298 0
M  V30 379 C 33.7482 1.06686 1.76923 0
M  V30 380 C 34.1562 -0.385838 1.85224 0
M  V30 381 O 33.4992 -1.27929 1.31833 0
M  V30 382 C 33.5612 1.59802 3.22031 0
M  V30 383 C 33.2252 3.08362 3.37286 0
M  V30 384 C 34.2222 4.05835 3.24952 0
M  V30 385 C 31.9072 3.47727 3.6248 0
M  V30 386 C 33.9012 5.4066 3.37588 0
M  V30 387 C 31.5882 4.82701 3.74757 0
M  V30 388 C 32.5862 5.78977 3.62319 0
M  V30 389 O 32.2742 7.11502 3.74193 0
M  V30 390 H 32.0062 0.374767 0.562606 0
M  V30 391 H 34.5602 1.61991 1.26286 0
M  V30 392 H 32.7902 0.989003 3.73839 0
M  V30 393 H 34.4792 1.40184 3.80924 0
M  V30 394 H 35.2452 3.76766 3.05405 0
M  V30 395 H 31.1242 2.73317 3.7124 0
M  V30 396 H 34.6682 6.15788 3.27796 0
M  V30 397 H 30.5652 5.11453 3.9381 0
M  V30 398 H 31.3332 7.19019 3.91093 0
M  V30 399 N 33.9963 -1.19345 1.0293 0
M  V30 400 C 35.2423 -1.89318 0.727083 0
M  V30 401 C 35.5753 -1.79446 -0.742483 0
M  V30 402 O 34.8503 -1.1871 -1.54072 0
M  V30 403 C 35.1333 -3.40238 1.17942 0
M  V30 404 C 34.9863 -3.58979 2.71024 0
M  V30 405 C 36.3053 -4.33479 0.760548 0
M  V30 406 H 33.4243 -0.687475 0.265606 0
M  V30 407 H 36.0663 -1.40477 1.2793 0
M  V30 408 H 34.2163 -3.81964 0.709608 0
M  V30 409 H 35.8883 -3.26421 3.25955 0
M  V30 410 H 34.1313 -3.02018 3.11396 0
M  V30 411 H 34.8023 -4.64823 2.9773 0
M  V30 412 H 37.2783 -3.99469 1.16464 0
M  V30 413 H 36.1543 -5.37664 1.10493 0
M  V30 414 H 36.4153 -4.40813 -0.337063 0
M  V30 415 N 35.4744 -0.807222 -1.35358 0
M  V30 416 C 36.7214 -0.387888 -1.9875 0
M  V30 417 C 37.0494 1.04509 -1.64037 0
M  V30 418 O 36.3044 1.73986 -0.895946 0
M  V30 419 C 36.6034 -0.519036 -3.53611 0
M  V30 420 C 36.2694 -1.91542 -4.08194 0
M  V30 421 C 34.9314 -2.29745 -4.22813 0
M  V30 422 C 37.2834 -2.82896 -4.37744 0
M  V30 423 C 34.6114 -3.58668 -4.643 0
M  V30 424 C 36.9634 -4.11265 -4.8067 0
M  V30 425 C 35.6274 -4.49466 -4.93494 0
M  V30 426 H 34.8974 -0.141938 -0.727279 0
M  V30 427 H 37.5444 -1.02814 -1.6156 0
M  V30 428 H 35.8494 0.204658 -3.91265 0
M  V30 429 H 37.5464 -0.175345 -4.00616 0
M  V30 430 H 34.1364 -1.60862 -3.97268 0
M  V30 431 H 38.3204 -2.54629 -4.26002 0
M  V30 432 H 33.5764 -3.88113 -4.72418 0
M  V30 433 H 37.7504 -4.82153 -5.02496 0
M  V30 434 H 35.3774 -5.49418 -5.25399 0
M  V30 435 N 36.9525 1.47285 -0.560781 0
M  V30 436 C 38.1995 2.02464 -0.038062 0
M  V30 437 C 38.5275 1.43474 1.31322 0
M  V30 438 O 37.7825 0.581311 1.86867 0
M  V30 439 C 38.0815 3.57258 0.100784 0
M  V30 440 C 37.7475 4.35184 -1.18007 0
M  V30 441 C 36.4095 4.56194 -1.53103 0
M  V30 442 C 38.7615 4.80098 -2.02867 0
M  V30 443 C 36.0895 5.19367 -2.729 0
M  V30 444 C 38.4415 5.44593 -3.21871 0
M  V30 445 C 37.1055 5.63835 -3.57276 0
M  V30 446 H 36.3755 0.740869 -0.0139279 0
M  V30 447 H 39.0225 1.76916 -0.733012 0
M  V30 448 H 37.3275 3.81819 0.878724 0
M  V30 449 H 39.0245 3.97606 0.520639 0
M  V30 450 H 35.6145 4.19113 -0.8968 0
M  V30 451 H 39.7985 4.63642 -1.7706 0
M  V30 452 H 35.0545 5.32459 -3.00496 0
M  V30 453 H 39.2285 5.78358 -3.87911 0
M  V30 454 H 36.8555 6.12557 -4.50197 0
M  V30 455 N 38.4306 0.297415 1.54768 0
M  V30 456 C 39.6786 -0.312295 1.99673 0
M  V30 457 C 39.9996 -1.54686 1.18732 0
M  V30 458 O 39.2696 -1.93854 0.282382 0
M  V30 459 H 37.8496 -0.118381 0.73756 0
M  V30 460 H 40.5116 0.407915 1.90583 0
M  V30 461 H 39.6076 -0.586813 3.06534 0
M  V30 462 N 39.9087 -1.5758 0.0250728 0
M  V30 463 C 40.8387 -2.13007 -0.956575 0
M  V30 464 C 41.8197 -1.0452 -1.342 0
M  V30 465 O 43.0047 -1.32332 -1.42133 0
M  V30 466 C 40.1347 -2.65386 -2.24026 0
M  V30 467 C 39.0887 -3.78623 -1.99571 0
M  V30 468 C 38.4147 -4.17414 -3.3417 0
M  V30 469 C 39.7147 -5.04867 -1.33814 0
M  V30 470 H 41.4087 -2.9528 -0.494991 0
M  V30 471 H 38.9547 -1.42042 -0.236651 0
M  V30 472 H 40.9077 -3.02794 -2.93076 0
M  V30 473 H 39.6317 -1.80268 -2.72343 0
M  V30 474 H 38.2907 -3.41646 -1.32941 0
M  V30 475 H 37.9387 -3.29284 -3.80238 0
M  V30 476 H 37.6387 -4.93719 -3.18615 0
M  V30 477 H 39.1627 -4.57402 -4.04495 0
M  V30 478 H 40.5767 -5.39888 -1.92857 0
M  V30 479 H 38.9737 -5.86144 -1.28669 0
M  V30 480 H 40.0437 -4.83904 -0.310561 0
M  V30 481 N 41.3868 0.248026 -1.55636 0
M  V30 482 C 42.6348 0.974295 -1.77065 0
M  V30 483 C 42.9558 1.85897 -0.588849 0
M  V30 484 O 42.2258 1.91868 0.395407 0
M  V30 485 H 40.8058 0.362733 -0.653019 0
M  V30 486 H 43.4678 0.266244 -1.93073 0
M  V30 487 H 42.5638 1.59667 -2.68166 0
M  V30 488 N 42.8649 1.48995 0.513639 0
M  V30 489 C 44.0899 1.61792 1.29762 0
M  V30 490 C 44.5149 0.284475 1.85936 0
M  V30 491 O 43.8729 -0.746185 1.65232 0
M  V30 492 C 43.9209 2.67993 2.41272 0
M  V30 493 O 43.0249 2.26287 3.44772 0
M  V30 494 H 42.3659 0.541963 0.38363 0
M  V30 495 H 44.8959 1.95097 0.616307 0
M  V30 496 H 44.9059 2.89772 2.87221 0
M  V30 497 H 43.5809 3.64791 1.9975 0
M  V30 498 H 42.1579 2.14788 3.04829 0
M  V30 499 N 44.343 -0.763751 1.37857 0
M  V30 500 C 45.568 -1.55805 1.36893 0
M  V30 501 C 45.993 -1.88054 -0.0416135 0
M  V30 502 O 45.351 -1.49825 -1.02089 0
M  V30 503 C 45.399 -2.84012 2.22192 0
M  V30 504 O 44.503 -3.78732 1.63204 0
M  V30 505 H 43.844 -0.471638 0.46739 0
M  V30 506 H 46.374 -0.944657 1.81487 0
M  V30 507 H 46.384 -3.33037 2.35691 0
M  V30 508 H 45.059 -2.59869 3.24716 0
M  V30 509 H 43.636 -3.37402 1.58791 0
M  V30 510 N 45.8211 -1.22559 -0.990812 0
M  V30 511 C 46.7511 -1.0218 -2.09956 0
M  V30 512 C 47.7321 0.0579394 -1.70001 0
M  V30 513 O 48.9171 -0.104684 -1.93918 0
M  V30 514 C 46.0471 -0.601023 -3.4206 0
M  V30 515 C 45.0011 -1.62694 -3.95872 0
M  V30 516 C 44.3271 -1.06193 -5.24049 0
M  V30 517 C 45.6271 -3.01743 -4.2632 0
M  V30 518 H 47.3211 -1.94916 -2.27262 0
M  V30 519 H 44.8671 -0.938566 -1.09211 0
M  V30 520 H 46.8201 -0.445561 -4.19038 0
M  V30 521 H 45.5441 0.362005 -3.24588 0
M  V30 522 H 44.2031 -1.77021 -3.21028 0
M  V30 523 H 43.8511 -0.0901903 -5.02919 0
M  V30 524 H 43.5511 -1.74732 -5.61019 0
M  V30 525 H 45.0751 -0.918092 -6.03658 0
M  V30 526 H 46.4891 -2.90777 -4.94087 0
M  V30 527 H 44.8861 -3.67425 -4.74467 0
M  V30 528 H 45.9561 -3.51518 -3.34011 0
M  V30 529 N 47.2992 1.18797 -1.03562 0
M  V30 530 C 48.7152 1.40671 -0.753917 0
M  V30 531 C 48.9152 1.9043 0.658686 0
M  V30 532 O 47.9712 2.08538 1.42366 0
M  V30 533 C 49.2842 2.41192 -1.79574 0
M  V30 534 C 50.8322 2.54928 -1.81606 0
M  V30 535 C 51.3072 3.58709 -2.84766 0
M  V30 536 N 52.7982 3.66212 -2.83625 0
M  V30 537 C 53.5332 4.46225 -3.60098 0
M  V30 538 N 53.0292 5.29888 -4.46308 0
M  V30 539 N 54.8222 4.40939 -3.4861 0
M  V30 540 H 46.9732 0.848221 -1.94728 0
M  V30 541 H 49.2362 0.435081 -0.842264 0
M  V30 542 H 48.9422 2.11669 -2.80872 0
M  V30 543 H 48.8162 3.40467 -1.62365 0
M  V30 544 H 51.2032 2.83771 -0.809817 0
M  V30 545 H 51.2842 1.55784 -2.02891 0
M  V30 546 H 50.9282 3.30607 -3.85566 0
M  V30 547 H 50.8582 4.57519 -2.60737 0
M  V30 548 H 53.3492 3.06466 -2.21105 0
M  V30 549 H 53.6622 5.88078 -5.01382 0
M  V30 550 H 52.0072 5.29326 -4.50377 0
M  V30 551 H 55.1982 3.74624 -2.80668 0
M  V30 552 H 55.3712 5.03056 -4.08459 0
M  V30 553 N 48.7773 0.814389 1.34928 0
M  V30 554 C 50.0233 0.408167 1.99263 0
M  V30 555 C 50.3783 -1.0154 1.63424 0
M  V30 556 O 49.6713 -1.69607 0.891289 0
M  V30 557 C 49.8653 0.537781 3.53331 0
M  V30 558 C 49.6943 1.9724 4.04137 0
M  V30 559 C 48.4643 2.60245 4.33129 0
M  V30 560 C 50.6623 2.93801 4.2212 0
M  V30 561 N 48.6443 3.95036 4.69914 0
M  V30 562 C 50.0153 4.1348 4.6199 0
M  V30 563 C 52.0703 2.9053 4.04348 0
M  V30 564 C 50.7733 5.3033 4.85945 0
M  V30 565 C 52.7993 4.06589 4.29464 0
M  V30 566 C 52.1613 5.25017 4.69613 0
M  V30 567 H 48.2603 0.197289 0.756704 0
M  V30 568 H 50.8443 1.05728 1.63492 0
M  V30 569 H 49.0153 -0.0813868 3.88315 0
M  V30 570 H 50.7473 0.105389 4.04563 0
M  V30 571 H 47.5023 2.11545 4.23728 0
M  V30 572 H 47.9263 4.64455 4.92555 0
M  V30 573 H 52.5683 2.00115 3.72443 0
M  V30 574 H 50.2863 6.21309 5.16721 0
M  V30 575 H 53.8723 4.05447 4.17257 0
M  V30 576 H 52.7523 6.1333 4.88667 0
M  V30 577 N 50.2554 -1.46986 0.568584 0
M  V30 578 C 51.2184 -2.28624 -0.162366 0
M  V30 579 C 52.2184 -1.37596 -0.832103 0
M  V30 580 O 53.4084 -1.60115 -0.68622 0
M  V30 581 C 50.5404 -3.17596 -1.23878 0
M  V30 582 H 51.7334 -2.94722 0.554899 0
M  V30 583 H 49.2864 -1.52863 0.325976 0
M  V30 584 H 50.0214 -2.56214 -1.98808 0
M  V30 585 H 49.8064 -3.846 -0.763219 0
M  V30 586 H 51.2964 -3.79078 -1.75185 0
M  V30 587 N 51.7335 -0.305618 -1.54608 0
M  V30 588 C 53.1445 0.186098 -1.8577 0
M  V30 589 C 53.4955 1.53058 -1.22751 0
M  V30 590 O 52.6205 2.09888 -0.526893 0
M  V30 591 C 53.2155 0.344449 -3.37044 0
M  V30 592 C 51.7745 0.780384 -3.68221 0
M  V30 593 C 50.9215 -0.108554 -2.77087 0
M  V30 594 H 53.8725 -0.526485 -1.49712 0
M  V30 595 H 53.8935 1.17828 -3.61796 0
M  V30 596 H 53.4055 -0.634235 -3.82883 0
M  V30 597 H 51.5065 1.76945 -3.27904 0
M  V30 598 H 51.6195 0.596572 -4.75371 0
M  V30 599 H 49.9835 0.412931 -2.5133 0
M  V30 600 H 50.7665 -1.08368 -3.25747 0
M  V30 601 N 53.2116 1.57565 -0.0334293 0
M  V30 602 C 54.4596 1.91598 0.642999 0
M  V30 603 C 54.7806 0.910847 1.7242 0
M  V30 604 O 54.0506 -0.0469931 1.95844 0
M  V30 605 H 52.6306 0.707228 0.240496 0
M  V30 606 H 55.2926 1.94726 -0.0822488 0
M  V30 607 H 54.3886 2.92336 1.09298 0
M  V30 608 N 54.6897 -0.239769 1.55765 0
M  V30 609 C 56.1007 -0.808263 1.68297 0
M  V30 610 C 56.4517 -1.85736 0.632181 0
M  V30 611 O 55.5767 -2.15277 -0.220204 0
M  V30 612 C 56.1717 -1.47284 3.05111 0
M  V30 613 C 54.7307 -1.98895 3.19559 0
M  V30 614 C 53.8777 -0.842575 2.64189 0
M  V30 615 H 56.8287 -0.0154422 1.58692 0
M  V30 616 H 56.8497 -2.34111 2.99954 0
M  V30 617 H 56.3617 -0.709053 3.81568 0
M  V30 618 H 54.4627 -2.78132 2.47938 0
M  V30 619 H 54.5757 -2.18143 4.26556 0
M  V30 620 H 52.9397 -1.24501 2.22197 0
M  V30 621 H 53.7227 -0.0917552 3.43177 0
M  V30 622 N 56.1678 -1.49265 -0.50573 0
M  V30 623 C 57.0978 -1.68495 -1.61653 0
M  V30 624 C 58.0788 -0.53366 -1.61512 0
M  V30 625 O 59.2638 -0.76897 -1.78327 0
M  V30 626 C 56.3938 -1.74709 -3.00157 0
M  V30 627 C 55.3478 -2.89581 -3.15162 0
M  V30 628 C 54.6738 -2.80903 -4.5497 0
M  V30 629 C 55.9738 -4.30578 -2.95634 0
M  V30 630 H 57.6678 -2.61493 -1.45814 0
M  V30 631 H 55.2138 -1.25838 -0.70005 0
M  V30 632 H 57.1668 -1.86748 -3.77761 0
M  V30 633 H 55.8908 -0.783067 -3.17074 0
M  V30 634 H 54.5498 -2.77136 -2.39982 0
M  V30 635 H 54.1978 -1.82419 -4.68756 0
M  V30 636 H 53.8978 -3.57999 -4.65951 0
M  V30 637 H 55.4218 -2.94944 -5.34641 0
M  V30 638 H 56.8358 -4.4373 -3.63011 0
M  V30 639 H 55.2328 -5.0886 -3.18091 0
M  V30 640 H 56.3028 -4.45352 -1.91806 0
M  V30 641 N 57.6459 0.756429 -1.3826 0
M  V30 642 C 58.5959 1.86069 -1.31766 0
M  V30 643 C 59.5799 1.59621 -0.202483 0
M  V30 644 O 60.7719 1.7149 -0.438211 0
M  V30 645 C 57.9009 3.23742 -1.1422 0
M  V30 646 C 56.9869 3.56091 -2.30348 0
M  V30 647 N 57.3779 3.59517 -3.55783 0
M  V30 648 C 55.6759 3.86341 -2.22838 0
M  V30 649 C 56.3769 3.89052 -4.32451 0
M  V30 650 N 55.3529 4.05736 -3.61772 0
M  V30 651 H 59.1549 1.86992 -2.26741 0
M  V30 652 H 56.6689 0.953643 -1.31451 0
M  V30 653 H 58.6659 4.02761 -1.07652 0
M  V30 654 H 57.3259 3.24073 -0.201763 0
M  V30 655 H 58.3369 3.41347 -3.89491 0
M  V30 656 H 55.0139 3.94404 -1.36937 0
M  V30 657 H 56.4039 3.98349 -5.4108 0
M  V30 658 N 59.124 1.23083 0.984299 0
M  V30 659 C 60.37 1.06214 1.72761 0
M  V30 660 C 60.703 -0.400584 1.90024 0
M  V30 661 O 59.978 -1.29672 1.44967 0
M  V30 662 C 60.261 1.78375 3.12817 0
M  V30 663 C 60.114 3.32296 3.03149 0
M  V30 664 C 61.433 1.54309 4.12161 0
M  V30 665 H 58.552 0.387251 0.627061 0
M  V30 666 H 61.194 1.51536 1.14616 0
M  V30 667 H 59.344 1.39848 3.62457 0
M  V30 668 H 61.016 3.8032 2.61064 0
M  V30 669 H 59.259 3.6153 2.39747 0
M  V30 670 H 59.93 3.77972 4.02295 0
M  V30 671 H 62.406 1.87791 3.71314 0
M  V30 672 H 61.282 2.07281 5.08258 0
M  V30 673 H 61.543 0.477572 4.39513 0
M  V30 674 N 60.6021 -1.18246 1.0419 0
M  V30 675 C 61.5321 -2.24127 0.654914 0
M  V30 676 C 62.5131 -1.66617 -0.342451 0
M  V30 677 O 63.6981 -1.92924 -0.222277 0
M  V30 678 C 60.8281 -3.47295 0.0183757 0
M  V30 679 C 59.7821 -4.17563 0.939414 0
M  V30 680 C 59.1081 -5.34438 0.167286 0
M  V30 681 C 60.4081 -4.70917 2.25908 0
M  V30 682 H 62.1021 -2.56753 1.54007 0
M  V30 683 H 59.6481 -1.23414 0.74195 0
M  V30 684 H 61.6011 -4.20572 -0.264082 0
M  V30 685 H 60.3251 -3.13907 -0.901664 0
M  V30 686 H 58.9841 -3.46186 1.20628 0
M  V30 687 H 58.6321 -4.97298 -0.7552 0
M  V30 688 H 58.3321 -5.82388 0.780901 0
M  V30 689 H 59.8561 -6.10504 -0.108125 0
M  V30 690 H 61.2701 -5.35882 2.03724 0
M  V30 691 H 59.6671 -5.29406 2.82577 0
M  V30 692 H 60.7371 -3.88272 2.9047 0
M  V30 693 N 62.0802 -0.821533 -1.34494 0
M  V30 694 C 63.0122 -0.199946 -2.28326 0
M  V30 695 C 64.0252 0.609377 -1.50965 0
M  V30 696 O 65.2142 0.439285 -1.7301 0
M  V30 697 C 62.3142 0.738431 -3.30757 0
M  V30 698 C 61.4872 -0.0277632 -4.37391 0
M  V30 699 C 60.5462 0.831332 -5.19591 0
M  V30 700 O 59.5722 0.276822 -5.68526 0
M  V30 701 N 60.7742 2.15132 -5.39165 0
M  V30 702 H 63.5392 -1.00609 -2.82308 0
M  V30 703 H 61.1002 -0.678366 -1.47003 0
M  V30 704 H 63.0922 1.31773 -3.82646 0
M  V30 705 H 61.6622 1.44533 -2.7718 0
M  V30 706 H 60.8822 -0.788359 -3.86236 0
M  V30 707 H 62.1702 -0.555251 -5.05761 0
M  V30 708 H 61.5682 2.62559 -5.01078 0
M  V30 709 H 60.1252 2.6795 -5.94177 0
M  V30 710 N 63.5583 1.46682 -0.576371 0
M  V30 711 C 64.8043 2.02712 -0.0596221 0
M  V30 712 C 65.1373 1.44765 1.29448 0
M  V30 713 O 64.4123 0.610355 1.84675 0
M  V30 714 C 64.6953 3.60098 0.0129503 0
M  V30 715 C 64.5483 4.28441 -1.3696 0
M  V30 716 C 65.8673 4.34224 0.71678 0
M  V30 717 H 62.9863 0.736637 -0.0231407 0
M  V30 718 H 65.6283 1.74898 -0.742351 0
M  V30 719 H 63.7783 3.83926 0.594378 0
M  V30 720 H 65.4503 4.15896 -1.9957 0
M  V30 721 H 63.6933 3.8805 -1.93907 0
M  V30 722 H 64.3643 5.3716 -1.27135 0
M  V30 723 H 66.8403 4.15503 0.222908 0
M  V30 724 H 65.7163 5.43936 0.73657 0
M  V30 725 H 65.9773 4.04823 1.77682 0
M  V30 726 N 65.0364 0.313813 1.54444 0
M  V30 727 C 65.9994 -0.54379 2.22656 0
M  V30 728 C 66.9994 -1.05124 1.21678 0
M  V30 729 O 68.1894 -0.945225 1.46325 0
M  V30 730 C 65.3214 -1.75427 2.92298 0
M  V30 731 H 66.5144 0.0523599 2.99854 0
M  V30 732 H 64.0674 0.0647834 1.56166 0
M  V30 733 H 64.8024 -2.38991 2.19211 0
M  V30 734 H 64.5874 -1.39791 3.66334 0
M  V30 735 H 66.0774 -2.36325 3.44297 0
M  V30 736 N 66.5145 -1.57545 0.0417849 0
M  V30 737 C 67.4475 -2.06514 -0.970928 0
M  V30 738 C 68.4255 -0.963607 -1.30971 0
M  V30 739 O 69.6095 -1.23486 -1.4242 0
M  V30 740 C 66.7365 -2.4978 -2.28752 0
M  V30 741 C 65.7825 -3.71078 -2.10246 0
M  V30 742 S 66.6155 -5.17158 -1.38952 0
M  V30 743 C 67.7715 -5.6373 -2.71954 0
M  V30 744 H 68.0045 -2.9209 -0.554129 0
M  V30 745 H 65.5375 -1.53459 -0.17024 0
M  V30 746 H 67.4955 -2.75371 -3.04435 0
M  V30 747 H 66.1565 -1.64527 -2.67562 0
M  V30 748 H 65.3495 -3.9924 -3.07609 0
M  V30 749 H 64.9515 -3.45705 -1.42704 0
M  V30 750 H 67.2435 -5.68743 -3.68154 0
M  V30 751 H 68.1865 -6.63086 -2.4844 0
M  V30 752 H 68.5945 -4.91424 -2.77782 0
M  V30 753 N 67.9926 0.231505 -1.5589 0
M  V30 754 C 68.9556 1.27028 -1.90779 0
M  V30 755 C 69.9556 1.40308 -0.785507 0
M  V30 756 O 71.1456 1.38744 -1.05336 0
M  V30 757 C 68.2776 2.64566 -2.14983 0
M  V30 758 H 69.4706 0.973017 -2.83677 0
M  V30 759 H 67.0236 0.471486 -1.49019 0
M  V30 760 H 67.7586 2.99406 -1.24604 0
M  V30 761 H 67.5436 2.56305 -2.96732 0
M  V30 762 H 69.0336 3.39543 -2.43105 0
M  V30 763 N 69.4707 1.49531 0.497807 0
M  V30 764 C 70.7177 1.59179 1.25173 0
M  V30 765 C 71.0457 0.279932 1.92475 0
M  V30 766 O 70.3007 -0.732383 1.81479 0
M  V30 767 C 70.5997 2.70252 2.33878 0
M  V30 768 C 70.2657 4.11644 1.84012 0
M  V30 769 C 68.9277 4.50121 1.70132 0
M  V30 770 C 71.2797 5.00121 1.46725 0
M  V30 771 C 68.6077 5.74845 1.17348 0
M  V30 772 C 70.9597 6.25366 0.95392 0
M  V30 773 C 69.6237 6.6267 0.801538 0
M  V30 774 H 68.8937 0.582478 0.45804 0
M  V30 775 H 71.5407 1.83373 0.551948 0
M  V30 776 H 69.8457 2.40041 3.09657 0
M  V30 777 H 71.5427 2.74925 2.9192 0
M  V30 778 H 68.1327 3.81274 1.95775 0
M  V30 779 H 72.3167 4.71048 1.56294 0
M  V30 780 H 67.5727 6.02444 1.04264 0
M  V30 781 H 71.7467 6.93301 0.656225 0
M  V30 782 H 69.3737 7.59197 0.390351 0
M  V30 783 N 70.9488 -0.749086 1.3866 0
M  V30 784 C 72.1968 -1.50535 1.34847 0
M  V30 785 C 72.5178 -1.94909 -0.0595016 0
M  V30 786 O 71.7878 -1.67973 -1.00806 0
M  V30 787 H 70.3678 -0.558395 0.49619 0
M  V30 788 H 73.0298 -0.890165 1.73384 0
M  V30 789 H 72.1258 -2.39413 2.00219 0
M  V30 790 N 72.4269 -1.23603 -0.977757 0
M  V30 791 C 73.3569 -1.04401 -2.0886 0
M  V30 792 C 74.3379 0.0399052 -1.70053 0
M  V30 793 O 75.5229 -0.125246 -1.93796 0
M  V30 794 C 72.6529 -0.637269 -3.41403 0
M  V30 795 C 71.6069 -1.66883 -3.94124 0
M  V30 796 C 70.9329 -1.11745 -5.22893 0
M  V30 797 C 72.2329 -3.06247 -4.23096 0
M  V30 798 H 73.9269 -1.97316 -2.25182 0
M  V30 799 H 71.4729 -0.950096 -1.08209 0
M  V30 800 H 73.4259 -0.48998 -4.18542 0
M  V30 801 H 72.1499 0.327557 -3.24953 0
M  V30 802 H 70.8089 -1.80416 -3.19133 0
M  V30 803 H 70.4569 -0.143527 -5.02795 0
M  V30 804 H 70.1569 -1.80672 -5.59134 0
M  V30 805 H 71.6809 -0.982067 -6.02651 0
M  V30 806 H 73.0949 -2.96001 -4.90975 0
M  V30 807 H 71.4919 -3.72436 -4.70544 0
M  V30 808 H 72.5619 -3.55041 -3.30263 0
M  V30 809 N 73.905 1.17692 -1.04816 0
M  V30 810 C 74.868 2.19787 -0.650117 0
M  V30 811 C 75.868 1.58044 0.296427 0
M  V30 812 O 77.058 1.74012 0.0808097 0
M  V30 813 C 74.19 3.40869 0.0456987 0
M  V30 814 H 75.383 2.56516 -1.5537 0
M  V30 815 H 72.936 1.31708 -0.841594 0
M  V30 816 H 73.671 3.09681 0.962726 0
M  V30 817 H 73.456 3.86928 -0.634727 0
M  V30 818 H 74.946 4.16445 0.310432 0
M  V30 819 N 75.3831 0.828654 1.34056 0
M  V30 820 C 76.3131 0.269443 2.3194 0
M  V30 821 C 77.2941 -0.617247 1.58506 0
M  V30 822 O 78.4791 -0.542931 1.86456 0
M  V30 823 C 75.6091 -0.564793 3.42677 0
M  V30 824 C 74.5631 0.225241 4.27407 0
M  V30 825 C 73.8891 -0.7321 5.29664 0
M  V30 826 C 75.1891 1.43663 5.02154 0
M  V30 827 H 76.8831 1.08728 2.7896 0
M  V30 828 H 74.4291 0.524283 1.34117 0
M  V30 829 H 76.3821 -0.966233 4.10173 0
M  V30 830 H 75.1061 -1.41574 2.9432 0
M  V30 831 H 73.7651 0.608117 3.61521 0
M  V30 832 H 73.4131 -1.57916 4.77568 0
M  V30 833 H 73.1131 -0.20767 5.87233 0
M  V30 834 H 74.6371 -1.13128 6.00029 0
M  V30 835 H 76.0511 1.1089 5.62473 0
M  V30 836 H 74.4481 1.89711 5.69324 0
M  V30 837 H 75.5181 2.21181 4.31517 0
M  V30 838 N 76.8612 -1.46375 0.584142 0
M  V30 839 C 77.8242 -2.28784 -0.138108 0
M  V30 840 C 78.8242 -1.38471 -0.817462 0
M  V30 841 O 80.0142 -1.60833 -0.669199 0
M  V30 842 C 77.1462 -3.18892 -1.20503 0
M  V30 843 H 78.3392 -2.94117 0.586127 0
M  V30 844 H 75.8922 -1.52509 0.342171 0
M  V30 845 H 76.6272 -2.58309 -1.96079 0
M  V30 846 H 76.4122 -3.85388 -0.722384 0
M  V30 847 H 77.9022 -3.80914 -1.71155 0
M  V30 848 N 78.3393 -0.321999 -1.54275 0
M  V30 849 C 79.5673 0.283052 -2.04955 0
M  V30 850 C 79.9823 1.45904 -1.19823 0
M  V30 851 O 79.3393 1.81063 -0.228545 0
M  V30 852 C 79.3903 0.719028 -3.54277 0
M  V30 853 O 79.1113 -0.410175 -4.36176 0
M  V30 854 C 80.6123 1.38705 -4.21041 0
M  V30 855 H 77.8323 0.0584616 -0.668448 0
M  V30 856 H 80.3763 -0.467734 -1.99079 0
M  V30 857 H 78.5313 1.41979 -3.60445 0
M  V30 858 H 78.9453 -0.0669416 -5.24457 0
M  V30 859 H 80.4193 1.64306 -5.2698 0
M  V30 860 H 80.8963 2.33385 -3.72059 0
M  V30 861 H 81.5023 0.728906 -4.19007 0
M  V30 862 N 79.8174 1.5752 -0.0501392 0
M  V30 863 C 80.7474 2.14502 0.922566 0
M  V30 864 C 81.7284 1.06642 1.3252 0
M  V30 865 O 82.9134 1.34577 1.4001 0
M  V30 866 C 80.0434 2.68916 2.19776 0
M  V30 867 C 78.9974 3.8175 1.93523 0
M  V30 868 C 78.3234 4.22677 3.27487 0
M  V30 869 C 79.6234 5.06932 1.25765 0
M  V30 870 H 81.3174 2.9603 0.447952 0
M  V30 871 H 78.8634 1.42401 0.214024 0
M  V30 872 H 80.8164 3.07419 2.88222 0
M  V30 873 H 79.5404 1.84578 2.69441 0
M  V30 874 H 78.1994 3.43718 1.27489 0
M  V30 875 H 77.8474 3.35291 3.74952 0
M  V30 876 H 77.5474 4.98725 3.1072 0
M  V30 877 H 79.0714 4.63779 3.97166 0
M  V30 878 H 80.4854 5.42888 1.84244 0
M  V30 879 H 78.8824 5.88116 1.19328 0
M  V30 880 H 79.9524 4.84337 0.233536 0
M  V30 881 N 81.2955 -0.223234 1.56011 0
M  V30 882 C 82.5415 -0.949279 1.79211 0
M  V30 883 C 82.8745 -1.84054 0.619494 0
M  V30 884 O 82.1495 -1.90726 -0.381317 0
M  V30 885 C 82.4325 -1.78965 3.12479 0
M  V30 886 C 82.2855 -0.924997 4.40186 0
M  V30 887 C 83.6045 -2.76774 3.42175 0
M  V30 888 H 80.7235 -0.343676 0.651963 0
M  V30 889 H 83.3655 -0.218253 1.88742 0
M  V30 890 H 81.5155 -2.41291 3.04485 0
M  V30 891 H 83.1875 -0.318615 4.60198 0
M  V30 892 H 81.4305 -0.230344 4.33188 0
M  V30 893 H 82.1015 -1.54735 5.29869 0
M  V30 894 H 84.5775 -2.24584 3.50287 0
M  V30 895 H 83.4535 -3.32678 4.36597 0
M  V30 896 H 83.7145 -3.54429 2.64258 0
M  V30 897 N 82.7736 -1.49793 -0.48987 0
M  V30 898 C 83.7056 -1.63413 -1.60713 0
M  V30 899 C 84.7186 -0.516329 -1.54395 0
M  V30 900 O 85.9076 -0.788812 -1.60125 0
M  V30 901 C 83.0076 -1.58516 -2.99543 0
M  V30 902 C 82.1806 -2.86016 -3.30928 0
M  V30 903 C 81.2396 -2.74018 -4.49222 0
M  V30 904 O 80.2656 -3.47964 -4.50455 0
M  V30 905 N 81.4676 -1.86309 -5.4979 0
M  V30 906 H 84.2326 -2.59777 -1.49452 0
M  V30 907 H 81.7936 -1.47022 -0.677955 0
M  V30 908 H 83.7856 -1.48128 -3.76617 0
M  V30 909 H 82.3556 -0.69965 -3.0467 0
M  V30 910 H 81.5756 -3.10672 -2.42645 0
M  V30 911 H 82.8636 -3.70521 -3.487 0
M  V30 912 H 82.2616 -1.2551 -5.51601 0
M  V30 913 H 80.8186 -1.81837 -6.25922 0
M  V30 914 N 84.2517 0.741722 -1.39055 0
M  V30 915 C 85.4767 1.53607 -1.39354 0
M  V30 916 C 85.9017 1.88096 0.0116905 0
M  V30 917 O 85.2597 1.5143 0.996924 0
M  V30 918 C 85.3077 2.80441 -2.26682 0
M  V30 919 O 84.4117 3.76088 -1.69208 0
M  V30 920 H 83.7527 0.464142 -0.474835 0
M  V30 921 H 86.2827 0.915665 -1.82967 0
M  V30 922 H 86.2927 3.29246 -2.40959 0
M  V30 923 H 84.9677 2.5467 -3.2881 0
M  V30 924 H 83.5447 3.34833 -1.64138 0
M  V30 925 N 85.7298 1.2412 0.971189 0
M  V30 926 C 86.9758 1.08041 1.71625 0
M  V30 927 C 87.3088 -0.380407 1.90438 0
M  V30 928 O 86.5838 -1.28127 1.46334 0
M  V30 929 C 86.8668 1.81682 3.10908 0
M  V30 930 C 86.7198 3.35493 2.99608 0
M  V30 931 C 88.0388 1.58671 4.10501 0
M  V30 932 H 85.1578 0.39388 0.622919 0
M  V30 933 H 87.7998 1.52743 1.13003 0
M  V30 934 H 85.9498 1.43684 3.60953 0
M  V30 935 H 87.6218 3.83068 2.57015 0
M  V30 936 H 85.8648 3.64052 2.35899 0
M  V30 937 H 86.5358 3.82217 3.98264 0
M  V30 938 H 89.0118 1.91719 3.69301 0
M  V30 939 H 87.8878 2.1266 5.06031 0
M  V30 940 H 88.1488 0.524161 4.38982 0
M  V30 941 N 87.2079 -1.17134 1.05439 0
M  V30 942 C 88.4559 -1.87085 0.764429 0
M  V30 943 C 88.7769 -1.81584 -0.710787 0
M  V30 944 O 88.0469 -1.24349 -1.51374 0
M  V30 945 H 86.6269 -0.692627 0.279779 0
M  V30 946 H 89.2889 -1.42087 1.33406 0
M  V30 947 H 88.3849 -2.92759 1.0816 0
M  V30 948 N 88.686 -0.835752 -1.33615 0
M  V30 949 C 89.636 -0.238856 -2.26745 0
M  V30 950 C 90.62 0.604343 -1.49119 0
M  V30 951 O 91.812 0.456822 -1.71003 0
M  V30 952 C 88.941 0.587725 -3.38232 0
M  V30 953 C 88.027 -0.266811 -4.2326 0
M  V30 954 N 88.418 -1.34403 -4.87616 0
M  V30 955 C 86.716 -0.0533131 -4.45968 0
M  V30 956 C 87.417 -1.86819 -5.50884 0
M  V30 957 N 86.393 -1.17013 -5.30857 0
M  V30 958 H 90.195 -1.06266 -2.74016 0
M  V30 959 H 87.709 -0.679881 -1.47483 0
M  V30 960 H 89.706 1.03161 -4.03935 0
M  V30 961 H 88.366 1.40954 -2.9251 0
M  V30 962 H 89.377 -1.7269 -4.88261 0
M  V30 963 H 86.054 0.735312 -4.10974 0
M  V30 964 H 87.444 -2.7701 -6.1214 0
M  V30 965 N 90.1641 1.46063 -0.591896 0
M  V30 966 C 91.4131 2.01547 -0.0786637 0
M  V30 967 C 91.7261 1.46796 1.29268 0
M  V30 968 O 92.9321 1.94157 1.89777 0
M  V30 969 C 91.3881 3.59787 -0.0900024 0
M  V30 970 C 90.9961 4.23534 -1.46023 0
M  V30 971 C 92.7401 4.22895 0.368806 0
M  V30 972 C 90.6471 5.73881 -1.4288 0
M  V30 973 H 89.5771 0.753564 -0.0256388 0
M  V30 974 H 92.2281 1.677 -0.744905 0
M  V30 975 H 90.6101 3.90752 0.642586 0
M  V30 976 H 91.7841 4.04167 -2.21328 0
M  V30 977 H 90.0991 3.72558 -1.85982 0
M  V30 978 H 92.6961 5.33116 0.411258 0
M  V30 979 H 93.0391 3.9247 1.38827 0
M  V30 980 H 93.5721 3.9659 -0.31001 0
M  V30 981 H 90.3111 6.0898 -2.42536 0
M  V30 982 H 89.8311 5.95486 -0.718095 0
M  V30 983 H 91.5101 6.36776 -1.14565 0
M  V30 984 N 91.6422 0.330177 1.54103 0
M  V30 985 C 92.8672 -0.274893 2.0557 0
M  V30 986 C 93.2922 -1.44487 1.20437 0
M  V30 987 O 92.6502 -1.80021 0.214991 0
M  V30 988 C 92.6982 -0.68079 3.54115 0
M  V30 989 O 91.8022 -1.7824 3.71893 0
M  V30 990 H 91.1432 -0.0483849 0.662235 0
M  V30 991 H 93.6732 0.480508 1.98878 0
M  V30 992 H 93.6832 -0.961635 3.96505 0
M  V30 993 H 92.3582 0.174903 4.15532 0
M  V30 994 H 90.9352 -1.49985 3.41407 0
M  V30 995 N 93.1203 -1.57491 0.0584922 0
M  V30 996 C 94.3683 -1.92597 -0.612436 0
M  V30 997 C 94.6893 -0.938162 -1.70949 0
M  V30 998 O 93.9593 0.0158301 -1.95894 0
M  V30 999 H 92.5393 -0.710964 -0.229214 0
M  V30 1000 H 95.2013 -1.94571 0.113218 0
M  V30 1001 H 94.2973 -2.94038 -1.04633 0
M  V30 1002 N 94.5984 0.214957 -1.56127 0
M  V30 1003 C 95.5614 1.24997 -1.92116 0
M  V30 1004 C 96.5614 1.39467 -0.800344 0
M  V30 1005 O 97.7514 1.37619 -1.06802 0
M  V30 1006 C 94.8834 2.62271 -2.17777 0
M  V30 1007 H 96.0764 0.942875 -2.84693 0
M  V30 1008 H 93.6294 0.455654 -1.49511 0
M  V30 1009 H 94.3644 2.98068 -1.27773 0
M  V30 1010 H 94.1494 2.53143 -2.99434 0
M  V30 1011 H 95.6394 3.36946 -2.46693 0
M  V30 1012 N 96.0765 1.50051 0.48192 0
M  V30 1013 C 97.0265 1.64512 1.5786 0
M  V30 1014 C 98.0105 0.500073 1.52932 0
M  V30 1015 O 99.2025 0.753964 1.60139 0
M  V30 1016 C 96.3315 1.73263 2.9637 0
M  V30 1017 C 95.4175 2.93409 3.06222 0
M  V30 1018 N 95.8085 4.17236 2.85915 0
M  V30 1019 C 94.1065 2.91742 3.37346 0
M  V30 1020 C 94.8075 4.981 3.00451 0
M  V30 1021 N 93.7835 4.3184 3.30174 0
M  V30 1022 H 97.5855 2.57955 1.40842 0
M  V30 1023 H 95.0995 1.47086 0.688439 0
M  V30 1024 H 97.0965 1.81724 3.75209 0
M  V30 1025 H 95.7565 0.809711 3.14442 0
M  V30 1026 H 96.7675 4.46909 2.6171 0
M  V30 1027 H 93.4445 2.08907 3.61475 0
M  V30 1028 H 94.8345 6.06532 2.89082 0
M  V30 1029 N 97.5546 -0.734337 1.39446 0
M  V30 1030 C 98.8006 -1.49613 1.36908 0
M  V30 1031 C 99.1336 -1.94169 -0.0347829 0
M  V30 1032 O 98.4086 -1.66833 -0.999847 0
M  V30 1033 C 98.6916 -2.73534 2.34203 0
M  V30 1034 C 98.5446 -2.34993 3.83534 0
M  V30 1035 C 99.8636 -3.75635 2.29317 0
M  V30 1036 H 96.9826 -0.542714 0.498629 0
M  V30 1037 H 99.6246 -0.839597 1.70443 0
M  V30 1038 H 97.7746 -3.29553 2.05736 0
M  V30 1039 H 99.4466 -1.84601 4.22753 0
M  V30 1040 H 97.6896 -1.67213 4.00278 0
M  V30 1041 H 98.3606 -3.23738 4.47099 0
M  V30 1042 H 100.837 -3.29203 2.54489 0
M  V30 1043 H 99.7126 -4.60008 2.99472 0
M  V30 1044 H 99.9736 -4.22603 1.29842 0
M  V30 1045 N 99.0327 -1.24633 -0.964593 0
M  V30 1046 C 99.9807 -1.03917 -2.08096 0
M  V30 1047 C 100.975 0.0268581 -1.69379 0
M  V30 1048 O 102.181 -0.127952 -1.79545 0
M  V30 1049 H 98.5557 -0.319044 -0.680966 0
M  V30 1050 H 100.527 -1.98581 -2.22729 0
M  V30 1051 C 99.2757 -0.663983 -3.41301 0
M  V30 1052 H 98.5987 -1.47605 -3.71555 0
M  V30 1053 H 100.039 -0.558663 -4.20303 0
M  V30 1054 C 98.4977 0.629169 -3.30973 0
M  V30 1055 O 99.0277 1.67404 -3.65156 0
M  V30 1056 N 97.2337 0.611057 -2.84103 0
M  V30 1057 H 96.7807 -0.239593 -2.56483 0
M  V30 1058 H 96.7387 1.47647 -2.77575 0
M  V30 1059 N 100.511 1.16574 -1.06058 0
M  V30 1060 C 101.922 1.68662 -0.800632 0
M  V30 1061 C 102.273 1.84184 0.67608 0
M  V30 1062 O 101.398 1.53568 1.52466 0
M  V30 1063 C 101.993 3.06356 -1.44676 0
M  V30 1064 C 100.552 3.55575 -1.23465 0
M  V30 1065 C 99.6988 2.31616 -1.52477 0
M  V30 1066 H 102.65 1.00969 -1.22438 0
M  V30 1067 H 102.671 3.70636 -0.860788 0
M  V30 1068 H 102.183 2.95027 -2.52152 0
M  V30 1069 H 100.284 3.72167 -0.179527 0
M  V30 1070 H 100.397 4.37812 -1.94571 0
M  V30 1071 H 98.7608 2.36512 -0.945209 0
M  V30 1072 H 99.5438 2.22887 -2.61106 0
M  V30 1073 N 101.989 0.842826 1.3317 0
M  V30 1074 C 102.952 0.284065 2.27433 0
M  V30 1075 C 103.952 -0.54948 1.5112 0
M  V30 1076 O 105.142 -0.362699 1.70382 0
M  V30 1077 C 102.274 -0.599384 3.35589 0
M  V30 1078 H 103.467 1.11589 2.78366 0
M  V30 1079 H 101.02 0.616221 1.4364 0
M  V30 1080 H 101.755 -1.45349 2.89904 0
M  V30 1081 H 101.54 -0.00291266 3.921 0
M  V30 1082 H 103.03 -0.983488 4.05854 0
M  V30 1083 N 103.467 -1.45747 0.599634 0
M  V30 1084 C 104.713 -2.02592 0.0918643 0
M  V30 1085 C 105.046 -1.46806 -1.27128 0
M  V30 1086 O 104.321 -0.639658 -1.83681 0
M  V30 1087 C 104.604 -3.60073 0.0443398 0
M  V30 1088 C 104.457 -4.26208 1.43759 0
M  V30 1089 C 105.776 -4.35309 -0.647608 0
M  V30 1090 H 102.895 -0.736175 0.034857 0
M  V30 1091 H 105.537 -1.73694 0.770081 0
M  V30 1092 H 103.687 -3.84823 -0.533224 0
M  V30 1093 H 105.359 -4.12668 2.06162 0
M  V30 1094 H 103.602 -3.84916 2.00056 0
M  V30 1095 H 104.273 -5.35069 1.35665 0
M  V30 1096 H 106.749 -4.15805 -0.156776 0
M  V30 1097 H 105.625 -5.45038 -0.649942 0
M  V30 1098 H 105.886 -4.07598 -1.71219 0
M  V30 1099 N 104.945 -0.338344 -1.53925 0
M  V30 1100 C 106.173 0.261298 -2.05243 0
M  V30 1101 C 106.588 1.44625 -1.21363 0
M  V30 1102 O 105.945 1.80811 -0.247736 0
M  V30 1103 C 105.996 0.681412 -3.5502 0
M  V30 1104 O 105.717 -0.456414 -4.35716 0
M  V30 1105 C 107.218 1.34232 -4.22489 0
M  V30 1106 H 104.438 0.0513685 -0.669031 0
M  V30 1107 H 106.982 -0.488822 -1.98572 0
M  V30 1108 H 105.137 1.38148 -3.61931 0
M  V30 1109 H 105.551 -0.122564 -5.24357 0
M  V30 1110 H 107.025 1.58708 -5.28693 0
M  V30 1111 H 107.502 2.29426 -3.74514 0
M  V30 1112 H 108.108 0.684424 -4.19757 0
M  V30 1113 N 106.423 1.57458 -0.0668435 0
M  V30 1114 C 107.67 1.93301 0.603406 0
M  V30 1115 C 107.998 0.946486 1.69917 0
M  V30 1116 O 107.253 -0.0387021 1.95662 0
M  V30 1117 C 107.552 3.35784 1.22409 0
M  V30 1118 C 107.218 4.50179 0.254955 0
M  V30 1119 C 105.88 4.81199 -0.0116746 0
M  V30 1120 C 108.232 5.19598 -0.408338 0
M  V30 1121 C 105.56 5.78978 -0.94877 0
M  V30 1122 C 107.912 6.18381 -1.33372 0
M  V30 1123 C 106.576 6.47821 -1.60887 0
M  V30 1124 H 105.846 0.707338 0.220802 0
M  V30 1125 H 108.493 1.91012 -0.136665 0
M  V30 1126 H 106.798 3.34515 2.03978 0
M  V30 1127 H 108.495 3.60804 1.74989 0
M  V30 1128 H 105.085 4.25983 0.472954 0
M  V30 1129 H 109.269 4.95832 -0.215456 0
M  V30 1130 H 104.525 6.00115 -1.16925 0
M  V30 1131 H 108.699 6.71277 -1.85367 0
M  V30 1132 H 106.326 7.23399 -2.33661 0
M  V30 1133 N 107.901 -0.206675 1.56239 0
M  V30 1134 C 108.864 -1.23976 1.92776 0
M  V30 1135 C 109.864 -1.39041 0.807729 0
M  V30 1136 O 111.054 -1.37051 1.0753 0
M  V30 1137 C 108.186 -2.61112 2.19165 0
M  V30 1138 H 109.379 -0.927764 2.85189 0
M  V30 1139 H 106.932 -0.447718 1.4975 0
M  V30 1140 H 107.667 -2.97386 1.29352 0
M  V30 1141 H 107.452 -2.51552 3.00772 0
M  V30 1142 H 108.942 -3.35633 2.48476 0
M  V30 1143 N 109.379 -1.50304 -0.473955 0
M  V30 1144 C 110.626 -1.6115 -1.22625 0
M  V30 1145 C 110.954 -0.310517 -1.92005 0
M  V30 1146 O 110.209 0.703419 -1.82621 0
M  V30 1147 C 110.508 -2.73938 -2.29549 0
M  V30 1148 C 110.174 -4.14519 -1.7744 0
M  V30 1149 C 108.836 -4.5277 -1.62949 0
M  V30 1150 C 111.188 -5.02392 -1.3875 0
M  V30 1151 C 108.516 -5.76639 -1.08187 0
M  V30 1152 C 110.868 -6.26805 -0.854309 0
M  V30 1153 C 109.532 -6.63861 -0.696011 0
M  V30 1154 H 108.802 -0.589691 -0.448715 0
M  V30 1155 H 111.449 -1.84228 -0.522705 0
M  V30 1156 H 109.754 -2.44937 -3.05799 0
M  V30 1157 H 111.451 -2.79534 -2.87509 0
M  V30 1158 H 108.041 -3.8434 -1.89685 0
M  V30 1159 H 112.225 -4.73474 -1.4878 0
M  V30 1160 H 107.481 -6.04027 -0.946666 0
M  V30 1161 H 111.655 -6.94258 -0.545843 0
M  V30 1162 H 109.282 -7.59722 -0.26952 0
M  V30 1163 N 110.857 0.726932 -1.39834 0
M  V30 1164 C 111.787 1.85405 -1.41941 0
M  V30 1165 C 112.768 1.67751 -0.281728 0
M  V30 1166 O 113.953 1.8795 -0.488717 0
M  V30 1167 C 111.083 3.23243 -1.2701 0
M  V30 1168 C 110.037 3.55549 -2.38262 0
M  V30 1169 C 109.363 4.9241 -2.08415 0
M  V30 1170 C 110.663 3.577 -3.80589 0
M  V30 1171 H 112.357 1.83899 -2.36266 0
M  V30 1172 H 109.903 0.883349 -1.13723 0
M  V30 1173 H 111.856 4.01775 -1.27103 0
M  V30 1174 H 110.58 3.25296 -0.291564 0
M  V30 1175 H 109.239 2.79351 -2.37399 0
M  V30 1176 H 108.887 4.91052 -1.0898 0
M  V30 1177 H 108.587 5.14992 -2.82943 0
M  V30 1178 H 110.111 5.73289 -2.10171 0
M  V30 1179 H 111.525 4.26293 -3.83337 0
M  V30 1180 H 109.922 3.91804 -4.54543 0
M  V30 1181 H 110.992 2.57328 -4.10987 0
M  V30 1182 N 112.336 1.25143 0.95797 0
M  V30 1183 C 113.582 1.09855 1.70469 0
M  V30 1184 C 113.915 -0.360187 1.90831 0
M  V30 1185 O 113.19 -1.26568 1.47685 0
M  V30 1186 C 113.473 1.8497 3.08963 0
M  V30 1187 C 113.326 3.38652 2.96032 0
M  V30 1188 C 114.645 1.63016 4.08795 0
M  V30 1189 H 111.764 0.400465 0.618706 0
M  V30 1190 H 114.406 1.53933 1.11376 0
M  V30 1191 H 112.556 1.47505 3.59409 0
M  V30 1192 H 114.228 3.85772 2.52938 0
M  V30 1193 H 112.471 3.66534 2.32025 0
M  V30 1194 H 113.142 3.8642 3.94187 0
M  V30 1195 H 115.618 1.95625 3.67247 0
M  V30 1196 H 114.494 2.18015 5.03747 0
M  V30 1197 H 114.755 0.570692 4.38401 0
M  V30 1198 N 113.814 -1.1601 1.06675 0
M  V30 1199 C 115.062 -1.86264 0.784229 0
M  V30 1200 C 115.383 -1.82328 -0.691488 0
M  V30 1201 O 114.653 -1.25947 -1.50047 0
M  V30 1202 H 113.233 -0.689621 0.28711 0
M  V30 1203 H 115.895 -1.40664 1.34906 0
M  V30 1204 H 114.991 -2.91595 1.11259 0
M  V30 1205 N 115.292 -0.849877 -1.32721 0
M  V30 1206 C 116.517 -0.463856 -2.02146 0
M  V30 1207 C 116.942 0.930449 -1.63476 0
M  V30 1208 O 116.3 1.61033 -0.832952 0
M  V30 1209 C 116.348 -0.604955 -3.55489 0
M  V30 1210 O 115.452 0.36425 -4.10788 0
M  V30 1211 H 114.793 -0.187046 -0.637111 0
M  V30 1212 H 117.323 -1.14775 -1.69375 0
M  V30 1213 H 117.333 -0.490696 -4.05038 0
M  V30 1214 H 116.008 -1.62174 -3.82978 0
M  V30 1215 H 114.585 0.206628 -3.72327 0
M  V30 1216 N 116.77 1.45427 -0.607355 0
M  V30 1217 C 117.702 2.2871 0.149752 0
M  V30 1218 C 118.715 1.39937 0.831958 0
M  V30 1219 O 119.904 1.64313 0.697385 0
M  V30 1220 C 117.004 3.15673 1.23304 0
M  V30 1221 C 116.177 4.32722 0.637996 0
M  V30 1222 C 115.236 5.00895 1.61215 0
M  V30 1223 O 114.262 5.57697 1.13854 0
M  V30 1224 N 115.464 5.00159 2.94655 0
M  V30 1225 H 118.229 2.94328 -0.564882 0
M  V30 1226 H 115.79 1.55612 -0.446823 0
M  V30 1227 H 117.782 3.58144 1.88454 0
M  V30 1228 H 116.352 2.51965 1.8502 0
M  V30 1229 H 115.572 3.93734 -0.191572 0
M  V30 1230 H 116.86 5.08321 0.220665 0
M  V30 1231 H 116.258 4.553 3.35735 0
M  V30 1232 H 114.815 5.46495 3.55228 0
M  V30 1233 N 118.248 0.346503 1.53744 0
M  V30 1234 C 119.181 -0.552023 2.21423 0
M  V30 1235 C 120.159 -1.09798 1.19929 0
M  V30 1236 O 121.343 -1.1577 1.4876 0
M  V30 1237 C 118.47 -1.75972 2.89398 0
M  V30 1238 C 117.516 -1.34295 4.04805 0
M  V30 1239 S 118.349 -0.360263 5.34287 0
M  V30 1240 C 119.505 -1.57473 6.05767 0
M  V30 1241 H 119.738 0.0228119 2.97291 0
M  V30 1242 H 117.271 0.130579 1.53847 0
M  V30 1243 H 119.229 -2.45256 3.2918 0
M  V30 1244 H 117.89 -2.30578 2.1329 0
M  V30 1245 H 117.083 -2.24349 4.51313 0
M  V30 1246 H 116.685 -0.729555 3.66815 0
M  V30 1247 H 118.977 -2.50875 6.29339 0
M  V30 1248 H 119.92 -1.15138 6.98676 0
M  V30 1249 H 120.328 -1.77212 5.35963 0
M  V30 1250 N 119.726 -1.57421 0.075193 0
M  V30 1251 C 120.951 -1.98364 -0.605515 0
M  V30 1252 C 121.376 -0.953383 -1.62149 0
M  V30 1253 O 120.734 0.0806053 -1.81121 0
M  V30 1254 C 120.782 -3.38332 -1.24756 0
M  V30 1255 O 119.886 -3.37959 -2.36342 0
M  V30 1256 H 119.227 -0.645553 -0.155428 0
M  V30 1257 H 121.757 -2.04044 0.150714 0
M  V30 1258 H 121.767 -3.75591 -1.5936 0
M  V30 1259 H 120.442 -4.12846 -0.503129 0
M  V30 1260 H 119.019 -3.12474 -2.03506 0
M  V30 1261 N 121.204 0.198386 -1.56346 0
M  V30 1262 C 122.134 1.24865 -1.9731 0
M  V30 1263 C 123.115 1.47651 -0.844576 0
M  V30 1264 O 124.3 1.59444 -1.10866 0
M  V30 1265 C 121.43 2.59358 -2.30977 0
M  V30 1266 C 120.384 2.5119 -3.46537 0
M  V30 1267 C 119.71 3.89926 -3.65871 0
M  V30 1268 C 121.01 2.03977 -4.80823 0
M  V30 1269 H 122.704 0.908252 -2.85291 0
M  V30 1270 H 120.25 0.435462 -1.37258 0
M  V30 1271 H 122.203 3.33011 -2.58228 0
M  V30 1272 H 120.927 2.95132 -1.39874 0
M  V30 1273 H 119.586 1.79993 -3.19371 0
M  V30 1274 H 119.234 4.23046 -2.72105 0
M  V30 1275 H 118.934 3.85336 -4.4361 0
M  V30 1276 H 120.458 4.65205 -3.95495 0
M  V30 1277 H 121.872 2.67386 -5.07127 0
M  V30 1278 H 120.269 2.10397 -5.62008 0
M  V30 1279 H 121.339 0.992861 -4.74626 0
M  V30 1280 N 122.682 1.50554 0.465978 0
M  V30 1281 C 123.612 1.72722 1.57128 0
M  V30 1282 C 124.593 0.576294 1.6004 0
M  V30 1283 O 125.778 0.81598 1.76225 0
M  V30 1284 C 122.908 1.82605 2.95419 0
M  V30 1285 C 121.862 2.97835 3.07373 0
M  V30 1286 C 121.188 2.92867 4.47363 0
M  V30 1287 C 122.488 4.38265 2.84114 0
M  V30 1288 H 124.182 2.65267 1.38829 0
M  V30 1289 H 121.728 1.2765 0.666441 0
M  V30 1290 H 123.681 1.96698 3.72677 0
M  V30 1291 H 122.405 0.866858 3.14886 0
M  V30 1292 H 121.064 2.83401 2.3255 0
M  V30 1293 H 120.712 1.94783 4.63755 0
M  V30 1294 H 120.412 3.70227 4.56296 0
M  V30 1295 H 121.936 3.09015 5.26633 0
M  V30 1296 H 123.35 4.53198 3.51118 0
M  V30 1297 H 121.747 5.17115 3.04487 0
M  V30 1298 H 122.817 4.50281 1.7993 0
M  V30 1299 N 124.16 -0.719506 1.40217 0
M  V30 1300 C 125.576 -1.02707 1.22161 0
M  V30 1301 C 125.776 -2.0128 0.0940557 0
M  V30 1302 O 124.832 -2.46452 -0.549318 0
M  V30 1303 C 126.145 -1.57454 2.56181 0
M  V30 1304 C 127.693 -1.69458 2.63159 0
M  V30 1305 C 128.168 -2.27611 3.97438 0
M  V30 1306 N 129.659 -2.35002 3.99159 0
M  V30 1307 C 130.394 -2.80972 4.99842 0
M  V30 1308 N 129.89 -3.26723 6.10921 0
M  V30 1309 N 131.683 -2.80321 4.87213 0
M  V30 1310 H 123.834 -0.0660492 2.12297 0
M  V30 1311 H 126.097 -0.0919077 0.943534 0
M  V30 1312 H 125.803 -0.924873 3.39321 0
M  V30 1313 H 125.677 -2.56036 2.76993 0
M  V30 1314 H 128.064 -2.33543 1.80393 0
M  V30 1315 H 128.145 -0.694867 2.46181 0
M  V30 1316 H 127.789 -1.6415 4.80643 0
M  V30 1317 H 127.719 -3.2829 4.11744 0
M  V30 1318 H 130.21 -2.02685 3.18947 0
M  V30 1319 H 130.523 -3.60355 6.8364 0
M  V30 1320 H 128.868 -3.24692 6.14492 0
M  V30 1321 H 132.059 -2.43912 3.9953 0
M  V30 1322 H 132.232 -3.15831 5.65822 0
M  V30 1323 N 125.638 -1.25649 -0.95132 0
M  V30 1324 C 126.601 -1.06399 -2.03007 0
M  V30 1325 C 127.601 -0.0156794 -1.60792 0
M  V30 1326 O 128.791 -0.25817 -1.72276 0
M  V30 1327 C 125.923 -0.616184 -3.35285 0
M  V30 1328 H 127.116 -2.02164 -2.21517 0
M  V30 1329 H 124.669 -1.08103 -1.12887 0
M  V30 1330 H 125.404 0.343917 -3.22471 0
M  V30 1331 H 125.189 -1.37301 -3.67275 0
M  V30 1332 H 126.679 -0.503032 -4.14559 0
M  V30 1333 N 127.117 1.15442 -1.07289 0
M  V30 1334 C 128.364 1.86213 -0.795668 0
M  V30 1335 C 128.692 1.82291 0.678238 0
M  V30 1336 O 127.947 1.24057 1.51355 0
M  V30 1337 C 128.246 3.3489 -1.24834 0
M  V30 1338 C 127.912 3.59007 -2.72809 0
M  V30 1339 C 126.574 3.65298 -3.13227 0
M  V30 1340 C 128.926 3.68762 -3.68326 0
M  V30 1341 C 126.254 3.78854 -4.4798 0
M  V30 1342 C 128.606 3.83842 -5.0284 0
M  V30 1343 C 127.27 3.88378 -5.4288 0
M  V30 1344 H 126.54 0.681403 -0.291155 0
M  V30 1345 H 129.187 1.36435 -1.34379 0
M  V30 1346 H 127.492 3.8687 -0.619595 0
M  V30 1347 H 129.189 3.88052 -1.01076 0
M  V30 1348 H 125.779 3.5475 -2.40521 0
M  V30 1349 H 129.963 3.63202 -3.38227 0
M  V30 1350 H 125.219 3.80623 -4.78472 0
M  V30 1351 H 129.393 3.90332 -5.76727 0
M  V30 1352 H 127.02 3.98635 -6.47298 0
M  V30 1353 N 128.595 0.856903 1.32268 0
M  V30 1354 C 129.835 0.467705 1.98977 0
M  V30 1355 C 130.199 -0.959231 1.66321 0
M  V30 1356 O 131.4 -1.4531 2.26138 0
M  V30 1357 C 129.671 0.70256 3.50427 0
M  V30 1358 S 131.23 0.411269 4.36868 0
M  V30 1359 H 128.048 0.175121 0.689096 0
M  V30 1360 H 130.65 1.1101 1.60925 0
M  V30 1361 H 129.354 1.74012 3.71683 0
M  V30 1362 H 128.885 0.0466707 3.93372 0
M  V30 1363 H 130.9 -0.761799 4.90317 0
M  V30 1364 N 130.073 -1.45103 0.615059 0
M  V30 1365 C 131.303 -2.06254 0.119596 0
M  V30 1366 C 131.711 -1.4591 -1.20445 0
M  V30 1367 O 131.054 -0.570384 -1.7462 0
M  V30 1368 C 131.116 -3.59396 -0.0865591 0
M  V30 1369 C 130.78 -4.42116 1.15683 0
M  V30 1370 C 131.777 -4.7662 2.07676 0
M  V30 1371 C 129.462 -4.82749 1.38775 0
M  V30 1372 C 131.456 -5.50622 3.21082 0
M  V30 1373 C 129.143 -5.56504 2.52481 0
M  V30 1374 C 130.141 -5.90358 3.43463 0
M  V30 1375 O 129.829 -6.62615 4.55189 0
M  V30 1376 H 129.561 -0.672423 0.0694512 0
M  V30 1377 H 132.115 -1.87219 0.844885 0
M  V30 1378 H 130.345 -3.76859 -0.866823 0
M  V30 1379 H 132.034 -4.02365 -0.534555 0
M  V30 1380 H 132.8 -4.4578 1.91063 0
M  V30 1381 H 128.679 -4.55829 0.688545 0
M  V30 1382 H 132.223 -5.76965 3.92119 0
M  V30 1383 H 128.12 -5.86759 2.69043 0
M  V30 1384 H 128.888 -6.81071 4.53966 0
M  V30 1385 N 131.551 -0.354651 -1.53558 0
M  V30 1386 C 132.484 0.540273 -2.21712 0
M  V30 1387 C 133.462 1.09161 -1.2051 0
M  V30 1388 O 134.646 1.14979 -1.49372 0
M  V30 1389 C 131.773 1.74435 -2.90328 0
M  V30 1390 C 130.819 1.32146 -4.05512 0
M  V30 1391 S 131.652 0.331924 -5.3447 0
M  V30 1392 C 132.808 1.54258 -6.06593 0
M  V30 1393 H 133.041 -0.0385776 -2.97275 0
M  V30 1394 H 130.574 -0.138736 -1.53775 0
M  V30 1395 H 132.532 2.43507 -3.30476 0
M  V30 1396 H 131.193 2.29444 -2.1451 0
M  V30 1397 H 130.386 2.21952 -4.52497 0
M  V30 1398 H 129.988 0.710091 -3.67197 0
M  V30 1399 H 132.28 2.47534 -6.30661 0
M  V30 1400 H 133.223 1.11431 -6.99277 0
M  V30 1401 H 133.631 1.74367 -5.36895 0
M  V30 1402 N 133.029 1.57378 -0.0835403 0
M  V30 1403 C 133.992 2.12252 0.864959 0
M  V30 1404 C 134.992 1.04916 1.21858 0
M  V30 1405 O 136.182 1.30853 1.14991 0
M  V30 1406 C 133.314 2.63358 2.16461 0
M  V30 1407 H 134.507 2.97371 0.388676 0
M  V30 1408 H 132.06 1.55423 0.165317 0
M  V30 1409 H 132.795 1.81727 2.686 0
M  V30 1410 H 132.58 3.41826 1.92087 0
M  V30 1411 H 134.07 3.05847 2.84337 0
M  V30 1412 N 134.507 -0.190092 1.56449 0
M  V30 1413 C 135.47 -1.21925 1.9408 0
M  V30 1414 C 136.47 -1.38176 0.822431 0
M  V30 1415 O 137.66 -1.35903 1.08977 0
M  V30 1416 C 134.792 -2.58773 2.21922 0
M  V30 1417 H 135.985 -0.897464 2.86157 0
M  V30 1418 H 133.538 -0.43181 1.50217 0
M  V30 1419 H 134.273 -2.95998 1.32499 0
M  V30 1420 H 134.058 -2.48348 3.03424 0
M  V30 1421 H 135.548 -3.32978 2.52022 0
M  V30 1422 N 135.985 -1.50799 -0.457987 0
M  V30 1423 C 136.917 -1.66786 -1.57211 0
M  V30 1424 C 137.93 -0.548962 -1.53265 0
M  V30 1425 O 139.119 -0.8226 -1.58416 0
M  V30 1426 C 136.219 -1.64834 -2.96113 0
M  V30 1427 C 135.392 -2.92971 -3.24787 0
M  V30 1428 C 134.451 -2.83485 -4.43309 0
M  V30 1429 O 133.477 -3.5744 -4.42973 0
M  V30 1430 N 134.679 -1.97929 -5.45714 0
M  V30 1431 H 137.444 -2.62889 -1.43909 0
M  V30 1432 H 135.005 -1.48427 -0.646617 0
M  V30 1433 H 136.997 -1.56084 -3.7339 0
M  V30 1434 H 135.567 -0.764118 -3.03117 0
M  V30 1435 H 134.787 -3.15749 -2.36 0
M  V30 1436 H 136.075 -3.77834 -3.40762 0
M  V30 1437 H 135.473 -1.37182 -5.48815 0
M  V30 1438 H 134.03 -1.95073 -6.21924 0
M  V30 1439 N 137.463 0.71206 -1.40597 0
M  V30 1440 C 138.393 1.83889 -1.43899 0
M  V30 1441 C 139.374 1.67442 -0.299504 0
M  V30 1442 O 140.559 1.87421 -0.508624 0
M  V30 1443 C 137.689 3.21877 -1.30431 0
M  V30 1444 C 136.643 3.53002 -2.42019 0
M  V30 1445 C 135.969 4.90172 -2.13626 0
M  V30 1446 C 137.269 3.53643 -3.84362 0
M  V30 1447 H 138.963 1.81383 -2.38203 0
M  V30 1448 H 136.509 0.871237 -1.14654 0
M  V30 1449 H 138.462 4.00404 -1.31357 0
M  V30 1450 H 137.186 3.24968 -0.326049 0
M  V30 1451 H 135.845 2.76818 -2.40349 0
M  V30 1452 H 135.493 4.89869 -1.14182 0
M  V30 1453 H 135.193 5.11962 -2.88389 0
M  V30 1454 H 136.717 5.71028 -2.1624 0
M  V30 1455 H 138.131 4.22203 -3.87837 0
M  V30 1456 H 136.528 3.86961 -4.58673 0
M  V30 1457 H 137.598 2.52954 -4.13693 0
M  V30 1458 N 138.941 1.26152 0.944643 0
M  V30 1459 C 139.871 1.09902 2.06019 0
M  V30 1460 C 140.852 0.00519538 1.70099 0
M  V30 1461 O 142.037 0.176583 1.93396 0
M  V30 1462 C 139.167 0.727562 3.39594 0
M  V30 1463 C 138.121 1.77274 3.89561 0
M  V30 1464 C 137.447 1.25569 5.19747 0
M  V30 1465 C 138.747 3.17357 4.14827 0
M  V30 1466 H 140.441 2.03217 2.19871 0
M  V30 1467 H 137.987 0.978452 1.05652 0
M  V30 1468 H 139.94 0.600777 4.17095 0
M  V30 1469 H 138.664 -0.241287 3.25707 0
M  V30 1470 H 137.323 1.88814 3.14237 0
M  V30 1471 H 136.971 0.276783 5.02238 0
M  V30 1472 H 136.671 1.95433 5.54148 0
M  V30 1473 H 138.195 1.1415 5.99835 0
M  V30 1474 H 139.609 3.08914 4.82954 0
M  V30 1475 H 138.006 3.84781 4.60504 0
M  V30 1476 H 139.076 3.63673 3.20734 0
M  V30 1477 N 140.419 -1.14872 1.07899 0
M  V30 1478 C 141.667 -1.85422 0.803941 0
M  V30 1479 C 141.988 -1.83051 -0.67211 0
M  V30 1480 O 141.258 -1.27532 -1.48703 0
M  V30 1481 H 139.838 -0.686537 0.294408 0
M  V30 1482 H 142.5 -1.39226 1.3639 0
M  V30 1483 H 141.596 -2.90399 1.14346 0
M  V30 1484 N 141.898 -0.863906 -1.31812 0
M  V30 1485 C 142.861 -0.320212 -2.26952 0
M  V30 1486 C 143.861 0.525369 -1.51975 0
M  V30 1487 O 145.051 0.335547 -1.70938 0
M  V30 1488 C 142.183 0.545919 -3.365 0
M  V30 1489 H 143.376 -1.16004 -2.76556 0
M  V30 1490 H 140.929 -0.638995 -1.42641 0
M  V30 1491 H 141.664 1.40718 -2.92179 0
M  V30 1492 H 141.449 -0.0594674 -3.92055 0
M  V30 1493 H 142.939 0.918796 -4.07367 0
M  V30 1494 N 143.376 1.44774 -0.622745 0
M  V30 1495 C 144.622 2.0242 -0.124083 0
M  V30 1496 C 144.955 1.4881 1.24777 0
M  V30 1497 O 144.23 0.668799 1.8264 0
M  V30 1498 C 144.513 3.59957 -0.101619 0
M  V30 1499 C 144.366 4.23867 -1.50521 0
M  V30 1500 C 145.685 4.36284 0.578272 0
M  V30 1501 H 142.804 0.735528 -0.0465645 0
M  V30 1502 H 145.446 1.72447 -0.797617 0
M  V30 1503 H 143.596 3.85623 0.471934 0
M  V30 1504 H 145.268 4.09336 -2.12701 0
M  V30 1505 H 143.511 3.81684 -2.06154 0
M  V30 1506 H 144.182 5.32843 -1.4416 0
M  V30 1507 H 146.658 4.16001 0.0906057 0
M  V30 1508 H 145.534 5.46004 0.563149 0
M  V30 1509 H 145.795 4.10271 1.64713 0
M  V30 1510 N 144.854 0.36279 1.53368 0
M  V30 1511 C 145.817 -0.472679 2.24273 0
M  V30 1512 C 146.817 -1.012 1.24961 0
M  V30 1513 O 148.007 -0.898194 1.49259 0
M  V30 1514 C 145.139 -1.66039 2.97731 0
M  V30 1515 H 146.332 0.14773 2.99536 0
M  V30 1516 H 143.885 0.114434 1.55881 0
M  V30 1517 H 144.62 -2.31896 2.26704 0
M  V30 1518 H 144.405 -1.28066 3.70596 0
M  V30 1519 H 145.895 -2.25252 3.51641 0
M  V30 1520 N 146.332 -1.57332 0.0918853 0
M  V30 1521 C 147.58 -1.93853 -0.571446 0
M  V30 1522 C 147.901 -0.974212 -1.6892 0
M  V30 1523 O 147.171 -0.0257254 -1.95883 0
M  V30 1524 H 145.751 -0.715666 -0.214082 0
M  V30 1525 H 148.413 -1.94287 0.154464 0
M  V30 1526 H 147.509 -2.96191 -0.983729 0
M  V30 1527 N 147.81 0.181792 -1.56548 0
M  V30 1528 C 148.773 1.20894 -1.94724 0
M  V30 1529 C 149.773 1.37738 -0.829747 0
M  V30 1530 O 150.963 1.35323 -1.09697 0
M  V30 1531 C 148.095 2.57593 -2.23291 0
M  V30 1532 H 149.288 0.882275 -2.86629 0
M  V30 1533 H 146.841 0.423838 -1.50444 0
M  V30 1534 H 147.576 2.95291 -1.34067 0
M  V30 1535 H 147.361 2.46735 -3.04736 0
M  V30 1536 H 148.851 3.31637 -2.53785 0
M  V30 1537 N 149.288 1.51039 0.449983 0
M  V30 1538 C 150.251 1.70863 1.5277 0
M  V30 1539 C 151.251 0.578846 1.5002 0
M  V30 1540 O 152.441 0.846213 1.52266 0
M  V30 1541 C 149.573 1.75341 2.9235 0
M  V30 1542 H 150.766 2.67034 1.36502 0
M  V30 1543 H 148.319 1.40838 0.677812 0
M  V30 1544 H 149.054 0.809383 3.14037 0
M  V30 1545 H 148.839 2.57436 2.95752 0
M  V30 1546 H 150.329 1.92559 3.70555 0
M  V30 1547 N 150.766 -0.704594 1.40972 0
M  V30 1548 C 152.012 -1.46675 1.40051 0
M  V30 1549 C 152.345 -1.94199 0.00641102 0
M  V30 1550 O 151.62 -1.68916 -0.964235 0
M  V30 1551 C 151.903 -2.68505 2.39952 0
M  V30 1552 C 151.756 -2.26805 3.88432 0
M  V30 1553 C 153.075 -3.70686 2.37233 0
M  V30 1554 H 150.194 -0.532015 0.510028 0
M  V30 1555 H 152.836 -0.803255 1.72185 0
M  V30 1556 H 150.986 -3.25114 2.1268 0
M  V30 1557 H 152.658 -1.75592 4.26574 0
M  V30 1558 H 150.901 -1.58685 4.03734 0
M  V30 1559 H 151.572 -3.14181 4.53866 0
M  V30 1560 H 154.048 -3.23731 2.61415 0
M  V30 1561 H 152.924 -4.53553 3.09162 0
M  V30 1562 H 153.185 -4.19754 1.38777 0
M  V30 1563 N 152.244 -1.26651 -0.937939 0
M  V30 1564 C 153.174 -1.10993 -2.05433 0
M  V30 1565 C 154.155 -0.0142161 -1.70094 0
M  V30 1566 O 155.34 -0.186837 -1.93299 0
M  V30 1567 C 152.47 -0.745561 -3.39203 0
M  V30 1568 C 151.424 -1.79337 -3.88616 0
M  V30 1569 C 150.75 -1.28324 -5.19073 0
M  V30 1570 C 152.05 -3.19553 -4.13138 0
M  V30 1571 H 153.744 -2.0438 -2.1879 0
M  V30 1572 H 151.29 -0.984041 -1.05131 0
M  V30 1573 H 153.243 -0.622888 -4.16771 0
M  V30 1574 H 151.967 0.22401 -3.25831 0
M  V30 1575 H 150.626 -1.90477 -3.13231 0
M  V30 1576 H 150.274 -0.303414 -5.02084 0
M  V30 1577 H 149.974 -1.98369 -5.53103 0
M  V30 1578 H 151.498 -1.1733 -5.99221 0
M  V30 1579 H 152.912 -3.11471 -4.81309 0
M  V30 1580 H 151.309 -3.87218 -4.58457 0
M  V30 1581 H 152.379 -3.65368 -3.18801 0
M  V30 1582 N 153.722 1.14298 -1.08507 0
M  V30 1583 C 154.952 1.88945 -0.835663 0
M  V30 1584 C 155.36 1.78894 0.615928 0
M  V30 1585 O 154.703 1.1468 1.43506 0
M  V30 1586 C 154.765 3.39585 -1.17994 0
M  V30 1587 C 154.429 3.7342 -2.63451 0
M  V30 1588 C 155.426 3.73454 -3.61702 0
M  V30 1589 C 153.111 4.03368 -2.99332 0
M  V30 1590 C 155.105 4.02961 -4.93864 0
M  V30 1591 C 152.792 4.32538 -4.31687 0
M  V30 1592 C 153.79 4.32318 -5.28763 0
M  V30 1593 O 153.478 4.6078 -6.58739 0
M  V30 1594 H 153.21 0.605307 -0.300965 0
M  V30 1595 H 155.764 1.45673 -1.44806 0
M  V30 1596 H 153.994 3.83315 -0.51055 0
M  V30 1597 H 155.683 3.9554 -0.911182 0
M  V30 1598 H 156.449 3.50403 -3.35325 0
M  V30 1599 H 152.328 4.02692 -2.24411 0
M  V30 1600 H 155.872 4.02704 -5.69627 0
M  V30 1601 H 151.769 4.55059 -4.57812 0
M  V30 1602 H 152.537 4.78492 -6.64069 0
M  V30 1603 N 155.201 0.870884 1.31352 0
M  V30 1604 C 156.426 0.495957 2.01383 0
M  V30 1605 C 156.851 -0.904324 1.64935 0
M  V30 1606 O 156.209 -1.59687 0.858466 0
M  V30 1607 C 156.257 0.661433 3.54482 0
M  V30 1608 O 155.361 -0.298851 4.11316 0
M  V30 1609 H 154.702 0.197158 0.634054 0
M  V30 1610 H 157.232 1.17455 1.67527 0
M  V30 1611 H 157.242 0.555072 4.04207 0
M  V30 1612 H 155.917 1.68246 3.8035 0
M  V30 1613 H 154.494 -0.147368 3.72609 0
M  V30 1614 N 156.679 -1.44442 0.630414 0
M  V30 1615 C 157.925 -2.02351 0.134816 0
M  V30 1616 C 158.258 -1.4947 -1.23986 0
M  V30 1617 O 157.533 -0.678475 -1.82283 0
M  V30 1618 C 157.816 -3.59898 0.120707 0
M  V30 1619 C 157.669 -4.23063 1.52767 0
M  V30 1620 C 158.988 -4.36585 -0.555127 0
M  V30 1621 H 156.107 -0.73527 0.0504646 0
M  V30 1622 H 158.749 -1.72022 0.806751 0
M  V30 1623 H 156.899 -3.85868 -0.451477 0
M  V30 1624 H 158.571 -4.08202 2.14869 0
M  V30 1625 H 156.814 -3.80586 2.08175 0
M  V30 1626 H 157.485 -5.32071 1.46984 0
M  V30 1627 H 159.961 -4.16044 -0.0685429 0
M  V30 1628 H 158.837 -5.46294 -0.534185 0
M  V30 1629 H 159.098 -4.11138 -1.62535 0
M  V30 1630 N 158.157 -0.370918 -1.53173 0
M  V30 1631 C 159.385 0.217704 -2.05751 0
M  V30 1632 C 159.8 1.42018 -1.24404 0
M  V30 1633 O 159.157 1.80245 -0.286033 0
M  V30 1634 C 159.208 0.605954 -3.56385 0
M  V30 1635 O 158.929 -0.548734 -4.3465 0
M  V30 1636 C 160.43 1.2524 -4.25241 0
M  V30 1637 H 157.65 0.0371659 -0.66997 0
M  V30 1638 H 160.194 -0.530832 -1.9749 0
M  V30 1639 H 158.349 1.3044 -3.6478 0
M  V30 1640 H 158.763 -0.23376 -5.23979 0
M  V30 1641 H 160.237 1.47458 -5.3194 0
M  V30 1642 H 160.714 2.2143 -3.79296 0
M  V30 1643 H 161.32 0.595233 -4.21114 0
M  V30 1644 N 159.635 1.57281 -0.100228 0
M  V30 1645 C 161.046 1.81725 0.428107 0
M  V30 1646 C 161.397 1.01619 1.67833 0
M  V30 1647 O 160.522 0.247098 2.14985 0
M  V30 1648 C 161.117 3.29617 0.78347 0
M  V30 1649 C 159.676 3.54808 1.25653 0
M  V30 1650 C 158.823 2.76118 0.255752 0
M  V30 1651 H 161.774 1.55324 -0.325608 0
M  V30 1652 H 161.795 3.4322 1.64256 0
M  V30 1653 H 161.307 3.87893 -0.12665 0
M  V30 1654 H 159.408 3.01868 2.18418 0
M  V30 1655 H 159.521 4.63443 1.21482 0
M  V30 1656 H 157.885 2.43745 0.738956 0
M  V30 1657 H 158.668 3.37145 -0.647136 0
M  V30 1658 N 161.113 -0.173488 1.56642 0
M  V30 1659 C 162.524 -0.736155 1.71574 0
M  V30 1660 C 162.875 -1.82888 0.710389 0
M  V30 1661 O 162 -2.16017 -0.1287 0
M  V30 1662 C 162.595 -1.34211 3.11083 0
M  V30 1663 C 161.154 -1.85162 3.27707 0
M  V30 1664 C 160.301 -0.729765 2.67525 0
M  V30 1665 H 163.252 0.0518786 1.58615 0
M  V30 1666 H 163.273 -2.21178 3.09613 0
M  V30 1667 H 162.785 -0.546579 3.84232 0
M  V30 1668 H 160.886 -2.67366 2.59512 0
M  V30 1669 H 160.999 -1.99855 4.35425 0
M  V30 1670 H 159.363 -1.14965 2.27278 0
M  V30 1671 H 160.146 0.0538806 3.43258 0
M  V30 1672 N 162.591 -1.51276 -0.441967 0
M  V30 1673 C 163.554 -1.7167 -1.51862 0
M  V30 1674 C 164.554 -0.586793 -1.49711 0
M  V30 1675 O 165.744 -0.854276 -1.51815 0
M  V30 1676 C 162.876 -1.76889 -2.91416 0
M  V30 1677 H 164.069 -2.67754 -1.35084 0
M  V30 1678 H 161.622 -1.41196 -0.670333 0
M  V30 1679 H 162.357 -0.826026 -3.13604 0
M  V30 1680 H 162.142 -2.59001 -2.94382 0
M  V30 1681 H 163.632 -1.94522 -3.69528 0
M  V30 1682 N 164.069 0.697108 -1.41344 0
M  V30 1683 C 165.315 1.4593 -1.40827 0
M  V30 1684 C 165.648 1.94193 -0.0167098 0
M  V30 1685 O 164.923 1.69425 0.955263 0
M  V30 1686 C 165.206 2.67229 -2.41373 0
M  V30 1687 C 165.059 2.24741 -3.8963 0
M  V30 1688 C 166.378 3.69423 -2.39196 0
M  V30 1689 H 163.497 0.529303 -0.512842 0
M  V30 1690 H 166.139 0.794112 -1.72609 0
M  V30 1691 H 164.289 3.23982 -2.14401 0
M  V30 1692 H 165.961 1.73327 -4.27499 0
M  V30 1693 H 164.204 1.56542 -4.0457 0
M  V30 1694 H 164.875 3.1177 -4.55525 0
M  V30 1695 H 167.351 3.2234 -2.63128 0
M  V30 1696 H 166.227 4.51907 -3.11563 0
M  V30 1697 H 166.488 4.19012 -1.41001 0
M  V30 1698 N 165.547 1.27147 0.931209 0
M  V30 1699 C 166.963 1.04475 1.20653 0
M  V30 1700 C 167.163 -0.223885 2.00252 0
M  V30 1701 O 166.219 -0.930332 2.34736 0
M  V30 1702 C 167.532 2.28209 1.95809 0
M  V30 1703 C 169.08 2.33211 2.08762 0
M  V30 1704 C 169.555 3.56665 2.87323 0
M  V30 1705 N 171.046 3.57201 2.94892 0
M  V30 1706 C 171.781 4.49395 3.56134 0
M  V30 1707 N 171.277 5.51889 4.18796 0
M  V30 1708 N 173.07 4.37026 3.53504 0
M  V30 1709 H 165.221 2.08612 0.399333 0
M  V30 1710 H 167.484 0.917312 0.239253 0
M  V30 1711 H 167.19 3.20538 1.44736 0
M  V30 1712 H 167.064 2.33247 2.96438 0
M  V30 1713 H 169.451 1.41391 2.59023 0
M  V30 1714 H 169.532 2.32178 1.07364 0
M  V30 1715 H 169.176 4.4882 2.37746 0
M  V30 1716 H 169.106 3.54948 3.88998 0
M  V30 1717 H 171.597 2.83074 2.50354 0
M  V30 1718 H 171.91 6.18409 4.63454 0
M  V30 1719 H 170.255 5.55735 4.17353 0
M  V30 1720 H 173.446 3.56166 3.03749 0
M  V30 1721 H 173.619 5.09067 4.00942 0
M  V30 1722 N 167.025 -1.13721 1.09112 0
M  V30 1723 C 168.273 -1.84559 0.823562 0
M  V30 1724 C 168.594 -1.83754 -0.652658 0
M  V30 1725 O 167.864 -1.29102 -1.47342 0
M  V30 1726 H 166.444 -0.683376 0.301673 0
M  V30 1727 H 169.106 -1.37771 1.37859 0
M  V30 1728 H 168.202 -2.8917 1.17419 0
M  V30 1729 N 168.503 -0.877838 -1.30888 0
M  V30 1730 C 169.451 -0.328662 -2.30266 0
M  V30 1731 C 170.445 0.560496 -1.59859 0
M  V30 1732 O 171.651 0.445722 -1.74394 0
M  V30 1733 H 168.026 -0.0876142 -0.746879 0
M  V30 1734 H 169.997 -1.18061 -2.74051 0
M  V30 1735 C 168.746 0.448071 -3.44801 0
M  V30 1736 H 168.069 -0.226859 -3.99156 0
M  V30 1737 H 169.509 0.797541 -4.16432 0
M  V30 1738 C 167.968 1.64239 -2.94155 0
M  V30 1739 O 168.498 2.74175 -2.93583 0
M  V30 1740 N 166.704 1.47716 -2.50256 0
M  V30 1741 H 166.251 0.582821 -2.5092 0
M  V30 1742 H 166.209 2.27765 -2.16727 0
M  V30 1743 N 169.982 1.44106 -0.638065 0
M  V30 1744 C 170.912 2.33448 0.0494287 0
M  V30 1745 C 171.893 1.48606 0.827672 0
M  V30 1746 O 173.078 1.77308 0.792173 0
M  V30 1747 C 170.208 3.31771 1.02691 0
M  V30 1748 C 169.162 4.26485 0.359823 0
M  V30 1749 C 168.488 5.14729 1.44769 0
M  V30 1750 C 169.788 5.17056 -0.738296 0
M  V30 1751 H 171.482 2.91183 -0.696636 0
M  V30 1752 H 169.028 1.40014 -0.336456 0
M  V30 1753 H 170.981 3.93161 1.51666 0
M  V30 1754 H 169.705 2.7226 1.80395 0
M  V30 1755 H 168.364 3.66437 -0.10934 0
M  V30 1756 H 168.012 4.51566 2.21578 0
M  V30 1757 H 167.712 5.78913 1.00668 0
M  V30 1758 H 169.236 5.78991 1.93911 0
M  V30 1759 H 170.65 5.72342 -0.331354 0
M  V30 1760 H 169.047 5.89879 -1.10286 0
M  V30 1761 H 170.117 4.57652 -1.60258 0
M  V30 1762 N 171.46 0.379036 1.52974 0
M  V30 1763 C 172.423 -0.448865 2.24762 0
M  V30 1764 C 173.423 -0.998689 1.26027 0
M  V30 1765 O 174.613 -0.882313 1.50203 0
M  V30 1766 C 171.745 -1.62872 2.99476 0
M  V30 1767 H 172.938 0.179491 2.99362 0
M  V30 1768 H 170.491 0.13096 1.5575 0
M  V30 1769 H 171.226 -2.29479 2.29151 0
M  V30 1770 H 171.011 -1.24128 3.71934 0
M  V30 1771 H 172.501 -2.2151 3.5401 0
M  V30 1772 N 172.938 -1.57226 0.108567 0
M  V30 1773 C 173.868 -2.17778 -0.84232 0
M  V30 1774 C 174.849 -1.11487 -1.2847 0
M  V30 1775 O 176.034 -1.39681 -1.34918 0
M  V30 1776 C 173.164 -2.76888 -2.09644 0
M  V30 1777 C 172.118 -3.88669 -1.79221 0
M  V30 1778 C 171.444 -4.34541 -3.11574 0
M  V30 1779 C 172.744 -5.11251 -1.06864 0
M  V30 1780 H 174.438 -2.97489 -0.337774 0
M  V30 1781 H 171.984 -1.43097 -0.161025 0
M  V30 1782 H 173.937 -3.17904 -2.76614 0
M  V30 1783 H 172.661 -1.94451 -2.62405 0
M  V30 1784 H 171.32 -3.48213 -1.14644 0
M  V30 1785 H 170.968 -3.48977 -3.62249 0
M  V30 1786 H 170.668 -5.09914 -2.91996 0
M  V30 1787 H 172.192 -4.782 -3.7968 0
M  V30 1788 H 173.606 -5.49352 -1.63968 0
M  V30 1789 H 172.003 -5.9214 -0.974178 0
M  V30 1790 H 173.073 -4.8487 -0.0536168 0
M  V30 1791 N 174.416 0.165178 -1.56732 0
M  V30 1792 C 175.364 1.22369 -1.97809 0
M  V30 1793 C 176.358 1.45488 -0.867741 0
M  V30 1794 O 177.564 1.45995 -1.05288 0
M  V30 1795 H 173.939 0.411486 -0.629431 0
M  V30 1796 H 175.91 0.850425 -2.86025 0
M  V30 1797 C 174.659 2.55403 -2.35934 0
M  V30 1798 H 173.982 2.38438 -3.20916 0
M  V30 1799 H 175.422 3.2814 -2.68514 0
M  V30 1800 C 173.881 3.14611 -1.20506 0
M  V30 1801 O 174.411 3.98626 -0.496016 0
M  V30 1802 N 172.617 2.7379 -0.97403 0
M  V30 1803 H 172.164 2.0557 -1.55238 0
M  V30 1804 H 172.122 3.1374 -0.203573 0
M  V30 1805 N 175.894 1.51508 0.433938 0
M  V30 1806 C 177.122 1.68157 1.20543 0
M  V30 1807 C 177.537 0.380362 1.84929 0
M  V30 1808 O 176.894 -0.641446 1.70856 0
M  V30 1809 C 176.945 2.79965 2.28696 0
M  V30 1810 O 176.666 4.05045 1.66943 0
M  V30 1811 C 178.167 3.07912 3.18912 0
M  V30 1812 H 175.387 0.56421 0.363191 0
M  V30 1813 H 177.931 1.97941 0.513754 0
M  V30 1814 H 176.086 2.5277 2.93574 0
M  V30 1815 H 176.5 4.67165 2.38448 0
M  V30 1816 H 177.974 3.89719 3.90926 0
M  V30 1817 H 178.451 2.20456 3.79863 0
M  V30 1818 H 179.057 3.36779 2.59731 0
M  V30 1819 N 177.372 -0.689602 1.41712 0
M  V30 1820 C 178.302 -1.81577 1.46806 0
M  V30 1821 C 179.283 -1.66945 0.326105 0
M  V30 1822 O 180.468 -1.86588 0.538377 0
M  V30 1823 C 177.598 -3.19762 1.35535 0
M  V30 1824 C 176.552 -3.49107 2.47605 0
M  V30 1825 C 175.878 -4.86711 2.21397 0
M  V30 1826 C 177.178 -3.47483 3.89939 0
M  V30 1827 H 178.872 -1.7757 2.41058 0
M  V30 1828 H 176.418 -0.852887 1.16025 0
M  V30 1829 H 178.371 -3.98263 1.3771 0
M  V30 1830 H 177.095 -3.24409 0.377708 0
M  V30 1831 H 175.754 -2.72959 2.44722 0
M  V30 1832 H 175.402 -4.8799 1.21961 0
M  V30 1833 H 175.102 -5.0731 2.96497 0
M  V30 1834 H 176.626 -5.67515 2.25297 0
M  V30 1835 H 178.04 -4.1598 3.94505 0
M  V30 1836 H 176.437 -3.79615 4.64771 0
M  V30 1837 H 177.507 -2.46341 4.17665 0
M  V30 1838 N 178.85 -1.27639 -0.924453 0
M  V30 1839 C 179.8 -1.07295 -2.01176 0
M  V30 1840 C 180.784 5.77352e-05 -1.609 0
M  V30 1841 O 181.976 -0.218855 -1.75642 0
M  V30 1842 C 179.105 -0.725592 -3.35544 0
M  V30 1843 C 178.191 -1.83691 -3.82254 0
M  V30 1844 N 178.582 -3.07697 -4.01443 0
M  V30 1845 C 176.88 -1.72433 -4.11319 0
M  V30 1846 C 177.581 -3.80037 -4.40394 0
M  V30 1847 N 176.557 -3.0782 -4.48049 0
M  V30 1848 H 180.359 -2.01399 -2.14046 0
M  V30 1849 H 177.873 -1.18401 -1.11153 0
M  V30 1850 H 179.87 -0.560959 -4.13109 0
M  V30 1851 H 178.53 0.207782 -3.24034 0
M  V30 1852 H 179.541 -3.43424 -3.8766 0
M  V30 1853 H 176.218 -0.862005 -4.08504 0
M  V30 1854 H 177.608 -4.86632 -4.63291 0
M  V30 1855 N 180.328 1.1314 -1.09713 0
M  V30 1856 C 181.739 1.66029 -0.853885 0
M  V30 1857 C 182.09 1.86241 0.617142 0
M  V30 1858 O 181.215 1.5834 1.47503 0
M  V30 1859 C 181.81 3.01599 -1.5435 0
M  V30 1860 C 180.369 3.51467 -1.34714 0
M  V30 1861 C 179.516 2.26648 -1.59769 0
M  V30 1862 H 182.467 0.970226 -1.25588 0
M  V30 1863 H 182.488 3.67709 -0.978267 0
M  V30 1864 H 182 2.86856 -2.6141 0
M  V30 1865 H 180.101 3.71408 -0.297838 0
M  V30 1866 H 180.214 4.314 -2.08401 0
M  V30 1867 H 178.578 2.33385 -1.01998 0
M  V30 1868 H 179.361 2.14467 -2.68065 0
M  V30 1869 N 181.806 0.884767 1.30421 0
M  V30 1870 C 182.769 0.356277 2.26414 0
M  V30 1871 C 183.769 -0.501124 1.52792 0
M  V30 1872 O 184.959 -0.30831 1.7145 0
M  V30 1873 C 182.091 -0.492316 3.37326 0
M  V30 1874 H 183.284 1.20389 2.74675 0
M  V30 1875 H 180.837 0.661607 1.41607 0
M  V30 1876 H 181.572 -1.36052 2.94381 0
M  V30 1877 H 181.357 0.121832 3.91911 0
M  V30 1878 H 182.847 -0.853871 4.08777 0
M  V30 1879 N 183.284 -1.43765 0.645699 0
M  V30 1880 C 184.53 -2.02197 0.156271 0
M  V30 1881 C 184.863 -1.50776 -1.22393 0
M  V30 1882 O 184.138 -0.697771 -1.81553 0
M  V30 1883 C 184.421 -3.59749 0.158872 0
M  V30 1884 C 184.274 -4.21419 1.57245 0
M  V30 1885 C 185.593 -4.37149 -0.50879 0
M  V30 1886 H 182.712 -0.734694 0.0582602 0
M  V30 1887 H 185.354 -1.71157 0.824951 0
M  V30 1888 H 183.504 -3.86325 -0.410525 0
M  V30 1889 H 185.176 -4.059 2.19186 0
M  V30 1890 H 183.419 -3.78356 2.122 0
M  V30 1891 H 184.09 -5.30482 1.52619 0
M  V30 1892 H 186.566 -4.16093 -0.024412 0
M  V30 1893 H 185.442 -5.4683 -0.476213 0
M  V30 1894 H 185.703 -4.12839 -1.58165 0
M  V30 1895 N 184.763 -0.387143 -1.52771 0
M  V30 1896 C 185.988 0.198407 -2.06449 0
M  V30 1897 C 186.413 1.39918 -1.25716 0
M  V30 1898 O 185.771 1.79099 -0.281657 0
M  V30 1899 C 185.819 0.548893 -3.56398 0
M  V30 1900 O 184.923 1.64315 -3.78252 0
M  V30 1901 H 184.264 0.0237731 -0.663574 0
M  V30 1902 H 186.794 -0.553989 -1.96957 0
M  V30 1903 H 186.804 0.813812 -3.99801 0
M  V30 1904 H 185.479 -0.329005 -4.14597 0
M  V30 1905 H 184.056 1.37211 -3.46738 0
M  V30 1906 N 186.241 1.57166 -0.116904 0
M  V30 1907 C 187.487 1.95412 0.542405 0
M  V30 1908 C 187.82 1.00019 1.66463 0
M  V30 1909 O 187.095 0.0370346 1.94465 0
M  V30 1910 C 187.378 3.43615 1.07708 0
M  V30 1911 C 187.231 4.49781 -0.0415868 0
M  V30 1912 C 188.55 3.93616 1.96861 0
M  V30 1913 H 185.669 0.710543 0.195696 0
M  V30 1914 H 188.311 1.89027 -0.192038 0
M  V30 1915 H 186.461 3.49187 1.70296 0
M  V30 1916 H 188.133 4.56308 -0.676793 0
M  V30 1917 H 186.376 4.28033 -0.705019 0
M  V30 1918 H 187.047 5.50733 0.373717 0
M  V30 1919 H 189.523 3.90335 1.44146 0
M  V30 1920 H 188.399 4.97838 2.3119 0
M  V30 1921 H 188.66 3.34188 2.89432 0
M  V30 1922 N 187.719 -0.156864 1.56817 0
M  V30 1923 C 188.967 -0.869404 1.82444 0
M  V30 1924 C 189.288 -1.82147 0.69623 0
M  V30 1925 O 188.558 -1.93847 -0.28287 0
M  V30 1926 H 187.138 -0.324043 0.673056 0
M  V30 1927 H 189.8 -0.153224 1.94297 0
M  V30 1928 H 188.896 -1.43761 2.77019 0
M  V30 1929 N 189.197 -1.51736 -0.425897 0
M  V30 1930 C 190.129 -1.70083 -1.53638 0
M  V30 1931 C 191.142 -0.581349 -1.52066 0
M  V30 1932 O 192.331 -0.856017 -1.56635 0
M  V30 1933 C 189.431 -1.71078 -2.9255 0
M  V30 1934 C 188.604 -2.99795 -3.185 0
M  V30 1935 C 187.663 -2.92825 -4.37196 0
M  V30 1936 O 186.689 -3.66756 -4.35291 0
M  V30 1937 N 187.891 -2.0946 -5.41393 0
M  V30 1938 H 190.656 -2.65882 -1.383 0
M  V30 1939 H 188.217 -1.49765 -0.614988 0
M  V30 1940 H 190.209 -1.63969 -3.69995 0
M  V30 1941 H 188.779 -0.828242 -3.01428 0
M  V30 1942 H 187.999 -3.20684 -2.2925 0
M  V30 1943 H 189.287 -3.84977 -3.32671 0
M  V30 1944 H 188.685 -1.48792 -5.45781 0
M  V30 1945 H 187.242 -2.08221 -6.17647 0
M  V30 1946 N 190.675 0.682077 -1.42076 0
M  V30 1947 C 191.638 1.77756 -1.44691 0
M  V30 1948 C 192.638 1.5726 -0.335535 0
M  V30 1949 O 193.828 1.63686 -0.596037 0
M  V30 1950 C 190.96 3.16301 -1.27146 0
M  V30 1951 H 192.153 1.76826 -2.42224 0
M  V30 1952 H 189.706 0.891012 -1.28416 0
M  V30 1953 H 190.441 3.22862 -0.305075 0
M  V30 1954 H 190.226 3.32581 -2.07683 0
M  V30 1955 H 191.716 3.96241 -1.31843 0
M  V30 1956 N 192.153 1.28127 0.917671 0
M  V30 1957 C 193.381 1.17892 1.70026 0
M  V30 1958 C 193.796 -0.262958 1.8696 0
M  V30 1959 O 193.153 -1.17811 1.3938 0
M  V30 1960 C 193.204 1.86872 3.09453 0
M  V30 1961 O 192.925 3.25428 2.93306 0
M  V30 1962 C 194.426 1.8289 4.03815 0
M  V30 1963 H 191.646 0.40942 0.531617 0
M  V30 1964 H 194.19 1.69181 1.14883 0
M  V30 1965 H 192.345 1.39464 3.61426 0
M  V30 1966 H 192.759 3.59918 3.81523 0
M  V30 1967 H 194.233 2.35751 4.99125 0
M  V30 1968 H 194.71 0.800412 4.31845 0
M  V30 1969 H 195.316 2.29959 3.57769 0
M  V30 1970 N 193.631 -1.12557 1.10312 0
M  V30 1971 C 194.859 -1.87864 0.866873 0
M  V30 1972 C 195.274 -1.79588 -0.582557 0
M  V30 1973 O 194.631 -1.16887 -1.40156 0
M  V30 1974 C 194.682 -3.37125 1.30496 0
M  V30 1975 O 194.403 -3.45201 2.69755 0
M  V30 1976 C 195.904 -4.29373 1.10243 0
M  V30 1977 H 193.124 -0.594452 0.311236 0
M  V30 1978 H 195.668 -1.42429 1.46745 0
M  V30 1979 H 193.823 -3.80109 0.748081 0
M  V30 1980 H 194.237 -4.38056 2.88457 0
M  V30 1981 H 195.711 -5.32394 1.45811 0
M  V30 1982 H 196.188 -4.39181 0.0409492 0
M  V30 1983 H 196.794 -3.92169 1.64571 0
M  V30 1984 N 195.109 -0.891671 -1.2995 0
M  V30 1985 C 196.355 -0.514261 -1.96171 0
M  V30 1986 C 196.688 0.935506 -1.70182 0
M  V30 1987 O 195.963 1.66204 -1.01028 0
M  V30 1988 C 196.246 -0.797719 -3.51153 0
M  V30 1989 C 196.099 -2.2986 -3.86632 0
M  V30 1990 C 197.418 -0.278749 -4.39216 0
M  V30 1991 H 194.537 -0.188314 -0.712535 0
M  V30 1992 H 197.179 -1.11689 -1.53706 0
M  V30 1993 H 195.329 -0.284826 -3.87455 0
M  V30 1994 H 197.001 -2.88042 -3.60319 0
M  V30 1995 H 195.244 -2.76257 -3.34462 0
M  V30 1996 H 195.915 -2.44753 -4.94773 0
M  V30 1997 H 198.391 -0.717825 -4.09862 0
M  V30 1998 H 197.267 -0.506353 -5.46559 0
M  V30 1999 H 197.528 0.820266 -4.34424 0
M  V30 2000 N 196.587 1.43421 -0.653314 0
M  V30 2001 C 197.497 2.34568 0.0388565 0
M  V30 2002 C 198.513 1.53888 0.81207 0
M  V30 2003 O 199.689 1.86539 0.759294 0
M  V30 2004 C 196.754 3.32167 0.993269 0
M  V30 2005 C 195.815 4.28751 0.216977 0
M  V30 2006 C 195.048 5.21688 1.12593 0
M  V30 2007 O 195.271 5.19052 2.36519 0
M  V30 2008 O 194.205 5.98919 0.598284 0
M  V30 2009 H 198.031 2.95251 -0.711386 0
M  V30 2010 H 195.616 1.43564 -0.413502 0
M  V30 2011 H 197.498 3.92183 1.54176 0
M  V30 2012 H 196.173 2.73987 1.72374 0
M  V30 2013 H 195.08 3.72215 -0.375101 0
M  V30 2014 H 196.413 4.89913 -0.473924 0
M  V30 2015 N 198.065 0.39524 1.52563 0
M  V30 2016 C 199.314 -0.186321 2.00838 0
M  V30 2017 C 199.627 -1.47402 1.28577 0
M  V30 2018 O 200.833 -2.13599 1.67593 0
M  V30 2019 C 199.289 -0.382595 3.57861 0
M  V30 2020 C 198.897 0.892202 4.39026 0
M  V30 2021 C 200.641 -0.9202 4.14406 0
M  V30 2022 C 198.548 0.66388 5.87662 0
M  V30 2023 H 197.478 -0.0734041 0.750418 0
M  V30 2024 H 200.129 0.518552 1.76021 0
M  V30 2025 H 198.511 -1.14946 3.7895 0
M  V30 2026 H 199.685 1.66414 4.29701 0
M  V30 2027 H 198 1.35519 3.9373 0
M  V30 2028 H 200.597 -1.10683 5.23119 0
M  V30 2029 H 200.94 -1.89096 3.70875 0
M  V30 2030 H 201.473 -0.212751 3.97231 0
M  V30 2031 H 198.212 1.6058 6.35527 0
M  V30 2032 H 197.732 -0.0690193 5.9976 0
M  V30 2033 H 199.411 0.300699 6.46301 0
M  V30 2034 N 199.544 -1.57102 0.125237 0
M  V30 2035 C 200.791 -1.95407 -0.531248 0
M  V30 2036 C 201.119 -1.0089 -1.66287 0
M  V30 2037 O 200.374 -0.0339431 -1.95671 0
M  V30 2038 C 200.673 -3.40096 -1.09862 0
M  V30 2039 C 200.339 -4.50815 -0.0876989 0
M  V30 2040 C 199.001 -4.80824 0.19026 0
M  V30 2041 C 201.353 -5.17724 0.600902 0
M  V30 2042 C 198.681 -5.75058 1.163 0
M  V30 2043 C 201.033 -6.13005 1.56231 0
M  V30 2044 C 199.697 -6.41403 1.8482 0
M  V30 2045 H 198.967 -0.715046 -0.194397 0
M  V30 2046 H 201.614 -1.90373 0.207463 0
M  V30 2047 H 199.919 -3.41855 -1.91422 0
M  V30 2048 H 201.616 -3.6705 -1.61478 0
M  V30 2049 H 198.206 -4.27444 -0.314528 0
M  V30 2050 H 202.39 -4.94691 0.399333 0
M  V30 2051 H 197.646 -5.95362 1.39117 0
M  V30 2052 H 201.82 -6.63934 2.10153 0
M  V30 2053 H 199.447 -7.14229 2.60349 0
M  V30 2054 N 201.022 0.148545 -1.56898 0
M  V30 2055 C 201.952 1.18524 -2.01182 0
M  V30 2056 C 202.933 1.4489 -0.891123 0
M  V30 2057 O 204.118 1.55836 -1.15882 0
M  V30 2058 C 201.248 2.51879 -2.39112 0
M  V30 2059 C 200.202 2.40038 -3.54353 0
M  V30 2060 C 199.528 3.78089 -3.78091 0
M  V30 2061 C 200.828 1.88577 -4.87069 0
M  V30 2062 H 202.522 0.817029 -2.88036 0
M  V30 2063 H 200.068 0.391575 -1.38574 0
M  V30 2064 H 202.021 3.24627 -2.68692 0
M  V30 2065 H 200.745 2.90532 -1.49193 0
M  V30 2066 H 199.404 1.69742 -3.24936 0
M  V30 2067 H 199.052 4.14175 -2.85426 0
M  V30 2068 H 198.752 3.71028 -4.55645 0
M  V30 2069 H 200.276 4.52387 -4.10095 0
M  V30 2070 H 201.69 2.51117 -5.15377 0
M  V30 2071 H 200.087 1.9241 -5.68417 0
M  V30 2072 H 201.157 0.84136 -4.77545 0
M  V30 2073 N 202.5 1.5196 0.417844 0
M  V30 2074 C 203.728 1.69426 1.18753 0
M  V30 2075 C 204.143 0.399955 1.84515 0
M  V30 2076 O 203.5 -0.623288 1.71527 0
M  V30 2077 C 203.551 2.82375 2.25714 0
M  V30 2078 O 203.272 4.06793 1.62638 0
M  V30 2079 C 204.773 3.11277 3.15628 0
M  V30 2080 H 201.993 0.568031 0.357186 0
M  V30 2081 H 204.537 1.98475 0.49273 0
M  V30 2082 H 202.692 2.5587 2.90877 0
M  V30 2083 H 203.106 4.69667 2.3348 0
M  V30 2084 H 204.58 3.93843 3.86771 0
M  V30 2085 H 205.057 2.24473 3.77503 0
M  V30 2086 H 205.663 3.39515 2.56144 0
M  V30 2087 N 203.978 -0.674533 1.42435 0
M  V30 2088 C 204.908 -1.80009 1.48724 0
M  V30 2089 C 205.889 -1.6659 0.343793 0
M  V30 2090 O 207.074 -1.86007 0.558137 0
M  V30 2091 C 204.204 -3.18306 1.38919 0
M  V30 2092 C 203.158 -3.46461 2.51294 0
M  V30 2093 C 202.484 -4.84335 2.26547 0
M  V30 2094 C 203.784 -3.43328 3.93603 0
M  V30 2095 H 205.478 -1.75004 2.42928 0
M  V30 2096 H 203.024 -0.840533 1.16923 0
M  V30 2097 H 204.977 -3.9678 1.41927 0
M  V30 2098 H 203.701 -3.2399 0.412094 0
M  V30 2099 H 202.36 -2.70348 2.47604 0
M  V30 2100 H 202.008 -4.86669 1.2713 0
M  V30 2101 H 201.708 -5.04136 3.01861 0
M  V30 2102 H 203.232 -5.65094 2.31304 0
M  V30 2103 H 204.646 -4.11772 3.98894 0
M  V30 2104 H 203.043 -3.74664 4.68771 0
M  V30 2105 H 204.113 -2.41897 4.20255 0
M  V30 2106 N 205.456 -1.28612 -0.910864 0
M  V30 2107 C 206.388 -1.08589 -2.01844 0
M  V30 2108 C 207.401 -0.0367419 -1.62759 0
M  V30 2109 O 208.59 -0.280101 -1.76289 0
M  V30 2110 C 205.69 -0.628626 -3.33019 0
M  V30 2111 C 204.863 -1.75382 -4.00699 0
M  V30 2112 C 203.922 -1.28945 -5.10156 0
M  V30 2113 O 202.948 -1.9922 -5.33198 0
M  V30 2114 N 204.15 -0.154224 -5.80295 0
M  V30 2115 H 206.915 -2.03973 -2.19579 0
M  V30 2116 H 204.476 -1.20403 -1.08234 0
M  V30 2117 H 206.468 -0.301508 -4.03575 0
M  V30 2118 H 205.038 0.232451 -3.11735 0
M  V30 2119 H 204.258 -2.25039 -3.23653 0
M  V30 2120 H 205.546 -2.50854 -4.42662 0
M  V30 2121 H 204.944 0.43194 -5.64049 0
M  V30 2122 H 203.501 0.113599 -6.51701 0
M  V30 2123 N 206.934 1.1197 -1.10907 0
M  V30 2124 C 208.181 1.83588 -0.854507 0
M  V30 2125 C 208.509 1.84357 0.6199 0
M  V30 2126 O 207.764 1.28809 1.47332 0
M  V30 2127 C 208.063 3.30749 -1.35425 0
M  V30 2128 C 207.729 3.50146 -2.84093 0
M  V30 2129 C 206.391 3.55148 -3.2469 0
M  V30 2130 C 208.743 3.56857 -3.79872 0
M  V30 2131 C 206.071 3.6441 -4.59806 0
M  V30 2132 C 208.423 3.6765 -5.14797 0
M  V30 2133 C 207.087 3.7091 -5.54961 0
M  V30 2134 H 206.357 0.671795 -0.312686 0
M  V30 2135 H 209.004 1.32091 -1.38652 0
M  V30 2136 H 207.309 3.84703 -0.742361 0
M  V30 2137 H 209.006 3.8464 -1.1337 0
M  V30 2138 H 205.596 3.46919 -2.51685 0
M  V30 2139 H 209.78 3.52258 -3.49611 0
M  V30 2140 H 205.036 3.65208 -4.9034 0
M  V30 2141 H 209.21 3.71786 -5.88853 0
M  V30 2142 H 206.837 3.7784 -6.59652 0
M  V30 2143 N 208.412 0.89855 1.29475 0
M  V30 2144 C 209.658 0.524658 1.95896 0
M  V30 2145 C 209.991 -0.926468 1.70676 0
M  V30 2146 O 209.266 -1.65665 1.01908 0
M  V30 2147 C 209.549 0.81633 3.50725 0
M  V30 2148 C 209.402 2.31907 3.85408 0
M  V30 2149 C 210.721 0.302038 4.39062 0
M  V30 2150 H 207.84 0.19209 0.711527 0
M  V30 2151 H 210.482 1.12502 1.53112 0
M  V30 2152 H 208.632 0.305369 3.87298 0
M  V30 2153 H 210.304 2.89949 3.58786 0
M  V30 2154 H 208.547 2.78027 3.32992 0
M  V30 2155 H 209.218 2.47373 4.93468 0
M  V30 2156 H 211.694 0.739551 4.09475 0
M  V30 2157 H 210.57 0.535331 5.46283 0
M  V30 2158 H 210.831 -0.797216 4.34853 0
M  V30 2159 N 209.89 -1.43072 0.660911 0
M  V30 2160 C 210.82 -2.33497 -0.0122829 0
M  V30 2161 C 211.801 -1.49903 -0.803925 0
M  V30 2162 O 212.986 -1.78546 -0.763864 0
M  V30 2163 C 210.116 -3.33363 -0.973994 0
M  V30 2164 C 209.07 -4.27003 -0.291928 0
M  V30 2165 C 208.396 -5.16967 -1.36562 0
M  V30 2166 C 209.696 -5.15816 0.820462 0
M  V30 2167 H 211.39 -2.90038 0.742873 0
M  V30 2168 H 208.936 -1.39461 0.358688 0
M  V30 2169 H 210.889 -3.95524 -1.45392 0
M  V30 2170 H 209.613 -2.75095 -1.7604 0
M  V30 2171 H 208.272 -3.66217 0.167623 0
M  V30 2172 H 207.92 -4.55034 -2.14366 0
M  V30 2173 H 207.62 -5.80441 -0.914454 0
M  V30 2174 H 209.144 -5.82003 -1.84675 0
M  V30 2175 H 210.558 -5.71742 0.422366 0
M  V30 2176 H 208.955 -5.8805 1.19656 0
M  V30 2177 H 210.025 -4.55045 1.67518 0
M  V30 2178 N 211.368 -0.403325 -1.52352 0
M  V30 2179 C 212.608 0.173946 -2.03659 0
M  V30 2180 C 212.972 1.42869 -1.28267 0
M  V30 2181 O 214.173 2.08403 -1.69769 0
M  V30 2182 C 212.444 0.421478 -3.54906 0
M  V30 2183 S 214.003 0.967027 -4.28012 0
M  V30 2184 H 210.821 0.0477461 -0.709395 0
M  V30 2185 H 213.423 -0.554906 -1.87459 0
M  V30 2186 H 212.127 -0.498616 -4.0736 0
M  V30 2187 H 211.658 1.17837 -3.75337 0
M  V30 2188 H 213.673 2.24812 -4.4235 0
M  V30 2189 N 212.846 1.57033 -0.133567 0
M  V30 2190 C 214.095 1.94861 0.520768 0
M  V30 2191 C 214.408 1.02012 1.66892 0
M  V30 2192 O 215.614 1.29365 2.38699 0
M  V30 2193 C 214.07 3.46362 0.977809 0
M  V30 2194 C 213.678 4.47773 -0.142674 0
M  V30 2195 C 215.422 3.93083 1.60269 0
M  V30 2196 C 213.329 5.90468 0.331883 0
M  V30 2197 H 212.259 0.727453 0.198315 0
M  V30 2198 H 214.91 1.82227 -0.215759 0
M  V30 2199 H 213.292 3.54282 1.7692 0
M  V30 2200 H 214.466 4.51536 -0.919317 0
M  V30 2201 H 212.781 4.10891 -0.675124 0
M  V30 2202 H 215.378 4.97121 1.96914 0
M  V30 2203 H 215.721 3.33876 2.48662 0
M  V30 2204 H 216.254 3.88025 0.876453 0
M  V30 2205 H 212.993 6.53463 -0.516341 0
M  V30 2206 H 212.513 5.90094 1.07469 0
M  V30 2207 H 214.192 6.42179 0.788332 0
M  V30 2208 N 214.325 -0.140222 1.56975 0
M  V30 2209 C 215.572 -0.851687 1.83719 0
M  V30 2210 C 215.9 -1.80862 0.715485 0
M  V30 2211 O 215.155 -1.93464 -0.294956 0
M  V30 2212 C 215.454 -1.65386 3.16832 0
M  V30 2213 C 215.12 -0.843112 4.42947 0
M  V30 2214 C 213.782 -0.619464 4.77196 0
M  V30 2215 C 216.134 -0.276582 5.20466 0
M  V30 2216 C 213.462 0.181312 5.8642 0
M  V30 2217 C 215.814 0.51127 6.30531 0
M  V30 2218 C 214.478 0.745432 6.63325 0
M  V30 2219 H 213.748 -0.311654 0.672274 0
M  V30 2220 H 216.395 -0.115006 1.91154 0
M  V30 2221 H 214.7 -2.46084 3.04877 0
M  V30 2222 H 216.397 -2.20793 3.34741 0
M  V30 2223 H 212.987 -1.0275 4.16101 0
M  V30 2224 H 217.171 -0.436632 4.94376 0
M  V30 2225 H 212.427 0.372165 6.10266 0
M  V30 2226 H 216.601 0.957354 6.89788 0
M  V30 2227 H 214.228 1.36778 7.47794 0
M  V30 2228 N 215.803 -1.52179 -0.40978 0
M  V30 2229 C 216.766 -1.74853 -1.48186 0
M  V30 2230 C 217.766 -0.618417 -1.48433 0
M  V30 2231 O 218.956 -0.886286 -1.49969 0
M  V30 2232 C 216.088 -1.8303 -2.87598 0
M  V30 2233 H 217.281 -2.70559 -1.29374 0
M  V30 2234 H 214.834 -1.42586 -0.640233 0
M  V30 2235 H 215.569 -0.89236 -3.11781 0
M  V30 2236 H 215.354 -2.65187 -2.88822 0
M  V30 2237 H 216.844 -2.02316 -3.65319 0
M  V30 2238 N 217.281 0.66697 -1.42791 0
M  V30 2239 C 218.509 1.45505 -1.47091 0
M  V30 2240 C 218.924 1.8861 -0.0845873 0
M  V30 2241 O 218.281 1.58632 0.90234 0
M  V30 2242 C 218.332 2.69906 -2.40485 0
M  V30 2243 O 218.053 2.28608 -3.73725 0
M  V30 2244 C 219.554 3.63396 -2.53886 0
M  V30 2245 H 216.774 0.447459 -0.500022 0
M  V30 2246 H 219.318 0.818866 -1.8739 0
M  V30 2247 H 217.473 3.29696 -2.03419 0
M  V30 2248 H 217.887 3.08997 -4.23817 0
M  V30 2249 H 219.361 4.47387 -3.2334 0
M  V30 2250 H 219.838 4.09824 -1.57927 0
M  V30 2251 H 220.444 3.09495 -2.91706 0
M  V30 2252 N 218.759 1.29093 0.90403 0
M  V30 2253 C 219.989 1.19516 1.68522 0
M  V30 2254 C 220.397 -0.24738 1.87576 0
M  V30 2255 O 219.74 -1.17798 1.40959 0
M  V30 2256 C 219.802 1.83249 3.0929 0
M  V30 2257 C 219.466 3.32531 3.13484 0
M  V30 2258 C 220.463 4.28821 2.93953 0
M  V30 2259 C 218.148 3.73656 3.35688 0
M  V30 2260 C 220.142 5.64212 2.96553 0
M  V30 2261 C 217.829 5.0917 3.37919 0
M  V30 2262 C 218.827 6.04258 3.18373 0
M  V30 2263 O 218.515 7.37298 3.20385 0
M  V30 2264 H 218.247 0.415467 0.533257 0
M  V30 2265 H 220.801 1.70912 1.13922 0
M  V30 2266 H 219.031 1.26358 3.65473 0
M  V30 2267 H 220.72 1.68054 3.69476 0
M  V30 2268 H 221.486 3.98382 2.76616 0
M  V30 2269 H 217.365 3.00101 3.49943 0
M  V30 2270 H 220.909 6.38407 2.81216 0
M  V30 2271 H 216.806 5.39256 3.54787 0
M  V30 2272 H 217.574 7.46048 3.36681 0
M  V30 2273 N 220.237 -1.11381 1.11499 0
M  V30 2274 C 221.514 -1.7955 0.775965 0
M  V30 2275 C 221.894 -1.97859 -0.73588 0
M  V30 2276 O 221.242 -1.56376 -1.66609 0
M  V30 2277 C 221.452 -3.13196 1.53977 0
M  V30 2278 C 222.8 -3.88227 1.71944 0
M  V30 2279 O 223.824 -3.22887 1.50407 0
M  V30 2280 O 222.683 -5.05477 2.07738 0
M  V30 2281 H 219.777 -0.777728 0.28119 0
M  V30 2282 H 222.323 -1.18118 1.21845 0
M  V30 2283 H 221.095 -2.95229 2.56818 0
M  V30 2284 H 220.718 -3.82342 1.09088 0
M  V30 2285 N 221.715 -0.905404 -1.28997 0
M  V30 2286 C 222.625 -0.392246 -2.31298 0
M  V30 2287 C 223.641 0.515889 -1.66176 0
M  V30 2288 O 224.817 0.404093 -1.97304 0
M  V30 2289 C 221.882 0.36686 -3.44754 0
M  V30 2290 C 220.943 -0.573485 -4.25452 0
M  V30 2291 C 220.176 0.149488 -5.33491 0
M  V30 2292 O 220.399 1.37255 -5.5364 0
M  V30 2293 O 219.333 -0.510919 -5.99728 0
M  V30 2294 H 223.159 -1.2411 -2.77183 0
M  V30 2295 H 220.744 -0.669926 -1.33538 0
M  V30 2296 H 222.626 0.795907 -4.13816 0
M  V30 2297 H 221.301 1.19169 -3.00966 0
M  V30 2298 H 220.208 -1.05176 -3.59011 0
M  V30 2299 H 221.541 -1.36489 -4.72897 0
M  V30 2300 N 223.193 1.4272 -0.668489 0
M  V30 2301 C 224.609 1.55992 -0.33745 0
M  V30 2302 C 224.809 1.64933 1.15756 0
M  V30 2303 O 223.865 1.61278 1.94282 0
M  V30 2304 C 225.178 2.81314 -1.06222 0
M  V30 2305 C 226.726 2.95078 -1.04394 0
M  V30 2306 C 227.201 4.23252 -1.74991 0
M  V30 2307 N 228.692 4.3015 -1.71829 0
M  V30 2308 C 229.427 5.28127 -2.23315 0
M  V30 2309 N 228.923 6.32293 -2.83156 0
M  V30 2310 N 230.716 5.19882 -2.13726 0
M  V30 2311 H 222.867 1.3516 -1.63846 0
M  V30 2312 H 225.13 0.650174 -0.689912 0
M  V30 2313 H 224.836 2.80823 -2.11734 0
M  V30 2314 H 224.71 3.72012 -0.62344 0
M  V30 2315 H 227.097 2.951 0.0028244 0
M  V30 2316 H 227.178 2.05627 -1.52155 0
M  V30 2317 H 226.822 4.2399 -2.79633 0
M  V30 2318 H 226.752 5.11626 -1.24685 0
M  V30 2319 H 229.243 3.55499 -1.28175 0
M  V30 2320 H 229.556 7.03398 -3.20079 0
M  V30 2321 H 227.901 6.32873 -2.87223 0
M  V30 2322 H 231.092 4.37423 -1.66669 0
M  V30 2323 H 231.265 5.96077 -2.54158 0
M  V30 2324 N 224.671 0.411399 1.52136 0
M  V30 2325 C 226.087 0.0623865 1.59478 0
M  V30 2326 C 226.287 -1.42554 1.4241 0
M  V30 2327 O 225.343 -2.19263 1.2522 0
M  V30 2328 C 226.656 0.559331 2.95452 0
M  V30 2329 C 228.204 0.517503 3.08692 0
M  V30 2330 C 228.679 0.990994 4.4715 0
M  V30 2331 N 230.17 0.947908 4.53397 0
M  V30 2332 C 230.905 1.28544 5.58806 0
M  V30 2333 N 230.401 1.69454 6.71757 0
M  V30 2334 N 232.194 1.20526 5.49026 0
M  V30 2335 H 224.345 1.37982 1.61477 0
M  V30 2336 H 226.608 0.566977 0.759764 0
M  V30 2337 H 226.314 1.59938 3.1323 0
M  V30 2338 H 226.188 -0.0298014 3.77188 0
M  V30 2339 H 228.575 -0.513505 2.90598 0
M  V30 2340 H 228.656 1.14272 2.28857 0
M  V30 2341 H 228.3 2.02034 4.65988 0
M  V30 2342 H 228.23 0.34257 5.25485 0
M  V30 2343 H 230.721 0.647157 3.72317 0
M  V30 2344 H 231.034 1.93513 7.48179 0
M  V30 2345 H 229.379 1.73359 6.73032 0
M  V30 2346 H 232.57 0.884505 4.59667 0
M  V30 2347 H 232.743 1.47161 6.31069 0
M  V30 2348 N 226.149 -1.5696 0.141893 0
M  V30 2349 C 227.097 -2.17784 -0.816874 0
M  V30 2350 C 228.091 -1.1334 -1.25899 0
M  V30 2351 O 229.297 -1.316 -1.22806 0
M  V30 2352 H 225.672 -0.697278 -0.281615 0
M  V30 2353 H 227.643 -2.97087 -0.279621 0
M  V30 2354 C 226.392 -2.80983 -2.04802 0
M  V30 2355 H 225.715 -3.61062 -1.7168 0
M  V30 2356 H 227.155 -3.2705 -2.69841 0
M  V30 2357 C 225.614 -1.79228 -2.8527 0
M  V30 2358 O 226.144 -1.25962 -3.8144 0
M  V30 2359 N 224.35 -1.48647 -2.49704 0
M  V30 2360 H 223.897 -1.92155 -1.71564 0
M  V30 2361 H 223.855 -0.808115 -3.03837 0
M  V30 2362 N 227.627 0.131896 -1.57047 0
M  V30 2363 C 228.875 0.840269 -1.83804 0
M  V30 2364 C 229.196 1.81017 -0.72512 0
M  V30 2365 O 228.466 1.94272 0.251995 0
M  V30 2366 H 227.046 0.313294 -0.678127 0
M  V30 2367 H 229.708 0.122294 -1.94516 0
M  V30 2368 H 228.804 1.39335 -2.79271 0
M  V30 2369 N 229.106 1.52395 0.401703 0
M  V30 2370 C 230.038 1.72505 1.50912 0
M  V30 2371 C 231.051 0.605468 1.51122 0
M  V30 2372 O 232.24 0.880828 1.55254 0
M  V30 2373 C 229.34 1.75711 2.89791 0
M  V30 2374 C 228.513 3.04824 3.1369 0
M  V30 2375 C 227.572 2.99743 4.32482 0
M  V30 2376 O 226.598 3.73635 4.29402 0
M  V30 2377 N 227.8 2.18047 5.37992 0
M  V30 2378 H 230.565 2.68049 1.34052 0
M  V30 2379 H 228.126 1.50724 0.591084 0
M  V30 2380 H 230.118 1.69834 3.6734 0
M  V30 2381 H 228.688 0.876092 3.00072 0
M  V30 2382 H 227.908 3.2429 2.24119 0
M  V30 2383 H 229.196 3.90221 3.26504 0
M  V30 2384 H 228.594 1.57456 5.43345 0
M  V30 2385 H 227.151 2.18021 6.14256 0
M  V30 2386 N 230.584 -0.659388 1.43143 0
M  V30 2387 C 231.514 -1.78422 1.50625 0
M  V30 2388 C 232.495 -1.66216 0.361443 0
M  V30 2389 O 233.68 -1.85404 0.577834 0
M  V30 2390 C 230.81 -3.16815 1.42287 0
M  V30 2391 C 229.764 -3.43777 2.54954 0
M  V30 2392 C 229.09 -4.81905 2.31671 0
M  V30 2393 C 230.39 -3.39134 3.97222 0
M  V30 2394 H 232.084 -1.72417 2.44771 0
M  V30 2395 H 229.63 -0.828084 1.17808 0
M  V30 2396 H 231.583 -3.95253 1.46127 0
M  V30 2397 H 230.307 -3.23534 0.446435 0
M  V30 2398 H 228.966 -2.67707 2.50457 0
M  V30 2399 H 228.614 -4.85294 1.32284 0
M  V30 2400 H 228.314 -5.00906 3.07192 0
M  V30 2401 H 229.838 -5.62609 2.37284 0
M  V30 2402 H 231.252 -4.07518 4.03239 0
M  V30 2403 H 229.649 -3.69671 4.72719 0
M  V30 2404 H 230.719 -2.37426 4.22797 0
M  V30 2405 N 232.062 -1.29571 -0.897171 0
M  V30 2406 C 233.31 -1.17456 -1.64464 0
M  V30 2407 C 233.631 0.273698 -1.9307 0
M  V30 2408 O 232.901 1.18684 -1.55855 0
M  V30 2409 H 231.481 -0.431706 -0.609622 0
M  V30 2410 H 234.143 -1.62531 -1.07562 0
M  V30 2411 H 233.239 -1.72648 -2.59998 0
M  V30 2412 N 233.54 1.10788 -1.12088 0
M  V30 2413 C 234.765 1.87002 -0.896949 0
M  V30 2414 C 235.19 1.79933 0.548261 0
M  V30 2415 O 234.548 1.16662 1.38779 0
M  V30 2416 C 234.596 3.3349 -1.37174 0
M  V30 2417 O 233.7 4.08745 -0.547831 0
M  V30 2418 H 233.041 0.580397 -0.322545 0
M  V30 2419 H 235.571 1.39996 -1.49206 0
M  V30 2420 H 235.581 3.84339 -1.36922 0
M  V30 2421 H 234.256 3.37951 -2.42408 0
M  V30 2422 H 232.833 3.6776 -0.617034 0
M  V30 2423 N 235.018 0.912232 1.28515 0
M  V30 2424 C 236.264 0.545405 1.95328 0
M  V30 2425 C 236.597 -0.908313 1.71649 0
M  V30 2426 O 235.872 -1.64575 1.03659 0
M  V30 2427 C 236.155 0.853483 3.4984 0
M  V30 2428 C 236.008 2.35982 3.82926 0
M  V30 2429 C 237.327 0.348589 4.38717 0
M  V30 2430 H 234.446 0.199626 0.709449 0
M  V30 2431 H 237.088 1.1412 1.5191 0
M  V30 2432 H 235.238 0.34643 3.86952 0
M  V30 2433 H 236.91 2.93738 3.55691 0
M  V30 2434 H 235.153 2.81543 3.30024 0
M  V30 2435 H 235.824 2.52593 4.90816 0
M  V30 2436 H 238.3 0.78294 4.08668 0
M  V30 2437 H 237.176 0.593242 5.45685 0
M  V30 2438 H 237.437 -0.751049 4.35674 0
M  V30 2439 N 236.496 -1.42363 0.676048 0
M  V30 2440 C 237.459 -2.29199 0.00766941 0
M  V30 2441 C 238.459 -1.43389 -0.727745 0
M  V30 2442 O 239.649 -1.64764 -0.56556 0
M  V30 2443 C 236.781 -3.2591 -0.999785 0
M  V30 2444 H 237.974 -2.89794 0.771988 0
M  V30 2445 H 235.527 -1.50024 0.438468 0
M  V30 2446 H 236.262 -2.70256 -1.79255 0
M  V30 2447 H 236.047 -3.89202 -0.475829 0
M  V30 2448 H 237.537 -3.91028 -1.46583 0
M  V30 2449 N 237.974 -0.419461 -1.51915 0
M  V30 2450 C 238.904 0.391813 -2.30189 0
M  V30 2451 C 239.885 1.03699 -1.34836 0
M  V30 2452 O 241.07 1.04403 -1.63748 0
M  V30 2453 C 238.2 1.50312 -3.13087 0
M  V30 2454 C 237.154 0.9824 -4.16573 0
M  V30 2455 C 236.48 2.18809 -4.8788 0
M  V30 2456 C 237.78 0.0292356 -5.22292 0
M  V30 2457 H 239.474 -0.26135 -2.98257 0
M  V30 2458 H 237.02 -0.127134 -1.43438 0
M  V30 2459 H 238.973 2.07773 -3.66617 0
M  V30 2460 H 237.697 2.18431 -2.42807 0
M  V30 2461 H 236.356 0.430119 -3.64068 0
M  V30 2462 H 236.004 2.85507 -4.14119 0
M  V30 2463 H 235.704 1.84615 -5.57845 0
M  V30 2464 H 237.228 2.76858 -5.44226 0
M  V30 2465 H 238.642 0.512976 -5.71 0
M  V30 2466 H 237.039 -0.2244 -5.9968 0
M  V30 2467 H 238.109 -0.912931 -4.76228 0
M  V30 2468 N 239.452 1.56882 -0.150215 0
M  V30 2469 C 240.415 2.1573 0.774157 0
M  V30 2470 C 241.415 1.0999 1.17298 0
M  V30 2471 O 242.605 1.35613 1.09338 0
M  V30 2472 C 239.737 2.72302 2.05096 0
M  V30 2473 H 240.93 2.98752 0.262201 0
M  V30 2474 H 238.483 1.55985 0.099248 0
M  V30 2475 H 239.218 1.92956 2.6065 0
M  V30 2476 H 239.003 3.49665 1.77416 0
M  V30 2477 H 240.493 3.17632 2.71109 0
M  V30 2478 N 240.93 -0.123565 1.57115 0
M  V30 2479 C 242.176 -0.833386 1.84885 0
M  V30 2480 C 242.509 -1.79742 0.735292 0
M  V30 2481 O 241.784 -1.92764 -0.25925 0
M  V30 2482 C 242.067 -1.5873 3.23228 0
M  V30 2483 C 241.92 -0.643183 4.45178 0
M  V30 2484 C 243.239 -2.54453 3.59085 0
M  V30 2485 H 240.358 -0.301518 0.6725 0
M  V30 2486 H 243 -0.097778 1.89748 0
M  V30 2487 H 241.15 -2.21438 3.19214 0
M  V30 2488 H 242.822 -0.0253015 4.61293 0
M  V30 2489 H 241.065 0.0456139 4.33776 0
M  V30 2490 H 241.736 -1.20724 5.38637 0
M  V30 2491 H 244.212 -2.01853 3.63861 0
M  V30 2492 H 243.088 -3.04238 4.5687 0
M  V30 2493 H 243.349 -3.36906 2.86264 0
M  V30 2494 N 242.408 -1.52605 -0.393616 0
M  V30 2495 C 243.656 -1.67093 -1.13685 0
M  V30 2496 C 243.977 -0.411011 -1.90619 0
M  V30 2497 O 243.247 0.574491 -1.87287 0
M  V30 2498 H 241.827 -0.615923 -0.422668 0
M  V30 2499 H 244.489 -1.89704 -0.447039 0
M  V30 2500 H 243.585 -2.51922 -1.84232 0
M  V30 2501 N 243.887 0.651787 -1.4349 0
M  V30 2502 C 245.134 1.41167 -1.45183 0
M  V30 2503 C 245.462 1.94349 -0.0766601 0
M  V30 2504 O 244.717 1.72804 0.918555 0
M  V30 2505 C 245.016 2.60914 -2.44251 0
M  V30 2506 C 244.682 2.26142 -3.9009 0
M  V30 2507 C 243.344 2.16371 -4.2981 0
M  V30 2508 C 245.696 1.98334 -4.81989 0
M  V30 2509 C 243.024 1.7695 -5.5938 0
M  V30 2510 C 245.376 1.6041 -6.11924 0
M  V30 2511 C 244.04 1.49166 -6.5062 0
M  V30 2512 H 243.31 0.516566 -0.531263 0
M  V30 2513 H 245.957 0.741099 -1.76579 0
M  V30 2514 H 244.262 3.3311 -2.06265 0
M  V30 2515 H 245.959 3.19127 -2.42815 0
M  V30 2516 H 242.549 2.34658 -3.58655 0
M  V30 2517 H 246.733 2.04803 -4.52072 0
M  V30 2518 H 241.989 1.66831 -5.88198 0
M  V30 2519 H 246.163 1.37925 -6.82605 0
M  V30 2520 H 243.79 1.1839 -7.50925 0
M  V30 2521 N 245.365 1.30045 0.890287 0
M  V30 2522 C 246.59 1.21598 1.68014 0
M  V30 2523 C 247.015 -0.218678 1.86825 0
M  V30 2524 O 246.373 -1.15756 1.39536 0
M  V30 2525 C 246.421 1.94434 3.03691 0
M  V30 2526 O 245.525 1.2678 3.92429 0
M  V30 2527 H 244.866 0.420856 0.513592 0
M  V30 2528 H 247.396 1.71775 1.11151 0
M  V30 2529 H 247.406 2.03251 3.5377 0
M  V30 2530 H 246.081 2.98777 2.89318 0
M  V30 2531 H 244.658 1.26282 3.50866 0
M  V30 2532 N 246.843 -1.10192 1.12674 0
M  V30 2533 C 247.773 -2.18652 0.819362 0
M  V30 2534 C 248.754 -1.68698 -0.217915 0
M  V30 2535 O 249.939 -1.94041 -0.0785581 0
M  V30 2536 C 247.069 -3.46202 0.27594 0
M  V30 2537 C 246.023 -4.09444 1.24656 0
M  V30 2538 C 245.349 -5.31725 0.563258 0
M  V30 2539 C 246.649 -4.52863 2.60217 0
M  V30 2540 H 248.343 -2.44622 1.72628 0
M  V30 2541 H 245.889 -1.17571 0.831451 0
M  V30 2542 H 247.842 -4.21372 0.0486149 0
M  V30 2543 H 246.566 -3.1973 -0.666331 0
M  V30 2544 H 245.225 -3.36284 1.45974 0
M  V30 2545 H 244.873 -5.0153 -0.384235 0
M  V30 2546 H 244.573 -5.74991 1.21075 0
M  V30 2547 H 246.097 -6.09624 0.34503 0
M  V30 2548 H 247.511 -5.19294 2.42913 0
M  V30 2549 H 245.908 -5.06986 3.21068 0
M  V30 2550 H 246.978 -3.65656 3.18471 0
M  V30 2551 N 248.321 -0.919034 -1.28029 0
M  V30 2552 C 249.284 -0.416182 -2.2539 0
M  V30 2553 C 250.284 0.460438 -1.54067 0
M  V30 2554 O 251.474 0.262744 -1.72207 0
M  V30 2555 C 248.606 0.402707 -3.38513 0
M  V30 2556 H 249.799 -1.27629 -2.71387 0
M  V30 2557 H 247.352 -0.698919 -1.39803 0
M  V30 2558 H 248.087 1.282 -2.97885 0
M  V30 2559 H 247.872 -0.225698 -3.9145 0
M  V30 2560 H 249.362 0.745191 -4.10897 0
M  V30 2561 N 249.799 1.42003 -0.683588 0
M  V30 2562 C 250.729 2.33487 -0.024866 0
M  V30 2563 C 251.71 1.51163 0.779975 0
M  V30 2564 O 252.895 1.79739 0.735362 0
M  V30 2565 C 250.025 3.3487 0.920836 0
M  V30 2566 C 248.979 4.27414 0.223958 0
M  V30 2567 C 248.305 5.19074 1.2832 0
M  V30 2568 C 249.605 5.14445 -0.90242 0
M  V30 2569 H 251.299 2.88819 -0.788921 0
M  V30 2570 H 248.845 1.38873 -0.38083 0
M  V30 2571 H 250.798 3.97787 1.39081 0
M  V30 2572 H 249.522 2.77861 1.71642 0
M  V30 2573 H 248.181 3.65904 -0.225864 0
M  V30 2574 H 247.829 4.58387 2.071 0
M  V30 2575 H 247.529 5.81822 0.821995 0
M  V30 2576 H 249.053 5.84867 1.75392 0
M  V30 2577 H 250.467 5.70998 -0.513272 0
M  V30 2578 H 248.864 5.86072 -1.28997 0
M  V30 2579 H 249.934 4.52322 -1.74737 0
M  V30 2580 N 251.277 0.427512 1.51691 0
M  V30 2581 C 252.525 -0.141948 2.01601 0
M  V30 2582 C 252.846 -1.44067 1.31414 0
M  V30 2583 O 252.116 -1.90763 0.445658 0
M  V30 2584 H 250.696 -0.0554468 0.744939 0
M  V30 2585 H 253.358 0.567968 1.86441 0
M  V30 2586 H 252.454 -0.324913 3.10404 0
M  V30 2587 N 252.755 -1.56801 0.158532 0
M  V30 2588 C 253.705 -2.13923 -0.788738 0
M  V30 2589 C 254.689 -1.07006 -1.2016 0
M  V30 2590 O 255.881 -1.33159 -1.1661 0
M  V30 2591 C 253.01 -2.77348 -2.02319 0
M  V30 2592 C 252.096 -3.91404 -1.6329 0
M  V30 2593 N 252.487 -4.9677 -0.951463 0
M  V30 2594 C 250.785 -4.02326 -1.92482 0
M  V30 2595 C 251.486 -5.76698 -0.761221 0
M  V30 2596 N 250.462 -5.27859 -1.29869 0
M  V30 2597 H 254.264 -2.92757 -0.258995 0
M  V30 2598 H 251.778 -1.62344 -0.0426055 0
M  V30 2599 H 253.775 -3.16639 -2.71192 0
M  V30 2600 H 252.435 -1.99991 -2.558 0
M  V30 2601 H 253.446 -5.14284 -0.610928 0
M  V30 2602 H 250.123 -3.36059 -2.47732 0
M  V30 2603 H 251.513 -6.71529 -0.223284 0
M  V30 2604 N 254.233 0.115231 -1.57178 0
M  V30 2605 C 255.163 1.1423 -2.03651 0
M  V30 2606 C 256.144 1.42967 -0.921655 0
M  V30 2607 O 257.329 1.53343 -1.19162 0
M  V30 2608 C 254.459 2.4675 -2.44401 0
M  V30 2609 C 253.413 2.32467 -3.59365 0
M  V30 2610 C 252.739 3.69984 -3.86026 0
M  V30 2611 C 254.039 1.78203 -4.90959 0
M  V30 2612 H 255.733 0.755749 -2.89705 0
M  V30 2613 H 253.279 0.362093 -1.39373 0
M  V30 2614 H 255.232 3.18854 -2.75517 0
M  V30 2615 H 253.956 2.87302 -1.55322 0
M  V30 2616 H 252.615 1.62811 -3.28463 0
M  V30 2617 H 252.263 4.08028 -2.94147 0
M  V30 2618 H 251.963 3.61279 -4.63412 0
M  V30 2619 H 253.487 4.43587 -4.19599 0
M  V30 2620 H 254.901 2.40128 -5.20587 0
M  V30 2621 H 253.298 1.8031 -5.72371 0
M  V30 2622 H 254.368 0.739876 -4.79222 0
M  V30 2623 N 255.711 1.52812 0.385517 0
M  V30 2624 C 256.958 1.68026 1.1302 0
M  V30 2625 C 257.286 0.421934 1.89868 0
M  V30 2626 O 256.541 -0.595749 1.86412 0
M  V30 2627 C 256.84 2.86856 2.13187 0
M  V30 2628 C 256.506 4.24159 1.5297 0
M  V30 2629 C 255.168 4.61501 1.36274 0
M  V30 2630 C 257.52 5.09627 1.09223 0
M  V30 2631 C 254.848 5.81966 0.743837 0
M  V30 2632 C 257.2 6.30719 0.487411 0
M  V30 2633 C 255.864 6.6679 0.307777 0
M  V30 2634 H 255.134 0.614849 0.413571 0
M  V30 2635 H 257.781 1.86962 0.414405 0
M  V30 2636 H 256.086 2.6235 2.90998 0
M  V30 2637 H 257.783 2.95821 2.70722 0
M  V30 2638 H 254.373 3.94746 1.66954 0
M  V30 2639 H 258.557 4.81343 1.20922 0
M  V30 2640 H 253.813 6.08519 0.592891 0
M  V30 2641 H 257.987 6.96259 0.140143 0
M  V30 2642 H 255.614 7.60001 -0.173879 0
M  V30 2643 N 257.189 -0.644168 1.43834 0
M  V30 2644 C 258.437 -1.40117 1.45642 0
M  V30 2645 C 258.758 -1.94814 0.0852413 0
M  V30 2646 O 258.028 -1.74988 -0.880688 0
M  V30 2647 H 256.608 -0.52005 0.536243 0
M  V30 2648 H 259.27 -0.7591 1.7951 0
M  V30 2649 H 258.366 -2.23902 2.17427 0
M  V30 2650 N 258.668 -1.30515 -0.883378 0
M  V30 2651 C 259.601 -1.11359 -1.99184 0
M  V30 2652 C 260.579 -0.0207858 -1.62587 0
M  V30 2653 O 261.763 -0.174646 -1.87689 0
M  V30 2654 C 258.89 -0.69871 -3.31415 0
M  V30 2655 C 257.936 -1.79261 -3.86998 0
M  V30 2656 S 258.769 -3.39536 -4.14096 0
M  V30 2657 C 259.925 -2.99954 -5.49344 0
M  V30 2658 H 260.158 -2.052 -2.15128 0
M  V30 2659 H 257.691 -1.14847 -1.03196 0
M  V30 2660 H 259.649 -0.466075 -4.07846 0
M  V30 2661 H 258.31 0.220368 -3.13326 0
M  V30 2662 H 257.503 -1.45464 -4.82552 0
M  V30 2663 H 257.105 -1.97961 -3.17313 0
M  V30 2664 H 259.397 -2.48013 -6.30473 0
M  V30 2665 H 260.34 -3.9442 -5.8808 0
M  V30 2666 H 260.748 -2.37775 -5.1198 0
M  V30 2667 N 260.146 1.09593 -1.13257 0
M  V30 2668 C 261.376 1.85231 -0.915049 0
M  V30 2669 C 261.784 1.81345 0.539498 0
M  V30 2670 O 261.127 1.20664 1.38513 0
M  V30 2671 C 261.189 3.34275 -1.3229 0
M  V30 2672 C 260.853 3.6191 -2.79052 0
M  V30 2673 C 261.85 3.57777 -3.77216 0
M  V30 2674 C 259.535 3.90309 -3.16171 0
M  V30 2675 C 261.529 3.81652 -5.1051 0
M  V30 2676 C 259.216 4.13839 -4.49644 0
M  V30 2677 C 260.214 4.09502 -5.46623 0
M  V30 2678 O 259.902 4.32426 -6.77689 0
M  V30 2679 H 259.634 0.591997 -0.326367 0
M  V30 2680 H 262.188 1.394 -1.50854 0
M  V30 2681 H 260.418 3.80805 -0.672667 0
M  V30 2682 H 262.107 3.9132 -1.07812 0
M  V30 2683 H 262.873 3.35865 -3.49885 0
M  V30 2684 H 258.752 3.92811 -2.41289 0
M  V30 2685 H 262.296 3.78182 -5.86195 0
M  V30 2686 H 258.193 4.35232 -4.767 0
M  V30 2687 H 258.961 4.49896 -6.83766 0
M  V30 2688 N 261.624 0.925811 1.2754 0
M  V30 2689 C 262.854 0.580666 1.98272 0
M  V30 2690 C 263.262 -0.845207 1.69272 0
M  V30 2691 O 262.605 -1.57306 0.948707 0
M  V30 2692 C 262.667 0.724418 3.52126 0
M  V30 2693 C 262.331 2.12206 4.04744 0
M  V30 2694 C 263.328 3.09604 4.17662 0
M  V30 2695 C 261.013 2.4385 4.39138 0
M  V30 2696 C 263.007 4.36755 4.64246 0
M  V30 2697 C 260.694 3.71237 4.85414 0
M  V30 2698 C 261.692 4.67503 4.97926 0
M  V30 2699 O 261.38 5.92624 5.43187 0
M  V30 2700 H 261.112 0.218987 0.639547 0
M  V30 2701 H 263.666 1.24452 1.63404 0
M  V30 2702 H 261.896 0.0034663 3.867 0
M  V30 2703 H 263.585 0.384607 4.04074 0
M  V30 2704 H 264.351 2.86478 3.91351 0
M  V30 2705 H 260.23 1.69665 4.28643 0
M  V30 2706 H 263.774 5.11898 4.73927 0
M  V30 2707 H 259.671 3.94182 5.11166 0
M  V30 2708 H 260.439 5.95585 5.61445 0
M  V30 2709 N 263.102 -1.41638 0.69111 0
M  V30 2710 C 264.33 -2.05628 0.22909 0
M  V30 2711 C 264.745 -1.51992 -1.11999 0
M  V30 2712 O 264.102 -0.666322 -1.69901 0
M  V30 2713 C 264.153 -3.61084 0.173283 0
M  V30 2714 O 263.874 -4.12735 1.46907 0
M  V30 2715 C 265.375 -4.42213 -0.310266 0
M  V30 2716 H 262.595 -0.662327 0.107534 0
M  V30 2717 H 265.139 -1.81489 0.942438 0
M  V30 2718 H 263.294 -3.84278 -0.490858 0
M  V30 2719 H 263.708 -5.06743 1.35322 0
M  V30 2720 H 265.182 -5.51194 -0.298196 0
M  V30 2721 H 265.659 -4.1799 -1.34838 0
M  V30 2722 H 266.265 -4.24074 0.322716 0
M  V30 2723 N 264.58 -0.43555 -1.51462 0
M  V30 2724 C 265.828 0.131254 -2.01673 0
M  V30 2725 C 266.149 1.43368 -1.32177 0
M  V30 2726 O 265.419 1.90524 -0.455769 0
M  V30 2727 H 263.999 0.0514954 -0.745223 0
M  V30 2728 H 266.661 -0.577847 -1.86137 0
M  V30 2729 H 265.757 0.308446 -3.10572 0
M  V30 2730 N 266.058 1.56714 -0.166846 0
M  V30 2731 C 267.021 2.16539 0.751232 0
M  V30 2732 C 268.021 1.11228 1.16125 0
M  V30 2733 O 269.211 1.36765 1.07894 0
M  V30 2734 C 266.343 2.74462 2.02196 0
M  V30 2735 H 267.536 2.99013 0.230499 0
M  V30 2736 H 265.089 1.56081 0.0826982 0
M  V30 2737 H 265.824 1.95709 2.58589 0
M  V30 2738 H 265.609 3.51527 1.73698 0
M  V30 2739 H 267.099 3.20489 2.67725 0
M  V30 2740 N 267.536 -0.106894 1.57237 0
M  V30 2741 C 268.784 -0.810921 1.85117 0
M  V30 2742 C 269.105 -1.7984 0.753827 0
M  V30 2743 O 268.375 -1.94649 -0.221056 0
M  V30 2744 H 266.955 -0.302466 0.683025 0
M  V30 2745 H 269.617 -0.0913324 1.94686 0
M  V30 2746 H 268.713 -1.34875 2.81452 0
M  V30 2747 N 269.014 -1.53014 -0.377408 0
M  V30 2748 C 269.947 -1.73382 -1.48371 0
M  V30 2749 C 270.925 -0.581879 -1.51832 0
M  V30 2750 O 272.109 -0.81307 -1.70063 0
M  V30 2751 C 269.236 -1.80192 -2.8679 0
M  V30 2752 C 268.282 -3.02056 -3.01105 0
M  V30 2753 S 269.115 -4.61811 -2.71093 0
M  V30 2754 C 270.271 -4.71453 -4.11683 0
M  V30 2755 H 270.504 -2.66946 -1.30872 0
M  V30 2756 H 268.037 -1.43453 -0.571012 0
M  V30 2757 H 269.995 -1.84802 -3.6655 0
M  V30 2758 H 268.656 -0.877008 -3.01608 0
M  V30 2759 H 267.849 -3.03396 -4.02451 0
M  V30 2760 H 267.451 -2.95498 -2.29253 0
M  V30 2761 H 269.743 -4.50781 -5.0577 0
M  V30 2762 H 270.686 -5.73487 -4.15353 0
M  V30 2763 H 271.094 -4.00189 -3.98132 0
M  V30 2764 N 270.492 0.636531 -1.44174 0
M  V30 2765 C 271.44 1.76995 -1.50915 0
M  V30 2766 C 272.434 1.65053 -0.381295 0
M  V30 2767 O 273.64 1.71197 -0.55601 0
M  V30 2768 H 270.015 0.584247 -0.473455 0
M  V30 2769 H 271.986 1.68432 -2.4632 0
M  V30 2770 C 270.735 3.15314 -1.46534 0
M  V30 2771 H 270.058 3.25149 -2.32633 0
M  V30 2772 H 271.498 3.9453 -1.55312 0
M  V30 2773 C 269.957 3.3639 -0.185305 0
M  V30 2774 O 270.487 3.94699 0.746688 0
M  V30 2775 N 268.693 2.9046 -0.0901606 0
M  V30 2776 H 268.24 2.43193 -0.849416 0
M  V30 2777 H 268.198 3.04937 0.765553 0
M  V30 2778 N 271.97 1.30982 0.876444 0
M  V30 2779 C 273.381 1.18277 1.44456 0
M  V30 2780 C 273.732 -0.213265 1.95037 0
M  V30 2781 O 272.857 -1.11057 1.85729 0
M  V30 2782 C 273.452 2.1411 2.62569 0
M  V30 2783 C 272.011 2.05358 3.15444 0
M  V30 2784 C 271.158 2.03706 1.88146 0
M  V30 2785 H 274.109 1.43127 0.685584 0
M  V30 2786 H 274.13 1.72692 3.39054 0
M  V30 2787 H 273.642 3.15706 2.25724 0
M  V30 2788 H 271.743 1.06934 3.56926 0
M  V30 2789 H 271.856 2.94156 3.78166 0
M  V30 2790 H 270.22 1.48629 2.06837 0
M  V30 2791 H 271.003 3.07047 1.53547 0
M  V30 2792 N 273.449 -1.08991 1.13837 0
M  V30 2793 C 274.412 -2.13925 0.822715 0
M  V30 2794 C 275.412 -1.599 -0.1699 0
M  V30 2795 O 276.602 -1.74104 0.0577251 0
M  V30 2796 C 273.734 -3.40155 0.225318 0
M  V30 2797 H 274.927 -2.43358 1.75262 0
M  V30 2798 H 272.48 -1.24603 0.943594 0
M  V30 2799 H 273.215 -3.16352 -0.713594 0
M  V30 2800 H 273 -3.80661 0.940193 0
M  V30 2801 H 274.49 -4.17594 0.0214784 0
M  V30 2802 N 274.927 -0.932562 -1.27047 0
M  V30 2803 C 276.343 -0.633544 -1.46487 0
M  V30 2804 C 276.543 0.815746 -1.84249 0
M  V30 2805 O 275.599 1.59319 -1.95892 0
M  V30 2806 C 276.912 -1.58758 -2.55375 0
M  V30 2807 C 278.46 -1.59634 -2.69232 0
M  V30 2808 C 278.935 -2.53747 -3.81283 0
M  V30 2809 N 280.426 -2.51982 -3.88664 0
M  V30 2810 C 281.161 -3.21491 -4.74796 0
M  V30 2811 N 280.657 -4.00395 -5.65381 0
M  V30 2812 N 282.45 -3.10485 -4.68568 0
M  V30 2813 H 274.601 -1.86946 -1.00821 0
M  V30 2814 H 276.864 -0.802897 -0.504044 0
M  V30 2815 H 276.57 -2.62172 -2.34432 0
M  V30 2816 H 276.444 -1.33301 -3.52861 0
M  V30 2817 H 278.831 -0.569488 -2.89553 0
M  V30 2818 H 278.912 -1.89142 -1.72218 0
M  V30 2819 H 278.556 -3.56545 -3.61715 0
M  V30 2820 H 278.486 -2.21532 -4.77735 0
M  V30 2821 H 280.977 -1.94681 -3.23895 0
M  V30 2822 H 281.29 -4.50406 -6.27976 0
M  V30 2823 H 279.635 -4.04498 -5.65161 0
M  V30 2824 H 282.826 -2.48331 -3.96799 0
M  V30 2825 H 282.999 -3.64925 -5.35475 0
M  V30 2826 N 276.405 1.4127 -0.698611 0
M  V30 2827 C 277.63 2.06024 -0.238512 0
M  V30 2828 C 278.055 1.5224 1.10475 0
M  V30 2829 O 277.413 0.650623 1.69223 0
M  V30 2830 C 277.461 3.59988 -0.209952 0
M  V30 2831 O 276.565 4.04282 0.814235 0
M  V30 2832 H 275.906 0.653829 -0.115775 0
M  V30 2833 H 278.436 1.8098 -0.954326 0
M  V30 2834 H 278.446 4.07979 -0.0418436 0
M  V30 2835 H 277.121 3.98503 -1.1903 0
M  V30 2836 H 275.698 3.6779 0.615234 0
M  V30 2837 N 277.883 0.443576 1.51229 0
M  V30 2838 C 279.13 -0.120796 2.02139 0
M  V30 2839 C 279.458 -1.42166 1.32736 0
M  V30 2840 O 278.713 -1.90849 0.43301 0
M  V30 2841 C 279.012 -0.380579 3.55368 0
M  V30 2842 C 278.678 0.83523 4.43097 0
M  V30 2843 C 277.34 1.16864 4.66794 0
M  V30 2844 C 279.692 1.64601 4.94526 0
M  V30 2845 C 277.02 2.31339 5.39165 0
M  V30 2846 C 279.372 2.78181 5.68153 0
M  V30 2847 C 278.036 3.11969 5.90112 0
M  V30 2848 H 277.306 -0.0442023 0.73968 0
M  V30 2849 H 279.953 0.592046 1.82118 0
M  V30 2850 H 278.258 -1.17538 3.73754 0
M  V30 2851 H 279.955 -0.830777 3.923 0
M  V30 2852 H 276.545 0.565437 4.24854 0
M  V30 2853 H 280.729 1.40163 4.76097 0
M  V30 2854 H 275.985 2.57823 5.5438 0
M  V30 2855 H 280.159 3.41371 6.06992 0
M  V30 2856 H 277.786 4.00784 6.45969 0
M  V30 2857 N 279.361 -1.56624 0.175154 0
M  V30 2858 C 280.324 -2.16934 -0.739738 0
M  V30 2859 C 281.324 -1.11842 -1.15533 0
M  V30 2860 O 282.514 -1.37335 -1.07167 0
M  V30 2861 C 279.646 -2.75531 -2.00738 0
M  V30 2862 H 280.839 -2.99131 -0.214639 0
M  V30 2863 H 278.392 -1.56123 -0.0744197 0
M  V30 2864 H 279.127 -1.97078 -2.57548 0
M  V30 2865 H 278.912 -3.52444 -1.71831 0
M  V30 2866 H 280.402 -3.21904 -2.66021 0
M  V30 2867 N 280.839 0.0985539 -1.57292 0
M  V30 2868 C 282.25 0.653457 -1.74891 0
M  V30 2869 C 282.601 1.7929 -0.796838 0
M  V30 2870 O 281.726 2.16385 0.0254886 0
M  V30 2871 C 282.321 1.19216 -3.17133 0
M  V30 2872 C 280.88 1.69316 -3.36168 0
M  V30 2873 C 280.027 0.601294 -2.70702 0
M  V30 2874 H 282.978 -0.127497 -1.58187 0
M  V30 2875 H 282.999 2.06154 -3.19814 0
M  V30 2876 H 282.511 0.362635 -3.86402 0
M  V30 2877 H 280.612 2.5468 -2.71972 0
M  V30 2878 H 280.725 1.78853 -4.44464 0
M  V30 2879 H 279.089 1.0399 -2.32504 0
M  V30 2880 H 279.872 -0.217592 -3.4261 0
M  V30 2881 N 282.317 1.53212 0.369288 0
M  V30 2882 C 283.28 1.7872 1.43498 0
M  V30 2883 C 284.28 0.657554 1.46741 0
M  V30 2884 O 285.47 0.925736 1.47566 0
M  V30 2885 C 282.602 1.90591 2.82645 0
M  V30 2886 H 283.795 2.73894 1.22156 0
M  V30 2887 H 281.348 1.44233 0.602203 0
M  V30 2888 H 282.083 0.974709 3.09306 0
M  V30 2889 H 281.868 2.72751 2.8169 0
M  V30 2890 H 283.358 2.11931 3.59826 0
M  V30 2891 N 283.795 -0.628877 1.44509 0
M  V30 2892 C 285.044 -1.38437 1.4669 0
M  V30 2893 C 285.357 -1.95322 0.104272 0
M  V30 2894 O 286.563 -2.715 0.00362163 0
M  V30 2895 C 285.019 -2.50659 2.5826 0
M  V30 2896 C 284.627 -2.00277 4.0074 0
M  V30 2897 C 286.371 -3.27844 2.69664 0
M  V30 2898 C 284.278 -3.09854 5.0373 0
M  V30 2899 H 283.208 -0.520245 0.545766 0
M  V30 2900 H 285.859 -0.676313 1.70582 0
M  V30 2901 H 284.241 -3.2405 2.27612 0
M  V30 2902 H 285.415 -1.33736 4.40966 0
M  V30 2903 H 283.73 -1.35901 3.93599 0
M  V30 2904 H 286.327 -4.09534 3.43781 0
M  V30 2905 H 286.67 -3.77471 1.75559 0
M  V30 2906 H 287.203 -2.61543 2.99733 0
M  V30 2907 H 283.942 -2.65168 5.99472 0
M  V30 2908 H 283.462 -3.7503 4.68095 0
M  V30 2909 H 285.141 -3.74592 5.27532 0
M  V30 2910 N 285.273 -1.31445 -0.869486 0
M  V30 2911 C 286.203 -1.21727 -1.99261 0
M  V30 2912 C 287.184 -0.104359 -1.6978 0
M  V30 2913 O 288.369 -0.289038 -1.92037 0
M  V30 2914 C 285.499 -0.924317 -3.34774 0
M  V30 2915 C 284.453 -1.99685 -3.78563 0
M  V30 2916 C 283.779 -1.55658 -5.11541 0
M  V30 2917 C 285.079 -3.41003 -3.95619 0
M  V30 2918 H 286.773 -2.1569 -2.07649 0
M  V30 2919 H 284.319 -1.03839 -0.997675 0
M  V30 2920 H 286.272 -0.842934 -4.12883 0
M  V30 2921 H 284.996 0.0509793 -3.2656 0
M  V30 2922 H 283.655 -2.06813 -3.02694 0
M  V30 2923 H 283.303 -0.569132 -4.9977 0
M  V30 2924 H 283.003 -2.27409 -5.41811 0
M  V30 2925 H 284.527 -1.48928 -5.92159 0
M  V30 2926 H 285.941 -3.36547 -4.64122 0
M  V30 2927 H 284.338 -4.10975 -4.37286 0
M  V30 2928 H 285.408 -3.81754 -2.98985 0
M  V30 2929 N 286.751 1.08385 -1.14413 0
M  V30 2930 C 287.979 1.84517 -0.936001 0
M  V30 2931 C 288.394 1.81626 0.515503 0
M  V30 2932 O 287.751 1.22008 1.35721 0
M  V30 2933 C 287.802 3.32049 -1.42918 0
M  V30 2934 O 287.523 3.34951 -2.82381 0
M  V30 2935 C 289.024 4.24986 -1.26103 0
M  V30 2936 H 286.244 0.582491 -0.333084 0
M  V30 2937 H 288.788 1.36885 -1.5193 0
M  V30 2938 H 286.943 3.7707 -0.888641 0
M  V30 2939 H 287.357 4.27048 -3.04517 0
M  V30 2940 H 288.831 5.26615 -1.6547 0
M  V30 2941 H 289.308 4.38726 -0.20392 0
M  V30 2942 H 289.914 3.85791 -1.79012 0
M  V30 2943 N 288.23 0.939286 1.26551 0
M  V30 2944 C 289.478 0.58469 1.93457 0
M  V30 2945 C 289.799 -0.878774 1.74076 0
M  V30 2946 O 289.069 -1.62421 1.09528 0
M  V30 2947 H 287.649 0.21325 0.715914 0
M  V30 2948 H 290.311 1.1942 1.54029 0
M  V30 2949 H 289.407 0.800849 3.0165 0
M  V30 2950 N 289.708 -1.40897 0.706093 0
M  V30 2951 C 290.656 -2.32572 0.0361893 0
M  V30 2952 C 291.65 -1.51532 -0.757266 0
M  V30 2953 O 292.856 -1.67396 -0.661703 0
M  V30 2954 H 289.231 -0.751966 -0.00709935 0
M  V30 2955 H 291.202 -2.86733 0.826249 0
M  V30 2956 C 289.951 -3.36418 -0.87854 0
M  V30 2957 H 289.274 -3.98836 -0.277401 0
M  V30 2958 H 290.714 -4.0308 -1.3154 0
M  V30 2959 C 289.173 -2.71141 -1.99961 0
M  V30 2960 O 289.703 -2.56735 -3.0895 0
M  V30 2961 N 287.909 -2.29671 -1.78043 0
M  V30 2962 H 287.456 -2.41588 -0.894042 0
M  V30 2963 H 287.414 -1.86332 -2.53235 0
M  V30 2964 N 291.186 -0.45159 -1.50991 0
M  V30 2965 C 292.433 0.110074 -2.02201 0
M  V30 2966 C 292.761 1.4146 -1.33489 0
M  V30 2967 O 292.016 1.90617 -0.443125 0
M  V30 2968 C 292.315 0.361728 -3.55565 0
M  V30 2969 C 291.981 -0.858717 -4.42648 0
M  V30 2970 C 290.643 -1.19338 -4.66167 0
M  V30 2971 C 292.995 -1.67221 -4.93646 0
M  V30 2972 C 290.323 -2.34195 -5.37931 0
M  V30 2973 C 292.675 -2.8119 -5.6667 0
M  V30 2974 C 291.339 -3.15094 -5.88449 0
M  V30 2975 H 290.609 0.040279 -0.739904 0
M  V30 2976 H 293.256 -0.601696 -1.81802 0
M  V30 2977 H 291.561 1.15554 -3.74372 0
M  V30 2978 H 293.258 0.80996 -3.92735 0
M  V30 2979 H 289.848 -0.58796 -4.24548 0
M  V30 2980 H 294.032 -1.42686 -4.75347 0
M  V30 2981 H 289.288 -2.6076 -5.53005 0
M  V30 2982 H 293.462 -3.44585 -6.05173 0
M  V30 2983 H 291.089 -4.04204 -6.43835 0
M  V30 2984 N 292.664 1.56529 -0.183458 0
M  V30 2985 C 293.892 2.01623 0.464285 0
M  V30 2986 C 294.307 1.06366 1.55986 0
M  V30 2987 O 293.664 0.0665398 1.82379 0
M  V30 2988 C 293.715 3.46475 1.03139 0
M  V30 2989 O 293.436 4.38095 -0.0204675 0
M  V30 2990 C 294.937 4.0703 1.75617 0
M  V30 2991 H 292.157 0.660596 0.117704 0
M  V30 2992 H 294.701 2.02451 -0.288751 0
M  V30 2993 H 292.856 3.46383 1.73486 0
M  V30 2994 H 293.27 5.22973 0.399952 0
M  V30 2995 H 294.744 5.10271 2.10542 0
M  V30 2996 H 295.221 3.49819 2.65563 0
M  V30 2997 H 295.827 4.1086 1.09882 0
M  V30 2998 N 294.142 -0.090211 1.57342 0
M  V30 2999 C 295.09 -1.12792 2.03422 0
M  V30 3000 C 296.084 -1.41182 0.936166 0
M  V30 3001 O 297.29 -1.40805 1.12133 0
M  V30 3002 H 293.665 -0.380986 0.648347 0
M  V30 3003 H 295.636 -0.71299 2.89757 0
M  V30 3004 C 294.385 -2.43855 2.47851 0
M  V30 3005 H 293.708 -2.22855 3.31927 0
M  V30 3006 H 295.148 -3.14955 2.83865 0
M  V30 3007 C 293.607 -3.08503 1.3538 0
M  V30 3008 O 294.137 -3.95805 0.685641 0
M  V30 3009 N 292.343 -2.68831 1.10355 0
M  V30 3010 H 291.89 -1.97929 1.64869 0
M  V30 3011 H 291.848 -3.12412 0.353031 0
M  V30 3012 N 295.62 -1.53406 -0.361157 0
M  V30 3013 C 296.57 -1.76536 -1.44287 0
M  V30 3014 C 297.554 -0.620019 -1.48474 0
M  V30 3015 O 298.746 -0.878834 -1.53641 0
M  V30 3016 C 295.875 -1.96266 -2.81664 0
M  V30 3017 C 294.961 -3.16815 -2.81938 0
M  V30 3018 N 295.352 -4.38637 -2.51855 0
M  V30 3019 C 293.65 -3.17627 -3.13096 0
M  V30 3020 C 294.351 -5.20401 -2.59919 0
M  V30 3021 N 293.327 -4.56712 -2.94814 0
M  V30 3022 H 297.129 -2.68331 -1.19899 0
M  V30 3023 H 294.643 -1.52091 -0.56938 0
M  V30 3024 H 296.64 -2.10966 -3.59582 0
M  V30 3025 H 295.3 -1.05702 -3.07013 0
M  V30 3026 H 296.311 -4.66293 -2.25369 0
M  V30 3027 H 292.988 -2.36971 -3.43731 0
M  V30 3028 H 294.378 -6.27586 -2.39969 0
M  V30 3029 N 297.098 0.621204 -1.44841 0
M  V30 3030 C 298.344 1.38073 -1.49357 0
M  V30 3031 C 298.699 1.91973 -0.128115 0
M  V30 3032 O 297.992 1.71311 0.858087 0
M  V30 3033 C 298.186 2.55675 -2.4973 0
M  V30 3034 C 298.015 2.13289 -3.95901 0
M  V30 3035 C 296.785 2.001 -4.63991 0
M  V30 3036 C 298.983 1.7159 -4.84831 0
M  V30 3037 N 296.965 1.51381 -5.94943 0
M  V30 3038 C 298.336 1.34188 -6.05304 0
M  V30 3039 C 300.391 1.59059 -4.7181 0
M  V30 3040 C 299.094 0.855085 -7.14199 0
M  V30 3041 C 301.12 1.11784 -5.8074 0
M  V30 3042 C 300.482 0.753385 -7.0036 0
M  V30 3043 H 296.581 0.499675 -0.601539 0
M  V30 3044 H 299.165 0.711609 -1.8123 0
M  V30 3045 H 297.336 3.20201 -2.19832 0
M  V30 3046 H 299.068 3.22509 -2.4448 0
M  V30 3047 H 295.823 2.20863 -4.18947 0
M  V30 3048 H 296.247 1.29293 -6.64539 0
M  V30 3049 H 300.889 1.85865 -3.79755 0
M  V30 3050 H 298.607 0.574552 -8.06055 0
M  V30 3051 H 302.193 1.02533 -5.72694 0
M  V30 3052 H 301.073 0.393183 -7.83214 0
M  V30 3053 N 298.576 1.31904 0.862503 0
M  V30 3054 C 299.822 1.22197 1.61851 0
M  V30 3055 C 300.155 -0.217641 1.92977 0
M  V30 3056 O 299.43 -1.15264 1.56666 0
M  V30 3057 C 299.713 2.07378 2.94391 0
M  V30 3058 C 299.566 3.59678 2.70096 0
M  V30 3059 C 300.885 1.92891 3.95577 0
M  V30 3060 H 298.004 0.445255 0.587296 0
M  V30 3061 H 300.646 1.6177 0.99651 0
M  V30 3062 H 298.796 1.73758 3.47477 0
M  V30 3063 H 300.468 4.03472 2.23625 0
M  V30 3064 H 298.711 3.82735 2.04197 0
M  V30 3065 H 299.382 4.14595 3.64438 0
M  V30 3066 H 301.858 2.22327 3.51724 0
M  V30 3067 H 300.734 2.54781 4.86187 0
M  V30 3068 H 300.995 0.894315 4.3296 0
M  V30 3069 N 300.054 -1.07777 1.14986 0
M  V30 3070 C 301.284 -1.83752 0.944402 0
M  V30 3071 C 301.692 -1.8218 -0.51058 0
M  V30 3072 O 301.035 -1.22852 -1.36576 0
M  V30 3073 C 301.097 -3.32128 1.37592 0
M  V30 3074 C 300.761 -3.57425 2.84775 0
M  V30 3075 C 301.758 -3.5173 3.8286 0
M  V30 3076 C 299.443 -3.8523 3.2234 0
M  V30 3077 C 301.437 -3.73482 5.16517 0
M  V30 3078 C 299.124 -4.06634 4.56171 0
M  V30 3079 C 300.122 -4.00754 5.53069 0
M  V30 3080 O 299.81 -4.2159 6.84483 0
M  V30 3081 H 299.542 -0.58673 0.335744 0
M  V30 3082 H 302.096 -1.36982 1.53052 0
M  V30 3083 H 300.326 -3.79686 0.733165 0
M  V30 3084 H 302.015 -3.89555 1.14024 0
M  V30 3085 H 302.781 -3.30256 3.55184 0
M  V30 3086 H 298.66 -3.88923 2.47508 0
M  V30 3087 H 302.204 -3.68808 5.92137 0
M  V30 3088 H 298.101 -4.27593 4.83564 0
M  V30 3089 H 298.869 -4.38961 6.90837 0
M  V30 3090 N 301.532 -0.945985 -1.26051 0
M  V30 3091 C 302.778 -0.606539 -1.94146 0
M  V30 3092 C 303.133 0.84586 -1.72809 0
M  V30 3093 O 302.426 1.59781 -1.05738 0
M  V30 3094 C 302.62 -0.890475 -3.46129 0
M  V30 3095 C 302.449 -2.36892 -3.82246 0
M  V30 3096 C 301.219 -3.02494 -4.04753 0
M  V30 3097 C 303.417 -3.34772 -3.90425 0
M  V30 3098 N 301.399 -4.40302 -4.27794 0
M  V30 3099 C 302.77 -4.57855 -4.18054 0
M  V30 3100 C 304.825 -3.2973 -3.73072 0
M  V30 3101 C 303.528 -5.76522 -4.30134 0
M  V30 3102 C 305.554 -4.47727 -3.86386 0
M  V30 3103 C 304.916 -5.69593 -4.14419 0
M  V30 3104 H 301.015 -0.272407 -0.73302 0
M  V30 3105 H 303.599 -1.21638 -1.52027 0
M  V30 3106 H 301.77 -0.309638 -3.87164 0
M  V30 3107 H 303.502 -0.51181 -4.01451 0
M  V30 3108 H 300.257 -2.53095 -4.003 0
M  V30 3109 H 300.681 -5.11646 -4.43337 0
M  V30 3110 H 305.323 -2.36565 -3.50424 0
M  V30 3111 H 303.041 -6.70136 -4.51601 0
M  V30 3112 H 306.627 -4.45363 -3.74356 0
M  V30 3113 H 305.507 -6.59375 -4.24493 0
M  V30 3114 N 303.011 1.40521 -0.713556 0
M  V30 3115 C 304.257 2.01221 -0.252564 0
M  V30 3116 C 304.59 1.56444 1.1506 0
M  V30 3117 O 303.865 0.783597 1.78017 0
M  V30 3118 C 304.148 3.58582 -0.330332 0
M  V30 3119 C 304.001 4.13437 -1.77173 0
M  V30 3120 C 305.32 4.39079 0.299641 0
M  V30 3121 H 302.439 0.731077 -0.0932471 0
M  V30 3122 H 305.081 1.67026 -0.905673 0
M  V30 3123 H 303.231 3.87844 0.225737 0
M  V30 3124 H 304.903 3.9498 -2.38303 0
M  V30 3125 H 303.146 3.67801 -2.3001 0
M  V30 3126 H 303.817 5.22597 -1.77755 0
M  V30 3127 H 306.293 4.15735 -0.174139 0
M  V30 3128 H 305.169 5.4848 0.214771 0
M  V30 3129 H 305.43 4.19915 1.38288 0
M  V30 3130 N 304.489 0.459591 1.5075 0
M  V30 3131 C 305.737 -0.0991532 2.01857 0
M  V30 3132 C 306.058 -1.41247 1.34441 0
M  V30 3133 O 305.328 -1.89775 0.486022 0
M  V30 3134 H 303.908 -0.039633 0.745948 0
M  V30 3135 H 306.57 0.607387 1.85194 0
M  V30 3136 H 305.666 -0.258998 3.11023 0
M  V30 3137 N 305.967 -1.56429 0.191757 0
M  V30 3138 C 307.378 -1.83912 -0.321428 0
M  V30 3139 C 307.729 -1.11231 -1.61623 0
M  V30 3140 O 306.854 -0.37202 -2.13178 0
M  V30 3141 C 307.449 -3.33624 -0.589961 0
M  V30 3142 C 306.008 -3.6153 -1.04753 0
M  V30 3143 C 305.155 -2.7714 -0.0943327 0
M  V30 3144 H 308.106 -1.53161 0.415612 0
M  V30 3145 H 308.127 -3.52213 -1.43966 0
M  V30 3146 H 307.639 -3.86495 0.352588 0
M  V30 3147 H 305.74 -3.14089 -2.00447 0
M  V30 3148 H 305.853 -4.69737 -0.942549 0
M  V30 3149 H 304.217 -2.47638 -0.595589 0
M  V30 3150 H 305 -3.32799 0.842601 0
M  V30 3151 N 307.445 0.0818655 -1.57387 0
M  V30 3152 C 308.694 0.781681 -1.85937 0
M  V30 3153 C 309.007 1.79246 -0.782957 0
M  V30 3154 O 310.213 2.54112 -0.955987 0
M  V30 3155 C 308.669 1.44109 -3.29789 0
M  V30 3156 C 308.277 0.469396 -4.45534 0
M  V30 3157 C 310.021 2.12386 -3.67549 0
M  V30 3158 C 307.928 1.13415 -5.80423 0
M  V30 3159 H 306.858 0.295682 -0.693605 0
M  V30 3160 H 309.509 0.0348051 -1.83467 0
M  V30 3161 H 307.891 2.23588 -3.2684 0
M  V30 3162 H 309.065 -0.294856 -4.59856 0
M  V30 3163 H 307.38 -0.108383 -4.16259 0
M  V30 3164 H 309.977 2.62878 -4.65617 0
M  V30 3165 H 310.32 2.91877 -2.96839 0
M  V30 3166 H 310.853 1.39751 -3.72444 0
M  V30 3167 H 307.592 0.379771 -6.54399 0
M  V30 3168 H 307.112 1.8695 -5.69921 0
M  V30 3169 H 308.791 1.65686 -6.25426 0
M  V30 3170 N 308.923 1.53595 0.353017 0
M  V30 3171 C 310.172 1.69603 1.09168 0
M  V30 3172 C 310.485 0.460925 1.90092 0
M  V30 3173 O 311.691 0.501774 2.66823 0
M  V30 3174 C 310.147 2.99872 1.9901 0
M  V30 3175 C 309.755 4.30687 1.23339 0
M  V30 3176 C 311.499 3.25246 2.72792 0
M  V30 3177 C 309.406 5.52036 2.12156 0
M  V30 3178 H 308.336 0.631966 0.411261 0
M  V30 3179 H 310.987 1.80096 0.351802 0
M  V30 3180 H 309.369 2.83212 2.7678 0
M  V30 3181 H 310.543 4.58019 0.505456 0
M  V30 3182 H 308.858 4.11853 0.613663 0
M  V30 3183 H 311.455 4.13095 3.39495 0
M  V30 3184 H 311.798 2.41846 3.38846 0
M  V30 3185 H 312.331 3.42638 2.021 0
M  V30 3186 H 309.07 6.37951 1.50659 0
M  V30 3187 H 308.59 5.28966 2.82764 0
M  V30 3188 H 310.269 5.87313 2.71427 0
M  V30 3189 N 310.401 -0.613514 1.45168 0
M  V30 3190 C 311.649 -1.36997 1.48581 0
M  V30 3191 C 311.97 -1.94589 0.126545 0
M  V30 3192 O 311.24 -1.76816 -0.843372 0
M  V30 3193 H 309.82 -0.508558 0.547154 0
M  V30 3194 H 312.482 -0.720853 1.81079 0
M  V30 3195 H 311.578 -2.1924 2.22127 0
M  V30 3196 N 311.879 -1.3236 -0.855495 0
M  V30 3197 C 313.127 -1.22629 -1.60644 0
M  V30 3198 C 313.448 0.212136 -1.93843 0
M  V30 3199 O 312.718 1.13666 -1.59552 0
M  V30 3200 H 311.298 -0.450882 -0.595579 0
M  V30 3201 H 313.96 -1.65871 -1.02337 0
M  V30 3202 H 313.056 -1.80832 -2.54374 0
M  V30 3203 N 313.357 1.07166 -1.15556 0
M  V30 3204 C 314.605 1.79443 -0.929764 0
M  V30 3205 C 314.926 1.87246 0.544414 0
M  V30 3206 O 314.196 1.37473 1.39564 0
M  V30 3207 H 312.776 0.664625 -0.341003 0
M  V30 3208 H 315.438 1.29499 -1.45657 0
M  V30 3209 H 314.534 2.81832 -1.34079 0
M  V30 3210 N 314.835 0.952656 1.25548 0
M  V30 3211 C 315.765 0.489287 2.28316 0
M  V30 3212 C 316.746 -0.463359 1.63667 0
M  V30 3213 O 317.931 -0.36274 1.90782 0
M  V30 3214 C 315.061 -0.235603 3.465 0
M  V30 3215 C 314.015 0.631593 4.23314 0
M  V30 3216 C 313.341 -0.223923 5.34231 0
M  V30 3217 C 314.641 1.90871 4.86174 0
M  V30 3218 H 316.335 1.34822 2.67326 0
M  V30 3219 H 313.881 0.649728 1.28509 0
M  V30 3220 H 315.834 -0.570882 4.17515 0
M  V30 3221 H 314.558 -1.12877 3.06474 0
M  V30 3222 H 313.217 0.949929 3.54079 0
M  V30 3223 H 312.865 -1.11678 4.90446 0
M  V30 3224 H 312.565 0.35299 5.86539 0
M  V30 3225 H 314.089 -0.554214 6.0808 0
M  V30 3226 H 315.503 1.63997 5.49343 0
M  V30 3227 H 313.9 2.43112 5.4865 0
M  V30 3228 H 314.97 2.61304 4.08471 0
M  V30 3229 N 316.313 -1.40141 0.720998 0
M  V30 3230 C 317.561 -2.0039 0.262323 0
M  V30 3231 C 317.882 -1.57469 -1.15015 0
M  V30 3232 O 317.152 -0.816582 -1.78069 0
M  V30 3233 H 315.732 -0.741063 0.093996 0
M  V30 3234 H 318.394 -1.71398 0.927835 0
M  V30 3235 H 317.49 -3.10658 0.299671 0
M  V30 3236 N 317.792 -0.46758 -1.50504 0
M  V30 3237 C 319.017 0.0886943 -2.0721 0
M  V30 3238 C 319.442 1.33057 -1.32956 0
M  V30 3239 O 318.8 1.77354 -0.376197 0
M  V30 3240 C 318.848 0.359202 -3.58806 0
M  V30 3241 O 317.952 1.44034 -3.8643 0
M  V30 3242 H 317.293 -0.0114349 -0.663902 0
M  V30 3243 H 319.823 -0.657613 -1.93744 0
M  V30 3244 H 319.833 0.600742 -4.03553 0
M  V30 3245 H 318.508 -0.548311 -4.1227 0
M  V30 3246 H 317.085 1.18638 -3.53524 0
M  V30 3247 N 319.27 1.56325 -0.20005 0
M  V30 3248 C 320.2 2.22318 0.713916 0
M  V30 3249 C 321.181 1.18788 1.21752 0
M  V30 3250 O 322.366 1.47309 1.26545 0
M  V30 3251 C 319.496 2.88639 1.93144 0
M  V30 3252 C 318.45 3.98457 1.56255 0
M  V30 3253 C 317.776 4.51967 2.85709 0
M  V30 3254 C 319.076 5.16612 0.768747 0
M  V30 3255 H 320.77 2.98952 0.163755 0
M  V30 3256 H 318.316 1.43792 0.0773219 0
M  V30 3257 H 320.269 3.33491 2.57608 0
M  V30 3258 H 318.993 2.09419 2.50621 0
M  V30 3259 H 317.652 3.54305 0.941471 0
M  V30 3260 H 317.3 3.69503 3.41287 0
M  V30 3261 H 317 5.26071 2.6177 0
M  V30 3262 H 318.524 4.99523 3.51154 0
M  V30 3263 H 319.938 5.57977 1.3166 0
M  V30 3264 H 318.335 5.96812 0.627286 0
M  V30 3265 H 319.405 4.84358 -0.229168 0
M  V30 3266 N 320.748 -0.0735177 1.57428 0
M  V30 3267 C 321.678 -1.0879 2.06608 0
M  V30 3268 C 322.659 -1.40473 0.959237 0
M  V30 3269 O 323.844 -1.5013 1.23185 0
M  V30 3270 C 320.974 -2.40183 2.50857 0
M  V30 3271 C 319.928 -2.22858 3.65402 0
M  V30 3272 C 319.254 -3.59619 3.957 0
M  V30 3273 C 320.554 -1.65123 4.95511 0
M  V30 3274 H 322.248 -0.678673 2.91607 0
M  V30 3275 H 319.794 -0.325013 1.40284 0
M  V30 3276 H 321.747 -3.11437 2.83874 0
M  V30 3277 H 320.471 -2.83083 1.62885 0
M  V30 3278 H 319.13 -1.54045 3.32664 0
M  V30 3279 H 318.778 -4.00086 3.04861 0
M  V30 3280 H 318.478 -3.48866 4.72828 0
M  V30 3281 H 320.002 -4.32306 4.31212 0
M  V30 3282 H 321.416 -2.26241 5.26771 0
M  V30 3283 H 319.813 -1.65071 5.7695 0
M  V30 3284 H 320.883 -0.612559 4.81015 0
M  V30 3285 N 322.226 -1.5378 -0.344866 0
M  V30 3286 C 323.456 -1.74646 -1.10374 0
M  V30 3287 C 323.864 -0.48491 -1.8288 0
M  V30 3288 O 323.207 0.553062 -1.75177 0
M  V30 3289 C 323.269 -2.87145 -2.16306 0
M  V30 3290 C 322.933 -4.26795 -1.63386 0
M  V30 3291 C 323.93 -5.08412 -1.08688 0
M  V30 3292 C 321.615 -4.73276 -1.68272 0
M  V30 3293 C 323.609 -6.34609 -0.595792 0
M  V30 3294 C 321.296 -5.99446 -1.18776 0
M  V30 3295 C 322.294 -6.79946 -0.645215 0
M  V30 3296 O 321.982 -8.03745 -0.157626 0
M  V30 3297 H 321.714 -0.587112 -0.335075 0
M  V30 3298 H 324.268 -2.01403 -0.403252 0
M  V30 3299 H 322.498 -2.55909 -2.89909 0
M  V30 3300 H 324.187 -2.95992 -2.77747 0
M  V30 3301 H 324.953 -4.73666 -1.04236 0
M  V30 3302 H 320.832 -4.10677 -2.09442 0
M  V30 3303 H 324.376 -6.97389 -0.171654 0
M  V30 3304 H 320.273 -6.33687 -1.22928 0
M  V30 3305 H 321.041 -8.18038 -0.275037 0
M  V30 3306 N 323.704 0.605807 -1.45491 0
M  V30 3307 C 324.981 1.36522 -1.40075 0
M  V30 3308 C 325.361 2.10976 -0.0722744 0
M  V30 3309 O 324.709 2.08007 0.945808 0
M  V30 3310 C 324.919 2.31056 -2.61561 0
M  V30 3311 C 326.267 2.93608 -3.06724 0
M  V30 3312 O 327.291 2.41376 -2.61946 0
M  V30 3313 O 326.15 3.88421 -3.84437 0
M  V30 3314 H 323.244 0.612248 -0.555951 0
M  V30 3315 H 325.79 0.628747 -1.57623 0
M  V30 3316 H 324.562 1.75311 -3.49831 0
M  V30 3317 H 324.185 3.12081 -2.46356 0
M  V30 3318 N 325.182 1.32811 0.848464 0
M  V30 3319 C 326.429 1.23724 1.60308 0
M  V30 3320 C 326.757 -0.1994 1.93475 0
M  V30 3321 O 326.012 -1.15406 1.5805 0
M  V30 3322 C 326.311 2.04831 2.92881 0
M  V30 3323 C 325.977 3.54125 2.79117 0
M  V30 3324 C 324.639 3.94829 2.7507 0
M  V30 3325 C 326.991 4.49036 2.64606 0
M  V30 3326 C 324.319 5.28675 2.544 0
M  V30 3327 C 326.671 5.83033 2.4547 0
M  V30 3328 C 325.335 6.22931 2.39819 0
M  V30 3329 H 324.605 0.452737 0.586609 0
M  V30 3330 H 327.252 1.64301 0.983743 0
M  V30 3331 H 325.557 1.57001 3.58968 0
M  V30 3332 H 327.254 1.95164 3.50303 0
M  V30 3333 H 323.844 3.21801 2.83094 0
M  V30 3334 H 328.028 4.18505 2.66772 0
M  V30 3335 H 323.284 5.58637 2.48465 0
M  V30 3336 H 327.458 6.56186 2.33222 0
M  V30 3337 H 325.085 7.26584 2.23562 0
M  V30 3338 N 326.66 -1.06551 1.16123 0
M  V30 3339 C 327.59 -2.15935 0.88851 0
M  V30 3340 C 328.571 -1.69306 -0.164135 0
M  V30 3341 O 329.756 -1.94193 -0.0167857 0
M  V30 3342 C 326.886 -3.45149 0.385942 0
M  V30 3343 C 325.84 -4.05271 1.3762 0
M  V30 3344 C 325.166 -5.29664 0.732137 0
M  V30 3345 C 326.466 -4.44355 2.74493 0
M  V30 3346 H 328.16 -2.39006 1.80323 0
M  V30 3347 H 325.706 -1.14866 0.868435 0
M  V30 3348 H 327.659 -4.21004 0.182647 0
M  V30 3349 H 326.383 -3.21689 -0.564274 0
M  V30 3350 H 325.042 -3.3147 1.56599 0
M  V30 3351 H 324.69 -5.02499 -0.224483 0
M  V30 3352 H 324.39 -5.70848 1.39307 0
M  V30 3353 H 325.914 -6.08218 0.538802 0
M  V30 3354 H 327.328 -5.11303 2.59311 0
M  V30 3355 H 325.725 -4.96515 3.37035 0
M  V30 3356 H 326.795 -3.55339 3.29943 0
M  V30 3357 N 328.138 -0.959301 -1.25041 0
M  V30 3358 C 329.068 -0.501388 -2.28053 0
M  V30 3359 C 330.049 0.454673 -1.63911 0
M  V30 3360 O 331.234 0.352618 -1.90972 0
M  V30 3361 C 328.364 0.217224 -3.4662 0
M  V30 3362 C 327.318 -0.654034 -4.22973 0
M  V30 3363 C 326.644 0.195589 -5.34342 0
M  V30 3364 C 327.944 -1.93447 -4.85155 0
M  V30 3365 H 329.638 -1.36238 -2.66608 0
M  V30 3366 H 327.184 -0.656534 -1.28163 0
M  V30 3367 H 329.137 0.548732 -4.17812 0
M  V30 3368 H 327.861 1.1125 -3.07068 0
M  V30 3369 H 326.52 -0.968693 -3.5357 0
M  V30 3370 H 326.168 1.09076 -4.91031 0
M  V30 3371 H 325.868 -0.384091 -5.86343 0
M  V30 3372 H 327.392 0.521958 -6.08365 0
M  V30 3373 H 328.806 -1.66908 -5.48466 0
M  V30 3374 H 327.203 -2.46018 -5.47353 0
M  V30 3375 H 328.273 -2.63466 -4.07079 0
M  V30 3376 N 329.616 1.39756 -0.72842 0
M  V30 3377 C 330.863 2.00645 -0.273487 0
M  V30 3378 C 331.191 1.57786 1.13727 0
M  V30 3379 O 330.446 0.794886 1.7883 0
M  V30 3380 C 330.745 3.56002 -0.315776 0
M  V30 3381 C 330.411 4.18489 -1.67863 0
M  V30 3382 C 329.073 4.3527 -2.05166 0
M  V30 3383 C 331.425 4.53219 -2.57375 0
M  V30 3384 C 328.753 4.84069 -3.31503 0
M  V30 3385 C 331.105 5.03423 -3.83077 0
M  V30 3386 C 329.769 5.18413 -4.20481 0
M  V30 3387 H 329.039 0.734211 -0.100076 0
M  V30 3388 H 331.686 1.6718 -0.933972 0
M  V30 3389 H 329.991 3.89452 0.428285 0
M  V30 3390 H 331.688 4.00963 0.0542575 0
M  V30 3391 H 328.278 4.05824 -1.37858 0
M  V30 3392 H 332.462 4.39878 -2.29827 0
M  V30 3393 H 327.718 4.93859 -3.60435 0
M  V30 3394 H 331.892 5.2927 -4.52599 0
M  V30 3395 H 329.519 5.55987 -5.18443 0
M  V30 3396 N 331.094 0.475555 1.50254 0
M  V30 3397 C 332.505 0.0215174 1.86688 0
M  V30 3398 C 332.856 -1.38467 1.39001 0
M  V30 3399 O 331.981 -2.02732 0.756894 0
M  V30 3400 C 332.576 0.0322715 3.38785 0
M  V30 3401 C 331.135 -0.366314 3.74613 0
M  V30 3402 C 330.282 0.415832 2.74164 0
M  V30 3403 H 333.233 0.689612 1.42934 0
M  V30 3404 H 333.254 -0.76889 3.7265 0
M  V30 3405 H 332.766 1.05584 3.73462 0
M  V30 3406 H 330.867 -1.39406 3.45538 0
M  V30 3407 H 330.98 -0.064555 4.79057 0
M  V30 3408 H 329.344 -0.131048 2.54363 0
M  V30 3409 H 330.127 1.43899 3.11686 0
M  V30 3410 N 332.573 -1.56217 0.208337 0
M  V30 3411 C 333.989 -1.58919 -0.14729 0
M  V30 3412 C 334.189 -1.22486 -1.59998 0
M  V30 3413 O 333.245 -0.953849 -2.3379 0
M  V30 3414 C 334.558 -3.00236 0.167048 0
M  V30 3415 C 336.106 -3.12813 0.108219 0
M  V30 3416 C 336.581 -4.56284 0.396049 0
M  V30 3417 N 338.072 -4.61912 0.345142 0
M  V30 3418 C 338.807 -5.70837 0.541523 0
M  V30 3419 N 338.303 -6.88178 0.798968 0
M  V30 3420 N 340.096 -5.60091 0.474867 0
M  V30 3421 H 332.247 -1.78177 1.15614 0
M  V30 3422 H 334.51 -0.827555 0.462446 0
M  V30 3423 H 334.216 -3.31499 1.1748 0
M  V30 3424 H 334.09 -3.7354 -0.524184 0
M  V30 3425 H 336.477 -2.81354 -0.890157 0
M  V30 3426 H 336.558 -2.41866 0.832729 0
M  V30 3427 H 336.202 -4.88458 1.3918 0
M  V30 3428 H 336.132 -5.25439 -0.349502 0
M  V30 3429 H 338.623 -3.77589 0.153316 0
M  V30 3430 H 338.936 -7.67095 0.93727 0
M  V30 3431 H 337.281 -6.89953 0.836013 0
M  V30 3432 H 340.472 -4.67297 0.274064 0
M  V30 3433 H 340.645 -6.44917 0.631326 0
M  V30 3434 N 334.051 0.0651679 -1.57465 0
M  V30 3435 C 334.981 1.07693 -2.07182 0
M  V30 3436 C 335.962 1.39962 -0.966673 0
M  V30 3437 O 337.147 1.49475 -1.2398 0
M  V30 3438 C 334.277 2.3885 -2.52127 0
M  V30 3439 C 333.231 2.20917 -3.66579 0
M  V30 3440 C 332.557 3.57515 -3.97601 0
M  V30 3441 C 333.857 1.62493 -4.9638 0
M  V30 3442 H 335.551 0.663199 -2.91962 0
M  V30 3443 H 333.097 0.317569 -1.40455 0
M  V30 3444 H 335.05 3.09928 -2.85522 0
M  V30 3445 H 333.774 2.82215 -1.64384 0
M  V30 3446 H 332.433 1.52279 -3.33477 0
M  V30 3447 H 332.081 3.98463 -3.06979 0
M  V30 3448 H 331.781 3.46353 -4.74672 0
M  V30 3449 H 333.305 4.30013 -4.33499 0
M  V30 3450 H 334.719 2.23445 -5.27963 0
M  V30 3451 H 333.116 1.62009 -5.77818 0
M  V30 3452 H 334.186 0.587041 -4.81333 0
M  V30 3453 N 335.529 1.53961 0.336706 0
M  V30 3454 C 336.476 1.82428 1.41381 0
M  V30 3455 C 337.446 0.670444 1.51968 0
M  V30 3456 O 338.631 0.915565 1.67398 0
M  V30 3457 C 335.771 2.04564 2.77934 0
M  V30 3458 C 334.884 3.32267 2.76084 0
M  V30 3459 C 334.019 3.44434 4.04399 0
M  V30 3460 C 333.058 4.66061 3.96804 0
M  V30 3461 N 332.195 4.75224 5.16823 0
M  V30 3462 H 337.035 2.74324 1.16405 0
M  V30 3463 H 334.572 1.35869 0.563752 0
M  V30 3464 H 336.53 2.15388 3.57301 0
M  V30 3465 H 335.16 1.15974 3.01247 0
M  V30 3466 H 334.212 3.3025 1.88784 0
M  V30 3467 H 335.524 4.21733 2.66351 0
M  V30 3468 H 334.678 3.54728 4.92192 0
M  V30 3469 H 333.417 2.53037 4.16921 0
M  V30 3470 H 332.422 4.55838 3.07396 0
M  V30 3471 H 333.647 5.58829 3.85858 0
M  V30 3472 H 331.593 3.86739 5.29876 0
M  V30 3473 H 331.51 5.58636 5.09374 0
M  V30 3474 H 332.778 4.89835 6.06367 0
M  V30 3475 N 337.007 -0.598083 1.45811 0
M  V30 3476 C 338.232 -1.3881 1.54099 0
M  V30 3477 C 338.657 -1.8726 0.177578 0
M  V30 3478 O 338.015 -1.6069 -0.839541 0
M  V30 3479 C 338.063 -2.56217 2.53743 0
M  V30 3480 O 337.167 -3.5716 2.06182 0
M  V30 3481 H 336.508 -0.414024 0.519115 0
M  V30 3482 H 339.038 -0.726971 1.91249 0
M  V30 3483 H 339.048 -3.03337 2.72856 0
M  V30 3484 H 337.723 -2.20303 3.5276 0
M  V30 3485 H 336.3 -3.16624 1.96987 0
M  V30 3486 N 338.485 -1.33259 -0.841409 0
M  V30 3487 C 339.734 -1.23921 -1.59143 0
M  V30 3488 C 340.047 0.1941 -1.94635 0
M  V30 3489 O 341.253 0.409474 -2.68394 0
M  V30 3490 C 339.709 -2.17119 -2.87032 0
M  V30 3491 C 339.317 -3.65606 -2.58914 0
M  V30 3492 C 341.061 -2.16648 -3.65053 0
M  V30 3493 C 338.968 -4.50726 -3.82884 0
M  V30 3494 H 337.898 -0.460264 -0.597221 0
M  V30 3495 H 340.549 -1.58307 -0.927959 0
M  V30 3496 H 338.931 -1.75663 -3.54906 0
M  V30 3497 H 340.105 -4.15487 -1.99267 0
M  V30 3498 H 338.42 -3.68341 -1.942 0
M  V30 3499 H 341.017 -2.77474 -4.57069 0
M  V30 3500 H 341.36 -1.16088 -3.99787 0
M  V30 3501 H 341.893 -2.56453 -3.041 0
M  V30 3502 H 338.632 -5.52151 -3.53283 0
M  V30 3503 H 338.152 -4.0559 -4.41879 0
M  V30 3504 H 339.831 -4.64401 -4.50489 0
M  V30 3505 N 339.963 1.05934 -1.16686 0
M  V30 3506 C 341.188 1.83029 -0.975455 0
M  V30 3507 C 341.613 1.82096 0.471452 0
M  V30 3508 O 340.971 1.22443 1.33706 0
M  V30 3509 C 341.019 3.27372 -1.51195 0
M  V30 3510 O 340.123 4.06054 -0.720701 0
M  V30 3511 H 339.464 0.566194 -0.346872 0
M  V30 3512 H 341.994 1.33541 -1.55009 0
M  V30 3513 H 342.004 3.78186 -1.53099 0
M  V30 3514 H 340.679 3.27366 -2.56523 0
M  V30 3515 H 339.256 3.64812 -0.772458 0
M  V30 3516 N 341.441 0.965919 1.2453 0
M  V30 3517 C 342.351 0.502154 2.29163 0
M  V30 3518 C 343.367 -0.436017 1.68448 0
M  V30 3519 O 344.543 -0.309497 1.99008 0
M  V30 3520 C 341.608 -0.201956 3.46111 0
M  V30 3521 C 340.669 0.775821 4.22232 0
M  V30 3522 C 339.902 0.105217 5.33596 0
M  V30 3523 O 340.125 -1.10683 5.59558 0
M  V30 3524 O 339.059 0.796475 5.96607 0
M  V30 3525 H 342.885 1.37194 2.70946 0
M  V30 3526 H 340.47 0.732875 1.30189 0
M  V30 3527 H 342.352 -0.597564 4.17142 0
M  V30 3528 H 341.027 -1.04673 3.06309 0
M  V30 3529 H 339.934 1.22185 3.53584 0
M  V30 3530 H 341.267 1.58896 4.65846 0
M  V30 3531 N 342.919 -1.39368 0.735821 0
M  V30 3532 C 344.335 -1.54204 0.411492 0
M  V30 3533 C 344.535 -1.70268 -1.07755 0
M  V30 3534 O 343.591 -1.70364 -1.86366 0
M  V30 3535 C 344.904 -2.75925 1.19523 0
M  V30 3536 C 346.452 -2.89761 1.18354 0
M  V30 3537 C 346.927 -4.14421 1.94986 0
M  V30 3538 N 348.418 -4.21462 1.92156 0
M  V30 3539 C 349.153 -5.16871 2.48258 0
M  V30 3540 N 348.649 -6.18063 3.13001 0
M  V30 3541 N 350.442 -5.09093 2.38287 0
M  V30 3542 H 342.593 -1.27189 1.70108 0
M  V30 3543 H 344.856 -0.616517 0.720147 0
M  V30 3544 H 344.562 -2.70401 2.24892 0
M  V30 3545 H 344.436 -3.68614 0.800222 0
M  V30 3546 H 346.823 -2.94777 0.137975 0
M  V30 3547 H 346.904 -1.98133 1.61793 0
M  V30 3548 H 346.548 -4.10166 2.99543 0
M  V30 3549 H 346.478 -5.05095 1.48953 0
M  V30 3550 H 348.969 -3.48979 1.44991 0
M  V30 3551 H 349.282 -6.87326 3.53275 0
M  V30 3552 H 347.627 -6.18448 3.17091 0
M  V30 3553 H 350.818 -4.28973 1.8735 0
M  V30 3554 H 350.991 -5.83272 2.82308 0
M  V30 3555 N 344.397 -0.483516 -1.5 0
M  V30 3556 C 345.327 0.293829 -2.31644 0
M  V30 3557 C 346.308 0.978864 -1.39112 0
M  V30 3558 O 347.493 0.973644 -1.68029 0
M  V30 3559 C 344.623 1.36897 -3.19181 0
M  V30 3560 C 343.577 0.804833 -4.20365 0
M  V30 3561 C 342.903 1.9792 -4.96721 0
M  V30 3562 C 344.203 -0.192313 -5.21946 0
M  V30 3563 H 345.897 -0.387616 -2.9688 0
M  V30 3564 H 343.443 -0.187856 -1.42769 0
M  V30 3565 H 345.396 1.92037 -3.751 0
M  V30 3566 H 344.12 2.07936 -2.51853 0
M  V30 3567 H 342.779 0.275319 -3.65565 0
M  V30 3568 H 342.427 2.67686 -4.25856 0
M  V30 3569 H 342.127 1.60789 -5.65173 0
M  V30 3570 H 343.651 2.53526 -5.55479 0
M  V30 3571 H 345.065 0.270333 -5.72662 0
M  V30 3572 H 343.462 -0.478543 -5.98189 0
M  V30 3573 H 344.532 -1.11409 -4.71928 0
M  V30 3574 N 345.875 1.56104 -0.216619 0
M  V30 3575 C 347.1 2.0301 0.424462 0
M  V30 3576 C 347.525 1.0955 1.52907 0
M  V30 3577 O 346.883 0.0827914 1.81111 0
M  V30 3578 C 346.931 3.4819 0.937883 0
M  V30 3579 O 346.035 3.57865 2.04955 0
M  V30 3580 H 345.376 0.656925 0.0966755 0
M  V30 3581 H 347.906 2.01859 -0.33381 0
M  V30 3582 H 347.916 3.88413 1.24897 0
M  V30 3583 H 346.591 4.15699 0.129387 0
M  V30 3584 H 345.168 3.29527 1.74546 0
M  V30 3585 N 347.353 -0.0568162 1.57498 0
M  V30 3586 C 348.599 -0.75422 1.88253 0
M  V30 3587 C 348.932 -1.76461 0.810865 0
M  V30 3588 O 348.207 -1.93691 -0.177259 0
M  V30 3589 C 348.49 -1.44878 3.2967 0
M  V30 3590 C 348.343 -0.453789 4.47505 0
M  V30 3591 C 349.662 -2.38994 3.69554 0
M  V30 3592 H 346.781 -0.272724 0.684683 0
M  V30 3593 H 349.423 -0.0172113 1.89992 0
M  V30 3594 H 347.573 -2.077 3.28318 0
M  V30 3595 H 349.245 0.170371 4.60985 0
M  V30 3596 H 347.488 0.229552 4.33192 0
M  V30 3597 H 348.159 -0.977699 5.43273 0
M  V30 3598 H 350.635 -1.86239 3.72095 0
M  V30 3599 H 349.511 -2.84587 4.69363 0
M  V30 3600 H 349.772 -3.24461 3.00296 0
M  V30 3601 N 348.832 -1.54138 -0.328536 0
M  V30 3602 C 349.762 -1.86167 -1.40939 0
M  V30 3603 C 350.743 -0.718044 -1.54202 0
M  V30 3604 O 351.928 -0.971328 -1.68163 0
M  V30 3605 C 349.058 -2.08461 -2.77779 0
M  V30 3606 C 348.012 -3.24299 -2.7931 0
M  V30 3607 C 347.338 -3.31955 -4.19178 0
M  V30 3608 C 348.638 -4.62065 -2.43502 0
M  V30 3609 H 350.332 -2.76689 -1.14383 0
M  V30 3610 H 347.878 -1.33132 -0.548806 0
M  V30 3611 H 349.831 -2.29453 -3.53454 0
M  V30 3612 H 348.555 -1.14684 -3.05802 0
M  V30 3613 H 347.214 -3.03187 -2.0609 0
M  V30 3614 H 346.862 -2.35745 -4.44335 0
M  V30 3615 H 346.562 -4.09805 -4.2111 0
M  V30 3616 H 348.086 -3.55175 -4.96672 0
M  V30 3617 H 349.5 -4.8297 -3.08889 0
M  V30 3618 H 347.897 -5.42429 -2.56693 0
M  V30 3619 H 348.967 -4.64652 -1.38659 0
M  V30 3620 N 350.31 0.590341 -1.46126 0
M  V30 3621 C 351.257 1.69994 -1.56111 0
M  V30 3622 C 352.227 1.61065 -0.405867 0
M  V30 3623 O 353.412 1.8039 -0.621613 0
M  V30 3624 C 350.552 3.08326 -1.55013 0
M  V30 3625 C 349.665 3.27936 -2.81215 0
M  V30 3626 C 348.8 4.56473 -2.71673 0
M  V30 3627 C 347.839 4.694 -3.92849 0
M  V30 3628 N 346.976 5.89254 -3.81738 0
M  V30 3629 H 351.816 1.60797 -2.50895 0
M  V30 3630 H 349.353 0.783799 -1.24479 0
M  V30 3631 H 351.311 3.88383 -1.52362 0
M  V30 3632 H 349.941 3.16439 -0.637667 0
M  V30 3633 H 348.993 2.41536 -2.93879 0
M  V30 3634 H 350.305 3.33357 -3.71045 0
M  V30 3635 H 349.459 5.44748 -2.67085 0
M  V30 3636 H 348.198 4.53477 -1.7947 0
M  V30 3637 H 347.203 3.79544 -3.97777 0
M  V30 3638 H 348.428 4.7418 -4.86138 0
M  V30 3639 H 346.374 5.87271 -2.92317 0
M  V30 3640 H 346.291 5.95911 -4.65217 0
M  V30 3641 H 347.559 6.79981 -3.81112 0
M  V30 3642 N 351.788 1.33704 0.83433 0
M  V30 3643 C 353.036 1.25169 1.58673 0
M  V30 3644 C 353.357 -0.18127 1.94156 0
M  V30 3645 O 352.627 -1.11113 1.6134 0
M  V30 3646 H 351.207 0.4603 0.58833 0
M  V30 3647 H 353.869 1.67478 0.996847 0
M  V30 3648 H 352.965 1.84856 2.51465 0
M  V30 3649 N 353.266 -1.05314 1.17247 0
M  V30 3650 C 354.229 -2.112 0.890357 0
M  V30 3651 C 355.229 -1.60359 -0.118943 0
M  V30 3652 O 356.419 -1.73833 0.113086 0
M  V30 3653 C 353.551 -3.39266 0.333422 0
M  V30 3654 H 354.744 -2.37659 1.82916 0
M  V30 3655 H 352.297 -1.21538 0.982758 0
M  V30 3656 H 353.032 -3.18462 -0.612587 0
M  V30 3657 H 352.817 -3.77477 1.06082 0
M  V30 3658 H 354.307 -4.17315 0.154322 0
M  V30 3659 N 354.744 -0.972509 -1.24016 0
M  V30 3660 C 355.691 -0.505969 -2.25186 0
M  V30 3661 C 356.661 0.451009 -1.5986 0
M  V30 3662 O 357.846 0.360307 -1.87367 0
M  V30 3663 C 354.986 0.193089 -3.44559 0
M  V30 3664 C 354.099 -0.803222 -4.24467 0
M  V30 3665 C 353.234 -0.0797793 -5.3114 0
M  V30 3666 C 352.273 -1.06583 -6.02749 0
M  V30 3667 N 351.41 -0.372074 -7.01113 0
M  V30 3668 H 356.25 -1.37351 -2.64459 0
M  V30 3669 H 353.787 -0.688419 -1.29997 0
M  V30 3670 H 355.745 0.615125 -4.1264 0
M  V30 3671 H 354.375 1.02455 -3.06109 0
M  V30 3672 H 353.427 -1.34368 -3.55878 0
M  V30 3673 H 354.739 -1.55494 -4.73944 0
M  V30 3674 H 353.893 0.400015 -6.0538 0
M  V30 3675 H 352.632 0.704597 -4.82583 0
M  V30 3676 H 351.637 -1.55645 -5.27309 0
M  V30 3677 H 352.862 -1.85074 -6.53395 0
M  V30 3678 H 350.808 0.393238 -6.5482 0
M  V30 3679 H 350.725 -1.06258 -7.48495 0
M  V30 3680 H 351.993 0.0855932 -7.79453 0
M  V30 3681 N 356.222 1.38976 -0.743202 0
M  V30 3682 C 357.633 1.83123 -0.363732 0
M  V30 3683 C 357.984 1.6205 1.10609 0
M  V30 3684 O 357.109 1.11606 1.854 0
M  V30 3685 C 357.704 3.32439 -0.653408 0
M  V30 3686 C 356.263 3.74974 -0.327338 0
M  V30 3687 C 355.41 2.61878 -0.911875 0
M  V30 3688 H 358.361 1.27852 -0.940191 0
M  V30 3689 H 358.382 3.80432 0.0720031 0
M  V30 3690 H 357.894 3.47745 -1.72323 0
M  V30 3691 H 355.995 3.65252 0.736314 0
M  V30 3692 H 356.108 4.72106 -0.815631 0
M  V30 3693 H 354.472 2.52448 -0.337944 0
M  V30 3694 H 355.255 2.79987 -1.98651 0
M  V30 3695 N 357.7 0.491464 1.49741 0
M  V30 3696 C 358.977 -0.118984 1.95238 0
M  V30 3697 C 359.357 -1.55044 1.43264 0
M  V30 3698 O 358.705 -2.19287 0.642287 0
M  V30 3699 C 358.915 -0.0414187 3.48975 0
M  V30 3700 C 360.263 -0.220133 4.24029 0
M  V30 3701 O 361.287 -0.117055 3.56008 0
M  V30 3702 O 360.146 -0.430567 5.44801 0
M  V30 3703 H 357.24 -0.100536 0.820866 0
M  V30 3704 H 359.786 0.553322 1.60426 0
M  V30 3705 H 358.558 0.957214 3.79412 0
M  V30 3706 H 358.181 -0.754292 3.9038 0
M  V30 3707 N 359.178 -1.55987 0.224894 0
M  V30 3708 C 360.424 -1.98684 -0.406502 0
M  V30 3709 C 360.757 -1.11248 -1.59177 0
M  V30 3710 O 360.032 -0.170909 -1.93748 0
M  V30 3711 C 360.315 -3.50218 -0.837808 0
M  V30 3712 C 360.168 -4.48426 0.351332 0
M  V30 3713 C 361.487 -4.06243 -1.69278 0
M  V30 3714 H 358.606 -0.722337 -0.146283 0
M  V30 3715 H 361.248 -1.87255 0.321799 0
M  V30 3716 H 359.398 -3.60089 -1.45837 0
M  V30 3717 H 361.07 -4.50562 0.989526 0
M  V30 3718 H 359.313 -4.22159 0.998207 0
M  V30 3719 H 359.984 -5.52 0.00655905 0
M  V30 3720 H 362.46 -3.99337 -1.16914 0
M  V30 3721 H 361.336 -5.12581 -1.96346 0
M  V30 3722 H 361.597 -3.53332 -2.65723 0
M  V30 3723 N 360.656 0.0484629 -1.57525 0
M  V30 3724 C 361.881 0.759177 -1.93006 0
M  V30 3725 C 362.306 1.69125 -0.823317 0
M  V30 3726 O 361.664 1.79931 0.222364 0
M  V30 3727 C 361.712 1.50899 -3.27509 0
M  V30 3728 O 360.816 2.62112 -3.18388 0
M  V30 3729 H 360.157 0.205564 -0.631379 0
M  V30 3730 H 362.687 0.00972959 -2.04598 0
M  V30 3731 H 362.697 1.88317 -3.6194 0
M  V30 3732 H 361.372 0.825269 -4.0763 0
M  V30 3733 H 359.949 2.27379 -2.95556 0
M  V30 3734 N 362.134 1.5431 0.320358 0
M  V30 3735 C 363.082 1.84647 1.4145 0
M  V30 3736 C 364.076 0.718624 1.53402 0
M  V30 3737 O 365.282 0.902335 1.5575 0
M  V30 3738 H 361.657 0.585349 0.472091 0
M  V30 3739 H 363.628 2.7614 1.13089 0
M  V30 3740 C 362.377 2.09341 2.77617 0
M  V30 3741 H 361.7 2.9559 2.69196 0
M  V30 3742 H 363.14 2.3452 3.53237 0
M  V30 3743 C 361.599 0.885939 3.25043 0
M  V30 3744 O 362.129 0.0967891 4.01583 0
M  V30 3745 N 360.335 0.696682 2.82125 0
M  V30 3746 H 359.882 1.34006 2.2 0
M  V30 3747 H 359.84 -0.109712 3.14209 0
M  V30 3748 N 363.613 -0.582584 1.46437 0
M  V30 3749 C 364.861 -1.33814 1.51453 0
M  V30 3750 C 365.182 -1.94277 0.167792 0
M  V30 3751 O 364.452 -1.78566 -0.805677 0
M  V30 3752 H 363.032 -0.496838 0.557818 0
M  V30 3753 H 365.694 -0.682281 1.82568 0
M  V30 3754 H 364.79 -2.14479 2.26728 0
M  V30 3755 N 365.091 -1.34144 -0.827227 0
M  V30 3756 C 366.023 -1.21206 -1.9453 0
M  V30 3757 C 367.036 -0.140176 -1.62195 0
M  V30 3758 O 368.225 -0.391647 -1.7415 0
M  V30 3759 C 365.325 -0.839141 -3.28347 0
M  V30 3760 C 364.498 -2.0051 -3.88734 0
M  V30 3761 C 363.557 -1.61128 -5.00923 0
M  V30 3762 O 362.583 -2.32726 -5.19449 0
M  V30 3763 N 363.785 -0.522958 -5.7814 0
M  V30 3764 H 366.55 -2.17525 -2.06162 0
M  V30 3765 H 364.111 -1.27043 -1.00358 0
M  V30 3766 H 366.103 -0.557556 -4.00841 0
M  V30 3767 H 364.673 0.0337293 -3.12582 0
M  V30 3768 H 363.893 -2.45166 -3.08686 0
M  V30 3769 H 365.181 -2.78498 -4.25812 0
M  V30 3770 H 364.579 0.0723518 -5.65654 0
M  V30 3771 H 363.136 -0.301089 -6.51104 0
M  V30 3772 N 366.569 1.04691 -1.17803 0
M  V30 3773 C 367.98 1.59238 -0.974689 0
M  V30 3774 C 368.331 1.90306 0.477292 0
M  V30 3775 O 367.456 1.68846 1.35352 0
M  V30 3776 C 368.051 2.89318 -1.76296 0
M  V30 3777 C 366.61 3.40506 -1.60414 0
M  V30 3778 C 365.757 2.14172 -1.76141 0
M  V30 3779 H 368.708 0.874395 -1.32439 0
M  V30 3780 H 368.729 3.5944 -1.24833 0
M  V30 3781 H 368.241 2.66675 -2.81968 0
M  V30 3782 H 366.342 3.68175 -0.572519 0
M  V30 3783 H 366.455 4.14753 -2.39827 0
M  V30 3784 H 364.819 2.25176 -1.19028 0
M  V30 3785 H 365.602 1.93992 -2.83235 0
M  V30 3786 N 368.047 0.979072 1.23499 0
M  V30 3787 C 368.957 0.526431 2.28617 0
M  V30 3788 C 369.973 -0.418126 1.68901 0
M  V30 3789 O 371.149 -0.288372 1.99325 0
M  V30 3790 C 368.214 -0.165235 3.46306 0
M  V30 3791 C 367.275 0.82056 4.21385 0
M  V30 3792 C 366.508 0.161807 5.33455 0
M  V30 3793 O 366.731 -1.04742 5.60701 0
M  V30 3794 O 365.665 0.859708 5.95729 0
M  V30 3795 H 369.491 1.4006 2.69475 0
M  V30 3796 H 367.076 0.746643 1.29405 0
M  V30 3797 H 368.958 -0.553287 4.17752 0
M  V30 3798 H 367.633 -1.01419 3.07402 0
M  V30 3799 H 366.54 1.25929 3.52268 0
M  V30 3800 H 367.873 1.63828 4.64135 0
M  V30 3801 N 369.525 -1.3858 0.750561 0
M  V30 3802 C 370.771 -2.00481 0.305825 0
M  V30 3803 C 371.104 -1.5944 -1.10872 0
M  V30 3804 O 370.379 -0.83052 -1.75877 0
M  V30 3805 C 370.662 -3.5758 0.425287 0
M  V30 3806 C 370.515 -4.08594 1.88072 0
M  V30 3807 C 371.834 -4.39719 -0.183122 0
M  V30 3808 H 368.953 -0.728348 0.112598 0
M  V30 3809 H 371.595 -1.64566 0.949638 0
M  V30 3810 H 369.745 -3.88306 -0.122828 0
M  V30 3811 H 371.417 -3.88523 2.48691 0
M  V30 3812 H 369.66 -3.61574 2.39681 0
M  V30 3813 H 370.331 -5.177 1.91548 0
M  V30 3814 H 372.807 -4.15128 0.284303 0
M  V30 3815 H 371.683 -5.48856 -0.0692757 0
M  V30 3816 H 371.944 -4.23434 -1.27106 0
M  V30 3817 N 371.003 -0.499398 -1.49478 0
M  V30 3818 C 372.231 0.0425456 -2.06856 0
M  V30 3819 C 372.646 1.30964 -1.35992 0
M  V30 3820 O 372.003 1.77172 -0.437762 0
M  V30 3821 C 372.054 0.301735 -3.60239 0
M  V30 3822 O 371.775 -0.915127 -4.28436 0
M  V30 3823 C 373.276 0.887499 -4.34325 0
M  V30 3824 H 370.496 -0.0197482 -0.670709 0
M  V30 3825 H 373.04 -0.696297 -1.92281 0
M  V30 3826 H 371.195 0.990556 -3.74522 0
M  V30 3827 H 371.609 -0.676993 -5.20113 0
M  V30 3828 H 373.083 1.01845 -5.42523 0
M  V30 3829 H 373.56 1.88488 -3.96698 0
M  V30 3830 H 374.166 0.236196 -4.24644 0
M  V30 3831 N 372.481 1.55866 -0.233164 0
M  V30 3832 C 373.729 1.9821 0.394593 0
M  V30 3833 C 374.05 1.12234 1.59463 0
M  V30 3834 O 373.32 0.201981 1.94856 0
M  V30 3835 H 371.9 0.732034 0.148778 0
M  V30 3836 H 374.562 1.92107 -0.32876 0
M  V30 3837 H 373.658 3.03845 0.713063 0
M  V30 3838 N 373.959 -0.0401083 1.57549 0
M  V30 3839 C 374.869 -1.06133 2.0922 0
M  V30 3840 C 375.885 -1.40356 1.0284 0
M  V30 3841 O 377.061 -1.49897 1.34509 0
M  V30 3842 C 374.126 -2.34658 2.55218 0
M  V30 3843 C 373.187 -2.07117 3.76033 0
M  V30 3844 C 372.42 -3.29514 4.19829 0
M  V30 3845 O 372.643 -4.39794 3.63232 0
M  V30 3846 O 371.577 -3.15863 5.12362 0
M  V30 3847 H 375.403 -0.652244 2.96613 0
M  V30 3848 H 372.988 -0.256368 1.47184 0
M  V30 3849 H 374.87 -3.10239 2.85184 0
M  V30 3850 H 373.545 -2.74883 1.70941 0
M  V30 3851 H 372.452 -1.29139 3.51104 0
M  V30 3852 H 373.785 -1.71754 4.61261 0
M  V30 3853 N 375.437 -1.54477 -0.31217 0
M  V30 3854 C 376.848 -1.64344 -0.885891 0
M  V30 3855 C 377.199 -0.54485 -1.88483 0
M  V30 3856 O 376.324 0.320387 -2.14015 0
M  V30 3857 C 376.919 -2.97908 -1.61357 0
M  V30 3858 C 375.478 -3.09933 -2.13585 0
M  V30 3859 C 374.625 -2.59971 -0.964897 0
M  V30 3860 H 377.576 -1.58448 -0.0894528 0
M  V30 3861 H 377.597 -2.88706 -2.47848 0
M  V30 3862 H 377.109 -3.77845 -0.886277 0
M  V30 3863 H 375.21 -2.34694 -2.89395 0
M  V30 3864 H 375.323 -4.15916 -2.37804 0
M  V30 3865 H 373.687 -2.16147 -1.34731 0
M  V30 3866 H 374.47 -3.42376 -0.251742 0
M  V30 3867 N 376.915 0.57481 -1.46744 0
M  V30 3868 C 378.161 1.3347 -1.52688 0
M  V30 3869 C 378.494 1.93353 -0.181229 0
M  V30 3870 O 377.769 1.76912 0.808237 0
M  V30 3871 C 378.052 2.45811 -2.63152 0
M  V30 3872 C 377.905 1.90912 -4.07275 0
M  V30 3873 C 379.224 3.47822 -2.69644 0
M  V30 3874 H 376.343 0.483935 -0.555856 0
M  V30 3875 H 378.985 0.644968 -1.78718 0
M  V30 3876 H 377.135 3.04646 -2.41088 0
M  V30 3877 H 378.807 1.36473 -4.4065 0
M  V30 3878 H 377.05 1.21691 -4.16382 0
M  V30 3879 H 377.721 2.72042 -4.80309 0
M  V30 3880 H 380.197 2.9888 -2.895 0
M  V30 3881 H 379.073 4.23876 -3.48742 0
M  V30 3882 H 379.334 4.05555 -1.76005 0
M  V30 3883 N 378.394 1.34581 0.820102 0
M  V30 3884 C 379.304 1.28471 1.96297 0
M  V30 3885 C 380.32 0.191902 1.72939 0
M  V30 3886 O 381.496 0.418879 1.96996 0
M  V30 3887 C 378.561 1.04281 3.30645 0
M  V30 3888 C 377.622 2.22745 3.66992 0
M  V30 3889 C 376.855 1.997 4.9493 0
M  V30 3890 O 377.078 0.956656 5.6232 0
M  V30 3891 O 376.012 2.86723 5.2922 0
M  V30 3892 H 379.838 2.24624 2.04396 0
M  V30 3893 H 377.423 1.14816 0.955913 0
M  V30 3894 H 379.305 0.925841 4.11104 0
M  V30 3895 H 377.98 0.111697 3.23507 0
M  V30 3896 H 376.887 2.40003 2.86966 0
M  V30 3897 H 378.22 3.14257 3.78819 0
M  V30 3898 N 379.872 -1.04064 1.18357 0
M  V30 3899 C 380.802 -2.14001 0.934113 0
M  V30 3900 C 381.783 -1.69616 -0.128186 0
M  V30 3901 O 382.968 -1.94185 0.0244093 0
M  V30 3902 C 380.098 -3.44253 0.459066 0
M  V30 3903 C 379.052 -4.02261 1.46185 0
M  V30 3904 C 378.378 -5.27992 0.844322 0
M  V30 3905 C 379.678 -4.38432 2.83856 0
M  V30 3906 H 381.372 -2.35127 1.85352 0
M  V30 3907 H 378.918 -1.12998 0.892604 0
M  V30 3908 H 380.871 -4.20522 0.271907 0
M  V30 3909 H 379.595 -3.22813 -0.495912 0
M  V30 3910 H 378.254 -3.28074 1.63595 0
M  V30 3911 H 377.902 -5.02862 -0.117845 0
M  V30 3912 H 377.602 -5.67765 1.51384 0
M  V30 3913 H 379.126 -6.06938 0.667693 0
M  V30 3914 H 380.54 -5.05688 2.70098 0
M  V30 3915 H 378.937 -4.89254 3.47491 0
M  V30 3916 H 380.007 -3.4826 3.37406 0
M  V30 3917 N 381.35 -0.985608 -1.22978 0
M  V30 3918 C 382.298 -0.522631 -2.26652 0
M  V30 3919 C 383.292 0.422998 -1.64034 0
M  V30 3920 O 384.498 0.296319 -1.77544 0
M  V30 3921 H 380.873 -0.150597 -0.736766 0
M  V30 3922 H 382.844 -1.40863 -2.63059 0
M  V30 3923 C 381.593 0.154238 -3.47358 0
M  V30 3924 H 380.916 -0.564329 -3.95797 0
M  V30 3925 H 382.356 0.441744 -4.21693 0
M  V30 3926 C 380.815 1.38719 -3.07016 0
M  V30 3927 O 381.345 2.48307 -3.15764 0
M  V30 3928 N 379.551 1.25975 -2.61875 0
M  V30 3929 H 379.098 0.368068 -2.54957 0
M  V30 3930 H 379.056 2.08578 -2.3525 0
M  V30 3931 N 382.828 1.3818 -0.7579 0
M  V30 3932 C 384.056 2.04301 -0.326937 0
M  V30 3933 C 384.471 1.57163 1.0462 0
M  V30 3934 O 383.828 0.746626 1.66529 0
M  V30 3935 C 383.879 3.59846 -0.345363 0
M  V30 3936 O 383.6 4.05256 -1.66432 0
M  V30 3937 C 385.101 4.4319 0.098927 0
M  V30 3938 H 382.321 0.656443 -0.139012 0
M  V30 3939 H 384.865 1.76786 -1.02796 0
M  V30 3940 H 383.02 3.86182 0.306955 0
M  V30 3941 H 383.434 4.99709 -1.59345 0
M  V30 3942 H 384.908 5.51989 0.0348745 0
M  V30 3943 H 385.385 4.23947 1.14741 0
M  V30 3944 H 385.991 4.22051 -0.52468 0
M  V30 3945 N 384.306 0.507319 1.49211 0
M  V30 3946 C 385.238 -0.304532 2.27168 0
M  V30 3947 C 386.251 -0.924956 1.33972 0
M  V30 3948 O 387.44 -0.807227 1.59205 0
M  V30 3949 C 384.54 -1.44431 3.06583 0
M  V30 3950 C 383.713 -0.930026 4.27398 0
M  V30 3951 C 382.772 -1.94817 4.88807 0
M  V30 3952 O 381.798 -1.51418 5.4869 0
M  V30 3953 N 383 -3.279 4.79022 0
M  V30 3954 H 385.765 0.36395 2.97482 0
M  V30 3955 H 383.326 0.340249 1.58284 0
M  V30 3956 H 385.318 -2.12311 3.44537 0
M  V30 3957 H 383.888 -2.01684 2.38835 0
M  V30 3958 H 383.108 -0.0759244 3.94127 0
M  V30 3959 H 384.396 -0.564932 5.05654 0
M  V30 3960 H 383.794 -3.65843 4.3148 0
M  V30 3961 H 382.351 -3.91476 5.21142 0
M  V30 3962 N 385.784 -1.5574 0.241426 0
M  V30 3963 C 386.747 -2.19877 -0.647063 0
M  V30 3964 C 387.747 -1.16642 -1.10686 0
M  V30 3965 O 388.937 -1.41757 -1.01245 0
M  V30 3966 C 386.069 -2.83797 -1.88871 0
M  V30 3967 H 387.262 -2.99772 -0.087574 0
M  V30 3968 H 384.815 -1.56298 -0.00813574 0
M  V30 3969 H 385.55 -2.07824 -2.48957 0
M  V30 3970 H 385.335 -3.59414 -1.56728 0
M  V30 3971 H 386.825 -3.32898 -2.52129 0
M  V30 3972 N 387.262 0.0317525 -1.57568 0
M  V30 3973 C 388.192 1.03274 -2.0942 0
M  V30 3974 C 389.173 1.3788 -0.996143 0
M  V30 3975 O 390.358 1.46811 -1.27122 0
M  V30 3976 C 387.488 2.33448 -2.57137 0
M  V30 3977 C 386.442 2.13091 -3.71182 0
M  V30 3978 C 385.768 3.49001 -4.05095 0
M  V30 3979 C 387.068 1.51928 -4.99715 0
M  V30 3980 H 388.762 0.60112 -2.93303 0
M  V30 3981 H 386.308 0.287705 -1.41097 0
M  V30 3982 H 388.261 3.03802 -2.92032 0
M  V30 3983 H 386.985 2.78665 -1.70333 0
M  V30 3984 H 385.644 1.45171 -3.36632 0
M  V30 3985 H 385.292 3.91862 -3.15362 0
M  V30 3986 H 384.992 3.36207 -4.81911 0
M  V30 3987 H 386.516 4.20721 -4.42522 0
M  V30 3988 H 387.93 2.12196 -5.32584 0
M  V30 3989 H 386.327 1.49716 -5.81124 0
M  V30 3990 H 387.397 0.484811 -4.8247 0
M  V30 3991 O 388.779 1.60553 0.174647 0
M  V30 3992 H 389.47 1.75876 0.811619 0
M  V30 END ATOM
M  V30 BEGIN BOND
M  V30 END BOND
M  V30 END CTAB
M  END
$$$$
