drugbank_target|P35869 Aryl hydrocarbon receptor (DB00338; DB00379; DB00393; DB00499; DB01076; DB01097; DB01404; DB02052; DB02709; DB04216; DB06732; DB07715; DB08624; DB08995; DB11577; DB11937; DB12116; DB12328; DB12379)
 OpenBabel12092120373D

  0  0  0     0  0            999 V3000
M  V30 BEGIN CTAB
M  V30 COUNTS 13312 13475 0 0 0
M  V30 BEGIN ATOM
M  V30 1 H -0.908 1.98254 -0.117106 0
M  V30 2 N 0 1.576 0 0
M  V30 3 C 0.933 2.03868 1.02534 0
M  V30 4 C 1.911 0.928543 1.3348 0
M  V30 5 O 3.095 1.19667 1.45644 0
M  V30 6 C 0.222 2.43627 2.35294 0
M  V30 7 C -0.732 3.65373 2.2001 0
M  V30 8 S 0.101 5.13292 1.52614 0
M  V30 9 C 1.257 5.56322 2.86805 0
M  V30 10 H 1.49 2.90518 0.631377 0
M  V30 11 H -0.977 1.52953 0.210867 0
M  V30 12 H 0.981 2.67203 3.11629 0
M  V30 13 H -0.358 1.57376 2.7183 0
M  V30 14 H -1.165 3.90944 3.18086 0
M  V30 15 H -1.563 3.418 1.51819 0
M  V30 16 H 0.729 5.58782 3.83104 0
M  V30 17 H 1.672 6.56266 2.65933 0
M  V30 18 H 2.08 4.83886 2.90714 0
M  V30 19 N 1.4781 -0.272755 1.55222 0
M  V30 20 C 2.4261 -1.35705 1.88909 0
M  V30 21 C 3.4201 -1.5112 0.765456 0
M  V30 22 O 4.6261 -1.52901 0.949802 0
M  V30 23 H 1.0011 -0.453868 0.59959 0
M  V30 24 H 2.9721 -1.04544 2.79487 0
M  V30 25 C 1.7211 -2.71049 2.17779 0
M  V30 26 H 1.0441 -2.59979 3.03728 0
M  V30 27 H 2.4841 -3.45858 2.45272 0
M  V30 28 C 0.9431 -3.22165 0.985473 0
M  V30 29 O 1.4731 -4.01096 0.220233 0
M  V30 30 N -0.3209 -2.7985 0.783108 0
M  V30 31 H -0.7739 -2.15775 1.40708 0
M  V30 32 H -0.8159 -3.14397 -0.0130392 0
M  V30 33 N 2.9562 -1.48159 -0.537278 0
M  V30 34 C 4.1812 -1.59707 -1.32319 0
M  V30 35 C 4.6062 -0.254859 -1.86365 0
M  V30 36 O 3.9642 0.772378 -1.64024 0
M  V30 37 C 4.0122 -2.6412 -2.45505 0
M  V30 38 O 3.1162 -2.20774 -3.48328 0
M  V30 39 H 2.4572 -0.535791 -0.392204 0
M  V30 40 H 4.9872 -1.94092 -0.647268 0
M  V30 41 H 4.9972 -2.85166 -2.91795 0
M  V30 42 H 3.6722 -3.61567 -2.05528 0
M  V30 43 H 2.2492 -2.09911 -3.08207 0
M  V30 44 N 4.4343 0.785586 -1.36625 0
M  V30 45 C 5.6593 1.57963 -1.34397 0
M  V30 46 C 6.0843 1.87964 0.071526 0
M  V30 47 O 5.4423 1.48182 1.0446 0
M  V30 48 C 5.4903 2.87511 -2.17646 0
M  V30 49 O 4.5943 3.81281 -1.57158 0
M  V30 50 H 3.9353 0.479014 -0.459828 0
M  V30 51 H 6.4653 0.973411 -1.79961 0
M  V30 52 H 6.4753 3.36745 -2.30362 0
M  V30 53 H 5.1503 2.65002 -3.20541 0
M  V30 54 H 3.7273 3.39885 -1.53403 0
M  V30 55 N 5.9124 1.20967 1.01018 0
M  V30 56 C 7.1374 1.0503 1.78839 0
M  V30 57 C 7.5624 -0.395752 1.8389 0
M  V30 58 O 6.9204 -1.28529 1.27867 0
M  V30 59 C 6.9684 1.64602 3.2084 0
M  V30 60 O 6.0724 0.887988 4.02726 0
M  V30 61 H 5.4134 0.369987 0.551367 0
M  V30 62 H 7.9434 1.60399 1.27018 0
M  V30 63 H 7.9534 1.68607 3.71532 0
M  V30 64 H 6.6284 2.69841 3.16479 0
M  V30 65 H 5.2054 0.922648 3.61305 0
M  V30 66 N 7.3905 -1.2043 1.01659 0
M  V30 67 C 8.3535 -2.21433 0.591616 0
M  V30 68 C 9.3535 -1.57203 -0.338226 0
M  V30 69 O 10.5435 -1.73737 -0.126918 0
M  V30 70 C 7.6755 -3.40628 -0.136058 0
M  V30 71 H 8.8685 -2.60545 1.48514 0
M  V30 72 H 6.4215 -1.33893 0.806379 0
M  V30 73 H 7.1565 -3.07019 -1.04449 0
M  V30 74 H 6.9415 -3.88475 0.531917 0
M  V30 75 H 8.4315 -4.15475 -0.420735 0
M  V30 76 N 8.8686 -0.792821 -1.36206 0
M  V30 77 C 9.8166 -0.181555 -2.3189 0
M  V30 78 C 10.8106 0.661025 -1.55971 0
M  V30 79 O 12.0166 0.555728 -1.71206 0
M  V30 80 H 8.3916 -0.0399382 -0.750939 0
M  V30 81 H 10.3626 -1.00394 -2.81005 0
M  V30 82 C 9.1116 0.666444 -3.41253 0
M  V30 83 H 8.4346 0.0274489 -3.99791 0
M  V30 84 H 9.8746 1.06076 -4.10517 0
M  V30 85 C 8.3336 1.82614 -2.83114 0
M  V30 86 O 8.8636 2.9229 -2.75553 0
M  V30 87 N 7.0696 1.63333 -2.40356 0
M  V30 88 H 6.6166 0.741217 -2.46706 0
M  V30 89 H 6.5746 2.41087 -2.01803 0
M  V30 90 N 10.3467 1.47872 -0.545128 0
M  V30 91 C 11.5957 2.01695 -0.0145033 0
M  V30 92 C 11.9087 1.42609 1.33873 0
M  V30 93 O 13.1147 1.88021 1.95858 0
M  V30 94 C 11.5707 3.59892 0.0245068 0
M  V30 95 C 11.1787 4.27966 -1.32475 0
M  V30 96 C 12.9227 4.21507 0.50316 0
M  V30 97 C 10.8297 5.78136 -1.2455 0
M  V30 98 H 9.7597 0.753998 -0.00165172 0
M  V30 99 H 12.4107 1.69985 -0.691175 0
M  V30 100 H 10.7927 3.88509 0.766575 0
M  V30 101 H 11.9667 4.11003 -2.08357 0
M  V30 102 H 10.2817 3.78286 -1.74036 0
M  V30 103 H 12.8787 5.31538 0.580656 0
M  V30 104 H 13.2217 3.87855 1.51243 0
M  V30 105 H 13.7547 3.97376 -0.183681 0
M  V30 106 H 10.4937 6.16388 -2.23039 0
M  V30 107 H 10.0137 5.97469 -0.528282 0
M  V30 108 H 11.6927 6.40099 -0.942488 0
M  V30 109 N 11.8248 0.280983 1.55075 0
M  V30 110 C 13.0528 -0.337293 2.04132 0
M  V30 111 C 13.4678 -1.4903 1.15912 0
M  V30 112 O 12.8248 -1.81606 0.180459 0
M  V30 113 C 12.8758 -0.812706 3.52246 0
M  V30 114 O 12.5968 0.294387 4.3711 0
M  V30 115 C 14.0978 -1.4982 4.17216 0
M  V30 116 H 11.3178 -0.0761638 0.666663 0
M  V30 117 H 13.8618 0.414787 2.00249 0
M  V30 118 H 12.0168 -1.51486 3.56554 0
M  V30 119 H 12.4308 -0.0721325 5.2445 0
M  V30 120 H 13.9048 -1.7822 5.22438 0
M  V30 121 H 14.3818 -2.43168 3.65741 0
M  V30 122 H 14.9878 -0.839742 4.16927 0
M  V30 123 N 13.3029 -1.57598 0.00835791 0
M  V30 124 C 14.5329 -1.94931 -0.684496 0
M  V30 125 C 14.9409 -0.882233 -1.67372 0
M  V30 126 O 14.2839 0.146621 -1.83114 0
M  V30 127 C 14.3459 -3.283 -1.4649 0
M  V30 128 C 14.0099 -4.52548 -0.63634 0
M  V30 129 C 15.0069 -5.19839 0.0795586 0
M  V30 130 C 12.6919 -4.98942 -0.579849 0
M  V30 131 C 14.6859 -6.3183 0.840843 0
M  V30 132 C 12.3729 -6.10819 0.185155 0
M  V30 133 C 13.3709 -6.77121 0.894227 0
M  V30 134 O 13.0589 -7.86853 1.64673 0
M  V30 135 H 12.7909 -0.647249 -0.19505 0
M  V30 136 H 15.3449 -2.05318 0.0581272 0
M  V30 137 H 13.5749 -3.14345 -2.2522 0
M  V30 138 H 15.2639 -3.50685 -2.04389 0
M  V30 139 H 16.0299 -4.84979 0.0451202 0
M  V30 140 H 11.9089 -4.47155 -1.1213 0
M  V30 141 H 15.4529 -6.83513 1.39483 0
M  V30 142 H 11.3499 -6.4512 0.221384 0
M  V30 143 H 12.1179 -8.03412 1.56432 0
M  V30 144 N 14.781 0.264519 -1.55364 0
M  V30 145 C 15.744 1.31046 -1.88042 0
M  V30 146 C 16.744 1.41943 -0.755569 0
M  V30 147 O 17.934 1.40947 -1.02369 0
M  V30 148 C 15.066 2.69067 -2.09323 0
M  V30 149 H 16.259 1.03297 -2.81549 0
M  V30 150 H 13.812 0.502989 -1.47986 0
M  V30 151 H 14.547 3.01982 -1.18226 0
M  V30 152 H 14.332 2.62542 -2.91229 0
M  V30 153 H 15.822 3.44623 -2.35848 0
M  V30 154 N 16.2591 1.48442 0.529413 0
M  V30 155 C 17.4841 1.60406 1.31471 0
M  V30 156 C 17.9091 0.264738 1.86228 0
M  V30 157 O 17.2671 -0.763668 1.64432 0
M  V30 158 C 17.3151 2.65419 2.44101 0
M  V30 159 O 16.4191 2.22618 3.47153 0
M  V30 160 H 15.7601 0.537863 0.389357 0
M  V30 161 H 18.2901 1.94432 0.636965 0
M  V30 162 H 18.3001 2.86709 2.90279 0
M  V30 163 H 16.9751 3.62652 2.03608 0
M  V30 164 H 15.5521 2.11543 3.0709 0
M  V30 165 N 17.7372 -0.778329 1.37039 0
M  V30 166 C 19.1532 -1.07796 1.17695 0
M  V30 167 C 19.3532 -2.01498 0.00860115 0
M  V30 168 O 18.4092 -2.43901 -0.653352 0
M  V30 169 C 19.7222 -1.68178 2.49272 0
M  V30 170 C 21.2702 -1.80467 2.55735 0
M  V30 171 C 21.7452 -2.44263 3.87427 0
M  V30 172 N 23.2362 -2.51721 3.88833 0
M  V30 173 C 23.9712 -3.01919 4.87476 0
M  V30 174 N 23.4672 -3.5234 5.96513 0
M  V30 175 N 25.2602 -3.00733 4.74885 0
M  V30 176 H 17.4112 -0.156032 2.11826 0
M  V30 177 H 19.6742 -0.131844 0.938787 0
M  V30 178 H 19.3802 -1.06796 3.35093 0
M  V30 179 H 19.2542 -2.67554 2.65885 0
M  V30 180 H 21.6412 -2.40984 1.70325 0
M  V30 181 H 21.7222 -0.798656 2.43013 0
M  V30 182 H 21.3662 -1.84388 4.73248 0
M  V30 183 H 21.2962 -3.45458 3.9745 0
M  V30 184 H 23.7872 -2.1603 3.10063 0
M  V30 185 H 24.1002 -3.89027 6.67741 0
M  V30 186 H 22.4452 -3.50462 6.00168 0
M  V30 187 H 25.6362 -2.60638 3.88826 0
M  V30 188 H 25.8092 -3.39545 5.51918 0
M  V30 189 N 19.2153 -1.21501 -1.00376 0
M  V30 190 C 20.1623 -0.975387 -2.09177 0
M  V30 191 C 21.1323 0.0990615 -1.65804 0
M  V30 192 O 22.3173 -0.0483147 -1.90739 0
M  V30 193 C 19.4573 -0.547507 -3.40729 0
M  V30 194 C 18.5703 -1.69153 -3.97506 0
M  V30 195 C 17.7053 -1.2127 -5.17172 0
M  V30 196 C 16.7443 -2.32897 -5.66061 0
M  V30 197 N 15.8813 -1.86138 -6.76976 0
M  V30 198 H 20.7213 -1.9068 -2.29009 0
M  V30 199 H 18.2583 -0.950257 -1.12288 0
M  V30 200 H 20.2163 -0.280667 -4.16255 0
M  V30 201 H 18.8463 0.346904 -3.20931 0
M  V30 202 H 17.8983 -2.07298 -3.18954 0
M  V30 203 H 19.2103 -2.5316 -4.29781 0
M  V30 204 H 18.3643 -0.902591 -5.99948 0
M  V30 205 H 17.1033 -0.342692 -4.86495 0
M  V30 206 H 16.1083 -2.64709 -4.81881 0
M  V30 207 H 17.3333 -3.20396 -5.98768 0
M  V30 208 H 15.2793 -1.01484 -6.48103 0
M  V30 209 H 15.1963 -2.63717 -7.08512 0
M  V30 210 H 16.4643 -1.58165 -7.63285 0
M  V30 211 N 20.6934 1.19889 -1.02296 0
M  V30 212 C 22.1094 1.41462 -0.738954 0
M  V30 213 C 22.3094 1.89721 0.678846 0
M  V30 214 O 21.3654 2.07016 1.4457 0
M  V30 215 C 22.6784 2.43083 -1.77005 0
M  V30 216 C 24.2264 2.5684 -1.78892 0
M  V30 217 C 24.7014 3.61709 -2.80945 0
M  V30 218 N 26.1924 3.69199 -2.79725 0
M  V30 219 C 26.9274 4.50019 -3.55345 0
M  V30 220 N 26.4234 5.34592 -4.40662 0
M  V30 221 N 28.2164 4.44612 -3.43914 0
M  V30 222 H 20.3674 0.868827 -1.93817 0
M  V30 223 H 22.6304 0.44399 -0.837602 0
M  V30 224 H 22.3364 2.14636 -2.78612 0
M  V30 225 H 22.2104 3.4217 -1.58744 0
M  V30 226 H 24.5974 2.84614 -0.779674 0
M  V30 227 H 24.6784 1.57927 -2.01228 0
M  V30 228 H 24.3224 3.34678 -3.82038 0
M  V30 229 H 24.2524 4.60259 -2.5587 0
M  V30 230 H 26.7434 3.08794 -2.17842 0
M  V30 231 H 27.0564 5.93363 -4.95116 0
M  V30 232 H 25.4014 5.34073 -4.44737 0
M  V30 233 H 28.5924 3.7758 -2.76679 0
M  V30 234 H 28.7654 5.0736 -4.031 0
M  V30 235 N 22.1715 0.800033 1.35784 0
M  V30 236 C 23.5875 0.482977 1.52117 0
M  V30 237 C 23.7875 -0.996948 1.75109 0
M  V30 238 O 22.8435 -1.78216 1.78872 0
M  V30 239 C 24.1565 1.32264 2.70049 0
M  V30 240 C 25.7045 1.31742 2.83924 0
M  V30 241 C 26.1795 2.14106 4.04874 0
M  V30 242 N 27.6705 2.11607 4.12039 0
M  V30 243 C 28.4055 2.72099 5.04727 0
M  V30 244 N 27.9015 3.41492 6.02789 0
M  V30 245 N 29.6945 2.61776 4.97423 0
M  V30 246 H 21.8455 1.75856 1.19115 0
M  V30 247 H 24.1085 0.748122 0.582252 0
M  V30 248 H 23.8145 2.37261 2.59616 0
M  V30 249 H 23.6885 0.971303 3.6448 0
M  V30 250 H 26.0755 0.275333 2.93813 0
M  V30 251 H 26.1565 1.70859 1.9037 0
M  V30 252 H 25.8005 3.18351 3.95746 0
M  V30 253 H 25.7305 1.72353 4.97596 0
M  V30 254 H 28.2215 1.61112 3.41835 0
M  V30 255 H 28.5345 3.84953 6.70098 0
M  V30 256 H 26.8795 3.45596 6.02983 0
M  V30 257 H 30.0705 2.07157 4.19766 0
M  V30 258 H 30.2435 3.0921 5.69468 0
M  V30 259 N 23.6496 -1.47581 0.552962 0
M  V30 260 C 24.5966 -2.29957 -0.197108 0
M  V30 261 C 25.5666 -1.38799 -0.912359 0
M  V30 262 O 26.7516 -1.67761 -0.908888 0
M  V30 263 C 23.8916 -3.22672 -1.22379 0
M  V30 264 C 23.0046 -4.28919 -0.515038 0
M  V30 265 C 22.1396 -5.0879 -1.52664 0
M  V30 266 C 21.1786 -6.06815 -0.802631 0
M  V30 267 N 20.3156 -6.7966 -1.76086 0
M  V30 268 H 25.1556 -2.93578 0.511486 0
M  V30 269 H 22.6926 -1.4471 0.264067 0
M  V30 270 H 24.6506 -3.74845 -1.83159 0
M  V30 271 H 23.2806 -2.60925 -1.90047 0
M  V30 272 H 22.3326 -3.79835 0.207192 0
M  V30 273 H 23.6446 -4.98773 0.0523425 0
M  V30 274 H 22.7986 -5.65091 -2.20809 0
M  V30 275 H 21.5376 -4.38828 -2.12794 0
M  V30 276 H 20.5426 -5.49695 -0.107238 0
M  V30 277 H 21.7676 -6.78784 -0.207135 0
M  V30 278 H 19.7136 -6.12432 -2.35081 0
M  V30 279 H 19.6306 -7.45669 -1.24552 0
M  V30 280 H 20.8986 -7.40538 -2.43359 0
M  V30 281 N 25.1277 -0.289203 -1.54924 0
M  V30 282 C 26.5387 0.205791 -1.85562 0
M  V30 283 C 26.8897 1.54351 -1.2112 0
M  V30 284 O 26.0147 2.10435 -0.504601 0
M  V30 285 C 26.6097 0.380177 -3.3666 0
M  V30 286 C 25.1687 0.819395 -3.67373 0
M  V30 287 C 24.3157 -0.079159 -2.77187 0
M  V30 288 H 27.2667 -0.510577 -1.50262 0
M  V30 289 H 27.2877 1.21659 -3.60526 0
M  V30 290 H 26.7997 -0.593589 -3.83534 0
M  V30 291 H 24.9007 1.80413 -3.26009 0
M  V30 292 H 25.0137 0.646957 -4.74712 0
M  V30 293 H 23.3777 0.439565 -2.50878 0
M  V30 294 H 24.1607 -1.04906 -3.26878 0
M  V30 295 N 26.6058 1.57591 -0.0167156 0
M  V30 296 C 27.8518 1.91567 0.665582 0
M  V30 297 C 28.1848 0.892298 1.72487 0
M  V30 298 O 27.4598 -0.0867127 1.94307 0
M  V30 299 C 27.7428 3.36069 1.29342 0
M  V30 300 C 27.5958 4.49135 0.244541 0
M  V30 301 C 28.9148 3.803 2.21495 0
M  V30 302 H 26.0338 0.69666 0.240488 0
M  V30 303 H 28.6758 1.89866 -0.0714356 0
M  V30 304 H 26.8258 3.3765 1.92158 0
M  V30 305 H 28.4978 4.59689 -0.385228 0
M  V30 306 H 26.7408 4.3165 -0.431379 0
M  V30 307 H 27.4118 5.47242 0.723207 0
M  V30 308 H 29.8878 3.80377 1.68678 0
M  V30 309 H 28.7638 4.82127 2.62382 0
M  V30 310 H 29.0248 3.15104 3.101 0
M  V30 311 N 28.0839 -0.256276 1.55502 0
M  V30 312 C 29.0159 -1.33981 1.85962 0
M  V30 313 C 30.0289 -1.44743 0.745212 0
M  V30 314 O 31.2179 -1.4626 1.02324 0
M  V30 315 C 28.3179 -2.7194 2.02242 0
M  V30 316 C 27.4909 -2.83562 3.33033 0
M  V30 317 C 26.5499 -4.02304 3.39172 0
M  V30 318 O 25.5759 -3.92273 4.12444 0
M  V30 319 N 26.7779 -5.15045 2.67784 0
M  V30 320 H 29.5429 -1.08191 2.7949 0
M  V30 321 H 27.1039 -0.446388 1.55624 0
M  V30 322 H 29.0959 -3.49697 2.03701 0
M  V30 323 H 27.6659 -2.90479 1.15502 0
M  V30 324 H 26.8859 -1.92555 3.43971 0
M  V30 325 H 28.1739 -2.88271 4.19258 0
M  V30 326 H 27.5719 -5.26085 2.07968 0
M  V30 327 H 26.1289 -5.90972 2.74947 0
M  V30 328 N 29.562 -1.4872 -0.521534 0
M  V30 329 C 30.509 -1.63871 -1.62527 0
M  V30 330 C 31.479 -0.480559 -1.58996 0
M  V30 331 O 32.664 -0.705085 -1.77294 0
M  V30 332 C 29.804 -1.69227 -3.00759 0
M  V30 333 C 28.917 -2.96207 -3.14461 0
M  V30 334 C 28.052 -2.92671 -4.43303 0
M  V30 335 C 27.091 -4.14318 -4.50563 0
M  V30 336 N 26.228 -4.0881 -5.70805 0
M  V30 337 H 31.068 -2.58123 -1.48918 0
M  V30 338 H 28.605 -1.28 -0.724878 0
M  V30 339 H 30.563 -1.70314 -3.80853 0
M  V30 340 H 29.193 -0.784586 -3.1312 0
M  V30 341 H 28.245 -3.04826 -2.27564 0
M  V30 342 H 29.557 -3.86192 -3.15686 0
M  V30 343 H 28.711 -2.92206 -5.31696 0
M  V30 344 H 27.45 -2.00429 -4.44612 0
M  V30 345 H 26.455 -4.15049 -3.60575 0
M  V30 346 H 27.68 -5.07729 -4.50986 0
M  V30 347 H 25.626 -3.19394 -5.72995 0
M  V30 348 H 25.543 -4.92509 -5.7356 0
M  V30 349 H 26.811 -4.12418 -6.61462 0
M  V30 350 N 31.0401 0.771051 -1.3745 0
M  V30 351 C 32.2681 1.56015 -1.35893 0
M  V30 352 C 32.6831 1.88718 0.0555523 0
M  V30 353 O 32.0401 1.51502 1.01752 0
M  V30 354 C 32.0911 2.87001 -2.19801 0
M  V30 355 O 31.8121 2.557 -3.55738 0
M  V30 356 C 33.3131 3.81228 -2.26231 0
M  V30 357 H 30.5331 0.483317 -0.465453 0
M  V30 358 H 33.0771 0.955611 -1.80799 0
M  V30 359 H 31.2321 3.43877 -1.78402 0
M  V30 360 H 31.6461 3.39584 -3.99729 0
M  V30 361 H 33.1201 4.70139 -2.89263 0
M  V30 362 H 33.5971 4.20409 -1.27093 0
M  V30 363 H 34.2031 3.30281 -2.67945 0
M  V30 364 N 32.5182 1.22032 0.997298 0
M  V30 365 C 33.7642 1.04376 1.73878 0
M  V30 366 C 34.0972 -0.420716 1.89588 0
M  V30 367 O 33.3722 -1.31202 1.43583 0
M  V30 368 C 33.6552 1.75047 3.14691 0
M  V30 369 C 33.5082 3.29062 3.06656 0
M  V30 370 C 34.8272 1.49928 4.13775 0
M  V30 371 H 31.9462 0.380578 0.631133 0
M  V30 372 H 34.5882 1.50312 1.16217 0
M  V30 373 H 32.7382 1.35996 3.63919 0
M  V30 374 H 34.4102 3.7753 2.65083 0
M  V30 375 H 32.6532 3.58967 2.43568 0
M  V30 376 H 33.3242 3.73683 4.06282 0
M  V30 377 H 35.8002 1.83842 3.73285 0
M  V30 378 H 34.6762 2.01878 5.10428 0
M  V30 379 H 34.9372 0.430929 4.39995 0
M  V30 380 N 33.9963 -1.19345 1.0293 0
M  V30 381 C 34.9433 -2.2258 0.610464 0
M  V30 382 C 35.9133 -1.6179 -0.375946 0
M  V30 383 O 37.0983 -1.88844 -0.272511 0
M  V30 384 C 34.2383 -3.45085 -0.0321473 0
M  V30 385 C 33.3513 -4.20258 1.00035 0
M  V30 386 C 32.4863 -5.3019 0.32746 0
M  V30 387 C 31.5253 -5.97121 1.34584 0
M  V30 388 N 30.6623 -6.98615 0.698726 0
M  V30 389 H 35.5023 -2.57764 1.49538 0
M  V30 390 H 33.0393 -1.26644 0.748311 0
M  V30 391 H 34.9973 -4.15061 -0.421966 0
M  V30 392 H 33.6273 -3.10555 -0.88064 0
M  V30 393 H 32.6793 -3.49223 1.50823 0
M  V30 394 H 33.9913 -4.66175 1.77433 0
M  V30 395 H 33.1453 -6.06587 -0.11718 0
M  V30 396 H 31.8843 -4.85345 -0.478713 0
M  V30 397 H 30.8893 -5.19474 1.80074 0
M  V30 398 H 32.1143 -6.4405 2.15352 0
M  V30 399 H 30.0603 -6.55942 -0.0873471 0
M  V30 400 H 29.9773 -7.42724 1.41058 0
M  V30 401 H 31.2453 -7.79004 0.278102 0
M  V30 402 N 35.4744 -0.807222 -1.35358 0
M  V30 403 C 36.8854 -0.44876 -1.81226 0
M  V30 404 C 37.2364 1.02929 -1.67033 0
M  V30 405 O 36.3614 1.79991 -1.20133 0
M  V30 406 C 36.9564 -0.807774 -3.2903 0
M  V30 407 C 35.5154 -0.501901 -3.73039 0
M  V30 408 C 34.6624 -1.03304 -2.57339 0
M  V30 409 H 37.6134 -0.998808 -1.23327 0
M  V30 410 H 37.6344 -0.10554 -3.80354 0
M  V30 411 H 37.1464 -1.88357 -3.39328 0
M  V30 412 H 35.2474 0.565128 -3.68289 0
M  V30 413 H 35.3604 -1.03497 -4.67787 0
M  V30 414 H 33.7244 -0.455339 -2.50597 0
M  V30 415 H 34.5074 -2.11496 -2.70415 0
M  V30 416 N 36.9525 1.47285 -0.560781 0
M  V30 417 C 38.2015 2.01668 -0.035895 0
M  V30 418 C 38.5145 1.44021 1.32353 0
M  V30 419 O 39.7205 1.90088 1.93853 0
M  V30 420 C 38.1765 3.59897 -0.0136659 0
M  V30 421 C 37.7845 4.26536 -1.37006 0
M  V30 422 C 39.5285 4.22017 0.458425 0
M  V30 423 C 37.4355 5.76782 -1.30675 0
M  V30 424 H 36.3655 0.753938 -0.00964879 0
M  V30 425 H 39.0165 1.69243 -0.709166 0
M  V30 426 H 37.3985 3.89301 0.725325 0
M  V30 427 H 38.5725 4.0877 -2.12705 0
M  V30 428 H 36.8875 3.76419 -1.78038 0
M  V30 429 H 39.4845 5.32124 0.524247 0
M  V30 430 H 39.8275 3.89437 1.4712 0
M  V30 431 H 40.3605 3.97159 -0.225818 0
M  V30 432 H 37.0995 6.13988 -2.29564 0
M  V30 433 H 36.6195 5.96875 -0.591622 0
M  V30 434 H 38.2985 6.39063 -1.01033 0
M  V30 435 N 38.4306 0.297415 1.54768 0
M  V30 436 C 39.8416 -0.195947 1.85669 0
M  V30 437 C 40.1926 -1.53707 1.21937 0
M  V30 438 O 39.3176 -2.10164 0.515754 0
M  V30 439 C 39.9126 -0.362318 3.36857 0
M  V30 440 C 38.4716 -0.799901 3.67802 0
M  V30 441 C 37.6186 0.0938578 2.77141 0
M  V30 442 H 40.5696 0.518538 1.4999 0
M  V30 443 H 40.5906 -1.19745 3.61167 0
M  V30 444 H 40.1026 0.613921 3.83214 0
M  V30 445 H 38.2036 -1.78682 3.26961 0
M  V30 446 H 38.3166 -0.621773 4.75048 0
M  V30 447 H 36.6806 -0.426254 2.51108 0
M  V30 448 H 37.4636 1.06639 3.26318 0
M  V30 449 N 39.9087 -1.5758 0.0250728 0
M  V30 450 C 40.8717 -2.08896 -0.943139 0
M  V30 451 C 41.8717 -1.00321 -1.25668 0
M  V30 452 O 43.0617 -1.26495 -1.19769 0
M  V30 453 C 40.1937 -2.55143 -2.26086 0
M  V30 454 H 41.3867 -2.95723 -0.498775 0
M  V30 455 H 38.9397 -1.54703 -0.222888 0
M  V30 456 H 39.6747 -1.71633 -2.75159 0
M  V30 457 H 39.4597 -3.34461 -2.04641 0
M  V30 458 H 40.9497 -2.95083 -2.95492 0
M  V30 459 N 41.3868 0.248026 -1.55636 0
M  V30 460 C 42.2968 1.32859 -1.93354 0
M  V30 461 C 43.3128 1.52719 -0.833838 0
M  V30 462 O 44.4888 1.66363 -1.13513 0
M  V30 463 C 41.5538 2.66337 -2.21958 0
M  V30 464 C 40.6148 2.55008 -3.45354 0
M  V30 465 C 39.8478 3.82121 -3.72584 0
M  V30 466 O 40.0708 4.83951 -3.01907 0
M  V30 467 O 39.0048 3.80822 -4.6611 0
M  V30 468 H 42.8308 1.03862 -2.85388 0
M  V30 469 H 40.4158 0.448686 -1.42503 0
M  V30 470 H 42.2978 3.45216 -2.4167 0
M  V30 471 H 40.9728 2.95068 -1.33103 0
M  V30 472 H 39.8798 1.7442 -3.30951 0
M  V30 473 H 41.2128 2.31222 -4.34508 0
M  V30 474 N 42.8649 1.48995 0.513639 0
M  V30 475 C 44.1129 1.57531 1.26604 0
M  V30 476 C 44.4339 0.258236 1.93283 0
M  V30 477 O 43.7039 -0.721502 1.8213 0
M  V30 478 H 42.2839 0.580387 0.470276 0
M  V30 479 H 44.9459 1.85552 0.596373 0
M  V30 480 H 44.0419 2.36486 2.03669 0
M  V30 481 N 44.343 -0.763751 1.37857 0
M  V30 482 C 45.592 -1.51789 1.32827 0
M  V30 483 C 45.905 -1.95426 -0.0823719 0
M  V30 484 O 47.111 -2.70298 -0.255172 0
M  V30 485 C 45.567 -2.74133 2.33193 0
M  V30 486 C 45.175 -2.37562 3.79827 0
M  V30 487 C 46.919 -3.52054 2.37188 0
M  V30 488 C 44.826 -3.56456 4.71904 0
M  V30 489 H 43.756 -0.569896 0.493695 0
M  V30 490 H 46.407 -0.835822 1.63359 0
M  V30 491 H 44.789 -3.4427 1.9569 0
M  V30 492 H 45.963 -1.75157 4.26212 0
M  V30 493 H 44.278 -1.72798 3.78853 0
M  V30 494 H 46.875 -4.40437 3.03182 0
M  V30 495 H 47.218 -3.92486 1.38782 0
M  V30 496 H 47.751 -2.88921 2.7344 0
M  V30 497 H 44.49 -3.21099 5.71468 0
M  V30 498 H 44.01 -4.17938 4.30218 0
M  V30 499 H 45.689 -4.23168 4.89426 0
M  V30 500 N 45.8211 -1.22559 -0.990812 0
M  V30 501 C 46.7681 -0.997519 -2.0813 0
M  V30 502 C 47.7381 0.0814702 -1.659 0
M  V30 503 O 48.9231 -0.0685424 -1.90677 0
M  V30 504 C 46.0631 -0.583615 -3.40129 0
M  V30 505 C 45.1761 -1.7336 -3.9569 0
M  V30 506 C 44.3111 -1.26748 -5.15857 0
M  V30 507 C 43.3501 -2.38888 -5.63559 0
M  V30 508 N 42.4871 -1.93308 -6.74964 0
M  V30 509 H 47.3271 -1.93099 -2.26973 0
M  V30 510 H 44.8641 -0.962114 -1.11273 0
M  V30 511 H 46.8221 -0.324801 -4.15934 0
M  V30 512 H 45.4521 0.312845 -3.2128 0
M  V30 513 H 44.5041 -2.10669 -3.16738 0
M  V30 514 H 45.8161 -2.57704 -4.27071 0
M  V30 515 H 44.9701 -0.966173 -5.98957 0
M  V30 516 H 43.7091 -0.394272 -4.86104 0
M  V30 517 H 42.7141 -2.69805 -4.79046 0
M  V30 518 H 43.9391 -3.26728 -5.95336 0
M  V30 519 H 41.8851 -1.08352 -6.4699 0
M  V30 520 H 41.8021 -2.71217 -7.05675 0
M  V30 521 H 43.0701 -1.66252 -7.61564 0
M  V30 522 N 47.2992 1.18797 -1.03562 0
M  V30 523 C 48.5242 1.9314 -0.755764 0
M  V30 524 C 48.9492 1.7537 0.68022 0
M  V30 525 O 48.3072 1.06046 1.47051 0
M  V30 526 C 48.3552 3.42747 -1.12058 0
M  V30 527 O 47.4592 4.11683 -0.243124 0
M  V30 528 H 46.8002 0.602724 -0.278604 0
M  V30 529 H 49.3302 1.50678 -1.3841 0
M  V30 530 H 49.3402 3.93437 -1.08035 0
M  V30 531 H 48.0152 3.55002 -2.16672 0
M  V30 532 H 46.5922 3.71323 -0.342539 0
M  V30 533 N 48.7773 0.814389 1.34928 0
M  V30 534 C 49.7253 0.218424 2.31572 0
M  V30 535 C 50.7193 -0.636128 1.57002 0
M  V30 536 O 51.9253 -0.52842 1.72069 0
M  V30 537 H 48.3003 0.0518799 0.750208 0
M  V30 538 H 50.2713 1.04852 2.79372 0
M  V30 539 C 49.0203 -0.61207 3.4227 0
M  V30 540 H 48.3433 0.0361578 3.99784 0
M  V30 541 H 49.7833 -0.995317 4.12152 0
M  V30 542 C 48.2423 -1.78087 2.85984 0
M  V30 543 O 48.7723 -2.8787 2.80168 0
M  V30 544 N 46.9783 -1.59488 2.42924 0
M  V30 545 H 46.5253 -0.701874 2.47854 0
M  V30 546 H 46.4833 -2.37846 2.05613 0
M  V30 547 N 50.2554 -1.46986 0.568584 0
M  V30 548 C 51.6664 -1.86188 0.138219 0
M  V30 549 C 52.0174 -1.47388 -1.29504 0
M  V30 550 O 51.1424 -0.88219 -1.97602 0
M  V30 551 C 51.7374 -3.3792 0.244065 0
M  V30 552 C 50.2964 -3.76171 -0.131335 0
M  V30 553 C 49.4434 -2.71027 0.586465 0
M  V30 554 H 52.3944 -1.38342 0.777645 0
M  V30 555 H 52.4154 -3.76729 -0.534351 0
M  V30 556 H 51.9274 -3.66128 1.28731 0
M  V30 557 H 50.0284 -3.5358 -1.17526 0
M  V30 558 H 50.1414 -4.78523 0.235146 0
M  V30 559 H 48.5054 -2.54684 0.0282722 0
M  V30 560 H 49.2884 -3.02077 1.63109 0
M  V30 561 N 51.7335 -0.305618 -1.54608 0
M  V30 562 C 52.9585 0.307562 -2.05107 0
M  V30 563 C 53.3835 1.46385 -1.18123 0
M  V30 564 O 52.7415 1.8034 -0.186324 0
M  V30 565 C 52.7895 0.73704 -3.52987 0
M  V30 566 O 51.8935 1.84134 -3.6901 0
M  V30 567 H 51.2345 0.0589143 -0.661381 0
M  V30 568 H 53.7645 -0.448807 -1.99617 0
M  V30 569 H 53.7745 1.02459 -3.94925 0
M  V30 570 H 52.4495 -0.108773 -4.15758 0
M  V30 571 H 51.0265 1.55398 -3.38978 0
M  V30 572 N 53.2116 1.57565 -0.0334293 0
M  V30 573 C 54.1586 2.10478 0.946981 0
M  V30 574 C 55.1286 1.00787 1.32027 0
M  V30 575 O 56.3136 1.28232 1.41284 0
M  V30 576 C 53.4536 2.63994 2.22263 0
M  V30 577 C 52.5666 3.87709 1.90541 0
M  V30 578 C 51.7016 4.29604 3.12433 0
M  V30 579 C 50.7406 5.46065 2.76549 0
M  V30 580 N 49.8776 5.83096 3.9108 0
M  V30 581 H 54.7176 2.93963 0.488846 0
M  V30 582 H 52.2546 1.45296 0.22969 0
M  V30 583 H 54.2126 2.93114 2.96884 0
M  V30 584 H 52.8426 1.83333 2.65685 0
M  V30 585 H 51.8946 3.65291 1.06144 0
M  V30 586 H 53.2066 4.72403 1.60116 0
M  V30 587 H 52.3606 4.60182 3.9537 0
M  V30 588 H 51.0996 3.43685 3.46023 0
M  V30 589 H 50.1046 5.15176 1.92026 0
M  V30 590 H 51.3296 6.33685 2.44171 0
M  V30 591 H 49.2756 5.00132 4.24504 0
M  V30 592 H 49.1926 6.6244 3.64293 0
M  V30 593 H 50.4606 6.18282 4.74708 0
M  V30 594 N 54.6897 -0.239769 1.55765 0
M  V30 595 C 56.1057 -0.588624 1.48349 0
M  V30 596 C 56.3057 -1.88005 0.72502 0
M  V30 597 O 55.3617 -2.51186 0.257269 0
M  V30 598 C 56.6747 -0.68474 2.928 0
M  V30 599 C 58.2227 -0.77659 3.03213 0
M  V30 600 C 58.6977 -0.904207 4.48986 0
M  V30 601 N 60.1887 -0.968896 4.52953 0
M  V30 602 C 60.9237 -1.08703 5.63002 0
M  V30 603 N 60.4197 -1.17026 6.82845 0
M  V30 604 N 62.2127 -1.12074 5.50814 0
M  V30 605 H 54.3637 0.607911 2.03515 0
M  V30 606 H 56.6267 0.21083 0.924259 0
M  V30 607 H 56.3327 0.194284 3.51163 0
M  V30 608 H 56.2067 -1.55435 3.43686 0
M  V30 609 H 58.5937 -1.64606 2.44926 0
M  V30 610 H 58.6747 0.118315 2.55526 0
M  V30 611 H 58.3187 -0.0392633 5.07885 0
M  V30 612 H 58.2487 -1.81426 4.9436 0
M  V30 613 H 60.7397 -0.915633 3.6664 0
M  V30 614 H 61.0527 -1.25966 7.62465 0
M  V30 615 H 59.3977 -1.13971 6.85591 0
M  V30 616 H 62.5887 -1.05226 4.5612 0
M  V30 617 H 62.7617 -1.20936 6.36615 0
M  V30 618 N 56.1678 -1.49265 -0.50573 0
M  V30 619 C 57.1178 -1.6198 -1.60457 0
M  V30 620 C 58.1018 -0.47568 -1.53708 0
M  V30 621 O 59.2938 -0.728392 -1.61318 0
M  V30 622 C 56.4228 -1.68526 -2.99089 0
M  V30 623 C 55.5088 -2.885 -3.10852 0
M  V30 624 N 55.8998 -4.12635 -2.92517 0
M  V30 625 C 54.1978 -2.86338 -3.41945 0
M  V30 626 C 54.8988 -4.93258 -3.08337 0
M  V30 627 N 53.8748 -4.26533 -3.37003 0
M  V30 628 H 57.6768 -2.55681 -1.44928 0
M  V30 629 H 55.1908 -1.45972 -0.711752 0
M  V30 630 H 57.1878 -1.75732 -3.78053 0
M  V30 631 H 55.8478 -0.759584 -3.1569 0
M  V30 632 H 56.8588 -4.42689 -2.68787 0
M  V30 633 H 53.5358 -2.03129 -3.64753 0
M  V30 634 H 54.9258 -6.01856 -2.98695 0
M  V30 635 N 57.6459 0.756429 -1.3826 0
M  V30 636 C 59.0619 1.0591 -1.19395 0
M  V30 637 C 59.2619 2.01459 -0.0406567 0
M  V30 638 O 58.3179 2.44909 0.614467 0
M  V30 639 C 59.6309 1.64191 -2.51916 0
M  V30 640 C 61.1789 1.76376 -2.58574 0
M  V30 641 C 61.6539 2.38069 -3.91264 0
M  V30 642 N 63.1449 2.45503 -3.92788 0
M  V30 643 C 63.8799 2.94126 -4.92217 0
M  V30 644 N 63.3759 3.42805 -6.02043 0
M  V30 645 N 65.1689 2.9314 -4.7961 0
M  V30 646 H 57.3199 0.122313 -2.12048 0
M  V30 647 H 59.5829 0.116892 -0.940766 0
M  V30 648 H 59.2889 1.01451 -3.3675 0
M  V30 649 H 59.1629 2.6329 -2.70108 0
M  V30 650 H 61.5499 2.38244 -1.74137 0
M  V30 651 H 61.6309 0.759894 -2.44252 0
M  V30 652 H 61.2749 1.76835 -4.76121 0
M  V30 653 H 61.2049 3.39091 -4.02895 0
M  V30 654 H 63.6959 2.1107 -3.13461 0
M  V30 655 H 64.0089 3.78354 -6.73846 0
M  V30 656 H 62.3539 3.4087 -6.05667 0
M  V30 657 H 65.5449 2.54419 -3.92923 0
M  V30 658 H 65.7179 3.30721 -5.5725 0
M  V30 659 N 59.124 1.23083 0.984299 0
M  V30 660 C 60.401 0.9689 1.69917 0
M  V30 661 C 60.781 -0.513604 2.04757 0
M  V30 662 O 60.129 -1.48383 1.73767 0
M  V30 663 C 60.339 1.87518 2.94343 0
M  V30 664 C 61.687 2.13636 3.6694 0
M  V30 665 O 62.711 1.85036 3.04368 0
M  V30 666 O 61.57 2.62119 4.79537 0
M  V30 667 H 58.664 0.365095 0.742048 0
M  V30 668 H 61.21 1.34107 1.03987 0
M  V30 669 H 59.982 2.87756 2.65164 0
M  V30 670 H 59.605 1.50514 3.6801 0
M  V30 671 N 60.6021 -1.18246 1.0419 0
M  V30 672 C 62.0181 -1.40269 0.761366 0
M  V30 673 C 62.2181 -1.90777 -0.648578 0
M  V30 674 O 61.2741 -2.0929 -1.41258 0
M  V30 675 C 62.5871 -2.40237 1.8085 0
M  V30 676 C 64.1351 -2.53961 1.82955 0
M  V30 677 C 64.6101 -3.57194 2.86664 0
M  V30 678 N 66.1011 -3.64702 2.85563 0
M  V30 679 C 66.8361 -4.44309 3.6246 0
M  V30 680 N 66.3321 -5.27514 4.49111 0
M  V30 681 N 68.1251 -4.39084 3.50944 0
M  V30 682 H 60.2761 -0.837882 1.95175 0
M  V30 683 H 62.5391 -0.430608 0.84456 0
M  V30 684 H 62.2451 -2.10176 2.81991 0
M  V30 685 H 62.1191 -3.39601 1.64168 0
M  V30 686 H 64.5061 -2.83338 0.824855 0
M  V30 687 H 64.5871 -1.54706 2.03715 0
M  V30 688 H 64.2311 -3.28558 3.87314 0
M  V30 689 H 64.1611 -4.5613 2.6316 0
M  V30 690 H 66.6521 -3.05289 2.22727 0
M  V30 691 H 66.9651 -5.85411 5.04493 0
M  V30 692 H 65.3101 -5.2693 4.53178 0
M  V30 693 H 68.5011 -3.7313 2.82651 0
M  V30 694 H 68.6741 -5.00883 4.11121 0
M  V30 695 N 62.0802 -0.821533 -1.34494 0
M  V30 696 C 63.0102 -0.257138 -2.3208 0
M  V30 697 C 63.9912 0.625645 -1.58176 0
M  V30 698 O 65.1762 0.552811 -1.86166 0
M  V30 699 C 62.3062 0.582958 -3.42372 0
M  V30 700 C 61.2602 -0.202571 -4.2752 0
M  V30 701 C 60.5862 0.760179 -5.29269 0
M  V30 702 C 61.8862 -1.40998 -5.02908 0
M  V30 703 H 63.5802 -1.07247 -2.79532 0
M  V30 704 H 61.1262 -0.517163 -1.34393 0
M  V30 705 H 63.0792 0.987972 -4.09655 0
M  V30 706 H 61.8032 1.43133 -2.93565 0
M  V30 707 H 60.4622 -0.588936 -3.61838 0
M  V30 708 H 60.1102 1.60447 -4.76724 0
M  V30 709 H 59.8102 0.238809 -5.87115 0
M  V30 710 H 61.3342 1.16308 -5.9942 0
M  V30 711 H 62.7482 -1.07905 -5.63054 0
M  V30 712 H 61.1452 -1.86689 -5.70322 0
M  V30 713 H 62.2152 -2.1889 -4.32684 0
M  V30 714 N 63.5583 1.46682 -0.576371 0
M  V30 715 C 64.5063 2.31953 0.17335 0
M  V30 716 C 65.5003 1.44098 0.89062 0
M  V30 717 O 66.7063 1.60759 0.809728 0
M  V30 718 H 63.0813 0.748273 0.0747727 0
M  V30 719 H 65.0523 2.93007 -0.564738 0
M  V30 720 C 63.8013 3.27142 1.17786 0
M  V30 721 H 63.1243 3.94719 0.635361 0
M  V30 722 H 64.5643 3.896 1.67296 0
M  V30 723 C 63.0233 2.52036 2.23561 0
M  V30 724 O 63.5533 2.27877 3.3081 0
M  V30 725 N 61.7593 2.12709 1.97998 0
M  V30 726 H 61.3063 2.32557 1.10792 0
M  V30 727 H 61.2643 1.62776 2.68982 0
M  V30 728 N 65.0364 0.313813 1.54444 0
M  V30 729 C 66.2644 -0.293918 2.04802 0
M  V30 730 C 66.6794 -1.46537 1.19047 0
M  V30 731 O 66.0364 -1.81182 0.218939 0
M  V30 732 C 66.0874 -0.737806 3.53891 0
M  V30 733 O 65.8084 0.387038 4.36387 0
M  V30 734 C 67.3094 -1.40936 4.203 0
M  V30 735 H 64.5294 -0.0620057 0.668129 0
M  V30 736 H 67.0734 0.457169 1.99324 0
M  V30 737 H 65.2284 -1.43889 3.59687 0
M  V30 738 H 65.6424 0.0391274 5.24485 0
M  V30 739 H 67.1164 -1.67099 5.26101 0
M  V30 740 H 67.5934 -2.35355 3.70816 0
M  V30 741 H 68.1994 -0.751117 4.18615 0
M  V30 742 N 66.5145 -1.57545 0.0417849 0
M  V30 743 C 67.4245 -2.14451 -0.951213 0
M  V30 744 C 68.4405 -1.09992 -1.34825 0
M  V30 745 O 69.6165 -1.42114 -1.42708 0
M  V30 746 C 66.6815 -2.67063 -2.21084 0
M  V30 747 C 65.7425 -3.86284 -1.87304 0
M  V30 748 C 64.9755 -4.36378 -3.07261 0
M  V30 749 O 65.1985 -3.85587 -4.20332 0
M  V30 750 O 64.1325 -5.28077 -2.88822 0
M  V30 751 H 67.9585 -2.99601 -0.497287 0
M  V30 752 H 65.5435 -1.48317 -0.179567 0
M  V30 753 H 67.4255 -3.00914 -2.95006 0
M  V30 754 H 66.1005 -1.84989 -2.65633 0
M  V30 755 H 65.0075 -3.57338 -1.10727 0
M  V30 756 H 66.3405 -4.6956 -1.47562 0
M  V30 757 N 67.9926 0.231505 -1.5589 0
M  V30 758 C 68.9226 1.29022 -1.94617 0
M  V30 759 C 69.9036 1.4941 -0.813067 0
M  V30 760 O 71.0886 1.6176 -1.07459 0
M  V30 761 C 68.2186 2.64199 -2.25424 0
M  V30 762 C 67.1726 2.58484 -3.41131 0
M  V30 763 C 66.4986 3.97599 -3.57518 0
M  V30 764 C 67.7986 2.1413 -4.76388 0
M  V30 765 H 69.4926 0.968563 -2.83301 0
M  V30 766 H 67.0386 0.464479 -1.36303 0
M  V30 767 H 68.9916 3.38413 -2.51107 0
M  V30 768 H 67.7156 2.98032 -1.33583 0
M  V30 769 H 66.3746 1.86727 -3.15481 0
M  V30 770 H 66.0226 4.28723 -2.6307 0
M  V30 771 H 65.7226 3.94659 -4.35337 0
M  V30 772 H 67.2466 4.7349 -3.85538 0
M  V30 773 H 68.6606 2.78083 -5.01341 0
M  V30 774 H 67.0576 2.2227 -5.57419 0
M  V30 775 H 68.1276 1.09331 -4.72414 0
M  V30 776 N 69.4707 1.49531 0.497807 0
M  V30 777 C 70.7477 1.49682 1.25915 0
M  V30 778 C 71.1277 0.226339 2.09883 0
M  V30 779 O 70.4757 -0.791189 2.14365 0
M  V30 780 C 70.6857 2.77755 2.11313 0
M  V30 781 C 72.0337 3.27371 2.70395 0
M  V30 782 O 73.0577 2.78894 2.21578 0
M  V30 783 O 71.9167 4.11808 3.59272 0
M  V30 784 H 69.0107 0.599228 0.56996 0
M  V30 785 H 71.5567 1.61798 0.511816 0
M  V30 786 H 70.3287 3.61713 1.49264 0
M  V30 787 H 69.9517 2.68515 2.93233 0
M  V30 788 N 70.9488 -0.749086 1.3866 0
M  V30 789 C 72.3648 -1.05276 1.19955 0
M  V30 790 C 72.5648 -2.01435 0.05134 0
M  V30 791 O 71.6208 -2.45232 -0.60147 0
M  V30 792 C 72.9338 -1.62853 2.52783 0
M  V30 793 C 74.4818 -1.75002 2.59506 0
M  V30 794 C 74.9568 -2.35991 3.92521 0
M  V30 795 N 76.4478 -2.43416 3.94085 0
M  V30 796 C 77.1828 -2.91511 4.9377 0
M  V30 797 N 76.6788 -3.39608 6.03853 0
M  V30 798 N 78.4718 -2.90592 4.81157 0
M  V30 799 H 70.6228 -0.111066 2.12109 0
M  V30 800 H 72.8858 -0.111901 0.941373 0
M  V30 801 H 72.5918 -0.99664 3.37283 0
M  V30 802 H 72.4658 -2.61854 2.715 0
M  V30 803 H 74.8528 -2.37317 1.75398 0
M  V30 804 H 74.9338 -0.74693 2.44652 0
M  V30 805 H 74.5778 -1.74308 4.77053 0
M  V30 806 H 74.5078 -3.3695 4.04688 0
M  V30 807 H 76.9988 -2.09405 3.14576 0
M  V30 808 H 77.3118 -3.74775 6.75843 0
M  V30 809 H 75.6568 -3.37653 6.07466 0
M  V30 810 H 78.8478 -2.52332 3.94267 0
M  V30 811 H 79.0208 -3.27762 5.58996 0
M  V30 812 N 72.4269 -1.23603 -0.977757 0
M  V30 813 C 73.3569 -1.04401 -2.0886 0
M  V30 814 C 74.3379 0.0399052 -1.70053 0
M  V30 815 O 75.5229 -0.125246 -1.93796 0
M  V30 816 C 72.6529 -0.637269 -3.41403 0
M  V30 817 C 71.6069 -1.66883 -3.94124 0
M  V30 818 C 70.9329 -1.11745 -5.22893 0
M  V30 819 C 72.2329 -3.06247 -4.23096 0
M  V30 820 H 73.9269 -1.97316 -2.25182 0
M  V30 821 H 71.4729 -0.950096 -1.08209 0
M  V30 822 H 73.4259 -0.48998 -4.18542 0
M  V30 823 H 72.1499 0.327557 -3.24953 0
M  V30 824 H 70.8089 -1.80416 -3.19133 0
M  V30 825 H 70.4569 -0.143527 -5.02795 0
M  V30 826 H 70.1569 -1.80672 -5.59134 0
M  V30 827 H 71.6809 -0.982067 -6.02651 0
M  V30 828 H 73.0949 -2.96001 -4.90975 0
M  V30 829 H 71.4919 -3.72436 -4.70544 0
M  V30 830 H 72.5619 -3.55041 -3.30263 0
M  V30 831 N 73.905 1.17692 -1.04816 0
M  V30 832 C 74.868 2.19787 -0.650117 0
M  V30 833 C 75.868 1.58044 0.296427 0
M  V30 834 O 77.058 1.74012 0.0808097 0
M  V30 835 C 74.19 3.40869 0.0456987 0
M  V30 836 H 75.383 2.56516 -1.5537 0
M  V30 837 H 72.936 1.31708 -0.841594 0
M  V30 838 H 73.671 3.09681 0.962726 0
M  V30 839 H 73.456 3.86928 -0.634727 0
M  V30 840 H 74.946 4.16445 0.310432 0
M  V30 841 N 75.3831 0.828654 1.34056 0
M  V30 842 C 76.6081 0.431637 2.02859 0
M  V30 843 C 77.0331 -0.956339 1.61975 0
M  V30 844 O 76.3911 -1.62338 0.807228 0
M  V30 845 C 76.4391 0.548323 3.56407 0
M  V30 846 O 75.5431 -0.429556 4.10157 0
M  V30 847 H 74.8841 0.176886 0.640006 0
M  V30 848 H 77.4141 1.12066 1.71179 0
M  V30 849 H 77.4241 0.426196 4.05768 0
M  V30 850 H 76.0991 1.5606 3.8551 0
M  V30 851 H 74.6761 -0.265836 3.71951 0
M  V30 852 N 76.8612 -1.46375 0.584142 0
M  V30 853 C 77.7912 -2.33103 -0.136037 0
M  V30 854 C 78.7722 -1.45431 -0.882255 0
M  V30 855 O 79.9572 -1.74246 -0.857434 0
M  V30 856 C 77.0872 -3.27731 -1.14933 0
M  V30 857 C 76.0412 -4.24855 -0.517862 0
M  V30 858 C 75.3672 -5.09001 -1.63773 0
M  V30 859 C 76.6672 -5.19439 0.545886 0
M  V30 860 H 78.3612 -2.93568 0.588086 0
M  V30 861 H 75.9072 -1.41166 0.284259 0
M  V30 862 H 77.8602 -3.87261 -1.66153 0
M  V30 863 H 76.5842 -2.65377 -1.90375 0
M  V30 864 H 75.2432 -3.6659 -0.0267361 0
M  V30 865 H 74.8912 -4.43031 -2.38185 0
M  V30 866 H 74.5912 -5.74777 -1.22085 0
M  V30 867 H 76.1152 -5.71396 -2.15266 0
M  V30 868 H 77.5292 -5.73177 0.118704 0
M  V30 869 H 75.9262 -5.93566 0.88317 0
M  V30 870 H 76.9962 -4.63285 1.43162 0
M  V30 871 N 78.3393 -0.321999 -1.54275 0
M  V30 872 C 79.2693 0.537411 -2.27231 0
M  V30 873 C 80.2503 1.12064 -1.27968 0
M  V30 874 O 81.4353 1.14606 -1.56777 0
M  V30 875 C 78.5653 1.69919 -3.02894 0
M  V30 876 C 77.5193 1.24534 -4.09482 0
M  V30 877 C 76.8453 2.49394 -4.72977 0
M  V30 878 C 78.1453 0.361335 -5.21049 0
M  V30 879 H 79.8393 -0.0711406 -2.99315 0
M  V30 880 H 77.3853 -0.0356555 -1.43956 0
M  V30 881 H 79.3383 2.30668 -3.52662 0
M  V30 882 H 78.0623 2.33431 -2.28424 0
M  V30 883 H 76.7213 0.660782 -3.60596 0
M  V30 884 H 76.3693 3.11265 -3.95124 0
M  V30 885 H 76.0693 2.19718 -5.44975 0
M  V30 886 H 77.5933 3.10908 -5.25517 0
M  V30 887 H 79.0073 0.875072 -5.66582 0
M  V30 888 H 77.4043 0.157428 -5.99893 0
M  V30 889 H 78.4743 -0.60822 -4.8107 0
M  V30 890 N 79.8174 1.5752 -0.0501392 0
M  V30 891 C 81.2284 1.80271 0.485705 0
M  V30 892 C 81.5794 0.96228 1.70981 0
M  V30 893 O 80.7044 0.178578 2.15662 0
M  V30 894 C 81.2994 3.26957 0.887938 0
M  V30 895 C 79.8584 3.5063 1.36877 0
M  V30 896 C 79.0054 2.75165 0.343468 0
M  V30 897 H 81.9564 1.56281 -0.276028 0
M  V30 898 H 81.9774 3.37821 1.75093 0
M  V30 899 H 81.4894 3.881 -0.0031809 0
M  V30 900 H 79.5904 2.94766 2.27911 0
M  V30 901 H 79.7034 4.59343 1.36164 0
M  V30 902 H 78.0674 2.4127 0.816128 0
M  V30 903 H 78.8504 3.39034 -0.539548 0
M  V30 904 N 81.2955 -0.223234 1.56011 0
M  V30 905 C 82.5425 -0.947875 1.78946 0
M  V30 906 C 82.8705 -1.844 0.618608 0
M  V30 907 O 82.1255 -1.91629 -0.397093 0
M  V30 908 C 82.4245 -1.81948 3.0762 0
M  V30 909 C 82.0905 -1.07672 4.37856 0
M  V30 910 C 80.7525 -0.871544 4.73242 0
M  V30 911 C 83.1045 -0.552081 5.18268 0
M  V30 912 C 80.4325 -0.129791 5.86556 0
M  V30 913 C 82.7845 0.17632 6.32354 0
M  V30 914 C 81.4485 0.39277 6.66343 0
M  V30 915 H 80.7185 -0.346852 0.654809 0
M  V30 916 H 83.3655 -0.216171 1.90276 0
M  V30 917 H 81.6705 -2.61899 2.91404 0
M  V30 918 H 83.3675 -2.38227 3.22566 0
M  V30 919 H 79.9575 -1.24662 4.1007 0
M  V30 920 H 84.1415 -0.698076 4.91366 0
M  V30 921 H 79.3975 0.048153 6.11381 0
M  V30 922 H 83.5715 0.590367 6.93893 0
M  V30 923 H 81.1985 0.969466 7.53993 0
M  V30 924 N 82.7736 -1.49793 -0.48987 0
M  V30 925 C 84.1846 -1.52914 -1.07118 0
M  V30 926 C 84.5356 -0.321738 -1.93544 0
M  V30 927 O 83.6606 0.567338 -2.08831 0
M  V30 928 C 84.2556 -2.771 -1.94938 0
M  V30 929 C 82.8146 -2.82963 -2.48212 0
M  V30 930 C 81.9616 -2.46972 -1.26096 0
M  V30 931 H 84.9126 -1.56329 -0.273289 0
M  V30 932 H 84.9336 -2.57892 -2.79771 0
M  V30 933 H 84.4456 -3.64959 -1.32009 0
M  V30 934 H 82.5466 -1.99411 -3.14748 0
M  V30 935 H 82.6596 -3.85406 -2.84603 0
M  V30 936 H 81.0236 -1.98994 -1.58976 0
M  V30 937 H 81.8066 -3.37118 -0.648581 0
M  V30 938 N 84.2517 0.741722 -1.39055 0
M  V30 939 C 85.1837 1.8657 -1.33133 0
M  V30 940 C 86.1967 1.61001 -0.241329 0
M  V30 941 O 87.3857 1.7136 -0.499784 0
M  V30 942 C 84.4857 3.22457 -1.04283 0
M  V30 943 C 83.6587 3.75435 -2.24427 0
M  V30 944 C 82.7177 4.89867 -1.92138 0
M  V30 945 O 81.7437 5.03879 -2.64754 0
M  V30 946 N 82.9457 5.73738 -0.88347 0
M  V30 947 H 85.7107 1.92156 -2.29991 0
M  V30 948 H 83.2717 0.922172 -1.3307 0
M  V30 949 H 85.2637 3.9657 -0.807128 0
M  V30 950 H 83.8337 3.12181 -0.161807 0
M  V30 951 H 83.0537 2.92751 -2.6399 0
M  V30 952 H 84.3417 4.07563 -3.04581 0
M  V30 953 H 83.7397 5.64999 -0.281517 0
M  V30 954 H 82.2967 6.47947 -0.707662 0
M  V30 955 N 85.7298 1.2412 0.971189 0
M  V30 956 C 87.0068 0.986867 1.6888 0
M  V30 957 C 87.3868 -0.491857 2.0529 0
M  V30 958 O 86.7348 -1.46531 1.75331 0
M  V30 959 C 86.9448 1.9063 2.92338 0
M  V30 960 C 88.2928 2.17515 3.64654 0
M  V30 961 O 89.3168 1.88254 3.02388 0
M  V30 962 O 88.1758 2.6719 4.7673 0
M  V30 963 H 85.2698 0.372944 0.738134 0
M  V30 964 H 87.8158 1.35203 1.02559 0
M  V30 965 H 86.5878 2.90552 2.62097 0
M  V30 966 H 86.2108 1.54408 3.66393 0
M  V30 967 N 87.2079 -1.17134 1.05439 0
M  V30 968 C 88.4539 -1.87733 0.767077 0
M  V30 969 C 88.7869 -1.8098 -0.704253 0
M  V30 970 O 88.0619 -1.21951 -1.5152 0
M  V30 971 C 88.3449 -3.37659 1.25133 0
M  V30 972 C 88.1979 -3.53149 2.78578 0
M  V30 973 C 89.5169 -4.31768 0.852324 0
M  V30 974 H 86.6359 -0.681687 0.280129 0
M  V30 975 H 89.2779 -1.37732 1.30881 0
M  V30 976 H 87.4279 -3.80373 0.790469 0
M  V30 977 H 89.0999 -3.19434 3.32806 0
M  V30 978 H 87.3429 -2.95345 3.17732 0
M  V30 979 H 88.0139 -4.58403 3.07523 0
M  V30 980 H 90.4899 -3.96909 1.24911 0
M  V30 981 H 89.3659 -5.35199 1.21873 0
M  V30 982 H 89.6269 -4.41429 -0.243485 0
M  V30 983 N 88.686 -0.835752 -1.33615 0
M  V30 984 C 89.935 -0.426289 -1.97144 0
M  V30 985 C 90.248 1.01912 -1.66953 0
M  V30 986 O 91.454 1.53311 -2.24072 0
M  V30 987 C 89.91 -0.711321 -3.52801 0
M  V30 988 C 89.518 -2.1712 -3.91871 0
M  V30 989 C 91.262 -0.368654 -4.22896 0
M  V30 990 C 89.169 -2.40044 -5.40493 0
M  V30 991 H 88.099 -0.15567 -0.737755 0
M  V30 992 H 90.75 -1.0239 -1.52278 0
M  V30 993 H 89.132 -0.0433766 -3.95976 0
M  V30 994 H 90.306 -2.87936 -3.59763 0
M  V30 995 H 88.621 -2.47654 -3.34749 0
M  V30 996 H 91.218 -0.517601 -5.32189 0
M  V30 997 H 91.561 0.688078 -4.10574 0
M  V30 998 H 92.094 -0.991702 -3.8524 0
M  V30 999 H 88.833 -3.44271 -5.57815 0
M  V30 1000 H 88.353 -1.73785 -5.74072 0
M  V30 1001 H 90.032 -2.23042 -6.0734 0
M  V30 1002 N 90.1641 1.46063 -0.591896 0
M  V30 1003 C 91.1121 2.32124 0.148739 0
M  V30 1004 C 92.1061 1.45035 0.875286 0
M  V30 1005 O 93.3121 1.61609 0.792632 0
M  V30 1006 H 89.6871 0.749024 0.066832 0
M  V30 1007 H 91.6581 2.92392 -0.595783 0
M  V30 1008 C 90.4071 3.28373 1.1431 0
M  V30 1009 H 89.7301 3.95371 0.59346 0
M  V30 1010 H 91.1701 3.91352 1.63155 0
M  V30 1011 C 89.6291 2.54393 2.20875 0
M  V30 1012 O 90.1591 2.31373 3.28374 0
M  V30 1013 N 88.3651 2.14797 1.95731 0
M  V30 1014 H 87.9121 2.33719 1.08319 0
M  V30 1015 H 87.8701 1.65619 2.67241 0
M  V30 1016 N 91.6422 0.330177 1.54103 0
M  V30 1017 C 92.5892 -0.532762 2.24567 0
M  V30 1018 C 93.5592 -1.10635 1.23892 0
M  V30 1019 O 94.7442 -1.14546 1.5259 0
M  V30 1020 C 91.8842 -1.6845 3.01195 0
M  V30 1021 C 90.9972 -1.13951 4.167 0
M  V30 1022 C 90.1322 -2.25746 4.80845 0
M  V30 1023 C 89.1712 -1.6853 5.88442 0
M  V30 1024 N 88.3082 -2.74014 6.46421 0
M  V30 1025 H 93.1482 0.0746905 2.97906 0
M  V30 1026 H 90.6852 0.048632 1.4702 0
M  V30 1027 H 92.6432 -2.36234 3.43874 0
M  V30 1028 H 91.2732 -2.26314 2.30178 0
M  V30 1029 H 90.3252 -0.35301 3.78758 0
M  V30 1030 H 91.6372 -0.680892 4.94131 0
M  V30 1031 H 90.7912 -3.01422 5.26526 0
M  V30 1032 H 89.5302 -2.74947 4.0281 0
M  V30 1033 H 88.5352 -0.913543 5.42157 0
M  V30 1034 H 89.7602 -1.20198 6.68378 0
M  V30 1035 H 87.7062 -3.22494 5.71256 0
M  V30 1036 H 87.6232 -2.32735 7.19285 0
M  V30 1037 H 88.8912 -3.49499 6.96757 0
M  V30 1038 N 93.1203 -1.57491 0.0584922 0
M  V30 1039 C 94.0503 -2.14988 -0.911178 0
M  V30 1040 C 95.0313 -1.07343 -1.31952 0
M  V30 1041 O 96.2163 -1.35318 -1.39294 0
M  V30 1042 C 93.3463 -2.70078 -2.18347 0
M  V30 1043 C 92.3003 -3.82771 -1.91495 0
M  V30 1044 C 91.6263 -4.24408 -3.25241 0
M  V30 1045 C 92.9263 -5.07592 -1.23075 0
M  V30 1046 H 94.6203 -2.96263 -0.432246 0
M  V30 1047 H 92.1663 -1.42512 -0.206469 0
M  V30 1048 H 94.1193 -3.08943 -2.86587 0
M  V30 1049 H 92.8433 -1.86005 -2.68458 0
M  V30 1050 H 91.5023 -3.44389 -1.25664 0
M  V30 1051 H 91.1503 -3.37275 -3.73168 0
M  V30 1052 H 90.8503 -5.00366 -3.08071 0
M  V30 1053 H 92.3743 -4.65879 -3.94701 0
M  V30 1054 H 93.7883 -5.43857 -1.81362 0
M  V30 1055 H 92.1853 -5.88741 -1.16207 0
M  V30 1056 H 93.2553 -4.84454 -0.207847 0
M  V30 1057 N 94.5984 0.214957 -1.56127 0
M  V30 1058 C 95.8754 0.963093 -1.70247 0
M  V30 1059 C 96.2554 2.02166 -0.60764 0
M  V30 1060 O 95.6034 2.25244 0.384385 0
M  V30 1061 C 95.8134 1.56756 -3.11815 0
M  V30 1062 C 97.1614 2.0573 -3.7143 0
M  V30 1063 O 98.1854 1.66637 -3.14818 0
M  V30 1064 O 97.0444 2.77603 -4.70743 0
M  V30 1065 H 94.1384 0.450321 -0.693643 0
M  V30 1066 H 96.6844 0.206219 -1.68442 0
M  V30 1067 H 95.4564 0.803533 -3.82961 0
M  V30 1068 H 95.0794 2.3898 -3.17765 0
M  V30 1069 N 96.0765 1.50051 0.48192 0
M  V30 1070 C 97.0235 1.68122 1.58125 0
M  V30 1071 C 97.9935 0.522545 1.57666 0
M  V30 1072 O 99.1785 0.751844 1.75362 0
M  V30 1073 C 96.3185 1.77142 2.96167 0
M  V30 1074 C 95.4315 3.0444 3.06497 0
M  V30 1075 C 94.5665 3.04321 4.35387 0
M  V30 1076 C 93.6055 4.26118 4.3942 0
M  V30 1077 N 92.7425 4.238 5.59766 0
M  V30 1078 H 97.5825 2.6198 1.42022 0
M  V30 1079 H 95.1195 1.29877 0.690687 0
M  V30 1080 H 97.0775 1.80352 3.76203 0
M  V30 1081 H 95.7075 0.867329 3.1093 0
M  V30 1082 H 94.7595 3.10752 2.19402 0
M  V30 1083 H 96.0715 3.94426 3.05336 0
M  V30 1084 H 95.2255 3.062 5.23762 0
M  V30 1085 H 93.9645 2.12147 4.39141 0
M  V30 1086 H 92.9695 4.24463 3.49444 0
M  V30 1087 H 94.1945 5.19507 4.37366 0
M  V30 1088 H 92.1405 3.34474 5.64326 0
M  V30 1089 H 92.0575 5.07542 5.60301 0
M  V30 1090 H 93.3255 4.2981 6.50295 0
M  V30 1091 N 97.5546 -0.734337 1.39446 0
M  V30 1092 C 98.4846 -1.86155 1.40955 0
M  V30 1093 C 99.4656 -1.67898 0.272827 0
M  V30 1094 O 100.651 -1.88207 0.478743 0
M  V30 1095 C 97.7806 -3.23912 1.25294 0
M  V30 1096 C 96.7346 -3.56808 2.36373 0
M  V30 1097 C 96.0606 -4.93508 2.058 0
M  V30 1098 C 97.3606 -3.59713 3.78687 0
M  V30 1099 H 99.0546 -1.8515 2.35287 0
M  V30 1100 H 96.6006 -0.889367 1.13253 0
M  V30 1101 H 98.5536 -4.02443 1.2497 0
M  V30 1102 H 97.2776 -3.25446 0.274308 0
M  V30 1103 H 95.9366 -2.80606 2.35914 0
M  V30 1104 H 95.5846 -4.91623 1.06374 0
M  V30 1105 H 95.2846 -5.16486 2.80208 0
M  V30 1106 H 96.8086 -5.74396 2.07128 0
M  V30 1107 H 98.2226 -4.2832 3.81071 0
M  V30 1108 H 96.6196 -3.94209 4.52459 0
M  V30 1109 H 97.6896 -2.59504 4.09617 0
M  V30 1110 N 99.0327 -1.24633 -0.964593 0
M  V30 1111 C 100.258 -1.11596 -1.74818 0
M  V30 1112 C 100.683 0.32723 -1.85232 0
M  V30 1113 O 100.041 1.23695 -1.32549 0
M  V30 1114 C 100.089 -1.76397 -3.1451 0
M  V30 1115 O 99.1927 -1.03685 -3.99153 0
M  V30 1116 H 98.5337 -0.390196 -0.537255 0
M  V30 1117 H 101.064 -1.65002 -1.20977 0
M  V30 1118 H 101.074 -1.8228 -3.65018 0
M  V30 1119 H 99.7487 -2.81401 -3.06246 0
M  V30 1120 H 98.3257 -1.05611 -3.57632 0
M  V30 1121 N 100.511 1.16574 -1.06058 0
M  V30 1122 C 101.757 1.87324 -0.777022 0
M  V30 1123 C 102.09 1.81351 0.694645 0
M  V30 1124 O 101.365 1.22753 1.50871 0
M  V30 1125 C 101.648 3.36991 -1.26922 0
M  V30 1126 C 101.501 3.51667 -2.80447 0
M  V30 1127 C 102.82 4.3131 -0.87521 0
M  V30 1128 H 99.9388 0.680191 -0.28374 0
M  V30 1129 H 102.581 1.37036 -1.3161 0
M  V30 1130 H 100.731 3.79949 -0.81063 0
M  V30 1131 H 102.403 3.17664 -3.34495 0
M  V30 1132 H 100.646 2.93656 -3.19294 0
M  V30 1133 H 101.317 4.56766 -3.0995 0
M  V30 1134 H 103.793 3.9624 -1.27014 0
M  V30 1135 H 102.669 5.34545 -1.2471 0
M  V30 1136 H 102.93 4.41552 0.220071 0
M  V30 1137 N 101.989 0.842826 1.3317 0
M  V30 1138 C 102.919 0.294028 2.31641 0
M  V30 1139 C 103.9 -0.600401 1.59151 0
M  V30 1140 O 105.085 -0.523124 1.87022 0
M  V30 1141 C 102.215 -0.528416 3.43257 0
M  V30 1142 C 101.169 0.27056 4.27144 0
M  V30 1143 C 100.495 -0.675881 5.30411 0
M  V30 1144 C 101.795 1.48981 5.00602 0
M  V30 1145 H 103.489 1.11681 2.77791 0
M  V30 1146 H 101.035 0.538478 1.33553 0
M  V30 1147 H 102.988 -0.922674 4.11175 0
M  V30 1148 H 101.712 -1.38445 2.95805 0
M  V30 1149 H 100.371 0.646427 3.60856 0
M  V30 1150 H 100.019 -1.52842 4.79216 0
M  V30 1151 H 99.7189 -0.145374 5.8742 0
M  V30 1152 H 101.243 -1.06757 6.01195 0
M  V30 1153 H 102.657 1.16849 5.61266 0
M  V30 1154 H 101.054 1.95739 5.6728 0
M  V30 1155 H 102.124 2.25746 4.29147 0
M  V30 1156 N 103.467 -1.45747 0.599634 0
M  V30 1157 C 104.883 -1.57424 0.26264 0
M  V30 1158 C 105.083 -1.59222 -1.23493 0
M  V30 1159 O 104.139 -1.51825 -2.01756 0
M  V30 1160 C 105.452 -2.86061 0.926795 0
M  V30 1161 C 107 -2.99722 0.901967 0
M  V30 1162 C 107.475 -4.31119 1.54598 0
M  V30 1163 N 108.966 -4.37858 1.5111 0
M  V30 1164 C 109.701 -5.3818 1.97863 0
M  V30 1165 N 109.197 -6.45083 2.52666 0
M  V30 1166 N 110.99 -5.29487 1.88679 0
M  V30 1167 H 103.141 -1.42823 1.57211 0
M  V30 1168 H 105.404 -0.68235 0.658105 0
M  V30 1169 H 105.11 -2.90605 1.98095 0
M  V30 1170 H 104.984 -3.74563 0.445238 0
M  V30 1171 H 107.371 -2.9475 -0.143617 0
M  V30 1172 H 107.452 -2.12652 1.42171 0
M  V30 1173 H 107.096 -4.36849 2.59085 0
M  V30 1174 H 107.026 -5.16992 1.00132 0
M  V30 1175 H 109.517 -3.61209 1.11068 0
M  V30 1176 H 109.83 -7.17869 2.86155 0
M  V30 1177 H 108.175 -6.45856 2.56701 0
M  V30 1178 H 111.366 -4.44877 1.4561 0
M  V30 1179 H 111.539 -6.07524 2.25429 0
M  V30 1180 N 104.945 -0.338344 -1.53925 0
M  V30 1181 C 105.875 0.51328 -2.27789 0
M  V30 1182 C 106.856 1.107 -1.29149 0
M  V30 1183 O 108.041 1.12937 -1.57984 0
M  V30 1184 C 105.171 1.66697 -3.04679 0
M  V30 1185 C 104.125 1.20183 -4.1078 0
M  V30 1186 C 103.451 2.44363 -4.75595 0
M  V30 1187 C 104.751 0.30605 -5.21403 0
M  V30 1188 H 106.445 -0.102883 -2.99223 0
M  V30 1189 H 103.991 -0.0509219 -1.4391 0
M  V30 1190 H 105.944 2.26915 -3.55088 0
M  V30 1191 H 104.668 2.30995 -2.30887 0
M  V30 1192 H 103.327 0.622499 -3.61276 0
M  V30 1193 H 102.975 3.07057 -3.98403 0
M  V30 1194 H 102.675 2.13925 -5.47275 0
M  V30 1195 H 104.199 3.05317 -5.28786 0
M  V30 1196 H 105.613 0.814929 -5.67478 0
M  V30 1197 H 104.01 0.0937929 -6.00027 0
M  V30 1198 H 105.08 -0.65921 -4.80398 0
M  V30 1199 N 106.423 1.57458 -0.0668435 0
M  V30 1200 C 107.648 1.9804 0.616027 0
M  V30 1201 C 108.073 0.944771 1.62652 0
M  V30 1202 O 107.431 -0.0902094 1.81075 0
M  V30 1203 C 107.479 3.37665 1.26549 0
M  V30 1204 O 106.583 3.36701 2.38131 0
M  V30 1205 H 105.924 0.644719 0.158849 0
M  V30 1206 H 108.454 2.04121 -0.139891 0
M  V30 1207 H 108.464 3.7474 1.6135 0
M  V30 1208 H 107.139 4.12573 0.525016 0
M  V30 1209 H 105.716 3.1139 2.0516 0
M  V30 1210 N 107.901 -0.206675 1.56239 0
M  V30 1211 C 109.147 -0.930218 1.80208 0
M  V30 1212 C 109.48 -1.83387 0.638981 0
M  V30 1213 O 108.755 -1.91119 -0.361066 0
M  V30 1214 C 109.038 -1.75641 3.1436 0
M  V30 1215 C 108.891 -0.878257 4.41142 0
M  V30 1216 C 110.21 -2.73129 3.45092 0
M  V30 1217 H 107.329 -0.336742 0.655571 0
M  V30 1218 H 109.971 -0.198222 1.88963 0
M  V30 1219 H 108.121 -2.38048 3.07027 0
M  V30 1220 H 109.793 -0.269787 4.6051 0
M  V30 1221 H 108.036 -0.184385 4.33408 0
M  V30 1222 H 108.707 -1.49106 5.3148 0
M  V30 1223 H 111.183 -2.20856 3.52649 0
M  V30 1224 H 110.059 -3.28028 4.40101 0
M  V30 1225 H 110.32 -3.51606 2.68003 0
M  V30 1226 N 109.379 -1.50304 -0.473955 0
M  V30 1227 C 110.604 -1.65175 -1.25427 0
M  V30 1228 C 111.029 -0.333673 -1.85117 0
M  V30 1229 O 110.387 0.702114 -1.67153 0
M  V30 1230 C 110.435 -2.74295 -2.34082 0
M  V30 1231 O 109.539 -2.35349 -3.38651 0
M  V30 1232 H 108.88 -0.551944 -0.369126 0
M  V30 1233 H 111.41 -1.96662 -0.564364 0
M  V30 1234 H 111.42 -2.97285 -2.79438 0
M  V30 1235 H 110.095 -3.69959 -1.90008 0
M  V30 1236 H 108.672 -2.22794 -2.99027 0
M  V30 1237 N 110.857 0.726932 -1.39834 0
M  V30 1238 C 112.087 1.51393 -1.40583 0
M  V30 1239 C 112.495 1.892 -0.000740625 0
M  V30 1240 O 111.838 1.55189 0.982951 0
M  V30 1241 C 111.9 2.82588 -2.22226 0
M  V30 1242 C 111.564 2.67169 -3.70769 0
M  V30 1243 C 112.561 2.3518 -4.63666 0
M  V30 1244 C 110.246 2.83788 -4.14451 0
M  V30 1245 C 112.24 2.20002 -5.98229 0
M  V30 1246 C 109.927 2.68229 -5.49087 0
M  V30 1247 C 110.925 2.36382 -6.4079 0
M  V30 1248 O 110.613 2.2093 -7.72946 0
M  V30 1249 H 110.345 0.474168 -0.48181 0
M  V30 1250 H 112.899 0.905247 -1.84376 0
M  V30 1251 H 111.129 3.45746 -1.73195 0
M  V30 1252 H 112.818 3.44247 -2.15055 0
M  V30 1253 H 113.584 2.21984 -4.31217 0
M  V30 1254 H 109.463 3.07566 -3.43401 0
M  V30 1255 H 113.007 1.95067 -6.69772 0
M  V30 1256 H 108.904 2.81006 -5.81125 0
M  V30 1257 H 109.672 2.35937 -7.83757 0
M  V30 1258 N 112.336 1.25143 0.95797 0
M  V30 1259 C 113.266 1.07711 2.07173 0
M  V30 1260 C 114.247 -0.0128462 1.70095 0
M  V30 1261 O 115.432 0.156061 1.93572 0
M  V30 1262 C 112.562 0.691503 3.40346 0
M  V30 1263 C 111.516 1.73132 3.9142 0
M  V30 1264 C 110.842 1.20049 5.21049 0
M  V30 1265 C 112.142 3.1294 4.1817 0
M  V30 1266 H 113.836 2.00873 2.22014 0
M  V30 1267 H 111.382 0.967191 1.06684 0
M  V30 1268 H 113.335 0.556505 4.17709 0
M  V30 1269 H 112.059 -0.275819 3.25433 0
M  V30 1270 H 110.718 1.8547 3.16222 0
M  V30 1271 H 110.366 0.223499 5.02503 0
M  V30 1272 H 110.066 1.89545 5.56189 0
M  V30 1273 H 111.59 1.07782 6.01012 0
M  V30 1274 H 113.004 3.03775 4.86203 0
M  V30 1275 H 111.401 3.79875 4.64559 0
M  V30 1276 H 112.471 3.6025 3.24573 0
M  V30 1277 N 113.814 -1.1601 1.06675 0
M  V30 1278 C 115.23 -1.38622 0.790948 0
M  V30 1279 C 115.43 -1.92109 -0.607965 0
M  V30 1280 O 114.486 -2.12239 -1.36787 0
M  V30 1281 C 115.799 -2.36347 1.85905 0
M  V30 1282 C 117.347 -2.50023 1.88301 0
M  V30 1283 C 117.822 -3.51033 2.94176 0
M  V30 1284 N 119.313 -3.58563 2.93235 0
M  V30 1285 C 120.048 -4.36521 3.71803 0
M  V30 1286 N 119.544 -5.17869 4.602 0
M  V30 1287 N 121.337 -4.31541 3.60178 0
M  V30 1288 H 113.488 -0.796294 1.96908 0
M  V30 1289 H 115.751 -0.412597 0.853503 0
M  V30 1290 H 115.457 -2.04147 2.86386 0
M  V30 1291 H 115.331 -3.36042 1.71334 0
M  V30 1292 H 117.718 -2.81524 0.884769 0
M  V30 1293 H 117.799 -1.5035 2.06951 0
M  V30 1294 H 117.443 -3.20268 3.94196 0
M  V30 1295 H 117.373 -4.50445 2.72776 0
M  V30 1296 H 119.864 -3.00496 2.29152 0
M  V30 1297 H 120.177 -5.74578 5.16797 0
M  V30 1298 H 118.522 -5.17199 4.64253 0
M  V30 1299 H 121.713 -3.67051 2.90502 0
M  V30 1300 H 121.886 -4.9205 4.21653 0
M  V30 1301 N 115.292 -0.849877 -1.32721 0
M  V30 1302 C 116.255 -0.296122 -2.27279 0
M  V30 1303 C 117.255 0.541458 -1.5141 0
M  V30 1304 O 118.445 0.353658 -1.70572 0
M  V30 1305 C 115.577 0.581579 -3.35902 0
M  V30 1306 H 116.77 -1.13064 -2.77771 0
M  V30 1307 H 114.323 -0.62383 -1.43311 0
M  V30 1308 H 115.058 1.43809 -2.9067 0
M  V30 1309 H 114.843 -0.0178814 -3.92096 0
M  V30 1310 H 116.333 0.961951 -4.0637 0
M  V30 1311 N 116.77 1.45427 -0.607355 0
M  V30 1312 C 117.717 2.3053 0.111625 0
M  V30 1313 C 118.687 1.4209 0.860216 0
M  V30 1314 O 119.872 1.71019 0.845998 0
M  V30 1315 C 117.012 3.26992 1.10319 0
M  V30 1316 C 116.125 4.30535 0.355493 0
M  V30 1317 C 115.26 5.14105 1.33676 0
M  V30 1318 C 114.299 6.09376 0.576862 0
M  V30 1319 N 113.436 6.85727 1.5074 0
M  V30 1320 H 118.276 2.91477 -0.620093 0
M  V30 1321 H 115.813 1.43631 -0.317594 0
M  V30 1322 H 117.771 3.81385 1.6912 0
M  V30 1323 H 116.401 2.67799 1.80232 0
M  V30 1324 H 115.453 3.78805 -0.348023 0
M  V30 1325 H 116.765 4.98235 -0.237423 0
M  V30 1326 H 115.919 5.72897 1.99684 0
M  V30 1327 H 114.658 4.46423 1.9636 0
M  V30 1328 H 113.663 5.49715 -0.0968519 0
M  V30 1329 H 114.888 6.79085 -0.0449341 0
M  V30 1330 H 112.834 6.20735 2.12189 0
M  V30 1331 H 112.751 7.49778 0.967913 0
M  V30 1332 H 114.019 7.4906 2.15706 0
M  V30 1333 N 118.248 0.346503 1.53744 0
M  V30 1334 C 119.473 -0.253074 2.0585 0
M  V30 1335 C 119.898 -1.43202 1.21962 0
M  V30 1336 O 119.256 -1.79783 0.234073 0
M  V30 1337 C 119.304 -0.643193 3.54817 0
M  V30 1338 O 118.408 -1.74286 3.73762 0
M  V30 1339 H 117.749 -0.0413583 0.662711 0
M  V30 1340 H 120.279 0.501574 1.98357 0
M  V30 1341 H 120.289 -0.919526 3.97503 0
M  V30 1342 H 118.964 0.218966 4.15323 0
M  V30 1343 H 117.541 -1.46356 3.42979 0
M  V30 1344 N 119.726 -1.57421 0.075193 0
M  V30 1345 C 120.973 -1.93618 -0.593146 0
M  V30 1346 C 121.301 -0.955484 -1.69413 0
M  V30 1347 O 120.556 0.0283251 -1.9568 0
M  V30 1348 C 120.855 -3.36428 -1.20626 0
M  V30 1349 C 120.521 -4.50307 -0.231078 0
M  V30 1350 C 119.183 -4.81186 0.0371936 0
M  V30 1351 C 121.535 -5.19374 0.435888 0
M  V30 1352 C 118.863 -5.78466 0.979461 0
M  V30 1353 C 121.215 -6.17665 1.3665 0
M  V30 1354 C 119.879 -6.46958 1.6432 0
M  V30 1355 H 119.149 -0.708499 -0.217047 0
M  V30 1356 H 121.796 -1.90937 0.146793 0
M  V30 1357 H 120.101 -3.35592 -2.02201 0
M  V30 1358 H 121.798 -3.61727 -1.73073 0
M  V30 1359 H 118.388 -4.26227 -0.450357 0
M  V30 1360 H 122.572 -4.95711 0.241748 0
M  V30 1361 H 117.828 -5.99487 1.20106 0
M  V30 1362 H 122.002 -6.70284 1.88924 0
M  V30 1363 H 119.629 -7.2215 2.37494 0
M  V30 1364 N 121.204 0.198386 -1.56346 0
M  V30 1365 C 122.451 0.919286 -1.80431 0
M  V30 1366 C 122.779 1.83393 -0.647866 0
M  V30 1367 O 122.034 1.92236 0.366556 0
M  V30 1368 C 122.333 1.77031 -3.10475 0
M  V30 1369 C 121.999 1.00693 -4.39513 0
M  V30 1370 C 120.661 0.796145 -4.74568 0
M  V30 1371 C 123.013 0.469559 -5.19081 0
M  V30 1372 C 120.341 0.0364588 -5.86689 0
M  V30 1373 C 122.693 -0.2769 -6.31994 0
M  V30 1374 C 121.357 -0.49873 -6.65634 0
M  V30 1375 H 120.627 0.336391 -0.660244 0
M  V30 1376 H 123.274 0.185872 -1.90596 0
M  V30 1377 H 121.579 2.5723 -2.95533 0
M  V30 1378 H 123.276 2.33065 -3.26315 0
M  V30 1379 H 119.866 1.18122 -4.12001 0
M  V30 1380 H 124.05 0.619816 -4.92414 0
M  V30 1381 H 119.306 -0.145412 -6.11227 0
M  V30 1382 H 123.48 -0.700684 -6.92866 0
M  V30 1383 H 121.107 -1.0893 -7.52355 0
M  V30 1384 N 122.682 1.50554 0.465978 0
M  V30 1385 C 123.959 1.5232 1.22712 0
M  V30 1386 C 124.339 0.270807 2.09356 0
M  V30 1387 O 123.687 -0.745541 2.15995 0
M  V30 1388 C 123.897 2.82175 2.05374 0
M  V30 1389 C 125.245 3.33033 2.6339 0
M  V30 1390 O 126.269 2.83531 2.15612 0
M  V30 1391 O 125.128 4.19336 3.50456 0
M  V30 1392 H 122.222 0.611183 0.557122 0
M  V30 1393 H 124.768 1.62847 0.477381 0
M  V30 1394 H 123.54 3.64797 1.41558 0
M  V30 1395 H 123.163 2.74675 2.87471 0
M  V30 1396 N 124.16 -0.719506 1.40217 0
M  V30 1397 C 125.406 -1.48152 1.38488 0
M  V30 1398 C 125.739 -1.94195 -0.0141867 0
M  V30 1399 O 125.014 -1.67884 -0.982096 0
M  V30 1400 C 125.297 -2.71035 2.37091 0
M  V30 1401 C 125.15 -2.30912 3.86005 0
M  V30 1402 C 126.469 -3.73182 2.33288 0
M  V30 1403 H 123.588 -0.537395 0.504357 0
M  V30 1404 H 126.23 -0.821472 1.71324 0
M  V30 1405 H 124.38 -3.27352 2.0922 0
M  V30 1406 H 126.052 -1.80107 4.24687 0
M  V30 1407 H 124.295 -1.62958 4.02029 0
M  V30 1408 H 124.966 -3.18978 4.50508 0
M  V30 1409 H 127.442 -3.26485 2.57966 0
M  V30 1410 H 126.318 -4.56806 3.04334 0
M  V30 1411 H 126.579 -4.21202 1.34317 0
M  V30 1412 N 125.638 -1.25649 -0.95132 0
M  V30 1413 C 126.601 -1.06399 -2.03007 0
M  V30 1414 C 127.601 -0.0156794 -1.60792 0
M  V30 1415 O 128.791 -0.25817 -1.72276 0
M  V30 1416 C 125.923 -0.616184 -3.35285 0
M  V30 1417 H 127.116 -2.02164 -2.21517 0
M  V30 1418 H 124.669 -1.08103 -1.12887 0
M  V30 1419 H 125.404 0.343917 -3.22471 0
M  V30 1420 H 125.189 -1.37301 -3.67275 0
M  V30 1421 H 126.679 -0.503032 -4.14559 0
M  V30 1422 N 127.117 1.15442 -1.07289 0
M  V30 1423 C 128.047 2.22312 -0.714107 0
M  V30 1424 C 129.028 1.67467 0.298155 0
M  V30 1425 O 130.213 1.93445 0.171048 0
M  V30 1426 C 127.343 3.47124 -0.110448 0
M  V30 1427 C 126.297 4.14926 -1.04979 0
M  V30 1428 C 125.623 5.33807 -0.308924 0
M  V30 1429 C 126.923 4.64762 -2.38314 0
M  V30 1430 H 128.617 2.5258 -1.6076 0
M  V30 1431 H 126.163 1.21404 -0.77441 0
M  V30 1432 H 128.116 4.21124 0.152482 0
M  V30 1433 H 126.84 3.16187 0.81812 0
M  V30 1434 H 125.499 3.42866 -1.29764 0
M  V30 1435 H 125.147 4.99126 0.623084 0
M  V30 1436 H 124.847 5.80113 -0.935036 0
M  V30 1437 H 126.371 6.10576 -0.0537771 0
M  V30 1438 H 127.785 5.30292 -2.1786 0
M  V30 1439 H 126.182 5.21728 -2.96514 0
M  V30 1440 H 127.252 3.80434 -3.00663 0
M  V30 1441 N 128.595 0.856903 1.32268 0
M  V30 1442 C 129.542 0.301172 2.28827 0
M  V30 1443 C 130.512 -0.593104 1.5515 0
M  V30 1444 O 131.697 -0.527537 1.83362 0
M  V30 1445 C 128.837 -0.502523 3.41422 0
M  V30 1446 C 127.95 0.417797 4.29975 0
M  V30 1447 C 127.085 -0.398749 5.29701 0
M  V30 1448 C 126.124 0.518827 6.09897 0
M  V30 1449 N 125.261 -0.260674 7.01616 0
M  V30 1450 H 130.101 1.12983 2.75751 0
M  V30 1451 H 127.638 0.568582 1.35667 0
M  V30 1452 H 129.596 -0.984141 4.05426 0
M  V30 1453 H 128.226 -1.29599 2.95642 0
M  V30 1454 H 127.278 1.01781 3.66531 0
M  V30 1455 H 128.59 1.12191 4.86019 0
M  V30 1456 H 127.744 -0.943435 5.9932 0
M  V30 1457 H 126.483 -1.13622 4.7428 0
M  V30 1458 H 125.488 1.07538 5.39181 0
M  V30 1459 H 126.713 1.25495 6.67404 0
M  V30 1460 H 124.659 -0.981198 6.4862 0
M  V30 1461 H 124.576 0.384364 7.55022 0
M  V30 1462 H 125.844 -0.787014 7.75517 0
M  V30 1463 N 130.073 -1.45103 0.615059 0
M  V30 1464 C 131.298 -2.07064 0.117988 0
M  V30 1465 C 131.723 -1.4554 -1.19163 0
M  V30 1466 O 131.081 -0.550855 -1.72729 0
M  V30 1467 C 131.129 -3.606 -0.000288387 0
M  V30 1468 O 130.233 -3.98847 -1.04856 0
M  V30 1469 H 129.574 -0.659467 0.0774581 0
M  V30 1470 H 132.104 -1.86236 0.847186 0
M  V30 1471 H 132.114 -4.07529 -0.196091 0
M  V30 1472 H 130.789 -4.04765 0.955932 0
M  V30 1473 H 129.366 -3.63577 -0.828619 0
M  V30 1474 N 131.551 -0.354651 -1.53558 0
M  V30 1475 C 132.776 0.242153 -2.05981 0
M  V30 1476 C 133.201 1.42553 -1.2272 0
M  V30 1477 O 132.559 1.79656 -0.243604 0
M  V30 1478 C 132.607 0.624367 -3.55154 0
M  V30 1479 O 131.711 1.72301 -3.74681 0
M  V30 1480 H 131.052 0.0378432 -0.662921 0
M  V30 1481 H 133.582 -0.512087 -1.98088 0
M  V30 1482 H 133.592 0.898433 -3.97985 0
M  V30 1483 H 132.267 -0.240989 -4.15201 0
M  V30 1484 H 130.844 1.44535 -3.4375 0
M  V30 1485 N 133.029 1.57378 -0.0835403 0
M  V30 1486 C 134.44 1.81261 0.447358 0
M  V30 1487 C 134.791 0.998331 1.68902 0
M  V30 1488 O 133.916 0.224282 2.15235 0
M  V30 1489 C 134.511 3.28767 0.818386 0
M  V30 1490 C 133.07 3.53455 1.29409 0
M  V30 1491 C 132.217 2.75831 0.285024 0
M  V30 1492 H 135.168 1.5566 -0.309115 0
M  V30 1493 H 135.189 3.41459 1.67887 0
M  V30 1494 H 134.701 3.88006 -0.0855019 0
M  V30 1495 H 132.802 2.99534 2.21608 0
M  V30 1496 H 132.915 4.62128 1.2639 0
M  V30 1497 H 131.279 2.42947 0.764767 0
M  V30 1498 H 132.062 3.37813 -0.611341 0
M  V30 1499 N 134.507 -0.190092 1.56449 0
M  V30 1500 C 135.735 -0.925772 1.85033 0
M  V30 1501 C 136.15 -1.76638 0.666658 0
M  V30 1502 O 135.507 -1.78822 -0.364565 0
M  V30 1503 C 135.558 -1.81786 3.12468 0
M  V30 1504 O 135.279 -1.01118 4.26271 0
M  V30 1505 C 136.78 -2.6648 3.54265 0
M  V30 1506 H 134 -0.269872 0.614337 0
M  V30 1507 H 136.544 -0.195837 2.0356 0
M  V30 1508 H 134.699 -2.50136 2.95822 0
M  V30 1509 H 135.113 -1.61956 4.98869 0
M  V30 1510 H 136.587 -3.24722 4.46385 0
M  V30 1511 H 137.064 -3.40434 2.77491 0
M  V30 1512 H 137.67 -2.03493 3.73458 0
M  V30 1513 N 135.985 -1.50799 -0.457987 0
M  V30 1514 C 136.895 -1.73426 -1.57989 0
M  V30 1515 C 137.911 -0.617745 -1.62665 0
M  V30 1516 O 139.087 -0.897614 -1.80291 0
M  V30 1517 C 136.152 -1.83557 -2.94122 0
M  V30 1518 C 135.213 -3.07345 -2.99729 0
M  V30 1519 C 134.446 -3.16983 -4.29368 0
M  V30 1520 O 134.669 -2.33077 -5.20607 0
M  V30 1521 O 133.603 -4.09812 -4.40837 0
M  V30 1522 H 137.429 -2.68555 -1.41817 0
M  V30 1523 H 135.014 -1.35052 -0.638859 0
M  V30 1524 H 136.896 -1.92326 -3.74952 0
M  V30 1525 H 135.571 -0.916137 -3.10465 0
M  V30 1526 H 134.478 -3.04068 -2.1793 0
M  V30 1527 H 135.811 -3.9891 -2.88326 0
M  V30 1528 N 137.463 0.71206 -1.40597 0
M  V30 1529 C 138.879 1.02058 -1.22704 0
M  V30 1530 C 139.079 2.01228 -0.104729 0
M  V30 1531 O 138.135 2.4674 0.53624 0
M  V30 1532 C 139.448 1.56094 -2.57012 0
M  V30 1533 C 140.996 1.6806 -2.64054 0
M  V30 1534 C 141.471 2.25501 -3.9864 0
M  V30 1535 N 142.962 2.32882 -4.004 0
M  V30 1536 C 143.697 2.78317 -5.01325 0
M  V30 1537 N 143.193 3.23478 -6.12645 0
M  V30 1538 N 144.986 2.77733 -4.88693 0
M  V30 1539 H 137.137 0.0547896 -2.12329 0
M  V30 1540 H 139.4 0.0869027 -0.944008 0
M  V30 1541 H 139.106 0.906865 -3.39807 0
M  V30 1542 H 138.98 2.54564 -2.78347 0
M  V30 1543 H 141.367 2.32583 -1.81629 0
M  V30 1544 H 141.448 0.681802 -2.46546 0
M  V30 1545 H 141.092 1.61598 -4.81506 0
M  V30 1546 H 141.022 3.26102 -4.13479 0
M  V30 1547 H 143.513 2.00991 -3.20017 0
M  V30 1548 H 143.826 3.56725 -6.85542 0
M  V30 1549 H 142.171 3.21429 -6.16205 0
M  V30 1550 H 145.362 2.4179 -4.00818 0
M  V30 1551 H 145.535 3.12826 -5.67489 0
M  V30 1552 N 138.941 1.26152 0.944643 0
M  V30 1553 C 139.889 1.07215 2.06417 0
M  V30 1554 C 140.883 9.2007e-05 1.694 0
M  V30 1555 O 142.089 0.1565 1.79318 0
M  V30 1556 H 138.464 0.329837 0.675805 0
M  V30 1557 H 140.435 2.02099 2.19541 0
M  V30 1558 C 139.184 0.718197 3.40202 0
M  V30 1559 H 138.507 1.53497 3.69159 0
M  V30 1560 H 139.947 0.625459 4.19361 0
M  V30 1561 C 138.406 -0.576435 3.31932 0
M  V30 1562 O 138.936 -1.61574 3.67773 0
M  V30 1563 N 137.142 -0.565781 2.85039 0
M  V30 1564 H 136.689 0.280367 2.5607 0
M  V30 1565 H 136.647 -1.43213 2.79888 0
M  V30 1566 N 140.419 -1.14872 1.07899 0
M  V30 1567 C 141.667 -1.85422 0.803941 0
M  V30 1568 C 141.988 -1.83051 -0.67211 0
M  V30 1569 O 141.258 -1.27532 -1.48703 0
M  V30 1570 H 139.838 -0.686537 0.294408 0
M  V30 1571 H 142.5 -1.39226 1.3639 0
M  V30 1572 H 141.596 -2.90399 1.14346 0
M  V30 1573 N 141.898 -0.863906 -1.31812 0
M  V30 1574 C 143.146 -0.470904 -1.96537 0
M  V30 1575 C 143.467 0.978771 -1.68657 0
M  V30 1576 O 142.737 1.6853 -0.998717 0
M  V30 1577 H 141.317 -0.171148 -0.72713 0
M  V30 1578 H 143.979 -1.10236 -1.60729 0
M  V30 1579 H 143.075 -0.623616 -3.05806 0
M  V30 1580 N 143.376 1.44774 -0.622745 0
M  V30 1581 C 144.308 2.28856 0.125485 0
M  V30 1582 C 145.321 1.40811 0.817069 0
M  V30 1583 O 146.51 1.65044 0.679918 0
M  V30 1584 C 143.61 3.16963 1.19949 0
M  V30 1585 C 142.783 4.33374 0.592064 0
M  V30 1586 C 141.842 5.02577 1.55893 0
M  V30 1587 O 140.868 5.58873 1.07933 0
M  V30 1588 N 142.07 5.03256 2.89334 0
M  V30 1589 H 144.835 2.93713 -0.596068 0
M  V30 1590 H 142.396 1.55129 -0.463303 0
M  V30 1591 H 144.388 3.60123 1.84644 0
M  V30 1592 H 142.958 2.53913 1.82337 0
M  V30 1593 H 142.178 3.93509 -0.233322 0
M  V30 1594 H 143.466 5.08527 0.166738 0
M  V30 1595 H 142.864 4.58836 3.30887 0
M  V30 1596 H 141.421 5.50232 3.49412 0
M  V30 1597 N 144.854 0.36279 1.53368 0
M  V30 1598 C 146.131 -0.284021 1.93527 0
M  V30 1599 C 146.511 -1.66628 1.29608 0
M  V30 1600 O 145.859 -2.23942 0.45413 0
M  V30 1601 C 146.069 -0.337028 3.47369 0
M  V30 1602 C 147.417 -0.578708 4.20638 0
M  V30 1603 O 148.441 -0.418352 3.53735 0
M  V30 1604 O 147.3 -0.89074 5.39192 0
M  V30 1605 H 144.394 -0.169743 0.809393 0
M  V30 1606 H 146.94 0.41537 1.64538 0
M  V30 1607 H 145.712 0.632217 3.86159 0
M  V30 1608 H 145.335 -1.08243 3.82582 0
M  V30 1609 N 146.332 -1.57332 0.0918853 0
M  V30 1610 C 147.28 -2.15075 -0.885747 0
M  V30 1611 C 148.274 -1.09277 -1.29441 0
M  V30 1612 O 149.48 -1.27627 -1.26931 0
M  V30 1613 H 145.855 -0.687966 -0.303656 0
M  V30 1614 H 147.826 -2.96047 -0.373995 0
M  V30 1615 C 146.575 -2.74325 -2.13638 0
M  V30 1616 H 145.898 -3.55418 -1.8308 0
M  V30 1617 H 147.338 -3.183 -2.80109 0
M  V30 1618 C 145.797 -1.70062 -2.90827 0
M  V30 1619 O 146.327 -1.13763 -3.85254 0
M  V30 1620 N 144.533 -1.40628 -2.54307 0
M  V30 1621 H 144.08 -1.866 -1.7759 0
M  V30 1622 H 144.038 -0.711043 -3.06254 0
M  V30 1623 N 147.81 0.181792 -1.56548 0
M  V30 1624 C 149.05 0.906711 -1.83189 0
M  V30 1625 C 149.414 1.79882 -0.671312 0
M  V30 1626 O 150.615 2.56054 -0.81792 0
M  V30 1627 C 148.886 1.69023 -3.14906 0
M  V30 1628 S 150.445 2.46535 -3.62996 0
M  V30 1629 H 147.263 0.303877 -0.642791 0
M  V30 1630 H 149.865 0.169107 -1.94767 0
M  V30 1631 H 148.569 1.02571 -3.97376 0
M  V30 1632 H 148.1 2.46941 -3.06241 0
M  V30 1633 H 150.115 3.71014 -3.29489 0
M  V30 1634 N 149.288 1.51039 0.449983 0
M  V30 1635 C 150.704 1.38934 0.785462 0
M  V30 1636 C 150.904 0.461817 1.96136 0
M  V30 1637 O 149.96 -0.0877389 2.52348 0
M  V30 1638 C 151.273 2.80724 1.0777 0
M  V30 1639 C 152.821 2.89787 1.1829 0
M  V30 1640 C 153.296 4.32457 1.50815 0
M  V30 1641 N 154.787 4.35505 1.57764 0
M  V30 1642 C 155.522 5.42914 1.84477 0
M  V30 1643 N 155.018 6.60502 2.09068 0
M  V30 1644 N 156.811 5.3038 1.86155 0
M  V30 1645 H 148.962 2.09904 -0.324647 0
M  V30 1646 H 151.225 0.944378 -0.0827957 0
M  V30 1647 H 150.931 3.50531 0.286498 0
M  V30 1648 H 150.805 3.19273 2.00859 0
M  V30 1649 H 153.192 2.20186 1.96474 0
M  V30 1650 H 153.273 2.54752 0.231314 0
M  V30 1651 H 152.917 5.02603 0.731622 0
M  V30 1652 H 152.847 4.64995 2.47158 0
M  V30 1653 H 155.338 3.50724 1.40715 0
M  V30 1654 H 155.651 7.38158 2.28785 0
M  V30 1655 H 153.996 6.63639 2.06416 0
M  V30 1656 H 157.187 4.37505 1.66454 0
M  V30 1657 H 157.36 6.1417 2.06637 0
M  V30 1658 N 150.766 -0.704594 1.40972 0
M  V30 1659 C 151.729 -1.80035 1.41845 0
M  V30 1660 C 152.729 -1.57774 0.310474 0
M  V30 1661 O 153.919 -1.64613 0.56992 0
M  V30 1662 C 151.051 -3.18284 1.22098 0
M  V30 1663 H 152.244 -1.80658 2.3938 0
M  V30 1664 H 149.797 -0.911329 1.26982 0
M  V30 1665 H 150.532 -3.23306 0.253672 0
M  V30 1666 H 150.317 -3.35843 2.02366 0
M  V30 1667 H 151.807 -3.98289 1.25522 0
M  V30 1668 N 152.244 -1.26651 -0.937939 0
M  V30 1669 C 153.207 -1.08546 -2.01867 0
M  V30 1670 C 154.207 -0.0327327 -1.60767 0
M  V30 1671 O 155.397 -0.276427 -1.71993 0
M  V30 1672 C 152.529 -0.651711 -3.34613 0
M  V30 1673 H 153.722 -2.04502 -2.1936 0
M  V30 1674 H 151.275 -1.09294 -1.11734 0
M  V30 1675 H 152.01 0.309696 -3.22818 0
M  V30 1676 H 151.795 -1.41189 -3.65798 0
M  V30 1677 H 153.285 -0.546973 -4.14002 0
M  V30 1678 N 153.722 1.14298 -1.08507 0
M  V30 1679 C 154.67 2.21483 -0.710483 0
M  V30 1680 C 155.664 1.66998 0.284234 0
M  V30 1681 O 156.87 1.79401 0.146692 0
M  V30 1682 H 153.245 0.721578 -0.211729 0
M  V30 1683 H 155.216 2.50348 -1.62384 0
M  V30 1684 C 153.965 3.4743 -0.137007 0
M  V30 1685 H 153.288 3.89686 -0.893592 0
M  V30 1686 H 154.728 4.2391 0.0872789 0
M  V30 1687 C 153.187 3.17548 1.12538 0
M  V30 1688 O 153.717 3.35437 2.21009 0
M  V30 1689 N 151.923 2.71499 1.03617 0
M  V30 1690 H 151.47 2.57143 0.153403 0
M  V30 1691 H 151.428 2.51881 1.88158 0
M  V30 1692 N 155.201 0.870884 1.31352 0
M  V30 1693 C 156.448 0.482273 1.96673 0
M  V30 1694 C 156.776 -0.965638 1.68836 0
M  V30 1695 O 156.031 -1.69514 0.977937 0
M  V30 1696 C 156.33 0.687157 3.50732 0
M  V30 1697 C 155.996 2.108 3.9859 0
M  V30 1698 C 154.658 2.49656 4.1137 0
M  V30 1699 C 157.01 3.03459 4.23748 0
M  V30 1700 C 154.338 3.80412 4.46659 0
M  V30 1701 C 156.69 4.3373 4.60501 0
M  V30 1702 C 155.354 4.725 4.71487 0
M  V30 1703 H 154.624 0.176476 0.719679 0
M  V30 1704 H 157.271 1.10405 1.56471 0
M  V30 1705 H 155.576 -0.0177476 3.91796 0
M  V30 1706 H 157.273 0.366284 3.99324 0
M  V30 1707 H 153.863 1.79633 3.8914 0
M  V30 1708 H 158.047 2.74665 4.13368 0
M  V30 1709 H 153.303 4.1021 4.53362 0
M  V30 1710 H 157.477 5.05578 4.78919 0
M  V30 1711 H 155.104 5.73859 4.98588 0
M  V30 1712 N 156.679 -1.44442 0.630414 0
M  V30 1713 C 158.095 -1.56832 0.295973 0
M  V30 1714 C 158.295 -1.61806 -1.20088 0
M  V30 1715 O 157.351 -1.5607 -1.9849 0
M  V30 1716 C 158.664 -2.84031 0.987264 0
M  V30 1717 C 160.212 -2.97742 0.96534 0
M  V30 1718 C 160.687 -4.27743 1.63708 0
M  V30 1719 N 162.178 -4.34555 1.60364 0
M  V30 1720 C 162.913 -5.33862 2.09234 0
M  V30 1721 N 162.409 -6.39578 2.66292 0
M  V30 1722 N 164.202 -5.25366 1.99867 0
M  V30 1723 H 156.353 -1.39457 1.60205 0
M  V30 1724 H 158.616 -0.668237 0.672431 0
M  V30 1725 H 158.322 -2.86338 2.04215 0
M  V30 1726 H 158.196 -3.73534 0.524588 0
M  V30 1727 H 160.583 -2.94989 -0.0810639 0
M  V30 1728 H 160.664 -2.09589 1.4665 0
M  V30 1729 H 160.308 -4.31255 2.68293 0
M  V30 1730 H 160.238 -5.14752 1.11076 0
M  V30 1731 H 162.729 -3.58772 1.18705 0
M  V30 1732 H 163.042 -7.11637 3.01317 0
M  V30 1733 H 161.387 -6.40265 2.70343 0
M  V30 1734 H 164.578 -4.41688 1.55013 0
M  V30 1735 H 164.751 -6.02606 2.38265 0
M  V30 1736 N 158.157 -0.370918 -1.53173 0
M  V30 1737 C 159.067 0.480823 -2.2962 0
M  V30 1738 C 160.083 1.08789 -1.35798 0
M  V30 1739 O 161.259 1.09768 -1.68858 0
M  V30 1740 C 158.324 1.60227 -3.07454 0
M  V30 1741 C 157.385 1.0222 -4.16953 0
M  V30 1742 C 156.618 2.0902 -4.91066 0
M  V30 1743 O 156.841 3.30222 -4.65091 0
M  V30 1744 O 155.775 1.71778 -5.76867 0
M  V30 1745 H 159.601 -0.141421 -3.03371 0
M  V30 1746 H 157.186 -0.135146 -1.48787 0
M  V30 1747 H 159.068 2.25417 -3.56041 0
M  V30 1748 H 157.743 2.20982 -2.36535 0
M  V30 1749 H 156.65 0.334064 -3.72605 0
M  V30 1750 H 157.983 0.459131 -4.90054 0
M  V30 1751 N 159.635 1.57281 -0.100228 0
M  V30 1752 C 160.883 1.94153 0.561157 0
M  V30 1753 C 161.204 0.983157 1.68401 0
M  V30 1754 O 160.474 0.0361132 1.95867 0
M  V30 1755 H 159.054 0.716791 0.210283 0
M  V30 1756 H 161.716 1.94202 -0.164765 0
M  V30 1757 H 160.812 2.96709 0.968008 0
M  V30 1758 N 161.113 -0.173488 1.56642 0
M  V30 1759 C 162.043 -1.2171 1.99271 0
M  V30 1760 C 163.024 -1.46289 0.867959 0
M  V30 1761 O 164.209 -1.5766 1.13388 0
M  V30 1762 C 161.339 -2.55651 2.35074 0
M  V30 1763 C 160.293 -2.45645 3.50489 0
M  V30 1764 C 159.619 -3.84056 3.72028 0
M  V30 1765 C 160.919 -1.96302 4.84007 0
M  V30 1766 H 162.613 -0.86275 2.867 0
M  V30 1767 H 160.159 -0.413571 1.37933 0
M  V30 1768 H 162.112 -3.2886 2.63494 0
M  V30 1769 H 160.836 -2.92869 1.44552 0
M  V30 1770 H 159.495 -1.7489 3.22194 0
M  V30 1771 H 159.143 -4.18664 2.788 0
M  V30 1772 H 158.843 -3.7823 4.49684 0
M  V30 1773 H 160.367 -4.58854 4.02846 0
M  V30 1774 H 161.781 -2.59284 5.11317 0
M  V30 1775 H 160.178 -2.01429 5.65284 0
M  V30 1776 H 161.248 -0.917226 4.76146 0
M  V30 1777 N 162.591 -1.51276 -0.441967 0
M  V30 1778 C 163.539 -1.72823 -1.55676 0
M  V30 1779 C 164.533 -0.59445 -1.58627 0
M  V30 1780 O 165.739 -0.775715 -1.62427 0
M  V30 1781 H 162.114 -0.545983 -0.517113 0
M  V30 1782 H 164.085 -2.6628 -1.34675 0
M  V30 1783 C 162.834 -1.86619 -2.93375 0
M  V30 1784 H 162.157 -2.73264 -2.91834 0
M  V30 1785 H 163.597 -2.05709 -3.70756 0
M  V30 1786 C 162.056 -0.624842 -3.31055 0
M  V30 1787 O 162.586 0.222636 -4.01083 0
M  V30 1788 N 160.792 -0.470288 -2.86769 0
M  V30 1789 H 160.339 -1.161 -2.29953 0
M  V30 1790 H 160.297 0.359051 -3.12343 0
M  V30 1791 N 164.069 0.697108 -1.41344 0
M  V30 1792 C 164.999 1.82353 -1.45841 0
M  V30 1793 C 165.98 1.67115 -0.317247 0
M  V30 1794 O 167.165 1.86871 -0.528474 0
M  V30 1795 C 164.295 3.20476 -1.33838 0
M  V30 1796 C 163.249 3.50415 -2.4575 0
M  V30 1797 C 162.575 4.87878 -2.18813 0
M  V30 1798 C 163.875 3.49546 -3.88091 0
M  V30 1799 H 165.569 1.78846 -2.40113 0
M  V30 1800 H 163.115 0.859028 -1.15571 0
M  V30 1801 H 165.068 3.98988 -1.35596 0
M  V30 1802 H 163.792 3.24604 -0.360498 0
M  V30 1803 H 162.451 2.74253 -2.43271 0
M  V30 1804 H 162.099 4.8863 -1.19371 0
M  V30 1805 H 161.799 5.08875 -2.93803 0
M  V30 1806 H 163.323 5.68702 -2.22284 0
M  V30 1807 H 164.737 4.18066 -3.92293 0
M  V30 1808 H 163.134 3.82075 -4.62751 0
M  V30 1809 H 164.204 2.48552 -4.16353 0
M  V30 1810 N 165.547 1.27147 0.931209 0
M  V30 1811 C 166.479 1.05364 2.03546 0
M  V30 1812 C 167.492 0.0108438 1.62796 0
M  V30 1813 O 168.681 0.25202 1.76712 0
M  V30 1814 C 165.781 0.575566 3.33977 0
M  V30 1815 C 164.954 1.68985 4.03439 0
M  V30 1816 C 164.013 1.20813 5.12143 0
M  V30 1817 O 163.039 1.90712 5.363 0
M  V30 1818 N 164.241 0.0618851 5.80467 0
M  V30 1819 H 167.006 2.00454 2.22796 0
M  V30 1820 H 164.567 1.18666 1.10136 0
M  V30 1821 H 166.559 0.237264 4.04004 0
M  V30 1822 H 165.129 -0.282016 3.11325 0
M  V30 1823 H 164.349 2.19861 3.27192 0
M  V30 1824 H 165.637 2.4378 4.46597 0
M  V30 1825 H 165.035 -0.521621 5.6329 0
M  V30 1826 H 163.592 -0.217264 6.51438 0
M  V30 1827 N 167.025 -1.13721 1.09112 0
M  V30 1828 C 167.935 -2.22638 0.73957 0
M  V30 1829 C 168.951 -1.72091 -0.257068 0
M  V30 1830 O 170.127 -2.01155 -0.0992154 0
M  V30 1831 C 167.192 -3.46322 0.16191 0
M  V30 1832 C 166.253 -4.11775 1.21408 0
M  V30 1833 C 165.486 -5.29555 0.663891 0
M  V30 1834 O 165.709 -5.68077 -0.514274 0
M  V30 1835 O 164.643 -5.84973 1.41738 0
M  V30 1836 H 168.469 -2.55074 1.64836 0
M  V30 1837 H 166.054 -1.21791 0.865289 0
M  V30 1838 H 167.936 -4.21107 -0.157073 0
M  V30 1839 H 166.611 -3.15593 -0.719932 0
M  V30 1840 H 165.518 -3.3883 1.58571 0
M  V30 1841 H 166.851 -4.46627 2.06845 0
M  V30 1842 N 168.503 -0.877838 -1.30888 0
M  V30 1843 C 169.751 -0.491723 -1.96027 0
M  V30 1844 C 170.072 0.960827 -1.69685 0
M  V30 1845 O 169.342 1.67462 -1.01654 0
M  V30 1846 H 167.922 -0.17885 -0.725273 0
M  V30 1847 H 170.584 -1.11935 -1.59551 0
M  V30 1848 H 169.68 -0.656016 -3.05128 0
M  V30 1849 N 169.982 1.44106 -0.638065 0
M  V30 1850 C 170.892 2.34513 0.0637334 0
M  V30 1851 C 171.908 1.53018 0.828346 0
M  V30 1852 O 173.084 1.85723 0.779036 0
M  V30 1853 C 170.149 3.31095 1.02844 0
M  V30 1854 C 169.21 4.28497 0.26244 0
M  V30 1855 C 168.443 5.20465 1.1812 0
M  V30 1856 O 168.666 5.16514 2.42011 0
M  V30 1857 O 167.6 5.98251 0.661774 0
M  V30 1858 H 171.426 2.95989 -0.68003 0
M  V30 1859 H 169.011 1.43994 -0.398252 0
M  V30 1860 H 170.893 3.90526 1.58327 0
M  V30 1861 H 169.568 2.72144 1.7527 0
M  V30 1862 H 168.475 3.72592 -0.335602 0
M  V30 1863 H 169.808 4.90388 -0.421936 0
M  V30 1864 N 171.46 0.379036 1.52974 0
M  V30 1865 C 172.707 -0.206421 2.01445 0
M  V30 1866 C 173.035 -1.47668 1.26587 0
M  V30 1867 O 172.29 -1.92514 0.351675 0
M  V30 1868 C 172.589 -0.53096 3.53434 0
M  V30 1869 C 172.255 0.646546 4.46241 0
M  V30 1870 C 170.917 0.969604 4.7133 0
M  V30 1871 C 173.269 1.43479 5.01062 0
M  V30 1872 C 170.597 2.08263 5.48492 0
M  V30 1873 C 172.949 2.53834 5.7944 0
M  V30 1874 C 171.613 2.86659 6.02812 0
M  V30 1875 H 170.883 -0.0755349 0.73714 0
M  V30 1876 H 173.53 0.514271 1.84465 0
M  V30 1877 H 171.835 -1.33285 3.68432 0
M  V30 1878 H 173.532 -0.996417 3.88423 0
M  V30 1879 H 170.122 0.384734 4.2687 0
M  V30 1880 H 174.306 1.19844 4.81613 0
M  V30 1881 H 169.562 2.34078 5.64816 0
M  V30 1882 H 173.736 3.15319 6.20924 0
M  V30 1883 H 171.363 3.73026 6.62387 0
M  V30 1884 N 172.938 -1.57226 0.108567 0
M  V30 1885 C 173.868 -2.17778 -0.84232 0
M  V30 1886 C 174.849 -1.11487 -1.2847 0
M  V30 1887 O 176.034 -1.39681 -1.34918 0
M  V30 1888 C 173.164 -2.76888 -2.09644 0
M  V30 1889 C 172.118 -3.88669 -1.79221 0
M  V30 1890 C 171.444 -4.34541 -3.11574 0
M  V30 1891 C 172.744 -5.11251 -1.06864 0
M  V30 1892 H 174.438 -2.97489 -0.337774 0
M  V30 1893 H 171.984 -1.43097 -0.161025 0
M  V30 1894 H 173.937 -3.17904 -2.76614 0
M  V30 1895 H 172.661 -1.94451 -2.62405 0
M  V30 1896 H 171.32 -3.48213 -1.14644 0
M  V30 1897 H 170.968 -3.48977 -3.62249 0
M  V30 1898 H 170.668 -5.09914 -2.91996 0
M  V30 1899 H 172.192 -4.782 -3.7968 0
M  V30 1900 H 173.606 -5.49352 -1.63968 0
M  V30 1901 H 172.003 -5.9214 -0.974178 0
M  V30 1902 H 173.073 -4.8487 -0.0536168 0
M  V30 1903 N 174.416 0.165178 -1.56732 0
M  V30 1904 C 175.346 1.20651 -1.99914 0
M  V30 1905 C 176.327 1.45827 -0.875705 0
M  V30 1906 O 177.512 1.57057 -1.14223 0
M  V30 1907 C 174.642 2.54401 -2.36427 0
M  V30 1908 C 173.596 2.43782 -3.51787 0
M  V30 1909 C 172.922 3.82078 -3.7406 0
M  V30 1910 C 174.222 1.93732 -4.85041 0
M  V30 1911 H 175.916 0.847534 -2.87154 0
M  V30 1912 H 173.462 0.40625 -1.38151 0
M  V30 1913 H 175.415 3.27458 -2.65234 0
M  V30 1914 H 174.139 2.92098 -1.46103 0
M  V30 1915 H 172.798 1.73178 -3.23117 0
M  V30 1916 H 172.446 4.17179 -2.81017 0
M  V30 1917 H 172.146 3.7584 -4.51684 0
M  V30 1918 H 173.67 4.56712 -4.05274 0
M  V30 1919 H 175.084 2.56569 -5.12684 0
M  V30 1920 H 173.481 1.98428 -5.66345 0
M  V30 1921 H 174.551 0.891962 -4.76626 0
M  V30 1922 N 175.894 1.51508 0.433938 0
M  V30 1923 C 176.826 1.69266 1.54537 0
M  V30 1924 C 177.839 0.573276 1.52373 0
M  V30 1925 O 179.028 0.847698 1.57087 0
M  V30 1926 C 176.128 1.69524 2.93453 0
M  V30 1927 C 175.301 2.98101 3.20085 0
M  V30 1928 C 174.36 2.90502 4.38742 0
M  V30 1929 O 173.386 3.64442 4.3723 0
M  V30 1930 N 174.588 2.06586 5.42496 0
M  V30 1931 H 177.353 2.65145 1.39708 0
M  V30 1932 H 174.914 1.49437 0.622922 0
M  V30 1933 H 176.906 1.62004 3.70859 0
M  V30 1934 H 175.476 0.812245 3.01863 0
M  V30 1935 H 174.696 3.19464 2.30947 0
M  V30 1936 H 175.984 3.83207 3.34708 0
M  V30 1937 H 175.382 1.45896 5.46563 0
M  V30 1938 H 173.939 2.04943 6.18742 0
M  V30 1939 N 177.372 -0.689602 1.41712 0
M  V30 1940 C 178.335 -1.78521 1.43746 0
M  V30 1941 C 179.335 -1.57436 0.327191 0
M  V30 1942 O 180.525 -1.64 0.587348 0
M  V30 1943 C 177.657 -3.16971 1.25467 0
M  V30 1944 H 178.85 -1.78108 2.41283 0
M  V30 1945 H 176.403 -0.89781 1.27942 0
M  V30 1946 H 177.138 -3.23019 0.287948 0
M  V30 1947 H 176.923 -3.33678 2.05917 0
M  V30 1948 H 178.413 -3.96935 1.2974 0
M  V30 1949 N 178.85 -1.27639 -0.924453 0
M  V30 1950 C 179.78 -1.13166 -2.04244 0
M  V30 1951 C 180.761 -0.032256 -1.70069 0
M  V30 1952 O 181.946 -0.207328 -1.9309 0
M  V30 1953 C 179.076 -0.781496 -3.38393 0
M  V30 1954 C 178.03 -1.83449 -3.86692 0
M  V30 1955 C 177.356 -1.33822 -5.17683 0
M  V30 1956 C 178.656 -3.23917 -4.09726 0
M  V30 1957 H 180.35 -2.06689 -2.1661 0
M  V30 1958 H 177.896 -0.995136 -1.04082 0
M  V30 1959 H 179.849 -0.667057 -4.16087 0
M  V30 1960 H 178.573 0.189439 -3.2605 0
M  V30 1961 H 177.232 -1.93789 -3.11193 0
M  V30 1962 H 176.88 -0.35665 -5.01734 0
M  V30 1963 H 176.58 -2.04224 -5.50968 0
M  V30 1964 H 178.104 -1.23679 -5.97943 0
M  V30 1965 H 179.518 -3.16559 -4.77978 0
M  V30 1966 H 177.915 -3.92059 -4.54324 0
M  V30 1967 H 178.985 -3.68729 -3.14908 0
M  V30 1968 N 180.328 1.1314 -1.09713 0
M  V30 1969 C 181.276 2.20717 -0.733934 0
M  V30 1970 C 182.27 1.6729 0.266506 0
M  V30 1971 O 183.476 1.79547 0.127656 0
M  V30 1972 H 179.851 0.719292 -0.21937 0
M  V30 1973 H 181.822 2.48611 -1.6503 0
M  V30 1974 C 180.571 3.47265 -0.173849 0
M  V30 1975 H 179.894 3.88716 -0.934873 0
M  V30 1976 H 181.334 4.23979 0.0423126 0
M  V30 1977 C 179.793 3.18724 1.09164 0
M  V30 1978 O 180.323 3.37762 2.17439 0
M  V30 1979 N 178.529 2.72583 1.00732 0
M  V30 1980 H 178.076 2.57291 0.126121 0
M  V30 1981 H 178.034 2.53862 1.85476 0
M  V30 1982 N 181.806 0.884767 1.30421 0
M  V30 1983 C 183.054 0.502112 1.95763 0
M  V30 1984 C 183.375 -0.951815 1.70192 0
M  V30 1985 O 182.645 -1.6692 1.0254 0
M  V30 1986 H 181.225 0.182694 0.724315 0
M  V30 1987 H 183.887 1.1278 1.58955 0
M  V30 1988 H 182.983 0.672188 3.04775 0
M  V30 1989 N 183.284 -1.43765 0.645699 0
M  V30 1990 C 184.531 -2.01898 0.15604 0
M  V30 1991 C 184.859 -1.50887 -1.22733 0
M  V30 1992 O 184.114 -0.689271 -1.8316 0
M  V30 1993 C 184.413 -3.57238 0.107679 0
M  V30 1994 C 184.079 -4.27564 1.43178 0
M  V30 1995 C 182.741 -4.46492 1.7944 0
M  V30 1996 C 185.093 -4.67454 2.30513 0
M  V30 1997 C 182.421 -5.02573 3.02716 0
M  V30 1998 C 184.773 -5.24901 3.53074 0
M  V30 1999 C 183.437 -5.42046 3.89541 0
M  V30 2000 H 182.707 -0.738797 0.057099 0
M  V30 2001 H 185.354 -1.72341 0.834912 0
M  V30 2002 H 183.659 -3.86293 -0.654618 0
M  V30 2003 H 185.356 -3.99965 -0.287938 0
M  V30 2004 H 181.946 -4.13171 1.13963 0
M  V30 2005 H 186.13 -4.5253 2.0379 0
M  V30 2006 H 181.386 -5.14033 3.31028 0
M  V30 2007 H 185.56 -5.54758 4.20971 0
M  V30 2008 H 183.187 -5.85268 4.85145 0
M  V30 2009 N 184.763 -0.387143 -1.52771 0
M  V30 2010 C 186.009 0.196025 -2.0185 0
M  V30 2011 C 186.342 1.46641 -1.27319 0
M  V30 2012 O 185.617 1.90889 -0.373032 0
M  V30 2013 C 185.9 0.466136 -3.5707 0
M  V30 2014 C 185.753 -0.819385 -4.42274 0
M  V30 2015 C 187.072 1.25768 -4.21747 0
M  V30 2016 H 184.191 0.0697708 -0.73369 0
M  V30 2017 H 186.833 -0.516286 -1.82851 0
M  V30 2018 H 184.983 1.07293 -3.7339 0
M  V30 2019 H 186.655 -1.4563 -4.37709 0
M  V30 2020 H 184.898 -1.43517 -4.09372 0
M  V30 2021 H 185.569 -0.585065 -5.48891 0
M  V30 2022 H 188.045 0.744167 -4.09391 0
M  V30 2023 H 186.921 1.41541 -5.30337 0
M  V30 2024 H 187.182 2.27228 -3.79236 0
M  V30 2025 N 186.241 1.57166 -0.116904 0
M  V30 2026 C 187.171 2.18222 0.830759 0
M  V30 2027 C 188.152 1.12167 1.27877 0
M  V30 2028 O 189.337 1.40394 1.34176 0
M  V30 2029 C 186.467 2.77996 2.08172 0
M  V30 2030 C 185.421 3.89614 1.77157 0
M  V30 2031 C 184.747 4.36187 3.09265 0
M  V30 2032 C 186.047 5.1181 1.04151 0
M  V30 2033 H 187.741 2.97664 0.321992 0
M  V30 2034 H 185.287 1.4318 0.153434 0
M  V30 2035 H 187.24 3.19366 2.74924 0
M  V30 2036 H 185.964 1.9584 2.6137 0
M  V30 2037 H 184.623 3.48816 1.12796 0
M  V30 2038 H 184.271 3.50893 3.60393 0
M  V30 2039 H 183.971 5.11455 2.89288 0
M  V30 2040 H 185.495 4.80207 3.77139 0
M  V30 2041 H 186.909 5.50214 1.61052 0
M  V30 2042 H 185.306 5.92648 0.942762 0
M  V30 2043 H 186.376 4.84892 0.0279022 0
M  V30 2044 N 187.719 -0.156864 1.56817 0
M  V30 2045 C 188.965 -0.872416 1.83076 0
M  V30 2046 C 189.298 -1.81261 0.697001 0
M  V30 2047 O 188.573 -1.92171 -0.30008 0
M  V30 2048 C 188.856 -1.65551 3.19789 0
M  V30 2049 C 188.709 -0.737467 4.43713 0
M  V30 2050 C 190.028 -2.62012 3.53606 0
M  V30 2051 H 187.147 -0.315715 0.665953 0
M  V30 2052 H 189.789 -0.138004 1.89498 0
M  V30 2053 H 187.939 -2.28159 3.14445 0
M  V30 2054 H 189.611 -0.123143 4.61136 0
M  V30 2055 H 187.854 -0.0464067 4.33775 0
M  V30 2056 H 188.525 -1.32122 5.35955 0
M  V30 2057 H 191.001 -2.09525 3.59497 0
M  V30 2058 H 189.877 -3.13861 4.50314 0
M  V30 2059 H 190.138 -3.42902 2.79053 0
M  V30 2060 N 189.197 -1.51736 -0.425897 0
M  V30 2061 C 190.443 -1.65214 -1.1761 0
M  V30 2062 C 190.776 -0.372778 -1.90589 0
M  V30 2063 O 190.051 0.628139 -1.84078 0
M  V30 2064 C 190.334 -2.86312 -2.18398 0
M  V30 2065 C 190.187 -4.24254 -1.49426 0
M  V30 2066 C 191.506 -3.02925 -3.19256 0
M  V30 2067 H 188.625 -0.601263 -0.426206 0
M  V30 2068 H 191.267 -1.8425 -0.463882 0
M  V30 2069 H 189.417 -2.70213 -2.79137 0
M  V30 2070 H 191.089 -4.52046 -0.919362 0
M  V30 2071 H 189.332 -4.26426 -0.796432 0
M  V30 2072 H 190.003 -5.05001 -2.22885 0
M  V30 2073 H 192.479 -3.1781 -2.68581 0
M  V30 2074 H 191.355 -3.89199 -3.8706 0
M  V30 2075 H 191.616 -2.15497 -3.86023 0
M  V30 2076 N 190.675 0.682077 -1.42076 0
M  V30 2077 C 191.903 1.47057 -1.4554 0
M  V30 2078 C 192.318 1.8869 -0.0645779 0
M  V30 2079 O 191.675 1.57666 0.919115 0
M  V30 2080 C 191.726 2.72442 -2.37609 0
M  V30 2081 O 191.447 2.32559 -3.71279 0
M  V30 2082 C 192.948 3.66069 -2.50017 0
M  V30 2083 H 190.168 0.452737 -0.495248 0
M  V30 2084 H 192.712 0.838695 -1.8651 0
M  V30 2085 H 190.867 3.31835 -1.9991 0
M  V30 2086 H 191.281 3.13475 -4.20516 0
M  V30 2087 H 192.755 4.50792 -3.18576 0
M  V30 2088 H 193.232 4.11476 -1.53572 0
M  V30 2089 H 193.838 3.12572 -2.88407 0
M  V30 2090 N 192.153 1.28127 0.917671 0
M  V30 2091 C 193.381 1.17892 1.70026 0
M  V30 2092 C 193.796 -0.262958 1.8696 0
M  V30 2093 O 193.153 -1.17811 1.3938 0
M  V30 2094 C 193.204 1.86872 3.09453 0
M  V30 2095 O 192.925 3.25428 2.93306 0
M  V30 2096 C 194.426 1.8289 4.03815 0
M  V30 2097 H 191.646 0.40942 0.531617 0
M  V30 2098 H 194.19 1.69181 1.14883 0
M  V30 2099 H 192.345 1.39464 3.61426 0
M  V30 2100 H 192.759 3.59918 3.81523 0
M  V30 2101 H 194.233 2.35751 4.99125 0
M  V30 2102 H 194.71 0.800412 4.31845 0
M  V30 2103 H 195.316 2.29959 3.57769 0
M  V30 2104 N 193.631 -1.12557 1.10312 0
M  V30 2105 C 194.908 -1.80363 0.756878 0
M  V30 2106 C 195.288 -1.97067 -0.756824 0
M  V30 2107 O 194.636 -1.54601 -1.68259 0
M  V30 2108 C 194.846 -3.14812 1.50647 0
M  V30 2109 C 196.194 -3.90029 1.67817 0
M  V30 2110 O 197.218 -3.24464 1.46974 0
M  V30 2111 O 196.077 -5.07652 2.02365 0
M  V30 2112 H 193.171 -0.780667 0.272926 0
M  V30 2113 H 195.717 -1.19404 1.20586 0
M  V30 2114 H 194.489 -2.97936 2.53672 0
M  V30 2115 H 194.112 -3.83478 1.05026 0
M  V30 2116 N 195.109 -0.891671 -1.2995 0
M  V30 2117 C 196.072 -0.36828 -2.26222 0
M  V30 2118 C 197.072 0.493014 -1.53056 0
M  V30 2119 O 198.262 0.299213 -1.71611 0
M  V30 2120 C 195.394 0.47442 -3.37583 0
M  V30 2121 H 196.587 -1.21844 -2.74033 0
M  V30 2122 H 194.14 -0.669107 -1.41254 0
M  V30 2123 H 194.875 1.34489 -2.95099 0
M  V30 2124 H 194.66 -0.142615 -3.91841 0
M  V30 2125 H 196.15 0.83218 -4.09224 0
M  V30 2126 N 196.587 1.43421 -0.653314 0
M  V30 2127 C 197.517 2.33487 0.0246656 0
M  V30 2128 C 198.498 1.49475 0.811863 0
M  V30 2129 O 199.683 1.78139 0.773322 0
M  V30 2130 C 196.813 3.32841 0.99166 0
M  V30 2131 C 195.767 4.26842 0.314568 0
M  V30 2132 C 195.093 5.16236 1.39302 0
M  V30 2133 C 196.393 5.16243 -0.793095 0
M  V30 2134 H 198.087 2.90427 -0.727481 0
M  V30 2135 H 195.633 1.39649 -0.351287 0
M  V30 2136 H 197.586 3.94747 1.47487 0
M  V30 2137 H 196.31 2.74158 1.77497 0
M  V30 2138 H 194.969 3.663 -0.148199 0
M  V30 2139 H 194.617 4.53891 2.16776 0
M  V30 2140 H 194.317 5.79948 0.945223 0
M  V30 2141 H 195.841 5.81015 1.87759 0
M  V30 2142 H 197.255 5.71958 -0.392039 0
M  V30 2143 H 195.652 5.88676 -1.16536 0
M  V30 2144 H 196.722 4.55927 -1.65103 0
M  V30 2145 N 198.065 0.39524 1.52563 0
M  V30 2146 C 199.311 -0.185318 2.01952 0
M  V30 2147 C 199.644 -1.45964 1.28095 0
M  V30 2148 O 198.919 -1.90689 0.38315 0
M  V30 2149 C 199.202 -0.447193 3.57312 0
M  V30 2150 C 199.055 0.842828 4.41833 0
M  V30 2151 C 200.374 -1.23529 4.22408 0
M  V30 2152 H 197.493 -0.0658788 0.73405 0
M  V30 2153 H 200.135 0.525975 1.82575 0
M  V30 2154 H 198.285 -1.05312 3.73954 0
M  V30 2155 H 199.957 1.4795 4.36931 0
M  V30 2156 H 198.2 1.45686 4.08605 0
M  V30 2157 H 198.871 0.614165 5.48573 0
M  V30 2158 H 201.347 -0.722445 4.0978 0
M  V30 2159 H 200.223 -1.38727 5.3108 0
M  V30 2160 H 200.484 -2.25213 3.80436 0
M  V30 2161 N 199.544 -1.57102 0.125237 0
M  V30 2162 C 200.791 -1.95407 -0.531248 0
M  V30 2163 C 201.119 -1.0089 -1.66287 0
M  V30 2164 O 200.374 -0.0339431 -1.95671 0
M  V30 2165 C 200.673 -3.40096 -1.09862 0
M  V30 2166 C 200.339 -4.50815 -0.0876989 0
M  V30 2167 C 199.001 -4.80824 0.19026 0
M  V30 2168 C 201.353 -5.17724 0.600902 0
M  V30 2169 C 198.681 -5.75058 1.163 0
M  V30 2170 C 201.033 -6.13005 1.56231 0
M  V30 2171 C 199.697 -6.41403 1.8482 0
M  V30 2172 H 198.967 -0.715046 -0.194397 0
M  V30 2173 H 201.614 -1.90373 0.207463 0
M  V30 2174 H 199.919 -3.41855 -1.91422 0
M  V30 2175 H 201.616 -3.6705 -1.61478 0
M  V30 2176 H 198.206 -4.27444 -0.314528 0
M  V30 2177 H 202.39 -4.94691 0.399333 0
M  V30 2178 H 197.646 -5.95362 1.39117 0
M  V30 2179 H 201.82 -6.63934 2.10153 0
M  V30 2180 H 199.447 -7.14229 2.60349 0
M  V30 2181 N 201.022 0.148545 -1.56898 0
M  V30 2182 C 202.252 0.875118 -1.8715 0
M  V30 2183 C 202.66 1.75322 -0.711262 0
M  V30 2184 O 202.003 1.80745 0.328151 0
M  V30 2185 C 202.065 1.7844 -3.12089 0
M  V30 2186 C 201.729 1.08361 -4.43967 0
M  V30 2187 C 202.726 0.438247 -5.1805 0
M  V30 2188 C 200.411 1.07358 -4.90693 0
M  V30 2189 C 202.405 -0.20779 -6.37061 0
M  V30 2190 C 200.092 0.42373 -6.09629 0
M  V30 2191 C 201.09 -0.215829 -6.82659 0
M  V30 2192 O 200.778 -0.855378 -7.99336 0
M  V30 2193 H 200.51 0.258504 -0.624621 0
M  V30 2194 H 203.064 0.14652 -2.04877 0
M  V30 2195 H 201.294 2.55389 -2.90367 0
M  V30 2196 H 202.983 2.38279 -3.286 0
M  V30 2197 H 203.749 0.437817 -4.8302 0
M  V30 2198 H 199.628 1.5608 -4.33774 0
M  V30 2199 H 203.172 -0.70758 -6.94002 0
M  V30 2200 H 199.069 0.421822 -6.4412 0
M  V30 2201 H 199.837 -0.756892 -8.14993 0
M  V30 2202 N 202.5 1.5196 0.417844 0
M  V30 2203 C 203.463 1.74065 1.49111 0
M  V30 2204 C 204.463 0.610537 1.48758 0
M  V30 2205 O 205.653 0.87832 1.50437 0
M  V30 2206 C 202.785 1.81502 2.88565 0
M  V30 2207 H 203.978 2.69869 1.30807 0
M  V30 2208 H 201.531 1.42244 0.647785 0
M  V30 2209 H 202.266 0.875813 3.1225 0
M  V30 2210 H 202.051 2.63651 2.90225 0
M  V30 2211 H 203.541 2.00376 3.66387 0
M  V30 2212 N 203.978 -0.674533 1.42435 0
M  V30 2213 C 205.203 -1.46784 1.46524 0
M  V30 2214 C 205.628 -1.87938 0.078066 0
M  V30 2215 O 204.986 -1.56014 -0.92354 0
M  V30 2216 C 205.034 -2.69307 2.39805 0
M  V30 2217 O 204.138 -3.67587 1.86959 0
M  V30 2218 H 203.479 -0.440959 0.496439 0
M  V30 2219 H 206.009 -0.827326 1.87127 0
M  V30 2220 H 206.019 -3.17374 2.56393 0
M  V30 2221 H 204.694 -2.38692 3.40586 0
M  V30 2222 H 203.271 -3.2662 1.79927 0
M  V30 2223 N 205.456 -1.28612 -0.910864 0
M  V30 2224 C 206.681 -1.1891 -1.69927 0
M  V30 2225 C 207.106 0.248372 -1.86453 0
M  V30 2226 O 206.464 1.17961 -1.37676 0
M  V30 2227 C 206.512 -1.89578 -3.06745 0
M  V30 2228 O 205.616 -1.20521 -3.94396 0
M  V30 2229 H 204.957 -0.412632 -0.520222 0
M  V30 2230 H 207.487 -1.69985 -1.1387 0
M  V30 2231 H 207.497 -1.97597 -3.56958 0
M  V30 2232 H 206.172 -2.94136 -2.94035 0
M  V30 2233 H 204.749 -1.20684 -3.52831 0
M  V30 2234 N 206.934 1.1197 -1.10907 0
M  V30 2235 C 208.162 1.87402 -0.876824 0
M  V30 2236 C 208.577 1.79894 0.573025 0
M  V30 2237 O 207.934 1.17629 1.39534 0
M  V30 2238 C 207.985 3.36428 -1.32282 0
M  V30 2239 O 207.706 3.43765 -2.71582 0
M  V30 2240 C 209.207 4.28783 -1.12518 0
M  V30 2241 H 206.427 0.592793 -0.314384 0
M  V30 2242 H 208.971 1.41649 -1.47499 0
M  V30 2243 H 207.126 3.79706 -0.768229 0
M  V30 2244 H 207.54 4.3652 -2.90776 0
M  V30 2245 H 209.014 5.31613 -1.48633 0
M  V30 2246 H 209.491 4.39153 -0.0642394 0
M  V30 2247 H 210.097 3.91291 -1.66648 0
M  V30 2248 N 208.412 0.89855 1.29475 0
M  V30 2249 C 209.661 0.519863 1.94885 0
M  V30 2250 C 209.974 -0.9383 1.71625 0
M  V30 2251 O 211.18 -1.42445 2.31131 0
M  V30 2252 C 209.636 0.878836 3.49005 0
M  V30 2253 C 209.244 2.35569 3.81066 0
M  V30 2254 C 210.988 0.570004 4.20656 0
M  V30 2255 C 208.895 2.65558 5.28425 0
M  V30 2256 H 207.825 0.190692 0.729488 0
M  V30 2257 H 210.476 1.09539 1.47219 0
M  V30 2258 H 208.858 0.232253 3.95318 0
M  V30 2259 H 210.032 3.04773 3.45616 0
M  V30 2260 H 208.347 2.63343 3.22552 0
M  V30 2261 H 210.944 0.770925 5.29113 0
M  V30 2262 H 211.287 -0.491404 4.1339 0
M  V30 2263 H 211.82 1.17438 3.8007 0
M  V30 2264 H 208.559 3.70493 5.40754 0
M  V30 2265 H 208.079 2.00977 5.65127 0
M  V30 2266 H 209.758 2.51765 5.96006 0
M  V30 2267 N 209.89 -1.43072 0.660911 0
M  V30 2268 C 210.822 -2.29108 -0.0647641 0
M  V30 2269 C 211.835 -1.42928 -0.779448 0
M  V30 2270 O 213.024 -1.66788 -0.635921 0
M  V30 2271 C 210.124 -3.20032 -1.11503 0
M  V30 2272 C 209.297 -4.34792 -0.476955 0
M  V30 2273 C 208.356 -5.06534 -1.42513 0
M  V30 2274 O 207.382 -5.61538 -0.930771 0
M  V30 2275 N 208.584 -5.1075 -2.75889 0
M  V30 2276 H 211.349 -2.92029 0.673731 0
M  V30 2277 H 208.91 -1.53846 0.50427 0
M  V30 2278 H 210.902 -3.64892 -1.75032 0
M  V30 2279 H 209.472 -2.58658 -1.75541 0
M  V30 2280 H 208.692 -3.92752 0.337572 0
M  V30 2281 H 209.98 -5.0879 -0.0318525 0
M  V30 2282 H 209.378 -4.67447 -3.18606 0
M  V30 2283 H 207.935 -5.59302 -3.347 0
M  V30 2284 N 211.368 -0.403325 -1.52352 0
M  V30 2285 C 212.645 0.232611 -1.94212 0
M  V30 2286 C 213.025 1.63133 -1.33981 0
M  V30 2287 O 212.373 2.22659 -0.513344 0
M  V30 2288 C 212.583 0.244811 -3.4814 0
M  V30 2289 C 213.931 0.46698 -4.22024 0
M  V30 2290 O 214.955 0.324419 -3.5472 0
M  V30 2291 O 213.814 0.74747 -5.41364 0
M  V30 2292 H 210.908 0.148223 -0.813609 0
M  V30 2293 H 213.454 -0.458848 -1.63379 0
M  V30 2294 H 212.226 -0.734378 -3.84347 0
M  V30 2295 H 211.849 0.980611 -3.85318 0
M  V30 2296 N 212.846 1.57033 -0.133567 0
M  V30 2297 C 214.076 1.99754 0.527429 0
M  V30 2298 C 214.484 1.01245 1.59832 0
M  V30 2299 O 213.827 -0.000645496 1.837 0
M  V30 2300 C 213.889 3.38903 1.19939 0
M  V30 2301 C 213.553 4.56174 0.274709 0
M  V30 2302 C 214.55 5.17563 -0.492398 0
M  V30 2303 C 212.235 5.01972 0.18153 0
M  V30 2304 C 214.229 6.2315 -1.34027 0
M  V30 2305 C 211.916 6.07416 -0.669958 0
M  V30 2306 C 212.914 6.67874 -1.42947 0
M  V30 2307 O 212.602 7.71279 -2.2668 0
M  V30 2308 H 212.334 0.660702 0.142999 0
M  V30 2309 H 214.888 2.04207 -0.221099 0
M  V30 2310 H 213.118 3.31248 1.99528 0
M  V30 2311 H 214.807 3.65818 1.75875 0
M  V30 2312 H 215.573 4.83087 -0.430367 0
M  V30 2313 H 211.452 4.54652 0.762422 0
M  V30 2314 H 214.996 6.70268 -1.93357 0
M  V30 2315 H 210.893 6.41321 -0.73333 0
M  V30 2316 H 211.661 7.88441 -2.1978 0
M  V30 2317 N 214.325 -0.140222 1.56975 0
M  V30 2318 C 215.255 -1.17456 2.01808 0
M  V30 2319 C 216.236 -1.44415 0.898794 0
M  V30 2320 O 217.421 -1.5522 1.16707 0
M  V30 2321 C 214.551 -2.50607 2.40444 0
M  V30 2322 C 213.505 -2.38155 3.55621 0
M  V30 2323 C 212.831 -3.76078 3.80091 0
M  V30 2324 C 214.131 -1.85991 4.88062 0
M  V30 2325 H 215.825 -0.801743 2.88466 0
M  V30 2326 H 213.371 -0.38422 1.38779 0
M  V30 2327 H 215.324 -3.23197 2.7041 0
M  V30 2328 H 214.048 -2.89737 1.50732 0
M  V30 2329 H 212.707 -1.68016 3.25832 0
M  V30 2330 H 212.355 -4.12656 2.87618 0
M  V30 2331 H 212.055 -3.68606 4.57606 0
M  V30 2332 H 213.579 -4.50206 4.12488 0
M  V30 2333 H 214.993 -2.4838 5.16701 0
M  V30 2334 H 213.39 -1.89393 5.6943 0
M  V30 2335 H 214.46 -0.816023 4.77984 0
M  V30 2336 N 215.803 -1.52179 -0.40978 0
M  V30 2337 C 217.051 -1.65878 -1.15451 0
M  V30 2338 C 217.372 -0.390771 -1.91044 0
M  V30 2339 O 216.642 0.594323 -1.86667 0
M  V30 2340 H 215.222 -0.611405 -0.429177 0
M  V30 2341 H 217.884 -1.89219 -0.467134 0
M  V30 2342 H 216.98 -2.49954 -1.86894 0
M  V30 2343 N 217.281 0.66697 -1.42791 0
M  V30 2344 C 218.528 1.42699 -1.43678 0
M  V30 2345 C 218.856 1.94419 -0.0560425 0
M  V30 2346 O 218.111 1.7182 0.936831 0
M  V30 2347 C 218.41 2.6349 -2.4147 0
M  V30 2348 C 218.076 2.30267 -3.8767 0
M  V30 2349 C 216.738 2.20918 -4.27491 0
M  V30 2350 C 219.09 2.03435 -4.79858 0
M  V30 2351 C 216.418 1.82873 -5.57471 0
M  V30 2352 C 218.77 1.66892 -6.10188 0
M  V30 2353 C 217.434 1.56058 -6.49001 0
M  V30 2354 H 216.704 0.522171 -0.525755 0
M  V30 2355 H 219.351 0.759785 -1.75783 0
M  V30 2356 H 217.656 3.35279 -2.0272 0
M  V30 2357 H 219.353 3.21684 -2.39417 0
M  V30 2358 H 215.943 2.38449 -3.56146 0
M  V30 2359 H 220.127 2.09586 -4.49875 0
M  V30 2360 H 215.383 1.7306 -5.86396 0
M  V30 2361 H 219.557 1.45157 -6.81104 0
M  V30 2362 H 217.184 1.26348 -7.49627 0
M  V30 2363 N 218.759 1.29093 0.90403 0
M  V30 2364 C 219.691 1.09658 2.01266 0
M  V30 2365 C 220.704 0.0453729 1.62737 0
M  V30 2366 O 221.893 0.289446 1.76138 0
M  V30 2367 C 218.993 0.646278 3.32681 0
M  V30 2368 C 218.166 1.77505 3.99763 0
M  V30 2369 C 217.225 1.31649 5.09465 0
M  V30 2370 O 216.251 2.02045 5.32134 0
M  V30 2371 N 217.453 0.184997 5.80205 0
M  V30 2372 H 220.218 2.05135 2.18494 0
M  V30 2373 H 217.779 1.20975 1.07594 0
M  V30 2374 H 219.771 0.322906 4.0341 0
M  V30 2375 H 218.341 -0.215916 3.11853 0
M  V30 2376 H 217.561 2.26752 3.22455 0
M  V30 2377 H 218.849 2.53198 4.41325 0
M  V30 2378 H 218.247 -0.402021 5.6427 0
M  V30 2379 H 216.804 -0.0790358 6.51752 0
M  V30 2380 N 220.237 -1.11381 1.11499 0
M  V30 2381 C 221.169 -2.17207 0.731704 0
M  V30 2382 C 222.182 -1.61066 -0.236957 0
M  V30 2383 O 223.371 -1.78489 -0.0197591 0
M  V30 2384 C 220.471 -3.38846 0.0607624 0
M  V30 2385 C 219.644 -4.24451 1.0564 0
M  V30 2386 C 218.703 -5.24562 0.4149 0
M  V30 2387 O 217.729 -5.59071 1.069 0
M  V30 2388 N 218.931 -5.74651 -0.821943 0
M  V30 2389 H 221.696 -2.50699 1.64225 0
M  V30 2390 H 219.257 -1.26908 1.00529 0
M  V30 2391 H 221.249 -4.02911 -0.380139 0
M  V30 2392 H 219.819 -3.03411 -0.752376 0
M  V30 2393 H 219.039 -3.56833 1.67524 0
M  V30 2394 H 220.327 -4.78486 1.72998 0
M  V30 2395 H 219.725 -5.48797 -1.37252 0
M  V30 2396 H 218.282 -6.40549 -1.20582 0
M  V30 2397 N 221.715 -0.905404 -1.28997 0
M  V30 2398 C 222.94 -0.549175 -1.99997 0
M  V30 2399 C 223.365 0.860276 -1.67275 0
M  V30 2400 O 222.723 1.57355 -0.900502 0
M  V30 2401 C 222.771 -0.755185 -3.52604 0
M  V30 2402 O 221.875 0.189692 -4.11964 0
M  V30 2403 H 221.216 -0.213899 -0.628604 0
M  V30 2404 H 223.746 -1.21856 -1.64354 0
M  V30 2405 H 223.756 -0.662045 -4.02593 0
M  V30 2406 H 222.431 -1.78271 -3.75755 0
M  V30 2407 H 221.008 0.0485257 -3.72868 0
M  V30 2408 N 223.193 1.4272 -0.668489 0
M  V30 2409 C 224.47 1.95248 -0.117373 0
M  V30 2410 C 224.85 1.60919 1.36632 0
M  V30 2411 O 224.198 0.902095 2.09939 0
M  V30 2412 C 224.408 3.46927 -0.379806 0
M  V30 2413 C 225.756 4.23588 -0.292923 0
M  V30 2414 O 226.78 3.5482 -0.313204 0
M  V30 2415 O 225.639 5.46017 -0.229697 0
M  V30 2416 H 222.733 0.827 0.00079152 0
M  V30 2417 H 225.279 1.52581 -0.742783 0
M  V30 2418 H 224.051 3.65096 -1.40786 0
M  V30 2419 H 223.674 3.96627 0.277923 0
M  V30 2420 N 224.671 0.411399 1.52136 0
M  V30 2421 C 225.917 -0.163888 2.02137 0
M  V30 2422 C 226.25 -1.44597 1.29636 0
M  V30 2423 O 225.525 -1.90272 0.403353 0
M  V30 2424 C 225.808 -0.40927 3.57767 0
M  V30 2425 C 225.661 0.889643 4.40914 0
M  V30 2426 C 226.98 -1.19042 4.23694 0
M  V30 2427 H 224.099 -0.0580896 0.734707 0
M  V30 2428 H 226.741 0.54531 1.82007 0
M  V30 2429 H 224.891 -1.0134 3.7505 0
M  V30 2430 H 226.563 1.52575 4.35337 0
M  V30 2431 H 224.806 1.50011 4.07037 0
M  V30 2432 H 225.477 0.672314 5.4789 0
M  V30 2433 H 227.953 -0.678942 4.10524 0
M  V30 2434 H 226.829 -1.33086 5.32522 0
M  V30 2435 H 227.09 -2.21166 3.82803 0
M  V30 2436 N 226.149 -1.5696 0.141893 0
M  V30 2437 C 227.398 -1.95135 -0.510427 0
M  V30 2438 C 227.711 -1.02896 -1.66348 0
M  V30 2439 O 228.917 -1.30629 -2.38009 0
M  V30 2440 C 227.373 -3.46876 -0.959427 0
M  V30 2441 C 226.981 -4.47691 0.166419 0
M  V30 2442 C 228.725 -3.93927 -1.58183 0
M  V30 2443 C 226.632 -5.90636 -0.300565 0
M  V30 2444 H 225.562 -0.728494 -0.194454 0
M  V30 2445 H 228.213 -1.8211 0.22542 0
M  V30 2446 H 226.595 -3.55215 -1.75038 0
M  V30 2447 H 227.769 -4.51043 0.94325 0
M  V30 2448 H 226.084 -4.10527 0.696905 0
M  V30 2449 H 228.681 -4.98158 -1.94275 0
M  V30 2450 H 229.024 -3.3519 -2.46888 0
M  V30 2451 H 229.557 -3.88484 -0.855863 0
M  V30 2452 H 226.296 -6.5318 0.550989 0
M  V30 2453 H 225.816 -5.90655 -1.04338 0
M  V30 2454 H 227.495 -6.42588 -0.754265 0
M  V30 2455 N 227.627 0.131896 -1.57047 0
M  V30 2456 C 228.577 1.1679 -1.95816 0
M  V30 2457 C 229.561 1.37756 -0.831393 0
M  V30 2458 O 230.753 1.39065 -1.09499 0
M  V30 2459 C 227.882 2.49778 -2.35512 0
M  V30 2460 C 226.968 2.32342 -3.54793 0
M  V30 2461 N 227.359 1.8469 -4.70875 0
M  V30 2462 C 225.657 2.63043 -3.60173 0
M  V30 2463 C 226.358 1.80656 -5.52936 0
M  V30 2464 N 225.334 2.24528 -4.95064 0
M  V30 2465 H 229.136 0.791818 -2.83033 0
M  V30 2466 H 226.65 0.339791 -1.58805 0
M  V30 2467 H 228.647 3.24692 -2.61498 0
M  V30 2468 H 227.307 2.88156 -1.49654 0
M  V30 2469 H 228.318 1.54429 -4.9434 0
M  V30 2470 H 224.995 3.05193 -2.84892 0
M  V30 2471 H 226.385 1.45178 -6.56028 0
M  V30 2472 N 229.106 1.52395 0.401703 0
M  V30 2473 C 230.038 1.72505 1.50912 0
M  V30 2474 C 231.051 0.605468 1.51122 0
M  V30 2475 O 232.24 0.880828 1.55254 0
M  V30 2476 C 229.34 1.75711 2.89791 0
M  V30 2477 C 228.513 3.04824 3.1369 0
M  V30 2478 C 227.572 2.99743 4.32482 0
M  V30 2479 O 226.598 3.73635 4.29402 0
M  V30 2480 N 227.8 2.18047 5.37992 0
M  V30 2481 H 230.565 2.68049 1.34052 0
M  V30 2482 H 228.126 1.50724 0.591084 0
M  V30 2483 H 230.118 1.69834 3.6734 0
M  V30 2484 H 228.688 0.876092 3.00072 0
M  V30 2485 H 227.908 3.2429 2.24119 0
M  V30 2486 H 229.196 3.90221 3.26504 0
M  V30 2487 H 228.594 1.57456 5.43345 0
M  V30 2488 H 227.151 2.18021 6.14256 0
M  V30 2489 N 230.584 -0.659388 1.43143 0
M  V30 2490 C 231.809 -1.45221 1.48073 0
M  V30 2491 C 232.234 -1.87845 0.097995 0
M  V30 2492 O 231.592 -1.56985 -0.90694 0
M  V30 2493 C 231.64 -2.66748 2.42647 0
M  V30 2494 O 230.744 -3.65583 1.90848 0
M  V30 2495 H 230.085 -0.435669 0.501088 0
M  V30 2496 H 232.615 -0.807432 1.87994 0
M  V30 2497 H 232.625 -3.14637 2.59745 0
M  V30 2498 H 231.3 -2.35067 3.43098 0
M  V30 2499 H 229.877 -3.24693 1.83381 0
M  V30 2500 N 232.062 -1.29571 -0.897171 0
M  V30 2501 C 233.308 -1.17863 -1.65034 0
M  V30 2502 C 233.641 0.268729 -1.92332 0
M  V30 2503 O 232.916 1.19378 -1.53555 0
M  V30 2504 C 233.199 -1.995 -2.99786 0
M  V30 2505 C 233.052 -3.5239 -2.79538 0
M  V30 2506 C 234.371 -1.82335 -4.00552 0
M  V30 2507 H 231.49 -0.429528 -0.598895 0
M  V30 2508 H 234.132 -1.59072 -1.03905 0
M  V30 2509 H 232.282 -1.64485 -3.51962 0
M  V30 2510 H 233.954 -3.97401 -2.34244 0
M  V30 2511 H 232.197 -3.77187 -2.14273 0
M  V30 2512 H 232.868 -4.04787 -3.75302 0
M  V30 2513 H 235.344 -2.12924 -3.57495 0
M  V30 2514 H 234.22 -2.41801 -4.92771 0
M  V30 2515 H 234.481 -0.779209 -4.35179 0
M  V30 2516 N 233.54 1.10788 -1.12088 0
M  V30 2517 C 234.77 1.86191 -0.895351 0
M  V30 2518 C 235.178 1.80763 0.558702 0
M  V30 2519 O 234.521 1.19188 1.39785 0
M  V30 2520 C 234.583 3.35659 -1.28737 0
M  V30 2521 C 234.247 3.64849 -2.75198 0
M  V30 2522 C 235.244 3.61757 -3.734 0
M  V30 2523 C 232.929 3.93641 -3.12013 0
M  V30 2524 C 234.923 3.87045 -5.06434 0
M  V30 2525 C 232.61 4.18585 -4.4523 0
M  V30 2526 C 233.608 4.15277 -5.42249 0
M  V30 2527 O 233.296 4.3959 -6.73065 0
M  V30 2528 H 233.028 0.595425 -0.32007 0
M  V30 2529 H 235.582 1.40992 -1.49367 0
M  V30 2530 H 233.812 3.81497 -0.63224 0
M  V30 2531 H 235.501 3.92441 -1.03656 0
M  V30 2532 H 236.267 3.39557 -3.46303 0
M  V30 2533 H 232.146 3.95348 -2.37109 0
M  V30 2534 H 235.69 3.84378 -5.82151 0
M  V30 2535 H 231.587 4.40264 -4.72057 0
M  V30 2536 H 232.355 4.57123 -6.78956 0
M  V30 2537 N 235.018 0.912232 1.28515 0
M  V30 2538 C 235.928 0.404506 2.31086 0
M  V30 2539 C 236.944 -0.50707 1.66448 0
M  V30 2540 O 238.12 -0.393624 1.97516 0
M  V30 2541 C 235.185 -0.348572 3.44943 0
M  V30 2542 C 234.246 0.59604 4.25142 0
M  V30 2543 C 233.479 -0.121194 5.33562 0
M  V30 2544 O 233.702 -1.34317 5.5436 0
M  V30 2545 O 232.636 0.542716 5.99448 0
M  V30 2546 H 236.462 1.25579 2.76521 0
M  V30 2547 H 234.047 0.676998 1.33181 0
M  V30 2548 H 235.929 -0.77395 4.14232 0
M  V30 2549 H 234.604 -1.17571 3.01594 0
M  V30 2550 H 233.511 1.07079 3.58448 0
M  V30 2551 H 234.844 1.38995 4.72167 0
M  V30 2552 N 236.496 -1.42363 0.676048 0
M  V30 2553 C 237.426 -2.33497 0.0124832 0
M  V30 2554 C 238.407 -1.50748 -0.787981 0
M  V30 2555 O 239.592 -1.79346 -0.744884 0
M  V30 2556 C 236.722 -3.34377 -0.938582 0
M  V30 2557 C 235.676 -4.27289 -0.246622 0
M  V30 2558 C 235.002 -5.18386 -1.31071 0
M  V30 2559 C 236.302 -5.14916 0.875125 0
M  V30 2560 H 237.996 -2.89233 0.773593 0
M  V30 2561 H 235.542 -1.39073 0.37346 0
M  V30 2562 H 237.495 -3.97044 -1.41188 0
M  V30 2563 H 236.219 -2.76947 -1.73113 0
M  V30 2564 H 234.878 -3.66018 0.206456 0
M  V30 2565 H 234.526 -4.57282 -2.09528 0
M  V30 2566 H 234.226 -5.81378 -0.852839 0
M  V30 2567 H 235.75 -5.83929 -1.78492 0
M  V30 2568 H 237.164 -5.71262 0.482983 0
M  V30 2569 H 235.561 -5.86747 1.25887 0
M  V30 2570 H 236.631 -4.53242 1.72335 0
M  V30 2571 N 237.974 -0.419461 -1.51915 0
M  V30 2572 C 239.223 0.154346 -2.01109 0
M  V30 2573 C 239.536 1.45338 -1.30905 0
M  V30 2574 O 240.742 2.10906 -1.7097 0
M  V30 2575 C 239.198 0.325615 -3.58424 0
M  V30 2576 C 238.806 -0.961934 -4.37551 0
M  V30 2577 C 240.55 0.854155 -4.15818 0
M  V30 2578 C 238.457 -0.757287 -5.86531 0
M  V30 2579 H 237.387 0.0614563 -0.751491 0
M  V30 2580 H 240.038 -0.54649 -1.75173 0
M  V30 2581 H 238.42 1.08903 -3.80731 0
M  V30 2582 H 239.594 -1.7323 -4.26999 0
M  V30 2583 H 237.909 -1.41766 -3.91524 0
M  V30 2584 H 240.506 1.02346 -5.24814 0
M  V30 2585 H 240.849 1.83172 -3.73837 0
M  V30 2586 H 241.382 0.149528 -3.97519 0
M  V30 2587 H 238.121 -1.70671 -6.32892 0
M  V30 2588 H 237.641 -0.0264061 -5.99794 0
M  V30 2589 H 239.32 -0.403482 -6.45741 0
M  V30 2590 N 239.452 1.56882 -0.150215 0
M  V30 2591 C 240.402 2.13501 0.800071 0
M  V30 2592 C 241.386 1.06368 1.20726 0
M  V30 2593 O 242.578 1.32538 1.17314 0
M  V30 2594 C 239.707 2.76271 2.03787 0
M  V30 2595 C 238.793 3.90533 1.65364 0
M  V30 2596 N 239.184 4.96259 0.977794 0
M  V30 2597 C 237.482 4.013 1.94613 0
M  V30 2598 C 238.183 5.76286 0.791794 0
M  V30 2599 N 237.159 5.27163 1.32666 0
M  V30 2600 H 240.961 2.92615 0.274517 0
M  V30 2601 H 238.475 1.62319 0.0512144 0
M  V30 2602 H 240.472 3.15197 2.72867 0
M  V30 2603 H 239.132 1.98631 2.56857 0
M  V30 2604 H 240.143 5.13953 0.638193 0
M  V30 2605 H 236.82 3.3474 2.4951 0
M  V30 2606 H 238.21 6.71401 0.258894 0
M  V30 2607 N 240.93 -0.123565 1.57115 0
M  V30 2608 C 242.158 -0.846461 1.88793 0
M  V30 2609 C 242.573 -1.73652 0.740976 0
M  V30 2610 O 241.93 -1.80207 -0.288393 0
M  V30 2611 C 241.981 -1.6837 3.19897 0
M  V30 2612 O 241.702 -0.829477 4.30176 0
M  V30 2613 C 243.203 -2.51214 3.65248 0
M  V30 2614 H 240.423 -0.243573 0.625231 0
M  V30 2615 H 242.967 -0.109324 2.04208 0
M  V30 2616 H 241.122 -2.37364 3.06165 0
M  V30 2617 H 241.536 -1.40651 5.0529 0
M  V30 2618 H 243.01 -3.05497 4.59756 0
M  V30 2619 H 243.487 -3.28359 2.9168 0
M  V30 2620 H 244.093 -1.8747 3.81752 0
M  V30 2621 N 242.408 -1.52605 -0.393616 0
M  V30 2622 C 243.318 -1.79971 -1.50492 0
M  V30 2623 C 244.334 -0.686181 -1.59899 0
M  V30 2624 O 245.51 -0.973274 -1.76322 0
M  V30 2625 C 242.575 -1.95867 -2.86072 0
M  V30 2626 C 241.636 -3.19781 -2.86424 0
M  V30 2627 C 240.869 -3.34909 -4.15538 0
M  V30 2628 O 241.092 -2.54948 -5.10253 0
M  V30 2629 O 240.026 -4.28141 -4.23059 0
M  V30 2630 H 243.852 -2.74328 -1.30299 0
M  V30 2631 H 241.437 -1.3764 -0.581005 0
M  V30 2632 H 243.319 -2.08056 -3.66457 0
M  V30 2633 H 241.994 -1.04699 -3.063 0
M  V30 2634 H 240.901 -3.13038 -2.04837 0
M  V30 2635 H 242.234 -4.1078 -2.71147 0
M  V30 2636 N 243.887 0.651787 -1.4349 0
M  V30 2637 C 245.164 1.40909 -1.35661 0
M  V30 2638 C 245.544 2.11099 -0.00511733 0
M  V30 2639 O 244.892 2.04892 1.0115 0
M  V30 2640 C 245.102 2.3926 -2.54078 0
M  V30 2641 C 246.45 3.03217 -2.97228 0
M  V30 2642 O 247.474 2.49588 -2.54135 0
M  V30 2643 O 246.333 4.00455 -3.71885 0
M  V30 2644 H 243.427 0.629625 -0.536191 0
M  V30 2645 H 245.973 0.678575 -1.55542 0
M  V30 2646 H 244.745 1.86352 -3.44076 0
M  V30 2647 H 244.368 3.1976 -2.36303 0
M  V30 2648 N 245.365 1.30045 0.890287 0
M  V30 2649 C 246.781 1.08261 1.17268 0
M  V30 2650 C 246.981 -0.160063 2.00863 0
M  V30 2651 O 246.037 -0.855181 2.37577 0
M  V30 2652 C 247.35 2.34323 1.8845 0
M  V30 2653 C 248.898 2.39735 2.01237 0
M  V30 2654 C 249.373 3.65625 2.7583 0
M  V30 2655 N 250.864 3.66402 2.83379 0
M  V30 2656 C 251.599 4.60498 3.41657 0
M  V30 2657 N 251.095 5.64933 4.01026 0
M  V30 2658 N 252.888 4.48051 3.39421 0
M  V30 2659 H 245.039 2.09777 0.332762 0
M  V30 2660 H 247.302 0.92446 0.209948 0
M  V30 2661 H 247.008 3.2498 1.34465 0
M  V30 2662 H 246.882 2.4256 2.88867 0
M  V30 2663 H 249.269 1.4956 2.54393 0
M  V30 2664 H 249.35 2.35476 0.999232 0
M  V30 2665 H 248.994 4.56156 2.23347 0
M  V30 2666 H 248.924 3.67144 3.77509 0
M  V30 2667 H 251.415 2.90896 2.41222 0
M  V30 2668 H 251.728 6.32841 4.43545 0
M  V30 2669 H 250.073 5.68732 3.99461 0
M  V30 2670 H 253.264 3.65649 2.92264 0
M  V30 2671 H 253.437 5.21565 3.84544 0
M  V30 2672 N 246.843 -1.10192 1.12674 0
M  V30 2673 C 247.806 -2.14786 0.799979 0
M  V30 2674 C 248.806 -1.59711 -0.18685 0
M  V30 2675 O 249.996 -1.74156 0.0392558 0
M  V30 2676 C 247.128 -3.40374 0.189228 0
M  V30 2677 H 248.321 -2.45203 1.72671 0
M  V30 2678 H 245.874 -1.25597 0.930326 0
M  V30 2679 H 246.609 -3.15577 -0.747107 0
M  V30 2680 H 246.394 -3.81637 0.899766 0
M  V30 2681 H 247.884 -4.17594 -0.0228143 0
M  V30 2682 N 248.321 -0.919034 -1.28029 0
M  V30 2683 C 249.231 -0.416756 -2.30869 0
M  V30 2684 C 250.247 0.498235 -1.66714 0
M  V30 2685 O 251.423 0.383144 -1.97722 0
M  V30 2686 C 248.488 0.330274 -3.45123 0
M  V30 2687 C 247.549 -0.618578 -4.2482 0
M  V30 2688 C 246.782 0.0928959 -5.33619 0
M  V30 2689 O 247.005 1.31375 -5.55065 0
M  V30 2690 O 245.939 -0.574499 -5.99152 0
M  V30 2691 H 249.765 -1.27043 -2.75851 0
M  V30 2692 H 247.35 -0.684052 -1.3282 0
M  V30 2693 H 249.232 0.751972 -4.14636 0
M  V30 2694 H 247.907 1.1597 -3.02213 0
M  V30 2695 H 246.814 -1.08978 -3.57875 0
M  V30 2696 H 248.147 -1.41497 -4.71423 0
M  V30 2697 N 249.799 1.42003 -0.683588 0
M  V30 2698 C 251.046 2.01413 -0.209514 0
M  V30 2699 C 251.374 1.54088 1.1869 0
M  V30 2700 O 250.629 0.737591 1.81268 0
M  V30 2701 C 250.928 3.56827 -0.202357 0
M  V30 2702 C 250.594 4.23617 -1.54464 0
M  V30 2703 C 249.256 4.41577 -1.91215 0
M  V30 2704 C 251.608 4.61178 -2.42826 0
M  V30 2705 C 248.936 4.9437 -3.15935 0
M  V30 2706 C 251.288 5.15355 -3.66867 0
M  V30 2707 C 249.952 5.31528 -4.03776 0
M  V30 2708 H 249.222 0.737023 -0.0766668 0
M  V30 2709 H 251.869 1.70067 -0.880312 0
M  V30 2710 H 250.174 3.87892 0.551969 0
M  V30 2711 H 251.871 4.00588 0.181793 0
M  V30 2712 H 248.461 4.10004 -1.24877 0
M  V30 2713 H 252.645 4.46968 -2.15717 0
M  V30 2714 H 247.901 5.05076 -3.44541 0
M  V30 2715 H 252.075 5.43402 -4.35531 0
M  V30 2716 H 249.702 5.72199 -5.00492 0
M  V30 2717 N 251.277 0.427512 1.51691 0
M  V30 2718 C 252.209 -0.424521 2.25234 0
M  V30 2719 C 253.222 -0.994671 1.2888 0
M  V30 2720 O 254.411 -0.890483 1.54702 0
M  V30 2721 C 251.511 -1.60479 2.98496 0
M  V30 2722 C 250.684 -1.15527 4.21868 0
M  V30 2723 C 249.743 -2.20454 4.77793 0
M  V30 2724 O 248.769 -1.8029 5.39893 0
M  V30 2725 N 249.971 -3.52831 4.60967 0
M  V30 2726 H 252.736 0.205749 2.98993 0
M  V30 2727 H 250.297 0.255867 1.59865 0
M  V30 2728 H 252.289 -2.30276 3.32799 0
M  V30 2729 H 250.859 -2.14061 2.27809 0
M  V30 2730 H 250.079 -0.284736 3.9317 0
M  V30 2731 H 251.367 -0.832173 5.01949 0
M  V30 2732 H 250.765 -3.88201 4.11481 0
M  V30 2733 H 249.322 -4.18551 4.99658 0
M  V30 2734 N 252.755 -1.56801 0.158532 0
M  V30 2735 C 254.171 -1.5837 -0.197774 0
M  V30 2736 C 254.371 -1.17334 -1.63814 0
M  V30 2737 O 253.427 -0.878988 -2.36707 0
M  V30 2738 C 254.74 -3.00615 0.0714459 0
M  V30 2739 C 256.288 -3.12999 0.00864533 0
M  V30 2740 C 256.763 -4.57313 0.250685 0
M  V30 2741 N 258.254 -4.62777 0.198014 0
M  V30 2742 C 258.989 -5.72271 0.359642 0
M  V30 2743 N 258.485 -6.90371 0.579625 0
M  V30 2744 N 260.278 -5.61318 0.296438 0
M  V30 2745 H 252.429 -1.81765 1.09887 0
M  V30 2746 H 254.692 -0.841849 0.435884 0
M  V30 2747 H 254.398 -3.35068 1.06874 0
M  V30 2748 H 254.272 -3.71683 -0.642757 0
M  V30 2749 H 256.659 -2.7838 -0.979217 0
M  V30 2750 H 256.74 -2.44393 0.755359 0
M  V30 2751 H 256.384 -4.92639 1.2357 0
M  V30 2752 H 256.314 -5.24061 -0.516489 0
M  V30 2753 H 258.805 -3.77885 0.0331115 0
M  V30 2754 H 259.118 -7.69689 0.69275 0
M  V30 2755 H 257.463 -6.92264 0.616087 0
M  V30 2756 H 260.654 -4.67932 0.125258 0
M  V30 2757 H 260.827 -6.46599 0.425831 0
M  V30 2758 N 254.233 0.115231 -1.57178 0
M  V30 2759 C 255.165 1.16694 -1.97269 0
M  V30 2760 C 256.178 1.37445 -0.872502 0
M  V30 2761 O 257.367 1.36454 -1.15077 0
M  V30 2762 C 254.467 2.52627 -2.25905 0
M  V30 2763 C 253.64 2.52427 -3.57211 0
M  V30 2764 C 252.699 3.70134 -3.74016 0
M  V30 2765 O 251.725 3.53546 -4.46087 0
M  V30 2766 N 252.927 4.88844 -3.13068 0
M  V30 2767 H 255.692 0.82588 -2.88096 0
M  V30 2768 H 253.253 0.304461 -1.59011 0
M  V30 2769 H 255.245 3.29937 -2.34359 0
M  V30 2770 H 253.815 2.789 -1.41186 0
M  V30 2771 H 253.035 1.60805 -3.5991 0
M  V30 2772 H 254.323 2.49353 -4.43509 0
M  V30 2773 H 253.721 5.05225 -2.54489 0
M  V30 2774 H 252.278 5.63817 -3.27037 0
M  V30 2775 N 255.711 1.52812 0.385517 0
M  V30 2776 C 256.641 1.80808 1.47752 0
M  V30 2777 C 257.622 0.660318 1.5676 0
M  V30 2778 O 258.807 0.908246 1.71652 0
M  V30 2779 C 255.937 1.98008 2.85324 0
M  V30 2780 C 254.891 3.13709 2.91154 0
M  V30 2781 C 254.217 3.16169 4.31209 0
M  V30 2782 C 255.517 4.52709 2.60483 0
M  V30 2783 H 257.211 2.72253 1.24573 0
M  V30 2784 H 254.757 1.31003 0.597839 0
M  V30 2785 H 256.71 2.16176 3.61726 0
M  V30 2786 H 255.434 1.03255 3.09848 0
M  V30 2787 H 254.093 2.95329 2.17201 0
M  V30 2788 H 253.741 2.19092 4.52778 0
M  V30 2789 H 253.441 3.93894 4.36029 0
M  V30 2790 H 254.965 3.36496 5.09512 0
M  V30 2791 H 256.379 4.71173 3.26602 0
M  V30 2792 H 254.776 5.32528 2.76648 0
M  V30 2793 H 255.846 4.59186 1.55809 0
M  V30 2794 N 257.189 -0.644168 1.43834 0
M  V30 2795 C 258.139 -1.7501 1.46135 0
M  V30 2796 C 259.123 -1.57507 0.328685 0
M  V30 2797 O 260.315 -1.67465 0.5731 0
M  V30 2798 C 257.444 -3.13641 1.39585 0
M  V30 2799 C 256.53 -3.3666 2.57916 0
M  V30 2800 N 256.921 -3.30107 3.83227 0
M  V30 2801 C 255.219 -3.67411 2.52834 0
M  V30 2802 C 255.92 -3.53456 4.61999 0
M  V30 2803 N 254.896 -3.75705 3.9287 0
M  V30 2804 H 258.698 -1.68382 2.40883 0
M  V30 2805 H 256.212 -0.846169 1.38614 0
M  V30 2806 H 258.209 -3.92933 1.39317 0
M  V30 2807 H 256.869 -3.21444 0.45865 0
M  V30 2808 H 257.88 -3.09316 4.15384 0
M  V30 2809 H 254.557 -3.82275 1.67845 0
M  V30 2810 H 255.947 -3.54093 5.71024 0
M  V30 2811 N 258.668 -1.30515 -0.883378 0
M  V30 2812 C 259.914 -1.20617 -1.63778 0
M  V30 2813 C 260.269 0.236469 -1.90941 0
M  V30 2814 O 259.562 1.16596 -1.52039 0
M  V30 2815 C 259.756 -1.96994 -2.98209 0
M  V30 2816 C 259.585 -3.48537 -2.84169 0
M  V30 2817 C 258.355 -4.17893 -2.84067 0
M  V30 2818 C 260.553 -4.43738 -2.60001 0
M  V30 2819 N 258.535 -5.55685 -2.60936 0
M  V30 2820 C 259.906 -5.69105 -2.46007 0
M  V30 2821 C 261.961 -4.33316 -2.45239 0
M  V30 2822 C 260.664 -6.8523 -2.18752 0
M  V30 2823 C 262.69 -5.4921 -2.19369 0
M  V30 2824 C 262.052 -6.73558 -2.06153 0
M  V30 2825 H 258.151 -0.496434 -0.604216 0
M  V30 2826 H 260.735 -1.64544 -1.04083 0
M  V30 2827 H 258.906 -1.55455 -3.55933 0
M  V30 2828 H 260.638 -1.79225 -3.62851 0
M  V30 2829 H 257.393 -3.69739 -2.95956 0
M  V30 2830 H 257.817 -6.28199 -2.52378 0
M  V30 2831 H 262.459 -3.37856 -2.54191 0
M  V30 2832 H 260.177 -7.80729 -2.08537 0
M  V30 2833 H 263.763 -5.43054 -2.08766 0
M  V30 2834 H 262.643 -7.61721 -1.86416 0
M  V30 2835 N 260.146 1.09593 -1.13257 0
M  V30 2836 C 261.109 2.14359 -0.811358 0
M  V30 2837 C 262.109 1.59808 0.178377 0
M  V30 2838 O 263.299 1.74132 -0.0484911 0
M  V30 2839 C 260.431 3.40269 -0.207276 0
M  V30 2840 H 261.624 2.44284 -1.73969 0
M  V30 2841 H 259.177 1.25102 -0.936973 0
M  V30 2842 H 259.912 3.15969 0.73036 0
M  V30 2843 H 259.697 3.81154 -0.919992 0
M  V30 2844 H 261.187 4.176 0.000667944 0
M  V30 2845 N 261.624 0.925811 1.2754 0
M  V30 2846 C 262.554 0.440748 2.29303 0
M  V30 2847 C 263.535 -0.497971 1.62648 0
M  V30 2848 O 264.72 -0.403126 1.8997 0
M  V30 2849 C 261.85 -0.309048 3.45922 0
M  V30 2850 C 260.804 0.54166 4.24559 0
M  V30 2851 C 260.13 -0.337191 5.33636 0
M  V30 2852 C 261.43 1.80516 4.90114 0
M  V30 2853 H 263.124 1.29121 2.70126 0
M  V30 2854 H 260.67 0.622323 1.29858 0
M  V30 2855 H 262.623 -0.659315 4.1621 0
M  V30 2856 H 261.347 -1.19352 3.04011 0
M  V30 2857 H 260.006 0.874609 3.56014 0
M  V30 2858 H 259.654 -1.22056 4.87966 0
M  V30 2859 H 259.354 0.228497 5.87156 0
M  V30 2860 H 260.878 -0.683072 6.06767 0
M  V30 2861 H 262.292 1.52307 5.52698 0
M  V30 2862 H 260.689 2.3142 5.53683 0
M  V30 2863 H 261.759 2.52581 4.13921 0
M  V30 2864 N 263.102 -1.41638 0.69111 0
M  V30 2865 C 264.05 -2.32597 0.0115199 0
M  V30 2866 C 265.044 -1.5072 -0.773296 0
M  V30 2867 O 266.25 -1.66685 -0.67942 0
M  V30 2868 H 262.625 -0.751849 -0.0150746 0
M  V30 2869 H 264.596 -2.87593 0.795791 0
M  V30 2870 C 263.345 -3.35467 -0.914172 0
M  V30 2871 H 262.668 -3.9852 -0.319687 0
M  V30 2872 H 264.108 -4.01662 -1.35808 0
M  V30 2873 C 262.567 -2.69004 -2.02826 0
M  V30 2874 O 263.097 -2.53444 -3.11655 0
M  V30 2875 N 261.303 -2.2777 -1.80469 0
M  V30 2876 H 260.85 -2.40626 -0.919615 0
M  V30 2877 H 260.808 -1.83635 -2.55197 0
M  V30 2878 N 264.58 -0.43555 -1.51462 0
M  V30 2879 C 265.991 0.0279871 -1.86679 0
M  V30 2880 C 266.342 1.42104 -1.35281 0
M  V30 2881 O 265.467 2.04667 -0.702878 0
M  V30 2882 C 266.062 0.0575626 -3.38751 0
M  V30 2883 C 264.621 0.465507 -3.7351 0
M  V30 2884 C 263.768 -0.342996 -2.75171 0
M  V30 2885 H 266.719 -0.651473 -1.44712 0
M  V30 2886 H 266.74 0.867421 -3.70481 0
M  V30 2887 H 266.252 -0.956448 -3.7613 0
M  V30 2888 H 264.353 1.48519 -3.41721 0
M  V30 2889 H 264.466 0.191546 -4.78717 0
M  V30 2890 H 262.83 0.198442 -2.53926 0
M  V30 2891 H 263.613 -1.35585 -3.15391 0
M  V30 2892 N 266.058 1.56714 -0.166846 0
M  V30 2893 C 267.283 2.01557 0.488833 0
M  V30 2894 C 267.708 1.0463 1.56314 0
M  V30 2895 O 267.066 0.0251304 1.81283 0
M  V30 2896 C 267.114 3.4503 1.04818 0
M  V30 2897 O 266.218 3.51163 2.16236 0
M  V30 2898 H 265.559 0.653516 0.117526 0
M  V30 2899 H 268.089 2.02818 -0.269421 0
M  V30 2900 H 268.099 3.84243 1.37191 0
M  V30 2901 H 266.774 4.15077 0.261572 0
M  V30 2902 H 265.351 3.23807 1.84942 0
M  V30 2903 N 267.536 -0.106894 1.57237 0
M  V30 2904 C 268.468 -1.15646 1.97885 0
M  V30 2905 C 269.481 -1.36981 0.879779 0
M  V30 2906 O 270.67 -1.35841 1.15799 0
M  V30 2907 C 267.77 -2.51425 2.27241 0
M  V30 2908 C 266.943 -2.50529 3.58545 0
M  V30 2909 C 266.002 -3.68145 3.75973 0
M  V30 2910 O 265.028 -3.51176 4.47956 0
M  V30 2911 N 266.23 -4.87177 3.15656 0
M  V30 2912 H 268.995 -0.81059 2.8853 0
M  V30 2913 H 266.556 -0.296024 1.59171 0
M  V30 2914 H 268.548 -3.28689 2.36105 0
M  V30 2915 H 267.118 -2.78147 1.42663 0
M  V30 2916 H 266.338 -1.58894 3.60758 0
M  V30 2917 H 267.626 -2.46997 4.44826 0
M  V30 2918 H 267.024 -5.03868 2.57165 0
M  V30 2919 H 265.581 -5.62075 3.30023 0
M  V30 2920 N 269.014 -1.53014 -0.377408 0
M  V30 2921 C 270.254 -1.70318 -1.1301 0
M  V30 2922 C 270.618 -0.439538 -1.86901 0
M  V30 2923 O 271.819 -0.489095 -2.64313 0
M  V30 2924 C 270.09 -2.91125 -2.07319 0
M  V30 2925 S 271.649 -3.29075 -2.90268 0
M  V30 2926 H 268.467 -0.599426 -0.382374 0
M  V30 2927 H 271.069 -1.91089 -0.412933 0
M  V30 2928 H 269.773 -3.81303 -1.51777 0
M  V30 2929 H 269.304 -2.7272 -2.83526 0
M  V30 2930 H 271.319 -2.80165 -4.09539 0
M  V30 2931 N 270.492 0.636531 -1.44174 0
M  V30 2932 C 271.72 1.42353 -1.50144 0
M  V30 2933 C 272.135 1.88389 -0.124575 0
M  V30 2934 O 271.492 1.6051 0.868489 0
M  V30 2935 C 271.543 2.64744 -2.46156 0
M  V30 2936 O 271.264 2.20629 -3.7849 0
M  V30 2937 C 272.765 3.57929 -2.61537 0
M  V30 2938 H 269.985 0.436752 -0.5094 0
M  V30 2939 H 272.529 0.778933 -1.89084 0
M  V30 2940 H 270.684 3.25307 -2.10366 0
M  V30 2941 H 271.098 2.99938 -4.30276 0
M  V30 2942 H 272.572 4.40428 -3.32757 0
M  V30 2943 H 273.049 4.06382 -1.66585 0
M  V30 2944 H 273.655 3.03238 -2.98206 0
M  V30 2945 N 271.97 1.30982 0.876444 0
M  V30 2946 C 272.88 1.2003 2.01569 0
M  V30 2947 C 273.896 0.11838 1.73597 0
M  V30 2948 O 275.072 0.33495 1.98595 0
M  V30 2949 C 272.137 0.901637 3.34771 0
M  V30 2950 C 271.198 2.06979 3.76109 0
M  V30 2951 C 270.431 1.78529 5.02954 0
M  V30 2952 O 270.654 0.717296 5.65872 0
M  V30 2953 O 269.588 2.64019 5.40905 0
M  V30 2954 H 273.414 2.15753 2.13739 0
M  V30 2955 H 270.999 1.10658 1.00375 0
M  V30 2956 H 272.881 0.750645 4.1466 0
M  V30 2957 H 271.556 -0.0256141 3.2369 0
M  V30 2958 H 270.463 2.27616 2.96887 0
M  V30 2959 H 271.796 2.97907 3.91807 0
M  V30 2960 N 273.449 -1.08991 1.13837 0
M  V30 2961 C 274.674 -1.85551 0.926585 0
M  V30 2962 C 275.099 -1.80782 -0.519566 0
M  V30 2963 O 274.457 -1.18855 -1.36906 0
M  V30 2964 C 274.505 -3.31266 1.42462 0
M  V30 2965 O 273.609 -4.07822 0.612789 0
M  V30 2966 H 272.95 -0.575192 0.331738 0
M  V30 2967 H 275.48 -1.37604 1.51414 0
M  V30 2968 H 275.49 -3.82112 1.43019 0
M  V30 2969 H 274.165 -3.34052 2.47754 0
M  V30 2970 H 272.742 -3.66731 0.675463 0
M  V30 2971 N 274.927 -0.932562 -1.27047 0
M  V30 2972 C 276.175 -0.574422 -1.93765 0
M  V30 2973 C 276.496 0.887993 -1.73608 0
M  V30 2974 O 275.766 1.62999 -1.08665 0
M  V30 2975 H 274.346 -0.209451 -0.717035 0
M  V30 2976 H 277.008 -1.18601 -1.5466 0
M  V30 2977 H 276.104 -0.784841 -3.02071 0
M  V30 2978 N 276.405 1.4127 -0.698611 0
M  V30 2979 C 277.337 2.292 0.00399731 0
M  V30 2980 C 278.35 1.44944 0.741279 0
M  V30 2981 O 279.539 1.68416 0.591477 0
M  V30 2982 C 276.639 3.22875 1.02979 0
M  V30 2983 C 275.812 4.35904 0.36151 0
M  V30 2984 C 274.871 5.10134 1.29033 0
M  V30 2985 O 273.897 5.63809 0.781562 0
M  V30 2986 N 275.099 5.17885 2.6225 0
M  V30 2987 H 277.864 2.9014 -0.750921 0
M  V30 2988 H 275.425 1.52455 -0.544882 0
M  V30 2989 H 277.417 3.69404 1.65296 0
M  V30 2990 H 275.987 2.63221 1.68622 0
M  V30 2991 H 275.207 3.91719 -0.441584 0
M  V30 2992 H 276.495 5.08696 -0.103055 0
M  V30 2993 H 275.893 4.7573 3.061 0
M  V30 2994 H 274.45 5.6798 3.19754 0
M  V30 2995 N 277.883 0.443576 1.51229 0
M  V30 2996 C 279.131 -0.120557 2.0174 0
M  V30 2997 C 279.452 -1.42665 1.32935 0
M  V30 2998 O 278.722 -1.9028 0.465866 0
M  V30 2999 H 277.302 -0.0475426 0.745486 0
M  V30 3000 H 279.964 0.587711 1.85828 0
M  V30 3001 H 279.06 -0.291972 3.10731 0
M  V30 3002 N 279.361 -1.56624 0.175154 0
M  V30 3003 C 280.61 -1.96173 -0.468921 0
M  V30 3004 C 280.923 -1.06401 -1.64128 0
M  V30 3005 O 282.129 -1.35648 -2.35185 0
M  V30 3006 C 280.585 -3.48833 -0.885633 0
M  V30 3007 C 280.193 -4.47237 0.261343 0
M  V30 3008 C 281.937 -3.97194 -1.49791 0
M  V30 3009 C 279.844 -5.9114 -0.175214 0
M  V30 3010 H 278.774 -0.732455 -0.178958 0
M  V30 3011 H 281.425 -1.81591 0.263997 0
M  V30 3012 H 279.807 -3.58848 -1.67464 0
M  V30 3013 H 280.981 -4.4894 1.03871 0
M  V30 3014 H 279.296 -4.08956 0.783827 0
M  V30 3015 H 281.893 -5.02167 -1.83665 0
M  V30 3016 H 282.236 -3.40351 -2.39722 0
M  V30 3017 H 282.769 -3.90212 -0.773267 0
M  V30 3018 H 279.508 -6.51865 0.689414 0
M  V30 3019 H 279.028 -5.92735 -0.91786 0
M  V30 3020 H 280.707 -6.44044 -0.617792 0
M  V30 3021 N 280.839 0.0985539 -1.57292 0
M  V30 3022 C 281.749 1.13824 -2.05137 0
M  V30 3023 C 282.765 1.44076 -0.975604 0
M  V30 3024 O 283.941 1.54786 -1.28853 0
M  V30 3025 C 281.006 2.43969 -2.46333 0
M  V30 3026 C 280.067 2.2093 -3.68087 0
M  V30 3027 C 279.3 3.44869 -4.0731 0
M  V30 3028 O 279.523 4.52972 -3.46659 0
M  V30 3029 O 278.457 3.34661 -5.00285 0
M  V30 3030 H 282.283 0.761881 -2.93988 0
M  V30 3031 H 279.868 0.310818 -1.46131 0
M  V30 3032 H 281.75 3.20609 -2.73473 0
M  V30 3033 H 280.425 2.81038 -1.60621 0
M  V30 3034 H 279.332 1.42081 -3.46069 0
M  V30 3035 H 280.665 1.88755 -4.54568 0
M  V30 3036 N 282.317 1.53212 0.369288 0
M  V30 3037 C 283.227 1.82342 1.47609 0
M  V30 3038 C 284.243 0.711532 1.58787 0
M  V30 3039 O 285.419 1.0012 1.74751 0
M  V30 3040 C 282.484 2.00393 2.8292 0
M  V30 3041 C 281.545 3.24297 2.81301 0
M  V30 3042 C 280.778 3.41478 4.10157 0
M  V30 3043 O 281.001 2.63033 5.06132 0
M  V30 3044 O 279.935 4.34817 4.16194 0
M  V30 3045 H 283.761 2.76366 1.25918 0
M  V30 3046 H 281.346 1.38547 0.559034 0
M  V30 3047 H 283.228 2.13859 3.63101 0
M  V30 3048 H 281.903 1.09559 3.04596 0
M  V30 3049 H 280.81 3.16257 1.99831 0
M  V30 3050 H 282.143 4.15041 2.64578 0
M  V30 3051 N 283.795 -0.628877 1.44509 0
M  V30 3052 C 284.758 -1.72263 1.51188 0
M  V30 3053 C 285.758 -1.55907 0.39367 0
M  V30 3054 O 286.948 -1.61361 0.656377 0
M  V30 3055 C 284.08 -3.11365 1.38798 0
M  V30 3056 H 285.273 -1.67714 2.4862 0
M  V30 3057 H 282.826 -0.842737 1.31634 0
M  V30 3058 H 283.561 -3.21507 0.424693 0
M  V30 3059 H 283.346 -3.24644 2.19884 0
M  V30 3060 H 284.836 -3.91075 1.46458 0
M  V30 3061 N 285.273 -1.31445 -0.869486 0
M  V30 3062 C 286.501 -1.24122 -1.65534 0
M  V30 3063 C 286.916 0.193387 -1.87807 0
M  V30 3064 O 286.273 1.12557 -1.43656 0
M  V30 3065 C 286.324 -1.98229 -3.02304 0
M  V30 3066 O 286.045 -3.3609 -2.81026 0
M  V30 3067 C 287.546 -1.97751 -3.96749 0
M  V30 3068 H 284.766 -0.428868 -0.516055 0
M  V30 3069 H 287.31 -1.73328 -1.08525 0
M  V30 3070 H 285.465 -1.52782 -3.56001 0
M  V30 3071 H 285.879 -3.7383 -3.67902 0
M  V30 3072 H 287.353 -2.54114 -4.90031 0
M  V30 3073 H 287.83 -0.960137 -4.28577 0
M  V30 3074 H 288.436 -2.43079 -3.48988 0
M  V30 3075 N 286.751 1.08385 -1.14413 0
M  V30 3076 C 287.999 1.80419 -0.910679 0
M  V30 3077 C 288.32 1.86658 0.564243 0
M  V30 3078 O 287.59 1.35985 1.41014 0
M  V30 3079 H 286.17 0.668204 -0.333934 0
M  V30 3080 H 288.832 1.31037 -1.44275 0
M  V30 3081 H 287.928 2.83238 -1.31082 0
M  V30 3082 N 288.23 0.939286 1.26551 0
M  V30 3083 C 289.16 0.465044 2.28822 0
M  V30 3084 C 290.141 -0.480692 1.63167 0
M  V30 3085 O 291.326 -0.382955 1.90387 0
M  V30 3086 C 288.456 -0.27234 3.46231 0
M  V30 3087 C 287.41 0.58666 4.2396 0
M  V30 3088 C 286.736 -0.280573 5.33963 0
M  V30 3089 C 288.036 1.85704 4.88171 0
M  V30 3090 H 289.73 1.31979 2.68741 0
M  V30 3091 H 287.276 0.636061 1.29191 0
M  V30 3092 H 289.229 -0.615133 4.16886 0
M  V30 3093 H 287.953 -1.16121 3.0526 0
M  V30 3094 H 286.612 0.91232 3.55067 0
M  V30 3095 H 286.26 -1.16874 4.89234 0
M  V30 3096 H 285.96 0.29076 5.8688 0
M  V30 3097 H 287.484 -0.618678 6.07458 0
M  V30 3098 H 288.898 1.58161 5.51052 0
M  V30 3099 H 287.295 2.37279 5.51197 0
M  V30 3100 H 288.365 2.56957 4.11219 0
M  V30 3101 N 289.708 -1.40897 0.706093 0
M  V30 3102 C 291.119 -1.84023 0.315052 0
M  V30 3103 C 291.47 -1.5906 -1.14866 0
M  V30 3104 O 290.595 -1.06651 -1.88293 0
M  V30 3105 C 291.19 -3.34055 0.565038 0
M  V30 3106 C 289.749 -3.7571 0.227806 0
M  V30 3107 C 288.896 -2.64204 0.842122 0
M  V30 3108 H 291.847 -1.303 0.905963 0
M  V30 3109 H 291.868 -3.80107 -0.172843 0
M  V30 3110 H 291.38 -3.52192 1.63042 0
M  V30 3111 H 289.481 -3.63172 -0.832895 0
M  V30 3112 H 289.594 -4.74103 0.690174 0
M  V30 3113 H 287.958 -2.53255 0.270893 0
M  V30 3114 H 288.741 -2.85155 1.91158 0
M  V30 3115 N 291.186 -0.45159 -1.50991 0
M  V30 3116 C 292.118 0.388634 -2.25881 0
M  V30 3117 C 293.131 0.974041 -1.30446 0
M  V30 3118 O 294.32 0.865758 -1.56099 0
M  V30 3119 C 291.42 1.5571 -3.01011 0
M  V30 3120 C 290.593 1.08801 -4.23652 0
M  V30 3121 C 289.652 2.12825 -4.8124 0
M  V30 3122 O 288.678 1.71678 -5.42693 0
M  V30 3123 N 289.88 3.45453 -4.66522 0
M  V30 3124 H 292.645 -0.25329 -2.98628 0
M  V30 3125 H 290.206 -0.281268 -1.59438 0
M  V30 3126 H 292.198 2.24952 -3.3642 0
M  V30 3127 H 290.768 2.10409 -2.31186 0
M  V30 3128 H 289.988 0.22215 -3.93574 0
M  V30 3129 H 291.276 0.752213 -5.03209 0
M  V30 3130 H 290.674 3.81605 -4.17605 0
M  V30 3131 H 289.231 4.10549 -5.06254 0
M  V30 3132 N 292.664 1.56529 -0.183458 0
M  V30 3133 C 293.892 2.01623 0.464285 0
M  V30 3134 C 294.307 1.06366 1.55986 0
M  V30 3135 O 293.664 0.0665398 1.82379 0
M  V30 3136 C 293.715 3.46475 1.03139 0
M  V30 3137 O 293.436 4.38095 -0.0204675 0
M  V30 3138 C 294.937 4.0703 1.75617 0
M  V30 3139 H 292.157 0.660596 0.117704 0
M  V30 3140 H 294.701 2.02451 -0.288751 0
M  V30 3141 H 292.856 3.46383 1.73486 0
M  V30 3142 H 293.27 5.22973 0.399952 0
M  V30 3143 H 294.744 5.10271 2.10542 0
M  V30 3144 H 295.221 3.49819 2.65563 0
M  V30 3145 H 295.827 4.1086 1.09882 0
M  V30 3146 N 294.142 -0.090211 1.57342 0
M  V30 3147 C 295.388 -0.793982 1.86611 0
M  V30 3148 C 295.721 -1.78142 0.773252 0
M  V30 3149 O 294.996 -1.93271 -0.218304 0
M  V30 3150 C 295.279 -1.51839 3.26523 0
M  V30 3151 C 295.132 -0.548609 4.46442 0
M  V30 3152 C 296.451 -2.46779 3.64401 0
M  V30 3153 H 293.57 -0.287186 0.678744 0
M  V30 3154 H 296.212 -0.0575076 1.89913 0
M  V30 3155 H 294.362 -2.14617 3.23839 0
M  V30 3156 H 296.034 0.0725513 4.61243 0
M  V30 3157 H 294.277 0.137614 4.33582 0
M  V30 3158 H 294.948 -1.09271 5.41076 0
M  V30 3159 H 297.424 -1.94089 3.68061 0
M  V30 3160 H 296.3 -2.94479 4.63221 0
M  V30 3161 H 296.561 -3.30758 2.93346 0
M  V30 3162 N 295.62 -1.53406 -0.361157 0
M  V30 3163 C 296.866 -1.70054 -1.10496 0
M  V30 3164 C 297.199 -0.453278 -1.88836 0
M  V30 3165 O 296.474 0.5495 -1.86576 0
M  V30 3166 C 296.757 -2.95317 -2.06058 0
M  V30 3167 C 296.61 -4.3021 -1.31298 0
M  V30 3168 C 297.929 -3.16193 -3.06121 0
M  V30 3169 H 295.048 -0.618799 -0.400321 0
M  V30 3170 H 297.69 -1.86052 -0.385318 0
M  V30 3171 H 295.84 -2.81809 -2.67425 0
M  V30 3172 H 297.512 -4.55538 -0.726807 0
M  V30 3173 H 295.755 -4.29421 -0.614853 0
M  V30 3174 H 296.426 -5.14 -2.01265 0
M  V30 3175 H 298.902 -3.28916 -2.5486 0
M  V30 3176 H 297.778 -4.05266 -3.70204 0
M  V30 3177 H 298.039 -2.31676 -3.76535 0
M  V30 3178 N 297.098 0.621204 -1.44841 0
M  V30 3179 C 298.338 1.39201 -1.49674 0
M  V30 3180 C 298.702 1.91561 -0.129764 0
M  V30 3181 O 299.903 2.68748 -0.0527814 0
M  V30 3182 C 298.174 2.519 -2.53537 0
M  V30 3183 S 299.733 3.39916 -2.77494 0
M  V30 3184 H 296.551 0.474758 -0.529269 0
M  V30 3185 H 299.153 0.718171 -1.81831 0
M  V30 3186 H 297.857 2.11761 -3.51547 0
M  V30 3187 H 297.388 3.241 -2.22986 0
M  V30 3188 H 299.403 4.49646 -2.0984 0
M  V30 3189 N 298.576 1.31904 0.862503 0
M  V30 3190 C 299.806 1.24817 1.64634 0
M  V30 3191 C 300.214 -0.187579 1.88268 0
M  V30 3192 O 299.557 -1.13253 1.44635 0
M  V30 3193 C 299.619 1.92996 3.03303 0
M  V30 3194 C 299.283 3.42336 3.02746 0
M  V30 3195 C 300.28 4.37956 2.80162 0
M  V30 3196 C 297.965 3.84147 3.2363 0
M  V30 3197 C 299.959 5.73361 2.78453 0
M  V30 3198 C 297.646 5.19663 3.21549 0
M  V30 3199 C 298.644 6.14081 2.98988 0
M  V30 3200 O 298.332 7.47118 2.96766 0
M  V30 3201 H 298.064 0.432222 0.519769 0
M  V30 3202 H 300.618 1.7445 1.08427 0
M  V30 3203 H 298.848 1.37922 3.61268 0
M  V30 3204 H 300.537 1.79723 3.63943 0
M  V30 3205 H 301.303 4.06981 2.63802 0
M  V30 3206 H 297.182 3.11083 3.40218 0
M  V30 3207 H 300.726 6.4703 2.60763 0
M  V30 3208 H 296.623 5.5027 3.37451 0
M  V30 3209 H 297.391 7.56382 3.12775 0
M  V30 3210 N 300.054 -1.07777 1.14986 0
M  V30 3211 C 301.002 -2.16964 0.838406 0
M  V30 3212 C 301.996 -1.68372 -0.186386 0
M  V30 3213 O 303.202 -1.79951 -0.0418465 0
M  V30 3214 H 299.577 -0.708006 0.253439 0
M  V30 3215 H 301.548 -2.40454 1.76704 0
M  V30 3216 C 300.297 -3.4604 0.339335 0
M  V30 3217 H 299.62 -3.83813 1.11927 0
M  V30 3218 H 301.06 -4.23698 0.160021 0
M  V30 3219 C 299.519 -3.23569 -0.938325 0
M  V30 3220 O 300.049 -3.47752 -2.01077 0
M  V30 3221 N 298.255 -2.77079 -0.876117 0
M  V30 3222 H 297.802 -2.576 -0.00322037 0
M  V30 3223 H 297.76 -2.62422 -1.73153 0
M  V30 3224 N 301.532 -0.945985 -1.26051 0
M  V30 3225 C 302.943 -0.638096 -1.75457 0
M  V30 3226 C 303.294 0.846672 -1.76991 0
M  V30 3227 O 302.419 1.66262 -1.38513 0
M  V30 3228 C 303.014 -1.15157 -3.18629 0
M  V30 3229 C 301.573 -0.894004 -3.65629 0
M  V30 3230 C 300.72 -1.29967 -2.44957 0
M  V30 3231 H 303.671 -1.12376 -1.1206 0
M  V30 3232 H 303.692 -0.507615 -3.77099 0
M  V30 3233 H 303.204 -2.23222 -3.1748 0
M  V30 3234 H 301.305 0.172057 -3.72203 0
M  V30 3235 H 301.418 -1.52439 -4.54202 0
M  V30 3236 H 299.782 -0.718078 -2.44368 0
M  V30 3237 H 300.565 -2.38935 -2.46505 0
M  V30 3238 N 303.011 1.40521 -0.713556 0
M  V30 3239 C 304.288 1.94775 -0.17943 0
M  V30 3240 C 304.668 1.65184 1.31444 0
M  V30 3241 O 304.016 0.968429 2.06963 0
M  V30 3242 C 304.226 3.45543 -0.489986 0
M  V30 3243 C 305.574 4.22442 -0.427536 0
M  V30 3244 O 306.598 3.53644 -0.425929 0
M  V30 3245 O 305.457 5.4501 -0.403292 0
M  V30 3246 H 302.551 0.826606 -0.0255192 0
M  V30 3247 H 305.097 1.5014 -0.790949 0
M  V30 3248 H 303.869 3.60432 -1.5233 0
M  V30 3249 H 303.492 3.97311 0.151598 0
M  V30 3250 N 304.489 0.459591 1.5075 0
M  V30 3251 C 305.421 -0.37665 2.26084 0
M  V30 3252 C 306.434 -0.967109 1.30961 0
M  V30 3253 O 307.623 -0.857468 1.56556 0
M  V30 3254 C 304.723 -1.54112 3.01832 0
M  V30 3255 C 303.896 -1.06553 4.24223 0
M  V30 3256 C 302.955 -2.1027 4.82362 0
M  V30 3257 O 301.981 -1.68798 5.43595 0
M  V30 3258 N 303.183 -3.42974 4.68347 0
M  V30 3259 H 305.948 0.269124 2.98489 0
M  V30 3260 H 303.509 0.28972 1.59287 0
M  V30 3261 H 305.501 -2.23165 3.37608 0
M  V30 3262 H 304.071 -2.0918 2.32298 0
M  V30 3263 H 303.291 -0.201274 3.93686 0
M  V30 3264 H 304.579 -0.725516 5.03601 0
M  V30 3265 H 303.977 -3.79385 4.19623 0
M  V30 3266 H 302.534 -4.07858 5.08424 0
M  V30 3267 N 305.967 -1.56429 0.191757 0
M  V30 3268 C 307.216 -1.9666 -0.448088 0
M  V30 3269 C 307.529 -1.08136 -1.62991 0
M  V30 3270 O 308.735 -1.38135 -2.33733 0
M  V30 3271 C 307.191 -3.49753 -0.848585 0
M  V30 3272 C 306.799 -4.46935 0.308764 0
M  V30 3273 C 308.543 -3.9876 -1.4557 0
M  V30 3274 C 306.45 -5.91293 -0.112506 0
M  V30 3275 H 305.38 -0.734312 -0.171179 0
M  V30 3276 H 308.031 -1.81301 0.283242 0
M  V30 3277 H 306.413 -3.60604 -1.63649 0
M  V30 3278 H 307.587 -4.47813 1.08627 0
M  V30 3279 H 305.902 -4.08102 0.827158 0
M  V30 3280 H 308.499 -5.04086 -1.78328 0
M  V30 3281 H 308.842 -3.42875 -2.36099 0
M  V30 3282 H 309.375 -3.9101 -0.731836 0
M  V30 3283 H 306.114 -6.51097 0.758514 0
M  V30 3284 H 305.634 -5.93676 -0.854941 0
M  V30 3285 H 307.313 -6.44663 -0.549448 0
M  V30 3286 N 307.445 0.0818655 -1.57387 0
M  V30 3287 C 308.856 0.634871 -1.75574 0
M  V30 3288 C 309.207 1.78435 -0.815809 0
M  V30 3289 O 308.332 2.164 0.0025366 0
M  V30 3290 C 308.927 1.15845 -3.18379 0
M  V30 3291 C 307.486 1.65741 -3.37945 0
M  V30 3292 C 306.633 0.572549 -2.71325 0
M  V30 3293 H 309.584 -0.144268 -1.58043 0
M  V30 3294 H 309.605 2.02751 -3.21982 0
M  V30 3295 H 309.117 0.321631 -3.86765 0
M  V30 3296 H 307.218 2.51781 -2.74658 0
M  V30 3297 H 307.331 1.74129 -4.46336 0
M  V30 3298 H 305.695 1.01518 -2.33594 0
M  V30 3299 H 306.478 -0.253918 -3.4236 0
M  V30 3300 N 308.923 1.53595 0.353017 0
M  V30 3301 C 310.334 1.61937 0.929153 0
M  V30 3302 C 310.685 0.494686 1.89861 0
M  V30 3303 O 309.81 -0.377017 2.1309 0
M  V30 3304 C 310.405 2.93526 1.69199 0
M  V30 3305 C 308.964 3.04161 2.21727 0
M  V30 3306 C 308.111 2.57322 1.03348 0
M  V30 3307 H 311.062 1.58155 0.131431 0
M  V30 3308 H 311.083 2.82034 2.55416 0
M  V30 3309 H 310.595 3.75362 0.986144 0
M  V30 3310 H 308.696 2.26938 2.95516 0
M  V30 3311 H 308.809 4.09465 2.48748 0
M  V30 3312 H 307.173 2.12499 1.40414 0
M  V30 3313 H 307.956 3.41588 0.342428 0
M  V30 3314 N 310.401 -0.613514 1.45168 0
M  V30 3315 C 311.311 -1.75296 1.55912 0
M  V30 3316 C 312.327 -1.68244 0.443856 0
M  V30 3317 O 313.503 -1.88706 0.70371 0
M  V30 3318 C 310.568 -3.1174 1.5172 0
M  V30 3319 C 309.629 -3.30291 2.74238 0
M  V30 3320 C 308.862 -4.60226 2.70236 0
M  V30 3321 O 309.085 -5.42168 1.77229 0
M  V30 3322 O 308.019 -4.81361 3.61352 0
M  V30 3323 H 311.845 -1.69183 2.52212 0
M  V30 3324 H 309.43 -0.776886 1.27612 0
M  V30 3325 H 311.312 -3.93044 1.51968 0
M  V30 3326 H 309.987 -3.18357 0.585697 0
M  V30 3327 H 308.894 -2.48598 2.79553 0
M  V30 3328 H 310.227 -3.28547 3.66494 0
M  V30 3329 N 311.879 -1.3236 -0.855495 0
M  V30 3330 C 312.827 -1.2118 -1.9854 0
M  V30 3331 C 313.821 -0.116788 -1.68997 0
M  V30 3332 O 315.027 -0.279657 -1.77814 0
M  V30 3333 H 311.402 -0.375608 -0.651477 0
M  V30 3334 H 313.373 -2.16743 -2.05098 0
M  V30 3335 C 312.122 -0.950849 -3.34446 0
M  V30 3336 H 311.445 -1.78563 -3.57708 0
M  V30 3337 H 312.885 -0.912863 -4.14057 0
M  V30 3338 C 311.344 0.346404 -3.35114 0
M  V30 3339 O 311.874 1.35855 -3.7803 0
M  V30 3340 N 310.08 0.36808 -2.88259 0
M  V30 3341 H 309.627 -0.456102 -2.5353 0
M  V30 3342 H 309.585 1.23591 -2.89089 0
M  V30 3343 N 313.357 1.07166 -1.15556 0
M  V30 3344 C 314.582 1.84053 -0.955988 0
M  V30 3345 C 315.007 1.81586 0.490739 0
M  V30 3346 O 314.365 1.21018 1.34997 0
M  V30 3347 C 314.413 3.28957 -1.47714 0
M  V30 3348 O 313.517 4.06795 -0.677593 0
M  V30 3349 H 312.858 0.569842 -0.340847 0
M  V30 3350 H 315.388 1.35178 -1.53584 0
M  V30 3351 H 315.398 3.79788 -1.4908 0
M  V30 3352 H 314.073 3.30068 -2.53037 0
M  V30 3353 H 312.65 3.6561 -0.733721 0
M  V30 3354 N 314.835 0.952656 1.25548 0
M  V30 3355 C 316.246 0.647392 1.75116 0
M  V30 3356 C 316.597 -0.837274 1.77438 0
M  V30 3357 O 315.722 -1.65525 1.39393 0
M  V30 3358 C 316.317 1.16845 3.18014 0
M  V30 3359 C 314.876 0.913382 3.6515 0
M  V30 3360 C 314.023 1.31265 2.44264 0
M  V30 3361 H 316.974 1.12968 1.11462 0
M  V30 3362 H 316.995 0.527606 3.76824 0
M  V30 3363 H 316.507 2.24902 3.16292 0
M  V30 3364 H 314.608 -0.152316 3.72289 0
M  V30 3365 H 314.721 1.54845 4.53387 0
M  V30 3366 H 313.085 0.731028 2.43984 0
M  V30 3367 H 313.868 2.40239 2.45234 0
M  V30 3368 N 316.313 -1.40141 0.720998 0
M  V30 3369 C 317.243 -2.33339 0.0867621 0
M  V30 3370 C 318.224 -1.53178 -0.739622 0
M  V30 3371 O 319.409 -1.81625 -0.687449 0
M  V30 3372 C 316.539 -3.37194 -0.831728 0
M  V30 3373 C 315.493 -4.27857 -0.110558 0
M  V30 3374 C 314.819 -5.22294 -1.14513 0
M  V30 3375 C 316.119 -5.11872 1.0385 0
M  V30 3376 H 317.813 -2.86626 0.865219 0
M  V30 3377 H 315.359 -1.37814 0.417516 0
M  V30 3378 H 317.312 -4.01335 -1.28485 0
M  V30 3379 H 316.036 -2.82314 -1.64214 0
M  V30 3380 H 314.695 -3.65176 0.322797 0
M  V30 3381 H 314.343 -4.63717 -1.94874 0
M  V30 3382 H 314.043 -5.83797 -0.667446 0
M  V30 3383 H 315.567 -5.89312 -1.59824 0
M  V30 3384 H 316.981 -5.69436 0.664482 0
M  V30 3385 H 315.378 -5.82445 1.4449 0
M  V30 3386 H 316.448 -4.4753 1.86668 0
M  V30 3387 N 317.792 -0.46758 -1.50504 0
M  V30 3388 C 318.725 0.374324 -2.25109 0
M  V30 3389 C 319.703 0.99921 -1.28275 0
M  V30 3390 O 320.887 1.03583 -1.57489 0
M  V30 3391 C 318.014 1.52419 -3.02467 0
M  V30 3392 C 317.06 1.01702 -4.14197 0
M  V30 3393 S 317.893 -0.0654477 -5.3546 0
M  V30 3394 C 319.049 1.08837 -6.16365 0
M  V30 3395 H 319.282 -0.258983 -2.9617 0
M  V30 3396 H 316.815 -0.252421 -1.52323 0
M  V30 3397 H 318.773 2.18322 -3.47628 0
M  V30 3398 H 317.434 2.129 -2.30938 0
M  V30 3399 H 316.627 1.87776 -4.67714 0
M  V30 3400 H 316.229 0.435757 -3.71453 0
M  V30 3401 H 318.521 2.00071 -6.47285 0
M  V30 3402 H 319.464 0.592538 -7.05616 0
M  V30 3403 H 319.872 1.34061 -5.4835 0
M  V30 3404 N 319.27 1.56325 -0.20005 0
M  V30 3405 C 320.18 2.22931 0.730668 0
M  V30 3406 C 321.196 1.22997 1.23076 0
M  V30 3407 O 322.372 1.55748 1.27689 0
M  V30 3408 C 319.437 2.87948 1.93098 0
M  V30 3409 C 318.498 4.03166 1.47497 0
M  V30 3410 C 317.731 4.65073 2.61807 0
M  V30 3411 O 317.954 4.25913 3.79413 0
M  V30 3412 O 316.888 5.54452 2.34237 0
M  V30 3413 H 320.714 3.03084 0.193391 0
M  V30 3414 H 318.299 1.49371 0.0294621 0
M  V30 3415 H 320.181 3.29063 2.6324 0
M  V30 3416 H 318.856 2.10771 2.45677 0
M  V30 3417 H 317.763 3.66664 0.742201 0
M  V30 3418 H 319.096 4.82022 0.995796 0
M  V30 3419 N 320.748 -0.0735177 1.57428 0
M  V30 3420 C 322.164 -0.428264 1.53747 0
M  V30 3421 C 322.364 -1.79272 0.91998 0
M  V30 3422 O 321.42 -2.47051 0.521745 0
M  V30 3423 C 322.733 -0.370914 2.98404 0
M  V30 3424 C 324.281 -0.451224 3.0973 0
M  V30 3425 C 324.756 -0.4238 4.56035 0
M  V30 3426 N 326.247 -0.483925 4.60665 0
M  V30 3427 C 326.982 -0.484891 5.71346 0
M  V30 3428 N 326.478 -0.440775 6.91396 0
M  V30 3429 N 328.271 -0.531319 5.59583 0
M  V30 3430 H 320.422 0.819949 1.95935 0
M  V30 3431 H 322.685 0.307493 0.896745 0
M  V30 3432 H 322.391 0.564956 3.47133 0
M  V30 3433 H 322.265 -1.18176 3.5821 0
M  V30 3434 H 324.652 -1.37752 2.60976 0
M  V30 3435 H 324.733 0.388167 2.52838 0
M  V30 3436 H 324.377 0.498638 5.05446 0
M  V30 3437 H 324.307 -1.2807 5.10789 0
M  V30 3438 H 326.798 -0.522338 3.74273 0
M  V30 3439 H 327.111 -0.44539 7.71515 0
M  V30 3440 H 325.456 -0.40749 6.93804 0
M  V30 3441 H 328.647 -0.563464 4.64696 0
M  V30 3442 H 328.82 -0.528603 6.4584 0
M  V30 3443 N 322.226 -1.5378 -0.344866 0
M  V30 3444 C 323.466 -1.72677 -1.09371 0
M  V30 3445 C 323.83 -0.479084 -1.85927 0
M  V30 3446 O 325.031 -0.54505 -2.63216 0
M  V30 3447 C 323.302 -2.95457 -2.01097 0
M  V30 3448 S 324.861 -3.35158 -2.83222 0
M  V30 3449 H 321.679 -0.607402 -0.369573 0
M  V30 3450 H 324.281 -1.91922 -0.372307 0
M  V30 3451 H 322.985 -3.84437 -1.43655 0
M  V30 3452 H 322.516 -2.78673 -2.77678 0
M  V30 3453 H 324.531 -2.88789 -4.03504 0
M  V30 3454 N 323.704 0.605807 -1.45491 0
M  V30 3455 C 324.951 1.36476 -1.49601 0
M  V30 3456 C 325.279 1.94007 -0.138452 0
M  V30 3457 O 324.534 1.75638 0.863114 0
M  V30 3458 C 324.833 2.53012 -2.52428 0
M  V30 3459 C 324.499 2.13617 -3.97087 0
M  V30 3460 C 323.161 2.02587 -4.36477 0
M  V30 3461 C 325.513 1.82899 -4.88055 0
M  V30 3462 C 322.841 1.59064 -5.64726 0
M  V30 3463 C 325.193 1.40861 -6.16718 0
M  V30 3464 C 323.857 1.28391 -6.55036 0
M  V30 3465 H 323.127 0.499402 -0.547429 0
M  V30 3466 H 325.774 0.684546 -1.78847 0
M  V30 3467 H 324.079 3.26379 -2.16758 0
M  V30 3468 H 325.776 3.1124 -2.52845 0
M  V30 3469 H 322.366 2.23129 -3.65939 0
M  V30 3470 H 326.55 1.90317 -4.58359 0
M  V30 3471 H 321.806 1.48034 -5.93208 0
M  V30 3472 H 325.98 1.16138 -6.86648 0
M  V30 3473 H 323.607 0.944403 -7.54311 0
M  V30 3474 N 325.182 1.32811 0.848464 0
M  V30 3475 C 326.431 1.23075 1.59798 0
M  V30 3476 C 326.744 -0.204419 1.94529 0
M  V30 3477 O 327.95 -0.423701 2.68173 0
M  V30 3478 C 326.406 2.15594 2.88179 0
M  V30 3479 C 326.014 3.64228 2.60849 0
M  V30 3480 C 327.758 2.14709 3.66197 0
M  V30 3481 C 325.665 4.48689 3.85269 0
M  V30 3482 H 324.595 0.457091 0.599653 0
M  V30 3483 H 327.246 1.57813 0.936342 0
M  V30 3484 H 325.628 1.73778 3.55833 0
M  V30 3485 H 326.802 4.14424 2.01467 0
M  V30 3486 H 325.117 3.67306 1.96151 0
M  V30 3487 H 327.714 2.75046 4.58534 0
M  V30 3488 H 328.057 1.13966 4.00397 0
M  V30 3489 H 328.59 2.54837 3.05455 0
M  V30 3490 H 325.329 5.5027 3.56207 0
M  V30 3491 H 324.849 4.03241 4.44024 0
M  V30 3492 H 326.528 4.62006 4.52946 0
M  V30 3493 N 326.66 -1.06551 1.16123 0
M  V30 3494 C 327.9 -1.80889 0.951766 0
M  V30 3495 C 328.264 -1.85062 -0.511465 0
M  V30 3496 O 329.465 -2.55353 -0.83954 0
M  V30 3497 C 327.736 -3.21609 1.55893 0
M  V30 3498 S 329.295 -4.12593 1.49373 0
M  V30 3499 H 326.113 -0.623156 0.342341 0
M  V30 3500 H 328.715 -1.27943 1.47821 0
M  V30 3501 H 327.419 -3.16165 2.61664 0
M  V30 3502 H 326.95 -3.79631 1.0317 0
M  V30 3503 H 328.965 -4.93753 0.492196 0
M  V30 3504 N 328.138 -0.959301 -1.25041 0
M  V30 3505 C 329.554 -0.664474 -1.4511 0
M  V30 3506 C 329.754 0.776481 -1.85938 0
M  V30 3507 O 328.81 1.55128 -1.99227 0
M  V30 3508 C 330.123 -1.64139 -2.5195 0
M  V30 3509 C 331.671 -1.65309 -2.65786 0
M  V30 3510 C 332.146 -2.61777 -3.75815 0
M  V30 3511 N 333.637 -2.60169 -3.83231 0
M  V30 3512 C 334.372 -3.31489 -4.6787 0
M  V30 3513 N 333.868 -4.12298 -5.56761 0
M  V30 3514 N 335.661 -3.20354 -4.61876 0
M  V30 3515 H 327.812 -1.89043 -0.968332 0
M  V30 3516 H 330.075 -0.813408 -0.4869 0
M  V30 3517 H 329.781 -2.67086 -2.28819 0
M  V30 3518 H 329.655 -1.40756 -3.49954 0
M  V30 3519 H 332.042 -0.630778 -2.8828 0
M  V30 3520 H 332.123 -1.92753 -1.68167 0
M  V30 3521 H 331.767 -3.64137 -3.54071 0
M  V30 3522 H 331.697 -2.31616 -4.72929 0
M  V30 3523 H 334.188 -2.01507 -3.19692 0
M  V30 3524 H 334.501 -4.63625 -6.18281 0
M  V30 3525 H 332.846 -4.16395 -5.56454 0
M  V30 3526 H 336.037 -2.56692 -3.91442 0
M  V30 3527 H 336.21 -3.76201 -5.27614 0
M  V30 3528 N 329.616 1.39756 -0.72842 0
M  V30 3529 C 330.546 2.33289 -0.0991354 0
M  V30 3530 C 331.527 1.53568 0.731489 0
M  V30 3531 O 332.712 1.81987 0.677807 0
M  V30 3532 C 329.842 3.3763 0.813834 0
M  V30 3533 C 328.796 4.2791 0.0878663 0
M  V30 3534 C 328.122 5.22894 1.11741 0
M  V30 3535 C 329.422 5.11314 -1.06563 0
M  V30 3536 H 331.116 2.86163 -0.880408 0
M  V30 3537 H 328.662 1.37591 -0.424819 0
M  V30 3538 H 330.615 4.0201 1.26355 0
M  V30 3539 H 329.339 2.83181 1.62715 0
M  V30 3540 H 327.998 3.65 -0.342159 0
M  V30 3541 H 327.646 4.64744 1.92412 0
M  V30 3542 H 327.346 5.84143 0.636477 0
M  V30 3543 H 328.87 5.90151 1.56697 0
M  V30 3544 H 330.284 5.69076 -0.694671 0
M  V30 3545 H 328.681 5.81671 -1.47577 0
M  V30 3546 H 329.751 4.46534 -1.89038 0
M  V30 3547 N 331.094 0.475555 1.50254 0
M  V30 3548 C 332.51 0.12997 1.5907 0
M  V30 3549 C 332.71 -1.36385 1.48328 0
M  V30 3550 O 331.766 -2.13754 1.34407 0
M  V30 3551 C 333.079 0.684139 2.92814 0
M  V30 3552 C 334.627 0.647965 3.0622 0
M  V30 3553 C 335.102 1.17975 4.42545 0
M  V30 3554 N 336.593 1.13936 4.48969 0
M  V30 3555 C 337.328 1.52129 5.52851 0
M  V30 3556 N 336.824 1.97793 6.63965 0
M  V30 3557 N 338.617 1.43704 5.4342 0
M  V30 3558 H 330.768 1.44706 1.55479 0
M  V30 3559 H 333.031 0.598691 0.735033 0
M  V30 3560 H 332.737 1.73079 3.06164 0
M  V30 3561 H 332.611 0.130204 3.76975 0
M  V30 3562 H 334.998 -0.38979 2.92514 0
M  V30 3563 H 335.079 1.23876 2.23805 0
M  V30 3564 H 334.723 2.21616 4.57 0
M  V30 3565 H 334.653 0.565138 5.23559 0
M  V30 3566 H 337.144 0.804488 3.69238 0
M  V30 3567 H 337.457 2.25072 7.39299 0
M  V30 3568 H 335.802 2.01749 6.65073 0
M  V30 3569 H 338.993 1.07867 4.55502 0
M  V30 3570 H 339.166 1.73794 6.24259 0
M  V30 3571 N 332.573 -1.56217 0.208337 0
M  V30 3572 C 333.813 -1.99849 -0.428927 0
M  V30 3573 C 334.177 -1.09262 -1.57879 0
M  V30 3574 O 335.378 -1.42185 -2.28116 0
M  V30 3575 C 333.649 -3.46777 -0.864879 0
M  V30 3576 S 335.208 -4.12434 -1.49811 0
M  V30 3577 H 332.026 -0.697742 -0.136665 0
M  V30 3578 H 334.628 -1.92953 0.314519 0
M  V30 3579 H 333.332 -4.10396 -0.0181326 0
M  V30 3580 H 332.863 -3.57518 -1.64147 0
M  V30 3581 H 334.878 -4.10532 -2.78707 0
M  V30 3582 N 334.051 0.0651679 -1.57465 0
M  V30 3583 C 334.981 1.07693 -2.07182 0
M  V30 3584 C 335.962 1.39962 -0.966673 0
M  V30 3585 O 337.147 1.49475 -1.2398 0
M  V30 3586 C 334.277 2.3885 -2.52127 0
M  V30 3587 C 333.231 2.20917 -3.66579 0
M  V30 3588 C 332.557 3.57515 -3.97601 0
M  V30 3589 C 333.857 1.62493 -4.9638 0
M  V30 3590 H 335.551 0.663199 -2.91962 0
M  V30 3591 H 333.097 0.317569 -1.40455 0
M  V30 3592 H 335.05 3.09928 -2.85522 0
M  V30 3593 H 333.774 2.82215 -1.64384 0
M  V30 3594 H 332.433 1.52279 -3.33477 0
M  V30 3595 H 332.081 3.98463 -3.06979 0
M  V30 3596 H 331.781 3.46353 -4.74672 0
M  V30 3597 H 333.305 4.30013 -4.33499 0
M  V30 3598 H 334.719 2.23445 -5.27963 0
M  V30 3599 H 333.116 1.62009 -5.77818 0
M  V30 3600 H 334.186 0.587041 -4.81333 0
M  V30 3601 N 335.529 1.53961 0.336706 0
M  V30 3602 C 336.459 1.85417 1.41925 0
M  V30 3603 C 337.44 0.709856 1.5458 0
M  V30 3604 O 338.625 0.962396 1.68676 0
M  V30 3605 C 335.755 2.06985 2.78881 0
M  V30 3606 C 334.709 3.22813 2.81026 0
M  V30 3607 C 334.035 3.29727 4.20932 0
M  V30 3608 C 335.335 4.60767 2.45949 0
M  V30 3609 H 337.029 2.76079 1.15848 0
M  V30 3610 H 334.575 1.32839 0.555859 0
M  V30 3611 H 336.528 2.27575 3.54665 0
M  V30 3612 H 335.252 1.13061 3.06406 0
M  V30 3613 H 333.911 3.0209 2.07695 0
M  V30 3614 H 333.559 2.33385 4.45579 0
M  V30 3615 H 333.259 4.07566 4.23277 0
M  V30 3616 H 334.783 3.52536 4.98549 0
M  V30 3617 H 336.197 4.81325 3.11446 0
M  V30 3618 H 334.594 5.4106 2.59566 0
M  V30 3619 H 335.664 4.6391 1.41122 0
M  V30 3620 N 337.007 -0.598083 1.45811 0
M  V30 3621 C 338.284 -1.35777 1.40797 0
M  V30 3622 C 338.664 -2.10935 0.083462 0
M  V30 3623 O 338.012 -2.08505 -0.934763 0
M  V30 3624 C 338.222 -2.29666 2.62783 0
M  V30 3625 C 339.57 -2.91977 3.08277 0
M  V30 3626 O 340.594 -2.39984 2.63223 0
M  V30 3627 O 339.453 -3.86376 3.86491 0
M  V30 3628 H 336.547 -0.609291 0.55919 0
M  V30 3629 H 339.093 -0.620379 1.57954 0
M  V30 3630 H 337.865 -1.73454 3.50756 0
M  V30 3631 H 337.488 -3.1077 2.48008 0
M  V30 3632 N 338.485 -1.33259 -0.841409 0
M  V30 3633 C 339.433 -1.23279 -1.97244 0
M  V30 3634 C 340.427 -0.134706 -1.68864 0
M  V30 3635 O 341.633 -0.298501 -1.77508 0
M  V30 3636 H 338.008 -0.382497 -0.647457 0
M  V30 3637 H 339.979 -2.18906 -2.02787 0
M  V30 3638 C 338.728 -0.986268 -3.33419 0
M  V30 3639 H 338.051 -1.82347 -3.55794 0
M  V30 3640 H 339.491 -0.956728 -4.13065 0
M  V30 3641 C 337.95 0.310842 -3.35463 0
M  V30 3642 O 338.48 1.31838 -3.79449 0
M  V30 3643 N 336.686 0.337485 -2.88634 0
M  V30 3644 H 336.233 -0.482967 -2.53032 0
M  V30 3645 H 336.191 1.20518 -2.90384 0
M  V30 3646 N 339.963 1.05934 -1.16686 0
M  V30 3647 C 341.188 1.83029 -0.975455 0
M  V30 3648 C 341.613 1.82096 0.471452 0
M  V30 3649 O 340.971 1.22443 1.33706 0
M  V30 3650 C 341.019 3.27372 -1.51195 0
M  V30 3651 O 340.123 4.06054 -0.720701 0
M  V30 3652 H 339.464 0.566194 -0.346872 0
M  V30 3653 H 341.994 1.33541 -1.55009 0
M  V30 3654 H 342.004 3.78186 -1.53099 0
M  V30 3655 H 340.679 3.27366 -2.56523 0
M  V30 3656 H 339.256 3.64812 -0.772458 0
M  V30 3657 N 341.441 0.965919 1.2453 0
M  V30 3658 C 342.666 0.643971 1.97149 0
M  V30 3659 C 343.091 -0.779487 1.71189 0
M  V30 3660 O 342.449 -1.5288 0.974553 0
M  V30 3661 C 342.497 0.922557 3.48599 0
M  V30 3662 O 341.601 0.00707672 4.12399 0
M  V30 3663 H 340.942 0.243647 0.617683 0
M  V30 3664 H 343.472 1.29558 1.58353 0
M  V30 3665 H 343.482 0.853373 3.98976 0
M  V30 3666 H 342.157 1.95996 3.66822 0
M  V30 3667 H 340.734 0.12943 3.72675 0
M  V30 3668 N 342.919 -1.39368 0.735821 0
M  V30 3669 C 344.167 -2.00101 0.283562 0
M  V30 3670 C 344.488 -1.5868 -1.13338 0
M  V30 3671 O 343.758 -0.835423 -1.77193 0
M  V30 3672 H 342.338 -0.740024 0.101851 0
M  V30 3673 H 345 -1.70404 0.945962 0
M  V30 3674 H 344.096 -3.10323 0.332604 0
M  V30 3675 N 344.397 -0.483516 -1.5 0
M  V30 3676 C 345.644 0.0671597 -2.02389 0
M  V30 3677 C 345.972 1.38597 -1.36459 0
M  V30 3678 O 345.227 1.89634 -0.483458 0
M  V30 3679 C 345.526 0.286226 -3.56252 0
M  V30 3680 C 345.192 -0.952416 -4.40726 0
M  V30 3681 C 343.854 -1.29199 -4.63531 0
M  V30 3682 C 346.206 -1.77655 -4.89988 0
M  V30 3683 C 343.534 -2.45553 -5.32842 0
M  V30 3684 C 345.886 -2.93147 -5.60578 0
M  V30 3685 C 344.55 -3.27505 -5.81633 0
M  V30 3686 H 343.82 0.0245755 -0.740592 0
M  V30 3687 H 346.467 -0.640124 -1.80485 0
M  V30 3688 H 344.772 1.07587 -3.76739 0
M  V30 3689 H 346.469 0.726473 -3.94365 0
M  V30 3690 H 343.059 -0.677881 -4.23205 0
M  V30 3691 H 347.243 -1.52737 -4.72213 0
M  V30 3692 H 342.499 -2.72431 -5.47349 0
M  V30 3693 H 346.673 -3.57344 -5.97727 0
M  V30 3694 H 344.3 -4.1777 -6.35116 0
M  V30 3695 N 345.875 1.56104 -0.216619 0
M  V30 3696 C 346.805 2.23063 0.690296 0
M  V30 3697 C 347.786 1.20072 1.20485 0
M  V30 3698 O 348.971 1.48643 1.24976 0
M  V30 3699 C 346.101 2.90672 1.90072 0
M  V30 3700 C 345.055 4.00092 1.5202 0
M  V30 3701 C 344.381 4.54972 2.80899 0
M  V30 3702 C 345.681 5.17398 0.71391 0
M  V30 3703 H 347.375 2.99109 0.132038 0
M  V30 3704 H 344.921 1.43866 0.0620664 0
M  V30 3705 H 346.874 3.36204 2.54057 0
M  V30 3706 H 345.598 2.12066 2.48386 0
M  V30 3707 H 344.257 3.55283 0.903839 0
M  V30 3708 H 343.905 3.73102 3.37348 0
M  V30 3709 H 343.605 5.28817 2.56176 0
M  V30 3710 H 345.129 5.0322 3.45836 0
M  V30 3711 H 346.543 5.59342 1.25735 0
M  V30 3712 H 344.94 5.97444 0.563951 0
M  V30 3713 H 346.01 4.84088 -0.280527 0
M  V30 3714 N 347.353 -0.0568162 1.57498 0
M  V30 3715 C 348.316 -1.05038 2.03715 0
M  V30 3716 C 349.316 -1.30709 0.936577 0
M  V30 3717 O 350.506 -1.26178 1.20103 0
M  V30 3718 C 347.638 -2.39034 2.43055 0
M  V30 3719 H 348.831 -0.651715 2.92733 0
M  V30 3720 H 346.384 -0.302947 1.53336 0
M  V30 3721 H 347.119 -2.83703 1.57108 0
M  V30 3722 H 346.904 -2.21739 3.2338 0
M  V30 3723 H 348.394 -3.10421 2.79336 0
M  V30 3724 N 348.832 -1.54138 -0.328536 0
M  V30 3725 C 349.765 -1.78014 -1.4278 0
M  V30 3726 C 350.743 -0.629889 -1.49904 0
M  V30 3727 O 351.927 -0.866763 -1.6739 0
M  V30 3728 C 349.054 -1.89225 -2.80912 0
M  V30 3729 C 348.1 -3.11483 -2.91343 0
M  V30 3730 S 348.933 -4.70201 -2.56263 0
M  V30 3731 C 350.089 -4.84312 -3.96476 0
M  V30 3732 H 350.322 -2.70974 -1.22313 0
M  V30 3733 H 347.855 -1.45197 -0.525084 0
M  V30 3734 H 349.813 -1.9637 -3.60485 0
M  V30 3735 H 348.474 -0.972518 -2.98665 0
M  V30 3736 H 347.667 -3.16046 -3.92595 0
M  V30 3737 H 347.269 -3.02642 -2.19736 0
M  V30 3738 H 349.561 -4.66643 -4.91173 0
M  V30 3739 H 350.504 -5.86411 -3.96898 0
M  V30 3740 H 350.912 -4.12652 -3.85199 0
M  V30 3741 N 350.31 0.590341 -1.46126 0
M  V30 3742 C 351.258 1.72105 -1.5647 0
M  V30 3743 C 352.252 1.63756 -0.433612 0
M  V30 3744 O 353.458 1.69342 -0.610194 0
M  V30 3745 H 349.833 0.568889 -0.491802 0
M  V30 3746 H 351.804 1.6051 -2.51553 0
M  V30 3747 C 350.553 3.10493 -1.56491 0
M  V30 3748 H 349.876 3.17583 -2.4286 0
M  V30 3749 H 351.316 3.8939 -1.67785 0
M  V30 3750 C 349.775 3.3563 -0.292231 0
M  V30 3751 O 350.305 3.96875 0.620739 0
M  V30 3752 N 348.511 2.90026 -0.182523 0
M  V30 3753 H 348.058 2.40367 -0.926356 0
M  V30 3754 H 348.016 3.07218 0.668152 0
M  V30 3755 N 351.788 1.33704 0.83433 0
M  V30 3756 C 353.035 1.25417 1.58987 0
M  V30 3757 C 353.363 -0.178869 1.93676 0
M  V30 3758 O 352.618 -1.13723 1.59265 0
M  V30 3759 C 352.917 2.07926 2.90692 0
M  V30 3760 C 352.583 3.57066 2.75345 0
M  V30 3761 C 351.245 3.97724 2.70867 0
M  V30 3762 C 353.597 4.51817 2.59828 0
M  V30 3763 C 350.925 5.31344 2.48778 0
M  V30 3764 C 353.277 5.85604 2.39272 0
M  V30 3765 C 351.941 6.25439 2.33199 0
M  V30 3766 H 351.211 0.458934 0.581774 0
M  V30 3767 H 353.858 1.65335 0.966261 0
M  V30 3768 H 352.163 1.608 3.57282 0
M  V30 3769 H 353.86 1.98868 3.48213 0
M  V30 3770 H 350.45 3.24785 2.79665 0
M  V30 3771 H 354.634 4.21311 2.62319 0
M  V30 3772 H 349.89 5.61241 2.42526 0
M  V30 3773 H 354.064 6.58623 2.2625 0
M  V30 3774 H 351.691 7.28914 2.15843 0
M  V30 3775 N 353.266 -1.05314 1.17247 0
M  V30 3776 C 354.198 -2.13023 0.845812 0
M  V30 3777 C 355.211 -1.62096 -0.151246 0
M  V30 3778 O 356.4 -1.78343 0.0748818 0
M  V30 3779 C 353.5 -3.38047 0.240292 0
M  V30 3780 C 352.673 -4.18255 1.27991 0
M  V30 3781 C 351.732 -5.21625 0.692375 0
M  V30 3782 O 350.758 -5.52619 1.36385 0
M  V30 3783 N 351.96 -5.78201 -0.516178 0
M  V30 3784 H 354.725 -2.41642 1.77283 0
M  V30 3785 H 352.286 -1.21401 1.07115 0
M  V30 3786 H 354.278 -4.04359 -0.16603 0
M  V30 3787 H 352.848 -3.06972 -0.590487 0
M  V30 3788 H 352.068 -3.47451 1.86203 0
M  V30 3789 H 353.356 -4.68643 1.98119 0
M  V30 3790 H 352.754 -5.55301 -1.07969 0
M  V30 3791 H 351.311 -6.4604 -0.86458 0
M  V30 3792 N 354.744 -0.972509 -1.24016 0
M  V30 3793 C 355.992 -0.635776 -1.91839 0
M  V30 3794 C 356.313 0.832312 -1.76345 0
M  V30 3795 O 355.583 1.5946 -1.13795 0
M  V30 3796 H 354.163 -0.232157 -0.710009 0
M  V30 3797 H 356.825 -1.23462 -1.50809 0
M  V30 3798 H 355.921 -0.880545 -2.99421 0
M  V30 3799 N 356.222 1.38976 -0.743202 0
M  V30 3800 C 357.169 2.30544 -0.10861 0
M  V30 3801 C 358.139 1.49642 0.720869 0
M  V30 3802 O 359.324 1.78304 0.679142 0
M  V30 3803 C 356.464 3.36018 0.786496 0
M  V30 3804 C 355.577 4.31963 -0.0564849 0
M  V30 3805 C 354.712 5.24506 0.840657 0
M  V30 3806 C 353.751 6.121 -0.00658363 0
M  V30 3807 N 352.888 6.96973 0.846943 0
M  V30 3808 H 357.728 2.8424 -0.895088 0
M  V30 3809 H 355.265 1.3995 -0.453048 0
M  V30 3810 H 357.223 3.95768 1.31999 0
M  V30 3811 H 355.853 2.83758 1.53887 0
M  V30 3812 H 354.905 3.73763 -0.707492 0
M  V30 3813 H 356.217 4.93703 -0.711229 0
M  V30 3814 H 355.371 5.89322 1.4417 0
M  V30 3815 H 354.11 4.63107 1.52916 0
M  V30 3816 H 353.115 5.46289 -0.620366 0
M  V30 3817 H 354.34 6.75565 -0.691992 0
M  V30 3818 H 352.286 6.38133 1.52059 0
M  V30 3819 H 352.203 7.5559 0.248864 0
M  V30 3820 H 353.471 7.6621 1.43328 0
M  V30 3821 N 357.7 0.491464 1.49741 0
M  V30 3822 C 358.63 -0.28154 2.31796 0
M  V30 3823 C 359.611 -0.971473 1.3963 0
M  V30 3824 O 360.796 -0.964719 1.68543 0
M  V30 3825 C 357.926 -1.35203 3.19902 0
M  V30 3826 C 356.88 -0.782529 4.20786 0
M  V30 3827 C 356.206 -1.95283 4.97764 0
M  V30 3828 C 357.506 0.21999 5.21837 0
M  V30 3829 H 359.2 0.403355 2.96671 0
M  V30 3830 H 356.746 0.195425 1.42668 0
M  V30 3831 H 358.699 -1.90045 3.76113 0
M  V30 3832 H 357.423 -2.06598 2.52953 0
M  V30 3833 H 356.082 -0.255928 3.65706 0
M  V30 3834 H 355.73 -2.65423 4.2727 0
M  V30 3835 H 355.43 -1.57789 5.66018 0
M  V30 3836 H 356.954 -2.50577 5.56816 0
M  V30 3837 H 358.368 -0.23996 5.72798 0
M  V30 3838 H 356.765 0.51026 5.97927 0
M  V30 3839 H 357.835 1.13911 4.7133 0
M  V30 3840 N 359.178 -1.55987 0.224894 0
M  V30 3841 C 360.125 -2.20436 -0.68385 0
M  V30 3842 C 361.095 -1.16102 -1.18783 0
M  V30 3843 O 362.28 -1.4447 -1.24632 0
M  V30 3844 C 359.42 -2.89076 -1.88491 0
M  V30 3845 C 358.533 -4.08012 -1.41951 0
M  V30 3846 C 357.668 -4.64426 -2.5784 0
M  V30 3847 C 356.707 -5.75656 -2.08053 0
M  V30 3848 N 355.844 -6.26347 -3.17227 0
M  V30 3849 H 360.684 -2.97727 -0.12754 0
M  V30 3850 H 358.221 -1.47011 -0.0511978 0
M  V30 3851 H 360.179 -3.27059 -2.59014 0
M  V30 3852 H 358.809 -2.14298 -2.41405 0
M  V30 3853 H 357.861 -3.75492 -0.609095 0
M  V30 3854 H 359.173 -4.88375 -1.01447 0
M  V30 3855 H 358.327 -5.04869 -3.3644 0
M  V30 3856 H 357.066 -3.83233 -3.01635 0
M  V30 3857 H 356.071 -5.34712 -1.27916 0
M  V30 3858 H 357.296 -6.58686 -1.65255 0
M  V30 3859 H 355.242 -5.48067 -3.60497 0
M  V30 3860 H 355.159 -7.01843 -2.80986 0
M  V30 3861 H 356.427 -6.71447 -3.95953 0
M  V30 3862 N 360.656 0.0484629 -1.57525 0
M  V30 3863 C 361.886 0.754326 -1.92337 0
M  V30 3864 C 362.294 1.70443 -0.82132 0
M  V30 3865 O 361.637 1.82466 0.21254 0
M  V30 3866 C 361.699 1.58231 -3.22805 0
M  V30 3867 C 361.363 0.799074 -4.4996 0
M  V30 3868 C 362.36 0.1079 -5.19788 0
M  V30 3869 C 360.045 0.759345 -4.96527 0
M  V30 3870 C 362.039 -0.612516 -6.3445 0
M  V30 3871 C 359.726 0.0351713 -6.1109 0
M  V30 3872 C 360.724 -0.649537 -6.79904 0
M  V30 3873 O 360.412 -1.36199 -7.92278 0
M  V30 3874 H 360.144 0.218257 -0.639797 0
M  V30 3875 H 362.698 0.0159295 -2.05394 0
M  V30 3876 H 360.928 2.36406 -3.06021 0
M  V30 3877 H 362.617 2.16898 -3.43089 0
M  V30 3878 H 363.383 0.129748 -4.84826 0
M  V30 3879 H 359.262 1.28177 -4.42822 0
M  V30 3880 H 362.806 -1.14751 -6.88097 0
M  V30 3881 H 358.703 0.0113314 -6.45499 0
M  V30 3882 H 359.471 -1.27366 -8.0853 0
M  V30 3883 N 362.134 1.5431 0.320358 0
M  V30 3884 C 363.064 1.86912 1.3995 0
M  V30 3885 C 364.045 0.726211 1.53819 0
M  V30 3886 O 365.23 0.980233 1.67646 0
M  V30 3887 C 362.36 2.09932 2.7667 0
M  V30 3888 C 361.314 3.25776 2.77586 0
M  V30 3889 C 360.64 3.34173 4.17412 0
M  V30 3890 C 361.94 4.6335 2.41048 0
M  V30 3891 H 363.634 2.77292 1.12914 0
M  V30 3892 H 361.18 1.33421 0.541738 0
M  V30 3893 H 363.133 2.31324 3.52232 0
M  V30 3894 H 361.857 1.16304 3.0519 0
M  V30 3895 H 360.516 3.04276 2.04479 0
M  V30 3896 H 360.164 2.38098 4.43078 0
M  V30 3897 H 359.864 4.12033 4.18931 0
M  V30 3898 H 361.388 3.57803 4.94782 0
M  V30 3899 H 362.802 4.84602 3.06324 0
M  V30 3900 H 361.199 5.43782 2.53813 0
M  V30 3901 H 362.269 4.65381 1.36193 0
M  V30 3902 N 363.613 -0.582584 1.46437 0
M  V30 3903 C 364.563 -1.68654 1.53426 0
M  V30 3904 C 365.547 -1.55971 0.395194 0
M  V30 3905 O 366.739 -1.64884 0.643612 0
M  V30 3906 C 363.868 -3.07439 1.52762 0
M  V30 3907 C 362.954 -3.25418 2.71963 0
M  V30 3908 N 363.345 -3.13556 3.96883 0
M  V30 3909 C 361.643 -3.56357 2.68189 0
M  V30 3910 C 362.344 -3.33543 4.76575 0
M  V30 3911 N 361.32 -3.58704 4.08451 0
M  V30 3912 H 365.122 -1.58014 2.47808 0
M  V30 3913 H 362.636 -0.786617 1.42078 0
M  V30 3914 H 364.633 -3.86671 1.55857 0
M  V30 3915 H 363.293 -3.1921 0.594573 0
M  V30 3916 H 364.304 -2.9142 4.28129 0
M  V30 3917 H 360.981 -3.74812 1.83908 0
M  V30 3918 H 362.371 -3.29555 5.85528 0
M  V30 3919 N 365.091 -1.34144 -0.827227 0
M  V30 3920 C 366.339 -1.26009 -1.58007 0
M  V30 3921 C 366.66 0.170971 -1.94249 0
M  V30 3922 O 365.93 1.10256 -1.61927 0
M  V30 3923 H 364.51 -0.463414 -0.585881 0
M  V30 3924 H 367.172 -1.68005 -0.987951 0
M  V30 3925 H 366.268 -1.86187 -2.50481 0
M  V30 3926 N 366.569 1.04691 -1.17803 0
M  V30 3927 C 367.501 2.12571 -0.857097 0
M  V30 3928 C 368.514 1.62174 0.142647 0
M  V30 3929 O 369.703 1.78301 -0.0843387 0
M  V30 3930 C 366.803 3.37915 -0.258216 0
M  V30 3931 C 365.976 4.1757 -1.30207 0
M  V30 3932 C 365.035 5.2125 -0.720029 0
M  V30 3933 O 364.061 5.51888 -1.39314 0
M  V30 3934 N 365.263 5.78466 0.485507 0
M  V30 3935 H 368.028 2.40698 -1.78562 0
M  V30 3936 H 365.589 1.20831 -1.07757 0
M  V30 3937 H 367.581 4.04442 0.144584 0
M  V30 3938 H 366.151 3.07281 0.574199 0
M  V30 3939 H 365.371 3.46458 -1.88043 0
M  V30 3940 H 366.659 4.67586 -2.00601 0
M  V30 3941 H 366.057 5.55866 1.05022 0
M  V30 3942 H 364.614 6.4649 0.830307 0
M  V30 3943 N 368.047 0.979072 1.23499 0
M  V30 3944 C 368.994 0.517904 2.24914 0
M  V30 3945 C 369.964 -0.442525 1.60097 0
M  V30 3946 O 371.149 -0.350365 1.87556 0
M  V30 3947 C 368.289 -0.174813 3.44657 0
M  V30 3948 C 367.402 0.825721 4.24035 0
M  V30 3949 C 366.537 0.107946 5.3109 0
M  V30 3950 C 365.576 1.09778 6.02175 0
M  V30 3951 N 364.713 0.40925 7.00906 0
M  V30 3952 H 369.553 1.38751 2.63727 0
M  V30 3953 H 367.09 0.695303 1.2963 0
M  V30 3954 H 369.048 -0.593233 4.12961 0
M  V30 3955 H 367.678 -1.0083 3.06648 0
M  V30 3956 H 366.73 1.36253 3.55161 0
M  V30 3957 H 368.042 1.58005 4.73113 0
M  V30 3958 H 367.196 -0.367904 6.05583 0
M  V30 3959 H 365.935 -0.678994 4.8295 0
M  V30 3960 H 364.94 1.5844 5.26476 0
M  V30 3961 H 366.165 1.88536 6.52404 0
M  V30 3962 H 364.111 -0.358506 6.5502 0
M  V30 3963 H 364.028 1.10226 7.47921 0
M  V30 3964 H 365.296 -0.0442557 7.79487 0
M  V30 3965 N 369.525 -1.3858 0.750561 0
M  V30 3966 C 370.472 -2.30483 0.120835 0
M  V30 3967 C 371.442 -1.50022 -0.712923 0
M  V30 3968 O 372.627 -1.78662 -0.669676 0
M  V30 3969 C 369.767 -3.36431 -0.768666 0
M  V30 3970 C 368.88 -4.31927 0.0793922 0
M  V30 3971 C 368.015 -5.24944 -0.81283 0
M  V30 3972 C 367.054 -6.12088 0.0390447 0
M  V30 3973 N 366.191 -6.97412 -0.809969 0
M  V30 3974 H 371.031 -2.83761 0.91015 0
M  V30 3975 H 368.568 -1.39707 0.460463 0
M  V30 3976 H 370.526 -3.96462 -1.29898 0
M  V30 3977 H 369.156 -2.8457 -1.5238 0
M  V30 3978 H 368.208 -3.73382 0.727303 0
M  V30 3979 H 369.52 -4.93319 0.737401 0
M  V30 3980 H 368.674 -5.90078 -1.41042 0
M  V30 3981 H 367.413 -4.63911 -1.50458 0
M  V30 3982 H 366.418 -5.45952 0.649328 0
M  V30 3983 H 367.643 -6.75189 0.727809 0
M  V30 3984 H 365.589 -6.38931 -1.48672 0
M  V30 3985 H 365.506 -7.55712 -0.208789 0
M  V30 3986 H 366.774 -7.66959 -1.39263 0
M  V30 3987 N 371.003 -0.499398 -1.49478 0
M  V30 3988 C 371.95 0.279881 -2.29097 0
M  V30 3989 C 372.92 0.961805 -1.3542 0
M  V30 3990 O 374.105 0.968777 -1.64376 0
M  V30 3991 C 371.245 1.33932 -3.18051 0
M  V30 3992 C 370.358 0.669333 -4.26783 0
M  V30 3993 C 369.493 1.70907 -5.02955 0
M  V30 3994 C 368.532 1.02087 -6.03527 0
M  V30 3995 N 367.669 2.00474 -6.7287 0
M  V30 3996 H 372.509 -0.405317 -2.95231 0
M  V30 3997 H 370.046 -0.211726 -1.45568 0
M  V30 3998 H 372.004 1.96553 -3.67998 0
M  V30 3999 H 370.634 1.9933 -2.53904 0
M  V30 4000 H 369.686 -0.0701234 -3.80335 0
M  V30 4001 H 370.998 0.127503 -4.98637 0
M  V30 4002 H 370.152 2.41037 -5.56764 0
M  V30 4003 H 368.891 2.28476 -4.30871 0
M  V30 4004 H 367.896 0.305338 -5.48951 0
M  V30 4005 H 369.121 0.451708 -6.77596 0
M  V30 4006 H 367.067 2.57007 -6.03559 0
M  V30 4007 H 366.984 1.51353 -7.40694 0
M  V30 4008 H 368.252 2.69897 -7.31284 0
M  V30 4009 N 372.481 1.55866 -0.233164 0
M  V30 4010 C 373.729 1.9821 0.394593 0
M  V30 4011 C 374.05 1.12234 1.59463 0
M  V30 4012 O 373.32 0.201981 1.94856 0
M  V30 4013 H 371.9 0.732034 0.148778 0
M  V30 4014 H 374.562 1.92107 -0.32876 0
M  V30 4015 H 373.658 3.03845 0.713063 0
M  V30 4016 N 373.959 -0.0401083 1.57549 0
M  V30 4017 C 374.906 -1.04413 2.05831 0
M  V30 4018 C 375.876 -1.36585 0.945184 0
M  V30 4019 O 377.061 -1.47112 1.21502 0
M  V30 4020 C 374.201 -2.34336 2.53339 0
M  V30 4021 C 373.314 -2.08419 3.78398 0
M  V30 4022 C 372.449 -3.32133 4.14561 0
M  V30 4023 C 371.488 -3.01721 5.3257 0
M  V30 4024 N 370.625 -4.17855 5.64218 0
M  V30 4025 H 375.465 -0.625442 2.91363 0
M  V30 4026 H 373.002 -0.297218 1.44066 0
M  V30 4027 H 374.96 -3.10234 2.78946 0
M  V30 4028 H 373.59 -2.73948 1.7074 0
M  V30 4029 H 372.642 -1.23069 3.59942 0
M  V30 4030 H 373.954 -1.81978 4.64419 0
M  V30 4031 H 373.108 -4.16406 4.41238 0
M  V30 4032 H 371.847 -3.61678 3.2717 0
M  V30 4033 H 370.852 -2.15849 5.05657 0
M  V30 4034 H 372.077 -2.73466 6.21605 0
M  V30 4035 H 370.023 -4.47372 4.79786 0
M  V30 4036 H 369.94 -3.94798 6.44725 0
M  V30 4037 H 371.208 -5.03033 5.95465 0
M  V30 4038 N 375.437 -1.54477 -0.31217 0
M  V30 4039 C 376.714 -1.63891 -1.06767 0
M  V30 4040 C 377.094 -0.480028 -2.0557 0
M  V30 4041 O 376.442 0.524487 -2.22399 0
M  V30 4042 C 376.652 -3.01402 -1.75948 0
M  V30 4043 C 378 -3.57838 -2.28554 0
M  V30 4044 O 379.024 -3.03782 -1.85998 0
M  V30 4045 O 377.883 -4.52462 -3.06497 0
M  V30 4046 H 374.977 -0.664125 -0.492816 0
M  V30 4047 H 377.523 -1.66823 -0.311149 0
M  V30 4048 H 376.295 -3.77187 -1.04144 0
M  V30 4049 H 375.918 -3.02199 -2.58383 0
M  V30 4050 N 376.915 0.57481 -1.46744 0
M  V30 4051 C 378.163 1.33009 -1.52161 0
M  V30 4052 C 378.484 1.94185 -0.178092 0
M  V30 4053 O 377.754 1.7899 0.796196 0
M  V30 4054 H 376.334 0.493873 -0.560445 0
M  V30 4055 H 378.996 0.672589 -1.82927 0
M  V30 4056 H 378.092 2.13273 -2.27862 0
M  V30 4057 N 378.394 1.34581 0.820102 0
M  V30 4058 C 379.619 1.30333 1.61332 0
M  V30 4059 C 380.044 -0.119339 1.87721 0
M  V30 4060 O 379.402 -1.08197 1.45475 0
M  V30 4061 C 379.45 2.10258 2.92957 0
M  V30 4062 O 378.554 1.47404 3.85157 0
M  V30 4063 H 377.895 0.447488 0.490561 0
M  V30 4064 H 380.425 1.77425 1.01889 0
M  V30 4065 H 380.435 2.21718 3.42498 0
M  V30 4066 H 379.11 3.13693 2.73074 0
M  V30 4067 H 377.687 1.44703 3.43679 0
M  V30 4068 N 379.872 -1.04064 1.18357 0
M  V30 4069 C 381.121 -1.76662 0.973313 0
M  V30 4070 C 381.434 -1.89154 -0.497991 0
M  V30 4071 O 382.64 -2.58606 -0.826762 0
M  V30 4072 C 381.096 -3.17624 1.69242 0
M  V30 4073 C 380.704 -3.13225 3.20303 0
M  V30 4074 C 382.448 -3.946 1.56497 0
M  V30 4075 C 380.355 -4.49046 3.84853 0
M  V30 4076 H 379.285 -0.662214 0.36054 0
M  V30 4077 H 381.936 -1.16553 1.41731 0
M  V30 4078 H 380.318 -3.78129 1.1762 0
M  V30 4079 H 381.492 -2.62172 3.78949 0
M  V30 4080 H 379.807 -2.49749 3.33189 0
M  V30 4081 H 382.404 -4.95042 2.02084 0
M  V30 4082 H 382.747 -4.13074 0.517243 0
M  V30 4083 H 383.28 -3.4067 2.05399 0
M  V30 4084 H 380.019 -4.35777 4.89672 0
M  V30 4085 H 379.539 -5.00203 3.30994 0
M  V30 4086 H 381.218 -5.17961 3.87718 0
M  V30 4087 N 381.35 -0.985608 -1.22978 0
M  V30 4088 C 382.28 -0.549649 -2.26939 0
M  V30 4089 C 383.261 0.419803 -1.64838 0
M  V30 4090 O 384.446 0.31203 -1.91677 0
M  V30 4091 C 381.576 0.143652 -3.47003 0
M  V30 4092 C 380.53 -0.743606 -4.21491 0
M  V30 4093 C 379.856 0.0822027 -5.34637 0
M  V30 4094 C 381.156 -2.03694 -4.80943 0
M  V30 4095 H 382.85 -1.41862 -2.63658 0
M  V30 4096 H 380.396 -0.683571 -1.26741 0
M  V30 4097 H 382.349 0.459985 -4.18882 0
M  V30 4098 H 381.073 1.04711 -3.09359 0
M  V30 4099 H 379.732 -1.04347 -3.51436 0
M  V30 4100 H 379.38 0.986359 -4.93234 0
M  V30 4101 H 379.08 -0.508377 -5.85397 0
M  V30 4102 H 380.604 0.392797 -6.09335 0
M  V30 4103 H 382.018 -1.78504 -5.44802 0
M  V30 4104 H 380.415 -2.57573 -5.42011 0
M  V30 4105 H 381.485 -2.72042 -4.01399 0
M  V30 4106 N 382.828 1.3818 -0.7579 0
M  V30 4107 C 384.239 1.82726 -0.383134 0
M  V30 4108 C 384.59 1.63214 1.08884 0
M  V30 4109 O 383.715 1.13566 1.84205 0
M  V30 4110 C 384.31 3.31728 -0.688631 0
M  V30 4111 C 382.869 3.74606 -0.367091 0
M  V30 4112 C 382.016 2.60896 -0.939599 0
M  V30 4113 H 384.967 1.26847 -0.953699 0
M  V30 4114 H 384.988 3.80487 0.0316492 0
M  V30 4115 H 384.5 3.45898 -1.76001 0
M  V30 4116 H 382.601 3.66013 0.697532 0
M  V30 4117 H 382.714 4.71215 -0.865658 0
M  V30 4118 H 381.078 2.52075 -0.3647 0
M  V30 4119 H 381.861 2.77864 -2.0161 0
M  V30 4120 N 384.306 0.507319 1.49211 0
M  V30 4121 C 385.717 0.0611118 1.866 0
M  V30 4122 C 386.068 -1.35488 1.41907 0
M  V30 4123 O 385.193 -2.0108 0.799726 0
M  V30 4124 C 385.788 0.104125 3.3864 0
M  V30 4125 C 384.347 -0.28677 3.75306 0
M  V30 4126 C 383.494 0.473893 2.73221 0
M  V30 4127 H 386.445 0.719775 1.41439 0
M  V30 4128 H 386.466 -0.689672 3.74198 0
M  V30 4129 H 385.978 1.13482 3.71138 0
M  V30 4130 H 384.079 -1.32046 3.48417 0
M  V30 4131 H 384.192 0.0370745 4.79086 0
M  V30 4132 H 382.556 -0.0770644 2.54583 0
M  V30 4133 H 383.339 1.50478 3.08563 0
M  V30 4134 N 385.784 -1.5574 0.241426 0
M  V30 4135 C 386.716 -2.18469 -0.693091 0
M  V30 4136 C 387.729 -1.15942 -1.14286 0
M  V30 4137 O 388.918 -1.42832 -1.07058 0
M  V30 4138 C 386.018 -2.7696 -1.95311 0
M  V30 4139 C 385.191 -4.04853 -1.65568 0
M  V30 4140 C 384.25 -4.47715 -2.76474 0
M  V30 4141 O 383.276 -5.14205 -2.44094 0
M  V30 4142 N 384.478 -4.15044 -4.05855 0
M  V30 4143 H 387.243 -2.99292 -0.156388 0
M  V30 4144 H 384.804 -1.61784 0.0611752 0
M  V30 4145 H 386.796 -3.02594 -2.68736 0
M  V30 4146 H 385.366 -2.00326 -2.39975 0
M  V30 4147 H 384.586 -3.86865 -0.756886 0
M  V30 4148 H 385.874 -4.88246 -1.43153 0
M  V30 4149 H 385.272 -3.61654 -4.34998 0
M  V30 4150 H 383.829 -4.45526 -4.75762 0
M  V30 4151 N 387.262 0.0317525 -1.57568 0
M  V30 4152 C 388.192 1.03274 -2.0942 0
M  V30 4153 C 389.173 1.3788 -0.996143 0
M  V30 4154 O 390.358 1.46811 -1.27122 0
M  V30 4155 C 387.488 2.33448 -2.57137 0
M  V30 4156 C 386.442 2.13091 -3.71182 0
M  V30 4157 C 385.768 3.49001 -4.05095 0
M  V30 4158 C 387.068 1.51928 -4.99715 0
M  V30 4159 H 388.762 0.60112 -2.93303 0
M  V30 4160 H 386.308 0.287705 -1.41097 0
M  V30 4161 H 388.261 3.03802 -2.92032 0
M  V30 4162 H 386.985 2.78665 -1.70333 0
M  V30 4163 H 385.644 1.45171 -3.36632 0
M  V30 4164 H 385.292 3.91862 -3.15362 0
M  V30 4165 H 384.992 3.36207 -4.81911 0
M  V30 4166 H 386.516 4.20721 -4.42522 0
M  V30 4167 H 387.93 2.12196 -5.32584 0
M  V30 4168 H 386.327 1.49716 -5.81124 0
M  V30 4169 H 387.397 0.484811 -4.8247 0
M  V30 4170 N 388.74 1.54641 0.303973 0
M  V30 4171 C 389.703 1.84646 1.35789 0
M  V30 4172 C 390.703 0.7192 1.4382 0
M  V30 4173 O 391.893 0.987491 1.43507 0
M  V30 4174 C 389.025 2.02407 2.74307 0
M  V30 4175 H 390.218 2.78829 1.10429 0
M  V30 4176 H 387.771 1.46658 0.540487 0
M  V30 4177 H 388.506 1.10502 3.04893 0
M  V30 4178 H 388.291 2.84453 2.69868 0
M  V30 4179 H 389.781 2.27002 3.50514 0
M  V30 4180 N 390.218 -0.567019 1.47046 0
M  V30 4181 C 391.148 -1.68482 1.61667 0
M  V30 4182 C 392.129 -1.6358 0.466418 0
M  V30 4183 O 393.314 -1.81354 0.694574 0
M  V30 4184 C 390.444 -3.07124 1.62148 0
M  V30 4185 C 389.398 -3.26867 2.76301 0
M  V30 4186 C 388.724 -4.66196 2.61849 0
M  V30 4187 C 390.024 -3.13186 4.17986 0
M  V30 4188 H 391.718 -1.56502 2.5524 0
M  V30 4189 H 389.264 -0.751486 1.22836 0
M  V30 4190 H 391.217 -3.8516 1.70968 0
M  V30 4191 H 389.941 -3.2004 0.651287 0
M  V30 4192 H 388.6 -2.51237 2.66975 0
M  V30 4193 H 388.248 -4.75898 1.62879 0
M  V30 4194 H 387.948 -4.80356 3.38425 0
M  V30 4195 H 389.472 -5.46379 2.72584 0
M  V30 4196 H 390.886 -3.81049 4.2834 0
M  V30 4197 H 389.283 -3.3886 4.95272 0
M  V30 4198 H 390.353 -2.10057 4.3704 0
M  V30 4199 N 391.696 -1.35014 -0.812953 0
M  V30 4200 C 392.943 -1.27931 -1.56971 0
M  V30 4201 C 393.271 0.148034 -1.93936 0
M  V30 4202 O 392.526 1.11175 -1.61054 0
M  V30 4203 C 392.825 -2.12524 -2.87347 0
M  V30 4204 C 392.491 -3.61401 -2.6963 0
M  V30 4205 C 391.153 -4.01983 -2.64506 0
M  V30 4206 C 393.505 -4.55894 -2.52607 0
M  V30 4207 C 390.833 -5.35235 -2.40293 0
M  V30 4208 C 393.185 -5.89336 -2.29925 0
M  V30 4209 C 391.849 -6.2907 -2.23219 0
M  V30 4210 H 391.119 -0.468131 -0.574399 0
M  V30 4211 H 393.766 -1.66851 -0.939836 0
M  V30 4212 H 392.071 -1.66463 -3.54679 0
M  V30 4213 H 393.768 -2.04383 -3.45005 0
M  V30 4214 H 390.358 -3.29193 -2.74463 0
M  V30 4215 H 394.542 -4.25431 -2.55583 0
M  V30 4216 H 389.798 -5.65028 -2.33566 0
M  V30 4217 H 393.972 -6.62139 -2.15743 0
M  V30 4218 H 391.599 -7.32256 -2.04219 0
M  V30 4219 N 393.175 1.03435 -1.18907 0
M  V30 4220 C 394.138 2.09756 -0.923844 0
M  V30 4221 C 395.138 1.60528 0.093416 0
M  V30 4222 O 396.328 1.73631 -0.140727 0
M  V30 4223 C 393.46 3.38692 -0.387354 0
M  V30 4224 H 394.653 2.34719 -1.86674 0
M  V30 4225 H 392.206 1.19959 -1.00197 0
M  V30 4226 H 392.941 3.19396 0.561845 0
M  V30 4227 H 392.726 3.75742 -1.12074 0
M  V30 4228 H 394.216 4.17016 -0.220694 0
M  V30 4229 N 394.653 0.992116 1.22453 0
M  V30 4230 C 395.902 0.662992 1.90492 0
M  V30 4231 C 396.215 -0.808407 1.78113 0
M  V30 4232 O 397.421 -1.24908 2.41061 0
M  V30 4233 C 395.877 1.1353 3.41524 0
M  V30 4234 C 395.485 2.63187 3.62542 0
M  V30 4235 C 397.229 0.880465 4.15269 0
M  V30 4236 C 395.136 3.04024 5.0727 0
M  V30 4237 H 394.066 0.244278 0.713333 0
M  V30 4238 H 396.717 1.20157 1.38688 0
M  V30 4239 H 395.099 0.52485 3.92506 0
M  V30 4240 H 396.273 3.2957 3.22056 0
M  V30 4241 H 394.588 2.86543 3.02129 0
M  V30 4242 H 397.185 1.16128 5.21937 0
M  V30 4243 H 397.528 -0.183408 4.15896 0
M  V30 4244 H 398.061 1.45307 3.70312 0
M  V30 4245 H 394.8 4.09584 5.11782 0
M  V30 4246 H 394.32 2.42343 5.48662 0
M  V30 4247 H 395.999 2.95282 5.75689 0
M  V30 4248 N 396.131 -1.37776 0.765217 0
M  V30 4249 C 397.094 -2.28686 0.153416 0
M  V30 4250 C 398.094 -1.47727 -0.635081 0
M  V30 4251 O 399.284 -1.68027 -0.459632 0
M  V30 4252 C 396.416 -3.31608 -0.790495 0
M  V30 4253 H 397.609 -2.84297 0.954723 0
M  V30 4254 H 395.162 -1.46932 0.53299 0
M  V30 4255 H 395.897 -2.81109 -1.61705 0
M  V30 4256 H 395.682 -3.9144 -0.227348 0
M  V30 4257 H 397.172 -3.99559 -1.21419 0
M  V30 4258 N 397.609 -0.515225 -1.4894 0
M  V30 4259 C 398.837 0.0206034 -2.0689 0
M  V30 4260 C 399.252 1.29514 -1.37374 0
M  V30 4261 O 398.609 1.76698 -0.456529 0
M  V30 4262 C 398.66 0.26351 -3.60538 0
M  V30 4263 O 398.381 -0.960517 -4.27441 0
M  V30 4264 C 399.882 0.841383 -4.35242 0
M  V30 4265 H 397.102 -0.0268608 -0.670462 0
M  V30 4266 H 399.646 -0.716651 -1.91532 0
M  V30 4267 H 397.801 0.950777 -3.75552 0
M  V30 4268 H 398.215 -0.73212 -5.19365 0
M  V30 4269 H 399.689 0.96085 -5.43573 0
M  V30 4270 H 400.166 1.8427 -3.98674 0
M  V30 4271 H 400.772 0.191143 -4.2487 0
M  V30 4272 N 399.087 1.5561 -0.249682 0
M  V30 4273 C 400.498 1.84979 0.252949 0
M  V30 4274 C 400.849 1.17153 1.57384 0
M  V30 4275 O 399.974 0.450884 2.11651 0
M  V30 4276 C 400.569 3.35584 0.465732 0
M  V30 4277 C 399.128 3.65169 0.912624 0
M  V30 4278 C 398.275 2.77299 -0.00859085 0
M  V30 4279 H 401.226 1.51513 -0.47217 0
M  V30 4280 H 401.247 3.57313 1.30795 0
M  V30 4281 H 400.759 3.8492 -0.49579 0
M  V30 4282 H 398.86 3.21312 1.88652 0
M  V30 4283 H 398.973 4.72912 0.767559 0
M  V30 4284 H 397.337 2.49678 0.50327 0
M  V30 4285 H 398.12 3.29442 -0.965537 0
M  V30 4286 N 400.565 -0.0233959 1.57583 0
M  V30 4287 C 401.495 -1.02162 2.09965 0
M  V30 4288 C 402.476 -1.3735 1.00344 0
M  V30 4289 O 403.661 -1.46135 1.27899 0
M  V30 4290 C 400.791 -2.32081 2.58371 0
M  V30 4291 C 399.745 -2.1112 3.72307 0
M  V30 4292 C 399.071 -3.46848 4.06941 0
M  V30 4293 C 400.371 -1.49276 5.00514 0
M  V30 4294 H 402.065 -0.585557 2.93618 0
M  V30 4295 H 399.611 -0.280218 1.41247 0
M  V30 4296 H 401.564 -3.02249 2.93639 0
M  V30 4297 H 400.288 -2.77758 1.71808 0
M  V30 4298 H 398.947 -1.43384 3.37397 0
M  V30 4299 H 398.595 -3.90184 3.17436 0
M  V30 4300 H 398.295 -3.33646 4.83688 0
M  V30 4301 H 399.819 -4.18369 4.44747 0
M  V30 4302 H 401.233 -2.09368 5.33702 0
M  V30 4303 H 399.63 -1.46632 5.8191 0
M  V30 4304 H 400.7 -0.459217 4.82721 0
M  V30 4305 N 402.043 -1.548 -0.295768 0
M  V30 4306 C 402.975 -1.82492 -1.3867 0
M  V30 4307 C 403.988 -0.708134 -1.46592 0
M  V30 4308 O 405.177 -0.985686 -1.48817 0
M  V30 4309 C 402.277 -1.95256 -2.76999 0
M  V30 4310 C 401.45 -3.25709 -2.91946 0
M  V30 4311 C 400.509 -3.28824 -4.10806 0
M  V30 4312 O 399.535 -4.02328 -4.02643 0
M  V30 4313 N 400.737 -2.5459 -5.21694 0
M  V30 4314 H 403.502 -2.76646 -1.15269 0
M  V30 4315 H 401.063 -1.54438 -0.485849 0
M  V30 4316 H 403.055 -1.94736 -3.54768 0
M  V30 4317 H 401.625 -1.08072 -2.93324 0
M  V30 4318 H 400.845 -3.38959 -2.01247 0
M  V30 4319 H 402.133 -4.11786 -2.98847 0
M  V30 4320 H 401.531 -1.94512 -5.31208 0
M  V30 4321 H 400.088 -2.59818 -5.97778 0
M  V30 4322 N 403.521 0.559213 -1.47345 0
M  V30 4323 C 404.932 1.14134 -1.47751 0
M  V30 4324 C 405.283 1.94834 -0.231103 0
M  V30 4325 O 404.408 2.05957 0.664137 0
M  V30 4326 C 405.003 2.07653 -2.67705 0
M  V30 4327 C 403.562 2.61141 -2.71076 0
M  V30 4328 C 402.709 1.3748 -2.40821 0
M  V30 4329 H 405.66 0.345917 -1.54884 0
M  V30 4330 H 405.681 2.91497 -2.44561 0
M  V30 4331 H 405.193 1.4889 -3.58404 0
M  V30 4332 H 403.294 3.23707 -1.84511 0
M  V30 4333 H 403.407 3.02272 -3.7171 0
M  V30 4334 H 401.771 1.68086 -1.91362 0
M  V30 4335 H 402.554 0.805135 -3.33725 0
M  V30 4336 N 404.999 1.35443 0.805782 0
M  V30 4337 C 406.41 1.25768 1.37983 0
M  V30 4338 C 406.761 -0.10958 1.95894 0
M  V30 4339 O 405.886 -1.01056 1.91355 0
M  V30 4340 C 406.481 2.27727 2.5085 0
M  V30 4341 C 405.04 2.2179 3.04115 0
M  V30 4342 C 404.187 2.13393 1.77084 0
M  V30 4343 H 407.138 1.4656 0.608752 0
M  V30 4344 H 407.159 1.90422 3.29424 0
M  V30 4345 H 406.671 3.27227 2.08671 0
M  V30 4346 H 404.772 1.25703 3.50756 0
M  V30 4347 H 404.885 3.13788 3.62042 0
M  V30 4348 H 403.249 1.59384 1.98668 0
M  V30 4349 H 404.032 3.14755 1.37056 0
M  V30 4350 N 406.477 -1.02803 1.19454 0
M  V30 4351 C 407.702 -1.80378 1.02364 0
M  V30 4352 C 408.127 -1.83282 -0.423007 0
M  V30 4353 O 407.485 -1.25945 -1.30413 0
M  V30 4354 C 407.533 -3.23248 1.59821 0
M  V30 4355 O 406.637 -4.04 0.828105 0
M  V30 4356 H 405.978 -0.556799 0.361761 0
M  V30 4357 H 408.508 -1.29385 1.58495 0
M  V30 4358 H 408.518 -3.73994 1.63073 0
M  V30 4359 H 407.193 -3.2045 2.65113 0
M  V30 4360 H 405.77 -3.62635 0.86891 0
M  V30 4361 N 407.956 -0.998596 -1.21925 0
M  V30 4362 C 409.205 -0.673085 -1.90138 0
M  V30 4363 C 409.518 0.79895 -1.78539 0
M  V30 4364 O 410.724 1.23628 -2.4172 0
M  V30 4365 C 409.18 -1.15339 -3.40918 0
M  V30 4366 C 408.788 -2.65106 -3.61141 0
M  V30 4367 C 410.532 -0.902476 -4.14796 0
M  V30 4368 C 408.439 -3.0671 -5.05651 0
M  V30 4369 H 407.369 -0.248057 -0.712028 0
M  V30 4370 H 410.02 -1.20891 -1.38049 0
M  V30 4371 H 408.402 -0.545658 -3.92223 0
M  V30 4372 H 409.576 -3.31274 -3.20304 0
M  V30 4373 H 407.891 -2.88142 -3.00605 0
M  V30 4374 H 410.488 -1.18895 -5.21314 0
M  V30 4375 H 410.831 0.161349 -4.15987 0
M  V30 4376 H 411.364 -1.47269 -3.69536 0
M  V30 4377 H 408.103 -4.12292 -5.09603 0
M  V30 4378 H 407.623 -2.45249 -5.47369 0
M  V30 4379 H 409.302 -2.9833 -5.74115 0
M  V30 4380 N 409.434 1.37368 -0.772513 0
M  V30 4381 C 410.364 2.32856 -0.173304 0
M  V30 4382 C 411.345 1.55818 0.682262 0
M  V30 4383 O 412.53 1.84052 0.619566 0
M  V30 4384 C 409.66 3.40048 0.706007 0
M  V30 4385 C 408.614 4.27973 -0.0483144 0
M  V30 4386 C 407.94 5.26184 0.950491 0
M  V30 4387 C 409.24 5.07665 -1.22776 0
M  V30 4388 H 410.934 2.83217 -0.971002 0
M  V30 4389 H 408.48 1.3617 -0.468377 0
M  V30 4390 H 410.433 4.05827 1.13501 0
M  V30 4391 H 409.157 2.88214 1.53623 0
M  V30 4392 H 407.816 3.63726 -0.458107 0
M  V30 4393 H 407.464 4.7063 1.77529 0
M  V30 4394 H 407.164 5.85872 0.450314 0
M  V30 4395 H 408.688 5.94838 1.37842 0
M  V30 4396 H 410.102 5.66578 -0.875366 0
M  V30 4397 H 408.499 5.76681 -1.66007 0
M  V30 4398 H 409.569 4.40294 -2.03149 0
M  V30 4399 N 410.912 0.523116 1.48665 0
M  V30 4400 C 411.822 -0.247406 2.33292 0
M  V30 4401 C 412.838 -0.945769 1.46052 0
M  V30 4402 O 414.014 -0.922253 1.79043 0
M  V30 4403 C 411.079 -1.28487 3.22012 0
M  V30 4404 C 410.14 -0.597592 4.2512 0
M  V30 4405 C 409.373 -1.58563 5.09601 0
M  V30 4406 O 409.596 -2.81763 4.95949 0
M  V30 4407 O 408.53 -1.12879 5.91221 0
M  V30 4408 H 412.356 0.445869 3.00409 0
M  V30 4409 H 409.941 0.284128 1.46673 0
M  V30 4410 H 411.823 -1.88459 3.7691 0
M  V30 4411 H 410.498 -1.96068 2.57564 0
M  V30 4412 H 409.405 0.0424407 3.74076 0
M  V30 4413 H 410.738 0.0361517 4.92187 0
M  V30 4414 N 412.39 -1.55475 0.257931 0
M  V30 4415 C 413.639 -1.98383 -0.364275 0
M  V30 4416 C 413.952 -1.14952 -1.58258 0
M  V30 4417 O 415.158 -1.47924 -2.27664 0
M  V30 4418 C 413.614 -3.53037 -0.699479 0
M  V30 4419 C 413.222 -4.45223 0.498046 0
M  V30 4420 C 414.966 -4.04575 -1.28526 0
M  V30 4421 C 412.873 -5.91238 0.138383 0
M  V30 4422 H 411.803 -0.740911 -0.13988 0
M  V30 4423 H 414.454 -1.79936 0.359883 0
M  V30 4424 H 412.836 -3.6722 -1.48207 0
M  V30 4425 H 414.01 -4.42803 1.27522 0
M  V30 4426 H 412.325 -4.04226 0.999503 0
M  V30 4427 H 414.922 -5.11196 -1.56788 0
M  V30 4428 H 415.265 -3.5258 -2.21344 0
M  V30 4429 H 415.798 -3.93762 -0.565337 0
M  V30 4430 H 412.537 -6.47294 1.03398 0
M  V30 4431 H 412.057 -5.96768 -0.602374 0
M  V30 4432 H 413.736 -6.46413 -0.27553 0
M  V30 4433 N 413.868 0.0150385 -1.57593 0
M  V30 4434 C 415.284 0.370907 -1.5523 0
M  V30 4435 C 415.484 1.75735 -0.985882 0
M  V30 4436 O 414.54 2.44944 -0.613077 0
M  V30 4437 C 415.853 0.259908 -2.99575 0
M  V30 4438 C 417.401 0.335959 -3.11192 0
M  V30 4439 C 417.876 0.254253 -4.57294 0
M  V30 4440 N 419.367 0.312618 -4.62144 0
M  V30 4441 C 420.102 0.272505 -5.72752 0
M  V30 4442 N 419.598 0.183864 -6.92556 0
M  V30 4443 N 421.391 0.323267 -5.6117 0
M  V30 4444 H 413.542 -0.892104 -1.92757 0
M  V30 4445 H 415.805 -0.340563 -0.884715 0
M  V30 4446 H 415.511 -0.693403 -3.44797 0
M  V30 4447 H 415.385 1.048 -3.62349 0
M  V30 4448 H 417.772 1.27971 -2.65909 0
M  V30 4449 H 417.853 -0.481739 -2.51223 0
M  V30 4450 H 417.497 -0.685887 -5.03247 0
M  V30 4451 H 417.427 1.09024 -5.15191 0
M  V30 4452 H 419.918 0.38307 -3.75953 0
M  V30 4453 H 420.231 0.15874 -7.72637 0
M  V30 4454 H 418.576 0.149708 -6.94839 0
M  V30 4455 H 421.767 0.390607 -4.66467 0
M  V30 4456 H 421.94 0.288539 -6.47357 0
M  V30 4457 N 415.346 1.54954 0.287554 0
M  V30 4458 C 416.574 1.78881 1.03967 0
M  V30 4459 C 416.989 0.554894 1.80462 0
M  V30 4460 O 416.346 -0.475676 1.76192 0
M  V30 4461 C 416.397 3.00488 2.0097 0
M  V30 4462 O 416.118 4.19113 1.27577 0
M  V30 4463 C 417.619 3.36907 2.88112 0
M  V30 4464 H 414.839 0.596259 0.307761 0
M  V30 4465 H 417.383 2.01937 0.322749 0
M  V30 4466 H 415.538 2.79601 2.68145 0
M  V30 4467 H 415.952 4.87765 1.92835 0
M  V30 4468 H 417.426 4.25205 3.52001 0
M  V30 4469 H 417.903 2.55659 3.57121 0
M  V30 4470 H 418.509 3.60001 2.26449 0
M  V30 4471 N 416.824 -0.551391 1.4764 0
M  V30 4472 C 417.771 -1.65796 1.60563 0
M  V30 4473 C 418.741 -1.59932 0.448428 0
M  V30 4474 O 419.926 -1.78679 0.669222 0
M  V30 4475 C 417.066 -3.04108 1.63133 0
M  V30 4476 C 416.179 -3.20365 2.89811 0
M  V30 4477 C 415.314 -4.49109 2.8368 0
M  V30 4478 C 414.353 -4.58819 4.05156 0
M  V30 4479 N 413.49 -5.78926 3.97227 0
M  V30 4480 H 418.33 -1.54088 2.5507 0
M  V30 4481 H 415.867 -0.75052 1.26513 0
M  V30 4482 H 417.825 -3.84207 1.62606 0
M  V30 4483 H 416.455 -3.14637 0.721341 0
M  V30 4484 H 415.507 -2.33659 3.00179 0
M  V30 4485 H 416.819 -3.23402 3.79753 0
M  V30 4486 H 415.973 -5.37475 2.81434 0
M  V30 4487 H 414.712 -4.4856 1.91431 0
M  V30 4488 H 413.717 -3.68864 4.077 0
M  V30 4489 H 414.942 -4.61124 4.98539 0
M  V30 4490 H 412.888 -5.79314 3.07785 0
M  V30 4491 H 412.805 -5.83367 4.80853 0
M  V30 4492 H 414.073 -6.69637 3.99007 0
M  V30 4493 N 418.302 -1.35869 -0.798587 0
M  V30 4494 C 419.25 -1.29491 -1.93222 0
M  V30 4495 C 420.244 -0.18836 -1.6835 0
M  V30 4496 O 421.45 -0.354822 -1.76468 0
M  V30 4497 H 417.825 -0.402901 -0.63496 0
M  V30 4498 H 419.796 -2.25247 -1.9572 0
M  V30 4499 C 418.545 -1.09184 -3.30112 0
M  V30 4500 H 417.868 -1.93574 -3.49813 0
M  V30 4501 H 419.308 -1.08766 -4.09812 0
M  V30 4502 C 417.767 0.203959 -3.36282 0
M  V30 4503 O 418.297 1.19699 -3.83451 0
M  V30 4504 N 416.503 0.245488 -2.89561 0
M  V30 4505 H 416.05 -0.563223 -2.51367 0
M  V30 4506 H 416.008 1.11219 -2.94071 0
M  V30 4507 N 419.78 1.02168 -1.19998 0
M  V30 4508 C 421.027 1.75685 -1.00702 0
M  V30 4509 C 421.355 1.88947 0.461426 0
M  V30 4510 O 420.61 1.40832 1.35885 0
M  V30 4511 C 420.909 3.18081 -1.62969 0
M  V30 4512 C 420.575 3.24809 -3.12746 0
M  V30 4513 C 419.237 3.26352 -3.53621 0
M  V30 4514 C 421.589 3.23379 -4.08749 0
M  V30 4515 C 418.917 3.2413 -4.89036 0
M  V30 4516 C 421.269 3.22698 -5.44104 0
M  V30 4517 C 419.933 3.22542 -5.84399 0
M  V30 4518 H 419.203 0.642877 -0.368496 0
M  V30 4519 H 421.85 1.19865 -1.49348 0
M  V30 4520 H 420.155 3.77027 -1.06573 0
M  V30 4521 H 421.852 3.73648 -1.45561 0
M  V30 4522 H 418.442 3.2434 -2.80181 0
M  V30 4523 H 422.626 3.21361 -3.78207 0
M  V30 4524 H 417.882 3.22338 -5.19527 0
M  V30 4525 H 422.056 3.20543 -6.18244 0
M  V30 4526 H 419.683 3.20575 -6.89301 0
M  V30 4527 N 421.258 1.00505 1.21394 0
M  V30 4528 C 422.507 0.683159 1.89778 0
M  V30 4529 C 422.82 -0.789471 1.7896 0
M  V30 4530 O 424.026 -1.22344 2.42372 0
M  V30 4531 C 422.482 1.17146 3.40301 0
M  V30 4532 C 422.09 2.67017 3.5973 0
M  V30 4533 C 423.834 0.924461 4.14311 0
M  V30 4534 C 421.741 3.09387 5.04017 0
M  V30 4535 H 420.671 0.25183 0.710702 0
M  V30 4536 H 423.322 1.21622 1.37406 0
M  V30 4537 H 421.704 0.566451 3.91928 0
M  V30 4538 H 422.878 3.32968 3.18542 0
M  V30 4539 H 421.193 2.89732 2.99073 0
M  V30 4540 H 423.79 1.21658 5.20676 0
M  V30 4541 H 424.133 -0.139286 4.16067 0
M  V30 4542 H 424.666 1.49226 3.6875 0
M  V30 4543 H 421.405 4.14989 5.07409 0
M  V30 4544 H 420.925 2.48149 5.46061 0
M  V30 4545 H 422.604 3.01371 5.72525 0
M  V30 4546 N 422.737 -1.36956 0.779787 0
M  V30 4547 C 423.984 -1.99491 0.347766 0
M  V30 4548 C 424.312 -1.61898 -1.07793 0
M  V30 4549 O 423.567 -0.86071 -1.75756 0
M  V30 4550 C 423.866 -3.54585 0.447686 0
M  V30 4551 C 423.532 -4.1197 1.83279 0
M  V30 4552 C 422.194 -4.27356 2.2118 0
M  V30 4553 C 424.546 -4.43354 2.74019 0
M  V30 4554 C 421.874 -4.71432 3.4924 0
M  V30 4555 C 424.226 -4.88858 4.01497 0
M  V30 4556 C 422.89 -5.0245 4.39432 0
M  V30 4557 H 422.16 -0.729991 0.127257 0
M  V30 4558 H 424.807 -1.63599 0.995376 0
M  V30 4559 H 423.112 -3.90773 -0.283447 0
M  V30 4560 H 424.809 -4.00888 0.0945948 0
M  V30 4561 H 421.399 -4.00428 1.52825 0
M  V30 4562 H 425.583 -4.31045 2.45995 0
M  V30 4563 H 420.839 -4.80141 3.78516 0
M  V30 4564 H 425.013 -5.12108 4.71931 0
M  V30 4565 H 422.64 -5.36362 5.38721 0
M  V30 4566 N 424.215 -0.530993 -1.48385 0
M  V30 4567 C 425.631 -0.188919 -1.58478 0
M  V30 4568 C 425.831 1.30786 -1.53288 0
M  V30 4569 O 424.887 2.08619 -1.42248 0
M  V30 4570 C 426.2 -0.792343 -2.90073 0
M  V30 4571 C 427.748 -0.76117 -3.03604 0
M  V30 4572 C 428.223 -1.34319 -4.37861 0
M  V30 4573 N 429.714 -1.3052 -4.44431 0
M  V30 4574 C 430.449 -1.72543 -5.46824 0
M  V30 4575 N 429.945 -2.22299 -6.56167 0
M  V30 4576 N 431.738 -1.63773 -5.37712 0
M  V30 4577 H 423.889 -1.50377 -1.50002 0
M  V30 4578 H 426.152 -0.625559 -0.712306 0
M  V30 4579 H 425.858 -1.84323 -2.99529 0
M  V30 4580 H 425.732 -0.270026 -3.76232 0
M  V30 4581 H 428.119 0.280957 -2.93759 0
M  V30 4582 H 428.2 -1.32097 -2.19053 0
M  V30 4583 H 427.844 -2.38425 -4.4846 0
M  V30 4584 H 427.774 -0.759064 -5.21101 0
M  V30 4585 H 430.265 -0.940973 -3.65997 0
M  V30 4586 H 430.578 -2.52356 -7.30436 0
M  V30 4587 H 428.923 -2.26293 -6.57127 0
M  V30 4588 H 432.114 -1.24698 -4.51185 0
M  V30 4589 H 432.287 -1.96844 -6.17379 0
M  V30 4590 N 425.693 1.55336 -0.266172 0
M  V30 4591 C 426.921 2.03801 0.356756 0
M  V30 4592 C 427.336 1.14485 1.50129 0
M  V30 4593 O 426.693 0.163121 1.8177 0
M  V30 4594 C 426.744 3.51455 0.846281 0
M  V30 4595 O 426.465 4.37371 -0.252663 0
M  V30 4596 C 427.966 4.15767 1.53794 0
M  V30 4597 H 425.186 0.665906 0.0825218 0
M  V30 4598 H 427.73 2.00636 -0.39566 0
M  V30 4599 H 425.885 3.55092 1.54881 0
M  V30 4600 H 426.299 5.24358 0.122173 0
M  V30 4601 H 427.773 5.20714 1.83198 0
M  V30 4602 H 428.25 3.63404 2.46646 0
M  V30 4603 H 428.856 4.16107 0.879488 0
M  V30 4604 N 427.171 -0.0066808 1.57599 0
M  V30 4605 C 428.118 -1.00024 2.08 0
M  V30 4606 C 429.088 -1.34549 0.973943 0
M  V30 4607 O 430.273 -1.44502 1.24595 0
M  V30 4608 C 427.413 -2.2891 2.58252 0
M  V30 4609 C 426.526 -2.00346 3.82734 0
M  V30 4610 C 425.661 -3.23265 4.21513 0
M  V30 4611 C 424.7 -2.90357 5.3885 0
M  V30 4612 N 423.837 -4.05793 5.72954 0
M  V30 4613 H 428.677 -0.563499 2.92624 0
M  V30 4614 H 426.214 -0.266592 1.44664 0
M  V30 4615 H 428.172 -3.04247 2.85464 0
M  V30 4616 H 426.802 -2.70265 1.76512 0
M  V30 4617 H 425.854 -1.15406 3.62471 0
M  V30 4618 H 427.166 -1.72086 4.68175 0
M  V30 4619 H 426.32 -4.06953 4.49971 0
M  V30 4620 H 425.059 -3.54657 3.34768 0
M  V30 4621 H 424.064 -2.05075 5.10122 0
M  V30 4622 H 425.289 -2.60219 6.27266 0
M  V30 4623 H 423.235 -4.37094 4.89167 0
M  V30 4624 H 423.152 -3.81034 6.52954 0
M  V30 4625 H 424.42 -4.90289 6.06001 0
M  V30 4626 N 428.649 -1.55105 -0.279332 0
M  V30 4627 C 429.599 -1.83937 -1.34727 0
M  V30 4628 C 430.583 -0.69785 -1.44979 0
M  V30 4629 O 431.775 -0.95904 -1.48766 0
M  V30 4630 C 428.904 -2.1092 -2.70864 0
M  V30 4631 C 427.99 -3.31314 -2.64748 0
M  V30 4632 N 428.381 -4.51371 -2.2825 0
M  V30 4633 C 426.679 -3.33777 -2.95819 0
M  V30 4634 C 427.38 -5.33447 -2.31969 0
M  V30 4635 N 426.356 -4.71697 -2.7019 0
M  V30 4636 H 430.158 -2.74309 -1.05506 0
M  V30 4637 H 427.672 -1.54896 -0.487959 0
M  V30 4638 H 429.669 -2.2973 -3.47893 0
M  V30 4639 H 428.329 -1.21828 -3.00979 0
M  V30 4640 H 429.34 -4.77584 -2.00335 0
M  V30 4641 H 426.017 -2.54858 -3.30687 0
M  V30 4642 H 427.407 -6.39424 -2.06365 0
M  V30 4643 N 430.127 0.543554 -1.4793 0
M  V30 4644 C 431.074 1.64942 -1.6144 0
M  V30 4645 C 432.044 1.59692 -0.456903 0
M  V30 4646 O 433.229 1.78321 -0.678688 0
M  V30 4647 C 430.369 3.03238 -1.64744 0
M  V30 4648 C 429.482 3.18823 -2.91506 0
M  V30 4649 C 428.617 4.47599 -2.86057 0
M  V30 4650 C 427.656 4.56664 -4.07584 0
M  V30 4651 N 426.793 5.76811 -4.00292 0
M  V30 4652 H 431.633 1.52733 -2.55884 0
M  V30 4653 H 429.17 0.7438 -1.2691 0
M  V30 4654 H 431.128 3.83339 -1.64641 0
M  V30 4655 H 429.758 3.1425 -0.738017 0
M  V30 4656 H 428.81 2.32064 -3.01414 0
M  V30 4657 H 430.122 3.21384 -3.81463 0
M  V30 4658 H 429.276 5.35975 -2.84281 0
M  V30 4659 H 428.015 4.47538 -1.93807 0
M  V30 4660 H 427.02 3.66697 -4.09651 0
M  V30 4661 H 428.245 4.58474 -5.00978 0
M  V30 4662 H 426.191 5.77673 -3.10853 0
M  V30 4663 H 426.108 5.80808 -4.8394 0
M  V30 4664 H 427.376 6.67512 -4.02553 0
M  V30 4665 N 431.605 1.3629 0.791371 0
M  V30 4666 C 432.535 1.33137 1.91825 0
M  V30 4667 C 433.516 0.203168 1.68882 0
M  V30 4668 O 434.701 0.400509 1.90025 0
M  V30 4669 C 431.831 1.11793 3.28816 0
M  V30 4670 C 430.785 2.21417 3.66277 0
M  V30 4671 C 430.111 1.85218 5.01596 0
M  V30 4672 C 431.411 3.63489 3.75064 0
M  V30 4673 H 433.105 2.2743 1.9472 0
M  V30 4674 H 430.651 1.09479 0.935437 0
M  V30 4675 H 432.604 1.08222 4.07266 0
M  V30 4676 H 431.328 0.139501 3.26302 0
M  V30 4677 H 429.987 2.2411 2.90121 0
M  V30 4678 H 429.635 0.859544 4.95602 0
M  V30 4679 H 429.335 2.58611 5.27631 0
M  V30 4680 H 430.859 1.832 5.82469 0
M  V30 4681 H 432.273 3.63034 4.43711 0
M  V30 4682 H 430.67 4.35771 4.12582 0
M  V30 4683 H 431.74 3.98536 2.76219 0
M  V30 4684 N 433.083 -1.0153 1.20538 0
M  V30 4685 C 434.36 -1.72327 0.925343 0
M  V30 4686 C 434.74 -2.03383 -0.565547 0
M  V30 4687 O 434.088 -1.69934 -1.52757 0
M  V30 4688 C 434.298 -2.9902 1.79967 0
M  V30 4689 C 435.646 -3.72258 2.04228 0
M  V30 4690 O 436.67 -3.08979 1.77231 0
M  V30 4691 O 435.529 -4.86053 2.4983 0
M  V30 4692 H 432.623 -0.751099 0.346092 0
M  V30 4693 H 435.169 -1.07366 1.31417 0
M  V30 4694 H 433.941 -2.72402 2.80915 0
M  V30 4695 H 433.564 -3.71721 1.41099 0
M  V30 4696 N 434.561 -1.01147 -1.20859 0
M  V30 4697 C 435.808 -0.697865 -1.90095 0
M  V30 4698 C 436.136 0.772014 -1.78522 0
M  V30 4699 O 435.391 1.57595 -1.16027 0
M  V30 4700 C 435.69 -1.0727 -3.40922 0
M  V30 4701 C 435.356 -2.53792 -3.72693 0
M  V30 4702 C 434.018 -2.93829 -3.81075 0
M  V30 4703 C 436.37 -3.48674 -3.87397 0
M  V30 4704 C 433.698 -4.27696 -4.01613 0
M  V30 4705 C 436.05 -4.82223 -4.09444 0
M  V30 4706 C 434.714 -5.21973 -4.16054 0
M  V30 4707 H 433.984 -0.255367 -0.695607 0
M  V30 4708 H 436.631 -1.27111 -1.43231 0
M  V30 4709 H 434.936 -0.417799 -3.89566 0
M  V30 4710 H 436.633 -0.807818 -3.92779 0
M  V30 4711 H 433.223 -2.21768 -3.66765 0
M  V30 4712 H 437.407 -3.18904 -3.80281 0
M  V30 4713 H 432.663 -4.58055 -4.04964 0
M  V30 4714 H 436.837 -5.55672 -4.19763 0
M  V30 4715 H 434.464 -6.25717 -4.31721 0
M  V30 4716 N 436.039 1.36541 -0.78704 0
M  V30 4717 C 437.267 2.03561 -0.370199 0
M  V30 4718 C 437.682 1.59347 1.01263 0
M  V30 4719 O 437.039 0.781781 1.64907 0
M  V30 4720 C 437.09 3.59033 -0.421614 0
M  V30 4721 O 436.811 4.01634 -1.7499 0
M  V30 4722 C 438.312 4.433 0.00489763 0
M  V30 4723 H 435.532 0.653346 -0.152904 0
M  V30 4724 H 438.076 1.74566 -1.06522 0
M  V30 4725 H 436.231 3.86746 0.224971 0
M  V30 4726 H 436.645 4.96217 -1.69909 0
M  V30 4727 H 438.119 5.51939 -0.0822184 0
M  V30 4728 H 438.596 4.26285 1.05723 0
M  V30 4729 H 439.202 4.20843 -0.614085 0
M  V30 4730 N 437.518 0.538854 1.48102 0
M  V30 4731 C 438.929 0.100679 1.86428 0
M  V30 4732 C 439.28 -1.32447 1.44749 0
M  V30 4733 O 438.405 -1.99339 0.842199 0
M  V30 4734 C 439 0.175933 3.38343 0
M  V30 4735 C 437.559 -0.207098 3.7583 0
M  V30 4736 C 436.706 0.531741 2.72154 0
M  V30 4737 H 439.657 0.749614 1.3988 0
M  V30 4738 H 439.678 -0.610144 3.75576 0
M  V30 4739 H 439.19 1.21328 3.68648 0
M  V30 4740 H 437.291 -1.24626 3.5114 0
M  V30 4741 H 437.404 0.138687 4.78899 0
M  V30 4742 H 435.768 -0.0230462 2.5469 0
M  V30 4743 H 436.551 1.56989 3.05302 0
M  V30 4744 N 438.996 -1.55193 0.274407 0
M  V30 4745 C 440.245 -1.98758 -0.343213 0
M  V30 4746 C 440.558 -1.16624 -1.5703 0
M  V30 4747 O 441.764 -1.5033 -2.26082 0
M  V30 4748 C 440.22 -3.53759 -0.661996 0
M  V30 4749 C 439.828 -4.4467 0.54524 0
M  V30 4750 C 441.572 -4.05916 -1.24228 0
M  V30 4751 C 439.479 -5.91058 0.201084 0
M  V30 4752 H 438.409 -0.742353 -0.132014 0
M  V30 4753 H 441.06 -1.79545 0.378948 0
M  V30 4754 H 439.442 -3.68772 -1.44304 0
M  V30 4755 H 440.616 -4.41426 1.32212 0
M  V30 4756 H 438.931 -4.03143 1.04232 0
M  V30 4757 H 441.528 -5.12831 -1.51357 0
M  V30 4758 H 441.871 -3.54908 -2.17592 0
M  V30 4759 H 442.404 -3.9434 -0.523542 0
M  V30 4760 H 439.143 -6.46161 1.10258 0
M  V30 4761 H 438.663 -5.97373 -0.539045 0
M  V30 4762 H 440.342 -6.46669 -0.206954 0
M  V30 4763 N 440.474 -0.00167713 -1.576 0
M  V30 4764 C 441.722 0.681471 -1.90264 0
M  V30 4765 C 442.043 1.7422 -0.875924 0
M  V30 4766 O 441.313 1.95709 0.0864412 0
M  V30 4767 H 439.893 0.254696 -0.702239 0
M  V30 4768 H 442.555 -0.0429996 -1.94853 0
M  V30 4769 H 441.651 1.15166 -2.90075 0
M  V30 4770 N 441.952 1.55251 0.271103 0
M  V30 4771 C 443.192 1.77698 1.01008 0
M  V30 4772 C 443.556 0.567246 1.83429 0
M  V30 4773 O 444.757 0.670013 2.60316 0
M  V30 4774 C 443.028 3.04715 1.86772 0
M  V30 4775 S 444.587 3.48289 2.66909 0
M  V30 4776 H 441.405 0.624343 0.340172 0
M  V30 4777 H 444.007 1.9348 0.280315 0
M  V30 4778 H 442.711 3.90853 1.25149 0
M  V30 4779 H 442.242 2.91604 2.64066 0
M  V30 4780 H 444.257 3.07712 3.89266 0
M  V30 4781 N 443.43 -0.535701 1.48216 0
M  V30 4782 C 444.707 -1.29683 1.46429 0
M  V30 4783 C 445.087 -2.10391 0.172852 0
M  V30 4784 O 444.435 -2.12282 -0.845488 0
M  V30 4785 C 444.645 -2.18313 2.72287 0
M  V30 4786 C 445.993 -2.78639 3.20383 0
M  V30 4787 O 447.017 -2.28604 2.73164 0
M  V30 4788 O 445.876 -3.69636 4.02531 0
M  V30 4789 H 442.97 -0.585026 0.584529 0
M  V30 4790 H 445.516 -0.552827 1.60443 0
M  V30 4791 H 444.288 -1.58421 3.57797 0
M  V30 4792 H 443.911 -2.99971 2.60966 0
M  V30 4793 N 444.908 -1.36708 -0.784132 0
M  V30 4794 C 445.871 -1.31307 -1.87859 0
M  V30 4795 C 446.871 -0.219654 -1.59293 0
M  V30 4796 O 448.061 -0.47476 -1.67606 0
M  V30 4797 C 445.193 -1.03679 -3.24751 0
M  V30 4798 H 446.386 -2.28647 -1.94064 0
M  V30 4799 H 443.939 -1.21558 -0.98252 0
M  V30 4800 H 444.674 -0.0681936 -3.24228 0
M  V30 4801 H 444.459 -1.82811 -3.46876 0
M  V30 4802 H 445.949 -1.02518 -4.04821 0
M  V30 4803 N 446.386 1.0089 -1.21074 0
M  V30 4804 C 447.333 2.09588 -0.966512 0
M  V30 4805 C 448.303 1.65761 0.106089 0
M  V30 4806 O 449.488 1.90758 -0.0402287 0
M  V30 4807 C 446.628 3.40958 -0.533058 0
M  V30 4808 C 445.741 3.9822 -1.67467 0
M  V30 4809 C 444.876 5.17682 -1.19076 0
M  V30 4810 C 443.915 5.67043 -2.30496 0
M  V30 4811 N 443.052 6.77759 -1.83267 0
M  V30 4812 H 447.892 2.29815 -1.89708 0
M  V30 4813 H 445.429 1.12689 -0.945489 0
M  V30 4814 H 447.387 4.1637 -0.263019 0
M  V30 4815 H 446.017 3.20781 0.360505 0
M  V30 4816 H 445.069 3.1983 -2.05944 0
M  V30 4817 H 446.381 4.3085 -2.51336 0
M  V30 4818 H 445.535 6.00326 -0.877151 0
M  V30 4819 H 444.274 4.86635 -0.322066 0
M  V30 4820 H 443.279 4.82999 -2.62664 0
M  V30 4821 H 444.504 6.00121 -3.17855 0
M  V30 4822 H 442.45 6.48527 -0.987356 0
M  V30 4823 H 442.367 7.09624 -2.60711 0
M  V30 4824 H 443.635 7.63949 -1.54928 0
M  V30 4825 N 447.864 1.01787 1.20321 0
M  V30 4826 C 449.112 0.706538 1.89347 0
M  V30 4827 C 449.433 -0.766289 1.79313 0
M  V30 4828 O 448.703 -1.55126 1.19635 0
M  V30 4829 H 447.283 0.258348 0.700903 0
M  V30 4830 H 449.945 1.28974 1.46122 0
M  V30 4831 H 449.041 0.991066 2.95946 0
M  V30 4832 N 449.342 -1.36122 0.79427 0
M  V30 4833 C 450.758 -1.5232 0.476525 0
M  V30 4834 C 450.958 -1.74685 -1.00436 0
M  V30 4835 O 450.014 -1.78115 -1.78973 0
M  V30 4836 C 451.327 -2.70607 1.31119 0
M  V30 4837 C 452.875 -2.8448 1.30537 0
M  V30 4838 C 453.35 -4.05778 2.12387 0
M  V30 4839 N 454.841 -4.12933 2.09859 0
M  V30 4840 C 455.576 -5.05876 2.69957 0
M  V30 4841 N 455.072 -6.04232 3.38934 0
M  V30 4842 N 456.865 -4.98528 2.59665 0
M  V30 4843 H 449.016 -1.1986 1.75349 0
M  V30 4844 H 451.279 -0.585418 0.745647 0
M  V30 4845 H 450.985 -2.60619 2.36158 0
M  V30 4846 H 450.859 -3.64888 0.955843 0
M  V30 4847 H 453.246 -2.93927 0.262876 0
M  V30 4848 H 453.327 -1.91093 1.70051 0
M  V30 4849 H 452.971 -3.97092 3.1667 0
M  V30 4850 H 452.901 -4.98323 1.70242 0
M  V30 4851 H 455.392 -3.42515 1.59662 0
M  V30 4852 H 455.705 -6.71724 3.82109 0
M  V30 4853 H 454.05 -6.04443 3.43036 0
M  V30 4854 H 457.241 -4.20641 2.05375 0
M  V30 4855 H 457.414 -5.70773 3.06793 0
M  V30 4856 N 450.82 -0.546701 -1.47814 0
M  V30 4857 C 452.069 -0.0166497 -2.01693 0
M  V30 4858 C 452.382 1.33721 -1.42752 0
M  V30 4859 O 453.588 1.95658 -1.8823 0
M  V30 4860 C 452.044 0.0206769 -3.59894 0
M  V30 4861 C 451.652 -1.3293 -4.27824 0
M  V30 4862 C 453.396 0.498674 -4.21561 0
M  V30 4863 C 451.303 -1.25165 -5.78003 0
M  V30 4864 H 450.233 -0.0024541 -0.753996 0
M  V30 4865 H 452.884 -0.692984 -1.69912 0
M  V30 4866 H 451.266 0.76244 -3.88591 0
M  V30 4867 H 452.44 -2.08795 -4.10781 0
M  V30 4868 H 450.755 -1.74438 -3.78101 0
M  V30 4869 H 453.352 0.575 -5.31599 0
M  V30 4870 H 453.695 1.5083 -3.88016 0
M  V30 4871 H 454.228 -0.18791 -3.97356 0
M  V30 4872 H 450.967 -2.23695 -6.1615 0
M  V30 4873 H 450.487 -0.53464 -5.97412 0
M  V30 4874 H 452.166 -0.949299 -6.39998 0
M  V30 4875 N 452.299 1.55045 -0.282633 0
M  V30 4876 C 453.545 2.00056 0.332481 0
M  V30 4877 C 453.878 1.1708 1.54939 0
M  V30 4878 O 453.153 0.2427 1.9298 0
M  V30 4879 C 453.436 3.53086 0.70725 0
M  V30 4880 C 453.289 4.46813 -0.517521 0
M  V30 4881 C 454.608 4.12245 1.54084 0
M  V30 4882 H 451.727 0.727268 0.119373 0
M  V30 4883 H 454.369 1.85932 -0.391076 0
M  V30 4884 H 452.519 3.65253 1.32372 0
M  V30 4885 H 454.191 4.46579 -1.15607 0
M  V30 4886 H 452.434 4.18163 -1.1542 0
M  V30 4887 H 453.105 5.51595 -0.211426 0
M  V30 4888 H 455.581 4.03401 1.02013 0
M  V30 4889 H 454.457 5.19515 1.77186 0
M  V30 4890 H 454.718 3.62951 2.52427 0
M  V30 4891 N 453.777 0.010035 1.57597 0
M  V30 4892 C 454.707 -0.976857 2.12084 0
M  V30 4893 C 455.688 -1.35191 1.03235 0
M  V30 4894 O 456.873 -1.43389 1.3097 0
M  V30 4895 C 454.003 -2.26548 2.63236 0
M  V30 4896 C 452.957 -2.03175 3.76701 0
M  V30 4897 C 452.283 -3.38138 4.14206 0
M  V30 4898 C 453.583 -1.38625 5.03568 0
M  V30 4899 H 455.277 -0.523145 2.94794 0
M  V30 4900 H 452.823 -0.250195 1.4181 0
M  V30 4901 H 454.776 -2.95952 2.99984 0
M  V30 4902 H 453.5 -2.74051 1.77661 0
M  V30 4903 H 452.159 -1.36195 3.40362 0
M  V30 4904 H 451.807 -3.83363 3.25641 0
M  V30 4905 H 451.507 -3.23312 4.90656 0
M  V30 4906 H 453.031 -4.08841 4.53521 0
M  V30 4907 H 454.445 -1.98 5.38023 0
M  V30 4908 H 452.842 -1.34256 5.84889 0
M  V30 4909 H 453.912 -0.356722 4.83586 0
M  V30 4910 N 455.255 -1.55392 -0.262866 0
M  V30 4911 C 456.503 -1.76127 -0.991147 0
M  V30 4912 C 456.824 -0.571083 -1.8645 0
M  V30 4913 O 456.094 0.413698 -1.91482 0
M  V30 4914 H 454.674 -0.649528 -0.368948 0
M  V30 4915 H 457.336 -1.9281 -0.284655 0
M  V30 4916 H 456.432 -2.6663 -1.62219 0
M  V30 4917 N 456.733 0.527833 -1.48498 0
M  V30 4918 C 457.963 1.30633 -1.60058 0
M  V30 4919 C 458.371 1.87394 -0.260786 0
M  V30 4920 O 457.714 1.67227 0.760317 0
M  V30 4921 C 457.776 2.49361 -2.58958 0
M  V30 4922 C 457.44 2.13671 -4.03972 0
M  V30 4923 C 458.437 1.69217 -4.91591 0
M  V30 4924 C 456.122 2.24129 -4.49524 0
M  V30 4925 C 458.116 1.35689 -6.2279 0
M  V30 4926 C 455.803 1.90212 -5.80743 0
M  V30 4927 C 456.801 1.46063 -6.67199 0
M  V30 4928 O 456.489 1.12593 -7.95976 0
M  V30 4929 H 456.221 0.403444 -0.54241 0
M  V30 4930 H 458.775 0.643233 -1.95068 0
M  V30 4931 H 457.005 3.18659 -2.19073 0
M  V30 4932 H 458.694 3.11421 -2.6033 0
M  V30 4933 H 459.46 1.60607 -4.57636 0
M  V30 4934 H 455.339 2.57447 -3.82416 0
M  V30 4935 H 458.883 1.01157 -6.90227 0
M  V30 4936 H 454.78 1.98464 -6.14233 0
M  V30 4937 H 455.548 1.25972 -8.08748 0
M  V30 4938 N 458.211 1.37122 0.776871 0
M  V30 4939 C 459.439 1.3523 1.5659 0
M  V30 4940 C 459.854 -0.0635518 1.88693 0
M  V30 4941 O 459.211 -1.02394 1.51069 0
M  V30 4942 C 459.262 2.18583 2.8793 0
M  V30 4943 O 458.983 3.5465 2.57206 0
M  V30 4944 C 460.484 2.24612 3.82183 0
M  V30 4945 H 457.704 0.4634 0.485285 0
M  V30 4946 H 460.248 1.80392 0.963266 0
M  V30 4947 H 458.403 1.76943 3.4463 0
M  V30 4948 H 458.817 3.98286 3.41275 0
M  V30 4949 H 460.291 2.87267 4.71361 0
M  V30 4950 H 460.768 1.25309 4.20944 0
M  V30 4951 H 461.374 2.66543 3.31414 0
M  V30 4952 N 459.689 -1.00246 1.21608 0
M  V30 4953 C 460.599 -2.12515 0.993709 0
M  V30 4954 C 461.615 -1.73913 -0.0549939 0
M  V30 4955 O 462.791 -2.00943 0.135619 0
M  V30 4956 C 459.856 -3.42083 0.563953 0
M  V30 4957 C 458.917 -3.94843 1.68516 0
M  V30 4958 C 458.15 -5.18226 1.27582 0
M  V30 4959 O 458.373 -5.70201 0.150506 0
M  V30 4960 O 457.307 -5.64497 2.0887 0
M  V30 4961 H 461.133 -2.34152 1.93407 0
M  V30 4962 H 458.718 -1.10891 1.00118 0
M  V30 4963 H 460.6 -4.20073 0.334194 0
M  V30 4964 H 459.275 -3.21828 -0.347665 0
M  V30 4965 H 458.182 -3.18068 1.96935 0
M  V30 4966 H 459.515 -4.19512 2.5743 0
M  V30 4967 N 461.167 -1.02423 -1.1978 0
M  V30 4968 C 462.13 -0.605703 -2.21052 0
M  V30 4969 C 463.13 0.328209 -1.57415 0
M  V30 4970 O 464.32 0.115853 -1.73814 0
M  V30 4971 C 461.452 0.114366 -3.40708 0
M  V30 4972 H 462.645 -1.5017 -2.59594 0
M  V30 4973 H 460.198 -0.814888 -1.33376 0
M  V30 4974 H 460.933 1.02492 -3.07678 0
M  V30 4975 H 460.718 -0.556641 -3.88129 0
M  V30 4976 H 462.208 0.394272 -4.15735 0
M  V30 4977 N 462.645 1.35699 -0.801477 0
M  V30 4978 C 463.555 2.33661 -0.209691 0
M  V30 4979 C 464.571 1.6162 0.644591 0
M  V30 4980 O 465.747 1.93529 0.557545 0
M  V30 4981 C 462.812 3.40816 0.636033 0
M  V30 4982 C 461.873 4.28639 -0.238147 0
M  V30 4983 C 461.106 5.30676 0.567307 0
M  V30 4984 O 461.329 5.41174 1.8024 0
M  V30 4985 O 460.263 6.01887 -0.0391336 0
M  V30 4986 H 464.089 2.8606 -1.01996 0
M  V30 4987 H 461.674 1.38379 -0.563164 0
M  V30 4988 H 463.556 4.06301 1.11791 0
M  V30 4989 H 462.231 2.90696 1.42399 0
M  V30 4990 H 461.138 3.66152 -0.767044 0
M  V30 4991 H 462.471 4.82143 -0.989915 0
M  V30 4992 N 464.123 0.554532 1.47522 0
M  V30 4993 C 465.053 -0.182974 2.32782 0
M  V30 4994 C 466.034 -0.911377 1.43624 0
M  V30 4995 O 467.219 -0.892366 1.72483 0
M  V30 4996 C 464.349 -1.21513 3.25349 0
M  V30 4997 C 463.303 -0.603355 4.23726 0
M  V30 4998 C 462.629 -1.73995 5.05598 0
M  V30 4999 C 463.929 0.441121 5.20434 0
M  V30 5000 H 465.623 0.52882 2.94693 0
M  V30 5001 H 463.169 0.255759 1.41711 0
M  V30 5002 H 465.122 -1.73922 3.83835 0
M  V30 5003 H 463.846 -1.95683 2.61487 0
M  V30 5004 H 462.505 -0.10059 3.66462 0
M  V30 5005 H 462.153 -2.47063 4.38143 0
M  V30 5006 H 461.853 -1.3364 5.72201 0
M  V30 5007 H 463.377 -2.26735 5.66942 0
M  V30 5008 H 464.791 0.00319931 5.733 0
M  V30 5009 H 463.188 0.763402 5.95224 0
M  V30 5010 H 464.258 1.33799 4.66075 0
M  V30 5011 N 465.601 -1.54893 0.290851 0
M  V30 5012 C 466.841 -2.01842 -0.322388 0
M  V30 5013 C 467.205 -1.17477 -1.51865 0
M  V30 5014 O 468.406 -1.54077 -2.20258 0
M  V30 5015 C 466.677 -3.50874 -0.679844 0
M  V30 5016 S 468.236 -4.19796 -1.27739 0
M  V30 5017 H 465.054 -0.704005 -0.0994866 0
M  V30 5018 H 467.656 -1.91015 0.416358 0
M  V30 5019 H 466.36 -4.09915 0.199435 0
M  V30 5020 H 465.891 -3.65717 -1.44964 0
M  V30 5021 H 467.906 -4.24729 -2.56554 0
M  V30 5022 N 467.08 -0.0183926 -1.57589 0
M  V30 5023 C 468.308 0.673046 -1.95647 0
M  V30 5024 C 468.723 1.66275 -0.894312 0
M  V30 5025 O 468.08 1.82072 0.124975 0
M  V30 5026 C 468.131 1.38884 -3.33756 0
M  V30 5027 O 467.852 0.438806 -4.35897 0
M  V30 5028 C 469.353 2.1731 -3.86383 0
M  V30 5029 H 466.573 0.186292 -0.644621 0
M  V30 5030 H 469.117 -0.0749748 -2.04363 0
M  V30 5031 H 467.272 2.08835 -3.26293 0
M  V30 5032 H 467.686 0.945869 -5.15901 0
M  V30 5033 H 469.16 2.62863 -4.85394 0
M  V30 5034 H 469.637 3.00764 -3.20059 0
M  V30 5035 H 470.243 1.52339 -3.97081 0
M  V30 5036 N 468.558 1.5553 0.254621 0
M  V30 5037 C 469.974 1.4778 0.602753 0
M  V30 5038 C 470.174 0.707047 1.88688 0
M  V30 5039 O 469.23 0.233288 2.5142 0
M  V30 5040 C 470.543 2.92133 0.712648 0
M  V30 5041 C 472.091 3.02458 0.805488 0
M  V30 5042 C 472.566 4.48102 0.947009 0
M  V30 5043 N 474.057 4.52008 1.01207 0
M  V30 5044 C 474.792 5.61939 1.1407 0
M  V30 5045 N 474.288 6.81697 1.23536 0
M  V30 5046 N 476.081 5.49719 1.17325 0
M  V30 5047 H 468.232 2.04085 -0.588463 0
M  V30 5048 H 470.495 0.926229 -0.202001 0
M  V30 5049 H 470.201 3.51332 -0.160766 0
M  V30 5050 H 470.075 3.42187 1.58707 0
M  V30 5051 H 472.462 2.43344 1.66936 0
M  V30 5052 H 472.543 2.55627 -0.0939266 0
M  V30 5053 H 472.187 5.07824 0.087725 0
M  V30 5054 H 472.117 4.92607 1.86135 0
M  V30 5055 H 474.608 3.65749 0.950577 0
M  V30 5056 H 474.921 7.61228 1.33236 0
M  V30 5057 H 473.266 6.84473 1.20508 0
M  V30 5058 H 476.457 4.55095 1.09573 0
M  V30 5059 H 476.63 6.35432 1.27005 0
M  V30 5060 N 470.036 -0.519951 1.48776 0
M  V30 5061 C 471.284 -1.2727 1.56993 0
M  V30 5062 C 471.605 -1.9339 0.25004 0
M  V30 5063 O 470.875 -1.81822 -0.729216 0
M  V30 5064 H 469.455 -0.472732 0.578389 0
M  V30 5065 H 472.117 -0.604234 1.85297 0
M  V30 5066 H 471.213 -2.04669 2.3562 0
M  V30 5067 N 471.514 -1.37532 -0.769588 0
M  V30 5068 C 472.739 -1.36231 -1.56384 0
M  V30 5069 C 473.164 0.0495849 -1.88035 0
M  V30 5070 O 472.522 1.02723 -1.49391 0
M  V30 5071 C 472.57 -2.20986 -2.84952 0
M  V30 5072 O 471.674 -1.61597 -3.79421 0
M  V30 5073 H 471.015 -0.465387 -0.473615 0
M  V30 5074 H 473.545 -1.81085 -0.952342 0
M  V30 5075 H 473.555 -2.34277 -3.34034 0
M  V30 5076 H 472.23 -3.23612 -2.61243 0
M  V30 5077 H 470.807 -1.57359 -3.38072 0
M  V30 5078 N 472.992 0.995999 -1.22138 0
M  V30 5079 C 474.24 1.73167 -1.042 0
M  V30 5080 C 474.561 1.90329 0.42423 0
M  V30 5081 O 473.831 1.4607 1.30539 0
M  V30 5082 H 472.411 0.641593 -0.38258 0
M  V30 5083 H 475.073 1.19974 -1.53598 0
M  V30 5084 H 474.169 2.72734 -1.51731 0
M  V30 5085 N 474.47 1.03057 1.19235 0
M  V30 5086 C 475.7 0.746613 1.92638 0
M  V30 5087 C 476.108 -0.698708 1.75826 0
M  V30 5088 O 475.451 -1.487 1.07861 0
M  V30 5089 C 475.513 1.02024 3.44719 0
M  V30 5090 C 475.177 2.45745 3.85303 0
M  V30 5091 C 476.174 3.43887 3.8992 0
M  V30 5092 C 473.859 2.8019 4.16892 0
M  V30 5093 C 475.853 4.74529 4.2556 0
M  V30 5094 C 473.54 4.1104 4.52205 0
M  V30 5095 C 474.538 5.0802 4.56513 0
M  V30 5096 O 474.226 6.36527 4.91008 0
M  V30 5097 H 473.958 0.272401 0.618687 0
M  V30 5098 H 476.512 1.37853 1.52269 0
M  V30 5099 H 474.742 0.331184 3.85279 0
M  V30 5100 H 476.431 0.725677 3.9936 0
M  V30 5101 H 477.197 3.18614 3.65664 0
M  V30 5102 H 473.076 2.05382 4.12722 0
M  V30 5103 H 476.62 5.50222 4.28838 0
M  V30 5104 H 472.517 4.36086 4.7592 0
M  V30 5105 H 473.285 6.41025 5.08949 0
M  V30 5106 N 475.948 -1.35272 0.808662 0
M  V30 5107 C 476.88 -2.28507 0.178149 0
M  V30 5108 C 477.893 -1.50377 -0.623754 0
M  V30 5109 O 479.082 -1.72583 -0.455774 0
M  V30 5110 C 476.182 -3.30038 -0.769959 0
M  V30 5111 C 475.355 -4.37398 -0.0139749 0
M  V30 5112 C 474.414 -5.18775 -0.880875 0
M  V30 5113 O 473.44 -5.68236 -0.331059 0
M  V30 5114 N 474.642 -5.37087 -2.20267 0
M  V30 5115 H 477.407 -2.83255 0.979106 0
M  V30 5116 H 474.968 -1.47643 0.664308 0
M  V30 5117 H 476.96 -3.81371 -1.35418 0
M  V30 5118 H 475.53 -2.75789 -1.47171 0
M  V30 5119 H 474.75 -3.86971 0.751468 0
M  V30 5120 H 476.038 -5.06268 0.506965 0
M  V30 5121 H 475.436 -4.9855 -2.67328 0
M  V30 5122 H 473.993 -5.91593 -2.73608 0
M  V30 5123 N 477.426 -0.562348 -1.47226 0
M  V30 5124 C 478.673 -0.0402165 -2.0246 0
M  V30 5125 C 479.001 1.31169 -1.43614 0
M  V30 5126 O 478.256 1.86805 -0.5833 0
M  V30 5127 C 478.555 0.0969817 -3.57268 0
M  V30 5128 C 478.221 -1.1847 -4.35058 0
M  V30 5129 C 476.883 -1.53588 -4.56031 0
M  V30 5130 C 479.235 -2.03378 -4.79882 0
M  V30 5131 C 476.563 -2.73452 -5.19077 0
M  V30 5132 C 478.915 -3.2245 -5.44251 0
M  V30 5133 C 477.579 -3.57876 -5.63455 0
M  V30 5134 H 476.849 -0.0147163 -0.740854 0
M  V30 5135 H 479.496 -0.734895 -1.76838 0
M  V30 5136 H 477.801 0.87466 -3.81912 0
M  V30 5137 H 479.498 0.516408 -3.97661 0
M  V30 5138 H 476.088 -0.90126 -4.19017 0
M  V30 5139 H 480.272 -1.77553 -4.63453 0
M  V30 5140 H 475.528 -3.01062 -5.32139 0
M  V30 5141 H 479.702 -3.88526 -5.77945 0
M  V30 5142 H 477.329 -4.50849 -6.12078 0
M  V30 5143 N 478.904 1.54736 -0.299062 0
M  V30 5144 C 480.153 1.99279 0.311549 0
M  V30 5145 C 480.466 1.19107 1.55154 0
M  V30 5146 O 481.672 1.53908 2.23662 0
M  V30 5147 C 480.128 3.54768 0.605632 0
M  V30 5148 C 479.736 4.43746 -0.615914 0
M  V30 5149 C 481.48 4.07841 1.17754 0
M  V30 5150 C 479.387 5.90663 -0.29509 0
M  V30 5151 H 478.317 0.744359 0.120187 0
M  V30 5152 H 480.968 1.78919 -0.407464 0
M  V30 5153 H 479.35 3.71021 1.38419 0
M  V30 5154 H 480.524 4.39267 -1.39218 0
M  V30 5155 H 478.839 4.01434 -1.10633 0
M  V30 5156 H 481.436 5.15174 1.43179 0
M  V30 5157 H 481.779 3.58324 2.11918 0
M  V30 5158 H 482.312 3.95123 0.460739 0
M  V30 5159 H 479.051 6.44325 -1.20524 0
M  V30 5160 H 478.571 5.98155 0.44394 0
M  V30 5161 H 480.25 6.46916 0.104048 0
M  V30 5162 N 480.382 0.0267497 1.57577 0
M  V30 5163 C 481.332 -0.965003 2.06571 0
M  V30 5164 C 482.316 -1.28694 0.965746 0
M  V30 5165 O 483.508 -1.27345 1.22932 0
M  V30 5166 C 480.637 -2.24821 2.59443 0
M  V30 5167 C 479.723 -1.95474 3.76365 0
M  V30 5168 N 480.114 -1.36387 4.87065 0
M  V30 5169 C 478.412 -2.25478 3.84806 0
M  V30 5170 C 479.113 -1.24119 5.68304 0
M  V30 5171 N 478.089 -1.7359 5.15138 0
M  V30 5172 H 481.891 -0.503095 2.89562 0
M  V30 5173 H 479.405 -0.178322 1.61418 0
M  V30 5174 H 481.402 -2.9674 2.92833 0
M  V30 5175 H 480.062 -2.7164 1.77881 0
M  V30 5176 H 481.073 -1.03919 5.07367 0
M  V30 5177 H 477.75 -2.74987 3.14147 0
M  V30 5178 H 479.14 -0.784504 6.67304 0
M  V30 5179 N 481.861 -1.55662 -0.24637 0
M  V30 5180 C 482.824 -1.89558 -1.28842 0
M  V30 5181 C 483.824 -0.772082 -1.41052 0
M  V30 5182 O 485.014 -1.04007 -1.39743 0
M  V30 5183 C 482.146 -2.12449 -2.66605 0
M  V30 5184 H 483.339 -2.82735 -1.00004 0
M  V30 5185 H 480.892 -1.48562 -0.485684 0
M  V30 5186 H 481.627 -1.21742 -3.00582 0
M  V30 5187 H 481.412 -2.94273 -2.59125 0
M  V30 5188 H 482.902 -2.39854 -3.41847 0
M  V30 5189 N 483.339 0.512053 -1.4905 0
M  V30 5190 C 484.302 1.59704 -1.64399 0
M  V30 5191 C 485.302 1.52285 -0.516317 0
M  V30 5192 O 486.492 1.55635 -0.782527 0
M  V30 5193 C 483.624 2.9935 -1.63102 0
M  V30 5194 H 484.817 1.47428 -2.61161 0
M  V30 5195 H 482.37 0.735469 -1.37915 0
M  V30 5196 H 483.105 3.17116 -0.678836 0
M  V30 5197 H 482.89 3.06144 -2.44986 0
M  V30 5198 H 484.38 3.782 -1.77072 0
M  V30 5199 N 484.817 1.37938 0.762283 0
M  V30 5200 C 486.094 1.24196 1.51112 0
M  V30 5201 C 486.474 -0.160409 2.1049 0
M  V30 5202 O 485.822 -1.16904 1.96331 0
M  V30 5203 C 486.032 2.34537 2.58445 0
M  V30 5204 C 487.38 2.7254 3.25588 0
M  V30 5205 O 488.404 2.33783 2.68745 0
M  V30 5206 O 487.263 3.39343 4.28379 0
M  V30 5207 H 484.357 0.485175 0.669727 0
M  V30 5208 H 486.903 1.49743 0.798438 0
M  V30 5209 H 485.675 3.28406 2.12756 0
M  V30 5210 H 485.298 2.10505 3.37303 0
M  V30 5211 N 486.295 -0.989507 1.22664 0
M  V30 5212 C 487.228 -2.07805 0.942985 0
M  V30 5213 C 488.206 -1.6219 -0.115356 0
M  V30 5214 O 489.39 -1.88492 0.0169565 0
M  V30 5215 C 486.517 -3.361 0.418898 0
M  V30 5216 C 485.563 -4.00643 1.46244 0
M  V30 5217 S 486.396 -4.41059 3.03689 0
M  V30 5218 C 487.552 -5.7252 2.52927 0
M  V30 5219 H 487.785 -2.31547 1.86476 0
M  V30 5220 H 485.318 -1.12446 1.05808 0
M  V30 5221 H 487.276 -4.10315 0.123114 0
M  V30 5222 H 485.937 -3.10383 -0.481818 0
M  V30 5223 H 485.13 -4.93033 1.04569 0
M  V30 5224 H 484.732 -3.32767 1.7071 0
M  V30 5225 H 487.024 -6.49017 1.94379 0
M  V30 5226 H 487.967 -6.19026 3.4382 0
M  V30 5227 H 488.375 -5.30083 1.94094 0
M  V30 5228 N 487.773 -1.03688 -1.18687 0
M  V30 5229 C 488.703 -0.645407 -2.24403 0
M  V30 5230 C 489.684 0.349511 -1.66471 0
M  V30 5231 O 490.869 0.230453 -1.92828 0
M  V30 5232 C 487.999 -0.00365337 -3.473 0
M  V30 5233 C 486.953 -0.921705 -4.17958 0
M  V30 5234 C 486.279 -0.144629 -5.34504 0
M  V30 5235 C 487.579 -2.23909 -4.71871 0
M  V30 5236 H 489.273 -1.52917 -2.57404 0
M  V30 5237 H 486.819 -0.736711 -1.23728 0
M  V30 5238 H 488.772 0.281908 -4.20456 0
M  V30 5239 H 487.496 0.914963 -3.13522 0
M  V30 5240 H 486.155 -1.19159 -3.46694 0
M  V30 5241 H 485.803 0.776274 -4.96974 0
M  V30 5242 H 485.503 -0.756206 -5.82714 0
M  V30 5243 H 487.027 0.134004 -6.10453 0
M  V30 5244 H 488.441 -2.0145 -5.36741 0
M  V30 5245 H 486.838 -2.8033 -5.30599 0
M  V30 5246 H 487.908 -2.88822 -3.895 0
M  V30 5247 N 489.251 1.34841 -0.815825 0
M  V30 5248 C 490.481 2.02436 -0.412695 0
M  V30 5249 C 490.889 1.61604 0.983906 0
M  V30 5250 O 490.232 0.813729 1.64694 0
M  V30 5251 C 490.294 3.56953 -0.427182 0
M  V30 5252 C 489.958 4.21083 -1.77589 0
M  V30 5253 C 490.955 4.42107 -2.73564 0
M  V30 5254 C 488.64 4.58006 -2.06243 0
M  V30 5255 C 490.634 4.99169 -3.9637 0
M  V30 5256 C 488.321 5.1478 -3.2931 0
M  V30 5257 C 489.319 5.35304 -4.24191 0
M  V30 5258 O 489.007 5.90878 -5.45086 0
M  V30 5259 H 488.739 0.655631 -0.164695 0
M  V30 5260 H 491.293 1.73246 -1.1034 0
M  V30 5261 H 489.523 3.85372 0.320175 0
M  V30 5262 H 491.212 4.05875 -0.0450875 0
M  V30 5263 H 491.978 4.13953 -2.52721 0
M  V30 5264 H 487.857 4.41339 -1.33196 0
M  V30 5265 H 491.401 5.15105 -4.70439 0
M  V30 5266 H 487.298 5.42362 -3.5002 0
M  V30 5267 H 488.066 6.0932 -5.46508 0
M  V30 5268 N 490.729 0.570148 1.46925 0
M  V30 5269 C 491.969 0.0534743 2.0433 0
M  V30 5270 C 492.333 -1.27729 1.4335 0
M  V30 5271 O 493.534 -1.88244 1.91879 0
M  V30 5272 C 491.805 -0.0244296 3.57392 0
M  V30 5273 S 493.364 -0.485351 4.36108 0
M  V30 5274 H 490.182 0.0313908 0.710307 0
M  V30 5275 H 492.784 0.759808 1.80131 0
M  V30 5276 H 491.488 0.948261 3.99295 0
M  V30 5277 H 491.019 -0.753922 3.86108 0
M  V30 5278 H 493.034 -1.74258 4.64595 0
M  V30 5279 N 492.207 -1.54576 0.307264 0
M  V30 5280 C 493.17 -2.22423 -0.553224 0
M  V30 5281 C 494.17 -1.21231 -1.05639 0
M  V30 5282 O 495.36 -1.45923 -0.951419 0
M  V30 5283 C 492.492 -2.91552 -1.76664 0
M  V30 5284 H 493.685 -2.99874 0.0396484 0
M  V30 5285 H 491.238 -1.56192 0.0581629 0
M  V30 5286 H 491.973 -2.18196 -2.39918 0
M  V30 5287 H 491.758 -3.65738 -1.41343 0
M  V30 5288 H 493.248 -3.43292 -2.37783 0
M  V30 5289 N 493.685 -0.035106 -1.57561 0
M  V30 5290 C 494.595 0.960295 -2.14046 0
M  V30 5291 C 495.611 1.3529 -1.0942 0
M  V30 5292 O 496.787 1.43309 -1.41508 0
M  V30 5293 C 493.852 2.22214 -2.66124 0
M  V30 5294 C 492.913 1.8894 -3.85487 0
M  V30 5295 C 492.146 3.09109 -4.35072 0
M  V30 5296 O 492.369 4.21963 -3.83802 0
M  V30 5297 O 491.303 2.91058 -5.26848 0
M  V30 5298 H 495.129 0.509983 -2.99387 0
M  V30 5299 H 492.714 0.185853 -1.48239 0
M  V30 5300 H 494.596 2.96279 -2.99661 0
M  V30 5301 H 493.271 2.66414 -1.83862 0
M  V30 5302 H 492.178 1.12241 -3.56865 0
M  V30 5303 H 493.511 1.49551 -4.6893 0
M  V30 5304 N 495.163 1.55791 0.238111 0
M  V30 5305 C 496.388 1.8244 0.986432 0
M  V30 5306 C 496.813 0.613314 1.7782 0
M  V30 5307 O 496.171 -0.437767 1.75935 0
M  V30 5308 C 496.219 3.06917 1.893 0
M  V30 5309 O 495.323 2.84449 2.98601 0
M  V30 5310 H 494.664 0.601975 0.280218 0
M  V30 5311 H 497.194 2.02987 0.256437 0
M  V30 5312 H 497.204 3.36583 2.30598 0
M  V30 5313 H 495.879 3.947 1.31091 0
M  V30 5314 H 494.456 2.65972 2.61368 0
M  V30 5315 N 496.642 -0.504142 1.49319 0
M  V30 5316 C 497.592 -1.60284 1.62151 0
M  V30 5317 C 498.576 -1.53657 0.477315 0
M  V30 5318 O 499.768 -1.6124 0.730108 0
M  V30 5319 C 496.897 -2.98909 1.68844 0
M  V30 5320 C 495.983 -3.10544 2.8883 0
M  V30 5321 N 496.374 -2.92078 4.12946 0
M  V30 5322 C 494.672 -3.4164 2.86702 0
M  V30 5323 C 495.373 -3.07812 4.93585 0
M  V30 5324 N 494.349 -3.36549 4.26891 0
M  V30 5325 H 498.151 -1.44656 2.55835 0
M  V30 5326 H 495.665 -0.710198 1.46048 0
M  V30 5327 H 497.662 -3.77865 1.76134 0
M  V30 5328 H 496.322 -3.15609 0.762943 0
M  V30 5329 H 497.333 -2.68316 4.42975 0
M  V30 5330 H 494.01 -3.64537 2.03517 0
M  V30 5331 H 495.4 -2.98054 6.02174 0
M  V30 5332 N 498.12 -1.38341 -0.754957 0
M  V30 5333 C 499.369 -1.33791 -1.5094 0
M  V30 5334 C 499.682 0.0699267 -1.95475 0
M  V30 5335 O 500.888 0.237956 -2.70455 0
M  V30 5336 C 499.344 -2.34934 -2.72643 0
M  V30 5337 C 498.952 -3.81332 -2.35138 0
M  V30 5338 C 500.696 -2.39425 -3.50536 0
M  V30 5339 C 498.603 -4.74164 -3.53444 0
M  V30 5340 H 497.533 -0.497314 -0.566741 0
M  V30 5341 H 500.184 -1.63888 -0.825403 0
M  V30 5342 H 498.566 -1.97878 -3.43017 0
M  V30 5343 H 499.74 -4.27319 -1.7244 0
M  V30 5344 H 498.055 -3.79946 -1.70382 0
M  V30 5345 H 500.652 -3.0598 -4.38498 0
M  V30 5346 H 500.995 -1.41278 -3.91594 0
M  V30 5347 H 501.528 -2.75274 -2.87174 0
M  V30 5348 H 498.267 -5.73501 -3.17453 0
M  V30 5349 H 497.787 -4.3287 -4.15191 0
M  V30 5350 H 499.466 -4.92111 -4.20043 0
M  V30 5351 N 499.598 0.982988 -1.23187 0
M  V30 5352 C 501.014 1.2487 -0.993967 0
M  V30 5353 C 501.214 1.99155 0.306498 0
M  V30 5354 O 500.27 2.30688 1.0266 0
M  V30 5355 C 501.583 2.05078 -2.19917 0
M  V30 5356 C 503.131 2.18227 -2.2438 0
M  V30 5357 C 503.606 3.01825 -3.44479 0
M  V30 5358 N 505.097 3.09411 -3.44702 0
M  V30 5359 C 505.832 3.74412 -4.34285 0
M  V30 5360 N 505.328 4.41259 -5.341 0
M  V30 5361 N 507.121 3.71273 -4.22035 0
M  V30 5362 H 499.272 0.485253 -2.06783 0
M  V30 5363 H 501.535 0.276979 -0.906635 0
M  V30 5364 H 501.241 1.57867 -3.14279 0
M  V30 5365 H 501.115 3.05829 -2.2079 0
M  V30 5366 H 503.502 2.64648 -1.30559 0
M  V30 5367 H 503.583 1.16873 -2.2754 0
M  V30 5368 H 503.227 2.56102 -4.38605 0
M  V30 5369 H 503.157 4.03342 -3.38559 0
M  V30 5370 H 505.648 2.61845 -2.7248 0
M  V30 5371 H 505.961 4.88629 -5.98717 0
M  V30 5372 H 504.306 4.39975 -5.38002 0
M  V30 5373 H 507.497 3.18217 -3.43301 0
M  V30 5374 H 507.67 4.21649 -4.92053 0
M  V30 5375 N 501.076 1.04316 1.18135 0
M  V30 5376 C 502.009 0.580823 2.20685 0
M  V30 5377 C 502.987 -0.385943 1.57953 0
M  V30 5378 O 504.171 -0.299654 1.86103 0
M  V30 5379 C 501.298 -0.151162 3.38363 0
M  V30 5380 C 500.344 0.769247 4.19505 0
M  V30 5381 S 501.177 2.25352 4.85774 0
M  V30 5382 C 502.333 1.53246 6.0685 0
M  V30 5383 H 502.566 1.44968 2.5956 0
M  V30 5384 H 500.099 0.85434 1.28609 0
M  V30 5385 H 502.057 -0.567315 4.06561 0
M  V30 5386 H 500.718 -0.995936 2.97892 0
M  V30 5387 H 499.911 0.203335 5.0359 0
M  V30 5388 H 499.513 1.12436 3.56699 0
M  V30 5389 H 501.805 0.82689 6.72435 0
M  V30 5390 H 502.748 2.35044 6.67952 0
M  V30 5391 H 503.156 1.0237 5.5514 0
M  V30 5392 N 502.554 -1.34406 0.822964 0
M  V30 5393 C 503.803 -1.97542 0.407458 0
M  V30 5394 C 504.116 -1.65973 -1.035 0
M  V30 5395 O 505.322 -2.22598 -1.55442 0
M  V30 5396 C 503.778 -3.53463 0.677623 0
M  V30 5397 C 503.386 -3.93925 2.1337 0
M  V30 5398 C 505.13 -4.23229 0.328284 0
M  V30 5399 C 503.037 -5.42759 2.34876 0
M  V30 5400 H 501.967 -0.739207 0.148623 0
M  V30 5401 H 504.618 -1.53248 1.00932 0
M  V30 5402 H 503 -3.96 0.00558965 0
M  V30 5403 H 504.174 -3.62494 2.8449 0
M  V30 5404 H 502.489 -3.37097 2.44448 0
M  V30 5405 H 505.086 -5.32659 0.466794 0
M  V30 5406 H 505.429 -4.09899 -0.727224 0
M  V30 5407 H 505.962 -3.86169 0.954896 0
M  V30 5408 H 502.701 -5.61075 3.38932 0
M  V30 5409 H 502.221 -5.75704 1.68299 0
M  V30 5410 H 503.9 -6.0944 2.17236 0
M  V30 5411 N 504.032 -0.577932 -1.46621 0
M  V30 5412 C 504.979 0.158048 -2.30258 0
M  V30 5413 C 505.949 0.888669 -1.40328 0
M  V30 5414 O 507.134 0.880283 -1.6928 0
M  V30 5415 C 504.274 1.16884 -3.24703 0
M  V30 5416 C 503.387 0.442163 -4.29731 0
M  V30 5417 C 502.522 1.44007 -5.11308 0
M  V30 5418 C 501.561 0.69952 -6.0809 0
M  V30 5419 N 500.698 1.64525 -6.82551 0
M  V30 5420 H 505.538 -0.561242 -2.92667 0
M  V30 5421 H 503.075 -0.288591 -1.44241 0
M  V30 5422 H 505.033 1.7677 -3.779 0
M  V30 5423 H 503.663 1.85591 -2.64113 0
M  V30 5424 H 502.715 -0.271632 -3.79429 0
M  V30 5425 H 504.027 -0.136992 -4.98612 0
M  V30 5426 H 503.181 2.11186 -5.68758 0
M  V30 5427 H 501.92 2.05315 -4.42377 0
M  V30 5428 H 500.925 0.0139217 -5.49798 0
M  V30 5429 H 502.15 0.091894 -6.79038 0
M  V30 5430 H 500.096 2.24653 -6.16334 0
M  V30 5431 H 500.013 1.11878 -7.47676 0
M  V30 5432 H 501.281 2.30754 -7.44562 0
M  V30 5433 N 505.51 1.54411 -0.315457 0
M  V30 5434 C 506.738 2.04833 0.291738 0
M  V30 5435 C 507.153 1.19203 1.46411 0
M  V30 5436 O 506.51 0.220867 1.81159 0
M  V30 5437 C 506.561 3.53969 0.73404 0
M  V30 5438 O 506.282 4.36346 -0.391682 0
M  V30 5439 C 507.783 4.2045 1.40489 0
M  V30 5440 H 505.003 0.668195 0.0612947 0
M  V30 5441 H 507.547 1.99276 -0.45929 0
M  V30 5442 H 505.702 3.5984 1.43506 0
M  V30 5443 H 506.116 5.24481 -0.0447088 0
M  V30 5444 H 507.59 5.26278 1.66539 0
M  V30 5445 H 508.067 3.71067 2.3496 0
M  V30 5446 H 508.673 4.18694 0.746662 0
M  V30 5447 N 506.988 0.0434614 1.5754 0
M  V30 5448 C 508.236 -0.630786 1.92004 0
M  V30 5449 C 508.557 -1.71836 0.921807 0
M  V30 5450 O 507.827 -1.9587 -0.034522 0
M  V30 5451 H 506.407 -0.235988 0.708745 0
M  V30 5452 H 509.069 0.0946462 1.9467 0
M  V30 5453 H 508.165 -1.07434 2.93026 0
M  V30 5454 N 508.466 -1.55915 -0.229846 0
M  V30 5455 C 509.376 -1.94891 -1.30593 0
M  V30 5456 C 510.392 -0.851604 -1.51736 0
M  V30 5457 O 511.568 -1.15447 -1.65027 0
M  V30 5458 C 508.633 -2.25052 -2.63728 0
M  V30 5459 C 507.694 -3.48306 -2.5096 0
M  V30 5460 C 506.927 -3.77019 -3.77747 0
M  V30 5461 O 507.15 -3.07534 -4.80395 0
M  V30 5462 O 506.084 -4.70523 -3.75356 0
M  V30 5463 H 509.91 -2.86581 -1.00525 0
M  V30 5464 H 507.495 -1.43017 -0.432025 0
M  V30 5465 H 509.377 -2.45682 -3.42372 0
M  V30 5466 H 508.052 -1.36538 -2.93495 0
M  V30 5467 H 506.959 -3.32964 -1.70546 0
M  V30 5468 H 508.292 -4.37177 -2.26136 0
M  V30 5469 N 509.944 0.496216 -1.49584 0
M  V30 5470 C 511.169 1.27865 -1.63295 0
M  V30 5471 C 511.594 1.85592 -0.306156 0
M  V30 5472 O 510.952 1.66092 0.726851 0
M  V30 5473 C 511 2.38128 -2.7079 0
M  V30 5474 O 510.104 3.42108 -2.30296 0
M  V30 5475 H 509.445 0.377279 -0.546403 0
M  V30 5476 H 511.975 0.593497 -1.95803 0
M  V30 5477 H 511.985 2.8382 -2.93104 0
M  V30 5478 H 510.66 1.95479 -3.67098 0
M  V30 5479 H 509.237 3.02301 -2.18331 0
M  V30 5480 N 511.423 1.38739 0.74761 0
M  V30 5481 C 512.671 1.35007 1.50391 0
M  V30 5482 C 512.992 -0.0574274 1.94915 0
M  V30 5483 O 512.262 -1.00628 1.6808 0
M  V30 5484 H 510.842 0.496784 0.557866 0
M  V30 5485 H 513.504 1.73479 0.888319 0
M  V30 5486 H 512.6 2.00474 2.392 0
M  V30 5487 N 512.901 -0.976442 1.23707 0
M  V30 5488 C 513.834 -2.06793 0.964973 0
M  V30 5489 C 514.812 -1.62304 -0.0981472 0
M  V30 5490 O 515.996 -1.88464 0.0369477 0
M  V30 5491 C 513.123 -3.35636 0.454522 0
M  V30 5492 C 512.169 -3.99069 1.50485 0
M  V30 5493 S 513.002 -4.37814 3.0835 0
M  V30 5494 C 514.158 -5.69805 2.58985 0
M  V30 5495 H 514.391 -2.29556 1.88922 0
M  V30 5496 H 511.924 -1.11317 1.06995 0
M  V30 5497 H 513.882 -4.10162 0.166626 0
M  V30 5498 H 512.543 -3.10876 -0.448871 0
M  V30 5499 H 511.736 -4.91896 1.09792 0
M  V30 5500 H 511.338 -3.30938 1.7423 0
M  V30 5501 H 513.63 -6.46919 2.01252 0
M  V30 5502 H 514.573 -6.15345 3.50366 0
M  V30 5503 H 514.981 -5.27994 1.99705 0
M  V30 5504 N 514.379 -1.04941 -1.1758 0
M  V30 5505 C 515.628 -0.753124 -1.87112 0
M  V30 5506 C 515.941 0.722507 -1.81767 0
M  V30 5507 O 517.147 1.13265 -2.46746 0
M  V30 5508 C 515.603 -1.29695 -3.35719 0
M  V30 5509 C 515.211 -2.80184 -3.49572 0
M  V30 5510 C 516.955 -1.07759 -4.10595 0
M  V30 5511 C 514.862 -3.2788 -4.92187 0
M  V30 5512 H 513.792 -0.278034 -0.700866 0
M  V30 5513 H 516.443 -1.26637 -1.32798 0
M  V30 5514 H 514.825 -0.711522 -3.89555 0
M  V30 5515 H 515.999 -3.44561 -3.05965 0
M  V30 5516 H 514.314 -3.00632 -2.88113 0
M  V30 5517 H 516.911 -1.40899 -5.15802 0
M  V30 5518 H 517.254 -0.0152302 -4.16297 0
M  V30 5519 H 517.787 -1.62809 -3.62957 0
M  V30 5520 H 514.526 -4.33535 -4.91658 0
M  V30 5521 H 514.046 -2.68245 -5.36475 0
M  V30 5522 H 515.725 -3.22412 -5.60945 0
M  V30 5523 N 515.857 1.33968 -0.830081 0
M  V30 5524 C 517.103 1.98357 -0.422191 0
M  V30 5525 C 517.436 1.65633 1.01387 0
M  V30 5526 O 516.711 0.931648 1.70735 0
M  V30 5527 C 516.994 3.54492 -0.633043 0
M  V30 5528 C 516.847 3.96934 -2.11574 0
M  V30 5529 C 518.166 4.40039 -0.0735584 0
M  V30 5530 H 515.285 0.720544 -0.154871 0
M  V30 5531 H 517.927 1.58749 -1.04397 0
M  V30 5532 H 516.077 3.88361 -0.103775 0
M  V30 5533 H 517.749 3.73363 -2.7092 0
M  V30 5534 H 515.992 3.46984 -2.60354 0
M  V30 5535 H 516.663 5.05651 -2.21406 0
M  V30 5536 H 519.139 4.12764 -0.52585 0
M  V30 5537 H 518.015 5.48327 -0.250841 0
M  V30 5538 H 518.276 4.30124 1.02202 0
M  V30 5539 N 517.335 0.585699 1.46312 0
M  V30 5540 C 518.582 0.0724211 2.0237 0
M  V30 5541 C 518.91 -1.28868 1.45683 0
M  V30 5542 O 518.165 -1.85853 0.612945 0
M  V30 5543 C 518.464 -0.0401312 3.57377 0
M  V30 5544 C 518.13 1.25376 4.33119 0
M  V30 5545 C 516.792 1.60824 4.5353 0
M  V30 5546 C 519.144 2.10987 4.76586 0
M  V30 5547 C 516.472 2.81676 5.14661 0
M  V30 5548 C 518.824 3.31068 5.39052 0
M  V30 5549 C 517.488 3.66794 5.5769 0
M  V30 5550 H 516.758 0.0265007 0.740526 0
M  V30 5551 H 519.405 0.762935 1.75646 0
M  V30 5552 H 517.71 -0.813791 3.83255 0
M  V30 5553 H 519.407 -0.453078 3.98432 0
M  V30 5554 H 515.997 0.967808 4.1753 0
M  V30 5555 H 520.181 1.84904 4.60569 0
M  V30 5556 H 515.437 3.0949 5.27282 0
M  V30 5557 H 519.611 3.97672 5.71691 0
M  V30 5558 H 517.238 4.60529 6.04828 0
M  V30 5559 N 518.813 -1.54241 0.323641 0
M  V30 5560 C 520.229 -1.59574 -0.0290018 0
M  V30 5561 C 520.429 -1.34017 -1.50472 0
M  V30 5562 O 519.485 -1.12464 -2.26071 0
M  V30 5563 C 520.798 -2.98169 0.389295 0
M  V30 5564 C 522.346 -3.11148 0.339958 0
M  V30 5565 C 522.821 -4.5209 0.733418 0
M  V30 5566 N 524.312 -4.5808 0.686827 0
M  V30 5567 C 525.047 -5.65248 0.963464 0
M  V30 5568 N 524.543 -6.80355 1.30724 0
M  V30 5569 N 526.336 -5.55025 0.88902 0
M  V30 5570 H 518.487 -1.6911 1.28512 0
M  V30 5571 H 520.75 -0.790972 0.522558 0
M  V30 5572 H 520.456 -3.21871 1.41746 0
M  V30 5573 H 520.33 -3.76399 -0.245657 0
M  V30 5574 H 522.717 -2.87182 -0.679002 0
M  V30 5575 H 522.798 -2.35023 1.00985 0
M  V30 5576 H 522.442 -4.76788 1.75029 0
M  V30 5577 H 522.372 -5.26584 0.0412189 0
M  V30 5578 H 524.863 -3.75411 0.43298 0
M  V30 5579 H 525.176 -7.58029 1.5037 0
M  V30 5580 H 523.521 -6.81851 1.3455 0
M  V30 5581 H 526.712 -4.63977 0.619939 0
M  V30 5582 H 526.885 -6.38458 1.10797 0
M  V30 5583 N 520.291 -0.0518155 -1.57515 0
M  V30 5584 C 521.221 0.920283 -2.146 0
M  V30 5585 C 522.202 1.32406 -1.06783 0
M  V30 5586 O 523.387 1.39866 -1.34726 0
M  V30 5587 C 520.517 2.1949 -2.6915 0
M  V30 5588 C 519.471 1.93116 -3.81956 0
M  V30 5589 C 518.797 3.27037 -4.23026 0
M  V30 5590 C 520.097 1.25225 -5.07066 0
M  V30 5591 H 521.791 0.444801 -2.96077 0
M  V30 5592 H 519.337 0.212508 -1.42423 0
M  V30 5593 H 521.29 2.87894 -3.07725 0
M  V30 5594 H 520.014 2.69244 -1.84865 0
M  V30 5595 H 518.673 1.27123 -3.43854 0
M  V30 5596 H 518.321 3.74595 -3.3569 0
M  V30 5597 H 518.021 3.10189 -4.99056 0
M  V30 5598 H 519.545 3.96673 -4.64202 0
M  V30 5599 H 520.959 1.83666 -5.43083 0
M  V30 5600 H 519.356 1.18702 -5.88243 0
M  V30 5601 H 520.426 0.228382 -4.84362 0
M  V30 5602 N 521.769 1.56035 0.221574 0
M  V30 5603 C 522.699 1.95434 1.2778 0
M  V30 5604 C 523.68 0.822564 1.48889 0
M  V30 5605 O 524.865 1.08486 1.61072 0
M  V30 5606 C 521.995 2.27102 2.62759 0
M  V30 5607 C 520.949 3.4277 2.56306 0
M  V30 5608 C 520.275 3.60043 3.95314 0
M  V30 5609 C 521.575 4.77742 2.11093 0
M  V30 5610 H 523.269 2.83912 0.950504 0
M  V30 5611 H 520.815 1.36596 0.455791 0
M  V30 5612 H 522.768 2.53256 3.36807 0
M  V30 5613 H 521.492 1.35478 2.97176 0
M  V30 5614 H 520.151 3.16664 1.84715 0
M  V30 5615 H 519.799 2.65794 4.27039 0
M  V30 5616 H 519.499 4.37841 3.91879 0
M  V30 5617 H 521.023 3.88545 4.71025 0
M  V30 5618 H 522.437 5.03102 2.74885 0
M  V30 5619 H 520.834 5.58823 2.18716 0
M  V30 5620 H 521.904 4.731 1.06321 0
M  V30 5621 N 523.247 -0.488276 1.49845 0
M  V30 5622 C 524.475 -1.26527 1.63702 0
M  V30 5623 C 524.89 -1.8618 0.313447 0
M  V30 5624 O 524.247 -1.68432 -0.702624 0
M  V30 5625 C 524.298 -2.3864 2.71538 0
M  V30 5626 O 524.019 -1.81437 3.98763 0
M  V30 5627 C 525.52 -3.29805 2.96215 0
M  V30 5628 H 522.74 -0.383295 0.55075 0
M  V30 5629 H 525.284 -0.584779 1.95961 0
M  V30 5630 H 523.439 -3.02496 2.42023 0
M  V30 5631 H 523.853 -2.55135 4.58265 0
M  V30 5632 H 525.327 -4.04722 3.75372 0
M  V30 5633 H 525.804 -3.87563 2.06619 0
M  V30 5634 H 526.41 -2.71703 3.27196 0
M  V30 5635 N 524.725 -1.39134 -0.740242 0
M  V30 5636 C 525.672 -1.37434 -1.8542 0
M  V30 5637 C 526.642 -0.234822 -1.64432 0
M  V30 5638 O 527.827 -0.429125 -1.85912 0
M  V30 5639 C 524.967 -1.21844 -3.22875 0
M  V30 5640 C 524.08 -2.45296 -3.55603 0
M  V30 5641 C 523.215 -2.22334 -4.82432 0
M  V30 5642 C 522.254 -3.41488 -5.07988 0
M  V30 5643 N 521.391 -3.17877 -6.26018 0
M  V30 5644 H 526.231 -2.3266 -1.86207 0
M  V30 5645 H 523.768 -1.15578 -0.909946 0
M  V30 5646 H 525.726 -1.10818 -4.02213 0
M  V30 5647 H 524.356 -0.3025 -3.21379 0
M  V30 5648 H 523.408 -2.66945 -2.71006 0
M  V30 5649 H 524.72 -3.34063 -3.7041 0
M  V30 5650 H 523.874 -2.0852 -5.69741 0
M  V30 5651 H 522.613 -1.30954 -4.6979 0
M  V30 5652 H 521.618 -3.55807 -4.19144 0
M  V30 5653 H 522.843 -4.33763 -5.22519 0
M  V30 5654 H 520.789 -2.29156 -6.14673 0
M  V30 5655 H 520.706 -4.00198 -6.41387 0
M  V30 5656 H 521.974 -3.07746 -7.16179 0
M  V30 5657 N 526.204 0.969867 -1.24223 0
M  V30 5658 C 527.152 2.08535 -1.03034 0
M  V30 5659 C 528.146 1.69366 0.0340379 0
M  V30 5660 O 529.352 1.79597 -0.12034 0
M  V30 5661 H 525.727 0.682313 -0.316154 0
M  V30 5662 H 527.698 2.23569 -1.97635 0
M  V30 5663 C 526.447 3.4158 -0.649509 0
M  V30 5664 H 525.77 3.72177 -1.46028 0
M  V30 5665 H 527.21 4.20536 -0.540841 0
M  V30 5666 C 525.669 3.30703 0.643194 0
M  V30 5667 O 526.199 3.64443 1.68951 0
M  V30 5668 N 524.405 2.83841 0.623095 0
M  V30 5669 H 523.952 2.56583 -0.228719 0
M  V30 5670 H 523.91 2.76946 1.48823 0
M  V30 5671 N 527.682 1.05563 1.17022 0
M  V30 5672 C 528.63 0.653887 2.2322 0
M  V30 5673 C 529.624 -0.326642 1.66221 0
M  V30 5674 O 530.83 -0.192301 1.7897 0
M  V30 5675 H 527.205 0.193297 0.726733 0
M  V30 5676 H 529.176 1.5596 2.54399 0
M  V30 5677 C 527.925 0.0485434 3.47666 0
M  V30 5678 H 527.248 0.79413 3.91834 0
M  V30 5679 H 528.688 -0.195133 4.23551 0
M  V30 5680 C 527.147 -1.20583 3.14581 0
M  V30 5681 O 527.677 -2.29475 3.29703 0
M  V30 5682 N 525.883 -1.10493 2.68774 0
M  V30 5683 H 525.43 -0.218795 2.56669 0
M  V30 5684 H 525.388 -1.94507 2.47011 0
M  V30 5685 N 529.16 -1.33526 0.837174 0
M  V30 5686 C 530.576 -1.50727 0.524743 0
M  V30 5687 C 530.776 -1.77792 -0.948279 0
M  V30 5688 O 529.832 -1.83719 -1.73216 0
M  V30 5689 C 531.145 -2.66299 1.39661 0
M  V30 5690 C 532.693 -2.80183 1.39521 0
M  V30 5691 C 533.168 -3.98815 2.25189 0
M  V30 5692 N 534.659 -4.06047 2.2289 0
M  V30 5693 C 535.394 -4.97032 2.85915 0
M  V30 5694 N 534.89 -5.93143 3.57985 0
M  V30 5695 N 536.683 -4.90015 2.75394 0
M  V30 5696 H 528.834 -1.1422 1.79074 0
M  V30 5697 H 531.097 -0.561399 0.763894 0
M  V30 5698 H 530.803 -2.52974 2.4433 0
M  V30 5699 H 530.677 -3.61663 1.07145 0
M  V30 5700 H 533.064 -2.92942 0.356253 0
M  V30 5701 H 533.145 -1.85586 1.76044 0
M  V30 5702 H 532.789 -3.86817 3.29143 0
M  V30 5703 H 532.719 -4.92654 1.86009 0
M  V30 5704 H 535.21 -3.37262 1.70478 0
M  V30 5705 H 535.523 -6.59227 4.03286 0
M  V30 5706 H 533.868 -5.93223 3.62093 0
M  V30 5707 H 537.059 -4.13894 2.18654 0
M  V30 5708 H 537.232 -5.60724 3.24796 0
M  V30 5709 N 530.638 -0.59345 -1.46 0
M  V30 5710 C 531.884 -0.0916503 -2.03193 0
M  V30 5711 C 532.239 1.25839 -1.45541 0
M  V30 5712 O 531.532 1.81455 -0.615191 0
M  V30 5713 C 531.726 0.021178 -3.57394 0
M  V30 5714 C 531.555 -1.31638 -4.30002 0
M  V30 5715 C 530.325 -1.89336 -4.68487 0
M  V30 5716 C 532.523 -2.242 -4.62859 0
M  V30 5717 N 530.505 -3.1672 -5.25891 0
M  V30 5718 C 531.876 -3.36175 -5.20948 0
M  V30 5719 C 533.931 -2.23748 -4.44794 0
M  V30 5720 C 532.634 -4.47844 -5.62875 0
M  V30 5721 C 534.66 -3.34454 -4.87744 0
M  V30 5722 C 534.022 -4.4515 -5.45913 0
M  V30 5723 H 530.121 -0.0765713 -0.778242 0
M  V30 5724 H 532.705 -0.788705 -1.7801 0
M  V30 5725 H 530.876 0.687423 -3.82268 0
M  V30 5726 H 532.608 0.528343 -4.01236 0
M  V30 5727 H 529.363 -1.42704 -4.51589 0
M  V30 5728 H 529.787 -3.81746 -5.59106 0
M  V30 5729 H 534.429 -1.39433 -3.99147 0
M  V30 5730 H 532.147 -5.32894 -6.07495 0
M  V30 5731 H 535.733 -3.35234 -4.75509 0
M  V30 5732 H 534.613 -5.29398 -5.78539 0
M  V30 5733 N 532.116 1.54067 -0.331816 0
M  V30 5734 C 533.344 2.05131 0.269996 0
M  V30 5735 C 533.759 1.20749 1.45138 0
M  V30 5736 O 533.116 0.240069 1.80914 0
M  V30 5737 C 533.167 3.54728 0.696456 0
M  V30 5738 O 532.888 4.35906 -0.43794 0
M  V30 5739 C 534.389 4.21916 1.36021 0
M  V30 5740 H 531.609 0.668807 0.0542042 0
M  V30 5741 H 534.153 1.98777 -0.4804 0
M  V30 5742 H 532.308 3.61342 1.39681 0
M  V30 5743 H 532.722 5.24404 -0.100334 0
M  V30 5744 H 534.196 5.28015 1.60947 0
M  V30 5745 H 534.673 3.73538 2.31011 0
M  V30 5746 H 535.279 4.19463 0.702212 0
M  V30 5747 N 533.594 0.0601682 1.57485 0
M  V30 5748 C 534.84 -0.606552 1.94146 0
M  V30 5749 C 535.195 -1.67918 0.939225 0
M  V30 5750 O 534.488 -1.91558 -0.0402649 0
M  V30 5751 C 534.682 -1.23831 3.35262 0
M  V30 5752 C 534.511 -0.228408 4.4912 0
M  V30 5753 C 533.281 0.182813 5.04969 0
M  V30 5754 C 535.479 0.52975 5.11564 0
M  V30 5755 N 533.461 1.18464 6.02362 0
M  V30 5756 C 534.832 1.38439 6.04346 0
M  V30 5757 C 536.887 0.587084 4.94427 0
M  V30 5758 C 535.59 2.29125 6.81832 0
M  V30 5759 C 537.616 1.4814 5.72546 0
M  V30 5760 C 536.978 2.32375 6.64967 0
M  V30 5761 H 533.077 -0.193328 0.757726 0
M  V30 5762 H 535.661 0.1346 1.94234 0
M  V30 5763 H 533.832 -1.94944 3.35933 0
M  V30 5764 H 535.564 -1.86456 3.59188 0
M  V30 5765 H 532.319 -0.197968 4.73186 0
M  V30 5766 H 532.743 1.68271 6.55754 0
M  V30 5767 H 537.385 -0.049944 4.22771 0
M  V30 5768 H 535.103 2.93868 7.52773 0
M  V30 5769 H 538.689 1.53045 5.6131 0
M  V30 5770 H 537.569 3.00454 7.2436 0
M  V30 5771 N 535.072 -1.5615 -0.213296 0
M  V30 5772 C 536.318 -1.79812 -0.937849 0
M  V30 5773 C 536.651 -0.631201 -1.83656 0
M  V30 5774 O 535.926 0.369165 -1.90964 0
M  V30 5775 C 536.209 -3.13613 -1.76972 0
M  V30 5776 C 536.062 -4.40766 -0.89695 0
M  V30 5777 C 537.381 -3.43931 -2.7459 0
M  V30 5778 H 534.5 -0.654138 -0.339518 0
M  V30 5779 H 537.142 -1.88877 -0.20623 0
M  V30 5780 H 535.292 -3.06015 -2.39347 0
M  V30 5781 H 536.964 -4.60392 -0.289306 0
M  V30 5782 H 535.207 -4.33326 -0.202756 0
M  V30 5783 H 535.878 -5.30843 -1.51358 0
M  V30 5784 H 538.354 -3.5171 -2.22349 0
M  V30 5785 H 537.23 -4.38706 -3.29891 0
M  V30 5786 H 537.491 -2.6651 -3.52739 0
M  V30 5787 N 536.55 0.480323 -1.50102 0
M  V30 5788 C 537.482 1.59669 -1.64433 0
M  V30 5789 C 538.495 1.54063 -0.52615 0
M  V30 5790 O 539.684 1.59619 -0.798992 0
M  V30 5791 C 536.784 2.98527 -1.6042 0
M  V30 5792 C 535.957 3.291 -2.88117 0
M  V30 5793 C 535.016 4.47468 -2.76873 0
M  V30 5794 O 534.042 4.4823 -3.50825 0
M  V30 5795 N 535.244 5.48593 -1.89806 0
M  V30 5796 H 538.009 1.47795 -2.60723 0
M  V30 5797 H 535.57 0.66858 -1.4745 0
M  V30 5798 H 537.562 3.75666 -1.50523 0
M  V30 5799 H 536.132 3.04218 -0.719036 0
M  V30 5800 H 535.352 2.40662 -3.12211 0
M  V30 5801 H 536.64 3.46334 -3.72734 0
M  V30 5802 H 536.038 5.50791 -1.2902 0
M  V30 5803 H 534.595 6.24752 -1.85819 0
M  V30 5804 N 538.028 1.39524 0.732853 0
M  V30 5805 C 539.253 1.40329 1.52717 0
M  V30 5806 C 539.678 0.000286574 1.881 0
M  V30 5807 O 539.036 -0.987262 1.52062 0
M  V30 5808 C 539.084 2.28464 2.78992 0
M  V30 5809 O 538.188 1.716 3.75003 0
M  V30 5810 H 537.529 0.47778 0.461109 0
M  V30 5811 H 540.059 1.83546 0.903996 0
M  V30 5812 H 540.069 2.43051 3.27705 0
M  V30 5813 H 538.744 3.30425 2.52572 0
M  V30 5814 H 537.321 1.66267 3.33781 0
M  V30 5815 N 539.506 -0.963266 1.24736 0
M  V30 5816 C 540.454 -2.07985 1.04139 0
M  V30 5817 C 541.448 -1.69381 -0.0250556 0
M  V30 5818 O 542.654 -1.79531 0.129863 0
M  V30 5819 H 539.029 -0.680627 0.319768 0
M  V30 5820 H 541 -2.22517 1.98818 0
M  V30 5821 C 539.749 -3.4123 0.667615 0
M  V30 5822 H 539.072 -3.71397 1.48 0
M  V30 5823 H 540.512 -4.20244 0.563136 0
M  V30 5824 C 538.971 -3.3104 -0.625647 0
M  V30 5825 O 539.501 -3.65334 -1.67016 0
M  V30 5826 N 537.707 -2.84168 -0.608033 0
M  V30 5827 H 537.254 -2.56458 0.242323 0
M  V30 5828 H 537.212 -2.77732 -1.47352 0
M  V30 5829 N 540.985 -1.06182 -1.16461 0
M  V30 5830 C 541.948 -0.675723 -2.19013 0
M  V30 5831 C 542.948 0.277963 -1.58379 0
M  V30 5832 O 544.138 0.0604962 -1.74095 0
M  V30 5833 C 541.27 0.00591459 -3.40899 0
M  V30 5834 H 542.463 -1.58353 -2.54685 0
M  V30 5835 H 540.016 -0.856908 -1.30716 0
M  V30 5836 H 540.751 0.92652 -3.10783 0
M  V30 5837 H 540.536 -0.67984 -3.86161 0
M  V30 5838 H 542.026 0.26181 -4.16778 0
M  V30 5839 N 542.463 1.3308 -0.844243 0
M  V30 5840 C 543.879 1.50447 -0.532729 0
M  V30 5841 C 544.079 1.78292 0.938837 0
M  V30 5842 O 543.135 1.84635 1.72239 0
M  V30 5843 C 544.448 2.65555 -1.41072 0
M  V30 5844 C 545.996 2.7944 -1.41005 0
M  V30 5845 C 546.471 3.97616 -2.27301 0
M  V30 5846 N 547.962 4.0486 -2.2504 0
M  V30 5847 C 548.697 4.95508 -2.88547 0
M  V30 5848 N 548.193 5.91236 -3.61126 0
M  V30 5849 N 549.986 4.88548 -2.77989 0
M  V30 5850 H 542.137 1.13269 -1.79677 0
M  V30 5851 H 544.4 0.55734 -0.766861 0
M  V30 5852 H 544.106 2.51675 -2.45668 0
M  V30 5853 H 543.98 3.61089 -1.09061 0
M  V30 5854 H 546.367 2.92749 -0.371784 0
M  V30 5855 H 546.448 1.8465 -1.77026 0
M  V30 5856 H 546.092 3.85066 -3.3119 0
M  V30 5857 H 546.022 4.91661 -1.88619 0
M  V30 5858 H 548.513 3.36353 -1.72264 0
M  V30 5859 H 548.826 6.57079 -4.06776 0
M  V30 5860 H 547.171 5.91295 -3.65234 0
M  V30 5861 H 550.362 4.12729 -2.20846 0
M  V30 5862 H 550.535 5.58994 -3.27765 0
M  V30 5863 N 543.941 0.601185 1.45683 0
M  V30 5864 C 544.871 -0.108824 2.33246 0
M  V30 5865 C 545.852 -0.865223 1.46451 0
M  V30 5866 O 547.037 -0.83704 1.75235 0
M  V30 5867 C 544.167 -1.11101 3.2905 0
M  V30 5868 C 543.121 -0.468244 4.25431 0
M  V30 5869 C 542.447 -1.57822 5.10878 0
M  V30 5870 C 543.747 0.606469 5.18767 0
M  V30 5871 H 545.441 0.622306 2.92861 0
M  V30 5872 H 542.987 0.300714 1.40825 0
M  V30 5873 H 544.94 -1.61622 3.89174 0
M  V30 5874 H 543.664 -1.87265 2.67581 0
M  V30 5875 H 542.323 0.0160484 3.66596 0
M  V30 5876 H 541.971 -2.32998 4.45781 0
M  V30 5877 H 541.671 -1.15369 5.76163 0
M  V30 5878 H 543.195 -2.08583 5.73869 0
M  V30 5879 H 544.609 0.185589 5.73 0
M  V30 5880 H 543.006 0.952381 5.92494 0
M  V30 5881 H 544.076 1.48559 4.61582 0
M  V30 5882 N 545.419 -1.53889 0.339982 0
M  V30 5883 C 546.349 -2.27843 -0.510856 0
M  V30 5884 C 547.33 -1.29267 -1.10563 0
M  V30 5885 O 548.515 -1.58104 -1.12768 0
M  V30 5886 C 545.645 -3.04857 -1.66372 0
M  V30 5887 C 544.599 -4.10907 -1.19746 0
M  V30 5888 C 543.925 -4.75855 -2.43857 0
M  V30 5889 C 545.225 -5.21435 -0.300501 0
M  V30 5890 H 546.919 -2.99212 0.106067 0
M  V30 5891 H 544.465 -1.43904 0.0524533 0
M  V30 5892 H 546.418 -3.5533 -2.26537 0
M  V30 5893 H 545.142 -2.31133 -2.30749 0
M  V30 5894 H 543.801 -3.61342 -0.618654 0
M  V30 5895 H 543.449 -3.9873 -3.06633 0
M  V30 5896 H 543.149 -5.47502 -2.13343 0
M  V30 5897 H 544.673 -5.2911 -3.04754 0
M  V30 5898 H 546.087 -5.67565 -0.80889 0
M  V30 5899 H 544.484 -6.00036 -0.0874076 0
M  V30 5900 H 545.554 -4.80328 0.664321 0
M  V30 5901 N 546.897 -0.0685191 -1.57451 0
M  V30 5902 C 548.127 0.609577 -1.97402 0
M  V30 5903 C 548.535 1.63882 -0.945489 0
M  V30 5904 O 547.878 1.8354 0.0766052 0
M  V30 5905 C 547.94 1.3385 -3.33653 0
M  V30 5906 C 547.604 0.463103 -4.54648 0
M  V30 5907 C 548.601 -0.277964 -5.19156 0
M  V30 5908 C 546.286 0.388941 -5.00792 0
M  V30 5909 C 548.28 -1.08145 -6.28159 0
M  V30 5910 C 545.967 -0.418217 -6.09667 0
M  V30 5911 C 546.965 -1.15208 -6.73213 0
M  V30 5912 O 546.653 -1.94594 -7.79993 0
M  V30 5913 H 546.385 0.170197 -0.654224 0
M  V30 5914 H 548.939 -0.13647 -2.04946 0
M  V30 5915 H 547.169 2.13055 -3.22714 0
M  V30 5916 H 548.858 1.90851 -3.58233 0
M  V30 5917 H 549.624 -0.230241 -4.84453 0
M  V30 5918 H 545.503 0.949769 -4.5111 0
M  V30 5919 H 549.047 -1.65476 -6.7769 0
M  V30 5920 H 544.944 -0.467515 -6.43805 0
M  V30 5921 H 545.712 -1.8699 -7.96854 0
M  V30 5922 N 548.375 1.56261 0.205012 0
M  V30 5923 C 549.322 1.93754 1.25411 0
M  V30 5924 C 550.292 0.796826 1.45739 0
M  V30 5925 O 551.477 1.05414 1.59036 0
M  V30 5926 C 548.617 2.27383 2.59598 0
M  V30 5927 C 547.73 3.5447 2.46931 0
M  V30 5928 C 546.865 3.77468 3.73753 0
M  V30 5929 C 545.904 4.98014 3.55877 0
M  V30 5930 N 545.041 5.17316 4.74688 0
M  V30 5931 H 549.881 2.83203 0.92737 0
M  V30 5932 H 547.418 1.40158 0.446574 0
M  V30 5933 H 549.376 2.44895 3.37761 0
M  V30 5934 H 548.006 1.41088 2.90335 0
M  V30 5935 H 547.058 3.45061 1.60116 0
M  V30 5936 H 548.37 4.42789 2.29651 0
M  V30 5937 H 547.524 3.95165 4.60358 0
M  V30 5938 H 546.263 2.87461 3.93976 0
M  V30 5939 H 545.268 4.80249 2.67657 0
M  V30 5940 H 546.493 5.8952 3.37109 0
M  V30 5941 H 544.439 4.30255 4.95194 0
M  V30 5942 H 544.356 5.99796 4.60197 0
M  V30 5943 H 545.624 5.39463 5.62672 0
M  V30 5944 N 549.853 -0.472356 1.50355 0
M  V30 5945 C 550.801 -1.59126 1.69651 0
M  V30 5946 C 551.795 -1.59793 0.56237 0
M  V30 5947 O 553.001 -1.63957 0.742832 0
M  V30 5948 H 549.376 -0.528008 0.535454 0
M  V30 5949 H 551.347 -1.40013 2.63513 0
M  V30 5950 C 550.096 -2.97075 1.8067 0
M  V30 5951 H 549.419 -2.9728 2.67329 0
M  V30 5952 H 550.859 -3.74825 1.98197 0
M  V30 5953 C 549.318 -3.32247 0.558016 0
M  V30 5954 O 549.848 -4.00553 -0.303399 0
M  V30 5955 N 548.054 -2.87659 0.412415 0
M  V30 5956 H 547.601 -2.32246 1.11443 0
M  V30 5957 H 547.559 -3.11556 -0.421908 0
M  V30 5958 N 551.331 -1.39911 -0.725443 0
M  V30 5959 C 552.579 -1.37382 -1.48224 0
M  V30 5960 C 552.9 0.0264107 -1.94982 0
M  V30 5961 O 552.17 0.979408 -1.6966 0
M  V30 5962 H 550.75 -0.505596 -0.549892 0
M  V30 5963 H 553.412 -1.7487 -0.860608 0
M  V30 5964 H 552.508 -2.04254 -2.3598 0
M  V30 5965 N 552.809 0.956637 -1.25245 0
M  V30 5966 C 554.225 1.22733 -1.02023 0
M  V30 5967 C 554.425 1.99761 0.264186 0
M  V30 5968 O 553.481 2.32814 0.977436 0
M  V30 5969 C 554.794 2.00367 -2.24217 0
M  V30 5970 C 556.342 2.13418 -2.28958 0
M  V30 5971 C 556.817 2.9445 -3.50803 0
M  V30 5972 N 558.308 3.02029 -3.51187 0
M  V30 5973 C 559.043 3.65116 -4.42129 0
M  V30 5974 N 558.539 4.2983 -5.43339 0
M  V30 5975 N 560.332 3.62237 -4.29815 0
M  V30 5976 H 552.483 0.441282 -2.07765 0
M  V30 5977 H 554.746 0.257686 -0.912306 0
M  V30 5978 H 554.452 1.51165 -3.17556 0
M  V30 5979 H 554.326 3.01077 -2.27228 0
M  V30 5980 H 556.713 2.61819 -1.36143 0
M  V30 5981 H 556.794 1.1202 -2.29968 0
M  V30 5982 H 556.438 2.46741 -4.43939 0
M  V30 5983 H 556.368 3.9607 -3.47039 0
M  V30 5984 H 558.859 2.56007 -2.77973 0
M  V30 5985 H 559.172 4.75819 -6.08947 0
M  V30 5986 H 557.517 4.28465 -5.47214 0
M  V30 5987 H 560.708 3.10863 -3.49974 0
M  V30 5988 H 560.881 4.11117 -5.00886 0
M  V30 5989 N 554.287 1.06798 1.15896 0
M  V30 5990 C 555.698 0.811355 1.68149 0
M  V30 5991 C 556.049 -0.664339 1.8461 0
M  V30 5992 O 555.174 -1.51485 1.54535 0
M  V30 5993 C 555.769 1.46624 3.05429 0
M  V30 5994 C 554.328 1.25726 3.54781 0
M  V30 5995 C 553.475 1.53949 2.3064 0
M  V30 5996 H 556.426 1.23078 1.00187 0
M  V30 5997 H 556.447 0.88437 3.7008 0
M  V30 5998 H 555.959 2.54025 2.93416 0
M  V30 5999 H 554.06 0.20322 3.72045 0
M  V30 6000 H 554.173 1.97354 4.36564 0
M  V30 6001 H 552.537 0.96025 2.35905 0
M  V30 6002 H 553.32 2.6252 2.2122 0
M  V30 6003 N 555.766 -1.3263 0.851289 0
M  V30 6004 C 557.043 -1.91982 0.374448 0
M  V30 6005 C 557.423 -1.77568 -1.14161 0
M  V30 6006 O 556.771 -1.1717 -1.96172 0
M  V30 6007 C 556.981 -3.38862 0.835088 0
M  V30 6008 C 558.329 -4.15999 0.850309 0
M  V30 6009 O 559.353 -3.47566 0.779505 0
M  V30 6010 O 558.212 -5.38189 0.949481 0
M  V30 6011 H 555.306 -0.819846 0.10854 0
M  V30 6012 H 557.852 -1.41422 0.937966 0
M  V30 6013 H 556.624 -3.43281 1.87814 0
M  V30 6014 H 556.247 -3.96821 0.248833 0
M  V30 6015 N 557.244 -0.608902 -1.45362 0
M  V30 6016 C 558.474 -0.110852 -2.06302 0
M  V30 6017 C 558.882 1.21062 -1.45398 0
M  V30 6018 O 558.225 1.74861 -0.562976 0
M  V30 6019 C 558.287 0.101793 -3.59356 0
M  V30 6020 C 557.951 -1.13808 -4.42602 0
M  V30 6021 C 558.948 -2.05653 -4.77496 0
M  V30 6022 C 556.633 -1.36727 -4.83333 0
M  V30 6023 C 558.627 -3.18745 -5.51978 0
M  V30 6024 C 556.314 -2.5012 -5.57569 0
M  V30 6025 C 557.312 -3.40957 -5.91809 0
M  V30 6026 O 557 -4.52376 -6.64538 0
M  V30 6027 H 556.732 -0.0666001 -0.672711 0
M  V30 6028 H 559.286 -0.836942 -1.87575 0
M  V30 6029 H 557.516 0.88279 -3.76489 0
M  V30 6030 H 559.205 0.551607 -4.02134 0
M  V30 6031 H 559.971 -1.89172 -4.46586 0
M  V30 6032 H 555.85 -0.669216 -4.56117 0
M  V30 6033 H 559.394 -3.8967 -5.78622 0
M  V30 6034 H 555.291 -2.66553 -5.87894 0
M  V30 6035 H 556.059 -4.51075 -6.82989 0
M  V30 6036 N 558.722 1.53707 -0.348139 0
M  V30 6037 C 559.971 2.0017 0.247992 0
M  V30 6038 C 560.284 1.23983 1.51286 0
M  V30 6039 O 561.49 1.60946 2.18652 0
M  V30 6040 C 559.946 3.56515 0.492459 0
M  V30 6041 C 559.554 4.41562 -0.756777 0
M  V30 6042 C 561.298 4.11381 1.0472 0
M  V30 6043 C 559.205 5.89426 -0.482856 0
M  V30 6044 H 558.135 0.747806 0.0964452 0
M  V30 6045 H 560.786 1.77532 -0.464179 0
M  V30 6046 H 559.168 3.75236 1.26545 0
M  V30 6047 H 560.342 4.34615 -1.53122 0
M  V30 6048 H 558.657 3.97711 -1.23348 0
M  V30 6049 H 561.254 5.19468 1.26717 0
M  V30 6050 H 561.597 3.64885 2.00411 0
M  V30 6051 H 562.13 3.96389 0.334801 0
M  V30 6052 H 558.869 6.40164 -1.40962 0
M  V30 6053 H 558.389 5.99264 0.253416 0
M  V30 6054 H 560.068 6.4692 -0.101816 0
M  V30 6055 N 560.2 0.0768682 1.57412 0
M  V30 6056 C 561.449 -0.590679 1.92857 0
M  V30 6057 C 561.762 -1.70461 0.959293 0
M  V30 6058 O 562.968 -2.43207 1.20675 0
M  V30 6059 C 561.424 -1.10204 3.42612 0
M  V30 6060 C 561.032 -0.0188447 4.47996 0
M  V30 6061 C 562.776 -1.74336 3.87049 0
M  V30 6062 C 560.683 -0.544536 5.88888 0
M  V30 6063 H 559.613 -0.224411 0.71983 0
M  V30 6064 H 562.264 0.149924 1.82887 0
M  V30 6065 H 560.646 -1.89577 3.47673 0
M  V30 6066 H 561.82 0.755936 4.54557 0
M  V30 6067 H 560.135 0.526555 4.13057 0
M  V30 6068 H 562.732 -2.14708 4.89699 0
M  V30 6069 H 563.075 -2.60537 3.24694 0
M  V30 6070 H 563.608 -1.01577 3.84613 0
M  V30 6071 H 560.347 0.280426 6.549 0
M  V30 6072 H 559.867 -1.28673 5.85836 0
M  V30 6073 H 561.546 -1.01933 6.3892 0
M  V30 6074 N 561.678 -1.56367 -0.196722 0
M  V30 6075 C 562.924 -1.80796 -0.918725 0
M  V30 6076 C 563.257 -0.650645 -1.82976 0
M  V30 6077 O 562.532 0.348889 -1.91345 0
M  V30 6078 C 562.815 -3.15472 -1.73636 0
M  V30 6079 C 562.668 -4.41693 -0.85015 0
M  V30 6080 C 563.987 -3.46824 -2.70927 0
M  V30 6081 H 561.106 -0.657702 -0.332561 0
M  V30 6082 H 563.748 -1.89086 -0.186186 0
M  V30 6083 H 561.898 -3.08536 -2.36088 0
M  V30 6084 H 563.57 -4.60673 -0.240459 0
M  V30 6085 H 561.813 -4.33517 -0.156785 0
M  V30 6086 H 562.484 -5.32419 -1.45719 0
M  V30 6087 H 564.96 -3.54049 -2.18607 0
M  V30 6088 H 563.836 -4.4218 -3.25219 0
M  V30 6089 H 564.097 -2.70236 -3.49893 0
M  V30 6090 N 563.156 0.464375 -1.50603 0
M  V30 6091 C 564.384 1.23907 -1.65695 0
M  V30 6092 C 564.799 1.85658 -0.343027 0
M  V30 6093 O 564.156 1.69529 0.675739 0
M  V30 6094 C 564.207 2.3429 -2.75301 0
M  V30 6095 O 563.928 1.7507 -4.01599 0
M  V30 6096 C 565.429 3.25051 -3.01424 0
M  V30 6097 H 562.649 0.374485 -0.556778 0
M  V30 6098 H 565.193 0.55353 -1.96866 0
M  V30 6099 H 563.348 2.98607 -2.46804 0
M  V30 6100 H 563.762 2.47812 -4.62266 0
M  V30 6101 H 565.236 3.98699 -3.81763 0
M  V30 6102 H 565.713 3.84227 -2.12758 0
M  V30 6103 H 566.319 2.66463 -3.31477 0
M  V30 6104 N 564.634 1.40294 0.718013 0
M  V30 6105 C 565.566 1.36281 1.84283 0
M  V30 6106 C 566.579 0.268621 1.60569 0
M  V30 6107 O 567.768 0.528798 1.70487 0
M  V30 6108 C 564.868 1.09741 3.2064 0
M  V30 6109 C 564.041 2.30767 3.71571 0
M  V30 6110 C 563.1 2.00424 4.86535 0
M  V30 6111 O 562.126 2.73268 4.99313 0
M  V30 6112 N 563.328 0.980724 5.72156 0
M  V30 6113 H 566.093 2.3322 1.88225 0
M  V30 6114 H 563.654 1.34616 0.899453 0
M  V30 6115 H 565.646 0.874322 3.95143 0
M  V30 6116 H 564.216 0.214771 3.11861 0
M  V30 6117 H 563.436 2.68921 2.88228 0
M  V30 6118 H 564.724 3.11455 4.02335 0
M  V30 6119 H 564.122 0.377375 5.6444 0
M  V30 6120 H 562.679 0.817538 6.46653 0
M  V30 6121 N 566.112 -0.949982 1.2575 0
M  V30 6122 C 567.528 -1.22191 1.02672 0
M  V30 6123 C 567.728 -1.99898 -0.253588 0
M  V30 6124 O 566.784 -2.33329 -0.965076 0
M  V30 6125 C 568.097 -1.99175 2.25277 0
M  V30 6126 C 569.645 -2.12201 2.30087 0
M  V30 6127 C 570.12 -2.92586 3.5236 0
M  V30 6128 N 571.611 -3.00163 3.52784 0
M  V30 6129 C 572.346 -3.62766 4.44059 0
M  V30 6130 N 571.842 -4.26943 5.45611 0
M  V30 6131 N 573.635 -3.59953 4.3173 0
M  V30 6132 H 565.786 -0.430258 2.07996 0
M  V30 6133 H 568.049 -0.252844 0.91366 0
M  V30 6134 H 567.755 -1.49479 3.18354 0
M  V30 6135 H 567.629 -2.99868 2.28821 0
M  V30 6136 H 570.016 -2.61093 1.3753 0
M  V30 6137 H 570.097 -1.10799 2.30559 0
M  V30 6138 H 569.741 -2.44383 4.45241 0
M  V30 6139 H 569.671 -3.94224 3.49134 0
M  V30 6140 H 572.162 -2.54529 2.79327 0
M  V30 6141 H 572.475 -4.72583 6.11461 0
M  V30 6142 H 570.82 -4.25557 5.49478 0
M  V30 6143 H 574.011 -3.09003 3.51617 0
M  V30 6144 H 574.184 -4.08455 5.03059 0
M  V30 6145 N 567.59 -1.07411 -1.15328 0
M  V30 6146 C 569.001 -0.820261 -1.67716 0
M  V30 6147 C 569.352 0.654539 -1.8496 0
M  V30 6148 O 568.477 1.50664 -1.55337 0
M  V30 6149 C 569.072 -1.48242 -3.04647 0
M  V30 6150 C 567.631 -1.27606 -3.5411 0
M  V30 6151 C 566.778 -1.5517 -2.29821 0
M  V30 6152 H 569.729 -1.23608 -0.995332 0
M  V30 6153 H 569.75 -0.903984 -3.69606 0
M  V30 6154 H 569.262 -2.55578 -2.92064 0
M  V30 6155 H 567.363 -0.222948 -3.71932 0
M  V30 6156 H 567.476 -1.99667 -4.35511 0
M  V30 6157 H 565.84 -0.972747 -2.35393 0
M  V30 6158 H 566.623 -2.63689 -2.19824 0
M  V30 6159 N 569.068 1.32177 -0.85831 0
M  V30 6160 C 569.998 2.31282 -0.321041 0
M  V30 6161 C 570.979 1.59841 0.581786 0
M  V30 6162 O 572.164 1.87619 0.501262 0
M  V30 6163 C 569.294 3.4385 0.48832 0
M  V30 6164 C 568.248 4.26799 -0.320391 0
M  V30 6165 C 567.574 5.31164 0.613934 0
M  V30 6166 C 568.874 4.98829 -1.54813 0
M  V30 6167 H 570.568 2.76469 -1.14915 0
M  V30 6168 H 568.114 1.32916 -0.554028 0
M  V30 6169 H 570.067 4.12224 0.874626 0
M  V30 6170 H 568.791 2.97401 1.34983 0
M  V30 6171 H 567.45 3.60077 -0.688497 0
M  V30 6172 H 567.098 4.80967 1.47239 0
M  V30 6173 H 566.798 5.8755 0.0768097 0
M  V30 6174 H 568.322 6.024 0.997336 0
M  V30 6175 H 569.736 5.59864 -1.23392 0
M  V30 6176 H 568.133 5.64957 -2.02346 0
M  V30 6177 H 569.203 4.26483 -2.30739 0
M  V30 6178 N 570.547 0.616602 1.45037 0
M  V30 6179 C 571.775 0.121968 2.0654 0
M  V30 6180 C 572.19 -1.19743 1.45969 0
M  V30 6181 O 571.547 -1.73133 0.577168 0
M  V30 6182 C 571.598 -0.0145171 3.61497 0
M  V30 6183 O 571.319 1.25269 4.19809 0
M  V30 6184 C 572.82 -0.539555 4.40004 0
M  V30 6185 H 570.04 0.0729837 0.667019 0
M  V30 6186 H 572.584 0.846891 1.8614 0
M  V30 6187 H 570.739 -0.689809 3.81209 0
M  V30 6188 H 571.153 1.08816 5.13088 0
M  V30 6189 H 572.627 -0.584112 5.48901 0
M  V30 6190 H 573.104 -1.56368 4.10421 0
M  V30 6191 H 573.71 0.101995 4.25178 0
M  V30 6192 N 572.025 -1.5352 0.356285 0
M  V30 6193 C 573.302 -1.93405 -0.292223 0
M  V30 6194 C 573.682 -1.28901 -1.67176 0
M  V30 6195 O 573.03 -0.444632 -2.24132 0
M  V30 6196 C 573.24 -3.47223 -0.35175 0
M  V30 6197 C 574.588 -4.20389 -0.596534 0
M  V30 6198 O 575.612 -3.53554 -0.433344 0
M  V30 6199 O 574.471 -5.3881 -0.913589 0
M  V30 6200 H 571.565 -0.808666 -0.173172 0
M  V30 6201 H 574.111 -1.64713 0.408391 0
M  V30 6202 H 572.883 -3.86423 0.615841 0
M  V30 6203 H 572.506 -3.8212 -1.09864 0
M  V30 6204 N 573.503 -0.0852151 -1.57369 0
M  V30 6205 C 574.413 0.891712 -2.16992 0
M  V30 6206 C 575.429 1.3174 -1.13669 0
M  V30 6207 O 576.605 1.38735 -1.45995 0
M  V30 6208 C 573.67 2.13635 -2.73059 0
M  V30 6209 C 572.731 1.7658 -3.91303 0
M  V30 6210 C 571.964 2.95111 -4.44686 0
M  V30 6211 O 572.187 4.09539 -3.97032 0
M  V30 6212 O 571.121 2.74149 -5.35841 0
M  V30 6213 H 574.947 0.414477 -3.00858 0
M  V30 6214 H 572.532 0.138598 -1.48756 0
M  V30 6215 H 574.414 2.86595 -3.08935 0
M  V30 6216 H 573.089 2.6043 -1.92244 0
M  V30 6217 H 571.996 1.00831 -3.60255 0
M  V30 6218 H 573.329 1.34557 -4.7345 0
M  V30 6219 N 574.981 1.5647 0.188427 0
M  V30 6220 C 575.891 1.98285 1.2538 0
M  V30 6221 C 576.907 0.891535 1.49424 0
M  V30 6222 O 578.083 1.19782 1.61908 0
M  V30 6223 C 575.148 2.31965 2.57669 0
M  V30 6224 C 574.209 3.54838 2.41638 0
M  V30 6225 C 573.442 3.86901 3.67618 0
M  V30 6226 O 573.665 3.20163 4.72072 0
M  V30 6227 O 572.599 4.80309 3.62749 0
M  V30 6228 H 576.425 2.89145 0.928912 0
M  V30 6229 H 574.01 1.44112 0.393955 0
M  V30 6230 H 575.892 2.54673 3.35737 0
M  V30 6231 H 574.567 1.44271 2.89771 0
M  V30 6232 H 573.474 3.37369 1.61658 0
M  V30 6233 H 574.807 4.43019 2.14465 0
M  V30 6234 N 576.459 -0.456382 1.50847 0
M  V30 6235 C 577.707 -1.20497 1.62249 0
M  V30 6236 C 578.028 -1.92156 0.331839 0
M  V30 6237 O 577.298 -1.84751 -0.651443 0
M  V30 6238 H 575.878 -0.447775 0.597918 0
M  V30 6239 H 578.54 -0.525099 1.87693 0
M  V30 6240 H 577.636 -1.94492 2.44089 0
M  V30 6241 N 577.937 -1.40673 -0.710563 0
M  V30 6242 C 579.165 -1.42547 -1.4996 0
M  V30 6243 C 579.58 -0.0265485 -1.88781 0
M  V30 6244 O 578.937 0.950694 -1.55782 0
M  V30 6245 C 578.988 -2.32071 -2.77173 0
M  V30 6246 O 578.709 -3.66518 -2.39992 0
M  V30 6247 C 580.21 -2.42591 -3.71032 0
M  V30 6248 H 577.43 -0.486025 -0.462623 0
M  V30 6249 H 579.974 -1.84783 -0.876102 0
M  V30 6250 H 578.129 -1.93184 -3.35795 0
M  V30 6251 H 578.543 -4.14115 -3.21884 0
M  V30 6252 H 580.017 -3.09429 -4.57119 0
M  V30 6253 H 580.494 -1.4525 -4.14486 0
M  V30 6254 H 581.1 -2.82051 -3.18319 0
M  V30 6255 N 579.415 0.9433 -1.26252 0
M  V30 6256 C 580.325 2.07532 -1.09397 0
M  V30 6257 C 581.341 1.73977 -0.0280449 0
M  V30 6258 O 582.517 2.00067 -0.231337 0
M  V30 6259 C 579.582 3.39002 -0.726523 0
M  V30 6260 C 578.643 3.86353 -1.87163 0
M  V30 6261 C 577.876 5.11549 -1.52162 0
M  V30 6262 O 578.099 5.68834 -0.422385 0
M  V30 6263 O 577.033 5.53889 -2.35565 0
M  V30 6264 H 580.859 2.24658 -2.04359 0
M  V30 6265 H 578.444 1.05988 -1.05295 0
M  V30 6266 H 580.326 4.18 -0.534236 0
M  V30 6267 H 579.001 3.2312 0.193721 0
M  V30 6268 H 577.908 3.0831 -2.11886 0
M  V30 6269 H 579.241 4.06752 -2.77152 0
M  V30 6270 N 580.893 1.08022 1.14757 0
M  V30 6271 C 581.843 0.676345 2.17737 0
M  V30 6272 C 582.827 -0.302018 1.5804 0
M  V30 6273 O 584.019 -0.11466 1.76628 0
M  V30 6274 C 581.148 0.082984 3.432 0
M  V30 6275 C 580.234 1.0869 4.09936 0
M  V30 6276 N 580.625 2.26891 4.52055 0
M  V30 6277 C 578.923 0.921768 4.36371 0
M  V30 6278 C 579.624 2.90636 5.0389 0
M  V30 6279 N 578.6 2.18266 4.97856 0
M  V30 6280 H 582.402 1.5765 2.4804 0
M  V30 6281 H 579.916 0.954374 1.31398 0
M  V30 6282 H 581.913 -0.224289 4.16296 0
M  V30 6283 H 580.573 -0.812206 3.14378 0
M  V30 6284 H 581.584 2.6457 4.45223 0
M  V30 6285 H 578.261 0.0800499 4.17423 0
M  V30 6286 H 579.651 3.9104 5.46386 0
M  V30 6287 N 582.371 -1.3172 0.865308 0
M  V30 6288 C 583.301 -2.31109 0.333302 0
M  V30 6289 C 584.282 -1.60148 -0.573301 0
M  V30 6290 O 585.467 -1.87882 -0.491305 0
M  V30 6291 C 582.597 -3.44104 -0.470078 0
M  V30 6292 C 581.551 -4.26623 0.343021 0
M  V30 6293 C 580.877 -5.31482 -0.585756 0
M  V30 6294 C 582.177 -4.98001 1.57456 0
M  V30 6295 H 583.871 -2.75855 1.1638 0
M  V30 6296 H 581.417 -1.3262 0.561069 0
M  V30 6297 H 583.37 -4.12682 -0.852752 0
M  V30 6298 H 582.094 -2.98112 -1.33404 0
M  V30 6299 H 580.753 -3.59707 0.707583 0
M  V30 6300 H 580.401 -4.81741 -1.44686 0
M  V30 6301 H 580.101 -5.87582 -0.0456494 0
M  V30 6302 H 581.625 -6.0292 -0.965375 0
M  V30 6303 H 583.039 -5.59201 1.26359 0
M  V30 6304 H 581.436 -5.63876 2.05339 0
M  V30 6305 H 582.506 -4.25253 2.32997 0
M  V30 6306 N 583.85 -0.624285 -1.44708 0
M  V30 6307 C 585.266 -0.289322 -1.56956 0
M  V30 6308 C 585.466 1.20773 -1.61295 0
M  V30 6309 O 584.522 1.9915 -1.55227 0
M  V30 6310 C 585.835 -0.975215 -2.84447 0
M  V30 6311 C 587.383 -0.952709 -2.98148 0
M  V30 6312 C 587.858 -1.61893 -4.28433 0
M  V30 6313 N 589.349 -1.5852 -4.35231 0
M  V30 6314 C 590.084 -2.06969 -5.34744 0
M  V30 6315 N 589.58 -2.63579 -6.40701 0
M  V30 6316 N 591.373 -1.97638 -5.26209 0
M  V30 6317 H 583.524 -1.59612 -1.40135 0
M  V30 6318 H 585.787 -0.669592 -0.671081 0
M  V30 6319 H 585.493 -2.02999 -2.87201 0
M  V30 6320 H 585.367 -0.508749 -3.73753 0
M  V30 6321 H 587.754 0.093568 -2.94952 0
M  V30 6322 H 587.835 -1.4576 -2.10209 0
M  V30 6323 H 587.479 -2.66463 -4.32389 0
M  V30 6324 H 587.409 -1.08893 -5.15218 0
M  V30 6325 H 589.899 -1.17183 -3.59272 0
M  V30 6326 H 590.213 -2.98298 -7.12908 0
M  V30 6327 H 588.558 -2.67626 -6.41406 0
M  V30 6328 H 591.749 -1.5314 -4.42341 0
M  V30 6329 H 591.922 -2.35708 -6.03611 0
M  V30 6330 N 585.328 1.53329 -0.364422 0
M  V30 6331 C 586.275 2.25698 0.482607 0
M  V30 6332 C 587.245 1.26325 1.07848 0
M  V30 6333 O 588.43 1.55104 1.11119 0
M  V30 6334 C 585.57 3.04873 1.61699 0
M  V30 6335 C 584.683 4.19135 1.0464 0
M  V30 6336 C 583.818 4.85754 2.14979 0
M  V30 6337 C 582.857 5.9205 1.5538 0
M  V30 6338 N 581.994 6.52365 2.59547 0
M  V30 6339 H 586.834 2.97666 -0.141032 0
M  V30 6340 H 584.371 1.46875 -0.0813692 0
M  V30 6341 H 586.329 3.49051 2.28516 0
M  V30 6342 H 584.959 2.35162 2.2113 0
M  V30 6343 H 584.011 3.79451 0.268553 0
M  V30 6344 H 585.323 4.95525 0.570653 0
M  V30 6345 H 584.477 5.3311 2.89619 0
M  V30 6346 H 583.216 4.08834 2.65906 0
M  V30 6347 H 582.221 5.44058 0.792549 0
M  V30 6348 H 583.446 6.7089 1.0528 0
M  V30 6349 H 581.392 5.78298 3.09689 0
M  V30 6350 H 581.309 7.2429 2.16655 0
M  V30 6351 H 582.577 7.0437 3.33892 0
M  V30 6352 N 586.806 0.0935595 1.57322 0
M  V30 6353 C 588.222 -0.263091 1.57417 0
M  V30 6354 C 588.422 -1.68526 1.1046 0
M  V30 6355 O 587.478 -2.40139 0.780357 0
M  V30 6356 C 588.791 -0.0529201 3.00653 0
M  V30 6357 C 590.339 -0.120788 3.12767 0
M  V30 6358 C 590.814 0.0613707 4.57959 0
M  V30 6359 N 592.305 0.00648534 4.632 0
M  V30 6360 C 593.04 0.122699 5.73269 0
M  V30 6361 N 592.536 0.29366 6.92177 0
M  V30 6362 N 594.329 0.0640787 5.62063 0
M  V30 6363 H 586.48 1.02277 1.86154 0
M  V30 6364 H 588.743 0.4007 0.859153 0
M  V30 6365 H 588.449 0.929279 3.39201 0
M  V30 6366 H 588.323 -0.795899 3.68708 0
M  V30 6367 H 590.71 -1.09349 2.74093 0
M  V30 6368 H 590.791 0.653656 2.47307 0
M  V30 6369 H 590.435 1.03093 4.97327 0
M  V30 6370 H 590.365 -0.732748 5.21477 0
M  V30 6371 H 592.856 -0.123173 3.77699 0
M  V30 6372 H 593.169 0.37389 7.71895 0
M  V30 6373 H 591.514 0.329307 6.94219 0
M  V30 6374 H 594.705 -0.0683396 4.6805 0
M  V30 6375 H 594.878 0.158097 6.47807 0
M  V30 6376 N 588.284 -1.56567 -0.180126 0
M  V30 6377 C 589.232 -1.96632 -1.24251 0
M  V30 6378 C 590.226 -0.853818 -1.46309 0
M  V30 6379 O 591.432 -1.0389 -1.46993 0
M  V30 6380 H 587.807 -0.625476 -0.417473 0
M  V30 6381 H 589.778 -2.85201 -0.877679 0
M  V30 6382 C 588.527 -2.33486 -2.57642 0
M  V30 6383 H 587.85 -3.18626 -2.4149 0
M  V30 6384 H 589.29 -2.65371 -3.30688 0
M  V30 6385 C 587.749 -1.17499 -3.15746 0
M  V30 6386 O 588.279 -0.457956 -3.99081 0
M  V30 6387 N 586.485 -0.94786 -2.74707 0
M  V30 6388 H 586.032 -1.53269 -2.07042 0
M  V30 6389 H 585.99 -0.173626 -3.1392 0
M  V30 6390 N 589.762 0.448376 -1.51087 0
M  V30 6391 C 590.99 1.22143 -1.66999 0
M  V30 6392 C 591.405 1.85283 -0.362699 0
M  V30 6393 O 590.762 1.70236 0.65772 0
M  V30 6394 C 590.813 2.31357 -2.7777 0
M  V30 6395 O 590.534 1.70801 -4.03434 0
M  V30 6396 C 592.035 3.21836 -3.04855 0
M  V30 6397 H 589.255 0.368558 -0.560719 0
M  V30 6398 H 591.799 0.532618 -1.97442 0
M  V30 6399 H 589.954 2.95973 -2.49958 0
M  V30 6400 H 590.368 2.42895 -4.64868 0
M  V30 6401 H 591.842 3.94627 -3.85971 0
M  V30 6402 H 592.319 3.81949 -2.16821 0
M  V30 6403 H 592.925 2.62933 -3.34285 0
M  V30 6404 N 591.24 1.41047 0.703093 0
M  V30 6405 C 592.187 1.42302 1.81711 0
M  V30 6406 C 593.157 0.278336 1.63751 0
M  V30 6407 O 594.342 0.478266 1.84709 0
M  V30 6408 C 591.482 1.30362 3.19531 0
M  V30 6409 C 590.595 2.54638 3.48975 0
M  V30 6410 C 589.73 2.35047 4.76368 0
M  V30 6411 C 588.769 3.54837 4.98756 0
M  V30 6412 N 587.906 3.34363 6.1737 0
M  V30 6413 H 592.746 2.37516 1.79973 0
M  V30 6414 H 590.283 1.1795 0.878983 0
M  V30 6415 H 592.241 1.21443 3.99134 0
M  V30 6416 H 590.871 0.387602 3.20464 0
M  V30 6417 H 589.923 2.74037 2.63833 0
M  V30 6418 H 591.235 3.43766 3.61423 0
M  V30 6419 H 590.389 2.23552 5.64012 0
M  V30 6420 H 589.128 1.43363 4.66153 0
M  V30 6421 H 588.133 3.66795 4.09563 0
M  V30 6422 H 589.358 4.47464 5.10835 0
M  V30 6423 H 587.304 2.45373 6.08382 0
M  V30 6424 H 587.221 4.17063 6.30551 0
M  V30 6425 H 588.489 3.26626 7.07768 0
M  V30 6426 N 592.718 -0.936591 1.26751 0
M  V30 6427 C 593.648 -2.05315 1.11212 0
M  V30 6428 C 594.629 -1.70092 0.0160262 0
M  V30 6429 O 595.814 -1.93279 0.188894 0
M  V30 6430 C 592.944 -3.39123 0.749171 0
M  V30 6431 C 591.898 -3.88425 1.79751 0
M  V30 6432 C 591.224 -5.18936 1.28876 0
M  V30 6433 C 592.524 -4.12798 3.19992 0
M  V30 6434 H 594.218 -2.18573 2.04613 0
M  V30 6435 H 591.764 -1.05027 0.985159 0
M  V30 6436 H 593.717 -4.16704 0.627323 0
M  V30 6437 H 592.441 -3.25855 -0.220543 0
M  V30 6438 H 591.1 -3.13028 1.90811 0
M  V30 6439 H 590.748 -5.02051 0.308757 0
M  V30 6440 H 590.448 -5.52892 1.98958 0
M  V30 6441 H 591.972 -5.99096 1.17967 0
M  V30 6442 H 593.386 -4.80977 3.11983 0
M  V30 6443 H 591.783 -4.58044 3.87705 0
M  V30 6444 H 592.853 -3.18412 3.65707 0
M  V30 6445 N 594.196 -1.08629 -1.14182 0
M  V30 6446 C 595.607 -0.838003 -1.66836 0
M  V30 6447 C 595.958 0.634885 -1.85644 0
M  V30 6448 O 595.083 1.49008 -1.56926 0
M  V30 6449 C 595.678 -1.51465 -3.03058 0
M  V30 6450 C 594.237 -1.31355 -3.52736 0
M  V30 6451 C 593.384 -1.57599 -2.28162 0
M  V30 6452 H 596.335 -1.24656 -0.982165 0
M  V30 6453 H 596.356 -0.943134 -3.68626 0
M  V30 6454 H 595.868 -2.58661 -2.89337 0
M  V30 6455 H 593.969 -0.262384 -3.71675 0
M  V30 6456 H 594.082 -2.04275 -4.33369 0
M  V30 6457 H 592.446 -0.997659 -2.34348 0
M  V30 6458 H 593.229 -2.66006 -2.17015 0
M  V30 6459 N 595.674 1.31259 -0.872281 0
M  V30 6460 C 596.921 1.96622 -0.484365 0
M  V30 6461 C 597.249 1.68939 0.963841 0
M  V30 6462 O 596.504 0.97974 1.6941 0
M  V30 6463 C 596.803 3.50659 -0.690889 0
M  V30 6464 C 596.469 3.98366 -2.11224 0
M  V30 6465 C 595.131 4.11104 -2.50094 0
M  V30 6466 C 597.483 4.23425 -3.0391 0
M  V30 6467 C 594.811 4.46254 -3.80887 0
M  V30 6468 C 597.163 4.60039 -4.3422 0
M  V30 6469 C 595.827 4.70984 -4.73001 0
M  V30 6470 H 595.097 0.71949 -0.177242 0
M  V30 6471 H 597.744 1.56353 -1.10571 0
M  V30 6472 H 596.049 3.91798 0.0135782 0
M  V30 6473 H 597.746 3.99284 -0.370534 0
M  V30 6474 H 594.336 3.88949 -1.80047 0
M  V30 6475 H 598.52 4.13075 -2.75104 0
M  V30 6476 H 593.776 4.52926 -4.10692 0
M  V30 6477 H 597.95 4.78381 -5.06088 0
M  V30 6478 H 595.577 4.97977 -5.7439 0
M  V30 6479 N 597.152 0.631951 1.44375 0
M  V30 6480 C 598.085 -0.121822 2.27875 0
M  V30 6481 C 599.063 -0.850457 1.38586 0
M  V30 6482 O 600.247 -0.854378 1.68026 0
M  V30 6483 C 597.374 -1.17859 3.17533 0
M  V30 6484 C 596.42 -0.550391 4.22934 0
M  V30 6485 S 597.253 0.660145 5.31415 0
M  V30 6486 C 598.409 -0.396613 6.24642 0
M  V30 6487 H 598.642 0.586537 2.91457 0
M  V30 6488 H 596.175 0.420146 1.48574 0
M  V30 6489 H 598.133 -1.78335 3.69739 0
M  V30 6490 H 596.794 -1.85915 2.53169 0
M  V30 6491 H 595.987 -1.34631 4.85685 0
M  V30 6492 H 595.589 -0.0202306 3.73995 0
M  V30 6493 H 597.881 -1.26893 6.65511 0
M  V30 6494 H 598.824 0.195345 7.0783 0
M  V30 6495 H 599.232 -0.72288 5.59852 0
M  V30 6496 N 598.631 -1.53133 0.372548 0
M  V30 6497 C 599.878 -2.01356 -0.214959 0
M  V30 6498 C 600.206 -1.2596 -1.48204 0
M  V30 6499 O 599.461 -0.343511 -1.92662 0
M  V30 6500 C 599.76 -3.53206 -0.545938 0
M  V30 6501 C 599.426 -4.46511 0.627624 0
M  V30 6502 C 598.088 -4.71737 0.949615 0
M  V30 6503 C 600.44 -5.01666 1.41353 0
M  V30 6504 C 597.768 -5.4937 2.05936 0
M  V30 6505 C 600.12 -5.80511 2.51375 0
M  V30 6506 C 598.784 -6.04022 2.84101 0
M  V30 6507 H 598.054 -0.736813 -0.078659 0
M  V30 6508 H 600.701 -1.84682 0.506447 0
M  V30 6509 H 599.006 -3.67864 -1.34845 0
M  V30 6510 H 600.703 -3.87997 -1.01287 0
M  V30 6511 H 597.293 -4.27029 0.366635 0
M  V30 6512 H 601.477 -4.82117 1.17802 0
M  V30 6513 H 596.733 -5.65803 2.31682 0
M  V30 6514 H 600.907 -6.22255 3.12684 0
M  V30 6515 H 598.534 -6.63962 3.70214 0
M  V30 6516 N 600.109 -0.101901 -1.5727 0
M  V30 6517 C 601.337 0.568392 -1.98939 0
M  V30 6518 C 601.752 1.61301 -0.981194 0
M  V30 6519 O 601.109 1.82478 0.0282869 0
M  V30 6520 C 601.16 1.20997 -3.40649 0
M  V30 6521 O 600.881 0.207129 -4.3761 0
M  V30 6522 C 602.382 1.96523 -3.97358 0
M  V30 6523 H 599.602 0.15186 -0.65359 0
M  V30 6524 H 602.146 -0.183198 -2.03678 0
M  V30 6525 H 600.301 1.91245 -3.36904 0
M  V30 6526 H 600.715 0.671071 -5.20189 0
M  V30 6527 H 602.189 2.36764 -4.98645 0
M  V30 6528 H 602.666 2.83376 -3.35552 0
M  V30 6529 H 603.272 1.31076 -4.04598 0
M  V30 6530 N 601.587 1.56661 0.17182 0
M  V30 6531 C 602.815 1.861 0.904115 0
M  V30 6532 C 603.23 0.687227 1.75848 0
M  V30 6533 O 602.587 -0.343671 1.79235 0
M  V30 6534 C 602.638 3.14568 1.78127 0
M  V30 6535 O 602.359 4.27422 0.961366 0
M  V30 6536 C 603.86 3.5735 2.62327 0
M  V30 6537 H 601.08 0.617445 0.262684 0
M  V30 6538 H 603.624 2.03775 0.172068 0
M  V30 6539 H 601.779 2.98721 2.46666 0
M  V30 6540 H 602.193 5.00725 1.56123 0
M  V30 6541 H 603.667 4.50144 3.1949 0
M  V30 6542 H 604.144 2.81445 3.37173 0
M  V30 6543 H 604.75 3.75807 1.99121 0
M  V30 6544 N 603.065 -0.440357 1.51323 0
M  V30 6545 C 604.313 -1.18769 1.63518 0
M  V30 6546 C 604.634 -1.91793 0.352201 0
M  V30 6547 O 603.904 -1.85432 -0.631811 0
M  V30 6548 H 602.484 -0.441408 0.602634 0
M  V30 6549 H 605.146 -0.505162 1.8824 0
M  V30 6550 H 604.242 -1.91892 2.46138 0
M  V30 6551 N 604.543 -1.41418 -0.695603 0
M  V30 6552 C 605.453 -1.45622 -1.83933 0
M  V30 6553 C 606.469 -0.346825 -1.70508 0
M  V30 6554 O 607.645 -0.59454 -1.92424 0
M  V30 6555 C 604.71 -1.33627 -3.19914 0
M  V30 6556 C 603.771 -2.54882 -3.45447 0
M  V30 6557 C 603.004 -2.43449 -4.7494 0
M  V30 6558 O 603.227 -1.45905 -5.51424 0
M  V30 6559 O 602.161 -3.33206 -5.01256 0
M  V30 6560 H 605.987 -2.42114 -1.83342 0
M  V30 6561 H 603.572 -1.22956 -0.848658 0
M  V30 6562 H 605.454 -1.29221 -4.01098 0
M  V30 6563 H 604.129 -0.402508 -3.21188 0
M  V30 6564 H 603.036 -2.64865 -2.64192 0
M  V30 6565 H 604.369 -3.47087 -3.48987 0
M  V30 6566 N 606.021 0.929856 -1.27246 0
M  V30 6567 C 606.984 2.01172 -1.09829 0
M  V30 6568 C 607.984 1.60743 -0.0429687 0
M  V30 6569 O 609.174 1.71813 -0.287373 0
M  V30 6570 C 606.306 3.34191 -0.673003 0
M  V30 6571 H 607.499 2.18054 -2.05895 0
M  V30 6572 H 605.052 1.11036 -1.10003 0
M  V30 6573 H 605.787 3.23009 0.289134 0
M  V30 6574 H 605.572 3.64892 -1.43515 0
M  V30 6575 H 607.062 4.13646 -0.573323 0
M  V30 6576 N 607.499 1.09233 1.13605 0
M  V30 6577 C 608.745 0.828385 1.8511 0
M  V30 6578 C 609.078 -0.64437 1.83198 0
M  V30 6579 O 608.353 -1.47428 1.26867 0
M  V30 6580 C 608.636 1.36167 3.33363 0
M  V30 6581 C 608.489 2.90038 3.438 0
M  V30 6582 C 609.808 0.993819 4.28732 0
M  V30 6583 H 606.927 0.30239 0.672108 0
M  V30 6584 H 609.569 1.35339 1.33355 0
M  V30 6585 H 607.719 0.9151 3.77569 0
M  V30 6586 H 609.391 3.43128 3.08319 0
M  V30 6587 H 607.634 3.27271 2.84739 0
M  V30 6588 H 608.305 3.22428 4.48045 0
M  V30 6589 H 610.781 1.37893 3.92587 0
M  V30 6590 H 609.657 1.39403 5.30903 0
M  V30 6591 H 609.918 -0.0982206 4.41991 0
M  V30 6592 N 608.977 -1.30795 0.87923 0
M  V30 6593 C 609.907 -2.30742 0.357796 0
M  V30 6594 C 610.888 -1.60747 -0.556283 0
M  V30 6595 O 612.073 -1.88393 -0.47135 0
M  V30 6596 C 609.203 -3.44583 -0.433555 0
M  V30 6597 C 608.157 -4.26235 0.388251 0
M  V30 6598 C 607.483 -5.32073 -0.529352 0
M  V30 6599 C 608.783 -4.96303 1.62729 0
M  V30 6600 H 610.477 -2.74605 1.19299 0
M  V30 6601 H 608.023 -1.32017 0.575104 0
M  V30 6602 H 609.976 -4.13563 -0.808934 0
M  V30 6603 H 608.7 -2.99511 -1.30234 0
M  V30 6604 H 607.359 -3.58936 0.745695 0
M  V30 6605 H 607.007 -4.83249 -1.39569 0
M  V30 6606 H 606.707 -5.87598 0.0166741 0
M  V30 6607 H 608.231 -6.0391 -0.901373 0
M  V30 6608 H 609.645 -5.5783 1.32283 0
M  V30 6609 H 608.042 -5.61666 2.11309 0
M  V30 6610 H 609.112 -4.22758 2.37494 0
M  V30 6611 N 610.455 -0.639598 -1.44038 0
M  V30 6612 C 611.685 -0.154586 -2.06021 0
M  V30 6613 C 612.093 1.17951 -1.47933 0
M  V30 6614 O 611.436 1.73627 -0.59994 0
M  V30 6615 C 611.498 0.0255459 -3.59491 0
M  V30 6616 C 611.162 -1.2317 -4.40089 0
M  V30 6617 C 612.159 -2.15735 -4.73027 0
M  V30 6618 C 609.844 -1.46949 -4.80324 0
M  V30 6619 C 611.838 -3.30382 -5.45093 0
M  V30 6620 C 609.525 -2.61891 -5.52138 0
M  V30 6621 C 610.523 -3.53433 -5.84443 0
M  V30 6622 O 610.211 -4.6637 -6.54793 0
M  V30 6623 H 609.943 -0.0808543 -0.671147 0
M  V30 6624 H 612.497 -0.876541 -1.85758 0
M  V30 6625 H 610.727 0.802733 -3.78276 0
M  V30 6626 H 612.416 0.466184 -4.03214 0
M  V30 6627 H 613.182 -1.98602 -4.42473 0
M  V30 6628 H 609.061 -0.765815 -4.54595 0
M  V30 6629 H 612.605 -4.01856 -5.70226 0
M  V30 6630 H 608.502 -2.78964 -5.82108 0
M  V30 6631 H 609.27 -4.6546 -6.73267 0
M  V30 6632 N 611.933 1.52934 -0.380664 0
M  V30 6633 C 612.843 2.29921 0.466192 0
M  V30 6634 C 613.859 1.36488 1.07922 0
M  V30 6635 O 615.035 1.69553 1.0869 0
M  V30 6636 C 612.1 3.08468 1.58266 0
M  V30 6637 C 611.161 4.17595 0.995627 0
M  V30 6638 C 610.394 4.92387 2.05889 0
M  V30 6639 O 610.617 4.67184 3.27254 0
M  V30 6640 O 609.551 5.77949 1.68102 0
M  V30 6641 H 613.377 3.03274 -0.160735 0
M  V30 6642 H 610.962 1.48698 -0.144617 0
M  V30 6643 H 612.844 3.57469 2.23145 0
M  V30 6644 H 611.519 2.37937 2.19471 0
M  V30 6645 H 610.426 3.72811 0.310332 0
M  V30 6646 H 611.759 4.90336 0.427918 0
M  V30 6647 N 613.412 0.11024 1.57214 0
M  V30 6648 C 614.375 -0.828808 2.1369 0
M  V30 6649 C 615.375 -1.20059 1.06969 0
M  V30 6650 O 616.565 -1.12754 1.32786 0
M  V30 6651 C 613.697 -2.11959 2.66994 0
M  V30 6652 H 614.89 -0.338146 2.97988 0
M  V30 6653 H 612.443 -0.138913 1.55681 0
M  V30 6654 H 613.178 -2.65476 1.8626 0
M  V30 6655 H 612.963 -1.86258 3.45037 0
M  V30 6656 H 614.453 -2.79105 3.10629 0
M  V30 6657 N 614.89 -1.56749 -0.16351 0
M  V30 6658 C 616.118 -1.86577 -0.894233 0
M  V30 6659 C 616.533 -0.696543 -1.75481 0
M  V30 6660 O 615.89 0.334161 -1.79415 0
M  V30 6661 C 615.941 -3.15508 -1.76456 0
M  V30 6662 O 615.662 -4.27926 -0.938685 0
M  V30 6663 C 617.163 -3.58737 -2.60428 0
M  V30 6664 H 614.383 -0.618829 -0.259405 0
M  V30 6665 H 616.927 -2.03863 -0.161259 0
M  V30 6666 H 615.082 -3.00025 -2.45079 0
M  V30 6667 H 615.496 -5.01546 -1.53465 0
M  V30 6668 H 616.97 -4.51832 -3.17099 0
M  V30 6669 H 617.447 -2.83229 -3.35675 0
M  V30 6670 H 618.053 -3.76858 -1.97125 0
M  V30 6671 N 616.368 0.432326 -1.51554 0
M  V30 6672 C 617.316 1.54572 -1.73811 0
M  V30 6673 C 618.31 1.58246 -0.604539 0
M  V30 6674 O 619.516 1.6193 -0.786041 0
M  V30 6675 H 615.891 0.513626 -0.549265 0
M  V30 6676 H 617.862 1.32977 -2.67132 0
M  V30 6677 C 616.611 2.92181 -1.88483 0
M  V30 6678 H 615.934 2.90088 -2.75116 0
M  V30 6679 H 617.374 3.69439 -2.08065 0
M  V30 6680 C 615.833 3.3065 -0.645909 0
M  V30 6681 O 616.363 4.01216 0.197093 0
M  V30 6682 N 614.569 2.86464 -0.488538 0
M  V30 6683 H 614.116 2.29209 -1.17562 0
M  V30 6684 H 614.074 3.12565 0.339156 0
M  V30 6685 N 617.846 1.41785 0.688094 0
M  V30 6686 C 619.257 1.3701 1.26828 0
M  V30 6687 C 619.608 0.056835 1.96118 0
M  V30 6688 O 618.733 -0.84475 1.99231 0
M  V30 6689 C 619.328 2.48168 2.30648 0
M  V30 6690 C 617.887 2.46766 2.84224 0
M  V30 6691 C 617.034 2.27633 1.58361 0
M  V30 6692 H 619.985 1.51192 0.482351 0
M  V30 6693 H 620.006 2.17655 3.121 0
M  V30 6694 H 619.518 3.43735 1.80188 0
M  V30 6695 H 617.619 1.54978 3.3884 0
M  V30 6696 H 617.732 3.43342 3.34145 0
M  V30 6697 H 616.096 1.75648 1.84445 0
M  V30 6698 H 616.879 3.25238 1.09887 0
M  V30 6699 N 619.324 -0.923095 1.27737 0
M  V30 6700 C 620.571 -1.67127 1.14345 0
M  V30 6701 C 620.899 -1.92017 -0.30982 0
M  V30 6702 O 620.154 -1.51185 -1.24264 0
M  V30 6703 C 620.453 -3.04125 1.8773 0
M  V30 6704 C 620.119 -2.98929 3.37568 0
M  V30 6705 C 618.781 -2.9722 3.78436 0
M  V30 6706 C 621.133 -2.89875 4.33154 0
M  V30 6707 C 618.461 -2.84244 5.13247 0
M  V30 6708 C 620.813 -2.7844 5.68026 0
M  V30 6709 C 619.477 -2.75083 6.08182 0
M  V30 6710 H 618.747 -0.611562 0.418417 0
M  V30 6711 H 621.394 -1.07618 1.584 0
M  V30 6712 H 619.699 -3.67366 1.36196 0
M  V30 6713 H 621.396 -3.609 1.74792 0
M  V30 6714 H 617.986 -3.0105 3.05069 0
M  V30 6715 H 622.17 -2.9029 4.02548 0
M  V30 6716 H 617.426 -2.80034 5.43499 0
M  V30 6717 H 621.6 -2.70401 6.4176 0
M  V30 6718 H 619.227 -2.64786 7.12596 0
M  V30 6719 N 620.802 -1.09834 -1.13024 0
M  V30 6720 C 622.213 -0.855651 -1.65938 0
M  V30 6721 C 622.564 0.615159 -1.86307 0
M  V30 6722 O 621.689 1.47335 -1.58497 0
M  V30 6723 C 622.284 -1.5467 -3.01434 0
M  V30 6724 C 620.843 -1.35088 -3.51323 0
M  V30 6725 C 619.99 -1.6001 -2.26478 0
M  V30 6726 H 622.941 -1.25691 -0.968889 0
M  V30 6727 H 622.962 -0.982179 -3.67605 0
M  V30 6728 H 622.474 -2.61715 -2.86578 0
M  V30 6729 H 620.575 -0.30179 -3.71376 0
M  V30 6730 H 620.688 -2.0886 -4.31178 0
M  V30 6731 H 619.052 -1.02246 -2.33276 0
M  V30 6732 H 619.835 -2.68293 -2.14182 0
M  V30 6733 N 622.28 1.30327 -0.886154 0
M  V30 6734 C 623.243 2.26376 -0.358687 0
M  V30 6735 C 624.243 1.52845 0.499498 0
M  V30 6736 O 625.433 1.71483 0.306485 0
M  V30 6737 C 622.565 3.37379 0.488726 0
M  V30 6738 H 623.758 2.74547 -1.20681 0
M  V30 6739 H 621.311 1.41536 -0.663113 0
M  V30 6740 H 622.046 2.94526 1.35739 0
M  V30 6741 H 621.831 3.91897 -0.126003 0
M  V30 6742 H 623.321 4.08868 0.84952 0
M  V30 6743 N 623.758 0.647228 1.43697 0
M  V30 6744 C 625.007 0.155552 2.01099 0
M  V30 6745 C 625.32 -1.23569 1.51624 0
M  V30 6746 O 626.526 -1.82226 2.01261 0
M  V30 6747 C 624.982 0.227296 3.59182 0
M  V30 6748 C 624.59 1.62086 4.17651 0
M  V30 6749 C 626.334 -0.207085 4.23995 0
M  V30 6750 C 624.241 1.64685 5.68008 0
M  V30 6751 H 623.171 0.0543895 0.752036 0
M  V30 6752 H 625.822 0.808386 1.64734 0
M  V30 6753 H 624.204 -0.492937 3.9292 0
M  V30 6754 H 625.378 2.36597 3.95422 0
M  V30 6755 H 623.693 2.0007 3.65186 0
M  V30 6756 H 626.29 -0.207426 5.34298 0
M  V30 6757 H 626.633 -1.23742 3.97484 0
M  V30 6758 H 627.166 0.461193 3.95118 0
M  V30 6759 H 623.905 2.65608 5.99277 0
M  V30 6760 H 623.425 0.944914 5.9231 0
M  V30 6761 H 625.104 1.38792 6.31938 0
M  V30 6762 N 625.236 -1.5273 0.388769 0
M  V30 6763 C 626.169 -2.22861 -0.490752 0
M  V30 6764 C 627.147 -1.22912 -1.06449 0
M  V30 6765 O 628.331 -1.51896 -1.11624 0
M  V30 6766 C 625.458 -2.94141 -1.67925 0
M  V30 6767 C 624.504 -4.08355 -1.23081 0
M  V30 6768 S 625.337 -5.35077 -0.212786 0
M  V30 6769 C 626.493 -6.09879 -1.40708 0
M  V30 6770 H 626.726 -2.97115 0.104787 0
M  V30 6771 H 624.259 -1.53428 0.172956 0
M  V30 6772 H 626.217 -3.35818 -2.36085 0
M  V30 6773 H 624.878 -2.19568 -2.24608 0
M  V30 6774 H 624.071 -4.57328 -2.11818 0
M  V30 6775 H 623.673 -3.68688 -0.628121 0
M  V30 6776 H 625.965 -6.36018 -2.33424 0
M  V30 6777 H 626.908 -7.01586 -0.958271 0
M  V30 6778 H 627.316 -5.40646 -1.62364 0
M  V30 6779 N 626.714 -0.118576 -1.57153 0
M  V30 6780 C 627.991 0.583062 -1.86708 0
M  V30 6781 C 628.371 1.84841 -1.01967 0
M  V30 6782 O 627.719 2.28288 -0.0984673 0
M  V30 6783 C 627.929 0.875912 -3.3783 0
M  V30 6784 C 629.277 1.22916 -4.0642 0
M  V30 6785 O 630.301 0.966188 -3.42846 0
M  V30 6786 O 629.16 1.72269 -5.18638 0
M  V30 6787 H 626.254 0.294185 -0.772906 0
M  V30 6788 H 628.8 -0.153048 -1.69008 0
M  V30 6789 H 627.572 -0.0207776 -3.91294 0
M  V30 6790 H 627.195 1.66719 -3.60958 0
M  V30 6791 N 628.193 1.56834 0.155195 0
M  V30 6792 C 629.604 1.72421 0.716082 0
M  V30 6793 C 629.955 0.731685 1.82046 0
M  V30 6794 O 629.08 -0.103481 2.16152 0
M  V30 6795 C 629.675 3.12629 1.30571 0
M  V30 6796 C 628.234 3.29846 1.81325 0
M  V30 6797 C 627.381 2.68359 0.698494 0
M  V30 6798 H 630.332 1.58544 -0.0703861 0
M  V30 6799 H 630.353 3.12174 2.1755 0
M  V30 6800 H 629.865 3.84844 0.501701 0
M  V30 6801 H 627.966 2.62614 2.64319 0
M  V30 6802 H 628.079 4.37727 1.9476 0
M  V30 6803 H 626.443 2.28604 1.12305 0
M  V30 6804 H 627.226 3.43171 -0.0939366 0
M  V30 6805 N 629.671 -0.424282 1.51781 0
M  V30 6806 C 630.601 -1.52305 1.7699 0
M  V30 6807 C 631.582 -1.5839 0.620209 0
M  V30 6808 O 632.767 -1.73908 0.864268 0
M  V30 6809 C 629.897 -2.90271 1.90683 0
M  V30 6810 C 628.851 -2.99043 3.06198 0
M  V30 6811 C 628.177 -4.39116 3.05092 0
M  V30 6812 C 629.477 -2.7192 4.45934 0
M  V30 6813 H 631.171 -1.31461 2.68995 0
M  V30 6814 H 628.717 -0.630985 1.29439 0
M  V30 6815 H 630.67 -3.6711 2.06901 0
M  V30 6816 H 629.394 -3.12376 0.953365 0
M  V30 6817 H 628.053 -2.24646 2.89706 0
M  V30 6818 H 627.701 -4.58207 2.07498 0
M  V30 6819 H 627.401 -4.45912 3.82669 0
M  V30 6820 H 628.925 -5.17911 3.2342 0
M  V30 6821 H 630.339 -3.38487 4.62709 0
M  V30 6822 H 628.736 -2.90111 5.25315 0
M  V30 6823 H 629.806 -1.67445 4.55072 0
M  V30 6824 N 631.149 -1.42148 -0.680565 0
M  V30 6825 C 632.56 -1.3768 -1.26099 0
M  V30 6826 C 632.911 -0.0672348 -1.96085 0
M  V30 6827 O 632.036 0.834172 -1.99676 0
M  V30 6828 C 632.631 -2.49387 -2.29328 0
M  V30 6829 C 631.19 -2.4827 -2.82911 0
M  V30 6830 C 630.337 -2.2847 -1.57152 0
M  V30 6831 H 633.288 -1.51446 -0.474326 0
M  V30 6832 H 633.309 -2.19307 -3.10941 0
M  V30 6833 H 632.821 -3.44686 -1.78363 0
M  V30 6834 H 630.922 -1.56773 -3.38013 0
M  V30 6835 H 631.035 -3.45109 -3.3232 0
M  V30 6836 H 629.399 -1.76623 -1.83511 0
M  V30 6837 H 630.182 -3.25816 -1.0816 0
M  V30 6838 N 632.627 0.916307 -1.28225 0
M  V30 6839 C 633.557 2.0352 -1.14464 0
M  V30 6840 C 634.538 1.70045 -0.0430844 0
M  V30 6841 O 635.723 1.92954 -0.219619 0
M  V30 6842 C 632.853 3.37889 -0.803027 0
M  V30 6843 C 631.807 3.85516 -1.85908 0
M  V30 6844 C 631.133 5.1682 -1.37116 0
M  V30 6845 C 632.433 4.07655 -3.26519 0
M  V30 6846 H 634.127 2.1529 -2.08064 0
M  V30 6847 H 631.673 1.03446 -1.00174 0
M  V30 6848 H 633.626 4.15654 -0.693537 0
M  V30 6849 H 632.35 3.26164 0.168674 0
M  V30 6850 H 631.009 3.09953 -1.95767 0
M  V30 6851 H 630.657 5.01497 -0.38859 0
M  V30 6852 H 630.357 5.49657 -2.07728 0
M  V30 6853 H 631.881 5.97143 -1.27484 0
M  V30 6854 H 633.295 4.75953 -3.19596 0
M  V30 6855 H 631.692 4.51818 -3.94943 0
M  V30 6856 H 632.762 3.12553 -3.70727 0
M  V30 6857 N 634.105 1.10431 1.1244 0
M  V30 6858 C 635.521 0.836096 1.35947 0
M  V30 6859 C 635.721 -0.544475 1.94004 0
M  V30 6860 O 634.777 -1.29735 2.16622 0
M  V30 6861 C 636.09 1.93575 2.30107 0
M  V30 6862 C 637.638 1.9642 2.43697 0
M  V30 6863 C 638.113 3.05559 3.41171 0
M  V30 6864 N 639.604 3.04865 3.48728 0
M  V30 6865 C 640.339 3.85954 4.24061 0
M  V30 6866 N 639.835 4.76977 5.02458 0
M  V30 6867 N 641.628 3.74172 4.19466 0
M  V30 6868 H 633.779 1.9942 0.731124 0
M  V30 6869 H 636.042 0.866607 0.384312 0
M  V30 6870 H 635.748 2.92943 1.94621 0
M  V30 6871 H 635.622 1.8229 3.30227 0
M  V30 6872 H 638.009 0.97685 2.78463 0
M  V30 6873 H 638.09 2.11782 1.43465 0
M  V30 6874 H 637.734 4.04513 3.07135 0
M  V30 6875 H 637.664 2.87438 4.41234 0
M  V30 6876 H 640.155 2.38908 2.92799 0
M  V30 6877 H 640.468 5.35409 5.57277 0
M  V30 6878 H 638.813 4.81006 5.01655 0
M  V30 6879 H 642.004 3.02412 3.57302 0
M  V30 6880 H 642.177 4.37602 4.77921 0
M  V30 6881 N 635.583 -1.29855 0.893053 0
M  V30 6882 C 636.811 -1.99976 0.530788 0
M  V30 6883 C 637.226 -1.66889 -0.882799 0
M  V30 6884 O 636.583 -0.910352 -1.58173 0
M  V30 6885 C 636.634 -3.54547 0.705587 0
M  V30 6886 O 636.355 -3.86458 2.06353 0
M  V30 6887 C 637.856 -4.41937 0.347387 0
M  V30 6888 H 635.076 -0.639129 0.204339 0
M  V30 6889 H 637.62 -1.65549 1.20057 0
M  V30 6890 H 635.775 -3.87311 0.0830685 0
M  V30 6891 H 636.189 -4.81146 2.08803 0
M  V30 6892 H 637.663 -5.4954 0.520557 0
M  V30 6893 H 638.14 -4.33339 -0.715139 0
M  V30 6894 H 638.746 -4.14633 0.946567 0
M  V30 6895 N 637.061 -0.65484 -1.43351 0
M  V30 6896 C 638.008 0.0357713 -2.30772 0
M  V30 6897 C 638.978 0.813035 -1.44841 0
M  V30 6898 O 640.163 0.789314 -1.73708 0
M  V30 6899 C 637.303 0.995084 -3.30442 0
M  V30 6900 C 636.416 0.21375 -4.31471 0
M  V30 6901 C 635.551 1.16701 -5.18222 0
M  V30 6902 C 634.59 0.376201 -6.10943 0
M  V30 6903 N 633.727 1.28113 -6.90313 0
M  V30 6904 H 638.567 -0.71559 -2.89281 0
M  V30 6905 H 636.104 -0.364645 -1.42509 0
M  V30 6906 H 638.062 1.5649 -3.86739 0
M  V30 6907 H 636.692 1.7133 -2.7358 0
M  V30 6908 H 635.744 -0.472377 -3.77456 0
M  V30 6909 H 637.056 -0.401103 -4.97185 0
M  V30 6910 H 636.21 1.8074 -5.79153 0
M  V30 6911 H 634.949 1.81577 -4.52638 0
M  V30 6912 H 633.954 -0.277534 -5.49099 0
M  V30 6913 H 635.179 -0.268178 -6.7857 0
M  V30 6914 H 633.125 1.91666 -6.27376 0
M  V30 6915 H 633.042 0.720879 -7.52555 0
M  V30 6916 H 634.31 1.90962 -7.55747 0
M  V30 6917 N 638.539 1.52521 -0.396863 0
M  V30 6918 C 639.487 2.28217 0.44943 0
M  V30 6919 C 640.481 1.32416 1.05652 0
M  V30 6920 O 641.687 1.49925 0.996124 0
M  V30 6921 H 638.062 0.733966 0.1637 0
M  V30 6922 H 640.033 2.97658 -0.210367 0
M  V30 6923 C 638.782 3.10713 1.56054 0
M  V30 6924 H 638.105 3.84291 1.10273 0
M  V30 6925 H 639.545 3.66803 2.12677 0
M  V30 6926 C 638.004 2.23499 2.52091 0
M  V30 6927 O 638.534 1.8669 3.55682 0
M  V30 6928 N 636.74 1.8751 2.2201 0
M  V30 6929 H 636.287 2.17643 1.37802 0
M  V30 6930 H 636.245 1.29448 2.86514 0
M  V30 6931 N 640.017 0.126909 1.57088 0
M  V30 6932 C 641.265 -0.528123 1.95078 0
M  V30 6933 C 641.586 -1.66708 1.0116 0
M  V30 6934 O 640.856 -1.95777 0.0693527 0
M  V30 6935 H 639.436 -0.198087 0.720257 0
M  V30 6936 H 642.098 0.197703 1.93895 0
M  V30 6937 H 641.194 -0.917507 2.98309 0
M  V30 6938 N 641.495 -1.56914 -0.146875 0
M  V30 6939 C 642.723 -1.87515 -0.874394 0
M  V30 6940 C 643.138 -0.715116 -1.74733 0
M  V30 6941 O 642.495 0.315113 -1.79759 0
M  V30 6942 C 642.546 -3.17362 -1.731 0
M  V30 6943 O 642.267 -4.28897 -0.893245 0
M  V30 6944 C 643.768 -3.61479 -2.56609 0
M  V30 6945 H 640.988 -0.621546 -0.252827 0
M  V30 6946 H 643.532 -2.04023 -0.139627 0
M  V30 6947 H 641.687 -3.02608 -2.41883 0
M  V30 6948 H 642.101 -5.03146 -1.48137 0
M  V30 6949 H 643.575 -4.5517 -3.12289 0
M  V30 6950 H 644.052 -2.86773 -3.32653 0
M  V30 6951 H 644.658 -3.78927 -1.93117 0
M  V30 6952 N 642.974 0.416227 -1.52004 0
M  V30 6953 C 644.199 1.19029 -1.69843 0
M  V30 6954 C 644.624 1.83708 -0.404103 0
M  V30 6955 O 643.982 1.69711 0.637787 0
M  V30 6956 C 644.03 2.23439 -2.83032 0
M  V30 6957 O 643.134 3.29419 -2.48106 0
M  V30 6958 H 642.475 0.347785 -0.565634 0
M  V30 6959 H 645.005 0.488871 -1.98674 0
M  V30 6960 H 645.015 2.67884 -3.07737 0
M  V30 6961 H 643.69 1.75745 -3.76944 0
M  V30 6962 H 642.267 2.90303 -2.34048 0
M  V30 6963 N 644.452 1.42507 0.673017 0
M  V30 6964 C 645.7 1.42789 1.43023 0
M  V30 6965 C 646.021 0.0459738 1.94946 0
M  V30 6966 O 645.291 -0.915765 1.73178 0
M  V30 6967 H 643.871 0.525657 0.530748 0
M  V30 6968 H 646.533 1.77944 0.795113 0
M  V30 6969 H 645.629 2.12872 2.28237 0
M  V30 6970 N 645.93 -0.909495 1.28709 0
M  V30 6971 C 646.877 -2.01245 1.13 0
M  V30 6972 C 647.847 -1.6608 0.0259684 0
M  V30 6973 O 649.032 -1.89835 0.191687 0
M  V30 6974 C 646.172 -3.35644 0.802315 0
M  V30 6975 C 645.285 -3.83653 1.98582 0
M  V30 6976 C 644.42 -5.06582 1.59837 0
M  V30 6977 C 643.459 -5.46934 2.74827 0
M  V30 6978 N 642.596 -6.61053 2.36546 0
M  V30 6979 H 647.436 -2.14013 2.0737 0
M  V30 6980 H 644.973 -1.0482 1.03205 0
M  V30 6981 H 646.931 -4.12963 0.593057 0
M  V30 6982 H 645.561 -3.22631 -0.104457 0
M  V30 6983 H 644.613 -3.02454 2.30708 0
M  V30 6984 H 645.925 -4.09515 2.84779 0
M  V30 6985 H 645.079 -5.91457 1.35143 0
M  V30 6986 H 643.818 -4.82537 0.707753 0
M  V30 6987 H 642.823 -4.60599 3.00215 0
M  V30 6988 H 644.048 -5.72965 3.64538 0
M  V30 6989 H 641.994 -6.3863 1.49959 0
M  V30 6990 H 641.911 -6.86662 3.16277 0
M  V30 6991 H 643.179 -7.49221 2.15146 0
M  V30 6992 N 647.408 -1.11026 -1.11852 0
M  V30 6993 C 648.685 -0.768347 -1.79877 0
M  V30 6994 C 649.065 0.744261 -1.97545 0
M  V30 6995 O 648.413 1.67271 -1.55669 0
M  V30 6996 C 648.623 -1.52648 -3.13846 0
M  V30 6997 C 649.971 -1.70297 -3.88953 0
M  V30 6998 O 650.995 -1.49037 -3.23522 0
M  V30 6999 O 649.854 -2.05593 -5.06353 0
M  V30 7000 H 646.948 -0.277891 -0.778913 0
M  V30 7001 H 649.494 -1.21343 -1.18633 0
M  V30 7002 H 648.266 -2.55564 -2.96315 0
M  V30 7003 H 647.889 -1.07466 -3.82801 0
M  V30 7004 N 648.886 1.2938 -0.899927 0
M  V30 7005 C 650.111 2.00228 -0.540692 0
M  V30 7006 C 650.536 1.66909 0.867359 0
M  V30 7007 O 649.894 0.893824 1.57735 0
M  V30 7008 C 649.942 3.52921 -0.740232 0
M  V30 7009 O 649.046 4.11879 0.207154 0
M  V30 7010 H 648.387 0.629505 -0.211233 0
M  V30 7011 H 650.917 1.6487 -1.21158 0
M  V30 7012 H 650.927 4.0287 -0.644973 0
M  V30 7013 H 649.602 3.76508 -1.76677 0
M  V30 7014 H 648.179 3.72845 0.0643315 0
M  V30 7015 N 650.364 0.662433 1.43002 0
M  V30 7016 C 651.327 -0.0142016 2.29196 0
M  V30 7017 C 652.327 -0.741394 1.42688 0
M  V30 7018 O 653.517 -0.581257 1.64216 0
M  V30 7019 C 650.649 -1.03084 3.24941 0
M  V30 7020 H 651.842 0.7443 2.90517 0
M  V30 7021 H 649.395 0.424133 1.50435 0
M  V30 7022 H 650.13 -1.81826 2.68533 0
M  V30 7023 H 649.915 -0.512946 3.8873 0
M  V30 7024 H 651.405 -1.50308 3.89612 0
M  V30 7025 N 651.842 -1.52309 0.404946 0
M  V30 7026 C 653.07 -2.06185 -0.171818 0
M  V30 7027 C 653.485 -1.27536 -1.39212 0
M  V30 7028 O 652.842 -0.326112 -1.79563 0
M  V30 7029 C 652.893 -3.57647 -0.526417 0
M  V30 7030 O 652.614 -4.3332 0.645417 0
M  V30 7031 C 654.115 -4.27925 -1.15736 0
M  V30 7032 H 651.335 -0.670632 -0.0222328 0
M  V30 7033 H 653.879 -1.96259 0.574692 0
M  V30 7034 H 652.034 -3.67595 -1.22282 0
M  V30 7035 H 652.448 -5.23328 0.35042 0
M  V30 7036 H 653.922 -5.35093 -1.35572 0
M  V30 7037 H 654.399 -3.84134 -2.12926 0
M  V30 7038 H 655.005 -4.22335 -0.501281 0
M  V30 7039 N 653.32 -0.135238 -1.57019 0
M  V30 7040 C 654.548 0.526066 -2.001 0
M  V30 7041 C 654.963 1.59184 -1.01519 0
M  V30 7042 O 654.32 1.82497 -0.0104258 0
M  V30 7043 C 654.371 1.13744 -3.43139 0
M  V30 7044 O 654.092 0.114259 -4.37951 0
M  V30 7045 C 655.593 1.8805 -4.01438 0
M  V30 7046 H 652.813 0.137962 -0.656664 0
M  V30 7047 H 655.357 -0.226359 -2.03243 0
M  V30 7048 H 653.512 1.84056 -3.40885 0
M  V30 7049 H 653.926 0.56058 -5.21496 0
M  V30 7050 H 655.4 2.26133 -5.03555 0
M  V30 7051 H 655.877 2.76194 -3.41487 0
M  V30 7052 H 656.483 1.22464 -4.07287 0
M  V30 7053 N 654.798 1.5699 0.138552 0
M  V30 7054 C 656.023 1.88344 0.86841 0
M  V30 7055 C 656.448 0.725159 1.7356 0
M  V30 7056 O 655.806 -0.324992 1.78363 0
M  V30 7057 C 655.854 3.18334 1.69398 0
M  V30 7058 O 654.958 3.02863 2.79907 0
M  V30 7059 H 654.299 0.618577 0.241367 0
M  V30 7060 H 656.829 2.04207 0.126826 0
M  V30 7061 H 656.839 3.50567 2.08726 0
M  V30 7062 H 655.514 4.02238 1.05725 0
M  V30 7063 H 654.091 2.82056 2.43924 0
M  V30 7064 N 656.276 -0.40816 1.52223 0
M  V30 7065 C 657.504 -1.17672 1.70179 0
M  V30 7066 C 657.919 -1.84257 0.411696 0
M  V30 7067 O 657.276 -1.7192 -0.612354 0
M  V30 7068 C 657.327 -2.23911 2.83806 0
M  V30 7069 O 657.048 -1.60044 4.0782 0
M  V30 7070 C 658.549 -3.1364 3.13281 0
M  V30 7071 H 655.769 -0.353562 0.570293 0
M  V30 7072 H 658.313 -0.480083 1.98785 0
M  V30 7073 H 656.468 -2.89242 2.57717 0
M  V30 7074 H 656.882 -2.30484 4.71145 0
M  V30 7075 H 658.356 -3.84255 3.96298 0
M  V30 7076 H 658.833 -3.76066 2.26872 0
M  V30 7077 H 659.439 -2.53977 3.41139 0
M  V30 7078 N 657.755 -1.42862 -0.66545 0
M  V30 7079 C 658.685 -1.49867 -1.79059 0
M  V30 7080 C 659.666 -0.354394 -1.66367 0
M  V30 7081 O 660.851 -0.569969 -1.85647 0
M  V30 7082 C 657.981 -1.40943 -3.17415 0
M  V30 7083 C 656.935 -2.53495 -3.44854 0
M  V30 7084 C 656.261 -2.29626 -4.82883 0
M  V30 7085 C 657.561 -3.95781 -3.40815 0
M  V30 7086 H 659.255 -2.44037 -1.73453 0
M  V30 7087 H 656.801 -1.17456 -0.833071 0
M  V30 7088 H 658.754 -1.4445 -3.95869 0
M  V30 7089 H 657.478 -0.432716 -3.23721 0
M  V30 7090 H 656.137 -2.4932 -2.68766 0
M  V30 7091 H 655.785 -1.30226 -4.8585 0
M  V30 7092 H 655.485 -3.05065 -5.02204 0
M  V30 7093 H 657.009 -2.34897 -5.63609 0
M  V30 7094 H 658.423 -4.01508 -4.09224 0
M  V30 7095 H 656.82 -4.71148 -3.71672 0
M  V30 7096 H 657.89 -4.21786 -2.39216 0
M  V30 7097 N 659.233 0.902656 -1.29189 0
M  V30 7098 C 660.458 1.69167 -1.19989 0
M  V30 7099 C 660.883 1.86607 0.236495 0
M  V30 7100 O 660.241 1.38425 1.17082 0
M  V30 7101 C 660.289 3.05532 -1.91527 0
M  V30 7102 O 659.393 3.93621 -1.2303 0
M  V30 7103 H 658.734 0.517584 -0.415936 0
M  V30 7104 H 661.264 1.12785 -1.70706 0
M  V30 7105 H 661.274 3.55693 -1.99866 0
M  V30 7106 H 659.949 2.92156 -2.96003 0
M  V30 7107 H 658.526 3.52055 -1.22928 0
M  V30 7108 N 660.711 1.11618 1.11262 0
M  V30 7109 C 661.658 0.7762 2.17356 0
M  V30 7110 C 662.628 -0.253152 1.6416 0
M  V30 7111 O 663.813 -0.129655 1.90359 0
M  V30 7112 C 660.953 0.227581 3.44349 0
M  V30 7113 C 660.066 1.31372 4.1154 0
M  V30 7114 C 659.201 0.72544 5.26223 0
M  V30 7115 C 658.24 1.7913 5.85302 0
M  V30 7116 N 657.377 1.22237 6.91377 0
M  V30 7117 H 662.217 1.68508 2.45783 0
M  V30 7118 H 659.754 0.841475 1.20655 0
M  V30 7119 H 661.712 -0.108483 4.17059 0
M  V30 7120 H 660.342 -0.644486 3.16301 0
M  V30 7121 H 659.394 1.7667 3.36885 0
M  V30 7122 H 660.706 2.12005 4.51504 0
M  V30 7123 H 659.86 0.339541 6.05749 0
M  V30 7124 H 658.599 -0.112188 4.87571 0
M  V30 7125 H 657.604 2.18648 5.04453 0
M  V30 7126 H 658.829 2.63199 6.26022 0
M  V30 7127 H 656.775 0.406423 6.5474 0
M  V30 7128 H 656.692 1.9654 7.30006 0
M  V30 7129 H 657.96 0.863426 7.74703 0
M  V30 7130 N 662.189 -1.289 0.906776 0
M  V30 7131 C 663.466 -1.90221 0.455537 0
M  V30 7132 C 663.846 -1.82251 -1.06527 0
M  V30 7133 O 663.194 -1.25385 -1.91026 0
M  V30 7134 C 663.404 -3.35015 0.97806 0
M  V30 7135 C 664.752 -4.12018 1.02598 0
M  V30 7136 O 665.776 -3.43947 0.926218 0
M  V30 7137 O 664.635 -5.33677 1.17689 0
M  V30 7138 H 661.729 -0.814505 0.143214 0
M  V30 7139 H 664.275 -1.37317 0.997104 0
M  V30 7140 H 663.047 -3.35006 2.02204 0
M  V30 7141 H 662.67 -3.95408 0.416914 0
M  V30 7142 N 663.667 -0.670007 -1.42649 0
M  V30 7143 C 664.892 -0.196955 -2.06463 0
M  V30 7144 C 665.317 1.1352 -1.49983 0
M  V30 7145 O 664.675 1.705 -0.616397 0
M  V30 7146 C 664.723 -0.137381 -3.60338 0
M  V30 7147 O 663.827 0.895523 -4.02559 0
M  V30 7148 H 663.168 -0.102579 -0.656029 0
M  V30 7149 H 665.698 -0.917669 -1.82866 0
M  V30 7150 H 665.708 0.0403625 -4.0798 0
M  V30 7151 H 664.383 -1.10977 -4.0082 0
M  V30 7152 H 662.96 0.689209 -3.66476 0
M  V30 7153 N 665.145 1.52092 -0.413018 0
M  V30 7154 C 666.075 2.30021 0.401567 0
M  V30 7155 C 667.056 1.34395 1.04269 0
M  V30 7156 O 668.241 1.63304 1.05097 0
M  V30 7157 C 665.371 3.12447 1.51638 0
M  V30 7158 C 664.325 4.16153 1.00005 0
M  V30 7159 C 663.651 4.86948 2.20875 0
M  V30 7160 C 664.951 5.22275 0.0513757 0
M  V30 7161 H 666.645 2.98365 -0.248704 0
M  V30 7162 H 664.191 1.4349 -0.121052 0
M  V30 7163 H 666.144 3.65733 2.09326 0
M  V30 7164 H 664.868 2.41879 2.19458 0
M  V30 7165 H 663.527 3.63882 0.445549 0
M  V30 7166 H 663.175 4.12905 2.8726 0
M  V30 7167 H 662.875 5.57057 1.86978 0
M  V30 7168 H 664.399 5.43048 2.79162 0
M  V30 7169 H 665.813 5.70778 0.537176 0
M  V30 7170 H 664.21 5.9977 -0.198977 0
M  V30 7171 H 665.28 4.76611 -0.892736 0
M  V30 7172 N 666.623 0.143563 1.56945 0
M  V30 7173 C 667.571 -0.814556 2.17871 0
M  V30 7174 C 668.565 -1.25778 1.13474 0
M  V30 7175 O 669.771 -1.22666 1.31731 0
M  V30 7176 H 666.146 -0.280873 0.697578 0
M  V30 7177 H 668.117 -0.276459 2.97117 0
M  V30 7178 C 666.866 -2.04503 2.81201 0
M  V30 7179 H 666.189 -1.71296 3.61245 0
M  V30 7180 H 667.629 -2.69493 3.27337 0
M  V30 7181 C 666.088 -2.85079 1.79532 0
M  V30 7182 O 666.618 -3.81306 1.26368 0
M  V30 7183 N 664.824 -2.49546 1.48913 0
M  V30 7184 H 664.371 -1.71359 1.92338 0
M  V30 7185 H 664.329 -3.03751 0.811348 0
M  V30 7186 N 668.101 -1.57061 -0.130224 0
M  V30 7187 C 669.512 -1.73539 -0.68856 0
M  V30 7188 C 669.863 -0.760554 -1.80859 0
M  V30 7189 O 668.988 0.0690796 -2.1629 0
M  V30 7190 C 669.583 -3.14666 -1.25581 0
M  V30 7191 C 668.142 -3.32689 -1.76055 0
M  V30 7192 C 667.289 -2.69436 -0.655712 0
M  V30 7193 H 670.24 -1.58412 0.0956002 0
M  V30 7194 H 670.261 -3.15595 -2.12556 0
M  V30 7195 H 669.773 -3.85593 -0.440412 0
M  V30 7196 H 667.874 -2.66786 -2.60108 0
M  V30 7197 H 667.987 -4.4077 -1.87772 0
M  V30 7198 H 666.351 -2.30362 -1.08654 0
M  V30 7199 H 667.134 -3.42979 0.14852 0
M  V30 7200 N 669.579 0.400081 -1.52437 0
M  V30 7201 C 670.804 1.17221 -1.71096 0
M  V30 7202 C 671.229 1.83269 -0.423565 0
M  V30 7203 O 670.587 1.70378 0.619751 0
M  V30 7204 C 670.635 2.20425 -2.85386 0
M  V30 7205 O 669.739 3.26769 -2.51586 0
M  V30 7206 H 669.08 0.341766 -0.569291 0
M  V30 7207 H 671.61 0.467772 -1.99181 0
M  V30 7208 H 671.62 2.64605 -3.10561 0
M  V30 7209 H 670.295 1.71737 -3.78786 0
M  V30 7210 H 668.872 2.87804 -2.37114 0
M  V30 7211 N 671.057 1.43213 0.657864 0
M  V30 7212 C 672.282 1.48227 1.45064 0
M  V30 7213 C 672.707 0.0999939 1.87834 0
M  V30 7214 O 672.065 -0.905269 1.57081 0
M  V30 7215 C 672.113 2.42931 2.6649 0
M  V30 7216 O 671.217 1.91237 3.6538 0
M  V30 7217 H 670.558 0.501551 0.435135 0
M  V30 7218 H 673.088 1.8808 0.805431 0
M  V30 7219 H 673.098 2.6008 3.1436 0
M  V30 7220 H 671.773 3.43348 2.34701 0
M  V30 7221 H 670.35 1.83726 3.24498 0
M  V30 7222 N 672.536 -0.895792 1.29666 0
M  V30 7223 C 673.466 -2.01673 1.17688 0
M  V30 7224 C 674.447 -1.69955 0.0701317 0
M  V30 7225 O 675.632 -1.9258 0.250289 0
M  V30 7226 C 672.762 -3.36568 0.856681 0
M  V30 7227 C 671.716 -3.82509 1.92017 0
M  V30 7228 C 671.042 -5.14574 1.4532 0
M  V30 7229 C 672.342 -4.02409 3.32963 0
M  V30 7230 H 674.036 -2.11953 2.11463 0
M  V30 7231 H 671.582 -1.01839 1.01807 0
M  V30 7232 H 673.535 -4.14498 0.759577 0
M  V30 7233 H 672.259 -3.26391 -0.116763 0
M  V30 7234 H 670.918 -3.068 2.00673 0
M  V30 7235 H 670.566 -5.00815 0.468325 0
M  V30 7236 H 670.266 -5.46283 2.16447 0
M  V30 7237 H 671.79 -5.9504 1.36968 0
M  V30 7238 H 673.204 -4.70808 3.27127 0
M  V30 7239 H 671.601 -4.45478 4.02082 0
M  V30 7240 H 672.671 -3.06616 3.75652 0
M  V30 7241 N 674.014 -1.12206 -1.10668 0
M  V30 7242 C 674.944 -0.810086 -2.18997 0
M  V30 7243 C 675.925 0.225065 -1.68604 0
M  V30 7244 O 677.11 0.086783 -1.94006 0
M  V30 7245 C 674.24 -0.261262 -3.46316 0
M  V30 7246 C 673.194 -1.2292 -4.09969 0
M  V30 7247 C 672.52 -0.540713 -5.31959 0
M  V30 7248 C 673.82 -2.58295 -4.53962 0
M  V30 7249 H 675.514 -1.7159 -2.45352 0
M  V30 7250 H 673.06 -0.82646 -1.17922 0
M  V30 7251 H 675.013 -0.0307522 -4.21389 0
M  V30 7252 H 673.737 0.679879 -3.19445 0
M  V30 7253 H 672.396 -1.44548 -3.369 0
M  V30 7254 H 672.044 0.405492 -5.01363 0
M  V30 7255 H 671.744 -1.18637 -5.75499 0
M  V30 7256 H 673.268 -0.319184 -6.09765 0
M  V30 7257 H 674.682 -2.40709 -5.20319 0
M  V30 7258 H 673.079 -3.18916 -5.08343 0
M  V30 7259 H 674.149 -3.16918 -3.67002 0
M  V30 7260 N 675.492 1.28418 -0.913599 0
M  V30 7261 C 676.455 2.25564 -0.406624 0
M  V30 7262 C 677.455 1.5387 0.466965 0
M  V30 7263 O 678.645 1.72094 0.270042 0
M  V30 7264 C 675.777 3.38339 0.417053 0
M  V30 7265 H 676.97 2.71926 -1.26477 0
M  V30 7266 H 674.523 1.40098 -0.692986 0
M  V30 7267 H 675.258 2.97339 1.29461 0
M  V30 7268 H 675.043 3.91542 -0.209102 0
M  V30 7269 H 676.533 4.10578 0.762602 0
M  V30 7270 N 676.97 0.677563 1.42291 0
M  V30 7271 C 677.933 0.0101085 2.29198 0
M  V30 7272 C 678.933 -0.726219 1.43467 0
M  V30 7273 O 680.123 -0.563807 1.64824 0
M  V30 7274 C 677.255 -0.996316 3.26016 0
M  V30 7275 H 678.448 0.775071 2.89711 0
M  V30 7276 H 676.001 0.440065 1.49977 0
M  V30 7277 H 676.736 -1.78967 2.70446 0
M  V30 7278 H 676.521 -0.471687 3.89253 0
M  V30 7279 H 678.011 -1.46167 3.91184 0
M  V30 7280 N 678.448 -1.51871 0.421078 0
M  V30 7281 C 679.381 -2.23851 -0.443369 0
M  V30 7282 C 680.359 -1.25142 -1.03818 0
M  V30 7283 O 681.543 -1.5423 -1.08377 0
M  V30 7284 C 678.67 -2.97637 -1.61648 0
M  V30 7285 C 677.716 -4.10873 -1.14391 0
M  V30 7286 S 678.549 -5.35408 -0.0992403 0
M  V30 7287 C 679.705 -6.12726 -1.27739 0
M  V30 7288 H 679.938 -2.96826 0.167786 0
M  V30 7289 H 677.471 -1.53027 0.205461 0
M  V30 7290 H 679.429 -3.40751 -2.28909 0
M  V30 7291 H 678.09 -2.24282 -2.199 0
M  V30 7292 H 677.283 -4.61718 -2.02069 0
M  V30 7293 H 676.885 -3.69937 -0.549775 0
M  V30 7294 H 679.177 -6.40827 -2.19881 0
M  V30 7295 H 680.12 -7.03461 -0.809239 0
M  V30 7296 H 680.528 -5.43968 -1.5086 0
M  V30 7297 N 679.926 -0.151884 -1.56866 0
M  V30 7298 C 680.859 0.824094 -2.128 0
M  V30 7299 C 681.837 1.2391 -1.05286 0
M  V30 7300 O 683.021 1.33433 -1.33146 0
M  V30 7301 C 680.148 2.1072 -2.65169 0
M  V30 7302 C 679.194 1.83774 -3.84876 0
M  V30 7303 S 680.027 1.02436 -5.25611 0
M  V30 7304 C 681.183 2.31855 -5.81373 0
M  V30 7305 H 681.416 0.348456 -2.95251 0
M  V30 7306 H 678.949 0.0624794 -1.54274 0
M  V30 7307 H 680.907 2.84428 -2.95992 0
M  V30 7308 H 679.568 2.55398 -1.8284 0
M  V30 7309 H 678.761 2.78929 -4.19779 0
M  V30 7310 H 678.363 1.18172 -3.5484 0
M  V30 7311 H 680.655 3.27469 -5.93102 0
M  V30 7312 H 681.598 2.01449 -6.7884 0
M  V30 7313 H 682.006 2.42727 -5.09651 0
M  V30 7314 N 681.404 1.57128 0.121893 0
M  V30 7315 C 682.336 1.96773 1.17529 0
M  V30 7316 C 683.349 0.866668 1.37814 0
M  V30 7317 O 684.538 1.14497 1.3694 0
M  V30 7318 C 681.638 2.24832 2.53582 0
M  V30 7319 C 680.811 3.56138 2.53939 0
M  V30 7320 C 679.87 3.72443 3.71716 0
M  V30 7321 O 678.896 4.44584 3.55434 0
M  V30 7322 N 680.098 3.10993 4.90167 0
M  V30 7323 H 682.863 2.87743 0.838086 0
M  V30 7324 H 680.424 1.58881 0.311199 0
M  V30 7325 H 682.416 2.32958 3.30927 0
M  V30 7326 H 680.986 1.40002 2.79496 0
M  V30 7327 H 680.206 3.59226 1.62329 0
M  V30 7328 H 681.494 4.42448 2.51231 0
M  V30 7329 H 680.892 2.52345 5.06299 0
M  V30 7330 H 679.449 3.24644 5.65198 0
M  V30 7331 N 682.882 -0.391992 1.52647 0
M  V30 7332 C 683.814 -1.49811 1.73463 0
M  V30 7333 C 684.827 -1.50734 0.615078 0
M  V30 7334 O 686.016 -1.5469 0.890696 0
M  V30 7335 C 683.116 -2.88667 1.77552 0
M  V30 7336 C 682.289 -3.11743 3.06815 0
M  V30 7337 C 681.348 -4.30564 3.02491 0
M  V30 7338 O 680.374 -4.27014 3.76361 0
M  V30 7339 N 681.576 -5.36593 2.21468 0
M  V30 7340 H 684.341 -1.32343 2.68897 0
M  V30 7341 H 681.902 -0.581475 1.51098 0
M  V30 7342 H 683.894 -3.66251 1.7217 0
M  V30 7343 H 682.464 -2.99508 0.895181 0
M  V30 7344 H 681.684 -2.2205 3.25711 0
M  V30 7345 H 682.972 -3.24013 3.92292 0
M  V30 7346 H 682.37 -5.42332 1.60913 0
M  V30 7347 H 680.927 -6.12855 2.21928 0
M  V30 7348 N 684.36 -1.4356 -0.65026 0
M  V30 7349 C 685.637 -1.35811 -1.40765 0
M  V30 7350 C 686.017 -0.00736379 -2.11099 0
M  V30 7351 O 685.365 1.00932 -2.05 0
M  V30 7352 C 685.575 -2.54332 -2.3899 0
M  V30 7353 C 686.923 -2.97551 -3.02901 0
M  V30 7354 O 687.947 -2.544 -2.49317 0
M  V30 7355 O 686.806 -3.72311 -4.00059 0
M  V30 7356 H 683.9 -0.536861 -0.629054 0
M  V30 7357 H 686.446 -1.55615 -0.676919 0
M  V30 7358 H 685.218 -3.44274 -1.85986 0
M  V30 7359 H 684.841 -2.36643 -3.19509 0
M  V30 7360 N 685.838 0.888903 -1.30139 0
M  V30 7361 C 686.748 2.02705 -1.18101 0
M  V30 7362 C 687.764 1.73702 -0.101809 0
M  V30 7363 O 688.94 1.98906 -0.315984 0
M  V30 7364 C 686.005 3.35616 -0.869651 0
M  V30 7365 C 685.066 3.78067 -2.03381 0
M  V30 7366 C 684.299 5.04635 -1.73721 0
M  V30 7367 O 684.522 5.66531 -0.663267 0
M  V30 7368 O 683.456 5.43399 -2.58845 0
M  V30 7369 H 687.282 2.15788 -2.13704 0
M  V30 7370 H 684.867 1.01426 -1.09695 0
M  V30 7371 H 686.749 4.15358 -0.711043 0
M  V30 7372 H 685.424 3.23651 0.0565002 0
M  V30 7373 H 684.331 2.99046 -2.24772 0
M  V30 7374 H 685.664 3.94631 -2.94155 0
M  V30 7375 N 687.317 1.12792 1.10072 0
M  V30 7376 C 688.542 0.908838 1.86427 0
M  V30 7377 C 688.967 -0.536793 1.80278 0
M  V30 7378 O 688.325 -1.38033 1.17543 0
M  V30 7379 C 688.373 1.39295 3.3261 0
M  V30 7380 O 687.477 0.573846 4.08388 0
M  V30 7381 H 686.818 0.326234 0.578331 0
M  V30 7382 H 689.348 1.50094 1.39043 0
M  V30 7383 H 689.358 1.39366 3.83459 0
M  V30 7384 H 688.033 2.44555 3.36401 0
M  V30 7385 H 686.61 0.640438 3.67359 0
M  V30 7386 N 688.795 -1.27931 0.920396 0
M  V30 7387 C 690.044 -1.93975 0.552867 0
M  V30 7388 C 690.357 -1.73193 -0.909035 0
M  V30 7389 O 691.563 -2.33515 -1.38502 0
M  V30 7390 C 690.019 -3.47463 0.937947 0
M  V30 7391 C 689.627 -3.77013 2.42003 0
M  V30 7392 C 691.371 -4.19628 0.64132 0
M  V30 7393 C 689.278 -5.23841 2.74489 0
M  V30 7394 H 688.208 -0.726146 0.203046 0
M  V30 7395 H 690.859 -1.45339 1.12022 0
M  V30 7396 H 689.241 -3.94867 0.299317 0
M  V30 7397 H 690.415 -3.40393 3.10595 0
M  V30 7398 H 688.73 -3.18035 2.6878 0
M  V30 7399 H 691.327 -5.27729 0.860622 0
M  V30 7400 H 691.67 -4.14164 -0.421168 0
M  V30 7401 H 692.203 -3.78022 1.23872 0
M  V30 7402 H 688.942 -5.34388 3.79618 0
M  V30 7403 H 688.462 -5.61634 2.1054 0
M  V30 7404 H 690.141 -5.91647 2.61845 0
M  V30 7405 N 690.273 -0.685099 -1.4193 0
M  V30 7406 C 691.503 -0.220052 -2.05425 0
M  V30 7407 C 691.911 1.13185 -1.51611 0
M  V30 7408 O 691.254 1.71631 -0.654875 0
M  V30 7409 C 691.316 -0.0888364 -3.5939 0
M  V30 7410 C 690.98 -1.37109 -4.35947 0
M  V30 7411 C 691.977 -2.30675 -4.65924 0
M  V30 7412 C 689.662 -1.62155 -4.75406 0
M  V30 7413 C 691.656 -3.47556 -5.34306 0
M  V30 7414 C 689.343 -2.79324 -5.43527 0
M  V30 7415 C 690.341 -3.71848 -5.72903 0
M  V30 7416 O 690.029 -4.86966 -6.39624 0
M  V30 7417 H 689.761 -0.102165 -0.668235 0
M  V30 7418 H 692.315 -0.935194 -1.82875 0
M  V30 7419 H 690.545 0.681981 -3.80639 0
M  V30 7420 H 692.234 0.337669 -4.04493 0
M  V30 7421 H 693 -2.12579 -4.3593 0
M  V30 7422 H 688.879 -0.910053 -4.51928 0
M  V30 7423 H 692.423 -4.19794 -5.57153 0
M  V30 7424 H 688.32 -2.97342 -5.72938 0
M  V30 7425 H 689.088 -4.86644 -6.58118 0
M  V30 7426 N 691.751 1.51645 -0.429126 0
M  V30 7427 C 692.681 2.30434 0.377148 0
M  V30 7428 C 693.662 1.35493 1.02838 0
M  V30 7429 O 694.847 1.6441 1.03359 0
M  V30 7430 C 691.977 3.14038 1.48315 0
M  V30 7431 C 690.931 4.1719 0.955855 0
M  V30 7432 C 690.257 4.89263 2.15698 0
M  V30 7433 C 691.557 5.223 -0.00402136 0
M  V30 7434 H 693.251 2.98085 -0.280336 0
M  V30 7435 H 690.797 1.43354 -0.136265 0
M  V30 7436 H 692.75 3.67933 2.05435 0
M  V30 7437 H 691.474 2.44193 2.16881 0
M  V30 7438 H 690.133 3.64335 0.406929 0
M  V30 7439 H 689.781 4.15929 2.82864 0
M  V30 7440 H 689.481 5.59009 1.81059 0
M  V30 7441 H 691.005 5.45978 2.73387 0
M  V30 7442 H 692.419 5.71315 0.476607 0
M  V30 7443 H 690.816 5.99525 -0.26258 0
M  V30 7444 H 691.886 4.75638 -0.943236 0
M  V30 7445 N 693.229 0.160201 1.56784 0
M  V30 7446 C 694.459 -0.493449 2.00621 0
M  V30 7447 C 694.867 -1.5809 1.03943 0
M  V30 7448 O 694.21 -1.83675 0.0305343 0
M  V30 7449 C 694.272 -1.14169 3.4089 0
M  V30 7450 C 693.936 -0.197243 4.56574 0
M  V30 7451 C 694.933 0.580174 5.16653 0
M  V30 7452 C 692.618 -0.0963038 5.02208 0
M  V30 7453 C 694.612 1.44584 6.20785 0
M  V30 7454 C 692.299 0.772959 6.06192 0
M  V30 7455 C 693.297 1.54263 6.65351 0
M  V30 7456 O 692.985 2.39738 7.67321 0
M  V30 7457 H 692.717 -0.131764 0.663034 0
M  V30 7458 H 695.271 0.255728 2.03802 0
M  V30 7459 H 693.501 -1.93877 3.34587 0
M  V30 7460 H 695.19 -1.69641 3.6875 0
M  V30 7461 H 695.956 0.5123 4.82287 0
M  V30 7462 H 691.835 -0.685143 4.5588 0
M  V30 7463 H 695.379 2.04706 6.66889 0
M  V30 7464 H 691.276 0.842077 6.39984 0
M  V30 7465 H 692.044 2.33131 7.84597 0
M  V30 7466 N 694.707 -1.5719 -0.113559 0
M  V30 7467 C 696.118 -1.74259 -0.670116 0
M  V30 7468 C 696.469 -0.779694 -1.80042 0
M  V30 7469 O 695.594 0.0461353 -2.16351 0
M  V30 7470 C 696.189 -3.15981 -1.22236 0
M  V30 7471 C 694.748 -3.34537 -1.72516 0
M  V30 7472 C 693.895 -2.70116 -0.627098 0
M  V30 7473 H 696.846 -1.58301 0.112396 0
M  V30 7474 H 696.867 -3.17832 -2.09197 0
M  V30 7475 H 696.379 -3.86038 -0.39949 0
M  V30 7476 H 694.48 -2.6953 -2.57263 0
M  V30 7477 H 694.593 -4.42737 -1.83086 0
M  V30 7478 H 692.957 -2.31501 -1.06204 0
M  V30 7479 H 693.74 -3.42802 0.184889 0
M  V30 7480 N 696.185 0.383891 -1.52853 0
M  V30 7481 C 697.148 1.45197 -1.77343 0
M  V30 7482 C 698.148 1.47362 -0.643522 0
M  V30 7483 O 699.338 1.48443 -0.911613 0
M  V30 7484 C 696.47 2.8445 -1.87885 0
M  V30 7485 H 697.663 1.24764 -2.72716 0
M  V30 7486 H 695.216 0.615939 -1.43652 0
M  V30 7487 H 695.951 3.10222 -0.94515 0
M  V30 7488 H 695.736 2.8428 -2.70051 0
M  V30 7489 H 697.226 3.61832 -2.08488 0
M  V30 7490 N 697.663 1.43903 0.642637 0
M  V30 7491 C 698.888 1.49758 1.43483 0
M  V30 7492 C 699.313 0.119911 1.87717 0
M  V30 7493 O 698.671 -0.888558 1.58033 0
M  V30 7494 C 698.719 2.45744 2.63898 0
M  V30 7495 O 697.823 1.95101 3.63331 0
M  V30 7496 H 697.164 0.506138 0.429791 0
M  V30 7497 H 699.694 1.88923 0.785438 0
M  V30 7498 H 699.704 2.63399 3.11584 0
M  V30 7499 H 698.379 3.45818 2.31046 0
M  V30 7500 H 696.956 1.87158 3.22531 0
M  V30 7501 N 699.141 -0.881989 1.30609 0
M  V30 7502 C 700.366 -1.67236 1.22665 0
M  V30 7503 C 700.791 -1.8696 -0.206777 0
M  V30 7504 O 700.149 -1.4027 -1.14865 0
M  V30 7505 C 700.197 -3.02446 1.96363 0
M  V30 7506 O 699.301 -3.91614 1.29276 0
M  V30 7507 H 698.642 -0.510902 0.424117 0
M  V30 7508 H 701.172 -1.10055 1.72479 0
M  V30 7509 H 701.182 -3.52468 2.055 0
M  V30 7510 H 699.857 -2.8741 3.00613 0
M  V30 7511 H 698.434 -3.50055 1.28514 0
M  V30 7512 N 700.619 -1.13374 -1.09472 0
M  V30 7513 C 701.847 -0.918351 -1.85402 0
M  V30 7514 C 702.262 0.53281 -1.81126 0
M  V30 7515 O 701.619 1.36879 -1.20708 0
M  V30 7516 C 701.67 -1.39743 -3.33398 0
M  V30 7517 O 701.391 -2.79172 -3.37631 0
M  V30 7518 C 702.892 -1.22042 -4.2617 0
M  V30 7519 H 700.112 -0.327511 -0.585643 0
M  V30 7520 H 702.656 -1.50617 -1.38328 0
M  V30 7521 H 700.811 -0.852619 -3.77901 0
M  V30 7522 H 701.225 -3.00428 -4.29934 0
M  V30 7523 H 702.699 -1.60438 -5.2817 0
M  V30 7524 H 703.176 -0.162047 -4.38901 0
M  V30 7525 H 703.782 -1.75323 -3.87482 0
M  V30 7526 N 702.098 1.27442 -0.927168 0
M  V30 7527 C 703.323 1.99036 -0.583042 0
M  V30 7528 C 703.748 1.68711 0.83176 0
M  V30 7529 O 703.106 0.927081 1.55804 0
M  V30 7530 C 703.154 3.51271 -0.814925 0
M  V30 7531 O 702.258 4.12226 0.119742 0
M  V30 7532 H 701.599 0.624883 -0.224538 0
M  V30 7533 H 704.129 1.62263 -1.24628 0
M  V30 7534 H 704.139 4.01411 -0.730282 0
M  V30 7535 H 702.814 3.72676 -1.84623 0
M  V30 7536 H 701.391 3.72897 -0.0147688 0
M  V30 7537 N 703.576 0.692616 1.41565 0
M  V30 7538 C 704.801 0.229776 2.06123 0
M  V30 7539 C 705.226 -1.11119 1.5177 0
M  V30 7540 O 704.584 -1.69498 0.643444 0
M  V30 7541 C 704.632 0.19469 3.60074 0
M  V30 7542 O 703.736 -0.831366 4.03933 0
M  V30 7543 H 703.077 0.113002 0.654314 0
M  V30 7544 H 705.607 0.946645 1.81383 0
M  V30 7545 H 705.617 0.0245487 4.07993 0
M  V30 7546 H 704.292 1.17339 3.99004 0
M  V30 7547 H 702.869 -0.630819 3.67526 0
M  V30 7548 N 705.054 -1.51416 0.437162 0
M  V30 7549 C 706.282 -2.06503 -0.128045 0
M  V30 7550 C 706.697 -1.30461 -1.36475 0
M  V30 7551 O 706.054 -0.364127 -1.78831 0
M  V30 7552 C 706.105 -3.58683 -0.450437 0
M  V30 7553 O 705.826 -4.31853 0.737186 0
M  V30 7554 C 707.327 -4.30284 -1.06633 0
M  V30 7555 H 704.547 -0.670952 -0.00800269 0
M  V30 7556 H 707.091 -1.94996 0.616193 0
M  V30 7557 H 705.246 -3.70106 -1.14457 0
M  V30 7558 H 705.66 -5.22467 0.461347 0
M  V30 7559 H 707.134 -5.37848 -1.24191 0
M  V30 7560 H 707.611 -3.88564 -2.0473 0
M  V30 7561 H 708.217 -4.23304 -0.411585 0
M  V30 7562 N 706.532 -0.168513 -1.56696 0
M  V30 7563 C 707.495 0.748928 -2.16619 0
M  V30 7564 C 708.495 1.16007 -1.11351 0
M  V30 7565 O 709.685 1.07748 -1.3688 0
M  V30 7566 C 706.817 2.01904 -2.74677 0
M  V30 7567 H 708.01 0.227317 -2.99037 0
M  V30 7568 H 705.563 0.0810372 -1.5609 0
M  V30 7569 H 706.298 2.58381 -1.95985 0
M  V30 7570 H 706.083 1.73323 -3.51712 0
M  V30 7571 H 707.573 2.67383 -3.20774 0
M  V30 7572 N 708.01 1.57248 0.105221 0
M  V30 7573 C 709.421 1.74612 0.660865 0
M  V30 7574 C 709.772 0.789231 1.79626 0
M  V30 7575 O 708.897 -0.0346611 2.16372 0
M  V30 7576 C 709.492 3.16624 1.20559 0
M  V30 7577 C 708.051 3.35447 1.7074 0
M  V30 7578 C 707.198 2.70445 0.612764 0
M  V30 7579 H 710.149 1.5824 -0.12079 0
M  V30 7580 H 710.17 3.18937 2.07508 0
M  V30 7581 H 709.682 3.86245 0.379012 0
M  V30 7582 H 707.783 2.7089 2.5583 0
M  V30 7583 H 707.896 4.43702 1.80736 0
M  V30 7584 H 706.26 2.32061 1.04975 0
M  V30 7585 H 707.043 3.42699 -0.203066 0
M  V30 7586 N 709.488 -0.375779 1.53054 0
M  V30 7587 C 710.735 -1.11948 1.68742 0
M  V30 7588 C 711.063 -1.89596 0.434015 0
M  V30 7589 O 710.318 -1.86787 -0.583867 0
M  V30 7590 C 710.617 -2.11356 2.88207 0
M  V30 7591 C 710.283 -1.50266 4.25124 0
M  V30 7592 C 708.945 -1.33333 4.62359 0
M  V30 7593 C 711.297 -1.05976 5.10312 0
M  V30 7594 C 708.625 -0.706765 5.82427 0
M  V30 7595 C 710.977 -0.447241 6.31017 0
M  V30 7596 C 709.641 -0.265314 6.66973 0
M  V30 7597 H 708.911 -0.409648 0.61747 0
M  V30 7598 H 711.558 -0.402492 1.87222 0
M  V30 7599 H 709.863 -2.89322 2.64197 0
M  V30 7600 H 711.56 -2.68833 2.97539 0
M  V30 7601 H 708.15 -1.64437 3.95801 0
M  V30 7602 H 712.334 -1.17855 4.82104 0
M  V30 7603 H 707.59 -0.554132 6.08884 0
M  V30 7604 H 711.764 -0.0958064 6.96334 0
M  V30 7605 H 709.391 0.222267 7.59875 0
M  V30 7606 N 710.966 -1.44241 -0.634997 0
M  V30 7607 C 711.876 -1.53293 -1.77591 0
M  V30 7608 C 712.892 -0.418831 -1.68884 0
M  V30 7609 O 714.068 -0.675619 -1.8973 0
M  V30 7610 C 711.133 -1.47075 -3.13958 0
M  V30 7611 C 710.194 -2.69304 -3.34326 0
M  V30 7612 C 709.427 -2.63374 -4.64187 0
M  V30 7613 O 709.65 -1.69161 -5.44739 0
M  V30 7614 O 708.584 -3.54166 -4.86673 0
M  V30 7615 H 712.41 -2.49673 -1.72908 0
M  V30 7616 H 709.995 -1.26445 -0.795745 0
M  V30 7617 H 711.877 -1.46117 -3.95257 0
M  V30 7618 H 710.552 -0.538373 -3.19192 0
M  V30 7619 H 709.459 -2.75831 -2.52721 0
M  V30 7620 H 710.792 -3.61576 -3.33951 0
M  V30 7621 N 712.444 0.87505 -1.31075 0
M  V30 7622 C 713.392 2.00317 -1.18219 0
M  V30 7623 C 714.386 1.69152 -0.0916872 0
M  V30 7624 O 715.592 1.7821 -0.253229 0
M  V30 7625 H 711.967 0.656981 -0.365895 0
M  V30 7626 H 713.938 2.08293 -2.13674 0
M  V30 7627 C 712.687 3.35821 -0.901095 0
M  V30 7628 H 712.01 3.6032 -1.73233 0
M  V30 7629 H 713.45 4.15366 -0.851295 0
M  V30 7630 C 711.909 3.34563 0.396114 0
M  V30 7631 O 712.439 3.75971 1.41452 0
M  V30 7632 N 710.645 2.87681 0.410832 0
M  V30 7633 H 710.192 2.54179 -0.418415 0
M  V30 7634 H 710.15 2.87223 1.27869 0
M  V30 7635 N 713.922 1.13953 1.08869 0
M  V30 7636 C 714.87 0.817664 2.17754 0
M  V30 7637 C 715.864 -0.202444 1.68186 0
M  V30 7638 O 717.07 -0.0590159 1.79903 0
M  V30 7639 H 713.445 0.246671 0.710392 0
M  V30 7640 H 715.416 1.74401 2.4213 0
M  V30 7641 C 714.165 0.3063 3.46348 0
M  V30 7642 H 713.488 1.08259 3.84864 0
M  V30 7643 H 714.928 0.119584 4.23831 0
M  V30 7644 C 713.387 -0.969158 3.22659 0
M  V30 7645 O 713.917 -2.04386 3.45817 0
M  V30 7646 N 712.123 -0.902516 2.7623 0
M  V30 7647 H 711.67 -0.027801 2.57585 0
M  V30 7648 H 711.628 -1.75649 2.60758 0
M  V30 7649 N 715.4 -1.26948 0.933913 0
M  V30 7650 C 716.647 -1.94087 0.577625 0
M  V30 7651 C 716.975 -1.73345 -0.88214 0
M  V30 7652 O 716.23 -1.05945 -1.64542 0
M  V30 7653 C 716.529 -3.46963 0.857406 0
M  V30 7654 C 716.195 -3.87834 2.2999 0
M  V30 7655 C 714.857 -3.98704 2.69423 0
M  V30 7656 C 717.209 -4.08442 3.23766 0
M  V30 7657 C 714.537 -4.27573 4.01744 0
M  V30 7658 C 716.889 -4.38798 4.55675 0
M  V30 7659 C 715.553 -4.47881 4.94934 0
M  V30 7660 H 714.823 -0.710215 0.211368 0
M  V30 7661 H 717.47 -1.50899 1.17905 0
M  V30 7662 H 715.775 -3.91416 0.173369 0
M  V30 7663 H 717.472 -3.97062 0.560615 0
M  V30 7664 H 714.062 -3.79916 1.98399 0
M  V30 7665 H 718.246 -3.99479 2.94499 0
M  V30 7666 H 713.502 -4.32815 4.31834 0
M  V30 7667 H 717.676 -4.5369 5.28335 0
M  V30 7668 H 715.303 -4.70005 5.97495 0
M  V30 7669 N 716.879 -0.700114 -1.41195 0
M  V30 7670 C 718.126 -0.233006 -2.01155 0
M  V30 7671 C 718.454 1.16883 -1.55462 0
M  V30 7672 O 717.709 1.80395 -0.758695 0
M  V30 7673 C 718.008 -0.243986 -3.56566 0
M  V30 7674 C 717.674 -1.59397 -4.21786 0
M  V30 7675 C 716.336 -1.96355 -4.39316 0
M  V30 7676 C 718.688 -2.48192 -4.58312 0
M  V30 7677 C 716.016 -3.21683 -4.9065 0
M  V30 7678 C 718.368 -3.72857 -5.11039 0
M  V30 7679 C 717.032 -4.09951 -5.26779 0
M  V30 7680 H 716.302 -0.085263 -0.736078 0
M  V30 7681 H 718.949 -0.9001 -1.69028 0
M  V30 7682 H 717.254 0.506663 -3.8851 0
M  V30 7683 H 718.951 0.135031 -4.00773 0
M  V30 7684 H 715.541 -1.29654 -4.08519 0
M  V30 7685 H 719.725 -2.20918 -4.4442 0
M  V30 7686 H 714.981 -3.50412 -5.01021 0
M  V30 7687 H 719.155 -4.41844 -5.38282 0
M  V30 7688 H 716.782 -5.07136 -5.66319 0
M  V30 7689 N 718.357 1.51182 -0.445186 0
M  V30 7690 C 719.305 2.29531 0.376597 0
M  V30 7691 C 720.299 1.35711 1.01385 0
M  V30 7692 O 721.505 1.53018 0.947922 0
M  V30 7693 H 717.88 0.738803 0.140267 0
M  V30 7694 H 719.851 2.96838 -0.304958 0
M  V30 7695 C 718.6 3.1552 1.4609 0
M  V30 7696 H 717.923 3.87605 0.979912 0
M  V30 7697 H 719.363 3.73384 2.009 0
M  V30 7698 C 717.822 2.31406 2.44852 0
M  V30 7699 O 718.352 1.97912 3.49562 0
M  V30 7700 N 716.558 1.94478 2.15932 0
M  V30 7701 H 716.105 2.21917 1.30808 0
M  V30 7702 H 716.063 1.38498 2.82251 0
M  V30 7703 N 719.835 0.176821 1.56605 0
M  V30 7704 C 720.745 -0.763682 2.21822 0
M  V30 7705 C 721.761 -1.24889 1.21156 0
M  V30 7706 O 722.937 -1.29987 1.53836 0
M  V30 7707 C 720.002 -1.97352 2.8505 0
M  V30 7708 C 719.063 -1.53466 4.00932 0
M  V30 7709 C 718.296 -2.68682 4.61135 0
M  V30 7710 O 718.519 -3.85694 4.20234 0
M  V30 7711 O 717.453 -2.42442 5.50913 0
M  V30 7712 H 721.279 -0.238363 3.02763 0
M  V30 7713 H 718.864 -0.0516331 1.49311 0
M  V30 7714 H 720.746 -2.68096 3.25119 0
M  V30 7715 H 719.421 -2.48779 2.07101 0
M  V30 7716 H 718.328 -0.796551 3.65521 0
M  V30 7717 H 719.661 -1.06724 4.8049 0
M  V30 7718 N 721.313 -1.57302 -0.09688 0
M  V30 7719 C 722.538 -1.9058 -0.818169 0
M  V30 7720 C 722.963 -0.770921 -1.71576 0
M  V30 7721 O 722.321 0.277588 -1.79162 0
M  V30 7722 C 722.369 -3.22714 -1.60898 0
M  V30 7723 O 721.473 -3.10178 -2.71779 0
M  V30 7724 H 720.814 -0.624759 -0.224882 0
M  V30 7725 H 723.344 -2.04471 -0.07264 0
M  V30 7726 H 723.354 -3.55978 -1.99358 0
M  V30 7727 H 722.029 -4.04899 -0.950227 0
M  V30 7728 H 720.606 -2.88424 -2.3636 0
M  V30 7729 N 722.791 0.367657 -1.53252 0
M  V30 7730 C 723.724 1.47264 -1.74323 0
M  V30 7731 C 724.702 1.51458 -0.591535 0
M  V30 7732 O 725.886 1.69542 -0.823883 0
M  V30 7733 C 723.013 2.85637 -1.82015 0
M  V30 7734 C 722.059 2.99176 -3.03967 0
M  V30 7735 S 722.892 2.68147 -4.63527 0
M  V30 7736 C 724.048 4.08673 -4.74065 0
M  V30 7737 H 724.281 1.29169 -2.67773 0
M  V30 7738 H 721.814 0.561866 -1.43814 0
M  V30 7739 H 723.772 3.65365 -1.87132 0
M  V30 7740 H 722.433 3.01043 -0.896195 0
M  V30 7741 H 721.626 4.00511 -3.05953 0
M  V30 7742 H 721.228 2.27367 -2.96952 0
M  V30 7743 H 723.52 5.02889 -4.53992 0
M  V30 7744 H 724.463 4.11693 -5.7612 0
M  V30 7745 H 724.871 3.95576 -4.02716 0
M  V30 7746 N 724.269 1.44576 0.627338 0
M  V30 7747 C 725.217 1.52039 1.76031 0
M  V30 7748 C 726.211 0.391796 1.64807 0
M  V30 7749 O 727.417 0.5669 1.7084 0
M  V30 7750 H 723.792 0.477165 0.581221 0
M  V30 7751 H 725.763 2.47387 1.6686 0
M  V30 7752 C 724.512 1.48539 3.14375 0
M  V30 7753 H 723.835 2.34699 3.23661 0
M  V30 7754 H 725.275 1.57821 3.93534 0
M  V30 7755 C 723.734 0.20672 3.36265 0
M  V30 7756 O 724.264 -0.72154 3.95167 0
M  V30 7757 N 722.47 0.108654 2.90397 0
M  V30 7758 H 722.017 0.864884 2.42647 0
M  V30 7759 H 721.975 -0.746121 3.05418 0
M  V30 7760 N 725.747 -0.868086 1.31537 0
M  V30 7761 C 726.657 -2.00801 1.21311 0
M  V30 7762 C 727.673 -1.73518 0.129431 0
M  V30 7763 O 728.849 -1.98378 0.347588 0
M  V30 7764 C 725.914 -3.3419 0.922935 0
M  V30 7765 C 724.975 -3.74783 2.0937 0
M  V30 7766 C 724.208 -5.01807 1.81728 0
M  V30 7767 O 724.431 -5.65404 0.753313 0
M  V30 7768 O 723.365 -5.39213 2.67457 0
M  V30 7769 H 727.191 -2.12361 2.17109 0
M  V30 7770 H 724.776 -0.996684 1.11295 0
M  V30 7771 H 726.658 -4.14174 0.777033 0
M  V30 7772 H 725.333 -3.237 -0.00500301 0
M  V30 7773 H 724.24 -2.95432 2.29501 0
M  V30 7774 H 725.573 -3.89902 3.00396 0
M  V30 7775 N 727.225 -1.14528 -1.08264 0
M  V30 7776 C 728.465 -0.924808 -1.82282 0
M  V30 7777 C 728.829 0.538881 -1.84283 0
M  V30 7778 O 730.03 0.877355 -2.54079 0
M  V30 7779 C 728.301 -1.51102 -3.23887 0
M  V30 7780 S 729.86 -1.43232 -4.14765 0
M  V30 7781 H 726.678 -0.333052 -0.62817 0
M  V30 7782 H 729.28 -1.45905 -1.30123 0
M  V30 7783 H 727.984 -2.56942 -3.20014 0
M  V30 7784 H 727.515 -0.975234 -3.8112 0
M  V30 7785 H 729.53 -0.418843 -4.94429 0
M  V30 7786 N 728.703 1.26451 -0.940633 0
M  V30 7787 C 730.119 1.4608 -0.642859 0
M  V30 7788 C 730.319 1.84765 0.803998 0
M  V30 7789 O 729.375 1.96902 1.58069 0
M  V30 7790 C 730.688 2.54359 -1.60381 0
M  V30 7791 C 732.236 2.6821 -1.61345 0
M  V30 7792 C 732.711 3.79659 -2.56169 0
M  V30 7793 N 734.202 3.87051 -2.54452 0
M  V30 7794 C 734.937 4.72739 -3.24507 0
M  V30 7795 N 734.433 5.6282 -4.03987 0
M  V30 7796 N 736.226 4.66581 -3.13462 0
M  V30 7797 H 728.377 0.996289 -1.87584 0
M  V30 7798 H 730.64 0.498921 -0.80609 0
M  V30 7799 H 730.346 2.32758 -2.6366 0
M  V30 7800 H 730.22 3.52005 -1.35545 0
M  V30 7801 H 732.607 2.89184 -0.587913 0
M  V30 7802 H 732.688 1.7101 -1.90235 0
M  V30 7803 H 732.332 3.59438 -3.58841 0
M  V30 7804 H 732.262 4.76315 -2.2457 0
M  V30 7805 H 734.753 3.22649 -1.96739 0
M  V30 7806 H 735.066 6.25095 -4.54396 0
M  V30 7807 H 733.411 5.62574 -4.08088 0
M  V30 7808 H 736.602 3.9521 -2.50852 0
M  V30 7809 H 736.775 5.33141 -3.68327 0
M  V30 7810 N 730.181 0.707592 1.40822 0
M  V30 7811 C 731.129 0.0386643 2.32568 0
M  V30 7812 C 732.123 -0.755653 1.51612 0
M  V30 7813 O 733.329 -0.659921 1.67467 0
M  V30 7814 H 729.704 -0.00629912 0.751974 0
M  V30 7815 H 731.675 0.8293 2.86645 0
M  V30 7816 C 730.424 -0.87496 3.36511 0
M  V30 7817 H 729.747 -0.273157 3.98866 0
M  V30 7818 H 731.187 -1.31111 4.03219 0
M  V30 7819 C 729.646 -1.99672 2.71353 0
M  V30 7820 O 730.176 -3.08676 2.57064 0
M  V30 7821 N 728.382 -1.77799 2.29861 0
M  V30 7822 H 727.929 -0.89147 2.41683 0
M  V30 7823 H 727.887 -2.53036 1.86601 0
M  V30 7824 N 731.66 -1.50943 0.453197 0
M  V30 7825 C 732.906 -2.03153 -0.100277 0
M  V30 7826 C 733.261 -1.33032 -1.38997 0
M  V30 7827 O 732.554 -0.441423 -1.86446 0
M  V30 7828 C 732.748 -3.55603 -0.357944 0
M  V30 7829 C 732.577 -4.40495 0.905223 0
M  V30 7830 C 731.347 -4.84247 1.44337 0
M  V30 7831 C 733.545 -4.81931 1.79575 0
M  V30 7832 N 731.527 -5.53403 2.65742 0
M  V30 7833 C 732.898 -5.50314 2.85577 0
M  V30 7834 C 734.953 -4.63903 1.80828 0
M  V30 7835 C 733.656 -6.02581 3.92797 0
M  V30 7836 C 735.682 -5.17097 2.86993 0
M  V30 7837 C 735.044 -5.8544 3.91713 0
M  V30 7838 H 731.143 -0.781995 0.00287755 0
M  V30 7839 H 733.727 -1.84651 0.617411 0
M  V30 7840 H 731.898 -3.74087 -1.04467 0
M  V30 7841 H 733.63 -3.9447 -0.904175 0
M  V30 7842 H 730.385 -4.63029 0.995045 0
M  V30 7843 H 730.809 -5.92598 3.27348 0
M  V30 7844 H 735.451 -4.10512 1.0119 0
M  V30 7845 H 733.169 -6.55018 4.73262 0
M  V30 7846 H 736.755 -5.0499 2.88923 0
M  V30 7847 H 735.635 -6.25861 4.72512 0
M  V30 7848 N 733.138 -0.185124 -1.56509 0
M  V30 7849 C 734.07 0.771401 -2.15829 0
M  V30 7850 C 735.083 1.18392 -1.11747 0
M  V30 7851 O 736.272 1.12137 -1.38879 0
M  V30 7852 C 733.372 2.05169 -2.69739 0
M  V30 7853 C 732.545 1.80056 -3.98621 0
M  V30 7854 C 731.604 2.92435 -4.37456 0
M  V30 7855 O 730.63 2.62473 -5.05071 0
M  V30 7856 N 731.832 4.20554 -4.00143 0
M  V30 7857 H 734.597 0.264184 -2.98533 0
M  V30 7858 H 732.158 -0.00281069 -1.619 0
M  V30 7859 H 734.15 2.7947 -2.92709 0
M  V30 7860 H 732.72 2.47041 -1.91545 0
M  V30 7861 H 731.94 0.895862 -3.83885 0
M  V30 7862 H 733.228 1.60662 -4.82768 0
M  V30 7863 H 732.626 4.47753 -3.45736 0
M  V30 7864 H 731.183 4.91514 -4.28085 0
M  V30 7865 N 734.616 1.57351 0.0885366 0
M  V30 7866 C 735.893 1.77449 0.822873 0
M  V30 7867 C 736.273 0.768463 1.96616 0
M  V30 7868 O 735.621 -0.201757 2.27608 0
M  V30 7869 C 735.831 3.23425 1.31137 0
M  V30 7870 C 737.179 3.86791 1.75152 0
M  V30 7871 O 738.203 3.27215 1.40745 0
M  V30 7872 O 737.062 4.91568 2.38794 0
M  V30 7873 H 734.156 0.727653 0.393002 0
M  V30 7874 H 736.702 1.69556 0.0699095 0
M  V30 7875 H 735.474 3.88188 0.49254 0
M  V30 7876 H 735.097 3.35977 2.12615 0
M  V30 7877 N 736.094 -0.359525 1.53444 0
M  V30 7878 C 737.042 -1.46104 1.80987 0
M  V30 7879 C 738.036 -1.55181 0.679351 0
M  V30 7880 O 739.242 -1.57995 0.862405 0
M  V30 7881 H 735.617 -0.486835 0.573145 0
M  V30 7882 H 737.588 -1.2008 2.73173 0
M  V30 7883 C 736.337 -2.82855 2.02208 0
M  V30 7884 H 735.66 -2.76631 2.88644 0
M  V30 7885 H 737.1 -3.59091 2.25455 0
M  V30 7886 C 735.559 -3.27192 0.802931 0
M  V30 7887 O 736.089 -4.017 -0.00544286 0
M  V30 7888 N 734.295 -2.83807 0.624657 0
M  V30 7889 H 733.842 -2.23339 1.28364 0
M  V30 7890 H 733.8 -3.13828 -0.189641 0
M  V30 7891 N 737.572 -1.44907 -0.619662 0
M  V30 7892 C 738.8 -1.51795 -1.40591 0
M  V30 7893 C 739.215 -0.146553 -1.8823 0
M  V30 7894 O 738.572 0.849698 -1.61513 0
M  V30 7895 C 738.623 -2.49229 -2.61853 0
M  V30 7896 O 738.344 -3.81039 -2.16197 0
M  V30 7897 C 739.845 -2.65696 -3.54853 0
M  V30 7898 H 737.065 -0.514463 -0.430777 0
M  V30 7899 H 739.609 -1.8998 -0.756813 0
M  V30 7900 H 737.764 -2.14149 -3.2283 0
M  V30 7901 H 738.178 -4.33747 -2.94896 0
M  V30 7902 H 739.652 -3.37874 -4.36515 0
M  V30 7903 H 740.129 -1.71316 -4.0441 0
M  V30 7904 H 740.735 -3.01724 -2.99737 0
M  V30 7905 N 739.05 0.861098 -1.31996 0
M  V30 7906 C 740.013 1.95068 -1.20338 0
M  V30 7907 C 741.013 1.60289 -0.128114 0
M  V30 7908 O 742.203 1.70048 -0.378044 0
M  V30 7909 C 739.335 3.30153 -0.849205 0
M  V30 7910 H 740.528 2.06833 -2.17164 0
M  V30 7911 H 738.081 1.05049 -1.15734 0
M  V30 7912 H 738.816 3.24087 0.117508 0
M  V30 7913 H 738.601 3.56771 -1.62655 0
M  V30 7914 H 740.091 4.10025 -0.791782 0
M  V30 7915 N 740.528 1.15101 1.07655 0
M  V30 7916 C 741.939 0.933848 1.61667 0
M  V30 7917 C 742.29 -0.525569 1.8903 0
M  V30 7918 O 741.415 -1.39605 1.65346 0
M  V30 7919 C 742.01 1.68876 2.93711 0
M  V30 7920 C 740.569 1.51697 3.44478 0
M  V30 7921 C 739.716 1.70633 2.18586 0
M  V30 7922 H 742.667 1.30171 0.907816 0
M  V30 7923 H 742.688 1.15645 3.625 0
M  V30 7924 H 742.2 2.7509 2.73764 0
M  V30 7925 H 740.301 0.478635 3.69513 0
M  V30 7926 H 740.414 2.29194 4.20722 0
M  V30 7927 H 738.778 1.13259 2.28132 0
M  V30 7928 H 739.561 2.78206 2.01137 0
M  V30 7929 N 742.006 -1.2595 0.947325 0
M  V30 7930 C 742.939 -2.24559 0.406009 0
M  V30 7931 C 743.917 -1.54441 -0.508598 0
M  V30 7932 O 745.101 -1.83181 -0.444644 0
M  V30 7933 C 742.228 -3.36136 -0.415987 0
M  V30 7934 C 741.274 -4.24245 0.437969 0
M  V30 7935 S 742.107 -5.01948 1.86572 0
M  V30 7936 C 743.263 -6.16997 1.05194 0
M  V30 7937 H 743.496 -2.70128 1.24171 0
M  V30 7938 H 741.029 -1.34912 0.750874 0
M  V30 7939 H 742.987 -4.00861 -0.88433 0
M  V30 7940 H 741.648 -2.89167 -1.22643 0
M  V30 7941 H 740.841 -5.03634 -0.192127 0
M  V30 7942 H 740.443 -3.64416 0.841235 0
M  V30 7943 H 742.735 -6.76848 0.297126 0
M  V30 7944 H 743.678 -6.84324 1.8195 0
M  V30 7945 H 744.086 -5.61458 0.585294 0
M  V30 7946 N 743.484 -0.715051 -1.40445 0
M  V30 7947 C 744.732 -0.253826 -2.005 0
M  V30 7948 C 745.053 1.15681 -1.5698 0
M  V30 7949 O 744.323 1.78414 -0.809027 0
M  V30 7950 H 742.903 -0.0908537 -0.741454 0
M  V30 7951 H 745.565 -0.920561 -1.7179 0
M  V30 7952 H 744.661 -0.286499 -3.10782 0
M  V30 7953 N 744.962 1.50701 -0.461195 0
M  V30 7954 C 745.91 2.29918 0.352231 0
M  V30 7955 C 746.904 1.36778 0.999403 0
M  V30 7956 O 748.11 1.54015 0.931639 0
M  V30 7957 H 744.485 0.740249 0.132423 0
M  V30 7958 H 746.456 2.96497 -0.336424 0
M  V30 7959 C 745.205 3.17052 1.42736 0
M  V30 7960 H 744.528 3.88623 0.938747 0
M  V30 7961 H 745.968 3.75493 1.96928 0
M  V30 7962 C 744.427 2.3399 2.42384 0
M  V30 7963 O 744.957 2.01608 3.47444 0
M  V30 7964 N 743.163 1.96758 2.13857 0
M  V30 7965 H 742.71 2.23292 1.28447 0
M  V30 7966 H 742.668 1.41484 2.80766 0
M  V30 7967 N 746.441 0.193421 1.56409 0
M  V30 7968 C 747.718 -0.493318 1.89277 0
M  V30 7969 C 748.098 -1.79765 1.10669 0
M  V30 7970 O 747.446 -2.27558 0.207274 0
M  V30 7971 C 747.656 -0.713732 3.41624 0
M  V30 7972 C 749.004 -1.03385 4.11821 0
M  V30 7973 O 750.028 -0.801511 3.47065 0
M  V30 7974 O 748.887 -1.47327 5.26267 0
M  V30 7975 H 745.981 -0.256973 0.786062 0
M  V30 7976 H 748.527 0.23351 1.68086 0
M  V30 7977 H 747.299 0.207446 3.9075 0
M  V30 7978 H 746.922 -1.49308 3.68501 0
M  V30 7979 N 747.919 -1.57396 -0.0801906 0
M  V30 7980 C 749.147 -1.91055 -0.794075 0
M  V30 7981 C 749.562 -0.788583 -1.71542 0
M  V30 7982 O 748.919 0.238587 -1.80934 0
M  V30 7983 C 748.97 -3.24418 -1.59484 0
M  V30 7984 O 748.691 -4.323 -0.710532 0
M  V30 7985 C 750.192 -3.72037 -2.41046 0
M  V30 7986 H 747.412 -0.63171 -0.226238 0
M  V30 7987 H 749.956 -2.04431 -0.0529685 0
M  V30 7988 H 748.111 -3.12595 -2.2883 0
M  V30 7989 H 748.525 -5.08976 -1.26663 0
M  V30 7990 H 749.999 -4.68006 -2.92702 0
M  V30 7991 H 750.476 -3.00624 -3.2019 0
M  V30 7992 H 751.082 -3.86777 -1.76871 0
M  V30 7993 N 749.397 0.351382 -1.53633 0
M  V30 7994 C 750.646 1.08988 -1.69719 0
M  V30 7995 C 750.959 1.90043 -0.462948 0
M  V30 7996 O 752.165 2.66769 -0.504613 0
M  V30 7997 C 750.621 1.98691 -3.00083 0
M  V30 7998 C 750.229 1.22881 -4.30818 0
M  V30 7999 C 751.973 2.72446 -3.25536 0
M  V30 8000 C 749.88 2.11568 -5.52262 0
M  V30 8001 H 748.81 0.410588 -0.632403 0
M  V30 8002 H 751.461 0.349886 -1.80133 0
M  V30 8003 H 749.843 2.76478 -2.83506 0
M  V30 8004 H 751.017 0.500582 -4.58073 0
M  V30 8005 H 749.332 0.60928 -4.11918 0
M  V30 8006 H 751.929 3.39055 -4.13456 0
M  V30 8007 H 752.272 3.38588 -2.42206 0
M  V30 8008 H 752.805 2.01735 -3.42852 0
M  V30 8009 H 749.544 1.4998 -6.38111 0
M  V30 8010 H 749.064 2.82201 -5.29266 0
M  V30 8011 H 750.743 2.70802 -5.87601 0
M  V30 8012 N 750.875 1.45233 0.611969 0
M  V30 8013 C 751.805 1.5641 1.73373 0
M  V30 8014 C 752.786 0.415896 1.64937 0
M  V30 8015 O 753.971 0.638478 1.83404 0
M  V30 8016 C 751.101 1.52627 3.11965 0
M  V30 8017 C 750.055 2.66119 3.35208 0
M  V30 8018 C 749.381 2.4739 4.74028 0
M  V30 8019 C 750.681 4.08157 3.25891 0
M  V30 8020 H 752.375 2.50307 1.64277 0
M  V30 8021 H 749.921 1.20467 0.788904 0
M  V30 8022 H 751.874 1.59043 3.90235 0
M  V30 8023 H 750.598 0.552564 3.21892 0
M  V30 8024 H 749.257 2.59123 2.59327 0
M  V30 8025 H 748.905 1.48168 4.80682 0
M  V30 8026 H 748.605 3.23494 4.90536 0
M  V30 8027 H 750.129 2.55653 5.54503 0
M  V30 8028 H 751.543 4.1642 3.9404 0
M  V30 8029 H 749.94 4.84617 3.5393 0
M  V30 8030 H 751.01 4.30374 2.23397 0
M  V30 8031 N 752.353 -0.854086 1.3245 0
M  V30 8032 C 753.3 -1.96271 1.21434 0
M  V30 8033 C 754.27 -1.6582 0.0963851 0
M  V30 8034 O 755.455 -1.88851 0.27203 0
M  V30 8035 C 752.595 -3.31939 0.943952 0
M  V30 8036 C 751.708 -3.74885 2.14675 0
M  V30 8037 C 750.843 -4.99347 1.81179 0
M  V30 8038 C 749.882 -5.34785 2.97777 0
M  V30 8039 N 749.019 -6.50425 2.6437 0
M  V30 8040 H 753.859 -2.05025 2.16261 0
M  V30 8041 H 751.396 -1.00348 1.07558 0
M  V30 8042 H 753.354 -4.10076 0.767675 0
M  V30 8043 H 751.984 -3.22784 0.0324763 0
M  V30 8044 H 751.036 -2.92396 2.43328 0
M  V30 8045 H 752.348 -3.97068 3.01891 0
M  V30 8046 H 751.502 -5.85193 1.60107 0
M  V30 8047 H 750.241 -4.79101 0.911777 0
M  V30 8048 H 749.246 -4.47451 3.1948 0
M  V30 8049 H 750.471 -5.56988 3.88511 0
M  V30 8050 H 748.417 -6.31695 1.7691 0
M  V30 8051 H 748.334 -6.7263 3.45116 0
M  V30 8052 H 749.602 -7.39422 2.46729 0
M  V30 8053 N 753.831 -1.1567 -1.07043 0
M  V30 8054 C 754.781 -0.824733 -2.12561 0
M  V30 8055 C 755.765 0.19243 -1.59745 0
M  V30 8056 O 756.957 -0.00728759 -1.76998 0
M  V30 8057 C 754.086 -0.31921 -3.41813 0
M  V30 8058 C 753.172 -1.36671 -4.01475 0
M  V30 8059 N 753.563 -2.57493 -4.35351 0
M  V30 8060 C 751.861 -1.22018 -4.28984 0
M  V30 8061 C 752.562 -3.24658 -4.82672 0
M  V30 8062 N 751.538 -2.52043 -4.81638 0
M  V30 8063 H 755.34 -1.74363 -2.3659 0
M  V30 8064 H 752.854 -1.04262 -1.24511 0
M  V30 8065 H 754.851 -0.0630216 -4.16852 0
M  V30 8066 H 753.511 0.593708 -3.19226 0
M  V30 8067 H 754.522 -2.94612 -4.25939 0
M  V30 8068 H 751.199 -0.367414 -4.1588 0
M  V30 8069 H 752.589 -4.2775 -5.1815 0
M  V30 8070 N 755.309 1.25446 -0.953992 0
M  V30 8071 C 756.219 2.29632 -0.480264 0
M  V30 8072 C 757.235 1.68025 0.452071 0
M  V30 8073 O 758.411 1.98703 0.328472 0
M  V30 8074 C 755.476 3.45903 0.234974 0
M  V30 8075 C 754.537 4.22953 -0.735495 0
M  V30 8076 C 753.77 5.33672 -0.0542957 0
M  V30 8077 O 753.993 5.58477 1.16018 0
M  V30 8078 O 752.927 5.9734 -0.739509 0
M  V30 8079 H 756.753 2.72242 -1.34602 0
M  V30 8080 H 754.338 1.30883 -0.720419 0
M  V30 8081 H 756.22 4.16552 0.637341 0
M  V30 8082 H 754.895 3.05296 1.07592 0
M  V30 8083 H 753.802 3.54734 -1.18806 0
M  V30 8084 H 755.135 4.67341 -1.54444 0
M  V30 8085 N 756.787 0.722489 1.40064 0
M  V30 8086 C 757.719 0.0349057 2.29173 0
M  V30 8087 C 758.732 -0.716571 1.46182 0
M  V30 8088 O 759.921 -0.562806 1.69395 0
M  V30 8089 C 757.021 -0.974839 3.24577 0
M  V30 8090 C 756.194 -0.287471 4.36454 0
M  V30 8091 C 755.253 -1.20356 5.12251 0
M  V30 8092 O 754.279 -0.685753 5.65054 0
M  V30 8093 N 755.481 -2.53422 5.22262 0
M  V30 8094 H 758.246 0.800058 2.88824 0
M  V30 8095 H 755.807 0.57068 1.51509 0
M  V30 8096 H 757.799 -1.59002 3.72157 0
M  V30 8097 H 756.369 -1.6413 2.66046 0
M  V30 8098 H 755.589 0.508008 3.90913 0
M  V30 8099 H 756.877 0.189382 5.08447 0
M  V30 8100 H 756.275 -2.97981 4.80857 0
M  V30 8101 H 754.832 -3.10067 5.73325 0
M  V30 8102 N 758.265 -1.50454 0.469181 0
M  V30 8103 C 759.514 -2.01507 -0.0881425 0
M  V30 8104 C 759.827 -1.35613 -1.40956 0
M  V30 8105 O 761.033 -1.77812 -2.05171 0
M  V30 8106 C 759.489 -3.59301 -0.207596 0
M  V30 8107 C 759.097 -4.34152 1.10527 0
M  V30 8108 C 760.841 -4.18401 -0.716981 0
M  V30 8109 C 758.748 -5.83725 0.949717 0
M  V30 8110 H 757.678 -0.753106 -0.0367156 0
M  V30 8111 H 760.329 -1.73282 0.603788 0
M  V30 8112 H 758.711 -3.84106 -0.963265 0
M  V30 8113 H 759.885 -4.21073 1.87175 0
M  V30 8114 H 758.2 -3.86652 1.54562 0
M  V30 8115 H 760.797 -5.27895 -0.850363 0
M  V30 8116 H 761.14 -3.79657 -1.70782 0
M  V30 8117 H 761.673 -3.97796 -0.0187511 0
M  V30 8118 H 758.412 -6.26938 1.91387 0
M  V30 8119 H 757.932 -5.99383 0.223591 0
M  V30 8120 H 759.611 -6.44065 0.61557 0
M  V30 8121 N 759.743 -0.201713 -1.56304 0
M  V30 8122 C 761.02 0.483273 -1.89536 0
M  V30 8123 C 761.4 1.79176 -1.11621 0
M  V30 8124 O 760.748 2.27445 -0.219339 0
M  V30 8125 C 760.958 0.695604 -3.41998 0
M  V30 8126 C 762.306 1.012 -4.12364 0
M  V30 8127 O 763.33 0.783094 -3.47485 0
M  V30 8128 O 762.189 1.44534 -5.27041 0
M  V30 8129 H 759.283 0.252801 -0.787414 0
M  V30 8130 H 761.829 -0.24242 -1.6796 0
M  V30 8131 H 760.601 -0.228165 -3.90634 0
M  V30 8132 H 760.224 1.47351 -3.69288 0
M  V30 8133 N 761.222 1.57436 0.0718424 0
M  V30 8134 C 762.154 2.00412 1.1121 0
M  V30 8135 C 763.167 0.910074 1.34987 0
M  V30 8136 O 764.356 1.18796 1.33228 0
M  V30 8137 C 761.456 2.32786 2.46301 0
M  V30 8138 C 760.629 3.64036 2.4248 0
M  V30 8139 C 759.688 3.8408 3.59679 0
M  V30 8140 O 758.714 4.55667 3.4111 0
M  V30 8141 N 759.916 3.2643 4.80025 0
M  V30 8142 H 762.681 2.90264 0.746118 0
M  V30 8143 H 760.242 1.59791 0.260495 0
M  V30 8144 H 762.234 2.43368 3.23348 0
M  V30 8145 H 760.804 1.48824 2.74901 0
M  V30 8146 H 760.024 3.64208 1.50818 0
M  V30 8147 H 761.312 4.50217 2.37027 0
M  V30 8148 H 760.71 2.68325 4.98014 0
M  V30 8149 H 759.267 3.42461 5.54584 0
M  V30 8150 N 762.7 -0.34323 1.53817 0
M  V30 8151 C 764.111 -0.918823 1.62525 0
M  V30 8152 C 764.462 -1.89542 0.506765 0
M  V30 8153 O 763.587 -2.13326 -0.363441 0
M  V30 8154 C 764.182 -1.67326 2.94597 0
M  V30 8155 C 762.741 -2.19786 3.05567 0
M  V30 8156 C 761.888 -1.01708 2.57974 0
M  V30 8157 H 764.839 -0.121358 1.58235 0
M  V30 8158 H 764.86 -2.53615 2.83654 0
M  V30 8159 H 764.372 -0.962223 3.75983 0
M  V30 8160 H 762.473 -2.94065 2.28816 0
M  V30 8161 H 762.586 -2.46135 4.1104 0
M  V30 8162 H 760.95 -1.39058 2.13389 0
M  V30 8163 H 761.733 -0.320671 3.41799 0
M  V30 8164 N 764.178 -1.45556 -0.604258 0
M  V30 8165 C 765.11 -1.50494 -1.72871 0
M  V30 8166 C 766.123 -0.395368 -1.57926 0
M  V30 8167 O 767.312 -0.662603 -1.65746 0
M  V30 8168 C 764.412 -1.34874 -3.10906 0
M  V30 8169 C 763.585 -2.59564 -3.52058 0
M  V30 8170 C 762.644 -2.38453 -4.6907 0
M  V30 8171 O 761.67 -3.12082 -4.76018 0
M  V30 8172 N 762.872 -1.43229 -5.62553 0
M  V30 8173 H 765.637 -2.4744 -1.69097 0
M  V30 8174 H 763.198 -1.41338 -0.789636 0
M  V30 8175 H 765.19 -1.18556 -3.86945 0
M  V30 8176 H 763.76 -0.461913 -3.09168 0
M  V30 8177 H 762.98 -2.90974 -2.65946 0
M  V30 8178 H 764.268 -3.42441 -3.76313 0
M  V30 8179 H 763.666 -0.824714 -5.59656 0
M  V30 8180 H 762.223 -1.32882 -6.38111 0
M  V30 8181 N 765.656 0.84705 -1.32902 0
M  V30 8182 C 766.933 1.58583 -1.14503 0
M  V30 8183 C 767.313 2.09075 0.291724 0
M  V30 8184 O 766.661 1.88636 1.28952 0
M  V30 8185 C 766.871 2.72605 -2.17916 0
M  V30 8186 C 768.219 3.41993 -2.51646 0
M  V30 8187 O 769.243 2.82838 -2.1652 0
M  V30 8188 O 768.102 4.48761 -3.1189 0
M  V30 8189 H 765.196 0.698756 -0.442345 0
M  V30 8190 H 767.742 0.890516 -1.44457 0
M  V30 8191 H 766.514 2.32876 -3.14459 0
M  V30 8192 H 766.137 3.49807 -1.89 0
M  V30 8193 N 767.134 1.16236 1.06428 0
M  V30 8194 C 768.38 0.944431 1.79467 0
M  V30 8195 C 768.713 -0.526558 1.86925 0
M  V30 8196 O 767.988 -1.39061 1.35986 0
M  V30 8197 C 768.271 1.57092 3.24028 0
M  V30 8198 C 768.124 3.11315 3.24658 0
M  V30 8199 C 769.443 1.26447 4.21544 0
M  V30 8200 H 766.562 0.344521 0.651517 0
M  V30 8201 H 769.204 1.43545 1.24478 0
M  V30 8202 H 767.354 1.15337 3.70985 0
M  V30 8203 H 769.026 3.62042 2.85873 0
M  V30 8204 H 767.269 3.44716 2.6335 0
M  V30 8205 H 767.94 3.50269 4.26633 0
M  V30 8206 H 770.416 1.62581 3.83023 0
M  V30 8207 H 769.292 1.72885 5.20963 0
M  V30 8208 H 769.553 0.183068 4.41721 0
M  V30 8209 N 768.612 -1.24939 0.960631 0
M  V30 8210 C 769.56 -2.27659 0.47686 0
M  V30 8211 C 770.554 -1.63148 -0.455961 0
M  V30 8212 O 771.76 -1.76911 -0.332029 0
M  V30 8213 H 768.135 -0.739651 0.135723 0
M  V30 8214 H 770.106 -2.65844 1.35534 0
M  V30 8215 C 768.855 -3.46976 -0.224191 0
M  V30 8216 H 768.178 -3.96854 0.484471 0
M  V30 8217 H 769.618 -4.20717 -0.526615 0
M  V30 8218 C 768.077 -3.04159 -1.44876 0
M  V30 8219 O 768.607 -3.10697 -2.54618 0
M  V30 8220 N 766.813 -2.59284 -1.31226 0
M  V30 8221 H 766.36 -2.54164 -0.419361 0
M  V30 8222 H 766.318 -2.31 -2.13275 0
M  V30 8223 N 770.09 -0.729906 -1.39679 0
M  V30 8224 C 771.315 -0.284345 -2.05442 0
M  V30 8225 C 771.74 1.07056 -1.54663 0
M  V30 8226 O 771.098 1.67732 -0.688157 0
M  V30 8227 C 771.146 -0.290089 -3.59431 0
M  V30 8228 O 770.25 0.723978 -4.05995 0
M  V30 8229 H 769.591 -0.130311 -0.651088 0
M  V30 8230 H 772.121 -0.994403 -1.78809 0
M  V30 8231 H 772.131 -0.132712 -4.07784 0
M  V30 8232 H 770.806 -1.27877 -3.95753 0
M  V30 8233 H 769.383 0.533154 -3.69069 0
M  V30 8234 N 771.568 1.50203 -0.477153 0
M  V30 8235 C 772.815 2.02358 0.0757385 0
M  V30 8236 C 773.143 1.3587 1.39174 0
M  V30 8237 O 772.398 0.475415 1.89838 0
M  V30 8238 C 772.697 3.56127 0.301325 0
M  V30 8239 C 772.363 4.41126 -0.933725 0
M  V30 8240 C 771.025 4.64075 -1.27233 0
M  V30 8241 C 773.377 4.90737 -1.75576 0
M  V30 8242 C 770.705 5.33878 -2.43292 0
M  V30 8243 C 773.057 5.61816 -2.90768 0
M  V30 8244 C 771.721 5.83016 -3.25036 0
M  V30 8245 H 770.991 0.740482 0.0277147 0
M  V30 8246 H 773.638 1.80754 -0.632467 0
M  V30 8247 H 771.943 3.76279 1.09183 0
M  V30 8248 H 773.64 3.94053 0.743184 0
M  V30 8249 H 770.23 4.23489 -0.659935 0
M  V30 8250 H 774.414 4.72856 -1.50734 0
M  V30 8251 H 769.67 5.48499 -2.70109 0
M  V30 8252 H 773.844 5.99237 -3.54807 0
M  V30 8253 H 771.471 6.36881 -4.15074 0
M  V30 8254 N 773.046 0.209999 1.56195 0
M  V30 8255 C 774.009 -0.691232 2.18528 0
M  V30 8256 C 775.009 -1.13013 1.14388 0
M  V30 8257 O 776.199 -1.04081 1.39688 0
M  V30 8258 C 773.331 -1.94551 2.79934 0
M  V30 8259 H 774.524 -0.147953 2.99535 0
M  V30 8260 H 772.077 -0.0396243 1.5625 0
M  V30 8261 H 772.812 -2.53094 2.02766 0
M  V30 8262 H 772.597 -1.63938 3.56184 0
M  V30 8263 H 774.087 -2.58785 3.2775 0
M  V30 8264 N 774.524 -1.57472 -0.0634922 0
M  V30 8265 C 775.772 -1.87283 -0.759563 0
M  V30 8266 C 776.093 -0.803135 -1.77693 0
M  V30 8267 O 775.363 0.167293 -1.95184 0
M  V30 8268 H 773.943 -0.691106 -0.283516 0
M  V30 8269 H 776.605 -1.94864 -0.0376091 0
M  V30 8270 H 775.701 -2.85064 -1.27062 0
M  V30 8271 N 776.003 0.335068 -1.53997 0
M  V30 8272 C 777.251 1.07223 -1.71312 0
M  V30 8273 C 777.572 1.88911 -0.483486 0
M  V30 8274 O 776.842 1.89344 0.50257 0
M  V30 8275 H 775.422 0.398846 -0.63161 0
M  V30 8276 H 778.084 0.374288 -1.91272 0
M  V30 8277 H 777.18 1.7448 -2.58772 0
M  V30 8278 N 777.481 1.45874 0.596531 0
M  V30 8279 C 778.431 1.5181 1.70111 0
M  V30 8280 C 779.415 0.380293 1.56341 0
M  V30 8281 O 780.607 0.627849 1.6549 0
M  V30 8282 C 777.736 1.49822 3.08883 0
M  V30 8283 C 776.822 2.68845 3.27998 0
M  V30 8284 N 777.213 3.93873 3.17329 0
M  V30 8285 C 775.511 2.64777 3.589 0
M  V30 8286 C 776.212 4.73371 3.38076 0
M  V30 8287 N 775.188 4.0501 3.62585 0
M  V30 8288 H 778.99 2.46289 1.60372 0
M  V30 8289 H 776.504 1.41321 0.800138 0
M  V30 8290 H 778.501 1.5216 3.8814 0
M  V30 8291 H 777.161 0.564086 3.19763 0
M  V30 8292 H 778.172 4.25329 2.95492 0
M  V30 8293 H 774.849 1.80323 3.7655 0
M  V30 8294 H 776.239 5.82357 3.35127 0
M  V30 8295 N 778.959 -0.83999 1.33349 0
M  V30 8296 C 780.37 -1.41139 1.22216 0
M  V30 8297 C 780.721 -1.95551 -0.159398 0
M  V30 8298 O 779.846 -1.88721 -1.05893 0
M  V30 8299 C 780.441 -2.56564 2.21269 0
M  V30 8300 C 779 -3.09661 2.13979 0
M  V30 8301 C 778.147 -1.82457 2.08818 0
M  V30 8302 H 781.098 -0.645853 1.44964 0
M  V30 8303 H 781.119 -3.34163 1.81976 0
M  V30 8304 H 780.631 -2.16932 3.21811 0
M  V30 8305 H 778.732 -3.53841 1.16736 0
M  V30 8306 H 778.845 -3.6991 3.04472 0
M  V30 8307 H 777.209 -2.0266 1.54276 0
M  V30 8308 H 777.992 -1.45022 3.11165 0
M  V30 8309 N 780.437 -1.16799 -1.0581 0
M  V30 8310 C 781.685 -0.950642 -1.78346 0
M  V30 8311 C 782.006 0.522524 -1.87869 0
M  V30 8312 O 781.276 1.3795 -1.39092 0
M  V30 8313 H 779.856 -0.348736 -0.6606 0
M  V30 8314 H 782.518 -1.47158 -1.27791 0
M  V30 8315 H 781.614 -1.37359 -2.80248 0
M  V30 8316 N 781.915 1.24427 -0.967243 0
M  V30 8317 C 782.845 2.2773 -0.515899 0
M  V30 8318 C 783.826 1.64197 0.444227 0
M  V30 8319 O 785.011 1.91193 0.340451 0
M  V30 8320 C 782.141 3.46751 0.195149 0
M  V30 8321 C 781.095 4.22548 -0.680953 0
M  V30 8322 C 780.421 5.34456 0.161561 0
M  V30 8323 C 781.721 4.83914 -1.96532 0
M  V30 8324 H 783.415 2.65735 -1.37933 0
M  V30 8325 H 780.961 1.27742 -0.664681 0
M  V30 8326 H 782.914 4.18153 0.522117 0
M  V30 8327 H 781.638 3.07771 1.09292 0
M  V30 8328 H 780.297 3.52946 -0.991186 0
M  V30 8329 H 779.945 4.91716 1.05947 0
M  V30 8330 H 779.645 5.86087 -0.421418 0
M  V30 8331 H 781.169 6.08685 0.483211 0
M  V30 8332 H 782.583 5.47392 -1.70396 0
M  V30 8333 H 780.98 5.45775 -2.49499 0
M  V30 8334 H 782.05 4.05393 -2.66053 0
M  V30 8335 N 783.393 0.737304 1.3929 0
M  V30 8336 C 784.64 0.286257 2.00467 0
M  V30 8337 C 784.968 -1.1272 1.58507 0
M  V30 8338 O 784.223 -1.7832 0.806257 0
M  V30 8339 C 784.522 0.338438 3.55794 0
M  V30 8340 C 784.188 1.70524 4.17411 0
M  V30 8341 C 782.85 2.07934 4.33955 0
M  V30 8342 C 785.202 2.60256 4.51571 0
M  V30 8343 C 782.53 3.34578 4.81948 0
M  V30 8344 C 784.882 3.86275 5.00974 0
M  V30 8345 C 783.546 4.23774 5.15725 0
M  V30 8346 H 782.816 0.104749 0.733559 0
M  V30 8347 H 785.463 0.944598 1.66582 0
M  V30 8348 H 783.768 -0.403478 3.89717 0
M  V30 8349 H 785.465 -0.0287255 4.0099 0
M  V30 8350 H 782.055 1.40439 4.04938 0
M  V30 8351 H 786.239 2.32624 4.38406 0
M  V30 8352 H 781.495 3.63572 4.91554 0
M  V30 8353 H 785.669 4.5596 5.26378 0
M  V30 8354 H 783.296 5.21972 5.52674 0
M  V30 8355 N 784.871 -1.49948 0.485112 0
M  V30 8356 C 785.803 -2.26691 -0.338222 0
M  V30 8357 C 786.816 -1.32584 -0.944742 0
M  V30 8358 O 788.005 -1.57989 -0.830772 0
M  V30 8359 C 785.105 -3.04405 -1.48966 0
M  V30 8360 C 784.278 -4.25971 -0.993371 0
M  V30 8361 C 783.337 -4.85861 -2.02052 0
M  V30 8362 O 782.363 -5.46382 -1.59547 0
M  V30 8363 N 783.565 -4.74101 -3.34975 0
M  V30 8364 H 786.33 -2.97989 0.319748 0
M  V30 8365 H 783.891 -1.58772 0.316714 0
M  V30 8366 H 785.883 -3.41348 -2.17403 0
M  V30 8367 H 784.453 -2.35815 -2.05207 0
M  V30 8368 H 783.673 -3.93971 -0.134424 0
M  V30 8369 H 784.961 -5.0476 -0.639934 0
M  V30 8370 H 784.359 -4.26002 -3.72208 0
M  V30 8371 H 782.916 -5.15274 -3.9917 0
M  V30 8372 N 786.349 -0.21828 -1.56081 0
M  V30 8373 C 787.626 0.463143 -1.90038 0
M  V30 8374 C 788.006 1.77982 -1.13515 0
M  V30 8375 O 787.354 2.27199 -0.24345 0
M  V30 8376 C 787.564 0.659292 -3.42716 0
M  V30 8377 C 788.912 0.968203 -4.13414 0
M  V30 8378 O 789.936 0.746195 -3.48296 0
M  V30 8379 O 788.795 1.38936 -5.28544 0
M  V30 8380 H 785.889 0.244435 -0.790051 0
M  V30 8381 H 788.435 -0.260221 -1.67693 0
M  V30 8382 H 787.207 -0.269584 -3.9037 0
M  V30 8383 H 786.83 1.43426 -3.7083 0
M  V30 8384 N 787.827 1.57504 0.0551401 0
M  V30 8385 C 789.052 1.92682 0.767352 0
M  V30 8386 C 789.477 0.81614 1.69472 0
M  V30 8387 O 788.835 -0.229989 1.79835 0
M  V30 8388 C 788.883 3.26866 1.52286 0
M  V30 8389 O 787.987 3.17274 2.63459 0
M  V30 8390 H 787.328 0.630502 0.208238 0
M  V30 8391 H 789.858 2.04592 0.0184026 0
M  V30 8392 H 789.868 3.61138 1.8985 0
M  V30 8393 H 788.543 4.07276 0.842541 0
M  V30 8394 H 787.12 2.94589 2.2863 0
M  V30 8395 N 789.305 -0.326896 1.54172 0
M  V30 8396 C 790.252 -1.40216 1.83325 0
M  V30 8397 C 791.222 -1.51538 0.680107 0
M  V30 8398 O 792.407 -1.66811 0.926206 0
M  V30 8399 C 789.547 -2.76626 2.0633 0
M  V30 8400 C 788.66 -2.73963 3.34019 0
M  V30 8401 C 787.795 -4.02198 3.47002 0
M  V30 8402 C 786.834 -3.93828 4.68578 0
M  V30 8403 N 785.971 -5.13787 4.78506 0
M  V30 8404 H 790.811 -1.14656 2.7506 0
M  V30 8405 H 788.348 -0.555089 1.36225 0
M  V30 8406 H 790.306 -3.55922 2.17659 0
M  V30 8407 H 788.936 -3.00503 1.1789 0
M  V30 8408 H 787.988 -1.86677 3.31445 0
M  V30 8409 H 789.3 -2.6366 4.2342 0
M  V30 8410 H 788.454 -4.89923 3.57855 0
M  V30 8411 H 787.193 -4.15302 2.55687 0
M  V30 8412 H 786.198 -3.04487 4.57786 0
M  V30 8413 H 787.423 -3.82292 5.61275 0
M  V30 8414 H 785.369 -5.27403 3.90105 0
M  V30 8415 H 785.286 -5.05807 5.61868 0
M  V30 8416 H 786.554 -6.03236 4.93686 0
M  V30 8417 N 790.784 -1.46188 -0.588786 0
M  V30 8418 C 791.732 -1.56653 -1.71938 0
M  V30 8419 C 792.726 -0.435354 -1.6371 0
M  V30 8420 O 793.932 -0.611996 -1.69277 0
M  V30 8421 H 790.307 -0.492408 -0.568365 0
M  V30 8422 H 792.278 -2.51724 -1.60242 0
M  V30 8423 C 791.027 -1.56822 -3.10326 0
M  V30 8424 H 790.35 -2.43198 -3.17325 0
M  V30 8425 H 791.79 -1.68199 -3.89211 0
M  V30 8426 C 790.249 -0.295802 -3.35599 0
M  V30 8427 O 790.779 0.616515 -3.96941 0
M  V30 8428 N 788.985 -0.185609 -2.90007 0
M  V30 8429 H 788.532 -0.928914 -2.40269 0
M  V30 8430 H 788.49 0.664883 -3.07289 0
M  V30 8431 N 792.262 0.832906 -1.33792 0
M  V30 8432 C 793.487 1.62568 -1.28788 0
M  V30 8433 C 793.912 1.87599 0.137246 0
M  V30 8434 O 793.27 1.44436 1.0958 0
M  V30 8435 C 793.318 2.9495 -2.07453 0
M  V30 8436 O 792.422 3.86546 -1.43722 0
M  V30 8437 H 791.763 0.494809 -0.442787 0
M  V30 8438 H 794.293 1.03578 -1.76445 0
M  V30 8439 H 794.303 3.44599 -2.1844 0
M  V30 8440 H 792.978 2.76055 -3.11073 0
M  V30 8441 H 791.555 3.45044 -1.41417 0
M  V30 8442 N 793.74 1.17359 1.05189 0
M  V30 8443 C 795.017 0.871914 1.75091 0
M  V30 8444 C 795.397 -0.627821 2.01548 0
M  V30 8445 O 794.745 -1.5791 1.65156 0
M  V30 8446 C 794.955 1.70687 3.04413 0
M  V30 8447 C 796.303 1.92684 3.78362 0
M  V30 8448 O 797.327 1.67645 3.14282 0
M  V30 8449 O 796.186 2.34765 4.93505 0
M  V30 8450 H 793.28 0.322831 0.761386 0
M  V30 8451 H 795.826 1.28054 1.11357 0
M  V30 8452 H 794.598 2.72405 2.80911 0
M  V30 8453 H 794.221 1.29602 3.75884 0
M  V30 8454 N 795.218 -1.23913 0.973828 0
M  V30 8455 C 796.148 -2.27453 0.527969 0
M  V30 8456 C 797.129 -1.6443 -0.435513 0
M  V30 8457 O 798.314 -1.9137 -0.330306 0
M  V30 8458 C 795.444 -3.4685 -0.176757 0
M  V30 8459 C 794.398 -4.22181 0.703352 0
M  V30 8460 C 793.724 -5.34534 -0.133215 0
M  V30 8461 C 795.024 -4.82865 1.99096 0
M  V30 8462 H 796.718 -2.65 1.3934 0
M  V30 8463 H 794.264 -1.27388 0.671446 0
M  V30 8464 H 796.217 -4.18424 -0.499934 0
M  V30 8465 H 794.941 -3.08346 -1.07659 0
M  V30 8466 H 793.6 -3.52416 1.00989 0
M  V30 8467 H 793.248 -4.92271 -1.03338 0
M  V30 8468 H 792.948 -5.85855 0.452494 0
M  V30 8469 H 794.472 -6.08933 -0.450924 0
M  V30 8470 H 795.886 -5.46481 1.73297 0
M  V30 8471 H 794.283 -5.44444 2.52389 0
M  V30 8472 H 795.353 -4.03977 2.68199 0
M  V30 8473 N 796.696 -0.74468 -1.38897 0
M  V30 8474 C 797.926 -0.306982 -2.04307 0
M  V30 8475 C 798.334 1.06652 -1.56275 0
M  V30 8476 O 797.677 1.68699 -0.72708 0
M  V30 8477 C 797.739 -0.241186 -3.5869 0
M  V30 8478 C 797.403 -1.55476 -4.2974 0
M  V30 8479 C 798.4 -2.50229 -4.55721 0
M  V30 8480 C 796.085 -1.82173 -4.68101 0
M  V30 8481 C 798.079 -3.69905 -5.19085 0
M  V30 8482 C 795.766 -3.02125 -5.31191 0
M  V30 8483 C 796.764 -3.95812 -5.56616 0
M  V30 8484 O 796.452 -5.13656 -6.18395 0
M  V30 8485 H 796.184 -0.130416 -0.663301 0
M  V30 8486 H 798.738 -1.01192 -1.78744 0
M  V30 8487 H 796.968 0.519925 -3.83189 0
M  V30 8488 H 798.657 0.165806 -4.05561 0
M  V30 8489 H 799.423 -2.30877 -4.26522 0
M  V30 8490 H 795.302 -1.10091 -4.47662 0
M  V30 8491 H 798.846 -4.43047 -5.38846 0
M  V30 8492 H 794.743 -3.21374 -5.59811 0
M  V30 8493 H 795.511 -5.14119 -6.36886 0
M  V30 8494 N 798.174 1.49689 -0.493057 0
M  V30 8495 C 799.399 2.07331 0.0535114 0
M  V30 8496 C 799.824 1.35196 1.30781 0
M  V30 8497 O 799.182 0.406246 1.7669 0
M  V30 8498 C 799.23 3.59364 0.29825 0
M  V30 8499 O 798.334 3.88819 1.37454 0
M  V30 8500 H 797.675 0.663612 -0.0227018 0
M  V30 8501 H 800.205 1.926 -0.690402 0
M  V30 8502 H 800.215 4.04515 0.532159 0
M  V30 8503 H 798.89 4.1128 -0.618207 0
M  V30 8504 H 797.467 3.55487 1.12621 0
M  V30 8505 N 799.652 0.226554 1.55963 0
M  V30 8506 C 800.901 -0.40417 1.97609 0
M  V30 8507 C 801.214 -1.60541 1.1174 0
M  V30 8508 O 802.42 -2.30598 1.43307 0
M  V30 8509 C 800.876 -0.770466 3.51556 0
M  V30 8510 C 800.484 0.408244 4.46136 0
M  V30 8511 C 802.228 -1.36651 4.01904 0
M  V30 8512 C 800.135 0.0192347 5.91397 0
M  V30 8513 H 799.065 -0.15478 0.737943 0
M  V30 8514 H 801.716 0.323558 1.80625 0
M  V30 8515 H 800.098 -1.55575 3.6416 0
M  V30 8516 H 801.272 1.18575 4.45283 0
M  V30 8517 H 799.587 0.917859 4.06158 0
M  V30 8518 H 802.184 -1.67055 5.07934 0
M  V30 8519 H 802.527 -2.28403 3.48049 0
M  V30 8520 H 803.06 -0.644556 3.92543 0
M  V30 8521 H 799.799 0.90336 6.49245 0
M  V30 8522 H 799.319 -0.722485 5.95433 0
M  V30 8523 H 800.998 -0.405711 6.45727 0
M  V30 8524 N 801.13 -1.57531 -0.0467866 0
M  V30 8525 C 802.063 -2.00734 -1.08541 0
M  V30 8526 C 803.041 -0.888508 -1.36177 0
M  V30 8527 O 804.225 -1.1529 -1.49132 0
M  V30 8528 C 801.352 -2.36535 -2.42423 0
M  V30 8529 C 800.398 -3.58681 -2.3076 0
M  V30 8530 S 801.231 -5.08536 -1.67785 0
M  V30 8531 C 802.387 -5.47562 -3.03194 0
M  V30 8532 H 802.62 -2.88516 -0.717345 0
M  V30 8533 H 800.153 -1.5226 -0.256181 0
M  V30 8534 H 802.111 -2.57834 -3.19424 0
M  V30 8535 H 800.772 -1.49236 -2.76382 0
M  V30 8536 H 799.965 -3.81329 -3.29552 0
M  V30 8537 H 799.567 -3.37142 -1.61899 0
M  V30 8538 H 801.859 -5.47163 -3.99524 0
M  V30 8539 H 802.802 -6.48082 -2.85299 0
M  V30 8540 H 803.21 -4.75042 -3.04951 0
M  V30 8541 N 802.608 0.318715 -1.54344 0
M  V30 8542 C 803.555 1.39242 -1.84066 0
M  V30 8543 C 804.525 1.51175 -0.688134 0
M  V30 8544 O 805.71 1.66318 -0.935039 0
M  V30 8545 C 802.85 2.75528 -2.07794 0
M  V30 8546 C 801.963 2.72187 -3.35467 0
M  V30 8547 C 801.098 4.00352 -3.4913 0
M  V30 8548 C 800.137 3.91338 -4.7066 0
M  V30 8549 N 799.274 5.11242 -4.81224 0
M  V30 8550 H 804.114 1.13196 -2.75664 0
M  V30 8551 H 801.651 0.547857 -1.36517 0
M  V30 8552 H 803.609 3.54763 -2.19543 0
M  V30 8553 H 802.239 2.99873 -1.19482 0
M  V30 8554 H 801.291 1.84917 -3.3243 0
M  V30 8555 H 802.603 2.61411 -4.24812 0
M  V30 8556 H 801.757 4.88019 -3.60448 0
M  V30 8557 H 800.496 4.1394 -2.57886 0
M  V30 8558 H 799.501 3.02055 -4.59394 0
M  V30 8559 H 800.726 3.7931 -5.63294 0
M  V30 8560 H 798.672 5.25327 -3.92897 0
M  V30 8561 H 798.589 5.0282 -5.64543 0
M  V30 8562 H 799.857 6.0061 -4.96879 0
M  V30 8563 N 804.086 1.46499 0.581025 0
M  V30 8564 C 805.034 1.57562 1.71105 0
M  V30 8565 C 806.028 0.44403 1.63477 0
M  V30 8566 O 807.234 0.620964 1.6895 0
M  V30 8567 H 803.609 0.495415 0.565746 0
M  V30 8568 H 805.58 2.5257 1.58905 0
M  V30 8569 C 804.329 1.58465 3.0949 0
M  V30 8570 H 803.652 2.44877 3.16031 0
M  V30 8571 H 805.092 1.70261 3.88313 0
M  V30 8572 C 803.551 0.313596 3.35437 0
M  V30 8573 O 804.081 -0.595456 3.97262 0
M  V30 8574 N 802.287 0.200986 2.89904 0
M  V30 8575 H 801.834 0.941643 2.39773 0
M  V30 8576 H 801.792 -0.648577 3.07638 0
M  V30 8577 N 805.565 -0.825799 1.34232 0
M  V30 8578 C 806.495 -1.95151 1.28212 0
M  V30 8579 C 807.476 -1.69345 0.160123 0
M  V30 8580 O 808.661 -1.90983 0.352019 0
M  V30 8581 C 805.791 -3.31554 1.03388 0
M  V30 8582 C 804.745 -3.71793 2.12023 0
M  V30 8583 C 804.071 -5.06147 1.72392 0
M  V30 8584 C 805.371 -3.84193 3.53826 0
M  V30 8585 H 807.065 -2.00445 2.22401 0
M  V30 8586 H 804.611 -0.962996 1.07063 0
M  V30 8587 H 806.564 -4.09889 0.978225 0
M  V30 8588 H 805.288 -3.26551 0.0564142 0
M  V30 8589 H 803.947 -2.95731 2.16654 0
M  V30 8590 H 803.595 -4.97628 0.733137 0
M  V30 8591 H 803.295 -5.34041 2.451 0
M  V30 8592 H 804.819 -5.86943 1.68317 0
M  V30 8593 H 806.233 -4.52806 3.51624 0
M  V30 8594 H 804.63 -4.23538 4.2513 0
M  V30 8595 H 805.7 -2.86272 3.91377 0
M  V30 8596 N 807.043 -1.17915 -1.04565 0
M  V30 8597 C 808.291 -0.969505 -1.77327 0
M  V30 8598 C 808.612 0.502569 -1.88412 0
M  V30 8599 O 807.882 1.36467 -1.40547 0
M  V30 8600 H 806.462 -0.355723 -0.656864 0
M  V30 8601 H 809.124 -1.48506 -1.26223 0
M  V30 8602 H 808.22 -1.40324 -2.78775 0
M  V30 8603 N 808.521 1.23394 -0.980386 0
M  V30 8604 C 809.77 1.91116 -0.644785 0
M  V30 8605 C 810.083 1.77333 0.825367 0
M  V30 8606 O 811.289 2.39858 1.27203 0
M  V30 8607 C 809.745 3.42592 -1.10266 0
M  V30 8608 C 809.353 3.65037 -2.59715 0
M  V30 8609 C 811.097 4.1609 -0.8408 0
M  V30 8610 C 809.004 5.10148 -2.9917 0
M  V30 8611 H 807.934 0.715632 -0.23746 0
M  V30 8612 H 810.585 1.39829 -1.18828 0
M  V30 8613 H 808.967 3.92989 -0.487372 0
M  V30 8614 H 810.141 3.25186 -3.26482 0
M  V30 8615 H 808.456 3.04849 -2.83647 0
M  V30 8616 H 811.053 5.23021 -1.11143 0
M  V30 8617 H 811.396 4.15702 0.223085 0
M  V30 8618 H 811.929 3.71681 -1.41767 0
M  V30 8619 H 808.668 5.15668 -4.04682 0
M  V30 8620 H 808.188 5.50949 -2.37097 0
M  V30 8621 H 809.867 5.7848 -2.89775 0
M  V30 8622 N 809.999 0.752036 1.385 0
M  V30 8623 C 811.276 0.233075 1.94206 0
M  V30 8624 C 811.656 -1.26838 1.68746 0
M  V30 8625 O 811.004 -2.04214 1.02513 0
M  V30 8626 C 811.214 0.58509 3.44061 0
M  V30 8627 C 812.562 0.543871 4.21102 0
M  V30 8628 O 813.586 0.523291 3.52335 0
M  V30 8629 O 812.445 0.553436 5.4369 0
M  V30 8630 H 809.539 0.0483049 0.825588 0
M  V30 8631 H 812.085 0.832053 1.47902 0
M  V30 8632 H 810.857 1.62212 3.56094 0
M  V30 8633 H 810.48 -0.0419738 3.97578 0
M  V30 8634 N 811.477 -1.49425 0.500989 0
M  V30 8635 C 812.724 -2.02453 -0.0435355 0
M  V30 8636 C 813.052 -1.38067 -1.36995 0
M  V30 8637 O 812.307 -0.505557 -1.89057 0
M  V30 8638 C 812.606 -3.56562 -0.24463 0
M  V30 8639 C 812.272 -4.39585 1.00379 0
M  V30 8640 C 810.934 -4.61992 1.346 0
M  V30 8641 C 813.286 -4.87881 1.83361 0
M  V30 8642 C 810.614 -5.2994 2.51755 0
M  V30 8643 C 812.966 -5.57119 2.99669 0
M  V30 8644 C 811.63 -5.77771 3.3427 0
M  V30 8645 H 810.9 -0.740829 -0.0159308 0
M  V30 8646 H 813.547 -1.79725 0.661143 0
M  V30 8647 H 811.852 -3.77969 -1.03183 0
M  V30 8648 H 813.549 -3.95185 -0.6804 0
M  V30 8649 H 810.139 -4.22385 0.727225 0
M  V30 8650 H 814.323 -4.70398 1.58237 0
M  V30 8651 H 809.579 -5.44133 2.788 0
M  V30 8652 H 813.753 -5.93516 3.64296 0
M  V30 8653 H 811.38 -6.30197 4.25154 0
M  V30 8654 N 812.955 -0.234822 -1.55841 0
M  V30 8655 C 813.865 0.680828 -2.24504 0
M  V30 8656 C 814.881 1.20306 -1.25708 0
M  V30 8657 O 816.057 1.24188 -1.58554 0
M  V30 8658 C 813.122 1.86636 -2.92178 0
M  V30 8659 C 812.183 1.3848 -4.06352 0
M  V30 8660 C 811.416 2.51382 -4.70789 0
M  V30 8661 O 811.639 3.69831 -4.34259 0
M  V30 8662 O 810.573 2.21828 -5.59532 0
M  V30 8663 H 814.399 0.12583 -3.03439 0
M  V30 8664 H 811.984 -0.00381817 -1.494 0
M  V30 8665 H 813.866 2.55845 -3.34845 0
M  V30 8666 H 812.541 2.40921 -2.16192 0
M  V30 8667 H 811.448 0.660341 -3.68226 0
M  V30 8668 H 812.781 0.888177 -4.8412 0
M  V30 8669 N 814.433 1.57553 0.0384317 0
M  V30 8670 C 815.71 1.79977 0.766002 0
M  V30 8671 C 816.09 0.830625 1.94072 0
M  V30 8672 O 815.438 -0.129243 2.28134 0
M  V30 8673 C 815.648 3.27434 1.20781 0
M  V30 8674 C 816.996 3.92167 1.62758 0
M  V30 8675 O 818.02 3.31527 1.30263 0
M  V30 8676 O 816.879 4.98917 2.23035 0
M  V30 8677 H 813.973 0.739787 0.369654 0
M  V30 8678 H 816.519 1.69693 0.0159312 0
M  V30 8679 H 815.291 3.89558 0.368792 0
M  V30 8680 H 814.914 3.42571 2.01819 0
M  V30 8681 N 815.911 -0.310526 1.54511 0
M  V30 8682 C 817.16 -1.0445 1.72549 0
M  V30 8683 C 817.473 -1.88748 0.513172 0
M  V30 8684 O 818.679 -2.65338 0.575165 0
M  V30 8685 C 817.135 -1.90665 3.05246 0
M  V30 8686 C 816.743 -1.11415 4.33925 0
M  V30 8687 C 818.487 -2.63719 3.32645 0
M  V30 8688 C 816.394 -1.96852 5.57677 0
M  V30 8689 H 815.324 -0.393676 0.643067 0
M  V30 8690 H 817.975 -0.302003 1.80998 0
M  V30 8691 H 816.357 -2.68864 2.90737 0
M  V30 8692 H 817.531 -0.378956 4.59239 0
M  V30 8693 H 815.846 -0.499853 4.13389 0
M  V30 8694 H 818.443 -3.27974 4.223 0
M  V30 8695 H 818.786 -3.32047 2.51098 0
M  V30 8696 H 819.319 -1.92574 3.48081 0
M  V30 8697 H 816.058 -1.33009 6.41864 0
M  V30 8698 H 815.578 -2.68069 5.36562 0
M  V30 8699 H 817.257 -2.55127 5.94575 0
M  V30 8700 N 817.389 -1.46805 -0.573248 0
M  V30 8701 C 818.805 -1.31969 -0.897577 0
M  V30 8702 C 819.005 -0.298171 -1.99282 0
M  V30 8703 O 818.061 0.295953 -2.5076 0
M  V30 8704 C 819.374 -2.70859 -1.30598 0
M  V30 8705 C 820.922 -2.79022 -1.4183 0
M  V30 8706 C 821.397 -4.18516 -1.86033 0
M  V30 8707 N 822.888 -4.2098 -1.9321 0
M  V30 8708 C 823.623 -5.25814 -2.28707 0
M  V30 8709 N 823.119 -6.40968 -2.6293 0
M  V30 8710 N 824.912 -5.13184 -2.29343 0
M  V30 8711 H 817.063 -2.11869 0.150094 0
M  V30 8712 H 819.326 -0.947989 0.00447895 0
M  V30 8713 H 819.032 -3.46965 -0.575161 0
M  V30 8714 H 818.906 -3.01585 -2.26554 0
M  V30 8715 H 821.293 -2.03198 -2.13996 0
M  V30 8716 H 821.374 -2.51969 -0.441024 0
M  V30 8717 H 821.018 -4.94839 -1.14442 0
M  V30 8718 H 820.948 -4.42982 -2.84735 0
M  V30 8719 H 823.439 -3.37898 -1.69214 0
M  V30 8720 H 823.752 -7.16729 -2.88996 0
M  V30 8721 H 822.097 -6.44314 -2.60547 0
M  V30 8722 H 825.288 -4.22255 -2.02036 0
M  V30 8723 H 825.461 -5.94996 -2.56679 0
M  V30 8724 N 818.867 0.818669 -1.34668 0
M  V30 8725 C 819.817 1.91882 -1.23147 0
M  V30 8726 C 820.801 1.60378 -0.129509 0
M  V30 8727 O 821.993 1.73309 -0.359581 0
M  V30 8728 C 819.122 3.28612 -0.993436 0
M  V30 8729 C 818.208 3.66221 -2.13876 0
M  V30 8730 N 818.599 3.75361 -3.39024 0
M  V30 8731 C 816.897 3.96098 -2.04994 0
M  V30 8732 C 817.598 4.0836 -4.14266 0
M  V30 8733 N 816.574 4.21806 -3.429 0
M  V30 8734 H 820.376 1.97133 -2.17981 0
M  V30 8735 H 817.89 1.01257 -1.26967 0
M  V30 8736 H 819.887 4.0725 -0.891797 0
M  V30 8737 H 818.547 3.24655 -0.053824 0
M  V30 8738 H 819.558 3.58747 -3.73525 0
M  V30 8739 H 816.235 4.00236 -1.18816 0
M  V30 8740 H 817.625 4.226 -5.22359 0
M  V30 8741 N 820.346 1.18468 1.03938 0
M  V30 8742 C 821.279 0.856251 2.11527 0
M  V30 8743 C 822.257 -0.182323 1.61575 0
M  V30 8744 O 823.441 -0.061 1.88401 0
M  V30 8745 C 820.568 0.279562 3.37544 0
M  V30 8746 C 819.614 1.29552 4.06348 0
M  V30 8747 S 820.447 2.85191 4.5324 0
M  V30 8748 C 821.603 2.29037 5.82489 0
M  V30 8749 H 821.836 1.76742 2.39059 0
M  V30 8750 H 819.369 1.01068 1.16725 0
M  V30 8751 H 821.327 -0.0466579 4.10473 0
M  V30 8752 H 819.988 -0.60975 3.08125 0
M  V30 8753 H 819.181 0.840922 4.96935 0
M  V30 8754 H 818.783 1.56804 3.39541 0
M  V30 8755 H 821.075 1.67376 6.565 0
M  V30 8756 H 822.018 3.17929 6.32714 0
M  V30 8757 H 822.426 1.72009 5.37655 0
M  V30 8758 N 821.824 -1.22873 0.986916 0
M  V30 8759 C 822.756 -2.23889 0.490537 0
M  V30 8760 C 823.769 -1.57523 -0.411144 0
M  V30 8761 O 824.958 -1.7721 -0.214236 0
M  V30 8762 C 822.058 -3.37488 -0.30902 0
M  V30 8763 C 821.231 -4.33438 0.587354 0
M  V30 8764 C 820.29 -5.25958 -0.159467 0
M  V30 8765 O 819.316 -5.67394 0.453115 0
M  V30 8766 N 820.518 -5.62265 -1.44355 0
M  V30 8767 H 823.283 -2.67109 1.35914 0
M  V30 8768 H 820.844 -1.37111 0.860937 0
M  V30 8769 H 822.836 -3.96365 -0.817139 0
M  V30 8770 H 821.406 -2.934 -1.07868 0
M  V30 8771 H 820.626 -3.72969 1.27622 0
M  V30 8772 H 821.914 -4.94495 1.19801 0
M  V30 8773 H 821.312 -5.30562 -1.96266 0
M  V30 8774 H 819.869 -6.23585 -1.89698 0
M  V30 8775 N 823.302 -0.75937 -1.38099 0
M  V30 8776 C 824.25 -0.124954 -2.32264 0
M  V30 8777 C 825.244 0.698863 -1.54312 0
M  V30 8778 O 826.45 0.597312 -1.698 0
M  V30 8779 H 822.825 -0.0216142 -0.751689 0
M  V30 8780 H 824.796 -0.935115 -2.83369 0
M  V30 8781 C 823.545 0.749463 -3.39527 0
M  V30 8782 H 822.868 0.124932 -3.99605 0
M  V30 8783 H 824.308 1.16055 -4.07808 0
M  V30 8784 C 822.767 1.89464 -2.78577 0
M  V30 8785 O 823.297 2.98923 -2.68343 0
M  V30 8786 N 821.503 1.69145 -2.36301 0
M  V30 8787 H 821.05 0.801157 -2.44825 0
M  V30 8788 H 821.008 2.45936 -1.95864 0
M  V30 8789 N 824.78 1.49157 -0.508906 0
M  V30 8790 C 825.69 2.33045 0.269656 0
M  V30 8791 C 826.706 1.45143 0.959662 0
M  V30 8792 O 827.882 1.78155 0.939295 0
M  V30 8793 C 824.947 3.20772 1.31554 0
M  V30 8794 C 824.008 4.24531 0.638131 0
M  V30 8795 C 823.241 5.08065 1.63418 0
M  V30 8796 O 823.464 4.93238 2.86483 0
M  V30 8797 O 822.398 5.90117 1.18516 0
M  V30 8798 H 826.224 3.00821 -0.417183 0
M  V30 8799 H 823.809 1.46938 -0.270119 0
M  V30 8800 H 825.691 3.75095 1.92047 0
M  V30 8801 H 824.366 2.55681 1.98516 0
M  V30 8802 H 823.273 3.74099 -0.00674357 0
M  V30 8803 H 824.606 4.92199 0.0108155 0
M  V30 8804 N 826.258 0.243083 1.55714 0
M  V30 8805 C 827.205 -0.658078 2.21219 0
M  V30 8806 C 828.175 -1.1742 1.17481 0
M  V30 8807 O 829.36 -1.22937 1.45915 0
M  V30 8808 C 826.5 -1.85104 2.91257 0
M  V30 8809 C 825.613 -1.3718 4.09641 0
M  V30 8810 C 824.748 -2.52403 4.67404 0
M  V30 8811 C 823.787 -2.01321 5.78045 0
M  V30 8812 N 822.924 -3.09896 6.30007 0
M  V30 8813 H 827.764 -0.0927854 2.97856 0
M  V30 8814 H 825.301 -0.0340375 1.47061 0
M  V30 8815 H 827.259 -2.55179 3.3006 0
M  V30 8816 H 825.889 -2.38887 2.17101 0
M  V30 8817 H 824.941 -0.565232 3.76177 0
M  V30 8818 H 826.253 -0.957409 4.89525 0
M  V30 8819 H 825.407 -3.30525 5.08761 0
M  V30 8820 H 824.146 -2.97142 3.86728 0
M  V30 8821 H 823.151 -1.21667 5.36169 0
M  V30 8822 H 824.376 -1.57556 6.6057 0
M  V30 8823 H 822.322 -3.54077 5.52237 0
M  V30 8824 H 822.239 -2.72776 7.05074 0
M  V30 8825 H 823.507 -3.8809 6.76023 0
M  V30 8826 N 827.736 -1.57571 -0.0300757 0
M  V30 8827 C 828.983 -1.89226 -0.721091 0
M  V30 8828 C 829.311 -0.840244 -1.75414 0
M  V30 8829 O 828.566 0.158906 -1.95054 0
M  V30 8830 C 828.865 -3.27624 -1.42818 0
M  V30 8831 C 828.531 -4.4776 -0.531208 0
M  V30 8832 C 827.193 -4.8036 -0.28415 0
M  V30 8833 C 829.545 -5.21125 0.0881582 0
M  V30 8834 C 826.873 -5.83715 0.591065 0
M  V30 8835 C 829.225 -6.2541 0.95107 0
M  V30 8836 C 827.889 -6.56486 1.2076 0
M  V30 8837 H 827.159 -0.692428 -0.263866 0
M  V30 8838 H 829.806 -1.91491 0.0189874 0
M  V30 8839 H 828.111 -3.21343 -2.24155 0
M  V30 8840 H 829.808 -3.49365 -1.96838 0
M  V30 8841 H 826.398 -4.2227 -0.73392 0
M  V30 8842 H 830.582 -4.96219 -0.0897496 0
M  V30 8843 H 825.838 -6.06168 0.798132 0
M  V30 8844 H 830.012 -6.81402 1.43751 0
M  V30 8845 H 827.639 -7.36395 1.88751 0
M  V30 8846 N 829.214 0.302327 -1.54673 0
M  V30 8847 C 830.461 1.0377 -1.73891 0
M  V30 8848 C 830.789 1.87309 -0.523979 0
M  V30 8849 O 830.044 1.8936 0.494084 0
M  V30 8850 C 830.343 1.97365 -2.97963 0
M  V30 8851 C 830.009 1.29812 -4.3181 0
M  V30 8852 C 828.671 1.11121 -4.68194 0
M  V30 8853 C 831.023 0.815073 -5.14787 0
M  V30 8854 C 828.351 0.428077 -5.85136 0
M  V30 8855 C 830.703 0.145665 -6.32432 0
M  V30 8856 C 829.367 -0.0532098 -6.67479 0
M  V30 8857 H 828.637 0.379721 -0.636312 0
M  V30 8858 H 831.284 0.312708 -1.8893 0
M  V30 8859 H 829.589 2.76387 -2.777 0
M  V30 8860 H 831.286 2.54331 -3.10027 0
M  V30 8861 H 827.876 1.45366 -4.03196 0
M  V30 8862 H 832.06 0.947191 -4.87178 0
M  V30 8863 H 827.316 0.262995 -6.10834 0
M  V30 8864 H 831.49 -0.236533 -6.95998 0
M  V30 8865 H 829.117 -0.58456 -7.57949 0
M  V30 8866 N 830.692 1.47107 0.565454 0
M  V30 8867 C 832.108 1.32443 0.890566 0
M  V30 8868 C 832.308 0.308735 1.99121 0
M  V30 8869 O 831.364 -0.28265 2.50913 0
M  V30 8870 C 832.677 2.71548 1.2916 0
M  V30 8871 C 834.225 2.7977 1.40349 0
M  V30 8872 C 834.7 4.19497 1.83811 0
M  V30 8873 N 836.191 4.21998 1.90975 0
M  V30 8874 C 836.926 5.2702 2.25916 0
M  V30 8875 N 836.422 6.42353 2.59527 0
M  V30 8876 N 838.215 5.14393 2.26619 0
M  V30 8877 H 830.366 2.11786 -0.161328 0
M  V30 8878 H 832.629 0.947952 -0.00950631 0
M  V30 8879 H 832.335 3.47265 0.556753 0
M  V30 8880 H 832.209 3.02782 2.24951 0
M  V30 8881 H 834.596 2.0433 2.12916 0
M  V30 8882 H 834.677 2.522 0.427655 0
M  V30 8883 H 834.321 4.95439 1.11816 0
M  V30 8884 H 834.251 4.44486 2.82382 0
M  V30 8885 H 836.742 3.38791 1.6742 0
M  V30 8886 H 837.055 7.18252 2.85191 0
M  V30 8887 H 835.4 6.45687 2.57126 0
M  V30 8888 H 838.591 4.2332 1.99794 0
M  V30 8889 H 838.764 5.96349 2.5352 0
M  V30 8890 N 832.17 -0.811516 1.35101 0
M  V30 8891 C 833.118 -1.94449 1.27642 0
M  V30 8892 C 834.112 -1.68522 0.172287 0
M  V30 8893 O 835.318 -1.76799 0.337967 0
M  V30 8894 H 831.693 -0.638776 0.396824 0
M  V30 8895 H 833.664 -1.97861 2.23369 0
M  V30 8896 C 832.413 -3.31139 1.06029 0
M  V30 8897 H 831.736 -3.51644 1.90227 0
M  V30 8898 H 833.176 -4.10831 1.0485 0
M  V30 8899 C 831.635 -3.36072 -0.236039 0
M  V30 8900 O 832.165 -3.82292 -1.23353 0
M  V30 8901 N 830.371 -2.89314 -0.273107 0
M  V30 8902 H 829.918 -2.51893 0.539211 0
M  V30 8903 H 829.876 -2.92996 -1.1402 0
M  V30 8904 N 833.648 -1.19017 -1.03309 0
M  V30 8905 C 834.925 -0.899659 -1.73682 0
M  V30 8906 C 835.305 0.595677 -2.02521 0
M  V30 8907 O 834.653 1.55263 -1.67648 0
M  V30 8908 C 834.863 -1.75508 -3.01659 0
M  V30 8909 C 836.211 -1.98679 -3.75249 0
M  V30 8910 O 837.235 -1.72624 -3.11576 0
M  V30 8911 O 836.094 -2.42587 -4.89708 0
M  V30 8912 H 833.188 -0.334903 -0.756154 0
M  V30 8913 H 835.734 -1.29809 -1.09305 0
M  V30 8914 H 834.506 -2.7684 -2.76542 0
M  V30 8915 H 834.129 -1.35565 -3.73775 0
M  V30 8916 N 835.127 1.22348 -0.993418 0
M  V30 8917 C 836.374 1.9111 -0.669568 0
M  V30 8918 C 836.702 1.77357 0.79843 0
M  V30 8919 O 835.957 1.13675 1.593 0
M  V30 8920 C 836.256 3.42477 -1.02197 0
M  V30 8921 C 835.922 3.7642 -2.48232 0
M  V30 8922 C 834.584 3.85395 -2.88139 0
M  V30 8923 C 836.936 3.9253 -3.42884 0
M  V30 8924 C 834.264 4.07918 -4.21687 0
M  V30 8925 C 836.616 4.16557 -4.76091 0
M  V30 8926 C 835.28 4.23757 -5.15739 0
M  V30 8927 H 834.55 0.699321 -0.245012 0
M  V30 8928 H 837.197 1.45102 -1.2497 0
M  V30 8929 H 835.502 3.90143 -0.359921 0
M  V30 8930 H 837.199 3.93935 -0.74942 0
M  V30 8931 H 833.789 3.70017 -2.16299 0
M  V30 8932 H 837.973 3.84974 -3.13224 0
M  V30 8933 H 833.229 4.11719 -4.51993 0
M  V30 8934 H 837.403 4.27966 -5.4938 0
M  V30 8935 H 835.03 4.40962 -6.19239 0
M  V30 8936 N 836.605 0.766683 1.37694 0
M  V30 8937 C 837.83 0.338715 2.04615 0
M  V30 8938 C 838.255 -1.02918 1.57447 0
M  V30 8939 O 837.613 -1.65849 0.732386 0
M  V30 8940 C 837.661 0.385284 3.58536 0
M  V30 8941 O 836.765 -0.616081 4.07772 0
M  V30 8942 H 836.106 0.147527 0.647404 0
M  V30 8943 H 838.636 1.04146 1.7611 0
M  V30 8944 H 838.646 0.240782 4.07289 0
M  V30 8945 H 837.321 1.38325 3.92223 0
M  V30 8946 H 835.898 -0.435115 3.70353 0
M  V30 8947 N 838.083 -1.48885 0.516809 0
M  V30 8948 C 839.331 -2.02088 -0.0220166 0
M  V30 8949 C 839.652 -1.39735 -1.36011 0
M  V30 8950 O 838.922 -0.558119 -1.87781 0
M  V30 8951 H 837.502 -0.746917 -0.0111255 0
M  V30 8952 H 840.164 -1.8274 0.677647 0
M  V30 8953 H 839.26 -3.11786 -0.140067 0
M  V30 8954 N 839.561 -0.251338 -1.55583 0
M  V30 8955 C 840.471 0.656978 -2.25213 0
M  V30 8956 C 841.487 1.18966 -1.26977 0
M  V30 8957 O 842.663 1.22499 -1.59862 0
M  V30 8958 C 839.728 1.83527 -2.94141 0
M  V30 8959 C 838.789 1.34162 -4.07798 0
M  V30 8960 C 838.022 2.46375 -4.73429 0
M  V30 8961 O 838.245 3.65205 -4.38157 0
M  V30 8962 O 837.179 2.15881 -5.61853 0
M  V30 8963 H 841.005 0.0936395 -3.03556 0
M  V30 8964 H 838.59 -0.0196638 -1.49387 0
M  V30 8965 H 840.472 2.52279 -3.3754 0
M  V30 8966 H 839.147 2.38614 -2.18735 0
M  V30 8967 H 838.054 0.621249 -3.68906 0
M  V30 8968 H 839.387 0.836779 -4.85035 0
M  V30 8969 N 841.039 1.57585 0.0217189 0
M  V30 8970 C 842.285 1.89887 0.712099 0
M  V30 8971 C 842.618 0.849971 1.74611 0
M  V30 8972 O 841.893 -0.13407 1.94037 0
M  V30 8973 C 842.176 3.32815 1.37499 0
M  V30 8974 C 842.029 4.48405 0.353993 0
M  V30 8975 C 843.348 3.74786 2.30703 0
M  V30 8976 H 840.467 0.690588 0.257405 0
M  V30 8977 H 843.109 1.89983 -0.0251145 0
M  V30 8978 H 841.259 3.32863 2.00335 0
M  V30 8979 H 842.931 4.60491 -0.273015 0
M  V30 8980 H 841.174 4.32573 -0.32599 0
M  V30 8981 H 841.845 5.45316 0.85644 0
M  V30 8982 H 844.321 3.76151 1.77904 0
M  V30 8983 H 843.197 4.75585 2.74061 0
M  V30 8984 H 843.458 3.07449 3.17691 0
M  V30 8985 N 842.517 -0.29412 1.54831 0
M  V30 8986 C 843.794 -1.04847 1.65126 0
M  V30 8987 C 844.174 -2.04996 0.503986 0
M  V30 8988 O 843.522 -2.22996 -0.498496 0
M  V30 8989 C 843.732 -1.72418 3.03435 0
M  V30 8990 C 845.08 -2.24362 3.60481 0
M  V30 8991 O 846.104 -1.8244 3.05932 0
M  V30 8992 O 844.963 -3.01196 4.56008 0
M  V30 8993 H 842.057 -0.485032 0.669831 0
M  V30 8994 H 844.603 -0.291659 1.67175 0
M  V30 8995 H 843.375 -0.997351 3.78376 0
M  V30 8996 H 842.998 -2.54839 3.05193 0
M  V30 8997 N 843.995 -1.47404 -0.557645 0
M  V30 8998 C 845.242 -1.54007 -1.31484 0
M  V30 8999 C 845.57 -0.202162 -1.93447 0
M  V30 9000 O 844.825 0.804901 -1.78381 0
M  V30 9001 C 845.124 -2.6061 -2.44575 0
M  V30 9002 C 844.79 -4.03896 -2.00446 0
M  V30 9003 C 843.452 -4.42901 -1.88127 0
M  V30 9004 C 845.804 -4.93804 -1.66754 0
M  V30 9005 C 843.132 -5.6965 -1.40411 0
M  V30 9006 C 845.484 -6.21016 -1.20509 0
M  V30 9007 C 844.148 -6.58903 -1.06786 0
M  V30 9008 H 843.418 -0.563552 -0.481134 0
M  V30 9009 H 846.065 -1.81001 -0.625375 0
M  V30 9010 H 844.37 -2.27371 -3.19076 0
M  V30 9011 H 846.067 -2.62941 -3.02759 0
M  V30 9012 H 842.657 -3.73077 -2.10977 0
M  V30 9013 H 846.841 -4.64369 -1.75144 0
M  V30 9014 H 842.097 -5.97755 -1.2845 0
M  V30 9015 H 846.271 -6.90095 -0.935001 0
M  V30 9016 H 843.898 -7.57008 -0.695891 0
M  V30 9017 N 845.473 0.80434 -1.35529 0
M  V30 9018 C 846.889 1.10023 -1.15616 0
M  V30 9019 C 847.089 2.01478 0.0298535 0
M  V30 9020 O 846.145 2.42609 0.699778 0
M  V30 9021 C 847.458 1.72905 -2.46017 0
M  V30 9022 C 849.006 1.85315 -2.52245 0
M  V30 9023 C 849.481 2.51612 -3.82695 0
M  V30 9024 N 850.972 2.59095 -3.83958 0
M  V30 9025 C 851.707 3.11167 -4.81625 0
M  V30 9026 N 851.203 3.63659 -5.89681 0
M  V30 9027 N 852.996 3.09741 -4.6906 0
M  V30 9028 H 845.147 0.196428 -2.1149 0
M  V30 9029 H 847.41 0.149735 -0.9361 0
M  V30 9030 H 847.116 1.13171 -3.32994 0
M  V30 9031 H 846.99 2.72579 -2.6073 0
M  V30 9032 H 849.377 2.44191 -1.65695 0
M  V30 9033 H 849.458 0.844886 -2.41444 0
M  V30 9034 H 849.102 1.93385 -4.69643 0
M  V30 9035 H 849.032 3.5298 -3.90785 0
M  V30 9036 H 851.523 2.21908 -3.05884 0
M  V30 9037 H 851.836 4.01699 -6.60195 0
M  V30 9038 H 850.181 3.61852 -5.9337 0
M  V30 9039 H 853.372 2.68011 -3.83781 0
M  V30 9040 H 853.545 3.50016 -5.45338 0
M  V30 9041 N 846.951 1.19563 1.02676 0
M  V30 9042 C 848.228 0.908857 1.73203 0
M  V30 9043 C 848.608 -0.584928 2.02834 0
M  V30 9044 O 847.956 -1.54372 1.68469 0
M  V30 9045 C 848.166 1.77105 3.00724 0
M  V30 9046 C 849.514 2.00667 3.7419 0
M  V30 9047 O 850.538 1.74274 3.10656 0
M  V30 9048 O 849.397 2.4518 4.88415 0
M  V30 9049 H 846.491 0.338909 0.754367 0
M  V30 9050 H 849.037 1.30387 1.08616 0
M  V30 9051 H 847.809 2.78303 2.7507 0
M  V30 9052 H 847.432 1.37546 3.73051 0
M  V30 9053 N 848.429 -1.21819 0.999893 0
M  V30 9054 C 849.678 -1.90066 0.675108 0
M  V30 9055 C 849.991 -1.78624 -0.79705 0
M  V30 9056 O 851.197 -2.41851 -1.23371 0
M  V30 9057 C 849.653 -3.40795 1.15702 0
M  V30 9058 C 849.261 -3.60859 2.6549 0
M  V30 9059 C 851.005 -4.147 0.906889 0
M  V30 9060 C 848.912 -5.05324 3.07248 0
M  V30 9061 H 847.842 -0.711763 0.248815 0
M  V30 9062 H 850.493 -1.3792 1.21038 0
M  V30 9063 H 848.875 -3.92164 0.549832 0
M  V30 9064 H 850.049 -3.19951 3.31614 0
M  V30 9065 H 848.364 -3.00298 2.88461 0
M  V30 9066 H 850.961 -5.21187 1.1945 0
M  V30 9067 H 851.304 -4.16004 -0.156923 0
M  V30 9068 H 851.837 -3.69379 1.47662 0
M  V30 9069 H 848.576 -5.09164 4.12834 0
M  V30 9070 H 848.096 -5.47108 2.45832 0
M  V30 9071 H 849.775 -5.73797 2.98941 0
M  V30 9072 N 849.908 -0.773975 -1.37286 0
M  V30 9073 C 851.185 -0.263942 -1.93811 0
M  V30 9074 C 851.565 1.24138 -1.70743 0
M  V30 9075 O 850.913 2.02557 -1.05749 0
M  V30 9076 C 851.123 -0.639753 -3.43086 0
M  V30 9077 C 852.471 -0.610796 -4.20184 0
M  V30 9078 O 853.495 -0.579278 -3.51458 0
M  V30 9079 O 852.354 -0.639862 -5.42741 0
M  V30 9080 H 849.448 -0.0614331 -0.824715 0
M  V30 9081 H 851.994 -0.855477 -1.46559 0
M  V30 9082 H 850.766 -1.67856 -3.53469 0
M  V30 9083 H 850.389 -0.0212827 -3.97594 0
M  V30 9084 N 851.386 1.48609 -0.524698 0
M  V30 9085 C 852.316 2.32366 0.229837 0
M  V30 9086 C 853.297 1.41759 0.940129 0
M  V30 9087 O 854.482 1.7065 0.926936 0
M  V30 9088 C 851.612 3.22835 1.28043 0
M  V30 9089 C 850.566 4.22424 0.688603 0
M  V30 9090 C 849.892 5.0199 1.84146 0
M  V30 9091 C 851.192 5.21217 -0.336176 0
M  V30 9092 H 852.886 2.95698 -0.469339 0
M  V30 9093 H 850.432 1.42197 -0.227156 0
M  V30 9094 H 852.385 3.80253 1.8162 0
M  V30 9095 H 851.109 2.57492 2.00912 0
M  V30 9096 H 849.768 3.66185 0.174402 0
M  V30 9097 H 849.416 4.33076 2.5584 0
M  V30 9098 H 849.116 5.69392 1.45142 0
M  V30 9099 H 850.64 5.62259 2.38111 0
M  V30 9100 H 852.054 5.7319 0.112307 0
M  V30 9101 H 850.451 5.96642 -0.643324 0
M  V30 9102 H 851.521 4.68676 -1.24381 0
M  V30 9103 N 852.864 0.259585 1.55447 0
M  V30 9104 C 854.092 -0.365392 2.03648 0
M  V30 9105 C 854.507 -1.50613 1.13847 0
M  V30 9106 O 853.864 -1.81837 0.155414 0
M  V30 9107 C 853.915 -0.861172 3.51093 0
M  V30 9108 O 853.636 0.234121 4.37474 0
M  V30 9109 C 855.137 -1.55555 4.15111 0
M  V30 9110 H 852.357 -0.0853439 0.66555 0
M  V30 9111 H 854.901 0.387151 2.00802 0
M  V30 9112 H 853.056 -1.56385 3.54433 0
M  V30 9113 H 853.47 -0.1444 5.24301 0
M  V30 9114 H 854.944 -1.85403 5.19932 0
M  V30 9115 H 855.421 -2.48185 3.62355 0
M  V30 9116 H 856.027 -0.89712 4.15731 0
M  V30 9117 N 854.342 -1.57594 -0.0133615 0
M  V30 9118 C 855.619 -1.81173 -0.737273 0
M  V30 9119 C 855.999 -0.861395 -1.92726 0
M  V30 9120 O 855.347 0.0929324 -2.28311 0
M  V30 9121 C 855.557 -3.29314 -1.15557 0
M  V30 9122 C 856.905 -3.94707 -1.56498 0
M  V30 9123 O 857.929 -3.33557 -1.24973 0
M  V30 9124 O 856.788 -5.02402 -2.15069 0
M  V30 9125 H 853.882 -0.745575 -0.357837 0
M  V30 9126 H 856.428 -1.69696 0.0110674 0
M  V30 9127 H 855.2 -3.90096 -0.30677 0
M  V30 9128 H 854.823 -3.45739 -1.96343 0
M  V30 9129 N 855.82 0.285905 -1.54985 0
M  V30 9130 C 856.73 1.37534 -1.90057 0
M  V30 9131 C 857.746 1.54707 -0.796348 0
M  V30 9132 O 858.922 1.69082 -1.09423 0
M  V30 9133 C 855.987 2.7167 -2.15398 0
M  V30 9134 C 855.048 2.63354 -3.39033 0
M  V30 9135 C 854.281 3.91093 -3.63155 0
M  V30 9136 O 854.504 4.91169 -2.90015 0
M  V30 9137 O 853.438 3.92075 -4.56685 0
M  V30 9138 H 857.264 1.10791 -2.8277 0
M  V30 9139 H 854.849 0.483303 -1.41367 0
M  V30 9140 H 856.731 3.51006 -2.33179 0
M  V30 9141 H 855.406 2.98226 -1.25868 0
M  V30 9142 H 854.313 1.82438 -3.26599 0
M  V30 9143 H 855.646 2.41749 -4.2874 0
M  V30 9144 N 857.298 1.47698 0.54982 0
M  V30 9145 C 858.547 1.53961 1.30303 0
M  V30 9146 C 858.86 0.209731 1.94472 0
M  V30 9147 O 860.066 0.150418 2.71083 0
M  V30 9148 C 858.522 2.71436 2.36328 0
M  V30 9149 C 858.13 4.10983 1.78316 0
M  V30 9150 C 859.874 2.86996 3.12783 0
M  V30 9151 C 857.781 5.19747 2.82164 0
M  V30 9152 H 856.711 0.573098 0.489975 0
M  V30 9153 H 859.362 1.73989 0.583089 0
M  V30 9154 H 857.744 2.44801 3.11269 0
M  V30 9155 H 858.918 4.47552 1.09697 0
M  V30 9156 H 857.233 4.00371 1.1442 0
M  V30 9157 H 859.83 3.65422 3.90347 0
M  V30 9158 H 860.173 1.95712 3.67427 0
M  V30 9159 H 860.706 3.13436 2.44954 0
M  V30 9160 H 857.445 6.12932 2.32366 0
M  V30 9161 H 856.965 4.87688 3.49171 0
M  V30 9162 H 858.644 5.47014 3.4552 0
M  V30 9163 N 858.776 -0.797141 1.35954 0
M  V30 9164 C 859.706 -1.92387 1.32323 0
M  V30 9165 C 860.687 -1.68967 0.196007 0
M  V30 9166 O 861.872 -1.90193 0.39245 0
M  V30 9167 C 859.002 -3.29286 1.10398 0
M  V30 9168 C 857.956 -3.67212 2.19862 0
M  V30 9169 C 857.282 -5.02377 1.8309 0
M  V30 9170 C 858.582 -3.76602 3.61896 0
M  V30 9171 H 860.276 -1.95683 2.26602 0
M  V30 9172 H 857.822 -0.94007 1.09081 0
M  V30 9173 H 859.775 -4.07721 1.06495 0
M  V30 9174 H 858.499 -3.26358 0.125668 0
M  V30 9175 H 857.158 -2.91069 2.22878 0
M  V30 9176 H 856.806 -4.95961 0.838527 0
M  V30 9177 H 856.506 -5.28722 2.56372 0
M  V30 9178 H 858.03 -5.8324 1.80729 0
M  V30 9179 H 859.444 -4.45246 3.6115 0
M  V30 9180 H 857.841 -4.14425 4.34018 0
M  V30 9181 H 858.911 -2.77906 3.97361 0
M  V30 9182 N 860.254 -1.20106 -1.0204 0
M  V30 9183 C 861.482 -1.0344 -1.79186 0
M  V30 9184 C 861.897 0.416542 -1.84148 0
M  V30 9185 O 861.254 1.28925 -1.29168 0
M  V30 9186 C 861.305 -1.60663 -3.23836 0
M  V30 9187 O 861.026 -3.00079 -3.19193 0
M  V30 9188 C 862.527 -1.48897 -4.17546 0
M  V30 9189 H 859.747 -0.364093 -0.563629 0
M  V30 9190 H 862.291 -1.5911 -1.28469 0
M  V30 9191 H 860.446 -1.09122 -3.71714 0
M  V30 9192 H 860.86 -3.27162 -4.09958 0
M  V30 9193 H 862.334 -1.93703 -5.16898 0
M  V30 9194 H 862.811 -0.440843 -4.36982 0
M  V30 9195 H 863.417 -1.9961 -3.75547 0
M  V30 9196 N 861.732 1.21287 -1.00634 0
M  V30 9197 C 862.962 1.94103 -0.70765 0
M  V30 9198 C 863.37 1.74382 0.733991 0
M  V30 9199 O 862.713 1.04843 1.50843 0
M  V30 9200 C 862.775 3.46705 -0.950581 0
M  V30 9201 C 862.439 3.90176 -2.37932 0
M  V30 9202 C 863.436 3.96769 -3.35961 0
M  V30 9203 C 861.121 4.22453 -2.71733 0
M  V30 9204 C 863.115 4.35034 -4.65858 0
M  V30 9205 C 860.802 4.60394 -4.01846 0
M  V30 9206 C 861.8 4.66656 -4.9872 0
M  V30 9207 O 861.488 5.03732 -6.26505 0
M  V30 9208 H 861.22 0.62405 -0.259881 0
M  V30 9209 H 863.774 1.55015 -1.34757 0
M  V30 9210 H 862.004 3.85868 -0.253492 0
M  V30 9211 H 863.693 4.00741 -0.645069 0
M  V30 9212 H 864.459 3.72009 -3.11182 0
M  V30 9213 H 860.338 4.16776 -1.97025 0
M  V30 9214 H 863.882 4.39836 -5.4147 0
M  V30 9215 H 859.779 4.84609 -4.26409 0
M  V30 9216 H 860.547 5.21761 -6.30641 0
M  V30 9217 N 863.21 0.781244 1.36873 0
M  V30 9218 C 864.456 0.350407 1.9975 0
M  V30 9219 C 864.789 -1.07293 1.6187 0
M  V30 9220 O 864.064 -1.73983 0.869491 0
M  V30 9221 C 864.347 0.504834 3.56544 0
M  V30 9222 C 864.2 1.97127 4.04303 0
M  V30 9223 C 865.519 -0.0851272 4.40018 0
M  V30 9224 H 862.638 0.128794 0.725659 0
M  V30 9225 H 865.28 0.98606 1.6241 0
M  V30 9226 H 863.43 -0.0363006 3.88483 0
M  V30 9227 H 865.102 2.57284 3.82887 0
M  V30 9228 H 863.345 2.47676 3.56145 0
M  V30 9229 H 864.016 2.03033 5.13305 0
M  V30 9230 H 866.492 0.376704 4.14391 0
M  V30 9231 H 865.368 0.0530015 5.48874 0
M  V30 9232 H 865.629 -1.17642 4.2616 0
M  V30 9233 N 864.689 -1.48329 0.532571 0
M  V30 9234 C 865.621 -2.27652 -0.265931 0
M  V30 9235 C 866.634 -1.35522 -0.902083 0
M  V30 9236 O 867.823 -1.60552 -0.780088 0
M  V30 9237 C 864.923 -3.0899 -1.39207 0
M  V30 9238 C 864.096 -4.28915 -0.857349 0
M  V30 9239 C 863.155 -4.92044 -1.86493 0
M  V30 9240 O 862.181 -5.51181 -1.42084 0
M  V30 9241 N 863.383 -4.84518 -3.19723 0
M  V30 9242 H 866.148 -2.96821 0.414389 0
M  V30 9243 H 863.709 -1.57684 0.367066 0
M  V30 9244 H 865.701 -3.48091 -2.06433 0
M  V30 9245 H 864.271 -2.42224 -1.97601 0
M  V30 9246 H 863.491 -3.94199 -0.00901765 0
M  V30 9247 H 864.779 -5.0654 -0.479025 0
M  V30 9248 H 864.177 -4.37628 -3.58467 0
M  V30 9249 H 862.734 -5.27712 -3.82575 0
M  V30 9250 N 866.167 -0.267825 -1.55308 0
M  V30 9251 C 867.444 0.402449 -1.91415 0
M  V30 9252 C 867.824 1.7428 -1.1912 0
M  V30 9253 O 867.172 2.2631 -0.315609 0
M  V30 9254 C 867.382 0.549926 -3.4464 0
M  V30 9255 C 868.73 0.836188 -4.16285 0
M  V30 9256 O 869.754 0.635009 -3.50494 0
M  V30 9257 O 868.613 1.22051 -5.32697 0
M  V30 9258 H 865.707 0.219177 -0.797427 0
M  V30 9259 H 868.253 -0.313439 -1.6678 0
M  V30 9260 H 867.025 -0.393641 -3.89315 0
M  V30 9261 H 866.648 1.31556 -3.75205 0
M  V30 9262 N 867.645 1.57599 0.00500368 0
M  V30 9263 C 868.87 1.95026 0.705663 0
M  V30 9264 C 869.295 0.869643 1.6679 0
M  V30 9265 O 868.653 -0.172659 1.80476 0
M  V30 9266 C 868.701 3.31545 1.4181 0
M  V30 9267 O 867.805 3.25495 2.53232 0
M  V30 9268 H 867.146 0.636808 0.188074 0
M  V30 9269 H 869.676 2.04547 -0.046696 0
M  V30 9270 H 869.686 3.66996 1.78265 0
M  V30 9271 H 868.361 4.09751 0.712543 0
M  V30 9272 H 866.938 3.01714 2.19142 0
M  V30 9273 N 869.123 -0.277682 1.55134 0
M  V30 9274 C 870.053 -1.34742 1.90701 0
M  V30 9275 C 871.034 -1.51757 0.768354 0
M  V30 9276 O 872.219 -1.64879 1.02609 0
M  V30 9277 C 869.349 -2.70775 2.17481 0
M  V30 9278 C 868.303 -2.68497 3.33307 0
M  V30 9279 C 867.629 -4.08037 3.45557 0
M  V30 9280 C 868.929 -2.28178 4.69821 0
M  V30 9281 H 870.623 -1.05224 2.803 0
M  V30 9282 H 868.169 -0.504738 1.34864 0
M  V30 9283 H 870.122 -3.45719 2.40949 0
M  V30 9284 H 868.846 -3.01867 1.24676 0
M  V30 9285 H 867.505 -1.9601 3.09799 0
M  V30 9286 H 867.153 -4.36344 2.50226 0
M  V30 9287 H 866.853 -4.07409 4.23429 0
M  V30 9288 H 868.377 -4.84726 3.71312 0
M  V30 9289 H 869.791 -2.92843 4.92865 0
M  V30 9290 H 868.188 -2.3872 5.50575 0
M  V30 9291 H 869.258 -1.23308 4.6896 0
M  V30 9292 N 870.601 -1.47988 -0.541979 0
M  V30 9293 C 871.826 -1.59286 -1.32826 0
M  V30 9294 C 872.251 -0.24894 -1.86445 0
M  V30 9295 O 871.609 0.777581 -1.63778 0
M  V30 9296 C 871.657 -2.6334 -2.46343 0
M  V30 9297 O 870.761 -2.19667 -3.49028 0
M  V30 9298 H 870.102 -0.534543 -0.393903 0
M  V30 9299 H 872.632 -1.93885 -0.653427 0
M  V30 9300 H 872.642 -2.84238 -2.92699 0
M  V30 9301 H 871.317 -3.60913 -2.06675 0
M  V30 9302 H 869.894 -2.08932 -3.08872 0
M  V30 9303 N 872.079 0.78992 -1.36375 0
M  V30 9304 C 873.026 1.90254 -1.3066 0
M  V30 9305 C 873.996 1.65171 -0.17539 0
M  V30 9306 O 875.181 1.87338 -0.361824 0
M  V30 9307 C 872.321 3.27057 -1.10125 0
M  V30 9308 C 871.434 3.64215 -2.32317 0
M  V30 9309 C 870.569 4.90134 -2.04798 0
M  V30 9310 C 869.608 5.19969 -3.22953 0
M  V30 9311 N 868.745 6.37071 -2.95102 0
M  V30 9312 H 873.585 1.94474 -2.25796 0
M  V30 9313 H 871.122 0.951022 -1.12223 0
M  V30 9314 H 873.08 4.05947 -0.962453 0
M  V30 9315 H 871.71 3.22261 -0.186444 0
M  V30 9316 H 870.762 2.80454 -2.57002 0
M  V30 9317 H 872.074 3.82212 -3.20492 0
M  V30 9318 H 871.228 5.76888 -1.87845 0
M  V30 9319 H 869.967 4.74205 -1.13932 0
M  V30 9320 H 868.972 4.31699 -3.40465 0
M  V30 9321 H 870.197 5.37817 -4.14644 0
M  V30 9322 H 868.143 6.22535 -2.06848 0
M  V30 9323 H 868.06 6.55398 -3.76815 0
M  V30 9324 H 869.328 7.26808 -2.81727 0
M  V30 9325 N 873.557 1.20646 1.01402 0
M  V30 9326 C 874.782 1.04462 1.79172 0
M  V30 9327 C 875.207 -0.401588 1.83763 0
M  V30 9328 O 874.565 -1.28934 1.27459 0
M  V30 9329 C 874.613 1.63583 3.21361 0
M  V30 9330 O 873.717 0.875198 4.03006 0
M  V30 9331 H 873.058 0.368235 0.552539 0
M  V30 9332 H 875.588 1.59994 1.27526 0
M  V30 9333 H 875.598 1.67426 3.72065 0
M  V30 9334 H 874.273 2.68835 3.17334 0
M  V30 9335 H 872.85 0.911172 3.61597 0
M  V30 9336 N 875.035 -1.20752 1.01276 0
M  V30 9337 C 876.446 -1.7175 0.732033 0
M  V30 9338 C 876.797 -1.8131 -0.749733 0
M  V30 9339 O 875.922 -1.47301 -1.58529 0
M  V30 9340 C 876.517 -3.11936 1.32217 0
M  V30 9341 C 875.076 -3.6026 1.09039 0
M  V30 9342 C 874.223 -2.37571 1.43022 0
M  V30 9343 H 877.174 -1.0582 1.1827 0
M  V30 9344 H 877.195 -3.73802 0.710771 0
M  V30 9345 H 876.707 -3.04946 2.40061 0
M  V30 9346 H 874.808 -3.72588 0.0294464 0
M  V30 9347 H 874.921 -4.45295 1.76775 0
M  V30 9348 H 873.285 -2.40128 0.849159 0
M  V30 9349 H 874.068 -2.33225 2.51915 0
M  V30 9350 N 876.513 -0.788492 -1.36457 0
M  V30 9351 C 877.76 -0.360461 -1.99266 0
M  V30 9352 C 878.088 1.0676 -1.62581 0
M  V30 9353 O 877.343 1.75205 -0.871884 0
M  V30 9354 C 877.642 -0.470255 -3.54293 0
M  V30 9355 C 877.308 -1.85899 -4.10795 0
M  V30 9356 C 875.97 -2.23896 -4.25939 0
M  V30 9357 C 878.322 -2.76836 -4.41601 0
M  V30 9358 C 875.65 -3.52235 -4.69199 0
M  V30 9359 C 878.002 -4.04602 -4.86292 0
M  V30 9360 C 876.666 -4.42623 -4.99641 0
M  V30 9361 H 875.936 -0.131902 -0.729166 0
M  V30 9362 H 878.583 -1.00577 -1.62962 0
M  V30 9363 H 876.888 0.258559 -3.90946 0
M  V30 9364 H 878.585 -0.120119 -4.0082 0
M  V30 9365 H 875.175 -1.55372 -3.99447 0
M  V30 9366 H 879.359 -2.48735 -4.2947 0
M  V30 9367 H 874.615 -3.81565 -4.77722 0
M  V30 9368 H 878.789 -4.75182 -5.09092 0
M  V30 9369 H 876.416 -5.42125 -5.32921 0
M  V30 9370 N 877.991 1.48044 -0.54043 0
M  V30 9371 C 879.24 2.01698 -0.00809961 0
M  V30 9372 C 879.553 1.42184 1.34325 0
M  V30 9373 O 880.759 1.87398 1.96454 0
M  V30 9374 C 879.215 3.59882 0.035933 0
M  V30 9375 C 878.823 4.28384 -1.31115 0
M  V30 9376 C 880.567 4.21346 0.51654 0
M  V30 9377 C 878.474 5.78529 -1.22714 0
M  V30 9378 H 877.404 0.754 0.000742174 0
M  V30 9379 H 880.055 1.70204 -0.685775 0
M  V30 9380 H 878.437 3.88264 0.778906 0
M  V30 9381 H 879.611 4.11663 -2.07051 0
M  V30 9382 H 877.926 3.78837 -1.72834 0
M  V30 9383 H 880.523 5.31351 0.597529 0
M  V30 9384 H 880.866 3.87373 1.52473 0
M  V30 9385 H 881.399 3.97432 -0.171064 0
M  V30 9386 H 878.138 6.17093 -2.21081 0
M  V30 9387 H 877.658 5.97634 -0.50931 0
M  V30 9388 H 879.337 6.40395 -0.92216 0
M  V30 9389 N 879.47 0.276058 1.55163 0
M  V30 9390 C 880.881 -0.221516 1.85381 0
M  V30 9391 C 881.232 -1.55372 1.19808 0
M  V30 9392 O 880.357 -2.10855 0.486742 0
M  V30 9393 C 880.952 -0.408706 3.36326 0
M  V30 9394 C 879.511 -0.850512 3.66665 0
M  V30 9395 C 878.658 0.055656 2.77244 0
M  V30 9396 H 881.609 0.497819 1.5069 0
M  V30 9397 H 881.63 -1.24711 3.59482 0
M  V30 9398 H 881.142 0.561052 3.84023 0
M  V30 9399 H 879.243 -1.83171 3.24468 0
M  V30 9400 H 879.356 -0.687181 4.74146 0
M  V30 9401 H 877.72 -0.460819 2.50497 0
M  V30 9402 H 878.503 1.02131 3.27756 0
M  V30 9403 N 880.948 -1.576 0.00335426 0
M  V30 9404 C 882.173 -1.95398 -0.695311 0
M  V30 9405 C 882.598 -0.878476 -1.66326 0
M  V30 9406 O 881.956 0.163086 -1.80565 0
M  V30 9407 C 882.004 -3.32293 -1.40049 0
M  V30 9408 O 881.108 -3.26834 -2.51502 0
M  V30 9409 H 880.449 -0.637796 -0.184694 0
M  V30 9410 H 882.979 -2.04519 0.057543 0
M  V30 9411 H 882.989 -3.67936 -1.76316 0
M  V30 9412 H 881.664 -4.10123 -0.690803 0
M  V30 9413 H 880.241 -3.02872 -2.17539 0
M  V30 9414 N 882.426 0.269451 -1.5528 0
M  V30 9415 C 883.703 1.02207 -1.66773 0
M  V30 9416 C 884.083 2.04168 -0.536536 0
M  V30 9417 O 883.431 2.23761 0.462956 0
M  V30 9418 C 883.641 1.67569 -3.0614 0
M  V30 9419 C 884.989 2.18599 -3.64005 0
M  V30 9420 O 886.013 1.7755 -3.08795 0
M  V30 9421 O 884.872 2.93903 -4.60742 0
M  V30 9422 H 881.966 0.474314 -0.677462 0
M  V30 9423 H 884.512 0.265026 -1.67618 0
M  V30 9424 H 883.284 0.937029 -3.79915 0
M  V30 9425 H 882.907 2.49951 -3.09209 0
M  V30 9426 N 883.904 1.48273 0.534124 0
M  V30 9427 C 885.134 1.59503 1.31311 0
M  V30 9428 C 885.542 0.25284 1.87503 0
M  V30 9429 O 884.885 -0.767399 1.66903 0
M  V30 9430 C 884.947 2.57899 2.50456 0
M  V30 9431 C 884.611 4.03063 2.15382 0
M  V30 9432 C 885.608 4.90869 1.713 0
M  V30 9433 C 883.293 4.4857 2.26032 0
M  V30 9434 C 885.287 6.22209 1.38328 0
M  V30 9435 C 882.974 5.79932 1.92672 0
M  V30 9436 C 883.972 6.66574 1.4889 0
M  V30 9437 O 883.66 7.95492 1.15966 0
M  V30 9438 H 883.392 0.540695 0.405739 0
M  V30 9439 H 885.946 1.94794 0.651497 0
M  V30 9440 H 884.176 2.1772 3.19585 0
M  V30 9441 H 885.865 2.59008 3.12522 0
M  V30 9442 H 886.631 4.56951 1.62545 0
M  V30 9443 H 882.51 3.81321 2.59066 0
M  V30 9444 H 886.054 6.89792 1.04082 0
M  V30 9445 H 881.951 6.13386 2.01066 0
M  V30 9446 H 882.719 8.08207 1.29399 0
M  V30 9447 N 885.382 -0.782676 1.36792 0
M  V30 9448 C 886.314 -1.9044 1.27536 0
M  V30 9449 C 887.327 -1.61647 0.193426 0
M  V30 9450 O 888.516 -1.72769 0.448692 0
M  V30 9451 C 885.616 -3.2541 0.946641 0
M  V30 9452 C 884.789 -3.81932 2.13183 0
M  V30 9453 C 883.848 -4.95355 1.7751 0
M  V30 9454 O 882.874 -5.11517 2.49678 0
M  V30 9455 N 884.076 -5.76108 0.712755 0
M  V30 9456 H 886.841 -1.98899 2.24186 0
M  V30 9457 H 884.402 -0.96127 1.30274 0
M  V30 9458 H 886.394 -3.98791 0.689043 0
M  V30 9459 H 884.964 -3.12524 0.0690591 0
M  V30 9460 H 884.184 -3.00459 2.55183 0
M  V30 9461 H 885.472 -4.16426 2.92347 0
M  V30 9462 H 884.87 -5.65586 0.113662 0
M  V30 9463 H 883.427 -6.49762 0.514995 0
M  V30 9464 N 886.86 -1.21182 -1.00761 0
M  V30 9465 C 887.792 -0.926523 -2.09638 0
M  V30 9466 C 888.805 0.0892511 -1.62555 0
M  V30 9467 O 889.994 -0.142915 -1.77927 0
M  V30 9468 C 887.094 -0.369175 -3.36883 0
M  V30 9469 C 886.267 -1.43866 -4.13063 0
M  V30 9470 C 885.326 -0.891015 -5.18601 0
M  V30 9471 O 884.352 -1.57384 -5.47009 0
M  V30 9472 N 885.554 0.295057 -5.7975 0
M  V30 9473 H 888.319 -1.8638 -2.34697 0
M  V30 9474 H 885.88 -1.11671 -1.17223 0
M  V30 9475 H 887.872 0.011534 -4.04698 0
M  V30 9476 H 886.442 0.472861 -3.09003 0
M  V30 9477 H 885.662 -1.99332 -3.40089 0
M  V30 9478 H 886.95 -2.15866 -4.60738 0
M  V30 9479 H 886.348 0.8669 -5.59018 0
M  V30 9480 H 884.905 0.617306 -6.4887 0
M  V30 9481 N 888.338 1.20213 -1.01915 0
M  V30 9482 C 889.27 2.2251 -0.549725 0
M  V30 9483 C 890.283 1.58558 0.369235 0
M  V30 9484 O 891.472 1.77715 0.167176 0
M  V30 9485 C 888.572 3.38189 0.219432 0
M  V30 9486 C 887.745 4.31729 -0.702066 0
M  V30 9487 C 886.804 5.26196 0.0199624 0
M  V30 9488 O 885.83 5.65993 -0.60339 0
M  V30 9489 N 887.032 5.65895 1.29397 0
M  V30 9490 H 889.797 2.63412 -1.42948 0
M  V30 9491 H 887.358 1.3478 -0.896987 0
M  V30 9492 H 889.35 3.98392 0.711763 0
M  V30 9493 H 887.92 2.96156 1.00051 0
M  V30 9494 H 887.14 3.69455 -1.37466 0
M  V30 9495 H 888.428 4.91145 -1.3287 0
M  V30 9496 H 887.826 5.35579 1.8213 0
M  V30 9497 H 886.383 6.28395 1.73098 0
M  V30 9498 N 889.816 0.795718 1.36037 0
M  V30 9499 C 890.748 0.156336 2.28666 0
M  V30 9500 C 891.761 -0.638075 1.49775 0
M  V30 9501 O 892.95 -0.472222 1.7214 0
M  V30 9502 C 890.05 -0.801417 3.29288 0
M  V30 9503 C 889.223 -0.0557118 4.37365 0
M  V30 9504 C 888.282 -0.930338 5.1791 0
M  V30 9505 O 887.308 -0.385266 5.67895 0
M  V30 9506 N 888.51 -2.25382 5.34961 0
M  V30 9507 H 891.275 0.952033 2.84177 0
M  V30 9508 H 888.836 0.650189 1.48271 0
M  V30 9509 H 890.828 -1.39051 3.80062 0
M  V30 9510 H 889.398 -1.49796 2.74372 0
M  V30 9511 H 888.618 0.714508 3.87671 0
M  V30 9512 H 889.906 0.458633 5.06729 0
M  V30 9513 H 889.304 -2.72073 4.95977 0
M  V30 9514 H 887.861 -2.79241 5.88955 0
M  V30 9515 N 891.294 -1.47756 0.548274 0
M  V30 9516 C 892.519 -2.07387 0.023475 0
M  V30 9517 C 892.944 -1.39956 -1.25674 0
M  V30 9518 O 892.302 -0.471543 -1.7506 0
M  V30 9519 C 892.35 -3.60224 -0.164669 0
M  V30 9520 O 891.454 -3.93653 -1.22928 0
M  V30 9521 H 890.795 -0.662312 0.0473156 0
M  V30 9522 H 893.325 -1.89905 0.761409 0
M  V30 9523 H 893.335 -4.06211 -0.38166 0
M  V30 9524 H 892.01 -4.08702 0.770425 0
M  V30 9525 H 890.587 -3.59422 -0.993495 0
M  V30 9526 N 892.772 -0.284283 -1.55015 0
M  V30 9527 C 893.702 0.592663 -2.25853 0
M  V30 9528 C 894.683 1.15151 -1.25197 0
M  V30 9529 O 895.868 1.18395 -1.53936 0
M  V30 9530 C 892.998 1.77254 -2.98661 0
M  V30 9531 C 891.952 1.34482 -4.06323 0
M  V30 9532 C 891.278 2.60853 -4.66754 0
M  V30 9533 C 892.578 0.488288 -5.20013 0
M  V30 9534 H 894.272 0.00187041 -2.994 0
M  V30 9535 H 891.818 -0.000540402 -1.44 0
M  V30 9536 H 893.771 2.39199 -3.46932 0
M  V30 9537 H 892.495 2.38931 -2.22664 0
M  V30 9538 H 891.154 0.748519 -3.58877 0
M  V30 9539 H 890.802 3.20808 -3.87416 0
M  V30 9540 H 890.502 2.32942 -5.39455 0
M  V30 9541 H 892.026 3.23631 -5.1778 0
M  V30 9542 H 893.44 1.01298 -5.6428 0
M  V30 9543 H 891.837 0.303669 -5.99331 0
M  V30 9544 H 892.907 -0.490727 -4.8241 0
M  V30 9545 N 894.251 1.57596 -0.0117121 0
M  V30 9546 C 895.214 2.08089 0.960816 0
M  V30 9547 C 896.214 0.992519 1.26514 0
M  V30 9548 O 897.404 1.25475 1.20837 0
M  V30 9549 C 894.536 2.53217 2.28241 0
M  V30 9550 H 895.729 2.9529 0.523829 0
M  V30 9551 H 893.282 1.54508 0.235995 0
M  V30 9552 H 894.017 1.69294 2.76604 0
M  V30 9553 H 893.802 3.32714 2.0747 0
M  V30 9554 H 895.292 2.92568 2.97983 0
M  V30 9555 N 895.729 -0.261212 1.5542 0
M  V30 9556 C 896.659 -1.32712 1.92119 0
M  V30 9557 C 897.64 -1.50934 0.784406 0
M  V30 9558 O 898.825 -1.63781 1.04352 0
M  V30 9559 C 895.955 -2.68453 2.20341 0
M  V30 9560 C 894.909 -2.64947 3.36136 0
M  V30 9561 C 894.235 -4.04349 3.49865 0
M  V30 9562 C 895.535 -2.23182 4.72215 0
M  V30 9563 H 897.229 -1.02245 2.81401 0
M  V30 9564 H 894.775 -0.490406 1.35392 0
M  V30 9565 H 896.728 -3.43144 2.44603 0
M  V30 9566 H 895.452 -3.00527 1.27871 0
M  V30 9567 H 894.111 -1.92714 3.11861 0
M  V30 9568 H 893.759 -4.33665 2.5484 0
M  V30 9569 H 893.459 -4.02895 4.27726 0
M  V30 9570 H 894.983 -4.80761 3.76432 0
M  V30 9571 H 896.397 -2.87599 4.95943 0
M  V30 9572 H 894.794 -2.32867 5.53076 0
M  V30 9573 H 895.864 -1.18327 4.70241 0
M  V30 9574 N 897.207 -1.48554 -0.526253 0
M  V30 9575 C 898.155 -1.63804 -1.65139 0
M  V30 9576 C 899.149 -0.504398 -1.61716 0
M  V30 9577 O 900.355 -0.683241 -1.66529 0
M  V30 9578 H 896.73 -0.516071 -0.546969 0
M  V30 9579 H 898.701 -2.58294 -1.49421 0
M  V30 9580 C 897.45 -1.69843 -3.03395 0
M  V30 9581 H 896.773 -2.56438 -3.06724 0
M  V30 9582 H 898.213 -1.84555 -3.81727 0
M  V30 9583 C 896.672 -0.437875 -3.34042 0
M  V30 9584 O 897.202 0.447604 -3.99198 0
M  V30 9585 N 895.408 -0.308444 -2.88958 0
M  V30 9586 H 894.955 -1.02998 -2.36112 0
M  V30 9587 H 894.913 0.533952 -3.09833 0
M  V30 9588 N 898.685 0.775411 -1.37205 0
M  V30 9589 C 899.91 1.5696 -1.35567 0
M  V30 9590 C 900.335 1.88012 0.0575554 0
M  V30 9591 O 899.693 1.48954 1.03355 0
M  V30 9592 C 899.741 2.85886 -2.19776 0
M  V30 9593 O 898.845 3.80103 -1.59987 0
M  V30 9594 H 898.186 0.475583 -0.463375 0
M  V30 9595 H 900.716 0.96001 -1.80679 0
M  V30 9596 H 900.726 3.35024 -2.32859 0
M  V30 9597 H 899.401 2.62613 -3.22502 0
M  V30 9598 H 897.978 3.38736 -1.55924 0
M  V30 9599 N 900.163 1.21714 1.00117 0
M  V30 9600 C 901.388 1.06357 1.78054 0
M  V30 9601 C 901.813 -0.382075 1.84179 0
M  V30 9602 O 901.171 -1.27575 1.28819 0
M  V30 9603 C 901.219 1.66982 3.19608 0
M  V30 9604 O 900.323 0.917892 4.02055 0
M  V30 9605 H 899.664 0.374074 0.548602 0
M  V30 9606 H 902.194 1.61338 1.25822 0
M  V30 9607 H 902.204 1.71363 3.70268 0
M  V30 9608 H 900.879 2.72185 3.14465 0
M  V30 9609 H 899.456 0.949473 3.6061 0
M  V30 9610 N 901.641 -1.19671 1.02551 0
M  V30 9611 C 902.881 -1.90971 0.728668 0
M  V30 9612 C 903.245 -1.7762 -0.729057 0
M  V30 9613 O 904.446 -2.43484 -1.13882 0
M  V30 9614 C 902.717 -3.3794 1.16323 0
M  V30 9615 S 904.276 -4.27493 0.989722 0
M  V30 9616 H 901.094 -0.659617 0.265381 0
M  V30 9617 H 903.696 -1.44698 1.31463 0
M  V30 9618 H 902.4 -3.45181 2.21986 0
M  V30 9619 H 901.931 -3.89243 0.570417 0
M  V30 9620 H 903.946 -4.96096 -0.101666 0
M  V30 9621 N 903.119 -0.802921 -1.35613 0
M  V30 9622 C 904.052 -0.156345 -2.27664 0
M  V30 9623 C 905.03 0.675517 -1.47904 0
M  V30 9624 O 906.214 0.643589 -1.77173 0
M  V30 9625 C 903.341 0.78348 -3.29514 0
M  V30 9626 C 902.387 0.0317062 -4.26488 0
M  V30 9627 S 903.22 -1.30183 -5.19435 0
M  V30 9628 C 904.376 -0.366354 -6.24827 0
M  V30 9629 H 904.609 -0.936803 -2.82155 0
M  V30 9630 H 902.142 -0.597799 -1.42358 0
M  V30 9631 H 904.1 1.32023 -3.8869 0
M  V30 9632 H 902.761 1.53729 -2.73909 0
M  V30 9633 H 901.954 0.745364 -4.98458 0
M  V30 9634 H 901.556 -0.43497 -3.71462 0
M  V30 9635 H 903.848 0.44976 -6.76005 0
M  V30 9636 H 904.791 -1.05513 -7.00195 0
M  V30 9637 H 905.199 0.0363203 -5.64488 0
M  V30 9638 N 904.597 1.47463 -0.556102 0
M  V30 9639 C 905.843 2.02775 -0.0316806 0
M  V30 9640 C 906.176 1.42967 1.3143 0
M  V30 9641 O 905.451 0.584847 1.85499 0
M  V30 9642 C 905.734 3.60046 0.0625742 0
M  V30 9643 C 905.587 4.30288 -1.31043 0
M  V30 9644 C 906.906 4.33195 0.776553 0
M  V30 9645 H 904.025 0.736886 -0.0129869 0
M  V30 9646 H 906.667 1.75904 -0.718177 0
M  V30 9647 H 904.817 3.83071 0.647231 0
M  V30 9648 H 906.489 4.18607 -1.9382 0
M  V30 9649 H 904.732 3.90685 -1.8854 0
M  V30 9650 H 905.403 5.38861 -1.1972 0
M  V30 9651 H 907.879 4.15156 0.280147 0
M  V30 9652 H 906.755 5.42869 0.81146 0
M  V30 9653 H 907.016 4.02336 1.83244 0
M  V30 9654 N 906.075 0.2925 1.54862 0
M  V30 9655 C 907.007 -0.620889 2.2063 0
M  V30 9656 C 908.02 -1.10412 1.19637 0
M  V30 9657 O 909.209 -1.02304 1.46274 0
M  V30 9658 C 906.309 -1.861 2.83232 0
M  V30 9659 C 905.482 -1.52168 4.10078 0
M  V30 9660 C 904.541 -2.61605 4.56562 0
M  V30 9661 O 903.567 -2.27056 5.21952 0
M  V30 9662 N 904.769 -3.9199 4.28163 0
M  V30 9663 H 907.534 -0.0579028 2.99644 0
M  V30 9664 H 905.095 0.114333 1.61496 0
M  V30 9665 H 907.087 -2.58642 3.11266 0
M  V30 9666 H 905.657 -2.33259 2.08108 0
M  V30 9667 H 904.877 -0.629283 3.89145 0
M  V30 9668 H 906.165 -1.27023 4.92689 0
M  V30 9669 H 905.563 -4.22872 3.7576 0
M  V30 9670 H 904.12 -4.60857 4.60928 0
M  V30 9671 N 907.553 -1.57587 0.0200696 0
M  V30 9672 C 908.463 -2.13119 -0.980676 0
M  V30 9673 C 909.479 -1.08124 -1.36328 0
M  V30 9674 O 910.655 -1.40134 -1.44653 0
M  V30 9675 C 907.72 -2.63991 -2.24743 0
M  V30 9676 C 906.781 -3.83667 -1.9261 0
M  V30 9677 C 906.014 -4.32103 -3.13246 0
M  V30 9678 O 906.237 -3.79758 -4.25606 0
M  V30 9679 O 905.171 -5.24047 -2.96072 0
M  V30 9680 H 908.997 -2.98887 -0.538528 0
M  V30 9681 H 906.582 -1.48055 -0.19999 0
M  V30 9682 H 908.464 -2.9682 -2.99125 0
M  V30 9683 H 907.139 -1.81311 -2.68157 0
M  V30 9684 H 906.046 -3.55778 -1.15641 0
M  V30 9685 H 907.379 -4.67482 -1.54019 0
M  V30 9686 N 909.032 0.252966 -1.55557 0
M  V30 9687 C 909.982 1.31585 -1.86197 0
M  V30 9688 C 910.966 1.43773 -0.722357 0
M  V30 9689 O 912.158 1.47117 -0.984152 0
M  V30 9690 C 909.287 2.67245 -2.15487 0
M  V30 9691 C 908.373 2.59087 -3.3576 0
M  V30 9692 N 908.764 2.20556 -4.5518 0
M  V30 9693 C 907.062 2.90112 -3.3875 0
M  V30 9694 C 907.763 2.22881 -5.37307 0
M  V30 9695 N 906.739 2.62145 -4.76215 0
M  V30 9696 H 910.541 1.00835 -2.76061 0
M  V30 9697 H 908.055 0.461598 -1.55702 0
M  V30 9698 H 910.052 3.43944 -2.35602 0
M  V30 9699 H 908.712 2.98867 -1.26919 0
M  V30 9700 H 909.723 1.922 -4.80915 0
M  V30 9701 H 906.4 3.26313 -2.60434 0
M  V30 9702 H 907.79 1.95482 -6.42835 0
M  V30 9703 N 910.51 1.48831 0.518367 0
M  V30 9704 C 911.44 1.67119 1.63075 0
M  V30 9705 C 912.421 0.519948 1.61958 0
M  V30 9706 O 913.606 0.753824 1.78972 0
M  V30 9707 C 910.736 1.72158 3.01627 0
M  V30 9708 C 909.69 2.86898 3.17606 0
M  V30 9709 C 909.016 2.77035 4.57335 0
M  V30 9710 C 910.316 4.28057 2.99274 0
M  V30 9711 H 912.01 2.60248 1.48025 0
M  V30 9712 H 909.556 1.2524 0.710694 0
M  V30 9713 H 911.509 1.83539 3.7933 0
M  V30 9714 H 910.233 0.756157 3.17726 0
M  V30 9715 H 908.892 2.75091 2.42323 0
M  V30 9716 H 908.54 1.78438 4.70286 0
M  V30 9717 H 908.24 3.54036 4.6897 0
M  V30 9718 H 909.764 2.904 5.37122 0
M  V30 9719 H 911.178 4.40636 3.6676 0
M  V30 9720 H 909.575 5.06145 3.22393 0
M  V30 9721 H 910.645 4.4371 1.95574 0
M  V30 9722 N 911.988 -0.768124 1.37614 0
M  V30 9723 C 912.938 -1.8718 1.30184 0
M  V30 9724 C 913.922 -1.59787 0.188943 0
M  V30 9725 O 915.114 -1.71855 0.423656 0
M  V30 9726 C 912.243 -3.24698 1.11471 0
M  V30 9727 C 911.329 -3.58031 2.27321 0
M  V30 9728 N 911.72 -3.6252 3.52722 0
M  V30 9729 C 910.018 -3.88216 2.19554 0
M  V30 9730 C 910.719 -3.92704 4.29137 0
M  V30 9731 N 909.695 -4.08789 3.58319 0
M  V30 9732 H 913.497 -1.88907 2.25147 0
M  V30 9733 H 911.011 -0.964753 1.30638 0
M  V30 9734 H 913.008 -4.0366 1.04233 0
M  V30 9735 H 911.668 -3.24232 0.174281 0
M  V30 9736 H 912.679 -3.44636 3.86583 0
M  V30 9737 H 909.356 -3.95551 1.33588 0
M  V30 9738 H 910.746 -4.02922 5.37683 0
M  V30 9739 N 913.466 -1.22244 -0.994698 0
M  V30 9740 C 914.396 -1.01513 -2.10279 0
M  V30 9741 C 915.377 0.0633365 -1.69982 0
M  V30 9742 O 916.562 -0.0985268 -1.9395 0
M  V30 9743 C 913.692 -0.59016 -3.42249 0
M  V30 9744 C 912.646 -1.61436 -3.96387 0
M  V30 9745 C 911.972 -1.04528 -5.24383 0
M  V30 9746 C 913.272 -3.00388 -4.27276 0
M  V30 9747 H 914.966 -1.94194 -2.2788 0
M  V30 9748 H 912.512 -0.935094 -1.09508 0
M  V30 9749 H 914.465 -0.432254 -4.19177 0
M  V30 9750 H 913.189 0.372308 -3.24471 0
M  V30 9751 H 911.848 -1.76001 -3.21589 0
M  V30 9752 H 911.496 -0.0742225 -5.02945 0
M  V30 9753 H 911.196 -1.72949 -5.61571 0
M  V30 9754 H 912.72 -0.898922 -6.03947 0
M  V30 9755 H 914.134 -2.89207 -4.95007 0
M  V30 9756 H 912.531 -3.65916 -4.75631 0
M  V30 9757 H 913.601 -3.50456 -3.35125 0
M  V30 9758 N 914.944 1.19125 -1.03184 0
M  V30 9759 C 915.854 2.26112 -0.625329 0
M  V30 9760 C 916.87 1.7056 0.344298 0
M  V30 9761 O 918.046 2.0039 0.20144 0
M  V30 9762 C 915.111 3.46697 0.0145169 0
M  V30 9763 C 914.172 4.17419 -1.00299 0
M  V30 9764 C 913.405 5.32247 -0.393581 0
M  V30 9765 O 913.628 5.64724 0.802659 0
M  V30 9766 O 912.562 5.91428 -1.1179 0
M  V30 9767 H 916.388 2.63131 -1.51643 0
M  V30 9768 H 913.973 1.26036 -0.802197 0
M  V30 9769 H 915.855 4.19762 0.371139 0
M  V30 9770 H 914.53 3.11521 0.879581 0
M  V30 9771 H 913.437 3.4646 -1.41125 0
M  V30 9772 H 914.77 4.56573 -1.83852 0
M  V30 9773 N 916.422 0.810101 1.35185 0
M  V30 9774 C 917.354 0.180581 2.28488 0
M  V30 9775 C 918.367 -0.622154 1.50443 0
M  V30 9776 O 919.556 -0.453938 1.72632 0
M  V30 9777 C 916.656 -0.766447 3.30119 0
M  V30 9778 C 915.829 -0.00932028 4.37399 0
M  V30 9779 C 914.888 -0.875354 5.18868 0
M  V30 9780 O 913.914 -0.325012 5.68271 0
M  V30 9781 N 915.116 -2.19695 5.37321 0
M  V30 9782 H 917.881 0.98212 2.83151 0
M  V30 9783 H 915.442 0.665879 1.47573 0
M  V30 9784 H 917.434 -1.35012 3.81515 0
M  V30 9785 H 916.004 -1.46878 2.75945 0
M  V30 9786 H 915.224 0.755585 3.86891 0
M  V30 9787 H 916.512 0.512352 5.06214 0
M  V30 9788 H 915.91 -2.66797 4.98834 0
M  V30 9789 H 914.467 -2.72978 5.91884 0
M  V30 9790 N 917.9 -1.47166 0.563914 0
M  V30 9791 C 918.832 -2.28165 -0.217583 0
M  V30 9792 C 919.845 -1.37405 -0.873134 0
M  V30 9793 O 921.034 -1.6217 -0.745857 0
M  V30 9794 C 918.134 -3.11873 -1.32621 0
M  V30 9795 C 917.307 -4.30637 -0.766177 0
M  V30 9796 C 916.366 -4.95889 -1.76014 0
M  V30 9797 O 915.392 -5.54071 -1.3036 0
M  V30 9798 N 916.594 -4.91191 -3.09373 0
M  V30 9799 H 919.359 -2.95876 0.477256 0
M  V30 9800 H 916.92 -1.5687 0.40043 0
M  V30 9801 H 918.912 -3.52392 -1.99003 0
M  V30 9802 H 917.482 -2.46361 -1.92419 0
M  V30 9803 H 916.702 -3.94129 0.0745998 0
M  V30 9804 H 917.99 -5.07442 -0.371472 0
M  V30 9805 H 917.388 -4.45133 -3.49104 0
M  V30 9806 H 915.945 -5.35708 -3.71295 0
M  V30 9807 N 919.378 -0.300708 -1.54705 0
M  V30 9808 C 920.31 0.609179 -2.20956 0
M  V30 9809 C 921.323 1.09776 -1.20221 0
M  V30 9810 O 922.512 1.01527 -1.46815 0
M  V30 9811 C 919.612 1.84595 -2.84214 0
M  V30 9812 C 918.785 1.49991 -4.10879 0
M  V30 9813 C 917.844 2.5918 -4.57943 0
M  V30 9814 O 916.87 2.24285 -5.23149 0
M  V30 9815 N 918.072 3.89714 -4.30236 0
M  V30 9816 H 920.837 0.0420111 -2.99671 0
M  V30 9817 H 918.398 -0.122896 -1.61433 0
M  V30 9818 H 920.39 2.56988 -3.12633 0
M  V30 9819 H 918.96 2.32152 -2.09342 0
M  V30 9820 H 918.18 0.608637 -3.89473 0
M  V30 9821 H 919.468 1.24409 -4.93356 0
M  V30 9822 H 918.866 4.20874 -3.77997 0
M  V30 9823 H 917.423 4.58406 -4.63365 0
M  V30 9824 N 920.856 1.57574 -0.0284266 0
M  V30 9825 C 921.788 2.07079 0.982391 0
M  V30 9826 C 922.801 0.994078 1.28926 0
M  V30 9827 O 923.99 1.27028 1.25404 0
M  V30 9828 C 921.09 2.47978 2.30998 0
M  V30 9829 C 920.263 3.7872 2.18838 0
M  V30 9830 C 919.322 4.06177 3.34524 0
M  V30 9831 O 918.348 4.76438 3.11441 0
M  V30 9832 N 919.55 3.56297 4.58293 0
M  V30 9833 H 922.315 2.94421 0.560011 0
M  V30 9834 H 919.876 1.61124 0.158347 0
M  V30 9835 H 921.868 2.63439 3.07216 0
M  V30 9836 H 920.438 1.66005 2.64879 0
M  V30 9837 H 919.658 3.73062 1.27351 0
M  V30 9838 H 920.946 4.6438 2.07915 0
M  V30 9839 H 920.344 2.99453 4.79942 0
M  V30 9840 H 918.901 3.77038 5.31682 0
M  V30 9841 N 922.334 -0.244713 1.55689 0
M  V30 9842 C 923.284 -1.30596 1.86892 0
M  V30 9843 C 924.268 -1.43388 0.729972 0
M  V30 9844 O 925.46 -1.46593 0.99194 0
M  V30 9845 C 922.589 -2.66099 2.16902 0
M  V30 9846 C 921.675 -2.57302 3.37129 0
M  V30 9847 N 922.066 -2.18139 4.56343 0
M  V30 9848 C 920.364 -2.88311 3.40283 0
M  V30 9849 C 921.065 -2.20028 5.38482 0
M  V30 9850 N 920.041 -2.59616 4.77599 0
M  V30 9851 H 923.843 -0.993699 2.76591 0
M  V30 9852 H 921.357 -0.453334 1.55944 0
M  V30 9853 H 923.354 -3.4269 2.37422 0
M  V30 9854 H 922.014 -2.9819 1.28502 0
M  V30 9855 H 923.025 -1.89647 4.81928 0
M  V30 9856 H 919.702 -3.24928 2.62161 0
M  V30 9857 H 921.092 -1.9207 6.43862 0
M  V30 9858 N 923.813 -1.49104 -0.510467 0
M  V30 9859 C 924.763 -1.6147 -1.6097 0
M  V30 9860 C 925.747 -0.470797 -1.53858 0
M  V30 9861 O 926.939 -0.723266 -1.61548 0
M  V30 9862 C 924.068 -1.67575 -2.99622 0
M  V30 9863 C 923.154 -2.87511 -3.11766 0
M  V30 9864 N 923.545 -4.11704 -2.93826 0
M  V30 9865 C 921.843 -2.85251 -3.42852 0
M  V30 9866 C 922.544 -4.92276 -3.09902 0
M  V30 9867 N 921.52 -4.2546 -3.38355 0
M  V30 9868 H 925.322 -2.5522 -1.45739 0
M  V30 9869 H 922.836 -1.45745 -0.716383 0
M  V30 9870 H 924.833 -1.74531 -3.78609 0
M  V30 9871 H 923.493 -0.749557 -3.1593 0
M  V30 9872 H 924.504 -4.41834 -2.70191 0
M  V30 9873 H 921.181 -2.0197 -3.65396 0
M  V30 9874 H 922.571 -6.00905 -3.00604 0
M  V30 9875 N 925.291 0.760815 -1.38019 0
M  V30 9876 C 926.223 1.88387 -1.30549 0
M  V30 9877 C 927.236 1.61319 -0.219119 0
M  V30 9878 O 928.425 1.72033 -0.476122 0
M  V30 9879 C 925.525 3.23863 -0.998291 0
M  V30 9880 C 924.698 3.78492 -2.19232 0
M  V30 9881 C 923.757 4.92468 -1.85368 0
M  V30 9882 O 922.783 5.0748 -2.57785 0
M  V30 9883 N 923.985 5.74901 -0.804319 0
M  V30 9884 H 926.75 1.95308 -2.27322 0
M  V30 9885 H 924.311 0.940423 -1.31786 0
M  V30 9886 H 926.303 3.97644 -0.7524 0
M  V30 9887 H 924.873 3.12374 -0.11877 0
M  V30 9888 H 924.093 2.96361 -2.5993 0
M  V30 9889 H 925.381 4.11722 -2.98935 0
M  V30 9890 H 924.779 5.65333 -0.203628 0
M  V30 9891 H 923.336 6.48861 -0.618301 0
M  V30 9892 N 926.769 1.22769 0.988202 0
M  V30 9893 C 927.716 1.00195 2.07917 0
M  V30 9894 C 928.686 -0.0779391 1.65917 0
M  V30 9895 O 929.871 0.0726005 1.90662 0
M  V30 9896 C 927.011 0.590853 3.40004 0
M  V30 9897 C 926.124 1.74202 3.9532 0
M  V30 9898 C 925.259 1.27846 5.15586 0
M  V30 9899 C 924.298 2.40087 5.63049 0
M  V30 9900 N 923.435 1.94744 6.74551 0
M  V30 9901 H 928.275 1.93581 2.26562 0
M  V30 9902 H 925.812 0.96448 1.11068 0
M  V30 9903 H 927.77 0.333653 4.15864 0
M  V30 9904 H 926.4 -0.306007 3.21346 0
M  V30 9905 H 925.452 2.11342 3.16289 0
M  V30 9906 H 926.764 2.58612 4.26522 0
M  V30 9907 H 925.918 0.978919 5.9875 0
M  V30 9908 H 924.657 0.404617 4.86019 0
M  V30 9909 H 923.662 2.70824 4.78471 0
M  V30 9910 H 924.887 3.27995 5.9464 0
M  V30 9911 H 922.833 1.09729 6.46758 0
M  V30 9912 H 922.75 2.72718 7.05096 0
M  V30 9913 H 924.018 1.67873 7.61209 0
M  V30 9914 N 928.247 -1.18576 1.03814 0
M  V30 9915 C 929.179 -2.21607 0.585055 0
M  V30 9916 C 930.192 -1.59125 -0.343963 0
M  V30 9917 O 931.381 -1.77959 -0.138882 0
M  V30 9918 C 928.481 -3.38495 -0.165602 0
M  V30 9919 C 927.654 -4.30557 0.770662 0
M  V30 9920 C 926.713 -5.26161 0.0637534 0
M  V30 9921 O 925.739 -5.64961 0.693359 0
M  V30 9922 N 926.941 -5.67882 -1.20377 0
M  V30 9923 H 929.706 -2.61104 1.47121 0
M  V30 9924 H 927.267 -1.33336 0.918316 0
M  V30 9925 H 929.259 -3.99474 -0.648292 0
M  V30 9926 H 927.829 -2.97711 -0.953268 0
M  V30 9927 H 927.049 -3.67221 1.43326 0
M  V30 9928 H 928.337 -4.88969 1.40667 0
M  V30 9929 H 927.735 -5.38409 -1.73586 0
M  V30 9930 H 926.292 -6.31069 -1.63079 0
M  V30 9931 N 929.725 -0.817259 -1.34754 0
M  V30 9932 C 930.971 -0.403244 -1.98751 0
M  V30 9933 C 931.304 1.02963 -1.64658 0
M  V30 9934 O 930.579 1.71617 -0.915314 0
M  V30 9935 C 930.862 -0.599188 -3.5508 0
M  V30 9936 C 930.715 -2.07777 -3.98934 0
M  V30 9937 C 932.034 -0.0315656 -4.40089 0
M  V30 9938 H 929.153 -0.147988 -0.721989 0
M  V30 9939 H 931.795 -1.02877 -1.59738 0
M  V30 9940 H 929.945 -0.0667116 -3.88443 0
M  V30 9941 H 931.617 -2.67345 -3.75931 0
M  V30 9942 H 929.86 -2.57031 -3.49453 0
M  V30 9943 H 930.531 -2.16571 -5.07741 0
M  V30 9944 H 933.007 -0.48644 -4.13247 0
M  V30 9945 H 931.883 -0.198507 -5.48541 0
M  V30 9946 H 932.144 1.06302 -4.2913 0
M  V30 9947 N 931.203 1.46865 -0.571711 0
M  V30 9948 C 932.449 2.0273 -0.0531858 0
M  V30 9949 C 932.782 1.44353 1.29907 0
M  V30 9950 O 932.057 0.604488 1.84868 0
M  V30 9951 C 932.34 3.60092 0.0243831 0
M  V30 9952 C 932.193 4.28874 -1.35599 0
M  V30 9953 C 933.512 4.33994 0.730563 0
M  V30 9954 H 930.631 0.736706 -0.0208018 0
M  V30 9955 H 933.273 1.75132 -0.736794 0
M  V30 9956 H 931.423 3.83736 0.606565 0
M  V30 9957 H 933.095 4.16527 -1.98249 0
M  V30 9958 H 931.338 3.88664 -1.92674 0
M  V30 9959 H 932.009 5.37561 -1.25429 0
M  V30 9960 H 934.485 4.1543 0.236098 0
M  V30 9961 H 933.361 5.43699 0.753836 0
M  V30 9962 H 933.622 4.04257 1.78967 0
M  V30 9963 N 932.681 0.308908 1.54543 0
M  V30 9964 C 933.927 -0.298478 2.00592 0
M  V30 9965 C 934.26 -1.52929 1.19692 0
M  V30 9966 O 933.535 -1.9254 0.27542 0
M  V30 9967 C 933.818 -0.647218 3.54236 0
M  V30 9968 C 933.671 0.593284 4.4587 0
M  V30 9969 C 934.99 -1.47064 4.14801 0
M  V30 9970 H 932.109 -0.107012 0.72919 0
M  V30 9971 H 934.751 0.422578 1.85241 0
M  V30 9972 H 932.901 -1.26153 3.67447 0
M  V30 9973 H 934.573 1.2317 4.44552 0
M  V30 9974 H 932.816 1.22501 4.16144 0
M  V30 9975 H 933.487 0.305018 5.51157 0
M  V30 9976 H 935.963 -0.951511 4.05075 0
M  V30 9977 H 934.839 -1.68343 5.22448 0
M  V30 9978 H 935.1 -2.4623 3.67183 0
M  V30 9979 N 934.159 -1.57557 0.0367827 0
M  V30 9980 C 935.069 -2.14148 -0.958017 0
M  V30 9981 C 936.085 -1.09564 -1.35173 0
M  V30 9982 O 937.261 -1.4166 -1.43158 0
M  V30 9983 C 934.326 -2.6636 -2.21931 0
M  V30 9984 C 933.387 -3.85688 -1.8853 0
M  V30 9985 C 932.62 -4.35401 -3.08645 0
M  V30 9986 O 932.843 -3.8425 -4.21554 0
M  V30 9987 O 931.777 -5.27158 -2.90497 0
M  V30 9988 H 935.603 -2.99442 -0.506797 0
M  V30 9989 H 933.188 -1.48259 -0.184275 0
M  V30 9990 H 935.07 -2.99976 -2.9596 0
M  V30 9991 H 933.745 -1.84145 -2.66219 0
M  V30 9992 H 932.652 -3.56985 -1.11861 0
M  V30 9993 H 933.985 -4.69089 -1.49052 0
M  V30 9994 N 935.637 0.236453 -1.55816 0
M  V30 9995 C 937.048 0.80468 -1.68469 0
M  V30 9996 C 937.399 1.85601 -0.636133 0
M  V30 9997 O 936.524 2.15323 0.215622 0
M  V30 9998 C 937.119 1.46634 -3.05424 0
M  V30 9999 C 935.678 1.98214 -3.19981 0
M  V30 10000 C 934.825 0.83695 -2.64368 0
M  V30 10001 H 937.776 0.0120647 -1.58695 0
M  V30 10002 H 937.797 2.33472 -3.00451 0
M  V30 10003 H 937.309 0.700931 -3.81718 0
M  V30 10004 H 935.41 2.77604 -2.4853 0
M  V30 10005 H 935.523 2.17235 -4.2702 0
M  V30 10006 H 933.887 1.24028 -2.22462 0
M  V30 10007 H 934.67 0.084451 -3.43196 0
M  V30 10008 N 937.115 1.49373 0.502552 0
M  V30 10009 C 938.047 1.62045 1.62093 0
M  V30 10010 C 939.06 0.503221 1.54827 0
M  V30 10011 O 940.249 0.775208 1.60788 0
M  V30 10012 C 937.349 1.55971 3.00876 0
M  V30 10013 C 936.522 2.832 3.33341 0
M  V30 10014 C 935.581 2.702 4.51529 0
M  V30 10015 O 934.607 3.44132 4.53389 0
M  V30 10016 N 935.809 1.81642 5.5135 0
M  V30 10017 H 938.574 2.58501 1.51649 0
M  V30 10018 H 936.135 1.46442 0.690396 0
M  V30 10019 H 938.127 1.4493 3.77859 0
M  V30 10020 H 936.697 0.673795 3.05252 0
M  V30 10021 H 935.917 3.08604 2.4527 0
M  V30 10022 H 937.205 3.67551 3.51829 0
M  V30 10023 H 936.603 1.20829 5.52645 0
M  V30 10024 H 935.16 1.76524 6.27441 0
M  V30 10025 N 938.594 -0.753485 1.38421 0
M  V30 10026 C 939.526 -1.87692 1.31547 0
M  V30 10027 C 940.539 -1.612 0.227671 0
M  V30 10028 O 941.728 -1.71778 0.485238 0
M  V30 10029 C 938.828 -3.23329 1.01545 0
M  V30 10030 C 938.001 -3.77324 2.21236 0
M  V30 10031 C 937.06 -4.91478 1.87977 0
M  V30 10032 O 936.086 -5.06106 2.60472 0
M  V30 10033 N 937.288 -5.74466 0.834796 0
M  V30 10034 H 940.053 -1.94099 2.28354 0
M  V30 10035 H 937.614 -0.933421 1.32283 0
M  V30 10036 H 939.606 -3.9724 0.773477 0
M  V30 10037 H 938.176 -3.12307 0.135334 0
M  V30 10038 H 937.396 -2.94978 2.61498 0
M  V30 10039 H 938.684 -4.10131 3.01115 0
M  V30 10040 H 938.082 -5.65217 0.233606 0
M  V30 10041 H 936.639 -6.48524 0.652703 0
M  V30 10042 N 940.072 -1.23292 -0.981677 0
M  V30 10043 C 941.004 -0.970782 -2.07626 0
M  V30 10044 C 942.017 0.0547506 -1.62708 0
M  V30 10045 O 943.206 -0.180623 -1.77584 0
M  V30 10046 C 940.306 -0.44055 -3.36024 0
M  V30 10047 C 939.479 -1.52595 -4.09919 0
M  V30 10048 C 938.538 -1.00082 -5.16595 0
M  V30 10049 O 937.564 -1.68951 -5.43548 0
M  V30 10050 N 938.766 0.172017 -5.80245 0
M  V30 10051 H 941.531 -1.91316 -2.30691 0
M  V30 10052 H 939.092 -1.14133 -1.14828 0
M  V30 10053 H 941.084 -0.0743111 -4.04632 0
M  V30 10054 H 939.654 0.407211 -3.09936 0
M  V30 10055 H 938.874 -2.06501 -3.35784 0
M  V30 10056 H 940.162 -2.2559 -4.56055 0
M  V30 10057 H 939.56 0.748129 -5.60731 0
M  V30 10058 H 938.117 0.479532 -6.50034 0
M  V30 10059 N 941.55 1.18024 -1.04442 0
M  V30 10060 C 942.48 2.23988 -0.659683 0
M  V30 10061 C 943.461 1.6669 0.338904 0
M  V30 10062 O 944.646 1.92971 0.21817 0
M  V30 10063 C 941.776 3.4729 -0.0257672 0
M  V30 10064 C 940.73 4.17362 -0.948299 0
M  V30 10065 C 940.056 5.34401 -0.17866 0
M  V30 10066 C 941.356 4.70435 -2.26909 0
M  V30 10067 H 943.05 2.56425 -1.54553 0
M  V30 10068 H 940.596 1.23256 -0.744575 0
M  V30 10069 H 942.549 4.20627 0.255131 0
M  V30 10070 H 941.273 3.14098 0.894981 0
M  V30 10071 H 939.932 3.45928 -1.21364 0
M  V30 10072 H 939.58 4.97458 0.744614 0
M  V30 10073 H 939.28 5.8222 -0.793294 0
M  V30 10074 H 940.804 6.10526 0.0951315 0
M  V30 10075 H 942.218 5.35447 -2.04864 0
M  V30 10076 H 940.615 5.28803 -2.83703 0
M  V30 10077 H 941.685 3.87653 -2.91296 0
M  V30 10078 N 943.028 0.824394 1.34319 0
M  V30 10079 C 944.268 0.419044 2.00058 0
M  V30 10080 C 944.632 -0.999504 1.63933 0
M  V30 10081 O 945.833 -1.50781 2.22527 0
M  V30 10082 C 944.104 0.616897 3.52036 0
M  V30 10083 S 945.663 0.304614 4.37741 0
M  V30 10084 H 942.481 0.158265 0.693162 0
M  V30 10085 H 945.083 1.07053 1.63585 0
M  V30 10086 H 943.787 1.64896 3.75816 0
M  V30 10087 H 943.318 -0.0492693 3.93369 0
M  V30 10088 H 945.333 -0.88114 4.88314 0
M  V30 10089 N 944.506 -1.46559 0.579492 0
M  V30 10090 C 945.438 -2.28383 -0.19337 0
M  V30 10091 C 946.451 -1.38324 -0.858511 0
M  V30 10092 O 947.64 -1.62952 -0.728615 0
M  V30 10093 C 944.74 -3.13262 -1.29306 0
M  V30 10094 C 943.913 -4.31426 -0.720459 0
M  V30 10095 C 942.972 -4.97728 -1.70744 0
M  V30 10096 O 941.998 -5.55423 -1.24476 0
M  V30 10097 N 943.2 -4.94445 -3.04146 0
M  V30 10098 H 945.965 -2.95353 0.508611 0
M  V30 10099 H 943.526 -1.56436 0.417046 0
M  V30 10100 H 945.518 -3.54483 -1.95254 0
M  V30 10101 H 944.088 -2.48388 -1.89795 0
M  V30 10102 H 943.308 -3.94028 0.116398 0
M  V30 10103 H 944.596 -5.07808 -0.31763 0
M  V30 10104 H 943.994 -4.4881 -3.44363 0
M  V30 10105 H 942.551 -5.39616 -3.65592 0
M  V30 10106 N 945.984 -0.3171 -1.54377 0
M  V30 10107 C 946.931 0.551782 -2.24107 0
M  V30 10108 C 947.901 1.11681 -1.22949 0
M  V30 10109 O 949.086 1.15836 -1.51614 0
M  V30 10110 C 946.226 1.70997 -2.99756 0
M  V30 10111 C 945.339 1.17479 -4.15719 0
M  V30 10112 C 944.474 2.29815 -4.78914 0
M  V30 10113 C 943.513 1.73513 -5.86992 0
M  V30 10114 N 942.65 2.79485 -6.44075 0
M  V30 10115 H 947.49 -0.049431 -2.97959 0
M  V30 10116 H 945.027 -0.0361658 -1.47056 0
M  V30 10117 H 946.985 2.39141 -3.41859 0
M  V30 10118 H 945.615 2.28257 -2.28251 0
M  V30 10119 H 944.667 0.385109 -3.78446 0
M  V30 10120 H 945.979 0.72276 -4.93536 0
M  V30 10121 H 945.133 3.05875 -5.23952 0
M  V30 10122 H 943.872 2.78352 -4.00464 0
M  V30 10123 H 942.877 0.959475 -5.41363 0
M  V30 10124 H 944.102 1.2586 -6.67335 0
M  V30 10125 H 942.048 3.27325 -5.68502 0
M  V30 10126 H 941.965 2.38825 -7.17286 0
M  V30 10127 H 943.233 3.55394 -6.93769 0
M  V30 10128 N 947.462 1.57535 -0.0451378 0
M  V30 10129 C 948.395 2.06721 0.96653 0
M  V30 10130 C 949.373 0.966392 1.30766 0
M  V30 10131 O 950.557 1.23789 1.42157 0
M  V30 10132 C 947.684 2.50266 2.2822 0
M  V30 10133 C 946.73 3.71525 2.09455 0
M  V30 10134 S 947.563 5.17453 1.37851 0
M  V30 10135 C 948.719 5.64308 2.70753 0
M  V30 10136 H 948.952 2.92207 0.547911 0
M  V30 10137 H 946.485 1.53494 0.166973 0
M  V30 10138 H 948.443 2.76019 3.03849 0
M  V30 10139 H 947.104 1.65097 2.67211 0
M  V30 10140 H 946.297 3.99894 3.06759 0
M  V30 10141 H 945.899 3.46008 1.41967 0
M  V30 10142 H 948.191 5.69525 3.66943 0
M  V30 10143 H 949.134 6.63613 2.47028 0
M  V30 10144 H 949.542 4.92014 2.76736 0
M  V30 10145 N 948.94 -0.228186 1.55939 0
M  V30 10146 C 949.887 -1.28274 1.91871 0
M  V30 10147 C 950.857 -1.46906 0.775103 0
M  V30 10148 O 952.042 -1.60583 1.03042 0
M  V30 10149 C 949.182 -2.62945 2.23504 0
M  V30 10150 C 948.295 -2.52166 3.50766 0
M  V30 10151 C 947.43 -3.79316 3.71878 0
M  V30 10152 C 946.469 -3.63231 4.92676 0
M  V30 10153 N 945.606 -4.82315 5.10212 0
M  V30 10154 H 950.446 -0.96931 2.81795 0
M  V30 10155 H 947.983 -0.467331 1.39479 0
M  V30 10156 H 949.941 -3.41359 2.39854 0
M  V30 10157 H 948.571 -2.92397 1.36762 0
M  V30 10158 H 947.623 -1.65221 3.42646 0
M  V30 10159 H 948.935 -2.36199 4.39331 0
M  V30 10160 H 948.089 -4.66173 3.88288 0
M  V30 10161 H 946.828 -3.982 2.81581 0
M  V30 10162 H 945.833 -2.74757 4.76223 0
M  V30 10163 H 947.058 -3.45823 5.84451 0
M  V30 10164 H 945.004 -5.01526 4.22856 0
M  V30 10165 H 944.921 -4.6905 5.92898 0
M  V30 10166 H 946.189 -5.70618 5.31051 0
M  V30 10167 N 950.418 -1.49637 -0.494624 0
M  V30 10168 C 951.368 -1.63168 -1.59249 0
M  V30 10169 C 952.352 -0.487089 -1.5335 0
M  V30 10170 O 953.544 -0.74036 -1.60772 0
M  V30 10171 C 950.673 -1.70744 -2.97828 0
M  V30 10172 C 949.759 -2.90802 -3.08699 0
M  V30 10173 N 950.15 -4.14797 -2.89442 0
M  V30 10174 C 948.448 -2.88871 -3.39808 0
M  V30 10175 C 949.149 -4.95535 -3.04663 0
M  V30 10176 N 948.125 -4.29025 -3.33824 0
M  V30 10177 H 951.927 -2.56751 -1.43024 0
M  V30 10178 H 949.441 -1.46497 -0.700885 0
M  V30 10179 H 951.438 -1.78537 -3.76736 0
M  V30 10180 H 950.098 -0.783024 -3.15117 0
M  V30 10181 H 951.109 -4.44675 -2.6549 0
M  V30 10182 H 947.786 -2.05834 -3.63233 0
M  V30 10183 H 949.176 -6.0406 -2.94214 0
M  V30 10184 N 951.896 0.746133 -1.38819 0
M  V30 10185 C 952.829 1.86833 -1.31029 0
M  V30 10186 C 953.807 1.61533 -0.185948 0
M  V30 10187 O 954.991 1.84942 -0.364529 0
M  V30 10188 C 952.118 3.22596 -1.03198 0
M  V30 10189 C 951.164 3.66772 -2.17671 0
M  V30 10190 S 951.997 3.77438 -3.7987 0
M  V30 10191 C 953.153 5.16008 -3.54241 0
M  V30 10192 H 953.386 1.93155 -2.26005 0
M  V30 10193 H 950.919 0.909872 -1.24742 0
M  V30 10194 H 952.877 4.00995 -0.878237 0
M  V30 10195 H 951.538 3.13943 -0.0992704 0
M  V30 10196 H 950.731 4.65266 -1.93762 0
M  V30 10197 H 950.333 2.95547 -2.2919 0
M  V30 10198 H 952.625 6.01996 -3.10816 0
M  V30 10199 H 953.568 5.44941 -4.52156 0
M  V30 10200 H 953.976 4.85158 -2.88587 0
M  V30 10201 N 953.375 1.23811 0.975125 0
M  V30 10202 C 954.307 0.981779 2.07108 0
M  V30 10203 C 955.32 -0.0461211 1.62735 0
M  V30 10204 O 956.509 0.190039 1.77486 0
M  V30 10205 C 953.609 0.458364 3.35786 0
M  V30 10206 C 952.782 1.54767 4.09104 0
M  V30 10207 C 951.841 1.0282 5.16057 0
M  V30 10208 O 950.867 1.71831 5.42644 0
M  V30 10209 N 952.069 -0.141243 5.80328 0
M  V30 10210 H 954.834 1.92537 2.29673 0
M  V30 10211 H 952.395 1.1474 1.14221 0
M  V30 10212 H 954.387 0.0957686 4.04587 0
M  V30 10213 H 952.957 -0.390768 3.10148 0
M  V30 10214 H 952.177 2.08279 3.34684 0
M  V30 10215 H 953.465 2.28006 4.54853 0
M  V30 10216 H 952.863 -0.718382 5.6112 0
M  V30 10217 H 951.42 -0.445052 6.50279 0
M  V30 10218 N 954.853 -1.17469 1.05066 0
M  V30 10219 C 956.099 -1.87976 0.761113 0
M  V30 10220 C 956.432 -1.80756 -0.709995 0
M  V30 10221 O 955.707 -1.21469 -1.51906 0
M  V30 10222 C 955.99 -3.38055 1.2406 0
M  V30 10223 C 955.843 -3.54032 2.77455 0
M  V30 10224 C 957.162 -4.32036 0.838612 0
M  V30 10225 H 954.281 -0.682573 0.277963 0
M  V30 10226 H 956.923 -1.38147 1.30443 0
M  V30 10227 H 955.073 -3.80622 0.778388 0
M  V30 10228 H 956.745 -3.20489 3.3179 0
M  V30 10229 H 954.988 -2.96352 3.16793 0
M  V30 10230 H 955.659 -4.59377 3.06066 0
M  V30 10231 H 958.135 -3.97303 1.23651 0
M  V30 10232 H 957.011 -5.35583 1.20173 0
M  V30 10233 H 957.272 -4.41349 -0.257498 0
M  V30 10234 N 956.331 -0.831506 -1.3388 0
M  V30 10235 C 957.279 -0.247896 -2.31275 0
M  V30 10236 C 958.273 0.616083 -1.578 0
M  V30 10237 O 959.479 0.506465 -1.72728 0
M  V30 10238 H 955.854 -0.0614293 -0.749487 0
M  V30 10239 H 957.825 -1.08401 -2.78014 0
M  V30 10240 C 956.574 0.568434 -3.43022 0
M  V30 10241 H 955.897 -0.0870654 -3.99705 0
M  V30 10242 H 957.337 0.942751 -4.13386 0
M  V30 10243 C 955.796 1.74431 -2.88228 0
M  V30 10244 O 956.326 2.84278 -2.83811 0
M  V30 10245 N 954.532 1.56382 -2.44935 0
M  V30 10246 H 954.079 0.670255 -2.48727 0
M  V30 10247 H 954.037 2.35208 -2.08625 0
M  V30 10248 N 957.809 1.4625 -0.587256 0
M  V30 10249 C 959.057 2.01963 -0.0744273 0
M  V30 10250 C 959.378 1.46065 1.29189 0
M  V30 10251 O 958.648 0.647077 1.84905 0
M  V30 10252 H 957.228 0.746597 -0.0245236 0
M  V30 10253 H 959.89 1.79299 -0.764063 0
M  V30 10254 H 958.986 3.12099 -0.00884894 0
M  V30 10255 N 959.287 0.325282 1.54207 0
M  V30 10256 C 960.22 -0.582485 2.20641 0
M  V30 10257 C 961.198 -1.11441 1.18405 0
M  V30 10258 O 962.382 -1.17809 1.4715 0
M  V30 10259 C 959.509 -1.79944 2.86946 0
M  V30 10260 C 958.555 -1.39861 4.02916 0
M  V30 10261 S 959.388 -0.433859 5.3374 0
M  V30 10262 C 960.544 -1.65806 6.03539 0
M  V30 10263 H 960.777 -0.0181601 2.97294 0
M  V30 10264 H 958.31 0.109365 1.54012 0
M  V30 10265 H 960.268 -2.4977 3.25769 0
M  V30 10266 H 958.929 -2.33495 2.10092 0
M  V30 10267 H 958.122 -2.30547 4.48179 0
M  V30 10268 H 957.724 -0.780036 3.65775 0
M  V30 10269 H 960.016 -2.59524 6.25822 0
M  V30 10270 H 960.959 -1.24756 6.97023 0
M  V30 10271 H 961.367 -1.84581 5.3347 0
M  V30 10272 N 960.765 -1.57509 0.0534917 0
M  V30 10273 C 962.012 -1.92782 -0.619772 0
M  V30 10274 C 962.34 -0.932046 -1.70714 0
M  V30 10275 O 961.595 0.0552891 -1.95622 0
M  V30 10276 C 961.894 -3.34734 -1.25251 0
M  V30 10277 C 961.56 -4.49946 -0.293113 0
M  V30 10278 C 960.222 -4.81191 -0.0291223 0
M  V30 10279 C 962.574 -5.19925 0.364271 0
M  V30 10280 C 959.902 -5.79761 0.899649 0
M  V30 10281 C 962.254 -6.19489 1.28125 0
M  V30 10282 C 960.918 -6.49161 1.55389 0
M  V30 10283 H 960.188 -0.705441 -0.226791 0
M  V30 10284 H 962.835 -1.91121 0.120466 0
M  V30 10285 H 961.14 -3.32774 -2.06807 0
M  V30 10286 H 962.837 -3.59308 -1.78042 0
M  V30 10287 H 959.427 -4.25566 -0.509053 0
M  V30 10288 H 963.611 -4.95997 0.173411 0
M  V30 10289 H 958.867 -6.01085 1.11833 0
M  V30 10290 H 963.041 -6.72824 1.79669 0
M  V30 10291 H 960.668 -7.25354 2.2752 0
M  V30 10292 N 962.243 0.219913 -1.56058 0
M  V30 10293 C 963.153 1.29349 -1.95719 0
M  V30 10294 C 964.169 1.5119 -0.861248 0
M  V30 10295 O 965.345 1.64289 -1.16495 0
M  V30 10296 C 962.41 2.6229 -2.26726 0
M  V30 10297 C 961.471 2.48738 -3.49897 0
M  V30 10298 C 960.704 3.75339 -3.79416 0
M  V30 10299 O 960.927 4.78427 -3.10586 0
M  V30 10300 O 959.861 3.72352 -4.72903 0
M  V30 10301 H 963.687 0.986979 -2.87215 0
M  V30 10302 H 961.272 0.42291 -1.43289 0
M  V30 10303 H 963.154 3.408 -2.47857 0
M  V30 10304 H 961.829 2.92619 -1.38404 0
M  V30 10305 H 960.736 1.68422 -3.34043 0
M  V30 10306 H 962.069 2.23347 -4.38608 0
M  V30 10307 N 963.721 1.49897 0.486681 0
M  V30 10308 C 964.669 1.68125 1.60738 0
M  V30 10309 C 965.663 0.547097 1.60322 0
M  V30 10310 O 966.869 0.727153 1.64659 0
M  V30 10311 H 963.244 0.530391 0.533094 0
M  V30 10312 H 965.215 2.62165 1.42521 0
M  V30 10313 C 963.964 1.77827 2.98786 0
M  V30 10314 H 963.287 2.6448 2.99818 0
M  V30 10315 H 964.727 1.94611 3.76699 0
M  V30 10316 C 963.186 0.526287 3.32764 0
M  V30 10317 O 963.716 -0.341607 4.00245 0
M  V30 10318 N 961.922 0.384947 2.88039 0
M  V30 10319 H 961.469 1.09222 2.33299 0
M  V30 10320 H 961.427 -0.451618 3.11139 0
M  V30 10321 N 965.199 -0.738761 1.39212 0
M  V30 10322 C 966.445 -1.49942 1.37437 0
M  V30 10323 C 966.8 -1.92375 -0.0309496 0
M  V30 10324 O 966.093 -1.63635 -0.996706 0
M  V30 10325 C 966.287 -2.75435 2.2775 0
M  V30 10326 C 966.116 -2.45273 3.76924 0
M  V30 10327 C 964.886 -2.37755 4.45871 0
M  V30 10328 C 967.084 -2.11064 4.68995 0
M  V30 10329 N 965.066 -2.00023 5.804 0
M  V30 10330 C 966.437 -1.83746 5.92147 0
M  V30 10331 C 968.492 -1.975 4.57054 0
M  V30 10332 C 967.195 -1.4423 7.04692 0
M  V30 10333 C 969.221 -1.59388 5.69517 0
M  V30 10334 C 968.583 -1.32951 6.91739 0
M  V30 10335 H 964.682 -0.547671 0.558194 0
M  V30 10336 H 967.266 -0.858925 1.7473 0
M  V30 10337 H 965.437 -3.3727 1.92622 0
M  V30 10338 H 967.169 -3.41607 2.16995 0
M  V30 10339 H 963.924 -2.54725 3.99264 0
M  V30 10340 H 964.348 -1.83761 6.51583 0
M  V30 10341 H 968.99 -2.16609 3.63099 0
M  V30 10342 H 966.708 -1.23863 7.98551 0
M  V30 10343 H 970.294 -1.49504 5.62263 0
M  V30 10344 H 969.174 -1.039 7.77287 0
M  V30 10345 N 966.677 -1.24326 -0.968545 0
M  V30 10346 C 967.625 -1.03256 -2.08425 0
M  V30 10347 C 968.619 0.0322356 -1.69369 0
M  V30 10348 O 969.825 -0.122251 -1.79584 0
M  V30 10349 H 966.2 -0.31688 -0.681976 0
M  V30 10350 H 968.171 -1.97873 -2.23358 0
M  V30 10351 C 966.92 -0.653144 -3.4151 0
M  V30 10352 H 966.243 -1.46424 -3.72021 0
M  V30 10353 H 967.683 -0.545316 -4.20479 0
M  V30 10354 C 966.142 0.639674 -3.30771 0
M  V30 10355 O 966.672 1.68563 -3.64622 0
M  V30 10356 N 964.878 0.620074 -2.83907 0
M  V30 10357 H 964.425 -0.231449 -2.56558 0
M  V30 10358 H 964.383 1.48528 -2.77104 0
M  V30 10359 N 968.156 1.1691 -1.05688 0
M  V30 10360 C 969.381 1.91745 -0.790478 0
M  V30 10361 C 969.806 1.76568 0.648478 0
M  V30 10362 O 969.164 1.08682 1.45114 0
M  V30 10363 C 969.212 3.4067 -1.18222 0
M  V30 10364 O 968.316 4.11177 -0.317341 0
M  V30 10365 H 967.657 0.5976 -0.28943 0
M  V30 10366 H 970.187 1.48157 -1.41105 0
M  V30 10367 H 970.197 3.91424 -1.15114 0
M  V30 10368 H 968.872 3.51036 -2.2304 0
M  V30 10369 H 967.449 3.70645 -0.409459 0
M  V30 10370 N 969.634 0.838594 1.33437 0
M  V30 10371 C 970.582 0.260158 2.31141 0
M  V30 10372 C 971.576 -0.607706 1.58124 0
M  V30 10373 O 972.782 -0.497298 1.72994 0
M  V30 10374 H 969.157 0.0654031 0.74915 0
M  V30 10375 H 971.128 1.09874 2.77435 0
M  V30 10376 C 969.877 -0.550234 3.43319 0
M  V30 10377 H 969.2 0.108262 3.99653 0
M  V30 10378 H 970.64 -0.920815 4.1388 0
M  V30 10379 C 969.099 -1.729 2.89149 0
M  V30 10380 O 969.629 -2.82769 2.85315 0
M  V30 10381 N 967.835 -1.5508 2.45761 0
M  V30 10382 H 967.382 -0.657055 2.49079 0
M  V30 10383 H 967.34 -2.34099 2.0987 0
M  V30 10384 N 971.112 -1.45937 0.595003 0
M  V30 10385 C 972.044 -2.28575 -0.169137 0
M  V30 10386 C 973.057 -1.39226 -0.843792 0
M  V30 10387 O 974.246 -1.63716 -0.711291 0
M  V30 10388 C 971.346 -3.14616 -1.25976 0
M  V30 10389 C 970.519 -4.32166 -0.67466 0
M  V30 10390 C 969.578 -4.99511 -1.65456 0
M  V30 10391 O 968.604 -5.56712 -1.18578 0
M  V30 10392 N 969.806 -4.97643 -2.98885 0
M  V30 10393 H 972.571 -2.94797 0.539908 0
M  V30 10394 H 970.132 -1.55985 0.433614 0
M  V30 10395 H 972.124 -3.56534 -1.91483 0
M  V30 10396 H 970.694 -2.50387 -1.8715 0
M  V30 10397 H 969.914 -3.93882 0.158184 0
M  V30 10398 H 971.202 -5.08116 -0.263753 0
M  V30 10399 H 970.6 -4.52438 -3.39583 0
M  V30 10400 H 969.157 -5.43463 -3.59848 0
M  V30 10401 N 972.59 -0.333456 -1.54032 0
M  V30 10402 C 973.837 0.266133 -2.00744 0
M  V30 10403 C 974.165 1.51361 -1.22148 0
M  V30 10404 O 973.42 1.93473 -0.294368 0
M  V30 10405 C 973.719 0.63565 -3.51702 0
M  V30 10406 C 973.385 -0.513786 -4.47963 0
M  V30 10407 C 972.047 -0.829253 -4.74001 0
M  V30 10408 C 974.399 -1.2854 -5.05101 0
M  V30 10409 C 971.727 -1.91888 -5.54433 0
M  V30 10410 C 974.079 -2.3652 -5.86721 0
M  V30 10411 C 972.743 -2.68637 -6.11057 0
M  V30 10412 H 972.013 0.097385 -0.734573 0
M  V30 10413 H 974.66 -0.459282 -1.85911 0
M  V30 10414 H 972.965 1.44163 -3.64313 0
M  V30 10415 H 974.662 1.11129 -3.85294 0
M  V30 10416 H 971.252 -0.25784 -4.27824 0
M  V30 10417 H 975.436 -1.05494 -4.84958 0
M  V30 10418 H 970.692 -2.17208 -5.71516 0
M  V30 10419 H 974.866 -2.96747 -6.30011 0
M  V30 10420 H 972.493 -3.53197 -6.73169 0
M  V30 10421 N 974.068 1.57479 -0.061844 0
M  V30 10422 C 975.314 1.93395 0.610443 0
M  V30 10423 C 975.647 0.941334 1.6986 0
M  V30 10424 O 974.922 -0.0310262 1.94475 0
M  V30 10425 C 975.205 3.39636 1.19664 0
M  V30 10426 C 975.058 4.49651 0.115805 0
M  V30 10427 C 976.377 3.86488 2.10512 0
M  V30 10428 H 973.496 0.703262 0.220436 0
M  V30 10429 H 976.138 1.89583 -0.125785 0
M  V30 10430 H 974.288 3.43015 1.82409 0
M  V30 10431 H 975.96 4.58397 -0.516728 0
M  V30 10432 H 974.203 4.30237 -0.55483 0
M  V30 10433 H 974.874 5.49089 0.566176 0
M  V30 10434 H 977.35 3.85052 1.57715 0
M  V30 10435 H 976.226 4.89444 2.48466 0
M  V30 10436 H 976.487 3.23856 3.00948 0
M  V30 10437 N 975.546 -0.211634 1.56173 0
M  V30 10438 C 976.957 -0.777776 1.69728 0
M  V30 10439 C 977.308 -1.84566 0.66558 0
M  V30 10440 O 976.433 -2.15639 -0.181338 0
M  V30 10441 C 977.028 -1.41757 3.07718 0
M  V30 10442 C 975.587 -1.93098 3.23094 0
M  V30 10443 C 974.734 -0.794785 2.65666 0
M  V30 10444 H 977.685 0.0131839 1.58695 0
M  V30 10445 H 977.706 -2.28662 3.04128 0
M  V30 10446 H 977.218 -0.640114 3.82785 0
M  V30 10447 H 975.319 -2.73615 2.52914 0
M  V30 10448 H 975.432 -2.10414 4.30422 0
M  V30 10449 H 973.796 -1.20473 2.24407 0
M  V30 10450 H 974.579 -0.0298408 3.43287 0
M  V30 10451 N 977.024 -1.50153 -0.478725 0
M  V30 10452 C 978.271 -1.6076 -1.23136 0
M  V30 10453 C 978.599 -0.30442 -1.92103 0
M  V30 10454 O 977.854 0.709213 -1.82397 0
M  V30 10455 C 978.153 -2.73208 -2.30417 0
M  V30 10456 C 977.819 -4.13953 -1.78755 0
M  V30 10457 C 976.481 -4.52251 -1.64386 0
M  V30 10458 C 978.833 -5.01949 -1.40344 0
M  V30 10459 C 976.161 -5.76292 -1.10018 0
M  V30 10460 C 978.513 -6.2653 -0.874206 0
M  V30 10461 C 977.177 -6.63637 -0.717085 0
M  V30 10462 H 976.447 -0.588264 -0.450585 0
M  V30 10463 H 979.094 -1.84061 -0.528551 0
M  V30 10464 H 977.399 -2.43965 -3.06575 0
M  V30 10465 H 979.096 -2.7862 -2.88395 0
M  V30 10466 H 975.686 -3.83736 -1.90904 0
M  V30 10467 H 979.87 -4.73 -1.50283 0
M  V30 10468 H 975.126 -6.03723 -0.965838 0
M  V30 10469 H 979.3 -6.94081 -0.567883 0
M  V30 10470 H 976.927 -7.59633 -0.293639 0
M  V30 10471 N 978.502 0.731368 -1.39602 0
M  V30 10472 C 979.45 1.86676 -1.38761 0
M  V30 10473 C 980.444 1.6723 -0.270247 0
M  V30 10474 O 981.65 1.74528 -0.440471 0
M  V30 10475 H 978.025 0.614553 -0.433391 0
M  V30 10476 H 979.996 1.84501 -2.34525 0
M  V30 10477 C 978.745 3.24394 -1.25155 0
M  V30 10478 H 978.068 3.39955 -2.10406 0
M  V30 10479 H 979.508 4.04019 -1.28625 0
M  V30 10480 C 977.967 3.36877 0.0396976 0
M  V30 10481 O 978.497 3.88833 1.00854 0
M  V30 10482 N 976.703 2.90414 0.103965 0
M  V30 10483 H 976.25 2.48321 -0.685155 0
M  V30 10484 H 976.208 2.99146 0.967435 0
M  V30 10485 N 979.98 1.24838 0.961938 0
M  V30 10486 C 981.22 1.10348 1.72054 0
M  V30 10487 C 981.584 -0.350775 1.88769 0
M  V30 10488 O 982.785 -0.617323 2.61615 0
M  V30 10489 C 981.056 1.82916 3.07045 0
M  V30 10490 S 982.615 1.84227 3.98253 0
M  V30 10491 H 979.433 0.394552 0.591481 0
M  V30 10492 H 982.035 1.58254 1.14786 0
M  V30 10493 H 980.739 2.87829 2.92545 0
M  V30 10494 H 980.27 1.35366 3.69377 0
M  V30 10495 H 982.285 0.914073 4.87708 0
M  V30 10496 N 981.458 -1.16348 1.06306 0
M  V30 10497 C 982.869 -1.68491 0.80422 0
M  V30 10498 C 983.22 -1.84327 -0.672159 0
M  V30 10499 O 982.345 -1.53892 -1.52139 0
M  V30 10500 C 982.94 -3.06048 1.45328 0
M  V30 10501 C 981.499 -3.55311 1.24221 0
M  V30 10502 C 980.646 -2.31291 1.5297 0
M  V30 10503 H 983.597 -1.00708 1.22652 0
M  V30 10504 H 983.618 -3.70451 0.868674 0
M  V30 10505 H 983.13 -2.9449 2.52779 0
M  V30 10506 H 981.231 -3.72128 0.187447 0
M  V30 10507 H 981.344 -4.37397 1.95502 0
M  V30 10508 H 979.708 -2.3631 0.950241 0
M  V30 10509 H 980.491 -2.22331 2.6158 0
M  V30 10510 N 982.937 -0.845659 -1.3299 0
M  V30 10511 C 983.869 -0.241097 -2.27928 0
M  V30 10512 C 984.882 0.582048 -1.5204 0
M  V30 10513 O 986.071 0.408008 -1.73774 0
M  V30 10514 C 983.171 0.678652 -3.32035 0
M  V30 10515 C 982.344 -0.106652 -4.3727 0
M  V30 10516 C 981.403 0.737478 -5.21006 0
M  V30 10517 O 980.429 0.174231 -5.68933 0
M  V30 10518 N 981.631 2.05372 -5.42957 0
M  V30 10519 H 984.396 -1.05685 -2.80448 0
M  V30 10520 H 981.957 -0.704771 -1.45755 0
M  V30 10521 H 983.949 1.24849 -3.84961 0
M  V30 10522 H 982.519 1.3951 -2.79742 0
M  V30 10523 H 981.739 -0.857897 -3.84752 0
M  V30 10524 H 983.027 -0.646386 -5.04677 0
M  V30 10525 H 982.425 2.53478 -5.05733 0
M  V30 10526 H 980.982 2.5719 -5.98913 0
M  V30 10527 N 984.415 1.45619 -0.602734 0
M  V30 10528 C 985.347 2.28662 0.157012 0
M  V30 10529 C 986.36 1.39672 0.836396 0
M  V30 10530 O 987.549 1.64091 0.702599 0
M  V30 10531 C 984.649 3.1528 1.24306 0
M  V30 10532 C 983.822 4.32517 0.651731 0
M  V30 10533 C 982.881 5.00381 1.62804 0
M  V30 10534 O 981.907 5.57333 1.15624 0
M  V30 10535 N 983.109 4.99221 2.96241 0
M  V30 10536 H 985.874 2.94506 -0.555535 0
M  V30 10537 H 983.435 1.55753 -0.441881 0
M  V30 10538 H 985.427 3.57544 1.8959 0
M  V30 10539 H 983.997 2.51376 1.85819 0
M  V30 10540 H 983.217 3.93793 -0.17907 0
M  V30 10541 H 984.505 5.08249 0.236802 0
M  V30 10542 H 983.903 4.54232 3.37179 0
M  V30 10543 H 982.46 5.45364 3.56961 0
M  V30 10544 N 985.893 0.34162 1.53853 0
M  V30 10545 C 987.17 -0.310664 1.93117 0
M  V30 10546 C 987.55 -1.68398 1.273 0
M  V30 10547 O 986.898 -2.24546 0.423225 0
M  V30 10548 C 987.108 -0.384867 3.46871 0
M  V30 10549 C 988.456 -0.636621 4.198 0
M  V30 10550 O 989.48 -0.467061 3.53125 0
M  V30 10551 O 988.339 -0.964962 5.37913 0
M  V30 10552 H 985.433 -0.180881 0.806977 0
M  V30 10553 H 987.979 0.392656 1.65095 0
M  V30 10554 H 986.751 0.57894 3.86994 0
M  V30 10555 H 986.374 -1.13505 3.81054 0
M  V30 10556 N 987.371 -1.57444 0.0701946 0
M  V30 10557 C 988.782 -1.80875 -0.462709 0
M  V30 10558 C 989.133 -0.983975 -1.69742 0
M  V30 10559 O 988.258 -0.206027 -2.15417 0
M  V30 10560 C 988.853 -3.28062 -0.84623 0
M  V30 10561 C 987.412 -3.52345 -1.32401 0
M  V30 10562 C 986.559 -2.7558 -0.308399 0
M  V30 10563 H 989.51 -1.55917 0.295907 0
M  V30 10564 H 989.531 -3.40023 -1.70776 0
M  V30 10565 H 989.043 -3.88064 0.0526033 0
M  V30 10566 H 987.144 -2.97645 -2.24139 0
M  V30 10567 H 987.257 -4.6104 -1.30304 0
M  V30 10568 H 985.621 -2.4229 -0.785337 0
M  V30 10569 H 986.404 -3.38319 0.582679 0
M  V30 10570 N 988.849 0.203349 -1.56283 0
M  V30 10571 C 989.781 1.27592 -1.90402 0
M  V30 10572 C 990.794 1.4213 -0.79391 0
M  V30 10573 O 991.983 1.42703 -1.07229 0
M  V30 10574 C 989.083 2.64919 -2.11356 0
M  V30 10575 C 988.256 2.72095 -3.42466 0
M  V30 10576 C 987.315 3.9056 -3.52631 0
M  V30 10577 O 986.341 3.78048 -4.25521 0
M  V30 10578 N 987.543 5.0566 -2.85111 0
M  V30 10579 H 990.308 0.986423 -2.83001 0
M  V30 10580 H 987.869 0.39331 -1.5705 0
M  V30 10581 H 989.861 3.42581 -2.15453 0
M  V30 10582 H 988.431 2.86391 -1.25295 0
M  V30 10583 H 987.651 1.8077 -3.50308 0
M  V30 10584 H 988.939 2.73874 -4.28801 0
M  V30 10585 H 988.337 5.18723 -2.25705 0
M  V30 10586 H 986.894 5.81299 -2.94847 0
M  V30 10587 N 990.327 1.50405 0.470755 0
M  V30 10588 C 991.259 1.65447 1.58619 0
M  V30 10589 C 992.272 0.535949 1.53725 0
M  V30 10590 O 993.461 0.80914 1.59107 0
M  V30 10591 C 990.561 1.62318 2.975 0
M  V30 10592 C 989.734 2.90207 3.27259 0
M  V30 10593 C 988.793 2.79717 4.45696 0
M  V30 10594 O 987.819 3.53672 4.45987 0
M  V30 10595 N 989.021 1.93296 5.47373 0
M  V30 10596 H 991.786 2.61659 1.46132 0
M  V30 10597 H 989.347 1.47873 0.659178 0
M  V30 10598 H 991.339 1.52912 3.747 0
M  V30 10599 H 989.909 0.738392 3.03754 0
M  V30 10600 H 989.129 3.13737 2.38669 0
M  V30 10601 H 990.417 3.74931 3.43953 0
M  V30 10602 H 989.815 1.32524 5.49958 0
M  V30 10603 H 988.372 1.89793 6.23556 0
M  V30 10604 N 991.805 -0.723954 1.39988 0
M  V30 10605 C 993.035 -1.51094 1.40905 0
M  V30 10606 C 993.443 -1.89199 0.00476744 0
M  V30 10607 O 992.786 -1.55398 -0.979646 0
M  V30 10608 C 992.848 -2.82114 2.22827 0
M  V30 10609 C 992.512 -2.66379 3.71337 0
M  V30 10610 C 993.509 -2.34192 4.64166 0
M  V30 10611 C 991.194 -2.82905 4.15054 0
M  V30 10612 C 993.188 -2.18729 5.98696 0
M  V30 10613 C 990.875 -2.67059 5.49657 0
M  V30 10614 C 991.873 -2.35018 6.41292 0
M  V30 10615 O 991.561 -2.19284 7.73414 0
M  V30 10616 H 991.293 -0.473142 0.482818 0
M  V30 10617 H 993.847 -0.901321 1.84568 0
M  V30 10618 H 992.077 -3.45377 1.7393 0
M  V30 10619 H 993.766 -3.43789 2.15787 0
M  V30 10620 H 994.532 -2.21065 4.31689 0
M  V30 10621 H 990.411 -3.06834 3.44055 0
M  V30 10622 H 993.955 -1.93641 6.70186 0
M  V30 10623 H 989.852 -2.79768 5.81722 0
M  V30 10624 H 990.62 -2.34269 7.84258 0
M  V30 10625 N 993.283 -1.25346 -0.955304 0
M  V30 10626 C 994.231 -1.05461 -2.07318 0
M  V30 10627 C 995.225 0.0142699 -1.69394 0
M  V30 10628 O 996.431 -0.141292 -1.79445 0
M  V30 10629 H 992.806 -0.324095 -0.678577 0
M  V30 10630 H 994.777 -2.00231 -2.21247 0
M  V30 10631 C 993.526 -0.689329 -3.40798 0
M  V30 10632 H 992.849 -1.50362 -3.70447 0
M  V30 10633 H 994.289 -0.589883 -4.19877 0
M  V30 10634 C 992.748 0.604556 -3.31431 0
M  V30 10635 O 993.278 1.64686 -3.6639 0
M  V30 10636 N 991.484 0.589927 -2.84549 0
M  V30 10637 H 991.031 -0.258647 -2.56298 0
M  V30 10638 H 990.989 1.4558 -2.78664 0
M  V30 10639 N 994.761 1.15782 -1.06922 0
M  V30 10640 C 996.007 1.86741 -0.790922 0
M  V30 10641 C 996.34 1.81863 0.681149 0
M  V30 10642 O 995.615 1.23871 1.49954 0
M  V30 10643 C 995.898 3.36038 -1.29422 0
M  V30 10644 C 995.751 3.49573 -2.83052 0
M  V30 10645 C 997.07 4.30647 -0.907239 0
M  V30 10646 H 994.189 0.678064 -0.288787 0
M  V30 10647 H 996.831 1.36054 -1.32624 0
M  V30 10648 H 994.981 3.79336 -0.838843 0
M  V30 10649 H 996.653 3.1517 -3.36847 0
M  V30 10650 H 994.896 2.91275 -3.21467 0
M  V30 10651 H 995.567 4.5445 -3.13335 0
M  V30 10652 H 998.043 3.95286 -1.29956 0
M  V30 10653 H 996.919 5.33604 -1.28679 0
M  V30 10654 H 997.18 4.41703 0.187251 0
M  V30 10655 N 996.239 0.8527 1.3254 0
M  V30 10656 C 997.486 0.455123 1.97319 0
M  V30 10657 C 997.814 -0.988814 1.67489 0
M  V30 10658 O 997.069 -1.70845 0.954483 0
M  V30 10659 C 997.368 0.638757 3.51646 0
M  V30 10660 C 997.034 2.05287 4.01458 0
M  V30 10661 C 995.696 2.43963 4.14771 0
M  V30 10662 C 998.048 2.9759 4.27889 0
M  V30 10663 C 995.376 3.7422 4.51859 0
M  V30 10664 C 997.728 4.27343 4.66434 0
M  V30 10665 C 996.392 4.65957 4.77954 0
M  V30 10666 H 995.662 0.166541 0.722042 0
M  V30 10667 H 998.309 1.08238 1.57977 0
M  V30 10668 H 996.614 -0.0717394 3.91734 0
M  V30 10669 H 998.311 0.311219 3.9979 0
M  V30 10670 H 994.901 1.74253 3.91579 0
M  V30 10671 H 999.085 2.68942 4.17114 0
M  V30 10672 H 994.341 4.03923 4.58973 0
M  V30 10673 H 998.515 4.9893 4.85841 0
M  V30 10674 H 996.142 5.66934 5.06449 0
M  V30 10675 N 997.718 -1.45297 0.610449 0
M  V30 10676 C 998.946 -2.0659 0.113211 0
M  V30 10677 C 999.361 -1.4546 -1.20361 0
M  V30 10678 O 998.718 -0.569823 -1.73376 0
M  V30 10679 C 998.769 -3.61488 -0.0298411 0
M  V30 10680 O 998.49 -4.20336 1.23488 0
M  V30 10681 C 999.991 -4.39772 -0.558202 0
M  V30 10682 H 997.211 -0.667322 0.0701555 0
M  V30 10683 H 999.755 -1.86497 0.838993 0
M  V30 10684 H 997.91 -3.80913 -0.705963 0
M  V30 10685 H 998.324 -5.13545 1.0664 0
M  V30 10686 H 999.798 -5.48648 -0.607375 0
M  V30 10687 H 1000.27 -4.09755 -1.58107 0
M  V30 10688 H 1000.88 -4.25217 0.0839704 0
M  V30 10689 N 999.196 -0.349774 -1.5367 0
M  V30 10690 C 1000.47 0.300419 -1.93279 0
M  V30 10691 C 1000.85 1.67721 -1.28191 0
M  V30 10692 O 1000.2 2.24319 -0.435127 0
M  V30 10693 C 1000.41 0.366466 -3.47071 0
M  V30 10694 C 1001.76 0.614349 -4.20132 0
M  V30 10695 O 1002.78 0.448327 -3.53367 0
M  V30 10696 O 1001.64 0.936421 -5.38417 0
M  V30 10697 H 998.736 0.176599 -0.807924 0
M  V30 10698 H 1001.28 -0.401405 -1.64884 0
M  V30 10699 H 1000.05 -0.599455 -3.86681 0
M  V30 10700 H 999.677 1.11482 -3.81651 0
M  V30 10701 N 1000.67 1.57404 -0.0785433 0
M  V30 10702 C 1001.6 2.16131 0.883726 0
M  V30 10703 C 1002.58 1.09015 1.30575 0
M  V30 10704 O 1003.77 1.3708 1.37559 0
M  V30 10705 C 1000.9 2.72836 2.1489 0
M  V30 10706 C 999.854 3.85178 1.86605 0
M  V30 10707 C 999.18 4.28516 3.1981 0
M  V30 10708 C 1000.48 5.09118 1.16601 0
M  V30 10709 H 1002.17 2.9679 0.394484 0
M  V30 10710 H 999.72 1.42763 0.188304 0
M  V30 10711 H 1001.67 3.12567 2.8263 0
M  V30 10712 H 1000.4 1.89408 2.66068 0
M  V30 10713 H 999.056 3.45962 1.21268 0
M  V30 10714 H 998.704 3.42 3.68843 0
M  V30 10715 H 998.404 5.04249 3.01674 0
M  V30 10716 H 999.928 4.70868 3.88737 0
M  V30 10717 H 1001.34 5.46123 1.74422 0
M  V30 10718 H 999.739 5.90173 1.087 0
M  V30 10719 H 1000.81 4.8468 0.146138 0
M  V30 10720 N 1002.15 -0.195058 1.56388 0
M  V30 10721 C 1003.1 -1.24584 1.90952 0
M  V30 10722 C 1004.09 -1.40993 0.77522 0
M  V30 10723 O 1005.28 -1.43363 1.03808 0
M  V30 10724 C 1002.41 -2.59064 2.25258 0
M  V30 10725 C 1001.49 -2.46447 3.45145 0
M  V30 10726 N 1001.88 -2.0351 4.63052 0
M  V30 10727 C 1000.18 -2.77339 3.49283 0
M  V30 10728 C 1000.88 -2.02785 5.45209 0
M  V30 10729 N 999.859 -2.4429 4.85616 0
M  V30 10730 H 1003.66 -0.9052 2.79613 0
M  V30 10731 H 1001.17 -0.403493 1.57308 0
M  V30 10732 H 1003.17 -3.34963 2.48205 0
M  V30 10733 H 1001.83 -2.93951 1.37924 0
M  V30 10734 H 1002.84 -1.74219 4.87717 0
M  V30 10735 H 999.52 -3.16423 2.72365 0
M  V30 10736 H 1000.91 -1.71489 6.49647 0
M  V30 10737 N 1003.63 -1.50653 -0.462772 0
M  V30 10738 C 1004.88 -1.61737 -1.21184 0
M  V30 10739 C 1005.2 -0.32369 -1.92295 0
M  V30 10740 O 1004.47 0.659269 -1.84473 0
M  V30 10741 H 1003.05 -0.596015 -0.450306 0
M  V30 10742 H 1005.71 -1.87469 -0.533051 0
M  V30 10743 H 1004.81 -2.43262 -1.95525 0
M  V30 10744 N 1005.11 0.71652 -1.4037 0
M  V30 10745 C 1006.36 1.47193 -1.37903 0
M  V30 10746 C 1006.67 1.95593 0.0159939 0
M  V30 10747 O 1007.88 2.71009 0.163282 0
M  V30 10748 C 1006.33 2.6606 -2.42363 0
M  V30 10749 C 1005.94 2.24533 -3.87671 0
M  V30 10750 C 1007.68 3.438 -2.49001 0
M  V30 10751 C 1005.59 3.40234 -4.8373 0
M  V30 10752 H 1004.52 0.552811 -0.512753 0
M  V30 10753 H 1007.17 0.779894 -1.66102 0
M  V30 10754 H 1005.55 3.37429 -2.07262 0
M  V30 10755 H 1006.73 1.6059 -4.31911 0
M  V30 10756 H 1005.04 1.59839 -3.845 0
M  V30 10757 H 1007.64 4.29893 -3.17956 0
M  V30 10758 H 1007.98 3.8755 -1.52023 0
M  V30 10759 H 1008.52 2.79474 -2.83088 0
M  V30 10760 H 1005.26 3.01517 -5.82037 0
M  V30 10761 H 1004.78 4.03095 -4.44156 0
M  V30 10762 H 1006.45 4.06312 -5.03507 0
M  V30 10763 N 1006.59 1.25851 0.948643 0
M  V30 10764 C 1007.81 1.13813 1.73382 0
M  V30 10765 C 1008.24 -0.303615 1.85633 0
M  V30 10766 O 1007.59 -1.21997 1.34114 0
M  V30 10767 C 1007.64 1.80388 3.12238 0
M  V30 10768 O 1006.75 1.08759 3.978 0
M  V30 10769 H 1006.09 0.397006 0.532243 0
M  V30 10770 H 1008.62 1.66529 1.18866 0
M  V30 10771 H 1008.63 1.86913 3.62667 0
M  V30 10772 H 1007.3 2.85278 3.02637 0
M  V30 10773 H 1005.88 1.10157 3.56258 0
M  V30 10774 N 1008.06 -1.15214 1.07534 0
M  V30 10775 C 1009 -2.19634 0.655261 0
M  V30 10776 C 1010.01 -1.60139 -0.293165 0
M  V30 10777 O 1011.2 -1.78311 -0.0821957 0
M  V30 10778 C 1008.3 -3.38851 -0.0578281 0
M  V30 10779 C 1007.47 -4.27888 0.90725 0
M  V30 10780 C 1006.53 -5.25692 0.231115 0
M  V30 10781 O 1005.56 -5.62469 0.872746 0
M  V30 10782 N 1006.76 -5.71424 -1.0225 0
M  V30 10783 H 1009.52 -2.56292 1.55353 0
M  V30 10784 H 1007.08 -1.30347 0.960271 0
M  V30 10785 H 1009.08 -4.01334 -0.520874 0
M  V30 10786 H 1007.65 -3.00593 -0.858071 0
M  V30 10787 H 1006.87 -3.62475 1.54937 0
M  V30 10788 H 1008.15 -4.84246 1.56151 0
M  V30 10789 H 1007.55 -5.43659 -1.56369 0
M  V30 10790 H 1006.11 -6.35938 -1.42919 0
M  V30 10791 N 1009.54 -0.859717 -1.32086 0
M  V30 10792 C 1010.45 -0.31108 -2.32528 0
M  V30 10793 C 1011.47 0.573714 -1.6427 0
M  V30 10794 O 1012.64 0.472878 -1.9577 0
M  V30 10795 C 1009.71 0.487256 -3.43259 0
M  V30 10796 C 1008.77 -0.424279 -4.27198 0
M  V30 10797 C 1008 0.336051 -5.32641 0
M  V30 10798 O 1008.23 1.56541 -5.48499 0
M  V30 10799 O 1007.16 -0.300777 -6.01148 0
M  V30 10800 H 1010.99 -1.14336 -2.81355 0
M  V30 10801 H 1008.57 -0.622794 -1.358 0
M  V30 10802 H 1010.45 0.940203 -4.10777 0
M  V30 10803 H 1009.13 1.29626 -2.96612 0
M  V30 10804 H 1008.04 -0.925509 -3.62471 0
M  V30 10805 H 1009.37 -1.1986 -4.77383 0
M  V30 10806 N 1011.02 1.44971 -0.618145 0
M  V30 10807 C 1012.27 2.02159 -0.117482 0
M  V30 10808 C 1012.6 1.48517 1.2559 0
M  V30 10809 O 1011.85 0.654192 1.84442 0
M  V30 10810 C 1012.15 3.57378 -0.0394861 0
M  V30 10811 C 1011.82 4.30218 -1.34993 0
M  V30 10812 C 1010.48 4.49835 -1.70886 0
M  V30 10813 C 1012.83 4.71768 -2.21551 0
M  V30 10814 C 1010.16 5.08258 -2.9307 0
M  V30 10815 C 1012.51 5.31543 -3.42993 0
M  V30 10816 C 1011.17 5.49381 -3.79126 0
M  V30 10817 H 1010.44 0.739752 -0.0429897 0
M  V30 10818 H 1013.09 1.73903 -0.801871 0
M  V30 10819 H 1011.4 3.84973 0.728217 0
M  V30 10820 H 1013.09 3.99343 0.364213 0
M  V30 10821 H 1009.68 4.15271 -1.06057 0
M  V30 10822 H 1013.87 4.56336 -1.95117 0
M  V30 10823 H 1009.12 5.20257 -3.21158 0
M  V30 10824 H 1013.3 5.62691 -4.10308 0
M  V30 10825 H 1010.92 5.94419 -4.73888 0
M  V30 10826 N 1012.5 0.357919 1.53482 0
M  V30 10827 C 1013.91 -0.122938 1.86295 0
M  V30 10828 C 1014.26 -1.48803 1.27875 0
M  V30 10829 O 1013.39 -2.07978 0.597828 0
M  V30 10830 C 1013.98 -0.229853 3.38019 0
M  V30 10831 C 1012.54 -0.654955 3.70658 0
M  V30 10832 C 1011.69 0.202539 2.76559 0
M  V30 10833 H 1014.64 0.576997 1.47839 0
M  V30 10834 H 1014.66 -1.05481 3.65587 0
M  V30 10835 H 1014.17 0.763825 3.80509 0
M  V30 10836 H 1012.27 -1.65714 3.33721 0
M  V30 10837 H 1012.38 -0.43488 4.77122 0
M  V30 10838 H 1010.75 -0.327388 2.52587 0
M  V30 10839 H 1011.53 1.19361 3.21882 0
M  V30 10840 N 1013.98 -1.5736 0.0868897 0
M  V30 10841 C 1015.21 -1.981 -0.586498 0
M  V30 10842 C 1015.61 -0.96455 -1.62767 0
M  V30 10843 O 1014.96 0.0551801 -1.83617 0
M  V30 10844 C 1015.02 -3.35193 -1.29947 0
M  V30 10845 C 1014.68 -4.55157 -0.410012 0
M  V30 10846 C 1015.68 -5.18797 0.338532 0
M  V30 10847 C 1013.37 -5.01212 -0.33047 0
M  V30 10848 C 1015.36 -6.26854 1.15468 0
M  V30 10849 C 1013.05 -6.09138 0.48934 0
M  V30 10850 C 1014.04 -6.71823 1.23057 0
M  V30 10851 O 1013.73 -7.77669 2.03683 0
M  V30 10852 H 1013.46 -0.656166 -0.16255 0
M  V30 10853 H 1016.02 -2.04773 0.160379 0
M  V30 10854 H 1014.25 -3.25179 -2.09274 0
M  V30 10855 H 1015.94 -3.60435 -1.86658 0
M  V30 10856 H 1016.7 -4.84151 0.286764 0
M  V30 10857 H 1012.58 -4.52188 -0.897058 0
M  V30 10858 H 1016.13 -6.75712 1.73374 0
M  V30 10859 H 1012.02 -6.43215 0.542618 0
M  V30 10860 H 1012.79 -7.94618 1.96277 0
M  V30 10861 N 1015.45 0.186762 -1.56489 0
M  V30 10862 C 1016.4 1.23141 -1.95205 0
M  V30 10863 C 1017.37 1.44799 -0.81378 0
M  V30 10864 O 1018.56 1.57795 -1.07263 0
M  V30 10865 C 1015.7 2.56926 -2.30397 0
M  V30 10866 C 1014.81 2.42777 -3.57328 0
M  V30 10867 C 1013.94 3.69323 -3.81804 0
M  V30 10868 C 1012.98 3.50041 -5.02133 0
M  V30 10869 N 1012.12 4.68619 -5.2282 0
M  V30 10870 H 1016.96 0.894256 -2.84266 0
M  V30 10871 H 1014.5 0.430187 -1.40669 0
M  V30 10872 H 1016.46 3.3488 -2.4882 0
M  V30 10873 H 1015.09 2.88668 -1.44466 0
M  V30 10874 H 1014.14 1.56078 -3.46906 0
M  V30 10875 H 1015.45 2.24468 -4.45439 0
M  V30 10876 H 1014.6 4.55715 -4.00511 0
M  V30 10877 H 1013.34 3.90595 -2.92039 0
M  V30 10878 H 1012.35 2.62034 -4.8334 0
M  V30 10879 H 1013.57 3.30206 -5.93414 0
M  V30 10880 H 1011.52 4.90139 -4.36005 0
M  V30 10881 H 1011.44 4.53165 -6.05126 0
M  V30 10882 H 1012.7 5.56338 -5.45993 0
M  V30 10883 N 1016.93 1.50896 0.454776 0
M  V30 10884 C 1018.16 1.66759 1.23313 0
M  V30 10885 C 1018.58 0.35722 1.84677 0
M  V30 10886 O 1017.94 -0.680771 1.68033 0
M  V30 10887 C 1017.99 2.77254 2.3057 0
M  V30 10888 O 1017.09 2.39642 3.35627 0
M  V30 10889 H 1016.43 0.556599 0.362068 0
M  V30 10890 H 1018.96 1.97365 0.539274 0
M  V30 10891 H 1018.97 3.0082 2.75629 0
M  V30 10892 H 1017.65 3.72349 1.85281 0
M  V30 10893 H 1016.23 2.26584 2.96165 0
M  V30 10894 N 1018.41 -0.709066 1.40748 0
M  V30 10895 C 1019.32 -1.85314 1.43861 0
M  V30 10896 C 1020.34 -1.70832 0.330539 0
M  V30 10897 O 1021.51 -1.92983 0.576152 0
M  V30 10898 C 1018.58 -3.21174 1.30568 0
M  V30 10899 C 1017.64 -3.47863 2.51574 0
M  V30 10900 C 1016.87 -4.77241 2.38906 0
M  V30 10901 O 1017.09 -5.52791 1.40636 0
M  V30 10902 O 1016.03 -5.04413 3.28407 0
M  V30 10903 H 1019.85 -1.85644 2.40354 0
M  V30 10904 H 1017.44 -0.860352 1.2214 0
M  V30 10905 H 1019.32 -4.02313 1.25388 0
M  V30 10906 H 1018 -3.21557 0.371841 0
M  V30 10907 H 1016.9 -2.66708 2.62331 0
M  V30 10908 H 1018.24 -3.52283 3.43741 0
M  V30 10909 N 1019.89 -1.26353 -0.941956 0
M  V30 10910 C 1020.82 -1.02163 -2.04054 0
M  V30 10911 C 1021.8 0.0533514 -1.62512 0
M  V30 10912 O 1022.98 -0.0889063 -1.8829 0
M  V30 10913 C 1020.11 -0.546908 -3.34255 0
M  V30 10914 C 1019.16 -1.61433 -3.94768 0
M  V30 10915 S 1019.99 -3.20306 -4.29144 0
M  V30 10916 C 1021.15 -2.746 -5.62446 0
M  V30 10917 H 1021.38 -1.9518 -2.24259 0
M  V30 10918 H 1018.91 -1.10024 -1.08324 0
M  V30 10919 H 1020.87 -0.279673 -4.09546 0
M  V30 10920 H 1019.53 0.36297 -3.11996 0
M  V30 10921 H 1018.72 -1.23315 -4.88681 0
M  V30 10922 H 1018.33 -1.8329 -3.26007 0
M  V30 10923 H 1020.62 -2.19015 -6.41123 0
M  V30 10924 H 1021.56 -3.67202 -6.05449 0
M  V30 10925 H 1021.97 -2.1419 -5.22286 0
M  V30 10926 N 1021.37 1.14642 -1.08144 0
M  V30 10927 C 1022.64 1.81774 -0.72232 0
M  V30 10928 C 1023.02 1.95587 0.794294 0
M  V30 10929 O 1022.37 1.51361 1.71178 0
M  V30 10930 C 1022.58 3.1763 -1.44611 0
M  V30 10931 C 1023.93 3.93161 -1.60343 0
M  V30 10932 O 1024.95 3.2721 -1.40755 0
M  V30 10933 O 1023.81 5.11422 -1.9264 0
M  V30 10934 H 1020.91 0.785733 -0.257978 0
M  V30 10935 H 1023.45 1.21683 -1.18285 0
M  V30 10936 H 1022.23 3.02723 -2.4794 0
M  V30 10937 H 1021.85 3.85412 -0.976892 0
M  V30 10938 N 1022.85 0.866709 1.31628 0
M  V30 10939 C 1024.07 0.48956 2.01539 0
M  V30 10940 C 1024.5 -0.909556 1.64647 0
M  V30 10941 O 1023.85 -1.59959 0.853391 0
M  V30 10942 C 1023.9 0.650176 3.5469 0
M  V30 10943 O 1023.01 -0.311908 4.11219 0
M  V30 10944 H 1022.35 0.195144 0.634677 0
M  V30 10945 H 1024.88 1.16923 1.679 0
M  V30 10946 H 1024.89 0.542236 4.04381 0
M  V30 10947 H 1023.56 1.67038 3.80882 0
M  V30 10948 H 1022.14 -0.159197 3.7256 0
M  V30 10949 N 1024.32 -1.44642 0.625825 0
M  V30 10950 C 1025.26 -2.27821 -0.131481 0
M  V30 10951 C 1026.23 -1.38224 -0.856324 0
M  V30 10952 O 1027.42 -1.67662 -0.861493 0
M  V30 10953 C 1024.55 -3.1703 -1.19204 0
M  V30 10954 C 1023.59 -4.22697 -0.568315 0
M  V30 10955 S 1024.42 -5.3169 0.637612 0
M  V30 10956 C 1025.58 -6.24468 -0.423088 0
M  V30 10957 H 1025.81 -2.91703 0.574177 0
M  V30 10958 H 1023.35 -1.4875 0.413844 0
M  V30 10959 H 1025.3 -3.6898 -1.79901 0
M  V30 10960 H 1023.97 -2.52379 -1.86986 0
M  V30 10961 H 1023.16 -4.8511 -1.36689 0
M  V30 10962 H 1022.76 -3.73983 -0.0360843 0
M  V30 10963 H 1025.05 -6.64967 -1.29713 0
M  V30 10964 H 1026 -7.07907 0.165338 0
M  V30 10965 H 1026.4 -5.59541 -0.746606 0
M  V30 10966 N 1025.8 -0.366053 -1.5329 0
M  V30 10967 C 1027.21 0.113056 -1.86357 0
M  V30 10968 C 1027.56 1.48123 -1.28662 0
M  V30 10969 O 1026.69 2.07658 -0.608849 0
M  V30 10970 C 1027.28 0.211923 -3.38137 0
M  V30 10971 C 1025.84 0.635289 -3.71 0
M  V30 10972 C 1024.99 -0.217203 -2.76448 0
M  V30 10973 H 1027.94 -0.584829 -1.47531 0
M  V30 10974 H 1027.96 1.0354 -3.66142 0
M  V30 10975 H 1027.47 -0.783994 -3.80099 0
M  V30 10976 H 1025.57 1.63942 -3.34595 0
M  V30 10977 H 1025.69 0.409571 -4.77346 0
M  V30 10978 H 1024.05 0.313988 -2.52757 0
M  V30 10979 H 1024.83 -1.21067 -3.21244 0
M  V30 10980 N 1027.28 1.57312 -0.0952337 0
M  V30 10981 C 1028.51 1.98409 0.575984 0
M  V30 10982 C 1028.92 0.973168 1.62253 0
M  V30 10983 O 1028.26 -0.0454416 1.83644 0
M  V30 10984 C 1028.32 3.35877 1.28167 0
M  V30 10985 C 1027.99 4.55368 0.385868 0
M  V30 10986 C 1028.98 5.1861 -0.366041 0
M  V30 10987 C 1026.67 5.0138 0.303885 0
M  V30 10988 C 1028.66 6.26233 -1.18791 0
M  V30 10989 C 1026.35 6.0887 -0.521637 0
M  V30 10990 C 1027.35 6.71161 -1.26618 0
M  V30 10991 O 1027.04 7.76577 -2.07804 0
M  V30 10992 H 1026.77 0.657018 0.159068 0
M  V30 10993 H 1029.32 2.04685 -0.171237 0
M  V30 10994 H 1027.55 3.26284 2.07547 0
M  V30 10995 H 1029.24 3.6142 1.84744 0
M  V30 10996 H 1030.01 4.83993 -0.312435 0
M  V30 10997 H 1025.89 4.52657 0.873065 0
M  V30 10998 H 1029.43 6.74784 -1.76955 0
M  V30 10999 H 1025.33 6.42918 -0.576722 0
M  V30 11000 H 1026.09 7.93566 -2.00489 0
M  V30 11001 N 1028.76 -0.17846 1.56586 0
M  V30 11002 C 1029.99 -0.911996 1.85715 0
M  V30 11003 C 1030.4 -1.76138 0.679766 0
M  V30 11004 O 1029.76 -1.79088 -0.351266 0
M  V30 11005 C 1029.81 -1.79459 3.1381 0
M  V30 11006 O 1029.53 -0.979476 4.2701 0
M  V30 11007 C 1031.03 -2.6384 3.56235 0
M  V30 11008 H 1028.25 -0.265299 0.616326 0
M  V30 11009 H 1030.79 -0.180704 2.037 0
M  V30 11010 H 1028.95 -2.4793 2.97673 0
M  V30 11011 H 1029.36 -1.58244 5.00059 0
M  V30 11012 H 1030.84 -3.21396 4.48786 0
M  V30 11013 H 1031.31 -3.38363 2.80013 0
M  V30 11014 H 1031.92 -2.00712 3.7496 0
M  V30 11015 N 1030.24 -1.51135 -0.446768 0
M  V30 11016 C 1031.17 -1.67949 -1.55967 0
M  V30 11017 C 1032.18 -0.560337 -1.52853 0
M  V30 11018 O 1033.37 -0.83435 -1.578 0
M  V30 11019 C 1030.47 -1.6703 -2.9488 0
M  V30 11020 C 1029.64 -2.95377 -3.22601 0
M  V30 11021 C 1028.7 -2.86772 -4.4119 0
M  V30 11022 O 1027.73 -3.60722 -4.40304 0
M  V30 11023 N 1028.93 -2.01979 -5.44228 0
M  V30 11024 H 1031.69 -2.63951 -1.41951 0
M  V30 11025 H 1029.26 -1.48903 -0.635569 0
M  V30 11026 H 1031.25 -1.58854 -3.7222 0
M  V30 11027 H 1029.82 -0.786623 -3.02541 0
M  V30 11028 H 1029.04 -3.17494 -2.33647 0
M  V30 11029 H 1030.33 -3.80356 -3.37945 0
M  V30 11030 H 1029.72 -1.41257 -5.4778 0
M  V30 11031 H 1028.28 -1.99689 -6.20457 0
M  V30 11032 N 1031.71 0.701592 -1.41122 0
M  V30 11033 C 1032.66 1.83691 -1.4269 0
M  V30 11034 C 1033.66 1.6662 -0.305658 0
M  V30 11035 O 1034.86 1.73554 -0.477392 0
M  V30 11036 H 1031.24 0.605222 -0.44633 0
M  V30 11037 H 1033.21 1.79485 -2.38386 0
M  V30 11038 C 1031.96 3.21666 -1.32008 0
M  V30 11039 H 1031.28 3.35416 -2.17569 0
M  V30 11040 H 1032.72 4.012 -1.37165 0
M  V30 11041 C 1031.18 3.36885 -0.0317678 0
M  V30 11042 O 1031.71 3.90885 0.925836 0
M  V30 11043 N 1029.91 2.90569 0.0423401 0
M  V30 11044 H 1029.46 2.46812 -0.737673 0
M  V30 11045 H 1029.42 3.0113 0.903764 0
M  V30 11046 N 1033.19 1.2685 0.935242 0
M  V30 11047 C 1034.44 1.12745 1.68211 0
M  V30 11048 C 1034.77 -0.328128 1.91712 0
M  V30 11049 O 1034.02 -1.25701 1.49993 0
M  V30 11050 C 1034.32 1.8482 3.05903 0
M  V30 11051 C 1033.99 3.347 3.02137 0
M  V30 11052 C 1032.65 3.75583 3.00817 0
M  V30 11053 C 1035 4.30368 2.93995 0
M  V30 11054 C 1032.33 5.10511 2.89129 0
M  V30 11055 C 1034.68 5.65343 2.83848 0
M  V30 11056 C 1033.34 6.0553 2.80874 0
M  V30 11057 H 1032.61 0.412563 0.615527 0
M  V30 11058 H 1035.26 1.57366 1.09124 0
M  V30 11059 H 1033.57 1.32685 3.68649 0
M  V30 11060 H 1035.26 1.71341 3.62551 0
M  V30 11061 H 1031.85 3.02182 3.03947 0
M  V30 11062 H 1036.04 3.9976 2.94118 0
M  V30 11063 H 1031.29 5.40802 2.85208 0
M  V30 11064 H 1035.47 6.39151 2.76512 0
M  V30 11065 H 1033.09 7.10037 2.71573 0
M  V30 11066 N 1034.67 -1.14067 1.0875 0
M  V30 11067 C 1035.92 -1.84535 0.814235 0
M  V30 11068 C 1036.23 -1.84044 -0.662355 0
M  V30 11069 O 1037.44 -2.50336 -1.05091 0
M  V30 11070 C 1035.89 -3.31273 1.40663 0
M  V30 11071 C 1035.5 -3.40171 2.91526 0
M  V30 11072 C 1037.25 -4.0683 1.21201 0
M  V30 11073 C 1035.15 -4.81141 3.43885 0
M  V30 11074 H 1034.08 -0.691346 0.300926 0
M  V30 11075 H 1036.73 -1.28562 1.30935 0
M  V30 11076 H 1035.12 -3.87005 0.839215 0
M  V30 11077 H 1036.29 -2.94471 3.54434 0
M  V30 11078 H 1034.61 -2.78073 3.09942 0
M  V30 11079 H 1037.2 -5.10891 1.57781 0
M  V30 11080 H 1037.55 -4.16022 0.152092 0
M  V30 11081 H 1038.08 -3.57408 1.74655 0
M  V30 11082 H 1034.82 -4.77138 4.49466 0
M  V30 11083 H 1034.34 -5.27365 2.85738 0
M  V30 11084 H 1036.02 -5.50042 3.40681 0
M  V30 11085 N 1036.15 -0.873678 -1.31166 0
M  V30 11086 C 1037.37 -0.500242 -2.01277 0
M  V30 11087 C 1037.8 0.900811 -1.65127 0
M  V30 11088 O 1037.16 1.59504 -0.861862 0
M  V30 11089 C 1037.2 -0.668976 -3.5434 0
M  V30 11090 O 1036.31 0.290096 -4.11378 0
M  V30 11091 H 1035.65 -0.198507 -0.633633 0
M  V30 11092 H 1038.18 -1.17811 -1.67277 0
M  V30 11093 H 1038.19 -0.563673 -4.04088 0
M  V30 11094 H 1036.86 -1.69055 -3.79991 0
M  V30 11095 H 1035.44 0.139437 -3.72639 0
M  V30 11096 N 1037.63 1.44308 -0.633487 0
M  V30 11097 C 1038.87 2.03904 -0.14226 0
M  V30 11098 C 1039.23 1.48768 1.21376 0
M  V30 11099 O 1040.43 1.99882 1.79724 0
M  V30 11100 C 1038.7 3.5716 -0.130975 0
M  V30 11101 S 1040.26 4.37805 0.295287 0
M  V30 11102 H 1037.08 0.70827 -0.0622429 0
M  V30 11103 H 1039.68 1.76657 -0.837405 0
M  V30 11104 H 1038.39 3.94794 -1.12096 0
M  V30 11105 H 1037.92 3.89021 0.585342 0
M  V30 11106 H 1039.93 4.71732 1.53894 0
M  V30 11107 N 1039.1 0.374177 1.53094 0
M  V30 11108 C 1040.05 -0.48326 2.27524 0
M  V30 11109 C 1041.05 -1.07606 1.30833 0
M  V30 11110 O 1042.25 -1.01827 1.48429 0
M  V30 11111 H 1038.63 -0.174578 0.731455 0
M  V30 11112 H 1040.6 0.166156 2.97937 0
M  V30 11113 C 1039.35 -1.6065 3.08362 0
M  V30 11114 H 1038.67 -1.15966 3.82612 0
M  V30 11115 H 1040.11 -2.18099 3.63606 0
M  V30 11116 C 1038.57 -2.55381 2.19732 0
M  V30 11117 O 1039.1 -3.58414 1.8139 0
M  V30 11118 N 1037.31 -2.24769 1.84194 0
M  V30 11119 H 1036.85 -1.41018 2.15573 0
M  V30 11120 H 1036.81 -2.88404 1.25181 0
M  V30 11121 N 1040.58 -1.57259 0.103575 0
M  V30 11122 C 1041.51 -2.1153 -0.882472 0
M  V30 11123 C 1042.53 -1.05446 -1.24036 0
M  V30 11124 O 1043.72 -1.32867 -1.192 0
M  V30 11125 C 1040.82 -2.58717 -2.18903 0
M  V30 11126 C 1039.99 -3.8873 -2.00519 0
M  V30 11127 C 1039.05 -4.21675 -3.14764 0
M  V30 11128 O 1038.07 -4.90755 -2.88355 0
M  V30 11129 N 1039.28 -3.77757 -4.40772 0
M  V30 11130 H 1042.04 -2.96758 -0.418901 0
M  V30 11131 H 1039.6 -1.61696 -0.0812921 0
M  V30 11132 H 1041.59 -2.77797 -2.94297 0
M  V30 11133 H 1040.16 -1.78454 -2.56657 0
M  V30 11134 H 1039.38 -3.78714 -1.09406 0
M  V30 11135 H 1040.67 -4.73771 -1.85522 0
M  V30 11136 H 1040.07 -3.22011 -4.65108 0
M  V30 11137 H 1038.63 -4.01975 -5.13088 0
M  V30 11138 N 1042.06 0.170153 -1.56679 0
M  V30 11139 C 1043.47 0.732502 -1.7173 0
M  V30 11140 C 1043.82 1.82736 -0.71428 0
M  V30 11141 O 1042.95 2.16044 0.124102 0
M  V30 11142 C 1043.54 1.33548 -3.11368 0
M  V30 11143 C 1042.1 1.84464 -3.281 0
M  V30 11144 C 1041.25 0.724069 -2.6768 0
M  V30 11145 H 1044.2 -0.0552543 -1.58604 0
M  V30 11146 H 1044.22 2.20519 -3.10083 0
M  V30 11147 H 1043.73 0.5384 -3.84347 0
M  V30 11148 H 1041.83 2.66813 -2.6008 0
M  V30 11149 H 1041.95 1.98928 -4.35849 0
M  V30 11150 H 1040.31 1.14481 -2.27522 0
M  V30 11151 H 1041.09 -0.0611861 -3.43245 0
M  V30 11152 N 1043.54 1.5137 0.438746 0
M  V30 11153 C 1044.78 1.64211 1.19006 0
M  V30 11154 C 1045.12 0.356607 1.90898 0
M  V30 11155 O 1044.39 -0.643722 1.83539 0
M  V30 11156 C 1044.68 2.8445 2.20817 0
M  V30 11157 C 1044.53 4.22972 1.53018 0
M  V30 11158 C 1045.85 3.00207 3.21813 0
M  V30 11159 H 1042.97 0.597628 0.431288 0
M  V30 11160 H 1045.61 1.8385 0.479487 0
M  V30 11161 H 1043.76 2.67836 2.81418 0
M  V30 11162 H 1045.43 4.5125 0.957654 0
M  V30 11163 H 1043.67 4.25736 0.832556 0
M  V30 11164 H 1044.34 5.03094 2.27158 0
M  V30 11165 H 1046.82 3.15522 2.71266 0
M  V30 11166 H 1045.7 3.85904 3.90345 0
M  V30 11167 H 1045.96 2.12216 3.87836 0
M  V30 11168 N 1045.02 -0.694098 1.41492 0
M  V30 11169 C 1045.95 -1.82042 1.46229 0
M  V30 11170 C 1046.93 -1.67047 0.320803 0
M  V30 11171 O 1048.11 -1.86758 0.53245 0
M  V30 11172 C 1045.24 -3.2019 1.34519 0
M  V30 11173 C 1044.2 -3.49892 2.46495 0
M  V30 11174 C 1043.52 -4.87411 2.1985 0
M  V30 11175 C 1044.82 -3.4872 3.88834 0
M  V30 11176 H 1046.52 -1.78335 2.40493 0
M  V30 11177 H 1044.06 -0.856566 1.15754 0
M  V30 11178 H 1046.02 -3.98699 1.36445 0
M  V30 11179 H 1044.74 -3.24527 0.367406 0
M  V30 11180 H 1043.4 -2.73734 2.43854 0
M  V30 11181 H 1043.05 -4.88375 1.20411 0
M  V30 11182 H 1042.75 -5.08248 2.94885 0
M  V30 11183 H 1044.27 -5.68228 2.23494 0
M  V30 11184 H 1045.68 -4.1723 3.93182 0
M  V30 11185 H 1044.08 -3.81089 4.63564 0
M  V30 11186 H 1045.15 -2.47665 4.16881 0
M  V30 11187 N 1046.49 -1.27344 -0.928501 0
M  V30 11188 C 1047.91 -1.12361 -1.49103 0
M  V30 11189 C 1048.26 0.291667 -1.9402 0
M  V30 11190 O 1047.38 1.18449 -1.81104 0
M  V30 11191 C 1047.98 -2.03358 -2.70981 0
M  V30 11192 C 1046.54 -1.92483 -3.23461 0
M  V30 11193 C 1045.68 -1.95961 -1.962 0
M  V30 11194 H 1048.63 -1.40249 -0.742689 0
M  V30 11195 H 1048.65 -1.58892 -3.45736 0
M  V30 11196 H 1048.17 -3.06356 -2.38259 0
M  V30 11197 H 1046.27 -0.924676 -3.60944 0
M  V30 11198 H 1046.38 -2.78682 -3.89709 0
M  V30 11199 H 1044.74 -1.40175 -2.12657 0
M  V30 11200 H 1045.53 -3.00612 -1.65793 0
M  V30 11201 N 1047.97 1.13488 -1.09353 0
M  V30 11202 C 1048.9 2.18563 -0.69012 0
M  V30 11203 C 1049.92 1.60585 0.267651 0
M  V30 11204 O 1051.11 1.78419 0.0538176 0
M  V30 11205 C 1048.21 3.389 0.00391255 0
M  V30 11206 C 1047.38 4.2639 -0.975209 0
M  V30 11207 C 1046.44 5.25258 -0.314719 0
M  V30 11208 O 1045.46 5.6101 -0.962119 0
M  V30 11209 N 1046.67 5.72978 0.931458 0
M  V30 11210 H 1049.43 2.53788 -1.59411 0
M  V30 11211 H 1046.99 1.28803 -0.980886 0
M  V30 11212 H 1048.98 4.02112 0.45696 0
M  V30 11213 H 1047.55 3.0192 0.81014 0
M  V30 11214 H 1046.77 3.59964 -1.60684 0
M  V30 11215 H 1048.06 4.817 -1.63836 0
M  V30 11216 H 1047.46 5.46078 1.477 0
M  V30 11217 H 1046.02 6.38131 1.32784 0
M  V30 11218 N 1049.45 0.880621 1.30701 0
M  V30 11219 C 1050.4 0.315679 2.25804 0
M  V30 11220 C 1051.39 -0.553382 1.51084 0
M  V30 11221 O 1052.58 -0.398518 1.72455 0
M  V30 11222 C 1049.71 -0.472586 3.40032 0
M  V30 11223 C 1048.79 0.410318 4.2211 0
M  V30 11224 N 1049.18 1.50876 4.82773 0
M  V30 11225 C 1047.48 0.20465 4.4553 0
M  V30 11226 C 1048.18 2.05409 5.44226 0
M  V30 11227 N 1047.16 1.34964 5.26579 0
M  V30 11228 H 1050.96 1.15505 2.70251 0
M  V30 11229 H 1048.47 0.729547 1.45091 0
M  V30 11230 H 1050.47 -0.893918 4.07204 0
M  V30 11231 H 1049.13 -1.30945 2.97125 0
M  V30 11232 H 1050.14 1.89163 4.82118 0
M  V30 11233 H 1046.82 -0.595398 4.13233 0
M  V30 11234 H 1048.21 2.97627 6.02385 0
M  V30 11235 N 1050.93 -1.4397 0.641131 0
M  V30 11236 C 1052.15 -2.06818 0.155318 0
M  V30 11237 C 1052.58 -1.47665 -1.16519 0
M  V30 11238 O 1051.94 -0.58192 -1.71707 0
M  V30 11239 C 1051.99 -3.60542 0.0647537 0
M  V30 11240 O 1051.09 -4.00674 -0.976447 0
M  V30 11241 H 1050.43 -0.657962 0.0893404 0
M  V30 11242 H 1052.96 -1.84678 0.88064 0
M  V30 11243 H 1052.97 -4.07816 -0.122552 0
M  V30 11244 H 1051.65 -4.02975 1.02878 0
M  V30 11245 H 1050.22 -3.65013 -0.762905 0
M  V30 11246 N 1052.41 -0.382291 -1.52893 0
M  V30 11247 C 1053.35 0.456234 -2.26246 0
M  V30 11248 C 1054.32 1.06366 -1.27575 0
M  V30 11249 O 1055.51 1.09301 -1.5639 0
M  V30 11250 C 1052.65 1.5813 -3.06739 0
M  V30 11251 C 1051.76 0.997416 -4.20328 0
M  V30 11252 C 1050.9 2.09296 -4.8823 0
M  V30 11253 C 1049.94 1.4846 -5.93823 0
M  V30 11254 N 1049.07 2.51916 -6.55349 0
M  V30 11255 H 1053.91 -0.175761 -2.97481 0
M  V30 11256 H 1051.45 -0.0985046 -1.4677 0
M  V30 11257 H 1053.41 2.24426 -3.51694 0
M  V30 11258 H 1052.04 2.18371 -2.37727 0
M  V30 11259 H 1051.09 0.224251 -3.79738 0
M  V30 11260 H 1052.4 0.512784 -4.96157 0
M  V30 11261 H 1051.56 2.83377 -5.36453 0
M  V30 11262 H 1050.3 2.61116 -4.1191 0
M  V30 11263 H 1049.3 0.729001 -5.44946 0
M  V30 11264 H 1050.53 0.97443 -6.72073 0
M  V30 11265 H 1048.47 3.02919 -5.81873 0
M  V30 11266 H 1048.39 2.08188 -7.26769 0
M  V30 11267 H 1049.66 3.25649 -7.08218 0
M  V30 11268 N 1053.89 1.57202 -0.111913 0
M  V30 11269 C 1055.13 1.96834 0.550967 0
M  V30 11270 C 1055.49 0.993502 1.64297 0
M  V30 11271 O 1056.69 1.27894 2.36425 0
M  V30 11272 C 1054.96 3.40805 1.07641 0
M  V30 11273 S 1056.52 4.02445 1.74881 0
M  V30 11274 H 1053.34 0.688021 0.179298 0
M  V30 11275 H 1055.94 1.94522 -0.195312 0
M  V30 11276 H 1054.64 4.09508 0.270377 0
M  V30 11277 H 1054.18 3.46752 1.85814 0
M  V30 11278 H 1056.19 3.92623 3.03416 0
M  V30 11279 N 1055.36 -0.161842 1.56767 0
M  V30 11280 C 1056.59 -0.892247 1.86672 0
M  V30 11281 C 1057.01 -1.75407 0.69841 0
M  V30 11282 O 1056.36 -1.7945 -0.332251 0
M  V30 11283 C 1056.41 -1.7612 3.15696 0
M  V30 11284 O 1056.14 -0.934131 4.28025 0
M  V30 11285 C 1057.64 -2.60046 3.59014 0
M  V30 11286 H 1054.86 -0.258747 0.619105 0
M  V30 11287 H 1057.4 -0.159089 2.0388 0
M  V30 11288 H 1055.56 -2.44759 3.00286 0
M  V30 11289 H 1055.97 -1.52931 5.01709 0
M  V30 11290 H 1057.44 -3.16618 4.5217 0
M  V30 11291 H 1057.92 -3.35374 2.83586 0
M  V30 11292 H 1058.53 -1.96724 3.77067 0
M  V30 11293 N 1056.84 -1.516 -0.430713 0
M  V30 11294 C 1057.75 -1.76247 -1.54836 0
M  V30 11295 C 1058.77 -0.646985 -1.61524 0
M  V30 11296 O 1059.94 -0.929987 -1.78643 0
M  V30 11297 C 1057.01 -1.88833 -2.90763 0
M  V30 11298 C 1056.07 -3.12701 -2.94137 0
M  V30 11299 C 1055.3 -3.24676 -4.23581 0
M  V30 11300 O 1055.53 -2.42429 -5.16318 0
M  V30 11301 O 1054.46 -4.17697 -4.33374 0
M  V30 11302 H 1058.29 -2.71069 -1.3695 0
M  V30 11303 H 1055.87 -1.36182 -0.614396 0
M  V30 11304 H 1057.75 -1.99057 -3.71422 0
M  V30 11305 H 1056.43 -0.971987 -3.08762 0
M  V30 11306 H 1055.33 -3.0795 -2.1241 0
M  V30 11307 H 1056.67 -4.04045 -2.81084 0
M  V30 11308 N 1058.32 0.686584 -1.41858 0
M  V30 11309 C 1059.25 1.81264 -1.47193 0
M  V30 11310 C 1060.23 1.66875 -0.329657 0
M  V30 11311 O 1061.42 1.86473 -0.542347 0
M  V30 11312 C 1058.55 3.19472 -1.36216 0
M  V30 11313 C 1057.5 3.4858 -2.48347 0
M  V30 11314 C 1056.83 4.86239 -2.22432 0
M  V30 11315 C 1058.13 3.46653 -3.90678 0
M  V30 11316 H 1059.82 1.77057 -2.41436 0
M  V30 11317 H 1057.37 0.850415 -1.16206 0
M  V30 11318 H 1059.32 3.97969 -1.38558 0
M  V30 11319 H 1058.04 3.24327 -0.384611 0
M  V30 11320 H 1056.7 2.72437 -2.45303 0
M  V30 11321 H 1056.35 4.8773 -1.22999 0
M  V30 11322 H 1056.05 5.06677 -2.97577 0
M  V30 11323 H 1057.57 5.67034 -2.26505 0
M  V30 11324 H 1058.99 4.15139 -3.95389 0
M  V30 11325 H 1057.38 3.78625 -4.65578 0
M  V30 11326 H 1058.45 2.45451 -4.18189 0
M  V30 11327 N 1059.8 1.27835 0.921735 0
M  V30 11328 C 1061.07 1.05238 1.64877 0
M  V30 11329 C 1061.45 -0.410921 2.07062 0
M  V30 11330 O 1060.8 -1.39538 1.80946 0
M  V30 11331 C 1061.01 2.01955 2.84632 0
M  V30 11332 C 1062.36 2.31657 3.55837 0
M  V30 11333 O 1063.38 1.99975 2.94768 0
M  V30 11334 O 1062.24 2.85692 4.65878 0
M  V30 11335 H 1059.34 0.401622 0.72293 0
M  V30 11336 H 1061.88 1.39123 0.971744 0
M  V30 11337 H 1060.66 3.00614 2.50494 0
M  V30 11338 H 1060.28 1.68667 3.60052 0
M  V30 11339 N 1061.28 -1.12907 1.09954 0
M  V30 11340 C 1062.51 -1.87866 0.859656 0
M  V30 11341 C 1062.91 -1.79664 -0.593096 0
M  V30 11342 O 1062.26 -1.16499 -1.42034 0
M  V30 11343 C 1062.32 -3.38055 1.22308 0
M  V30 11344 C 1061.98 -3.70035 2.68185 0
M  V30 11345 C 1062.98 -3.68817 3.66428 0
M  V30 11346 C 1060.66 -3.99523 3.04444 0
M  V30 11347 C 1062.66 -3.96639 4.98955 0
M  V30 11348 C 1060.35 -4.27006 4.37161 0
M  V30 11349 C 1061.34 -4.25549 5.34225 0
M  V30 11350 O 1061.03 -4.52354 6.64553 0
M  V30 11351 H 1060.76 -0.601425 0.308649 0
M  V30 11352 H 1063.32 -1.43817 1.46649 0
M  V30 11353 H 1061.55 -3.82634 0.559322 0
M  V30 11354 H 1063.24 -3.94348 0.961479 0
M  V30 11355 H 1064 -3.46104 3.3976 0
M  V30 11356 H 1059.88 -3.99801 2.29521 0
M  V30 11357 H 1063.43 -3.95418 5.74709 0
M  V30 11358 H 1059.32 -4.49192 4.6357 0
M  V30 11359 H 1060.09 -4.69997 6.70108 0
M  V30 11360 N 1062.75 -0.88754 -1.30232 0
M  V30 11361 C 1064.16 -0.55745 -1.78184 0
M  V30 11362 C 1064.52 0.926474 -1.72948 0
M  V30 11363 O 1063.64 1.72403 -1.3079 0
M  V30 11364 C 1064.24 -1.00512 -3.23547 0
M  V30 11365 C 1062.79 -0.726402 -3.69324 0
M  V30 11366 C 1061.94 -1.18666 -2.50627 0
M  V30 11367 H 1064.89 -1.07151 -1.17066 0
M  V30 11368 H 1064.91 -0.335185 -3.79021 0
M  V30 11369 H 1064.43 -2.08517 -3.27326 0
M  V30 11370 H 1062.53 0.341548 -3.71031 0
M  V30 11371 H 1062.64 -1.31575 -4.60679 0
M  V30 11372 H 1061 -0.605936 -2.47387 0
M  V30 11373 H 1061.79 -2.2745 -2.57141 0
M  V30 11374 N 1064.23 1.43628 -0.648757 0
M  V30 11375 C 1065.17 2.28001 0.0952198 0
M  V30 11376 C 1066.14 1.39569 0.834225 0
M  V30 11377 O 1067.33 1.69011 0.834711 0
M  V30 11378 C 1064.45 3.18886 1.14145 0
M  V30 11379 C 1063.5 4.23547 0.500996 0
M  V30 11380 S 1064.33 5.30609 -0.722118 0
M  V30 11381 C 1065.49 6.25062 0.323687 0
M  V30 11382 H 1065.72 2.90752 -0.620511 0
M  V30 11383 H 1063.26 1.48073 -0.437457 0
M  V30 11384 H 1065.21 3.71795 1.74008 0
M  V30 11385 H 1063.87 2.55322 1.82947 0
M  V30 11386 H 1063.07 4.87224 1.28954 0
M  V30 11387 H 1062.67 3.73993 -0.0234176 0
M  V30 11388 H 1064.96 6.66946 1.19118 0
M  V30 11389 H 1065.9 7.07554 -0.277939 0
M  V30 11390 H 1066.31 5.60658 0.657493 0
M  V30 11391 N 1065.71 0.390394 1.52688 0
M  V30 11392 C 1066.96 -0.191067 2.01195 0
M  V30 11393 C 1067.28 -1.47229 1.27862 0
M  V30 11394 O 1066.55 -1.91793 0.399007 0
M  V30 11395 H 1065.13 -0.073596 0.743366 0
M  V30 11396 H 1067.79 0.522334 1.8777 0
M  V30 11397 H 1066.89 -0.40051 3.0952 0
M  V30 11398 N 1067.19 -1.57141 0.120249 0
M  V30 11399 C 1068.41 -2.00017 -0.548454 0
M  V30 11400 C 1068.84 -0.999433 -1.59352 0
M  V30 11401 O 1068.2 0.0286978 -1.81277 0
M  V30 11402 C 1068.24 -3.41766 -1.15015 0
M  V30 11403 O 1067.35 -3.44589 -2.26566 0
M  V30 11404 H 1066.69 -0.649739 -0.136875 0
M  V30 11405 H 1069.22 -2.03529 0.209092 0
M  V30 11406 H 1069.23 -3.80001 -1.48537 0
M  V30 11407 H 1067.9 -4.14117 -0.384681 0
M  V30 11408 H 1066.48 -3.18174 -1.94473 0
M  V30 11409 N 1068.67 0.153526 -1.5685 0
M  V30 11410 C 1069.91 0.867232 -1.8299 0
M  V30 11411 C 1070.24 1.81462 -0.700125 0
M  V30 11412 O 1069.5 1.93207 0.311348 0
M  V30 11413 C 1069.8 1.68066 -3.15418 0
M  V30 11414 C 1069.46 0.880635 -4.42217 0
M  V30 11415 C 1068.12 0.659899 -4.76654 0
M  V30 11416 C 1070.48 0.320698 -5.20212 0
M  V30 11417 C 1067.8 -0.131588 -5.86552 0
M  V30 11418 C 1070.16 -0.457794 -6.30941 0
M  V30 11419 C 1068.82 -0.689168 -6.63933 0
M  V30 11420 H 1068.09 0.317343 -0.669608 0
M  V30 11421 H 1070.74 0.131208 -1.9105 0
M  V30 11422 H 1069.04 2.4866 -3.02779 0
M  V30 11423 H 1070.74 2.23623 -3.32857 0
M  V30 11424 H 1067.33 1.06274 -4.15215 0
M  V30 11425 H 1071.51 0.47853 -4.93988 0
M  V30 11426 H 1066.77 -0.320413 -6.1056 0
M  V30 11427 H 1070.94 -0.898839 -6.90575 0
M  V30 11428 H 1068.57 -1.30433 -7.48927 0
M  V30 11429 N 1070.14 1.51827 0.422667 0
M  V30 11430 C 1071.05 1.77066 1.53899 0
M  V30 11431 C 1072.07 0.655541 1.61179 0
M  V30 11432 O 1073.25 0.939448 1.78147 0
M  V30 11433 C 1070.31 1.90372 2.89758 0
M  V30 11434 C 1069.37 3.14256 2.92475 0
M  V30 11435 C 1068.61 3.26918 4.21853 0
M  V30 11436 O 1068.83 2.45164 5.15025 0
M  V30 11437 O 1067.76 4.19989 4.31153 0
M  V30 11438 H 1071.59 2.71791 1.35511 0
M  V30 11439 H 1069.17 1.36506 0.607165 0
M  V30 11440 H 1071.06 2.01024 3.70361 0
M  V30 11441 H 1069.73 0.988347 3.08242 0
M  V30 11442 H 1068.64 3.09072 2.10773 0
M  V30 11443 H 1069.97 4.0553 2.78937 0
M  V30 11444 N 1071.62 -0.679052 1.4222 0
M  V30 11445 C 1073.03 -1.25953 1.37815 0
M  V30 11446 C 1073.38 -1.96077 0.0693215 0
M  V30 11447 O 1072.51 -1.99765 -0.832047 0
M  V30 11448 C 1073.1 -2.29063 2.49631 0
M  V30 11449 C 1071.66 -2.82647 2.48571 0
M  V30 11450 C 1070.81 -1.56909 2.28637 0
M  V30 11451 H 1073.76 -0.472714 1.51496 0
M  V30 11452 H 1073.78 -3.10708 2.19638 0
M  V30 11453 H 1073.29 -1.77996 3.44876 0
M  V30 11454 H 1071.4 -3.37846 1.57132 0
M  V30 11455 H 1071.51 -3.31952 3.45463 0
M  V30 11456 H 1069.87 -1.83323 1.76819 0
M  V30 11457 H 1070.66 -1.07814 3.25931 0
M  V30 11458 N 1073.1 -1.28322 -0.914942 0
M  V30 11459 C 1074.33 -1.1837 -1.70304 0
M  V30 11460 C 1074.75 0.254291 -1.86373 0
M  V30 11461 O 1074.11 1.18398 -1.37301 0
M  V30 11462 C 1074.16 -1.88603 -3.07346 0
M  V30 11463 O 1073.26 -1.19268 -3.94777 0
M  V30 11464 H 1072.6 -0.410978 -0.52153 0
M  V30 11465 H 1075.13 -1.69622 -1.14409 0
M  V30 11466 H 1075.14 -1.96463 -3.57584 0
M  V30 11467 H 1073.82 -2.93201 -2.94967 0
M  V30 11468 H 1072.39 -1.19563 -3.53212 0
M  V30 11469 N 1074.58 1.12322 -1.10551 0
M  V30 11470 C 1075.99 1.6539 -0.8662 0
M  V30 11471 C 1076.34 1.86695 0.603284 0
M  V30 11472 O 1075.47 1.59432 1.46323 0
M  V30 11473 C 1076.06 3.00443 -1.56587 0
M  V30 11474 C 1074.62 3.50456 -1.37323 0
M  V30 11475 C 1073.77 2.25454 -1.61449 0
M  V30 11476 H 1076.72 0.960866 -1.26305 0
M  V30 11477 H 1076.74 3.66972 -1.00557 0
M  V30 11478 H 1076.25 2.84905 -2.63535 0
M  V30 11479 H 1074.35 3.71176 -0.325431 0
M  V30 11480 H 1074.46 4.29839 -2.11601 0
M  V30 11481 H 1072.83 2.32621 -1.03729 0
M  V30 11482 H 1073.61 2.12469 -2.69651 0
M  V30 11483 N 1076.06 0.894434 1.2976 0
M  V30 11484 C 1077.29 0.532143 1.99629 0
M  V30 11485 C 1077.69 -0.886234 1.6716 0
M  V30 11486 O 1077.04 -1.59573 0.910065 0
M  V30 11487 C 1077.1 0.638335 3.53787 0
M  V30 11488 C 1076.76 2.02273 4.09798 0
M  V30 11489 C 1077.76 2.99327 4.25087 0
M  V30 11490 C 1075.45 2.33069 4.44954 0
M  V30 11491 C 1077.44 4.25304 4.74758 0
M  V30 11492 C 1075.13 3.59289 4.94322 0
M  V30 11493 C 1076.12 4.55222 5.09178 0
M  V30 11494 O 1075.81 5.79202 5.57477 0
M  V30 11495 H 1075.54 0.203326 0.644697 0
M  V30 11496 H 1078.1 1.2043 1.6639 0
M  V30 11497 H 1076.33 -0.0908338 3.86593 0
M  V30 11498 H 1078.02 0.285956 4.04891 0
M  V30 11499 H 1078.78 2.76849 3.9822 0
M  V30 11500 H 1074.66 1.59162 4.32653 0
M  V30 11501 H 1078.21 5.00189 4.86269 0
M  V30 11502 H 1074.1 3.816 5.20626 0
M  V30 11503 H 1074.87 5.81717 5.75802 0
M  V30 11504 N 1077.53 -1.43282 0.656365 0
M  V30 11505 C 1078.95 -1.85012 0.250475 0
M  V30 11506 C 1079.3 -1.54944 -1.20361 0
M  V30 11507 O 1078.42 -0.999983 -1.9191 0
M  V30 11508 C 1079.02 -3.35827 0.447815 0
M  V30 11509 C 1077.58 -3.76277 0.0962151 0
M  V30 11510 C 1076.72 -2.66988 0.749168 0
M  V30 11511 H 1079.67 -1.3339 0.85982 0
M  V30 11512 H 1079.69 -3.7927 -0.305726 0
M  V30 11513 H 1079.21 -3.5768 1.5062 0
M  V30 11514 H 1077.31 -3.60035 -0.959449 0
M  V30 11515 H 1077.42 -4.76227 0.523875 0
M  V30 11516 H 1075.78 -2.54048 0.18212 0
M  V30 11517 H 1076.57 -2.91669 1.81064 0
M  V30 11518 N 1079.01 -0.398486 -1.52479 0
M  V30 11519 C 1080.24 0.180557 -2.06111 0
M  V30 11520 C 1080.66 1.39751 -1.26945 0
M  V30 11521 O 1080.01 1.79699 -0.318497 0
M  V30 11522 C 1080.06 0.541573 -3.5742 0
M  V30 11523 O 1079.79 -0.627043 -4.33589 0
M  V30 11524 C 1081.29 1.17549 -4.27431 0
M  V30 11525 H 1078.51 0.0250754 -0.670531 0
M  V30 11526 H 1081.05 -0.566368 -1.96501 0
M  V30 11527 H 1079.21 1.23839 -3.67073 0
M  V30 11528 H 1079.62 -0.328233 -5.23472 0
M  V30 11529 H 1081.09 1.37839 -5.34513 0
M  V30 11530 H 1081.57 2.14553 -3.83228 0
M  V30 11531 H 1082.18 0.51918 -4.22119 0
M  V30 11532 N 1080.49 1.57075 -0.12858 0
M  V30 11533 C 1081.72 1.99876 0.534544 0
M  V30 11534 C 1082.13 1.00843 1.59612 0
M  V30 11535 O 1081.49 0.00268947 1.825 0
M  V30 11536 C 1081.54 3.42654 1.15198 0
M  V30 11537 O 1081.26 4.37899 0.132823 0
M  V30 11538 C 1082.76 4.00637 1.8975 0
M  V30 11539 H 1079.98 0.656073 0.140744 0
M  V30 11540 H 1082.53 2.03337 -0.217742 0
M  V30 11541 H 1080.68 3.40101 1.85499 0
M  V30 11542 H 1081.1 5.21253 0.582682 0
M  V30 11543 H 1082.57 5.02592 2.28266 0
M  V30 11544 H 1083.05 3.40313 2.7764 0
M  V30 11545 H 1083.65 4.06764 1.2419 0
M  V30 11546 N 1081.97 -0.145205 1.5693 0
M  V30 11547 C 1083.19 -0.876386 1.87974 0
M  V30 11548 C 1083.62 -1.73866 0.717795 0
M  V30 11549 O 1082.98 -1.78224 -0.332551 0
M  V30 11550 C 1083.03 -1.70746 3.17613 0
M  V30 11551 O 1082.13 -2.81188 3.01674 0
M  V30 11552 H 1081.47 -0.243987 0.617549 0
M  V30 11553 H 1084 -0.135482 2.04151 0
M  V30 11554 H 1084.01 -2.1021 3.49679 0
M  V30 11555 H 1082.69 -1.07429 4.01786 0
M  V30 11556 H 1081.26 -2.45117 2.81019 0
M  V30 11557 N 1083.45 -1.52049 -0.414609 0
M  V30 11558 C 1084.67 -1.6997 -1.18848 0
M  V30 11559 C 1085.1 -0.406058 -1.83665 0
M  V30 11560 O 1084.46 0.635981 -1.69779 0
M  V30 11561 C 1084.5 -2.8327 -2.23138 0
M  V30 11562 O 1083.61 -2.48457 -3.29155 0
M  V30 11563 H 1082.95 -0.566003 -0.347183 0
M  V30 11564 H 1085.48 -1.98726 -0.486757 0
M  V30 11565 H 1085.49 -3.08022 -2.67557 0
M  V30 11566 H 1084.16 -3.7713 -1.75344 0
M  V30 11567 H 1082.74 -2.34357 -2.90054 0
M  V30 11568 N 1084.93 0.6715 -1.42579 0
M  V30 11569 C 1085.86 1.79693 -1.49107 0
M  V30 11570 C 1086.84 1.66516 -0.347338 0
M  V30 11571 O 1088.02 1.85887 -0.562094 0
M  V30 11572 C 1085.15 3.1801 -1.39596 0
M  V30 11573 C 1084.11 3.45926 -2.5203 0
M  V30 11574 C 1083.43 4.83852 -2.27577 0
M  V30 11575 C 1084.73 3.4249 -3.94333 0
M  V30 11576 H 1086.43 1.74486 -2.433 0
M  V30 11577 H 1083.97 0.838042 -1.17102 0
M  V30 11578 H 1085.92 3.96478 -1.42771 0
M  V30 11579 H 1084.65 3.23901 -0.418989 0
M  V30 11580 H 1083.31 2.6982 -2.48178 0
M  V30 11581 H 1082.96 4.86398 -1.28165 0
M  V30 11582 H 1082.66 5.03493 -3.02934 0
M  V30 11583 H 1084.18 5.646 -2.32506 0
M  V30 11584 H 1085.59 4.10922 -3.9977 0
M  V30 11585 H 1083.99 3.73666 -4.69568 0
M  V30 11586 H 1085.06 2.41002 -4.20768 0
M  V30 11587 N 1086.4 1.28806 0.908124 0
M  V30 11588 C 1087.31 1.15079 2.04436 0
M  V30 11589 C 1088.33 0.076012 1.73834 0
M  V30 11590 O 1089.51 0.286421 1.99353 0
M  V30 11591 C 1086.57 0.819733 3.3687 0
M  V30 11592 C 1085.63 1.97746 3.81045 0
M  V30 11593 C 1084.86 1.66211 5.07158 0
M  V30 11594 O 1085.09 0.579092 5.67453 0
M  V30 11595 O 1084.02 2.5075 5.47182 0
M  V30 11596 H 1087.85 2.10477 2.18937 0
M  V30 11597 H 1085.43 1.08177 1.03044 0
M  V30 11598 H 1087.31 0.649304 4.16368 0
M  V30 11599 H 1085.99 -0.10454 3.23531 0
M  V30 11600 H 1084.9 2.20308 3.02349 0
M  V30 11601 H 1086.23 2.88264 3.98955 0
M  V30 11602 N 1087.88 -1.11734 1.11145 0
M  V30 11603 C 1089.16 -1.79795 0.770261 0
M  V30 11604 C 1089.54 -1.97624 -0.742158 0
M  V30 11605 O 1088.89 -1.55847 -1.67105 0
M  V30 11606 C 1089.1 -3.13684 1.52982 0
M  V30 11607 C 1090.44 -3.88771 1.70711 0
M  V30 11608 O 1091.47 -3.23363 1.49381 0
M  V30 11609 O 1090.33 -5.06134 2.06132 0
M  V30 11610 H 1087.42 -0.778617 0.27872 0
M  V30 11611 H 1089.97 -1.18504 1.2147 0
M  V30 11612 H 1088.74 -2.96043 2.55879 0
M  V30 11613 H 1088.36 -3.82687 1.07873 0
M  V30 11614 N 1089.36 -0.901303 -1.29284 0
M  V30 11615 C 1090.61 -0.528043 -1.95494 0
M  V30 11616 C 1090.93 0.92597 -1.71044 0
M  V30 11617 O 1090.19 1.67185 -1.01723 0
M  V30 11618 C 1090.49 -0.768828 -3.49033 0
M  V30 11619 C 1090.15 -2.20045 -3.93562 0
M  V30 11620 C 1088.82 -2.59189 -4.05431 0
M  V30 11621 C 1091.17 -3.13266 -4.1655 0
M  V30 11622 C 1088.5 -3.90733 -4.37658 0
M  V30 11623 C 1090.85 -4.4436 -4.50252 0
M  V30 11624 C 1089.51 -4.83375 -4.60331 0
M  V30 11625 H 1088.78 -0.193225 -0.715364 0
M  V30 11626 H 1091.43 -1.14027 -1.53851 0
M  V30 11627 H 1089.73 -0.0736997 -3.91731 0
M  V30 11628 H 1091.43 -0.459384 -3.9836 0
M  V30 11629 H 1088.02 -1.88666 -3.84842 0
M  V30 11630 H 1092.21 -2.84237 -4.06845 0
M  V30 11631 H 1087.46 -4.2068 -4.43665 0
M  V30 11632 H 1091.64 -5.16618 -4.66989 0
M  V30 11633 H 1089.26 -5.8534 -4.85058 0
M  V30 11634 N 1090.84 1.42931 -0.663954 0
M  V30 11635 C 1092.08 2.01982 -0.182007 0
M  V30 11636 C 1092.42 1.52323 1.20463 0
M  V30 11637 O 1091.69 0.720834 1.80649 0
M  V30 11638 C 1091.97 3.59518 -0.204671 0
M  V30 11639 C 1091.83 4.19382 -1.62599 0
M  V30 11640 C 1093.15 4.37762 0.45308 0
M  V30 11641 H 1090.27 0.733892 -0.0676115 0
M  V30 11642 H 1092.91 1.70092 -0.84668 0
M  V30 11643 H 1091.06 3.86816 0.361295 0
M  V30 11644 H 1092.73 4.03076 -2.24337 0
M  V30 11645 H 1090.97 3.75623 -2.17001 0
M  V30 11646 H 1091.64 5.28496 -1.59362 0
M  V30 11647 H 1094.12 4.1609 -0.0285774 0
M  V30 11648 H 1093 5.47392 0.406538 0
M  V30 11649 H 1093.26 4.1482 1.52895 0
M  V30 11650 N 1092.32 0.406567 1.52266 0
M  V30 11651 C 1093.54 -0.169624 2.06204 0
M  V30 11652 C 1093.96 -1.39076 1.27684 0
M  V30 11653 O 1093.32 -1.79528 0.328023 0
M  V30 11654 C 1093.37 -0.522611 3.57702 0
M  V30 11655 O 1093.09 0.650028 4.33251 0
M  V30 11656 C 1094.59 -1.15281 4.28048 0
M  V30 11657 H 1091.81 -0.0215191 0.670655 0
M  V30 11658 H 1094.35 0.576781 1.96198 0
M  V30 11659 H 1092.51 -1.21891 3.67725 0
M  V30 11660 H 1092.92 0.355989 5.23291 0
M  V30 11661 H 1094.4 -1.35002 5.35237 0
M  V30 11662 H 1094.87 -2.12517 3.84361 0
M  V30 11663 H 1095.48 -0.496786 4.22389 0
M  V30 11664 N 1093.79 -1.57004 0.136909 0
M  V30 11665 C 1095.03 -1.97686 -0.519583 0
M  V30 11666 C 1095.4 -1.01951 -1.62696 0
M  V30 11667 O 1096.6 -1.31639 -2.3436 0
M  V30 11668 C 1094.87 -3.42474 -1.02206 0
M  V30 11669 S 1096.43 -4.05176 -1.68457 0
M  V30 11670 H 1093.25 -0.690787 -0.168329 0
M  V30 11671 H 1095.85 -1.94187 0.226234 0
M  V30 11672 H 1094.55 -4.09887 -0.205194 0
M  V30 11673 H 1094.08 -3.49664 -1.80273 0
M  V30 11674 H 1096.1 -3.97401 -2.97131 0
M  V30 11675 N 1095.27 0.136881 -1.57004 0
M  V30 11676 C 1096.2 1.17026 -2.02057 0
M  V30 11677 C 1097.18 1.44223 -0.901866 0
M  V30 11678 O 1098.37 1.54971 -1.17037 0
M  V30 11679 C 1095.5 2.50095 -2.40977 0
M  V30 11680 C 1094.45 2.37398 -3.56127 0
M  V30 11681 C 1093.78 3.75268 -3.80891 0
M  V30 11682 C 1095.08 1.84952 -4.88457 0
M  V30 11683 H 1096.77 0.795601 -2.88636 0
M  V30 11684 H 1094.32 0.381266 -1.38861 0
M  V30 11685 H 1096.27 3.22621 -2.71097 0
M  V30 11686 H 1095 2.89416 -1.51348 0
M  V30 11687 H 1093.65 1.67322 -3.26188 0
M  V30 11688 H 1093.3 4.12043 -2.88496 0
M  V30 11689 H 1093 3.67631 -4.5839 0
M  V30 11690 H 1094.53 4.49327 -4.13446 0
M  V30 11691 H 1095.94 2.4728 -5.17229 0
M  V30 11692 H 1094.34 1.88181 -5.69832 0
M  V30 11693 H 1095.41 0.805848 -4.78157 0
M  V30 11694 N 1096.75 1.52266 0.40654 0
M  V30 11695 C 1097.68 1.72025 1.51459 0
M  V30 11696 C 1098.7 0.600667 1.51314 0
M  V30 11697 O 1099.88 0.875894 1.55532 0
M  V30 11698 C 1096.98 1.7479 2.90348 0
M  V30 11699 C 1096.16 3.03826 3.14656 0
M  V30 11700 C 1095.22 2.98369 4.33431 0
M  V30 11701 O 1094.24 3.7227 4.30586 0
M  V30 11702 N 1095.44 2.16338 5.38682 0
M  V30 11703 H 1098.21 2.67622 1.34903 0
M  V30 11704 H 1095.77 1.50536 0.595867 0
M  V30 11705 H 1097.76 1.68667 3.67877 0
M  V30 11706 H 1096.33 0.86656 3.00349 0
M  V30 11707 H 1095.55 3.23577 2.25148 0
M  V30 11708 H 1096.84 3.89182 3.27742 0
M  V30 11709 H 1096.24 1.55731 5.43842 0
M  V30 11710 H 1094.8 2.1607 6.14945 0
M  V30 11711 N 1098.23 -0.663929 1.42933 0
M  V30 11712 C 1099.16 -1.78899 1.50058 0
M  V30 11713 C 1100.14 -1.66329 0.356164 0
M  V30 11714 O 1101.32 -1.85587 0.571944 0
M  V30 11715 C 1098.45 -3.17265 1.41281 0
M  V30 11716 C 1097.41 -3.44584 2.53861 0
M  V30 11717 C 1096.73 -4.82638 2.3014 0
M  V30 11718 C 1098.03 -3.40394 3.96143 0
M  V30 11719 H 1099.73 -1.73194 2.44222 0
M  V30 11720 H 1097.27 -0.83182 1.17545 0
M  V30 11721 H 1099.23 -3.95715 1.44872 0
M  V30 11722 H 1097.95 -3.23675 0.43616 0
M  V30 11723 H 1096.61 -2.685 2.49606 0
M  V30 11724 H 1096.26 -4.85711 1.30743 0
M  V30 11725 H 1095.96 -5.01879 3.056 0
M  V30 11726 H 1097.48 -5.63359 2.35497 0
M  V30 11727 H 1098.9 -4.08796 4.01943 0
M  V30 11728 H 1097.29 -3.7117 4.71543 0
M  V30 11729 H 1098.36 -2.38767 4.22041 0
M  V30 11730 N 1099.71 -1.29285 -0.901281 0
M  V30 11731 C 1101.12 -1.15499 -1.46686 0
M  V30 11732 C 1101.47 0.250446 -1.94595 0
M  V30 11733 O 1100.59 1.14581 -1.83576 0
M  V30 11734 C 1101.19 -2.0906 -2.66607 0
M  V30 11735 C 1099.75 -1.99301 -3.19306 0
M  V30 11736 C 1098.89 -2.00079 -1.91999 0
M  V30 11737 H 1101.85 -1.41793 -0.712773 0
M  V30 11738 H 1101.87 -1.6619 -3.42288 0
M  V30 11739 H 1101.38 -3.11341 -2.31707 0
M  V30 11740 H 1099.48 -1.00103 -3.58901 0
M  V30 11741 H 1099.59 -2.86885 -3.8371 0
M  V30 11742 H 1097.96 -1.44655 -2.09636 0
M  V30 11743 H 1098.74 -3.04061 -1.59379 0
M  V30 11744 N 1101.18 1.11143 -1.11736 0
M  V30 11745 C 1102.09 2.20851 -0.791331 0
M  V30 11746 C 1103.11 1.72644 0.216833 0
M  V30 11747 O 1104.29 2.01332 0.0522401 0
M  V30 11748 C 1101.35 3.4585 -0.242694 0
M  V30 11749 C 1100.41 4.08829 -1.30986 0
M  V30 11750 C 1099.65 5.27861 -0.787305 0
M  V30 11751 O 1099.87 5.69122 0.381549 0
M  V30 11752 O 1098.8 5.81506 -1.55352 0
M  V30 11753 H 1102.63 2.51158 -1.70744 0
M  V30 11754 H 1100.21 1.19739 -0.893478 0
M  V30 11755 H 1102.1 4.21359 0.0587472 0
M  V30 11756 H 1100.77 3.17187 0.646079 0
M  V30 11757 H 1099.68 3.35037 -1.66436 0
M  V30 11758 H 1101.01 4.41678 -2.17213 0
M  V30 11759 N 1102.66 0.908147 1.28804 0
M  V30 11760 C 1103.61 0.382315 2.29437 0
M  V30 11761 C 1104.6 -0.523033 1.61123 0
M  V30 11762 O 1105.81 -0.404898 1.75387 0
M  V30 11763 H 1102.19 0.105022 0.74463 0
M  V30 11764 H 1104.16 1.24425 2.71221 0
M  V30 11765 C 1102.91 -0.367475 3.45753 0
M  V30 11766 H 1102.23 0.319957 3.98518 0
M  V30 11767 H 1103.67 -0.700131 4.1818 0
M  V30 11768 C 1102.13 -1.57329 2.97908 0
M  V30 11769 O 1102.66 -2.67248 2.99902 0
M  V30 11770 N 1100.86 -1.41835 2.53636 0
M  V30 11771 H 1100.41 -0.524099 2.52212 0
M  V30 11772 H 1100.37 -2.22645 2.21984 0
M  V30 11773 N 1104.14 -1.42577 0.671525 0
M  V30 11774 C 1105.07 -2.2915 -0.0477361 0
M  V30 11775 C 1106.09 -1.43503 -0.768805 0
M  V30 11776 O 1107.27 -1.67256 -0.623509 0
M  V30 11777 C 1104.37 -3.20851 -1.09122 0
M  V30 11778 C 1103.55 -4.35134 -0.44463 0
M  V30 11779 C 1102.61 -5.07579 -1.38745 0
M  V30 11780 O 1101.63 -5.62215 -0.889015 0
M  V30 11781 N 1102.83 -5.12786 -2.72086 0
M  V30 11782 H 1105.6 -2.9152 0.695415 0
M  V30 11783 H 1103.16 -1.53467 0.515689 0
M  V30 11784 H 1105.15 -3.66183 -1.72315 0
M  V30 11785 H 1103.72 -2.59956 -1.73614 0
M  V30 11786 H 1102.94 -3.9249 0.36675 0
M  V30 11787 H 1104.23 -5.088 0.00595927 0
M  V30 11788 H 1103.63 -4.69802 -3.15123 0
M  V30 11789 H 1102.19 -5.61774 -3.30535 0
M  V30 11790 N 1105.62 -0.414636 -1.52048 0
M  V30 11791 C 1106.57 0.408141 -2.27163 0
M  V30 11792 C 1107.54 1.03636 -1.29803 0
M  V30 11793 O 1108.72 1.05959 -1.58674 0
M  V30 11794 C 1105.86 1.51588 -3.10024 0
M  V30 11795 C 1104.97 0.908034 -4.22349 0
M  V30 11796 C 1104.11 1.98893 -4.9256 0
M  V30 11797 C 1103.15 1.35831 -5.96839 0
M  V30 11798 N 1102.28 2.37958 -6.60545 0
M  V30 11799 H 1107.12 -0.238822 -2.97041 0
M  V30 11800 H 1104.66 -0.129614 -1.46528 0
M  V30 11801 H 1106.62 2.16916 -3.56375 0
M  V30 11802 H 1105.25 2.13279 -2.42305 0
M  V30 11803 H 1104.3 0.143652 -3.80129 0
M  V30 11804 H 1105.61 0.407426 -4.97133 0
M  V30 11805 H 1104.77 2.71935 -5.42343 0
M  V30 11806 H 1103.51 2.5232 -4.17356 0
M  V30 11807 H 1102.51 0.613246 -5.46369 0
M  V30 11808 H 1103.74 0.831655 -6.73988 0
M  V30 11809 H 1101.68 2.90508 -5.88167 0
M  V30 11810 H 1101.6 1.92725 -7.31022 0
M  V30 11811 H 1102.87 3.10553 -7.14966 0
M  V30 11812 N 1107.1 1.56929 -0.145233 0
M  V30 11813 C 1108.05 2.13246 0.806846 0
M  V30 11814 C 1109.03 1.05984 1.21063 0
M  V30 11815 O 1110.22 1.32165 1.17734 0
M  V30 11816 C 1107.35 2.75622 2.04663 0
M  V30 11817 C 1106.44 3.90006 1.66603 0
M  V30 11818 N 1106.83 4.95946 0.993545 0
M  V30 11819 C 1105.13 4.0068 1.95886 0
M  V30 11820 C 1105.83 5.76032 0.810087 0
M  V30 11821 N 1104.8 5.26739 1.34339 0
M  V30 11822 H 1108.61 2.92527 0.283806 0
M  V30 11823 H 1106.12 1.62302 0.0563676 0
M  V30 11824 H 1108.12 3.14329 2.73867 0
M  V30 11825 H 1106.78 1.97815 2.57487 0
M  V30 11826 H 1107.79 5.13748 0.654508 0
M  V30 11827 H 1104.46 3.33946 2.50572 0
M  V30 11828 H 1105.85 6.71315 0.280209 0
M  V30 11829 N 1108.58 -0.128553 1.57075 0
M  V30 11830 C 1109.82 -0.836355 1.83982 0
M  V30 11831 C 1110.14 -1.80862 0.728971 0
M  V30 11832 O 1109.41 -1.94326 -0.247859 0
M  V30 11833 H 1107.99 -0.31185 0.678792 0
M  V30 11834 H 1110.66 -0.118153 1.94542 0
M  V30 11835 H 1109.75 -1.38741 2.79567 0
M  V30 11836 N 1110.05 -1.5248 -0.398459 0
M  V30 11837 C 1110.98 -1.79549 -1.49279 0
M  V30 11838 C 1111.96 -0.647004 -1.57315 0
M  V30 11839 O 1113.15 -0.893661 -1.72416 0
M  V30 11840 C 1110.28 -1.95582 -2.86993 0
M  V30 11841 C 1109.23 -3.1123 -2.93803 0
M  V30 11842 C 1108.56 -3.12501 -4.33874 0
M  V30 11843 C 1109.86 -4.50485 -2.64312 0
M  V30 11844 H 1111.55 -2.71187 -1.26877 0
M  V30 11845 H 1109.1 -1.30492 -0.608924 0
M  V30 11846 H 1111.05 -2.13102 -3.63546 0
M  V30 11847 H 1109.78 -1.00625 -3.10712 0
M  V30 11848 H 1108.44 -2.93477 -2.19697 0
M  V30 11849 H 1108.08 -2.15245 -4.54619 0
M  V30 11850 H 1107.78 -3.90183 -4.39353 0
M  V30 11851 H 1109.31 -3.32164 -5.12347 0
M  V30 11852 H 1110.72 -4.68387 -3.30585 0
M  V30 11853 H 1109.12 -5.30163 -2.81153 0
M  V30 11854 H 1110.19 -4.57848 -1.59696 0
M  V30 11855 N 1111.53 0.65634 -1.43283 0
M  V30 11856 C 1112.48 1.79058 -1.48462 0
M  V30 11857 C 1113.47 1.65563 -0.358512 0
M  V30 11858 O 1114.68 1.71947 -0.532365 0
M  V30 11859 H 1111.05 0.590716 -0.465358 0
M  V30 11860 H 1113.03 1.7181 -2.43975 0
M  V30 11861 C 1111.77 3.17304 -1.42175 0
M  V30 11862 H 1111.1 3.28324 -2.2813 0
M  V30 11863 H 1112.54 3.96633 -1.4986 0
M  V30 11864 C 1111 3.36613 -0.138929 0
M  V30 11865 O 1111.53 3.93633 0.80101 0
M  V30 11866 N 1109.73 2.90557 -0.0501237 0
M  V30 11867 H 1109.28 2.4434 -0.815821 0
M  V30 11868 H 1109.24 3.03853 0.807504 0
M  V30 11869 N 1113.01 1.29761 0.894412 0
M  V30 11870 C 1114.42 1.16275 1.46072 0
M  V30 11871 C 1114.77 -0.240123 1.94725 0
M  V30 11872 O 1113.9 -1.13606 1.84181 0
M  V30 11873 C 1114.49 2.10471 2.65494 0
M  V30 11874 C 1113.05 2.00992 3.18244 0
M  V30 11875 C 1112.2 2.01094 1.90936 0
M  V30 11876 H 1115.15 1.42169 0.705243 0
M  V30 11877 H 1115.17 1.68003 3.41402 0
M  V30 11878 H 1114.68 3.12566 2.30053 0
M  V30 11879 H 1112.78 1.02005 3.58365 0
M  V30 11880 H 1112.9 2.88916 3.82184 0
M  V30 11881 H 1111.26 1.45764 2.08866 0
M  V30 11882 H 1112.04 3.04902 1.57764 0
M  V30 11883 N 1114.49 -1.10549 1.12324 0
M  V30 11884 C 1115.42 -2.16657 0.747826 0
M  V30 11885 C 1116.43 -1.61238 -0.224981 0
M  V30 11886 O 1117.62 -1.78499 -0.00649408 0
M  V30 11887 C 1114.72 -3.38791 0.0859421 0
M  V30 11888 C 1113.89 -4.23655 1.08792 0
M  V30 11889 C 1112.95 -5.24239 0.453871 0
M  V30 11890 O 1111.98 -5.58262 1.11052 0
M  V30 11891 N 1113.18 -5.75246 -0.779215 0
M  V30 11892 H 1115.95 -2.49472 1.66084 0
M  V30 11893 H 1113.51 -1.26157 1.01469 0
M  V30 11894 H 1115.5 -4.03182 -0.350186 0
M  V30 11895 H 1114.07 -3.03961 -0.729807 0
M  V30 11896 H 1113.29 -3.55578 1.70171 0
M  V30 11897 H 1114.58 -4.77187 1.76549 0
M  V30 11898 H 1113.98 -5.49802 -1.3317 0
M  V30 11899 H 1112.53 -6.41428 -1.15818 0
M  V30 11900 N 1115.97 -0.914965 -1.28321 0
M  V30 11901 C 1117.19 -0.564023 -1.99583 0
M  V30 11902 C 1117.62 0.847821 -1.6791 0
M  V30 11903 O 1116.97 1.56682 -0.912171 0
M  V30 11904 C 1117.02 -0.781368 -3.52033 0
M  V30 11905 O 1116.13 0.159072 -4.12093 0
M  V30 11906 H 1115.47 -0.218565 -0.626997 0
M  V30 11907 H 1118 -1.23074 -1.63444 0
M  V30 11908 H 1118.01 -0.691946 -4.0209 0
M  V30 11909 H 1116.68 -1.81059 -3.7442 0
M  V30 11910 H 1115.26 0.0208145 -3.72894 0
M  V30 11911 N 1117.44 1.42219 -0.679077 0
M  V30 11912 C 1118.41 2.29197 -0.0125475 0
M  V30 11913 C 1119.41 1.43544 0.724691 0
M  V30 11914 O 1120.6 1.64884 0.562052 0
M  V30 11915 C 1117.73 3.26122 0.992846 0
M  V30 11916 H 1118.92 2.89629 -0.778154 0
M  V30 11917 H 1116.47 1.4993 -0.44166 0
M  V30 11918 H 1117.21 2.70637 1.78679 0
M  V30 11919 H 1116.99 3.89302 0.467544 0
M  V30 11920 H 1118.48 3.91339 1.45751 0
M  V30 11921 N 1118.92 0.422693 1.51826 0
M  V30 11922 C 1120.17 -0.150066 2.01141 0
M  V30 11923 C 1120.48 -1.45059 1.31214 0
M  V30 11924 O 1121.69 -2.10542 1.71419 0
M  V30 11925 C 1120.15 -0.317985 3.58492 0
M  V30 11926 C 1119.75 0.971244 4.37345 0
M  V30 11927 C 1121.5 -0.845303 4.15999 0
M  V30 11928 C 1119.4 0.769769 5.86369 0
M  V30 11929 H 1118.33 -0.0598567 0.75162 0
M  V30 11930 H 1120.99 0.550217 1.75057 0
M  V30 11931 H 1119.37 -1.08092 3.80962 0
M  V30 11932 H 1120.54 1.74138 4.26629 0
M  V30 11933 H 1118.86 1.42599 3.91222 0
M  V30 11934 H 1121.45 -1.01229 5.2503 0
M  V30 11935 H 1121.8 -1.82375 3.74226 0
M  V30 11936 H 1122.33 -0.141067 3.9755 0
M  V30 11937 H 1119.07 1.72017 6.32527 0
M  V30 11938 H 1118.59 0.0391717 5.99787 0
M  V30 11939 H 1120.27 0.417225 6.45653 0
M  V30 11940 N 1120.4 -1.5685 0.153553 0
M  V30 11941 C 1121.65 -1.95509 -0.495911 0
M  V30 11942 C 1121.96 -1.04129 -1.65579 0
M  V30 11943 O 1123.17 -1.32394 -2.37032 0
M  V30 11944 C 1121.62 -3.47579 -0.933622 0
M  V30 11945 C 1121.23 -4.47555 0.199684 0
M  V30 11946 C 1122.98 -3.95092 -1.55251 0
M  V30 11947 C 1120.88 -5.90843 -0.256663 0
M  V30 11948 H 1119.81 -0.729919 -0.189035 0
M  V30 11949 H 1122.46 -1.81938 0.238947 0
M  V30 11950 H 1120.85 -3.56506 -1.72394 0
M  V30 11951 H 1122.02 -4.50329 0.976744 0
M  V30 11952 H 1120.33 -4.09997 0.727394 0
M  V30 11953 H 1122.93 -4.99588 -1.90567 0
M  V30 11954 H 1123.27 -3.37015 -2.4439 0
M  V30 11955 H 1123.81 -3.89109 -0.826969 0
M  V30 11956 H 1120.55 -6.52753 0.599515 0
M  V30 11957 H 1120.07 -5.91414 -0.999458 0
M  V30 11958 H 1121.75 -6.43131 -0.70649 0
M  V30 11959 N 1121.88 0.120221 -1.57141 0
M  V30 11960 C 1123.11 0.842441 -1.88972 0
M  V30 11961 C 1123.52 1.73494 -0.744671 0
M  V30 11962 O 1122.88 1.80268 0.284557 0
M  V30 11963 C 1122.93 1.67688 -3.20254 0
M  V30 11964 O 1122.65 0.820319 -4.30351 0
M  V30 11965 C 1124.15 2.50436 -3.65782 0
M  V30 11966 H 1121.37 0.242241 -0.625748 0
M  V30 11967 H 1123.91 0.104978 -2.0423 0
M  V30 11968 H 1122.07 2.36712 -3.0667 0
M  V30 11969 H 1122.48 1.39575 -5.05588 0
M  V30 11970 H 1123.96 3.04518 -4.60405 0
M  V30 11971 H 1124.43 3.27737 -2.92378 0
M  V30 11972 H 1125.04 1.86657 -3.82151 0
M  V30 11973 N 1123.36 1.52689 0.390367 0
M  V30 11974 C 1124.77 1.59623 0.968366 0
M  V30 11975 C 1125.12 0.44824 1.91011 0
M  V30 11976 O 1124.24 -0.428868 2.12108 0
M  V30 11977 C 1124.84 2.89312 1.76306 0
M  V30 11978 C 1123.4 2.98664 2.29079 0
M  V30 11979 C 1122.54 2.54725 1.09593 0
M  V30 11980 H 1125.5 1.57787 0.169959 0
M  V30 11981 H 1125.52 2.75721 2.62217 0
M  V30 11982 H 1125.03 3.72846 1.07738 0
M  V30 11983 H 1123.13 2.19665 3.00962 0
M  V30 11984 H 1123.24 4.03277 2.58659 0
M  V30 11985 H 1121.61 2.09012 1.45554 0
M  V30 11986 H 1122.39 3.40651 0.425625 0
M  V30 11987 N 1124.83 -0.648732 1.43629 0
M  V30 11988 C 1125.77 -1.77417 1.45107 0
M  V30 11989 C 1126.78 -1.59067 0.346618 0
M  V30 11990 O 1127.97 -1.67705 0.611322 0
M  V30 11991 C 1125.07 -3.14906 1.25249 0
M  V30 11992 C 1124.24 -3.59874 2.48616 0
M  V30 11993 C 1123.3 -4.76181 2.23916 0
M  V30 11994 O 1122.33 -4.8539 2.97296 0
M  V30 11995 N 1123.53 -5.66691 1.25862 0
M  V30 11996 H 1126.29 -1.76626 2.42123 0
M  V30 11997 H 1123.85 -0.832725 1.38843 0
M  V30 11998 H 1125.85 -3.90408 1.06601 0
M  V30 11999 H 1124.42 -3.10443 0.366623 0
M  V30 12000 H 1123.64 -2.74768 2.82659 0
M  V30 12001 H 1124.92 -3.86665 3.30708 0
M  V30 12002 H 1124.32 -5.61927 0.652227 0
M  V30 12003 H 1122.88 -6.41895 1.13196 0
M  V30 12004 N 1126.31 -1.30234 -0.887518 0
M  V30 12005 C 1127.54 -1.21829 -1.67229 0
M  V30 12006 C 1127.96 0.219251 -1.87523 0
M  V30 12007 O 1127.31 1.14526 -1.42091 0
M  V30 12008 C 1127.36 -1.94044 -3.05007 0
M  V30 12009 O 1127.08 -3.32185 -2.85631 0
M  V30 12010 C 1128.59 -1.92265 -3.99436 0
M  V30 12011 H 1125.81 -0.421716 -0.521916 0
M  V30 12012 H 1128.35 -1.71816 -1.10903 0
M  V30 12013 H 1126.5 -1.47861 -3.58072 0
M  V30 12014 H 1126.92 -3.68724 -3.73018 0
M  V30 12015 H 1128.39 -2.47336 -4.93486 0
M  V30 12016 H 1128.87 -0.900984 -4.29859 0
M  V30 12017 H 1129.48 -2.38247 -3.52305 0
M  V30 12018 N 1127.79 1.09952 -1.12909 0
M  V30 12019 C 1129.03 1.83635 -0.897646 0
M  V30 12020 C 1129.39 1.83462 0.566179 0
M  V30 12021 O 1130.6 2.52748 0.914977 0
M  V30 12022 C 1128.87 3.26095 -1.46277 0
M  V30 12023 S 1130.43 4.16846 -1.37059 0
M  V30 12024 H 1127.24 0.633045 -0.32369 0
M  V30 12025 H 1129.85 1.32275 -1.43957 0
M  V30 12026 H 1128.55 3.23793 -2.52163 0
M  V30 12027 H 1128.08 3.82526 -0.918549 0
M  V30 12028 H 1130.1 4.94996 -0.345399 0
M  V30 12029 N 1129.27 0.921757 1.27833 0
M  V30 12030 C 1130.5 0.574368 1.98455 0
M  V30 12031 C 1130.91 -0.850577 1.69002 0
M  V30 12032 O 1130.25 -1.57607 0.943708 0
M  V30 12033 C 1130.31 0.713235 3.52354 0
M  V30 12034 C 1129.98 2.1092 4.05415 0
M  V30 12035 C 1130.97 3.08276 4.18643 0
M  V30 12036 C 1128.66 2.42454 4.3991 0
M  V30 12037 C 1130.65 4.35279 4.6563 0
M  V30 12038 C 1128.34 3.69694 4.8659 0
M  V30 12039 C 1129.34 4.6592 4.99407 0
M  V30 12040 O 1129.02 5.90896 5.45066 0
M  V30 12041 H 1128.76 0.216955 0.640239 0
M  V30 12042 H 1131.31 1.23932 1.63798 0
M  V30 12043 H 1129.54 -0.00881115 3.86699 0
M  V30 12044 H 1131.23 0.371776 4.04194 0
M  V30 12045 H 1132 2.85234 3.92258 0
M  V30 12046 H 1127.87 1.68303 4.2918 0
M  V30 12047 H 1131.42 5.10391 4.75549 0
M  V30 12048 H 1127.32 3.92557 5.12415 0
M  V30 12049 H 1128.08 5.938 5.63333 0
M  V30 12050 N 1130.75 -1.41857 0.686609 0
M  V30 12051 C 1131.71 -2.29187 0.0247022 0
M  V30 12052 C 1132.71 -1.43926 -0.717069 0
M  V30 12053 O 1133.9 -1.65179 -0.5533 0
M  V30 12054 C 1131.03 -3.26644 -0.975537 0
M  V30 12055 H 1132.22 -2.89212 0.793503 0
M  V30 12056 H 1129.78 -1.49694 0.449605 0
M  V30 12057 H 1130.51 -2.7158 -1.77242 0
M  V30 12058 H 1130.3 -3.89545 -0.446892 0
M  V30 12059 H 1131.79 -3.92107 -1.43673 0
M  V30 12060 N 1132.22 -0.430739 -1.51599 0
M  V30 12061 C 1133.47 0.137657 -2.01631 0
M  V30 12062 C 1133.79 1.43787 -1.31721 0
M  V30 12063 O 1133.06 1.90668 -0.449717 0
M  V30 12064 H 1131.64 0.0538611 -0.745056 0
M  V30 12065 H 1134.31 -0.571935 -1.86319 0
M  V30 12066 H 1133.4 0.318305 -3.10473 0
M  V30 12067 N 1133.7 1.56767 -0.161869 0
M  V30 12068 C 1134.67 2.16299 0.758104 0
M  V30 12069 C 1135.67 1.10859 1.16478 0
M  V30 12070 O 1136.86 1.36422 1.08327 0
M  V30 12071 C 1133.99 2.73819 2.03067 0
M  V30 12072 H 1135.18 2.98938 0.239992 0
M  V30 12073 H 1132.73 1.56054 0.0876532 0
M  V30 12074 H 1133.47 1.94887 2.59209 0
M  V30 12075 H 1133.25 3.50974 1.74813 0
M  V30 12076 H 1134.74 3.19638 2.68741 0
M  V30 12077 N 1135.18 -0.111886 1.57202 0
M  V30 12078 C 1136.43 -0.819623 1.85499 0
M  V30 12079 C 1136.76 -1.7919 0.748629 0
M  V30 12080 O 1136.03 -1.92952 -0.244918 0
M  V30 12081 C 1136.32 -1.56324 3.24399 0
M  V30 12082 C 1136.17 -0.610081 4.45643 0
M  V30 12083 C 1137.49 -2.51777 3.60966 0
M  V30 12084 H 1134.61 -0.296512 0.674722 0
M  V30 12085 H 1137.25 -0.0836741 1.89816 0
M  V30 12086 H 1135.4 -2.1906 3.2085 0
M  V30 12087 H 1137.07 0.00898038 4.61299 0
M  V30 12088 H 1135.32 0.0778488 4.3373 0
M  V30 12089 H 1135.99 -1.16718 5.39519 0
M  V30 12090 H 1138.46 -1.99143 3.65351 0
M  V30 12091 H 1137.34 -3.00835 4.59118 0
M  V30 12092 H 1137.6 -3.34769 2.8876 0
M  V30 12093 N 1136.66 -1.52894 -0.382264 0
M  V30 12094 C 1137.88 -1.72453 -1.15216 0
M  V30 12095 C 1138.31 -0.444925 -1.82762 0
M  V30 12096 O 1137.67 0.599825 -1.7109 0
M  V30 12097 C 1137.71 -2.87939 -2.17079 0
M  V30 12098 O 1136.82 -2.55383 -3.23811 0
M  V30 12099 H 1136.16 -0.57324 -0.335099 0
M  V30 12100 H 1138.69 -1.99713 -0.444495 0
M  V30 12101 H 1138.7 -3.13628 -2.60963 0
M  V30 12102 H 1137.37 -3.80765 -1.67305 0
M  V30 12103 H 1135.95 -2.40457 -2.85018 0
M  V30 12104 N 1138.14 0.641106 -1.43971 0
M  V30 12105 C 1139.07 1.76599 -1.44527 0
M  V30 12106 C 1140.05 1.59709 -0.305257 0
M  V30 12107 O 1141.23 1.81728 -0.50071 0
M  V30 12108 C 1138.36 3.14052 -1.26843 0
M  V30 12109 C 1137.41 3.49615 -2.44278 0
M  V30 12110 S 1138.24 3.4822 -4.06821 0
M  V30 12111 C 1139.39 4.8831 -3.91541 0
M  V30 12112 H 1139.63 1.75858 -2.3971 0
M  V30 12113 H 1137.16 0.814834 -1.31148 0
M  V30 12114 H 1139.12 3.93376 -1.17327 0
M  V30 12115 H 1137.78 3.12342 -0.331872 0
M  V30 12116 H 1136.97 4.49611 -2.2774 0
M  V30 12117 H 1136.57 2.77732 -2.50482 0
M  V30 12118 H 1138.87 5.77282 -3.54615 0
M  V30 12119 H 1139.81 5.099 -4.91333 0
M  V30 12120 H 1140.22 4.62414 -3.2378 0
M  V30 12121 N 1139.62 1.30703 0.880598 0
M  V30 12122 C 1140.85 1.22536 1.66339 0
M  V30 12123 C 1141.25 -0.213507 1.87991 0
M  V30 12124 O 1140.6 -1.15236 1.43061 0
M  V30 12125 C 1140.66 1.88798 3.05934 0
M  V30 12126 C 1140.32 3.38131 3.07435 0
M  V30 12127 C 1141.32 4.34053 2.86171 0
M  V30 12128 C 1139 3.79651 3.28893 0
M  V30 12129 C 1141 5.69469 2.86328 0
M  V30 12130 C 1138.69 5.15182 3.2868 0
M  V30 12131 C 1139.68 6.09902 3.07423 0
M  V30 12132 O 1139.37 7.42957 3.07034 0
M  V30 12133 H 1139.1 0.425018 0.525677 0
M  V30 12134 H 1141.66 1.72939 1.1082 0
M  V30 12135 H 1139.89 1.3293 3.63134 0
M  V30 12136 H 1141.58 1.74691 3.66385 0
M  V30 12137 H 1142.34 4.03307 2.69385 0
M  V30 12138 H 1138.22 3.06365 3.44473 0
M  V30 12139 H 1141.77 6.43375 2.69655 0
M  V30 12140 H 1137.66 5.45567 3.45002 0
M  V30 12141 H 1138.43 7.52 3.23169 0
M  V30 12142 N 1141.09 -1.09351 1.1349 0
M  V30 12143 C 1142.03 -2.15852 0.770763 0
M  V30 12144 C 1143.04 -1.61468 -0.207866 0
M  V30 12145 O 1144.23 -1.78496 0.0124385 0
M  V30 12146 C 1141.33 -3.38681 0.121871 0
M  V30 12147 C 1140.5 -4.22477 1.13279 0
M  V30 12148 C 1139.56 -5.23728 0.509448 0
M  V30 12149 O 1138.59 -5.57052 1.16967 0
M  V30 12150 N 1139.79 -5.76041 -0.718159 0
M  V30 12151 H 1142.55 -2.47696 1.6872 0
M  V30 12152 H 1140.11 -1.25074 1.02801 0
M  V30 12153 H 1142.11 -4.03531 -0.307404 0
M  V30 12154 H 1140.68 -3.04718 -0.697527 0
M  V30 12155 H 1139.9 -3.53753 1.73933 0
M  V30 12156 H 1141.18 -4.75288 1.81601 0
M  V30 12157 H 1140.58 -5.51183 -1.27331 0
M  V30 12158 H 1139.14 -6.4262 -1.09008 0
M  V30 12159 N 1142.57 -0.928524 -1.27343 0
M  V30 12160 C 1143.81 -0.576696 -1.96096 0
M  V30 12161 C 1144.18 0.866074 -1.71357 0
M  V30 12162 O 1145.38 1.32621 -2.33805 0
M  V30 12163 C 1143.65 -0.894692 -3.4602 0
M  V30 12164 S 1145.21 -0.651503 -4.33936 0
M  V30 12165 H 1142.02 -0.212847 -0.678393 0
M  V30 12166 H 1144.63 -1.19714 -1.5456 0
M  V30 12167 H 1143.33 -1.94239 -3.61524 0
M  V30 12168 H 1142.86 -0.263478 -3.92517 0
M  V30 12169 H 1144.88 0.490314 -4.93772 0
M  V30 12170 N 1144.05 1.41491 -0.694123 0
M  V30 12171 C 1144.98 2.29197 0.0112742 0
M  V30 12172 C 1145.99 1.44708 0.745877 0
M  V30 12173 O 1147.18 1.68227 0.596821 0
M  V30 12174 C 1144.28 3.22547 1.04004 0
M  V30 12175 C 1143.46 4.35787 0.375347 0
M  V30 12176 C 1142.52 5.09722 1.30652 0
M  V30 12177 O 1141.54 5.63558 0.799459 0
M  V30 12178 N 1142.74 5.1705 2.63893 0
M  V30 12179 H 1145.51 2.90377 -0.741705 0
M  V30 12180 H 1143.07 1.52628 -0.540039 0
M  V30 12181 H 1145.06 3.68878 1.66468 0
M  V30 12182 H 1143.63 2.62685 1.69456 0
M  V30 12183 H 1142.85 3.91857 -0.429145 0
M  V30 12184 H 1144.14 5.08726 -0.0869041 0
M  V30 12185 H 1143.54 4.74756 3.07609 0
M  V30 12186 H 1142.09 5.66962 3.21555 0
M  V30 12187 N 1145.53 0.438773 1.51369 0
M  V30 12188 C 1146.94 -0.0240139 1.86685 0
M  V30 12189 C 1147.29 -1.41816 1.35583 0
M  V30 12190 O 1146.41 -2.04517 0.707232 0
M  V30 12191 C 1147.01 -0.0503527 3.38763 0
M  V30 12192 C 1145.57 -0.457556 3.73609 0
M  V30 12193 C 1144.72 0.348852 2.75097 0
M  V30 12194 H 1147.67 0.654552 1.44573 0
M  V30 12195 H 1147.69 -0.859534 3.70665 0
M  V30 12196 H 1147.2 0.964451 3.75925 0
M  V30 12197 H 1145.3 -1.47791 3.42036 0
M  V30 12198 H 1145.41 -0.181357 4.78757 0
M  V30 12199 H 1143.78 -0.193037 2.53967 0
M  V30 12200 H 1144.56 1.36256 3.15102 0
M  V30 12201 N 1147.01 -1.56678 0.170181 0
M  V30 12202 C 1147.92 -2.21496 -0.773079 0
M  V30 12203 C 1148.93 -1.20626 -1.25401 0
M  V30 12204 O 1150.11 -1.53283 -1.30638 0
M  V30 12205 C 1147.17 -2.8421 -1.98558 0
M  V30 12206 C 1146.23 -4.00278 -1.55164 0
M  V30 12207 C 1145.47 -4.59992 -2.70634 0
M  V30 12208 O 1145.69 -4.18595 -3.87472 0
M  V30 12209 O 1144.62 -5.49881 -2.44775 0
M  V30 12210 H 1148.45 -3.02659 -0.251195 0
M  V30 12211 H 1146.03 -1.49288 -0.0579621 0
M  V30 12212 H 1147.92 -3.2398 -2.69472 0
M  V30 12213 H 1146.59 -2.06045 -2.49654 0
M  V30 12214 H 1145.5 -3.6518 -0.812038 0
M  V30 12215 H 1146.83 -4.80033 -1.0876 0
M  V30 12216 N 1148.48 0.103547 -1.57259 0
M  V30 12217 C 1149.89 0.659006 -1.74683 0
M  V30 12218 C 1150.25 1.79542 -0.791142 0
M  V30 12219 O 1149.37 2.16376 0.0323585 0
M  V30 12220 C 1149.97 1.20222 -3.16752 0
M  V30 12221 C 1148.52 1.70382 -3.35629 0
M  V30 12222 C 1147.67 0.609886 -2.7051 0
M  V30 12223 H 1150.62 -0.122474 -1.58227 0
M  V30 12224 H 1150.64 2.07169 -3.19157 0
M  V30 12225 H 1150.16 0.374901 -3.86285 0
M  V30 12226 H 1148.26 2.55542 -2.71162 0
M  V30 12227 H 1148.37 1.80263 -4.43894 0
M  V30 12228 H 1146.73 1.04728 -2.32173 0
M  V30 12229 H 1147.52 -0.206713 -3.42677 0
M  V30 12230 N 1149.96 1.53094 0.37415 0
M  V30 12231 C 1150.89 1.75199 1.47776 0
M  V30 12232 C 1151.91 0.632627 1.50006 0
M  V30 12233 O 1153.1 0.908688 1.5364 0
M  V30 12234 C 1150.2 1.80909 2.86575 0
M  V30 12235 C 1149.37 3.10432 3.08141 0
M  V30 12236 C 1148.43 3.07495 4.27005 0
M  V30 12237 O 1147.45 3.81319 4.22592 0
M  V30 12238 N 1148.66 2.27715 5.33972 0
M  V30 12239 H 1151.42 2.70423 1.29196 0
M  V30 12240 H 1148.98 1.51766 0.563802 0
M  V30 12241 H 1150.97 1.76432 3.64217 0
M  V30 12242 H 1149.54 0.930074 2.98443 0
M  V30 12243 H 1148.76 3.2828 2.18233 0
M  V30 12244 H 1150.05 3.96047 3.19413 0
M  V30 12245 H 1149.45 1.67231 5.40417 0
M  V30 12246 H 1148.01 2.29065 6.10223 0
M  V30 12247 N 1151.44 -0.633461 1.44309 0
M  V30 12248 C 1152.39 -1.73919 1.47432 0
M  V30 12249 C 1153.37 -1.57258 0.340381 0
M  V30 12250 O 1154.57 -1.67035 0.585529 0
M  V30 12251 C 1151.69 -3.12595 1.41912 0
M  V30 12252 C 1150.78 -3.34734 2.60411 0
M  V30 12253 N 1151.17 -3.2725 3.85669 0
M  V30 12254 C 1149.47 -3.65522 2.55557 0
M  V30 12255 C 1150.17 -3.50013 4.64613 0
M  V30 12256 N 1149.15 -3.72775 3.95651 0
M  V30 12257 H 1152.95 -1.66588 2.42128 0
M  V30 12258 H 1150.46 -0.835844 1.39239 0
M  V30 12259 H 1152.46 -3.91887 1.42233 0
M  V30 12260 H 1151.12 -3.21095 0.482525 0
M  V30 12261 H 1152.13 -3.06221 4.17671 0
M  V30 12262 H 1148.81 -3.81017 1.70682 0
M  V30 12263 H 1150.2 -3.49839 5.73639 0
M  V30 12264 N 1152.92 -1.31168 -0.873655 0
M  V30 12265 C 1154.15 -1.23595 -1.65927 0
M  V30 12266 C 1154.56 0.199349 -1.87745 0
M  V30 12267 O 1153.92 1.13013 -1.43298 0
M  V30 12268 C 1153.97 -1.97268 -3.02932 0
M  V30 12269 O 1153.69 -3.35196 -2.82091 0
M  V30 12270 C 1155.19 -1.9649 -3.97374 0
M  V30 12271 H 1152.41 -0.427228 -0.517414 0
M  V30 12272 H 1154.96 -1.72983 -1.09074 0
M  V30 12273 H 1153.11 -1.51651 -3.56484 0
M  V30 12274 H 1153.52 -3.7266 -3.69087 0
M  V30 12275 H 1155 -2.52557 -4.90835 0
M  V30 12276 H 1155.48 -0.946525 -4.28879 0
M  V30 12277 H 1156.08 -2.4197 -3.49758 0
M  V30 12278 N 1154.4 1.08748 -1.14068 0
M  V30 12279 C 1155.35 2.13762 -0.793087 0
M  V30 12280 C 1156.33 1.59442 0.216123 0
M  V30 12281 O 1157.52 1.7699 0.0189888 0
M  V30 12282 C 1154.65 3.42249 -0.268432 0
M  V30 12283 C 1153.74 4.03459 -1.30696 0
M  V30 12284 N 1154.13 4.39126 -2.51002 0
M  V30 12285 C 1152.43 4.30748 -1.15637 0
M  V30 12286 C 1153.13 4.87438 -3.17457 0
M  V30 12287 N 1152.1 4.85326 -2.44866 0
M  V30 12288 H 1155.91 2.39152 -1.70831 0
M  V30 12289 H 1153.42 1.26046 -1.02403 0
M  V30 12290 H 1155.42 4.169 -0.00113254 0
M  V30 12291 H 1154.08 3.18309 0.641032 0
M  V30 12292 H 1155.09 4.30266 -2.88256 0
M  V30 12293 H 1151.76 4.1638 -0.305636 0
M  V30 12294 H 1153.15 5.24443 -4.20011 0
M  V30 12295 N 1155.87 0.935264 1.26849 0
M  V30 12296 C 1157.12 0.580548 1.94313 0
M  V30 12297 C 1157.45 -0.877205 1.73259 0
M  V30 12298 O 1156.73 -1.62679 1.06611 0
M  V30 12299 C 1157.01 0.916445 3.48243 0
M  V30 12300 C 1156.86 2.42851 3.78607 0
M  V30 12301 C 1158.18 0.427665 4.38017 0
M  V30 12302 H 1155.3 0.21239 0.705733 0
M  V30 12303 H 1157.94 1.16841 1.49827 0
M  V30 12304 H 1156.09 0.416169 3.86265 0
M  V30 12305 H 1157.77 3.00106 3.50335 0
M  V30 12306 H 1156.01 2.8745 3.24892 0
M  V30 12307 H 1156.68 2.61405 4.8618 0
M  V30 12308 H 1159.16 0.856525 4.07189 0
M  V30 12309 H 1158.03 0.691571 5.44526 0
M  V30 12310 H 1158.29 -0.672344 4.36958 0
M  V30 12311 N 1157.35 -1.41121 0.701616 0
M  V30 12312 C 1158.6 -2.00733 0.234682 0
M  V30 12313 C 1158.92 -1.55869 -1.17174 0
M  V30 12314 O 1158.19 -0.791965 -1.79178 0
M  V30 12315 H 1156.77 -0.742288 0.0837745 0
M  V30 12316 H 1159.43 -1.7266 0.904127 0
M  V30 12317 H 1158.53 -3.11041 0.256831 0
M  V30 12318 N 1158.83 -0.446794 -1.51134 0
M  V30 12319 C 1159.76 0.395804 -2.25757 0
M  V30 12320 C 1160.78 0.978178 -1.30137 0
M  V30 12321 O 1161.96 0.87071 -1.55823 0
M  V30 12322 C 1159.06 1.56665 -3.00515 0
M  V30 12323 C 1158.24 1.10146 -4.23305 0
M  V30 12324 C 1157.3 2.14352 -4.80562 0
M  V30 12325 O 1156.32 1.73401 -5.42145 0
M  V30 12326 N 1157.52 3.46932 -4.65423 0
M  V30 12327 H 1160.29 -0.243808 -2.98707 0
M  V30 12328 H 1157.85 -0.276205 -1.59527 0
M  V30 12329 H 1159.84 2.26019 -3.35704 0
M  V30 12330 H 1158.41 2.11142 -2.30516 0
M  V30 12331 H 1157.63 0.234644 -3.93501 0
M  V30 12332 H 1158.92 0.768185 -5.02968 0
M  V30 12333 H 1158.32 3.82929 -4.16391 0
M  V30 12334 H 1156.88 4.12154 -5.04948 0
M  V30 12335 N 1160.31 1.56586 -0.178487 0
M  V30 12336 C 1161.24 2.14168 0.787856 0
M  V30 12337 C 1162.22 1.07374 1.22105 0
M  V30 12338 O 1163.4 1.35391 1.31154 0
M  V30 12339 C 1160.53 2.68708 2.06189 0
M  V30 12340 C 1159.58 3.8794 1.77215 0
M  V30 12341 S 1160.41 5.27274 0.935002 0
M  V30 12342 C 1161.57 5.85224 2.21954 0
M  V30 12343 H 1161.8 2.958 0.298293 0
M  V30 12344 H 1159.33 1.54357 0.0362853 0
M  V30 12345 H 1161.29 3.00777 2.79363 0
M  V30 12346 H 1159.95 1.87149 2.52258 0
M  V30 12347 H 1159.14 4.24453 2.71764 0
M  V30 12348 H 1158.75 3.56795 1.12132 0
M  V30 12349 H 1161.04 5.98575 3.17355 0
M  V30 12350 H 1161.98 6.82162 1.89898 0
M  V30 12351 H 1162.39 5.13697 2.34042 0
M  V30 12352 N 1161.79 -0.095206 1.57312 0
M  V30 12353 C 1162.72 -1.14173 1.98739 0
M  V30 12354 C 1163.73 -1.36323 0.889934 0
M  V30 12355 O 1164.92 -1.34977 1.16805 0
M  V30 12356 C 1162.02 -2.49729 2.29104 0
M  V30 12357 C 1161.19 -2.47857 3.60396 0
M  V30 12358 C 1160.25 -3.65341 3.78699 0
M  V30 12359 O 1159.28 -3.47837 4.50553 0
M  V30 12360 N 1160.48 -4.84818 3.19268 0
M  V30 12361 H 1163.25 -0.789126 2.89124 0
M  V30 12362 H 1160.81 -0.284187 1.59386 0
M  V30 12363 H 1162.8 -3.26925 2.38541 0
M  V30 12364 H 1161.37 -2.7708 1.44726 0
M  V30 12365 H 1160.59 -1.56208 3.61929 0
M  V30 12366 H 1161.88 -2.43685 4.46649 0
M  V30 12367 H 1161.27 -5.01943 2.60902 0
M  V30 12368 H 1159.83 -5.59607 3.34191 0
M  V30 12369 N 1163.26 -1.53291 -0.366026 0
M  V30 12370 C 1164.49 -1.73108 -1.1277 0
M  V30 12371 C 1164.9 -0.459662 -1.83531 0
M  V30 12372 O 1164.25 0.577151 -1.74398 0
M  V30 12373 C 1164.31 -2.84137 -2.20242 0
M  V30 12374 C 1163.97 -4.24503 -1.69252 0
M  V30 12375 C 1164.97 -5.06866 -1.15684 0
M  V30 12376 C 1162.65 -4.70912 -1.74778 0
M  V30 12377 C 1164.65 -6.33728 -0.683191 0
M  V30 12378 C 1162.33 -5.97752 -1.27025 0
M  V30 12379 C 1163.33 -6.78992 -0.738858 0
M  V30 12380 O 1163.02 -8.03452 -0.268375 0
M  V30 12381 H 1162.75 -0.582439 -0.343134 0
M  V30 12382 H 1165.31 -2.00828 -0.430969 0
M  V30 12383 H 1163.54 -2.5189 -2.93408 0
M  V30 12384 H 1165.23 -2.92136 -2.818 0
M  V30 12385 H 1165.99 -4.72185 -1.10753 0
M  V30 12386 H 1161.87 -4.07751 -2.15081 0
M  V30 12387 H 1165.41 -6.97086 -0.267746 0
M  V30 12388 H 1161.31 -6.31933 -1.31649 0
M  V30 12389 H 1162.08 -8.17581 -0.387745 0
M  V30 12390 N 1164.74 0.6258 -1.44643 0
M  V30 12391 C 1165.69 1.75869 -1.52226 0
M  V30 12392 C 1166.68 1.64765 -0.39355 0
M  V30 12393 O 1167.89 1.70779 -0.568718 0
M  V30 12394 H 1164.27 0.580712 -0.477784 0
M  V30 12395 H 1166.24 1.66596 -2.47565 0
M  V30 12396 C 1164.99 3.14217 -1.48873 0
M  V30 12397 H 1164.31 3.23411 -2.35043 0
M  V30 12398 H 1165.75 3.93365 -1.58239 0
M  V30 12399 C 1164.21 3.36243 -0.210299 0
M  V30 12400 O 1164.74 3.95243 0.717335 0
M  V30 12401 N 1162.94 2.90385 -0.111744 0
M  V30 12402 H 1162.49 2.42555 -0.867466 0
M  V30 12403 H 1162.45 3.05498 0.742871 0
M  V30 12404 N 1166.22 1.31629 0.866686 0
M  V30 12405 C 1167.63 1.19347 1.43573 0
M  V30 12406 C 1167.98 -0.198765 1.95191 0
M  V30 12407 O 1167.11 -1.09674 1.86549 0
M  V30 12408 C 1167.7 2.16055 2.6097 0
M  V30 12409 C 1166.26 2.07697 3.13909 0
M  V30 12410 C 1165.41 2.05099 1.86627 0
M  V30 12411 H 1168.36 1.43633 0.674929 0
M  V30 12412 H 1168.38 1.75207 3.37761 0
M  V30 12413 H 1167.89 3.17375 2.23371 0
M  V30 12414 H 1165.99 1.09583 3.56121 0
M  V30 12415 H 1166.11 2.96958 3.75969 0
M  V30 12416 H 1164.47 1.50162 2.05727 0
M  V30 12417 H 1165.25 3.0818 1.51261 0
M  V30 12418 N 1167.7 -1.08142 1.14644 0
M  V30 12419 C 1168.95 -1.80849 0.917685 0
M  V30 12420 C 1169.28 -1.86123 -0.554249 0
M  V30 12421 O 1168.55 -1.33907 -1.41065 0
M  V30 12422 C 1168.84 -3.26325 1.52264 0
M  V30 12423 C 1168.69 -3.29244 3.06461 0
M  V30 12424 C 1170.01 -4.23375 1.20175 0
M  V30 12425 H 1167.13 -0.656559 0.334812 0
M  V30 12426 H 1169.77 -1.26595 1.41682 0
M  V30 12427 H 1167.92 -3.72656 1.09817 0
M  V30 12428 H 1169.59 -2.91216 3.57758 0
M  V30 12429 H 1167.83 -2.68438 3.40769 0
M  V30 12430 H 1168.51 -4.31785 3.43897 0
M  V30 12431 H 1170.98 -3.85394 1.56877 0
M  V30 12432 H 1169.86 -5.23472 1.65132 0
M  V30 12433 H 1170.12 -4.41944 0.117474 0
M  V30 12434 N 1169.18 -0.941978 -1.26351 0
M  V30 12435 C 1170.11 -0.469913 -2.28723 0
M  V30 12436 C 1171.09 0.477218 -1.63269 0
M  V30 12437 O 1172.27 0.378902 -1.90468 0
M  V30 12438 C 1169.4 0.264971 -3.46288 0
M  V30 12439 C 1168.36 -0.595682 -4.23834 0
M  V30 12440 C 1167.68 0.269208 -5.34022 0
M  V30 12441 C 1168.98 -1.86743 -4.87775 0
M  V30 12442 H 1170.68 -1.32551 -2.6846 0
M  V30 12443 H 1168.22 -0.638809 -1.29055 0
M  V30 12444 H 1170.18 0.606259 -4.17016 0
M  V30 12445 H 1168.9 1.15471 -3.05506 0
M  V30 12446 H 1167.56 -0.919875 -3.54872 0
M  V30 12447 H 1167.21 1.15832 -4.89481 0
M  V30 12448 H 1166.91 -0.30325 -5.86817 0
M  V30 12449 H 1168.43 0.605748 -6.07588 0
M  V30 12450 H 1169.85 -1.59333 -5.50714 0
M  V30 12451 H 1168.24 -2.38452 -5.50691 0
M  V30 12452 H 1169.31 -2.57831 -4.10671 0
M  V30 12453 N 1170.66 1.40747 -0.709091 0
M  V30 12454 C 1172.07 1.83955 -0.318968 0
M  V30 12455 C 1172.42 1.59304 1.14527 0
M  V30 12456 O 1171.54 1.07052 1.88066 0
M  V30 12457 C 1172.14 3.33934 -0.572147 0
M  V30 12458 C 1170.7 3.75661 -0.235802 0
M  V30 12459 C 1169.84 2.64024 -0.847743 0
M  V30 12460 H 1172.79 1.30107 -0.908734 0
M  V30 12461 H 1172.82 3.80143 0.164752 0
M  V30 12462 H 1172.33 3.51844 -1.63791 0
M  V30 12463 H 1170.43 3.63348 0.825164 0
M  V30 12464 H 1170.54 4.73955 -0.700263 0
M  V30 12465 H 1168.91 2.53197 -0.276283 0
M  V30 12466 H 1169.69 2.84748 -1.91765 0
M  V30 12467 N 1172.13 0.454803 1.50895 0
M  V30 12468 C 1173.38 -0.105562 2.01824 0
M  V30 12469 C 1173.7 -1.41673 1.33992 0
M  V30 12470 O 1172.97 -1.89929 0.479994 0
M  V30 12471 H 1171.55 -0.0420011 0.745818 0
M  V30 12472 H 1174.21 0.601504 1.85386 0
M  V30 12473 H 1173.31 -0.268872 3.1094 0
M  V30 12474 N 1173.61 -1.56489 0.186789 0
M  V30 12475 C 1174.54 -2.15911 -0.769104 0
M  V30 12476 C 1175.56 -1.11872 -1.18273 0
M  V30 12477 O 1176.75 -1.38999 -1.1199 0
M  V30 12478 C 1173.85 -2.69957 -2.04882 0
M  V30 12479 C 1173.02 -3.98812 -1.79631 0
M  V30 12480 C 1172.08 -4.37767 -2.9197 0
M  V30 12481 O 1171.1 -5.0535 -2.61935 0
M  V30 12482 N 1172.31 -4.0059 -4.20128 0
M  V30 12483 H 1175.07 -2.98561 -0.261007 0
M  V30 12484 H 1172.63 -1.61899 0.00453357 0
M  V30 12485 H 1174.62 -2.93006 -2.79158 0
M  V30 12486 H 1173.19 -1.91808 -2.46837 0
M  V30 12487 H 1172.41 -3.8398 -0.891776 0
M  V30 12488 H 1173.7 -4.82939 -1.60148 0
M  V30 12489 H 1173.1 -3.46213 -4.47385 0
M  V30 12490 H 1171.66 -4.28608 -4.91059 0
M  V30 12491 N 1175.09 0.086862 -1.5736 0
M  V30 12492 C 1176.02 1.13117 -1.99342 0
M  V30 12493 C 1177.03 1.35849 -0.897151 0
M  V30 12494 O 1178.22 1.34356 -1.17519 0
M  V30 12495 C 1175.32 2.48511 -2.30425 0
M  V30 12496 C 1174.5 2.45942 -3.61706 0
M  V30 12497 C 1173.56 3.63327 -3.80631 0
M  V30 12498 O 1172.58 3.45443 -4.52392 0
M  V30 12499 N 1173.78 4.83118 -3.21835 0
M  V30 12500 H 1176.55 0.773782 -2.89539 0
M  V30 12501 H 1174.11 0.275731 -1.59535 0
M  V30 12502 H 1176.1 3.25656 -2.40272 0
M  V30 12503 H 1174.67 2.76308 -1.46194 0
M  V30 12504 H 1173.89 1.54287 -3.62752 0
M  V30 12505 H 1175.18 2.41313 -4.47935 0
M  V30 12506 H 1174.58 5.00552 -2.6356 0
M  V30 12507 H 1173.13 5.57827 -3.37154 0
M  V30 12508 N 1176.57 1.53483 0.357892 0
M  V30 12509 C 1177.53 1.79782 1.42166 0
M  V30 12510 C 1178.53 0.668441 1.46248 0
M  V30 12511 O 1179.72 0.936677 1.46874 0
M  V30 12512 C 1176.85 1.92686 2.8122 0
M  V30 12513 H 1178.05 2.74794 1.20117 0
M  V30 12514 H 1175.6 1.44677 0.591468 0
M  V30 12515 H 1176.33 0.997669 3.08573 0
M  V30 12516 H 1176.12 2.74837 2.79655 0
M  V30 12517 H 1177.61 2.14599 3.58242 0
M  V30 12518 N 1178.05 -0.61812 1.44973 0
M  V30 12519 C 1179.29 -1.3774 1.48439 0
M  V30 12520 C 1179.62 -1.94117 0.121999 0
M  V30 12521 O 1178.88 -1.749 -0.877974 0
M  V30 12522 C 1179.17 -2.55143 2.50274 0
M  V30 12523 C 1178.84 -2.16976 3.95262 0
M  V30 12524 C 1177.5 -2.06281 4.34743 0
M  V30 12525 C 1179.85 -1.8703 4.86486 0
M  V30 12526 C 1177.18 -1.63846 5.63357 0
M  V30 12527 C 1179.53 -1.46085 6.15501 0
M  V30 12528 C 1178.2 -1.3394 6.53924 0
M  V30 12529 H 1177.47 -0.504026 0.543175 0
M  V30 12530 H 1180.12 -0.699685 1.7826 0
M  V30 12531 H 1178.42 -3.28205 2.13983 0
M  V30 12532 H 1180.12 -3.13373 2.50197 0
M  V30 12533 H 1176.71 -2.26223 3.64034 0
M  V30 12534 H 1180.89 -1.94196 4.56729 0
M  V30 12535 H 1176.15 -1.53058 5.91932 0
M  V30 12536 H 1180.32 -1.21956 6.85638 0
M  V30 12537 H 1177.95 -1.00832 7.53483 0
M  V30 12538 N 1179.52 -1.32087 -0.859693 0
M  V30 12539 C 1180.45 -1.23204 -1.98351 0
M  V30 12540 C 1181.43 -0.116974 -1.69697 0
M  V30 12541 O 1182.62 -0.303301 -1.91817 0
M  V30 12542 C 1179.75 -0.949171 -3.34078 0
M  V30 12543 C 1178.7 -2.02493 -3.77069 0
M  V30 12544 C 1178.03 -1.59455 -5.1037 0
M  V30 12545 C 1179.33 -3.43934 -3.93074 0
M  V30 12546 H 1181.02 -2.17227 -2.0604 0
M  V30 12547 H 1178.57 -1.04577 -0.989931 0
M  V30 12548 H 1180.52 -0.873594 -4.12245 0
M  V30 12549 H 1179.25 0.0267095 -3.26589 0
M  V30 12550 H 1177.91 -2.09057 -3.01149 0
M  V30 12551 H 1177.55 -0.606256 -4.99333 0
M  V30 12552 H 1177.25 -2.31429 -5.40106 0
M  V30 12553 H 1178.78 -1.53325 -5.91036 0
M  V30 12554 H 1180.19 -3.39986 -4.61608 0
M  V30 12555 H 1178.59 -4.14214 -4.3422 0
M  V30 12556 H 1179.66 -3.83965 -2.9614 0
M  V30 12557 N 1181 1.07532 -1.15215 0
M  V30 12558 C 1181.95 2.16785 -0.843022 0
M  V30 12559 C 1182.94 1.68411 0.182802 0
M  V30 12560 O 1184.15 1.7996 0.0380164 0
M  V30 12561 H 1180.52 0.707465 -0.254945 0
M  V30 12562 H 1182.5 2.40078 -1.77215 0
M  V30 12563 C 1181.24 3.45967 -0.346699 0
M  V30 12564 H 1180.57 3.83574 -1.12744 0
M  V30 12565 H 1182.01 4.23663 -0.169039 0
M  V30 12566 C 1180.47 3.23768 0.931437 0
M  V30 12567 O 1181 3.48179 2.00336 0
M  V30 12568 N 1179.2 2.77264 0.870217 0
M  V30 12569 H 1178.75 2.576 -0.00226223 0
M  V30 12570 H 1178.71 2.6279 1.72594 0
M  V30 12571 N 1182.48 0.948665 1.2585 0
M  V30 12572 C 1183.43 0.462904 2.2611 0
M  V30 12573 C 1184.4 -0.481433 1.5897 0
M  V30 12574 O 1185.58 -0.395997 1.86645 0
M  V30 12575 C 1182.72 -0.258808 3.44128 0
M  V30 12576 C 1181.84 0.722072 4.25923 0
M  V30 12577 C 1180.97 -0.0215958 5.31196 0
M  V30 12578 C 1180.01 0.950612 6.04673 0
M  V30 12579 N 1179.15 0.238209 7.01696 0
M  V30 12580 H 1183.99 1.32279 2.67032 0
M  V30 12581 H 1181.52 0.663485 1.31287 0
M  V30 12582 H 1183.48 -0.693759 4.11391 0
M  V30 12583 H 1182.11 -1.08278 3.04098 0
M  V30 12584 H 1181.16 1.27552 3.58378 0
M  V30 12585 H 1182.48 1.46421 4.76825 0
M  V30 12586 H 1181.63 -0.51547 6.04506 0
M  V30 12587 H 1180.37 -0.796563 4.81151 0
M  V30 12588 H 1179.37 1.45554 5.30183 0
M  V30 12589 H 1180.6 1.72571 6.56808 0
M  V30 12590 H 1178.54 -0.518129 6.53951 0
M  V30 12591 H 1178.46 0.919542 7.50387 0
M  V30 12592 H 1179.73 -0.234325 7.79148 0
M  V30 12593 N 1183.96 -1.40369 0.716545 0
M  V30 12594 C 1185.21 -2.00869 0.256466 0
M  V30 12595 C 1185.53 -1.56816 -1.15061 0
M  V30 12596 O 1184.79 -0.779696 -1.79497 0
M  V30 12597 C 1185.09 -3.56257 0.285583 0
M  V30 12598 C 1184.75 -4.19897 1.64309 0
M  V30 12599 C 1183.42 -4.36994 2.01469 0
M  V30 12600 C 1185.77 -4.55385 2.53524 0
M  V30 12601 C 1183.1 -4.86862 3.27387 0
M  V30 12602 C 1185.45 -5.06653 3.78795 0
M  V30 12603 C 1184.11 -5.21959 4.16071 0
M  V30 12604 H 1183.38 -0.735033 0.0938475 0
M  V30 12605 H 1186.03 -1.67966 0.919765 0
M  V30 12606 H 1184.33 -3.89075 -0.461287 0
M  V30 12607 H 1186.03 -4.00903 -0.0882496 0
M  V30 12608 H 1182.62 -4.06978 1.34413 0
M  V30 12609 H 1186.8 -4.41811 2.2609 0
M  V30 12610 H 1182.06 -4.96897 3.56235 0
M  V30 12611 H 1186.23 -5.33089 4.48095 0
M  V30 12612 H 1183.86 -5.60362 5.1371 0
M  V30 12613 N 1185.44 -0.462799 -1.50652 0
M  V30 12614 C 1186.37 0.371837 -2.26164 0
M  V30 12615 C 1187.38 0.96432 -1.31167 0
M  V30 12616 O 1188.57 0.854134 -1.56738 0
M  V30 12617 C 1185.67 1.53469 -3.0216 0
M  V30 12618 C 1184.84 1.0565 -4.24449 0
M  V30 12619 C 1183.9 2.09243 -4.82808 0
M  V30 12620 O 1182.93 1.67641 -5.43953 0
M  V30 12621 N 1184.13 3.41976 -4.69076 0
M  V30 12622 H 1186.9 -0.275476 -2.98431 0
M  V30 12623 H 1184.46 -0.293109 -1.59225 0
M  V30 12624 H 1186.45 2.22446 -3.38083 0
M  V30 12625 H 1185.02 2.08685 -2.32743 0
M  V30 12626 H 1184.24 0.192895 -3.93728 0
M  V30 12627 H 1185.53 0.714796 -5.03754 0
M  V30 12628 H 1184.92 3.78491 -4.20429 0
M  V30 12629 H 1183.48 4.06775 -5.09291 0
M  V30 12630 N 1186.91 1.56388 -0.195085 0
M  V30 12631 C 1187.86 2.20431 0.742484 0
M  V30 12632 C 1188.86 1.17548 1.21979 0
M  V30 12633 O 1190.06 1.35693 1.18269 0
M  V30 12634 H 1186.44 0.706435 0.257786 0
M  V30 12635 H 1188.41 2.97865 0.178624 0
M  V30 12636 C 1187.16 2.87772 1.95147 0
M  V30 12637 H 1186.48 3.66681 1.59326 0
M  V30 12638 H 1187.92 3.36021 2.58585 0
M  V30 12639 C 1186.38 1.88807 2.79022 0
M  V30 12640 O 1186.91 1.38836 3.76945 0
M  V30 12641 N 1185.12 1.57037 2.44515 0
M  V30 12642 H 1184.66 1.97868 1.64943 0
M  V30 12643 H 1184.62 0.910776 3.00919 0
M  V30 12644 N 1188.39 -0.0785156 1.57404 0
M  V30 12645 C 1189.64 -0.777399 1.8655 0
M  V30 12646 C 1189.96 -1.78451 0.786142 0
M  V30 12647 O 1189.23 -1.95016 -0.185911 0
M  V30 12648 H 1187.81 -0.290097 0.688369 0
M  V30 12649 H 1190.47 -0.0562017 1.94819 0
M  V30 12650 H 1189.57 -1.29776 2.83839 0
M  V30 12651 N 1189.87 -1.5367 -0.349747 0
M  V30 12652 C 1191.12 -1.7087 -1.0923 0
M  V30 12653 C 1191.45 -0.467299 -1.88494 0
M  V30 12654 O 1190.72 0.535619 -1.8698 0
M  V30 12655 C 1191.01 -2.9684 -2.03858 0
M  V30 12656 C 1190.86 -4.31174 -1.28097 0
M  V30 12657 C 1192.18 -3.18459 -3.03763 0
M  V30 12658 H 1189.3 -0.621757 -0.395711 0
M  V30 12659 H 1191.94 -1.86333 -0.371481 0
M  V30 12660 H 1190.09 -2.83788 -2.65323 0
M  V30 12661 H 1191.76 -4.56066 -0.692933 0
M  V30 12662 H 1190.01 -4.29866 -0.582924 0
M  V30 12663 H 1190.68 -5.15482 -1.9744 0
M  V30 12664 H 1193.15 -3.30801 -2.52409 0
M  V30 12665 H 1192.03 -4.08006 -3.67182 0
M  V30 12666 H 1192.29 -2.34467 -3.74803 0
M  V30 12667 N 1191.35 0.610423 -1.45298 0
M  V30 12668 C 1192.28 1.73207 -1.56594 0
M  V30 12669 C 1193.26 1.64893 -0.417651 0
M  V30 12670 O 1194.44 1.83336 -0.64043 0
M  V30 12671 C 1191.57 3.11803 -1.52959 0
M  V30 12672 C 1190.53 3.34925 -2.66475 0
M  V30 12673 C 1189.85 4.73764 -2.47894 0
M  V30 12674 C 1191.15 3.25456 -4.08504 0
M  V30 12675 H 1192.85 1.6401 -2.50482 0
M  V30 12676 H 1190.39 0.787621 -1.20551 0
M  V30 12677 H 1192.35 3.90065 -1.59458 0
M  V30 12678 H 1191.07 3.21833 -0.55599 0
M  V30 12679 H 1189.73 2.59051 -2.59399 0
M  V30 12680 H 1189.38 4.80524 -1.4868 0
M  V30 12681 H 1189.08 4.90191 -3.24016 0
M  V30 12682 H 1190.6 5.54231 -2.56243 0
M  V30 12683 H 1192.02 3.93597 -4.16839 0
M  V30 12684 H 1190.41 3.53414 -4.84994 0
M  V30 12685 H 1191.48 2.22939 -4.30612 0
M  V30 12686 N 1192.83 1.32541 0.852676 0
M  V30 12687 C 1193.77 1.21602 1.98282 0
M  V30 12688 C 1194.77 0.120384 1.68972 0
M  V30 12689 O 1195.97 0.283441 1.77754 0
M  V30 12690 H 1192.35 0.376994 0.650676 0
M  V30 12691 H 1194.32 2.17179 2.04636 0
M  V30 12692 C 1193.07 0.957965 3.34243 0
M  V30 12693 H 1192.39 1.79324 3.57327 0
M  V30 12694 H 1193.83 0.921673 4.13861 0
M  V30 12695 C 1192.29 -0.339271 3.35187 0
M  V30 12696 O 1192.82 -1.3505 3.78318 0
M  V30 12697 N 1191.03 -0.361944 2.88337 0
M  V30 12698 H 1190.57 0.461497 2.53432 0
M  V30 12699 H 1190.53 -1.22976 2.89352 0
M  V30 12700 N 1194.3 -1.0692 1.15784 0
M  V30 12701 C 1195.21 -2.17762 0.872753 0
M  V30 12702 C 1196.23 -1.73329 -0.152608 0
M  V30 12703 O 1197.41 -2.01387 0.022519 0
M  V30 12704 C 1194.47 -3.4471 0.370887 0
M  V30 12705 C 1193.53 -4.03686 1.46069 0
M  V30 12706 C 1192.77 -5.24575 0.982675 0
M  V30 12707 O 1192.99 -5.70146 -0.17006 0
M  V30 12708 O 1191.92 -5.7534 1.76828 0
M  V30 12709 H 1195.75 -2.44648 1.79948 0
M  V30 12710 H 1193.33 -1.1634 0.937303 0
M  V30 12711 H 1195.22 -4.21287 0.0976779 0
M  V30 12712 H 1193.89 -3.19366 -0.527912 0
M  V30 12713 H 1192.8 -3.28629 1.78756 0
M  V30 12714 H 1194.13 -4.33312 2.33456 0
M  V30 12715 N 1195.78 -0.955326 -1.25345 0
M  V30 12716 C 1197.01 -0.627693 -1.97149 0
M  V30 12717 C 1197.43 0.800349 -1.70997 0
M  V30 12718 O 1196.78 1.53545 -0.986417 0
M  V30 12719 C 1196.83 -0.877675 -3.50684 0
M  V30 12720 O 1196.55 -2.24957 -3.75934 0
M  V30 12721 C 1198.06 -0.562524 -4.39716 0
M  V30 12722 H 1195.28 -0.235269 -0.628402 0
M  V30 12723 H 1197.82 -1.27989 -1.59496 0
M  V30 12724 H 1195.97 -0.271878 -3.86445 0
M  V30 12725 H 1196.39 -2.32022 -4.70389 0
M  V30 12726 H 1197.86 -0.787972 -5.46347 0
M  V30 12727 H 1198.34 0.50293 -4.36311 0
M  V30 12728 H 1198.95 -1.14767 -4.09522 0
M  V30 12729 N 1197.26 1.39987 -0.723979 0
M  V30 12730 C 1198.49 2.0474 -0.276618 0
M  V30 12731 C 1198.9 1.54675 1.0896 0
M  V30 12732 O 1198.24 0.701956 1.69759 0
M  V30 12733 C 1198.3 3.59009 -0.187912 0
M  V30 12734 C 1197.97 4.32 -1.49079 0
M  V30 12735 C 1198.97 4.59385 -2.43436 0
M  V30 12736 C 1196.65 4.70753 -1.75204 0
M  V30 12737 C 1198.64 5.24519 -3.62159 0
M  V30 12738 C 1196.33 5.35617 -2.94206 0
M  V30 12739 C 1197.33 5.62431 -3.87506 0
M  V30 12740 O 1197.02 6.25952 -5.0442 0
M  V30 12741 H 1196.75 0.665164 -0.120554 0
M  V30 12742 H 1199.3 1.80226 -0.98527 0
M  V30 12743 H 1197.53 3.82375 0.576753 0
M  V30 12744 H 1199.22 4.0527 0.225993 0
M  V30 12745 H 1199.99 4.29902 -2.24519 0
M  V30 12746 H 1195.87 4.49247 -1.03433 0
M  V30 12747 H 1199.41 5.45364 -4.34999 0
M  V30 12748 H 1195.31 5.64521 -3.13029 0
M  V30 12749 H 1196.08 6.44448 -5.04608 0
M  V30 12750 N 1198.74 0.470782 1.50404 0
M  V30 12751 C 1200.15 0.0155901 1.86693 0
M  V30 12752 C 1200.5 -1.38908 1.38561 0
M  V30 12753 O 1199.63 -2.02971 0.750454 0
M  V30 12754 C 1200.22 0.0215152 3.38793 0
M  V30 12755 C 1198.78 -0.378206 3.74495 0
M  V30 12756 C 1197.93 0.407126 2.74295 0
M  V30 12757 H 1200.88 0.68507 1.43152 0
M  V30 12758 H 1200.9 -0.780717 3.72404 0
M  V30 12759 H 1200.41 1.04397 3.73795 0
M  V30 12760 H 1198.51 -1.40503 3.45094 0
M  V30 12761 H 1198.63 -0.0797643 4.79034 0
M  V30 12762 H 1196.99 -0.139123 2.5432 0
M  V30 12763 H 1197.77 1.42909 3.12141 0
M  V30 12764 N 1200.22 -1.56282 0.203376 0
M  V30 12765 C 1201.18 -2.18233 -0.700489 0
M  V30 12766 C 1202.18 -1.13908 -1.13497 0
M  V30 12767 O 1203.37 -1.39246 -1.04672 0
M  V30 12768 C 1200.5 -2.79107 -1.95735 0
M  V30 12769 H 1201.7 -2.99469 -0.160649 0
M  V30 12770 H 1199.25 -1.56232 -0.0462475 0
M  V30 12771 H 1199.98 -2.01691 -2.53951 0
M  V30 12772 H 1199.77 -3.55486 -1.65446 0
M  V30 12773 H 1201.26 -3.2665 -2.60172 0
M  V30 12774 N 1201.7 0.070167 -1.57444 0
M  V30 12775 C 1202.61 1.10106 -2.07157 0
M  V30 12776 C 1203.62 1.42293 -1.00143 0
M  V30 12777 O 1204.8 1.52437 -1.31624 0
M  V30 12778 C 1201.86 2.39486 -2.50694 0
M  V30 12779 C 1200.92 2.14255 -3.72012 0
M  V30 12780 C 1200.16 3.37466 -4.13464 0
M  V30 12781 O 1200.38 4.46645 -3.54773 0
M  V30 12782 O 1199.31 3.25583 -5.0624 0
M  V30 12783 H 1203.14 0.70873 -2.95315 0
M  V30 12784 H 1200.72 0.28441 -1.46668 0
M  V30 12785 H 1202.61 3.15625 -2.79212 0
M  V30 12786 H 1201.28 2.78095 -1.65664 0
M  V30 12787 H 1200.19 1.35816 -3.48575 0
M  V30 12788 H 1201.52 1.80525 -4.57899 0
M  V30 12789 N 1203.17 1.53854 0.341593 0
M  V30 12790 C 1204.1 1.84966 1.42513 0
M  V30 12791 C 1205.08 0.704944 1.54805 0
M  V30 12792 O 1206.27 0.957036 1.68981 0
M  V30 12793 C 1203.4 2.06099 2.79536 0
M  V30 12794 C 1202.35 3.21919 2.82049 0
M  V30 12795 C 1201.68 3.28389 4.21977 0
M  V30 12796 C 1202.98 4.59984 2.4741 0
M  V30 12797 H 1204.67 2.7571 1.16724 0
M  V30 12798 H 1202.22 1.32662 0.560073 0
M  V30 12799 H 1204.17 2.26448 3.55386 0
M  V30 12800 H 1202.9 1.12087 3.06764 0
M  V30 12801 H 1201.56 3.01429 2.08653 0
M  V30 12802 H 1201.2 2.3197 4.46317 0
M  V30 12803 H 1200.9 4.0622 4.24569 0
M  V30 12804 H 1202.43 3.50951 4.99666 0
M  V30 12805 H 1203.84 4.80334 3.12973 0
M  V30 12806 H 1202.24 5.40233 2.61282 0
M  V30 12807 H 1203.31 4.6346 1.42594 0
M  V30 12808 N 1204.65 -0.602709 1.4562 0
M  V30 12809 C 1205.6 -1.73425 1.55005 0
M  V30 12810 C 1206.59 -1.64118 0.419713 0
M  V30 12811 O 1207.8 -1.69853 0.595815 0
M  V30 12812 H 1204.17 -0.573038 0.486962 0
M  V30 12813 H 1206.15 -1.62637 2.50184 0
M  V30 12814 C 1204.89 -3.11808 1.53853 0
M  V30 12815 H 1204.22 -3.19631 2.40158 0
M  V30 12816 H 1205.66 -3.90798 1.64477 0
M  V30 12817 C 1204.12 -3.35866 0.263765 0
M  V30 12818 O 1204.65 -3.96334 -0.654364 0
M  V30 12819 N 1202.85 -2.90171 0.157927 0
M  V30 12820 H 1202.4 -2.41144 0.905944 0
M  V30 12821 H 1202.36 -3.06641 -0.694175 0
M  V30 12822 N 1206.13 -1.32992 -0.845635 0
M  V30 12823 C 1207.08 -1.22652 -1.97634 0
M  V30 12824 C 1208.07 -0.129344 -1.68905 0
M  V30 12825 O 1209.28 -0.292863 -1.77602 0
M  V30 12826 H 1205.65 -0.380439 -0.648668 0
M  V30 12827 H 1207.62 -2.18261 -2.03481 0
M  V30 12828 C 1206.37 -0.975677 -3.3373 0
M  V30 12829 H 1205.7 -1.81217 -3.56371 0
M  V30 12830 H 1207.14 -0.943608 -4.13367 0
M  V30 12831 C 1205.59 0.321491 -3.35363 0
M  V30 12832 O 1206.12 1.33042 -3.79029 0
M  V30 12833 N 1204.33 0.346648 -2.88525 0
M  V30 12834 H 1203.88 -0.474931 -2.53184 0
M  V30 12835 H 1203.84 1.2144 -2.9 0
M  V30 12836 N 1207.61 1.06304 -1.1635 0
M  V30 12837 C 1208.86 1.78487 -0.939423 0
M  V30 12838 C 1209.17 1.8817 0.533998 0
M  V30 12839 O 1210.38 2.56981 0.875962 0
M  V30 12840 C 1208.83 3.20796 -1.63149 0
M  V30 12841 C 1208.44 3.19281 -3.14267 0
M  V30 12842 C 1210.18 3.97514 -1.48938 0
M  V30 12843 C 1208.09 4.56309 -3.76213 0
M  V30 12844 H 1207.02 0.668973 -0.347837 0
M  V30 12845 H 1209.67 1.19237 -1.3948 0
M  V30 12846 H 1208.05 3.80305 -1.10382 0
M  V30 12847 H 1209.23 2.69356 -3.73877 0
M  V30 12848 H 1207.54 2.56062 -3.28362 0
M  V30 12849 H 1210.14 4.98808 -1.926 0
M  V30 12850 H 1210.48 4.13986 -0.438319 0
M  V30 12851 H 1211.02 3.44528 -1.98861 0
M  V30 12852 H 1207.75 4.45042 -4.81267 0
M  V30 12853 H 1207.27 5.06429 -3.21388 0
M  V30 12854 H 1208.95 5.25266 -3.77762 0
M  V30 12855 N 1209.09 0.96196 1.24836 0
M  V30 12856 C 1210.03 0.479282 2.27609 0
M  V30 12857 C 1211.03 -0.454224 1.63197 0
M  V30 12858 O 1212.23 -0.330146 1.76946 0
M  V30 12859 H 1208.61 0.13651 0.739506 0
M  V30 12860 H 1210.58 1.35817 2.657 0
M  V30 12861 C 1209.33 -0.220499 3.47 0
M  V30 12862 H 1208.65 0.488694 3.96802 0
M  V30 12863 H 1210.09 -0.522137 4.20773 0
M  V30 12864 C 1208.55 -1.44552 3.04313 0
M  V30 12865 O 1209.08 -2.54287 3.10967 0
M  V30 12866 N 1207.29 -1.3095 2.59423 0
M  V30 12867 H 1206.83 -0.416656 2.54208 0
M  V30 12868 H 1206.79 -2.13029 2.31227 0
M  V30 12869 N 1210.56 -1.39601 0.731392 0
M  V30 12870 C 1211.51 -2.32469 0.0781328 0
M  V30 12871 C 1212.51 -1.52873 -0.729811 0
M  V30 12872 O 1213.71 -1.68563 -0.631402 0
M  V30 12873 H 1210.09 -0.751972 0.00646515 0
M  V30 12874 H 1212.06 -2.85196 0.877833 0
M  V30 12875 C 1210.81 -3.37948 -0.817717 0
M  V30 12876 H 1210.13 -3.99272 -0.205417 0
M  V30 12877 H 1211.57 -4.05387 -1.24248 0
M  V30 12878 C 1210.03 -2.74703 -1.95038 0
M  V30 12879 O 1210.56 -2.62266 -3.04269 0
M  V30 12880 N 1208.76 -2.32845 -1.73872 0
M  V30 12881 H 1208.31 -2.43161 -0.850321 0
M  V30 12882 H 1208.27 -1.90869 -2.49833 0
M  V30 12883 N 1212.04 -0.478751 -1.50152 0
M  V30 12884 C 1213.27 0.0710485 -2.06778 0
M  V30 12885 C 1213.69 1.32826 -1.34174 0
M  V30 12886 O 1213.04 1.77758 -0.413304 0
M  V30 12887 C 1213.09 0.351351 -3.59789 0
M  V30 12888 O 1212.81 -0.855998 -4.29656 0
M  V30 12889 C 1214.32 0.947269 -4.33061 0
M  V30 12890 H 1211.54 -0.0105032 -0.670918 0
M  V30 12891 H 1214.08 -0.669732 -1.93222 0
M  V30 12892 H 1212.23 1.04207 -3.73121 0
M  V30 12893 H 1212.65 -0.605252 -5.20996 0
M  V30 12894 H 1214.12 1.09312 -5.41068 0
M  V30 12895 H 1214.6 1.93937 -3.94062 0
M  V30 12896 H 1215.21 0.294693 -4.24278 0
M  V30 12897 N 1213.52 1.56172 -0.211661 0
M  V30 12898 C 1214.45 2.17107 0.734657 0
M  V30 12899 C 1215.47 1.1374 1.16478 0
M  V30 12900 O 1216.65 1.40763 1.09764 0
M  V30 12901 C 1213.75 2.73182 2.00561 0
M  V30 12902 C 1212.93 4.0162 1.73264 0
M  V30 12903 C 1211.99 4.42357 2.84968 0
M  V30 12904 O 1211.01 5.09453 2.53863 0
M  V30 12905 N 1212.21 4.07223 4.13702 0
M  V30 12906 H 1214.98 2.98939 0.213475 0
M  V30 12907 H 1212.54 1.61872 -0.0302898 0
M  V30 12908 H 1214.53 2.97411 2.74461 0
M  V30 12909 H 1213.1 1.9571 2.43754 0
M  V30 12910 H 1212.32 3.85351 0.830575 0
M  V30 12911 H 1213.61 4.85426 1.52445 0
M  V30 12912 H 1213.01 3.53286 4.4182 0
M  V30 12913 H 1211.57 4.36366 4.84178 0
M  V30 12914 N 1215 -0.0618163 1.57479 0
M  V30 12915 C 1216.23 -0.771724 1.91969 0
M  V30 12916 C 1216.64 -1.7061 0.808549 0
M  V30 12917 O 1216 -1.812 -0.217455 0
M  V30 12918 C 1216.05 -1.55687 3.26257 0
M  V30 12919 O 1215.77 -0.660032 4.331 0
M  V30 12920 C 1217.27 -2.36688 3.74825 0
M  V30 12921 H 1214.49 -0.21885 0.634307 0
M  V30 12922 H 1217.04 -0.0291068 2.04479 0
M  V30 12923 H 1215.19 -2.25167 3.15244 0
M  V30 12924 H 1215.6 -1.20715 5.1042 0
M  V30 12925 H 1217.08 -2.8722 4.7139 0
M  V30 12926 H 1217.56 -3.1666 3.0434 0
M  V30 12927 H 1218.16 -1.72346 3.88815 0
M  V30 12928 N 1216.48 -1.54033 -0.333429 0
M  V30 12929 C 1217.7 -1.75716 -1.09232 0
M  V30 12930 C 1218.12 -0.501076 -1.82029 0
M  V30 12931 O 1217.48 0.527772 -1.74702 0
M  V30 12932 C 1217.53 -2.9439 -2.09802 0
M  V30 12933 O 1217.25 -4.15141 -1.39963 0
M  V30 12934 C 1218.75 -3.28206 -2.97987 0
M  V30 12935 H 1215.97 -0.586859 -0.325326 0
M  V30 12936 H 1218.51 -2.0089 -0.382555 0
M  V30 12937 H 1216.67 -2.71518 -2.76327 0
M  V30 12938 H 1217.08 -4.81826 -2.0723 0
M  V30 12939 H 1218.56 -4.14568 -3.64469 0
M  V30 12940 H 1219.03 -2.44944 -3.64553 0
M  V30 12941 H 1219.64 -3.5312 -2.37036 0
M  V30 12942 N 1217.95 0.594978 -1.45938 0
M  V30 12943 C 1219.18 1.37994 -1.5416 0
M  V30 12944 C 1219.6 1.87954 -0.17848 0
M  V30 12945 O 1218.95 1.62932 0.822161 0
M  V30 12946 C 1219.01 2.57586 -2.53637 0
M  V30 12947 O 1218.73 2.09698 -3.84653 0
M  V30 12948 C 1220.23 3.50292 -2.71681 0
M  V30 12949 H 1217.45 0.421983 -0.5217 0
M  V30 12950 H 1219.99 0.724459 -1.91238 0
M  V30 12951 H 1218.15 3.19149 -2.19597 0
M  V30 12952 H 1218.56 2.87492 -4.3869 0
M  V30 12953 H 1220.03 4.30717 -3.45234 0
M  V30 12954 H 1220.51 4.01444 -1.78156 0
M  V30 12955 H 1221.12 2.94573 -3.06768 0
M  V30 12956 N 1219.43 1.33438 0.838571 0
M  V30 12957 C 1220.38 1.20285 1.93689 0
M  V30 12958 C 1221.37 0.105686 1.60553 0
M  V30 12959 O 1222.56 0.333814 1.73824 0
M  V30 12960 C 1219.69 0.944544 3.3005 0
M  V30 12961 C 1218.77 2.08416 3.69356 0
M  V30 12962 N 1219.16 3.33415 3.80353 0
M  V30 12963 C 1217.46 1.99092 3.99097 0
M  V30 12964 C 1218.16 4.08159 4.14465 0
M  V30 12965 N 1217.14 3.36601 4.2685 0
M  V30 12966 H 1220.94 2.1503 2.00348 0
M  V30 12967 H 1218.46 1.2545 1.03131 0
M  V30 12968 H 1220.45 0.831242 4.08529 0
M  V30 12969 H 1219.11 0.00562273 3.247 0
M  V30 12970 H 1220.12 3.68159 3.64252 0
M  V30 12971 H 1216.8 1.12861 4.01956 0
M  V30 12972 H 1218.19 5.16027 4.30308 0
M  V30 12973 N 1220.91 -1.05686 1.16912 0
M  V30 12974 C 1221.84 -2.15268 0.904532 0
M  V30 12975 C 1222.82 -1.69424 -0.151548 0
M  V30 12976 O 1224.01 -1.942 -0.00235371 0
M  V30 12977 C 1221.14 -3.44853 0.411581 0
M  V30 12978 C 1220.09 -4.04237 1.40628 0
M  V30 12979 C 1219.42 -5.29105 0.771479 0
M  V30 12980 C 1220.72 -4.42303 2.77787 0
M  V30 12981 H 1222.41 -2.37659 1.82094 0
M  V30 12982 H 1219.96 -1.14217 0.876947 0
M  V30 12983 H 1221.91 -4.20857 0.213929 0
M  V30 12984 H 1220.63 -3.22099 -0.540352 0
M  V30 12985 H 1219.29 -3.30297 1.59058 0
M  V30 12986 H 1218.94 -5.02652 -0.187133 0
M  V30 12987 H 1218.64 -5.69797 1.43545 0
M  V30 12988 H 1220.16 -6.07801 0.583988 0
M  V30 12989 H 1221.58 -5.09362 2.63103 0
M  V30 12990 H 1219.98 -4.93997 3.40716 0
M  V30 12991 H 1221.05 -3.52877 3.32575 0
M  V30 12992 N 1222.39 -0.968567 -1.24324 0
M  V30 12993 C 1223.32 -0.457247 -2.24593 0
M  V30 12994 C 1224.33 0.434483 -1.56895 0
M  V30 12995 O 1225.52 0.240519 -1.76872 0
M  V30 12996 C 1222.62 0.359086 -3.36992 0
M  V30 12997 C 1221.8 -0.522945 -4.34263 0
M  V30 12998 C 1220.85 0.237528 -5.25664 0
M  V30 12999 O 1219.88 -0.368835 -5.68004 0
M  V30 13000 N 1221.08 1.52686 -5.6006 0
M  V30 13001 H 1223.85 -1.31934 -2.69098 0
M  V30 13002 H 1221.41 -0.840488 -1.38374 0
M  V30 13003 H 1223.4 0.87589 -3.95108 0
M  V30 13004 H 1221.97 1.12212 -2.91766 0
M  V30 13005 H 1221.19 -1.22071 -3.74823 0
M  V30 13006 H 1222.48 -1.12447 -4.96219 0
M  V30 13007 H 1221.88 2.0412 -5.2759 0
M  V30 13008 H 1220.43 1.98934 -6.207 0
M  V30 13009 N 1223.87 1.39211 -0.738786 0
M  V30 13010 C 1225.28 1.83237 -0.357916 0
M  V30 13011 C 1225.63 1.61698 1.11123 0
M  V30 13012 O 1224.75 1.11017 1.85753 0
M  V30 13013 C 1225.35 3.32645 -0.64285 0
M  V30 13014 C 1223.91 3.75076 -0.315432 0
M  V30 13015 C 1223.05 2.62166 -0.903556 0
M  V30 13016 H 1226.01 1.2815 -0.936127 0
M  V30 13017 H 1226.03 3.80407 0.0840812 0
M  V30 13018 H 1225.54 3.4829 -1.71218 0
M  V30 13019 H 1223.64 3.65017 0.747907 0
M  V30 13020 H 1223.75 4.72363 -0.800638 0
M  V30 13021 H 1222.12 2.52554 -0.329927 0
M  V30 13022 H 1222.9 2.80616 -1.97761 0
M  V30 13023 N 1225.34 0.486708 1.49896 0
M  V30 13024 C 1226.27 -0.288898 2.31706 0
M  V30 13025 C 1227.26 -0.975901 1.3932 0
M  V30 13026 O 1228.44 -0.970065 1.68236 0
M  V30 13027 C 1225.57 -1.36218 3.19471 0
M  V30 13028 C 1224.52 -0.795884 4.20535 0
M  V30 13029 C 1223.85 -1.96862 4.97141 0
M  V30 13030 C 1225.15 0.203421 5.21904 0
M  V30 13031 H 1226.84 0.393934 2.96797 0
M  V30 13032 H 1224.39 0.190894 1.42729 0
M  V30 13033 H 1226.34 -1.91238 3.75508 0
M  V30 13034 H 1225.07 -2.074 2.52295 0
M  V30 13035 H 1223.73 -0.267538 3.65622 0
M  V30 13036 H 1223.37 -2.66779 4.26425 0
M  V30 13037 H 1223.07 -1.59585 5.65514 0
M  V30 13038 H 1224.6 -2.52343 5.56017 0
M  V30 13039 H 1226.01 -0.258144 5.72719 0
M  V30 13040 H 1224.41 0.491273 5.98086 0
M  V30 13041 H 1225.48 1.12414 4.7169 0
M  V30 13042 N 1226.82 -1.56058 0.219941 0
M  V30 13043 C 1227.77 -2.16853 -0.704185 0
M  V30 13044 C 1228.76 -1.11639 -1.15869 0
M  V30 13045 O 1229.95 -1.37632 -1.11295 0
M  V30 13046 C 1227.08 -2.85073 -1.9128 0
M  V30 13047 C 1226.16 -3.9751 -1.47805 0
M  V30 13048 N 1226.56 -5.00121 -0.755792 0
M  V30 13049 C 1224.85 -4.0957 -1.76546 0
M  V30 13050 C 1225.55 -5.79241 -0.534332 0
M  V30 13051 N 1224.53 -5.32549 -1.09055 0
M  V30 13052 H 1228.33 -2.93547 -0.143914 0
M  V30 13053 H 1225.85 -1.62386 0.021133 0
M  V30 13054 H 1227.84 -3.27037 -2.58558 0
M  V30 13055 H 1226.5 -2.09874 -2.47756 0
M  V30 13056 H 1227.51 -5.16285 -0.408647 0
M  V30 13057 H 1224.19 -3.45521 -2.34353 0
M  V30 13058 H 1225.58 -6.71888 0.0404032 0
M  V30 13059 N 1228.3 0.053464 -1.57509 0
M  V30 13060 C 1229.25 1.06886 -2.01394 0
M  V30 13061 C 1230.24 1.33441 -0.899013 0
M  V30 13062 O 1231.43 1.33435 -1.16293 0
M  V30 13063 C 1228.56 2.37731 -2.47667 0
M  V30 13064 C 1227.64 2.14371 -3.65931 0
M  V30 13065 N 1228.03 1.60994 -4.79494 0
M  V30 13066 C 1226.33 2.44766 -3.72835 0
M  V30 13067 C 1227.03 1.52875 -5.61252 0
M  V30 13068 N 1226.01 1.99576 -5.05638 0
M  V30 13069 H 1229.81 0.649779 -2.86627 0
M  V30 13070 H 1227.32 0.260224 -1.60302 0
M  V30 13071 H 1229.32 3.11256 -2.77354 0
M  V30 13072 H 1227.98 2.80339 -1.63829 0
M  V30 13073 H 1228.99 1.296 -5.01422 0
M  V30 13074 H 1225.67 2.90616 -2.99748 0
M  V30 13075 H 1227.06 1.12303 -6.62448 0
M  V30 13076 N 1229.78 1.54207 0.325255 0
M  V30 13077 C 1231.19 1.63587 0.899793 0
M  V30 13078 C 1231.54 0.528851 1.88938 0
M  V30 13079 O 1230.67 -0.33852 2.13736 0
M  V30 13080 C 1231.26 2.9653 1.63877 0
M  V30 13081 C 1229.82 3.08111 2.16205 0
M  V30 13082 C 1228.97 2.59144 0.986903 0
M  V30 13083 H 1231.92 1.58366 0.102883 0
M  V30 13084 H 1231.94 2.86595 2.50287 0
M  V30 13085 H 1231.45 3.7708 0.918279 0
M  V30 13086 H 1229.55 2.32232 2.91375 0
M  V30 13087 H 1229.67 4.13885 2.41322 0
M  V30 13088 H 1228.03 2.14997 1.36558 0
M  V30 13089 H 1228.81 3.4215 0.28076 0
M  V30 13090 N 1231.26 -0.58723 1.46251 0
M  V30 13091 C 1232.48 -1.37661 1.55126 0
M  V30 13092 C 1232.91 -1.87123 0.191489 0
M  V30 13093 O 1232.27 -1.6131 -0.827576 0
M  V30 13094 C 1232.31 -2.54324 2.5564 0
M  V30 13095 O 1231.42 -3.55617 2.0883 0
M  V30 13096 H 1230.76 -0.410154 0.522178 0
M  V30 13097 H 1233.29 -0.712738 1.91784 0
M  V30 13098 H 1233.3 -3.01301 2.75103 0
M  V30 13099 H 1231.97 -2.17675 3.54387 0
M  V30 13100 H 1230.55 -3.15151 1.99335 0
M  V30 13101 N 1232.74 -1.33881 -0.831482 0
M  V30 13102 C 1233.65 -1.26802 -1.97379 0
M  V30 13103 C 1234.66 -0.177233 -1.73095 0
M  V30 13104 O 1235.84 -0.402163 -1.97344 0
M  V30 13105 C 1232.9 -1.01474 -3.31517 0
M  V30 13106 C 1231.96 -2.19626 -3.68867 0
M  V30 13107 C 1231.2 -1.95497 -4.96605 0
M  V30 13108 O 1231.42 -0.908948 -5.63111 0
M  V30 13109 O 1230.35 -2.82226 -5.31632 0
M  V30 13110 H 1234.18 -2.22883 -2.06293 0
M  V30 13111 H 1231.76 -1.14001 -0.965613 0
M  V30 13112 H 1233.65 -0.890954 -4.11874 0
M  V30 13113 H 1232.32 -0.0842656 -3.2359 0
M  V30 13114 H 1231.23 -2.37561 -2.88991 0
M  V30 13115 H 1232.56 -3.11034 -3.81469 0
M  V30 13116 N 1234.21 1.05064 -1.1747 0
M  V30 13117 C 1235.18 2.1101 -0.89485 0
M  V30 13118 C 1236.18 1.60384 0.11553 0
M  V30 13119 O 1237.37 1.73808 -0.116785 0
M  V30 13120 C 1234.5 3.39194 -0.340642 0
M  V30 13121 H 1235.69 2.37269 -1.83421 0
M  V30 13122 H 1233.24 1.21329 -0.985343 0
M  V30 13123 H 1233.98 3.18591 0.605808 0
M  V30 13124 H 1233.76 3.77251 -1.06885 0
M  V30 13125 H 1235.25 4.17281 -0.163204 0
M  V30 13126 N 1235.69 0.975146 1.23809 0
M  V30 13127 C 1237.11 0.682899 1.44252 0
M  V30 13128 C 1237.31 -0.752739 1.86912 0
M  V30 13129 O 1236.36 -1.52579 2.01186 0
M  V30 13130 C 1237.68 1.67335 2.49839 0
M  V30 13131 C 1239.22 1.6868 2.63659 0
M  V30 13132 C 1239.7 2.66542 3.72451 0
M  V30 13133 N 1241.19 2.65028 3.79887 0
M  V30 13134 C 1241.93 3.37421 4.63611 0
M  V30 13135 N 1241.42 4.19355 5.51465 0
M  V30 13136 N 1243.21 3.2621 4.57759 0
M  V30 13137 H 1235.37 1.9026 0.94418 0
M  V30 13138 H 1237.63 0.819543 0.476502 0
M  V30 13139 H 1237.33 2.69978 2.25399 0
M  V30 13140 H 1237.21 1.45201 3.48133 0
M  V30 13141 H 1239.6 0.667438 2.87453 0
M  V30 13142 H 1239.68 1.94878 1.65699 0
M  V30 13143 H 1239.32 3.68617 3.49405 0
M  V30 13144 H 1239.25 2.3762 4.69941 0
M  V30 13145 H 1241.74 2.05562 3.171 0
M  V30 13146 H 1242.05 4.71461 6.12327 0
M  V30 13147 H 1240.4 4.23447 5.51106 0
M  V30 13148 H 1243.59 2.61656 3.88142 0
M  V30 13149 H 1243.76 3.82889 5.22781 0
M  V30 13150 N 1237.17 -1.38817 0.746158 0
M  V30 13151 C 1238.58 -1.83045 0.367629 0
M  V30 13152 C 1238.93 -1.62285 -1.10263 0
M  V30 13153 O 1238.06 -1.12001 -1.85162 0
M  V30 13154 C 1238.65 -3.323 0.660482 0
M  V30 13155 C 1237.21 -3.74903 0.335318 0
M  V30 13156 C 1236.36 -2.61683 0.917446 0
M  V30 13157 H 1239.31 -1.27651 0.94291 0
M  V30 13158 H 1239.33 -3.80446 -0.0639061 0
M  V30 13159 H 1238.84 -3.47377 1.73062 0
M  V30 13160 H 1236.94 -3.65408 -0.728538 0
M  V30 13161 H 1237.06 -4.71932 0.825677 0
M  V30 13162 H 1235.42 -2.52376 0.343316 0
M  V30 13163 H 1236.2 -2.79563 1.99247 0
M  V30 13164 N 1238.65 -0.49465 -1.49636 0
M  V30 13165 C 1239.89 0.0521172 -2.02433 0
M  V30 13166 C 1240.22 1.37579 -1.37485 0
M  V30 13167 O 1239.48 1.8927 -0.497538 0
M  V30 13168 C 1239.78 0.259743 -3.56455 0
M  V30 13169 C 1239.44 -0.985143 -4.40007 0
M  V30 13170 C 1238.1 -1.3264 -4.62558 0
M  V30 13171 C 1240.46 -1.81291 -4.88654 0
M  V30 13172 C 1237.78 -2.49506 -5.31003 0
M  V30 13173 C 1240.14 -2.97305 -5.58384 0
M  V30 13174 C 1238.8 -3.31818 -5.79183 0
M  V30 13175 H 1238.07 0.0190711 -0.740755 0
M  V30 13176 H 1240.72 -0.653519 -1.80004 0
M  V30 13177 H 1239.02 1.04785 -3.77528 0
M  V30 13178 H 1240.72 0.697146 -3.94893 0
M  V30 13179 H 1237.31 -0.709313 -4.2269 0
M  V30 13180 H 1241.49 -1.56242 -4.71065 0
M  V30 13181 H 1236.75 -2.76491 -5.4531 0
M  V30 13182 H 1240.92 -3.61777 -5.95055 0
M  V30 13183 H 1238.55 -4.22478 -6.31994 0
M  V30 13184 N 1240.13 1.55939 -0.228214 0
M  V30 13185 C 1241.54 1.84612 0.278417 0
M  V30 13186 C 1241.89 1.14973 1.58983 0
M  V30 13187 O 1241.01 0.421673 2.12252 0
M  V30 13188 C 1241.61 3.3491 0.511935 0
M  V30 13189 C 1240.17 3.63876 0.962861 0
M  V30 13190 C 1239.31 2.77284 0.0296246 0
M  V30 13191 H 1242.26 1.52149 -0.451245 0
M  V30 13192 H 1242.29 3.55477 1.35707 0
M  V30 13193 H 1241.8 3.85567 -0.442697 0
M  V30 13194 H 1239.9 3.18682 1.93062 0
M  V30 13195 H 1240.01 4.71809 0.832659 0
M  V30 13196 H 1238.38 2.48961 0.53763 0
M  V30 13197 H 1239.16 3.30742 -0.920044 0
M  V30 13198 N 1241.6 -0.0451101 1.57535 0
M  V30 13199 C 1242.88 -0.773625 1.79651 0
M  V30 13200 C 1243.26 -1.94422 0.822391 0
M  V30 13201 O 1242.61 -2.28077 -0.138913 0
M  V30 13202 C 1242.82 -1.22168 3.26919 0
M  V30 13203 C 1244.17 -1.64419 3.91474 0
M  V30 13204 O 1245.19 -1.31668 3.30971 0
M  V30 13205 O 1244.05 -2.25148 4.97967 0
M  V30 13206 H 1241.14 -0.372786 0.738214 0
M  V30 13207 H 1243.69 -0.0231245 1.69684 0
M  V30 13208 H 1242.46 -0.385302 3.89398 0
M  V30 13209 H 1242.09 -2.03269 3.41713 0
M  V30 13210 N 1243.08 -1.54377 -0.317073 0
M  V30 13211 C 1244.01 -1.8721 -1.39552 0
M  V30 13212 C 1244.99 -0.729483 -1.53664 0
M  V30 13213 O 1246.18 -0.983799 -1.67437 0
M  V30 13214 C 1243.31 -2.1052 -2.76222 0
M  V30 13215 C 1242.26 -3.26366 -2.76892 0
M  V30 13216 C 1241.59 -3.35061 -4.16699 0
M  V30 13217 C 1242.89 -4.63862 -2.40061 0
M  V30 13218 H 1244.58 -2.77532 -1.12323 0
M  V30 13219 H 1242.13 -1.33536 -0.538897 0
M  V30 13220 H 1244.08 -2.32073 -3.51739 0
M  V30 13221 H 1242.81 -1.16953 -3.04942 0
M  V30 13222 H 1241.46 -3.0471 -2.03831 0
M  V30 13223 H 1241.11 -2.39041 -4.4257 0
M  V30 13224 H 1240.81 -4.12923 -4.18053 0
M  V30 13225 H 1242.34 -3.58856 -4.94019 0
M  V30 13226 H 1243.75 -4.85252 -3.05292 0
M  V30 13227 H 1242.15 -5.44321 -2.52655 0
M  V30 13228 H 1243.22 -4.6567 -1.35202 0
M  V30 13229 N 1244.56 0.579466 -1.4656 0
M  V30 13230 C 1245.79 1.36351 -1.55615 0
M  V30 13231 C 1246.2 1.87755 -0.198405 0
M  V30 13232 O 1245.56 1.63795 0.804834 0
M  V30 13233 C 1245.61 2.54881 -2.56355 0
M  V30 13234 O 1245.33 2.05607 -3.86856 0
M  V30 13235 C 1246.83 3.47391 -2.75381 0
M  V30 13236 H 1244.05 0.416426 -0.526147 0
M  V30 13237 H 1246.6 0.704134 -1.91995 0
M  V30 13238 H 1244.75 3.16802 -2.2297 0
M  V30 13239 H 1245.17 2.82823 -4.41714 0
M  V30 13240 H 1246.64 4.27031 -3.49783 0
M  V30 13241 H 1247.12 3.99532 -1.82403 0
M  V30 13242 H 1247.72 2.91303 -3.09875 0
M  V30 13243 N 1246.04 1.3432 0.824371 0
M  V30 13244 C 1247.26 1.2982 1.61745 0
M  V30 13245 C 1247.69 -0.125298 1.87682 0
M  V30 13246 O 1247.05 -1.08658 1.45131 0
M  V30 13247 C 1247.09 2.09327 2.93623 0
M  V30 13248 O 1246.2 1.4618 3.85623 0
M  V30 13249 H 1245.54 0.445929 0.491979 0
M  V30 13250 H 1248.07 1.77101 1.02452 0
M  V30 13251 H 1248.08 2.20629 3.43201 0
M  V30 13252 H 1246.75 3.12825 2.74069 0
M  V30 13253 H 1245.33 1.43611 3.44137 0
M  V30 13254 N 1247.52 -1.0444 1.18026 0
M  V30 13255 C 1248.74 -1.81772 0.998684 0
M  V30 13256 C 1249.17 -1.82682 -0.448225 0
M  V30 13257 O 1248.52 -1.24136 -1.32136 0
M  V30 13258 C 1248.57 -3.2542 1.55352 0
M  V30 13259 O 1247.68 -4.05103 0.772351 0
M  V30 13260 H 1247.02 -0.561731 0.354054 0
M  V30 13261 H 1249.55 -1.31557 1.56697 0
M  V30 13262 H 1249.56 -3.76206 1.57903 0
M  V30 13263 H 1248.23 -3.24073 2.60672 0
M  V30 13264 H 1246.81 -3.63798 0.818852 0
M  V30 13265 N 1248.99 -0.981699 -1.2329 0
M  V30 13266 C 1250.24 -0.650015 -1.91361 0
M  V30 13267 C 1250.56 0.819184 -1.76959 0
M  V30 13268 O 1249.83 1.5861 -1.14977 0
M  V30 13269 H 1248.41 -0.237427 -0.708264 0
M  V30 13270 H 1251.08 -1.24579 -1.49887 0
M  V30 13271 H 1250.17 -0.902772 -2.98758 0
M  V30 13272 N 1250.47 1.3842 -0.753509 0
M  V30 13273 C 1251.72 2.00119 -0.309633 0
M  V30 13274 C 1252.05 1.59811 1.10863 0
M  V30 13275 O 1251.3 0.827013 1.77367 0
M  V30 13276 C 1251.6 3.55375 -0.379937 0
M  V30 13277 C 1251.27 4.15393 -1.75384 0
M  V30 13278 C 1249.93 4.31499 -2.12984 0
M  V30 13279 C 1252.28 4.48503 -2.65508 0
M  V30 13280 C 1249.61 4.78011 -3.4018 0
M  V30 13281 C 1251.96 4.96431 -3.92095 0
M  V30 13282 C 1250.63 5.10744 -4.29764 0
M  V30 13283 H 1249.9 0.732286 -0.113303 0
M  V30 13284 H 1252.54 1.65468 -0.963975 0
M  V30 13285 H 1250.85 3.90161 0.357969 0
M  V30 13286 H 1252.54 4.00996 -0.0180738 0
M  V30 13287 H 1249.13 4.03271 -1.45156 0
M  V30 13288 H 1253.32 4.35661 -2.37724 0
M  V30 13289 H 1248.57 4.87277 -3.69284 0
M  V30 13290 H 1252.75 5.21021 -4.62072 0
M  V30 13291 H 1250.38 5.46545 -5.28387 0
M  V30 13292 N 1251.95 0.502579 1.49372 0
M  V30 13293 C 1252.88 -0.264307 2.31999 0
M  V30 13294 C 1253.86 -0.96107 1.40348 0
M  V30 13295 O 1255.05 -0.952167 1.69255 0
M  V30 13296 C 1252.18 -1.32822 3.20898 0
M  V30 13297 C 1251.13 -0.751236 4.21355 0
M  V30 13298 C 1250.46 -1.91578 4.99201 0
M  V30 13299 C 1251.76 0.258764 5.21659 0
M  V30 13300 H 1253.45 0.425391 2.96363 0
M  V30 13301 H 1251 0.206022 1.42519 0
M  V30 13302 H 1252.95 -1.87245 3.77515 0
M  V30 13303 H 1251.67 -2.04712 2.54481 0
M  V30 13304 H 1250.33 -0.228743 3.65886 0
M  V30 13305 H 1249.98 -2.62241 4.2923 0
M  V30 13306 H 1249.68 -1.53578 5.67175 0
M  V30 13307 H 1251.2 -2.46432 5.58663 0
M  V30 13308 H 1252.62 -0.197385 5.7296 0
M  V30 13309 H 1251.02 0.554681 5.97531 0
M  V30 13310 H 1252.09 1.1741 4.70471 0
M  V30 13311 O 1253.47 -1.5701 0.378177 0
M  V30 13312 H 1254.16 -1.92957 -0.169542 0
M  V30 END ATOM
M  V30 BEGIN BOND
M  V30 END BOND
M  V30 END CTAB
M  END
$$$$
