drugbank_target|P0AD65 Penicillin-binding protein 2 (DB00303; DB00438; DB00948; DB01163; DB01327; DB01328; DB01329; DB01413; DB01415; DB01598; DB06211; DB09050)
 OpenBabel12092120343D

  0  0  0     0  0            999 V3000
M  V30 BEGIN CTAB
M  V30 COUNTS 9974 10094 0 0 0
M  V30 BEGIN ATOM
M  V30 1 H -0.908 1.98254 -0.117106 0
M  V30 2 N 0 1.576 0 0
M  V30 3 C 0.933 2.03868 1.02534 0
M  V30 4 C 1.911 0.928543 1.3348 0
M  V30 5 O 3.095 1.19667 1.45644 0
M  V30 6 C 0.222 2.43627 2.35294 0
M  V30 7 C -0.732 3.65373 2.2001 0
M  V30 8 S 0.101 5.13292 1.52614 0
M  V30 9 C 1.257 5.56322 2.86805 0
M  V30 10 H 1.49 2.90518 0.631377 0
M  V30 11 H -0.977 1.52953 0.210867 0
M  V30 12 H 0.981 2.67203 3.11629 0
M  V30 13 H -0.358 1.57376 2.7183 0
M  V30 14 H -1.165 3.90944 3.18086 0
M  V30 15 H -1.563 3.418 1.51819 0
M  V30 16 H 0.729 5.58782 3.83104 0
M  V30 17 H 1.672 6.56266 2.65933 0
M  V30 18 H 2.08 4.83886 2.90714 0
M  V30 19 N 1.4781 -0.272755 1.55222 0
M  V30 20 C 2.4251 -1.33716 1.88119 0
M  V30 21 C 3.3951 -1.49066 0.73271 0
M  V30 22 O 4.5801 -1.63469 0.984002 0
M  V30 23 C 1.7201 -2.69238 2.15882 0
M  V30 24 C 0.8331 -2.62108 3.43399 0
M  V30 25 C -0.0319 -3.89811 3.60861 0
M  V30 26 C -0.9929 -3.77193 4.8207 0
M  V30 27 N -1.8559 -4.9673 4.96189 0
M  V30 28 H 2.9841 -1.04962 2.78903 0
M  V30 29 H 0.5211 -0.507088 1.38083 0
M  V30 30 H 2.4791 -3.48089 2.29978 0
M  V30 31 H 1.1091 -2.96194 1.28331 0
M  V30 32 H 0.1611 -1.74967 3.37773 0
M  V30 33 H 1.4731 -2.48685 4.32386 0
M  V30 34 H 0.6271 -4.77103 3.74777 0
M  V30 35 H -0.6339 -4.06102 2.7006 0
M  V30 36 H -1.6289 -2.88284 4.68159 0
M  V30 37 H -0.4039 -3.62421 5.74307 0
M  V30 38 H -2.4579 -5.13431 4.08319 0
M  V30 39 H -2.5409 -4.85839 5.79221 0
M  V30 40 H -1.2729 -5.85594 5.1449 0
M  V30 41 N 2.9562 -1.48159 -0.537278 0
M  V30 42 C 3.8862 -1.65029 -1.6519 0
M  V30 43 C 4.8672 -0.499281 -1.62607 0
M  V30 44 O 6.0522 -0.730972 -1.79918 0
M  V30 45 C 3.1822 -1.68303 -3.03795 0
M  V30 46 C 2.1362 -2.8283 -3.21234 0
M  V30 47 C 1.4622 -2.71189 -4.60826 0
M  V30 48 C 2.7622 -4.24211 -3.04701 0
M  V30 49 H 4.4562 -2.58341 -1.51328 0
M  V30 50 H 2.0022 -1.24325 -0.726585 0
M  V30 51 H 3.9552 -1.78693 -3.81637 0
M  V30 52 H 2.6792 -0.715635 -3.18663 0
M  V30 53 H 1.3382 -2.71983 -2.45807 0
M  V30 54 H 0.9862 -1.72435 -4.7252 0
M  V30 55 H 0.6862 -3.48035 -4.7344 0
M  V30 56 H 2.2102 -2.83537 -5.40777 0
M  V30 57 H 3.6242 -4.3593 -3.72341 0
M  V30 58 H 2.0212 -5.01998 -3.28813 0
M  V30 59 H 3.0912 -4.41184 -2.01209 0
M  V30 60 N 4.4343 0.785586 -1.36625 0
M  V30 61 C 5.3663 1.90711 -1.2713 0
M  V30 62 C 6.3793 1.61688 -0.189986 0
M  V30 63 O 7.5683 1.72864 -0.445014 0
M  V30 64 C 4.6683 3.25611 -0.939713 0
M  V30 65 C 3.8413 3.82385 -2.12369 0
M  V30 66 C 2.9003 4.95732 -1.76456 0
M  V30 67 O 1.9263 5.12047 -2.48589 0
M  V30 68 N 3.1283 5.76258 -0.700492 0
M  V30 69 H 5.8933 1.99376 -2.23762 0
M  V30 70 H 3.4543 0.964041 -1.30069 0
M  V30 71 H 5.4463 3.98937 -0.680554 0
M  V30 72 H 4.0163 3.12538 -0.0624074 0
M  V30 73 H 3.2363 3.01001 -2.54543 0
M  V30 74 H 4.5243 4.17047 -2.9146 0
M  V30 75 H 3.9223 5.65609 -0.101624 0
M  V30 76 H 2.4793 6.4987 -0.501165 0
M  V30 77 N 5.9124 1.20967 1.01018 0
M  V30 78 C 6.8604 0.961223 2.1181 0
M  V30 79 C 7.8544 -0.0897034 1.69162 0
M  V30 80 O 9.0604 0.0612271 1.79896 0
M  V30 81 H 5.4354 0.29355 0.692338 0
M  V30 82 H 7.4064 1.90178 2.29946 0
M  V30 83 C 6.1554 0.536854 3.4353 0
M  V30 84 H 5.4784 1.33713 3.76777 0
M  V30 85 H 6.9184 0.402286 4.22087 0
M  V30 86 C 5.3774 -0.751574 3.2841 0
M  V30 87 O 5.9074 -1.80841 3.58691 0
M  V30 88 N 4.1134 -0.716079 2.81639 0
M  V30 89 H 3.6604 0.144236 2.57196 0
M  V30 90 H 3.6184 -1.57847 2.71904 0
M  V30 91 N 7.3905 -1.2043 1.01659 0
M  V30 92 C 8.6155 -1.94318 0.724942 0
M  V30 93 C 9.0405 -1.74266 -0.708034 0
M  V30 94 O 8.3985 -1.03694 -1.48719 0
M  V30 95 C 8.4465 -3.44486 1.06591 0
M  V30 96 O 7.5505 -4.12017 0.177599 0
M  V30 97 H 6.8915 -0.60708 0.26898 0
M  V30 98 H 9.4215 -1.52861 1.35995 0
M  V30 99 H 9.4315 -3.95106 1.01762 0
M  V30 100 H 8.1065 -3.58404 2.10997 0
M  V30 101 H 6.6835 -3.71821 0.283421 0
M  V30 102 N 8.8686 -0.792821 -1.36206 0
M  V30 103 C 10.1156 -0.366786 -1.99151 0
M  V30 104 C 10.4436 1.06243 -1.62919 0
M  V30 105 O 9.6986 1.74927 -0.877442 0
M  V30 106 C 9.9976 -0.481501 -3.54142 0
M  V30 107 C 9.6636 -1.87202 -4.10203 0
M  V30 108 C 8.3256 -2.25248 -4.25226 0
M  V30 109 C 10.6776 -2.78237 -4.40719 0
M  V30 110 C 8.0056 -3.53723 -4.68078 0
M  V30 111 C 10.3576 -4.06144 -4.85005 0
M  V30 112 C 9.0216 -4.44207 -4.98234 0
M  V30 113 H 8.2916 -0.134217 -0.728743 0
M  V30 114 H 10.9386 -1.01094 -1.62641 0
M  V30 115 H 9.2436 0.246146 -3.91026 0
M  V30 116 H 10.9406 -0.132844 -4.0078 0
M  V30 117 H 7.5306 -1.56639 -3.98951 0
M  V30 118 H 11.7146 -2.50097 -4.28679 0
M  V30 119 H 6.9706 -3.8308 -4.76508 0
M  V30 120 H 11.1446 -4.76796 -5.07581 0
M  V30 121 H 8.7716 -5.43814 -5.31197 0
M  V30 122 N 10.3467 1.47872 -0.545128 0
M  V30 123 C 11.7627 1.5829 -0.204032 0
M  V30 124 C 11.9627 1.54529 1.29317 0
M  V30 125 O 11.0187 1.44232 2.07252 0
M  V30 126 C 12.3317 2.89304 -0.819987 0
M  V30 127 C 13.8797 3.02864 -0.790105 0
M  V30 128 C 14.3547 4.3656 -1.38491 0
M  V30 129 N 15.8457 4.43165 -1.34755 0
M  V30 130 C 16.5807 5.45153 -1.77753 0
M  V30 131 N 16.0767 6.54016 -2.2855 0
M  V30 132 N 17.8697 5.36125 -1.68897 0
M  V30 133 H 10.0207 1.4856 -1.51802 0
M  V30 134 H 12.2837 0.706305 -0.632327 0
M  V30 135 H 11.9897 2.97757 -1.87173 0
M  V30 136 H 11.8637 3.75957 -0.305915 0
M  V30 137 H 14.2507 2.94014 0.252913 0
M  V30 138 H 14.3317 2.17782 -1.34181 0
M  V30 139 H 13.9757 4.46164 -2.42693 0
M  V30 140 H 13.9057 5.20353 -0.808754 0
M  V30 141 H 16.3967 3.65083 -0.975855 0
M  V30 142 H 16.7097 7.27994 -2.59314 0
M  V30 143 H 15.0547 6.54938 -2.32553 0
M  V30 144 H 18.2457 4.49975 -1.28998 0
M  V30 145 H 18.4187 6.15472 -2.02726 0
M  V30 146 N 11.8248 0.280983 1.55075 0
M  V30 147 C 13.1018 -0.386207 1.91749 0
M  V30 148 C 13.4818 -1.73264 1.20594 0
M  V30 149 O 12.8298 -2.26034 0.334784 0
M  V30 150 C 13.0398 -0.520687 3.45094 0
M  V30 151 C 14.3878 -0.800865 4.16979 0
M  V30 152 O 15.4118 -0.605271 3.5102 0
M  V30 153 O 14.2708 -1.1753 5.33712 0
M  V30 154 H 11.3648 -0.212408 0.799257 0
M  V30 155 H 13.9108 0.327568 1.66509 0
M  V30 156 H 12.6828 0.426633 3.88967 0
M  V30 157 H 12.3058 -1.2837 3.76307 0
M  V30 158 N 13.3029 -1.57598 0.00835791 0
M  V30 159 C 14.5329 -1.94931 -0.684496 0
M  V30 160 C 14.9409 -0.882233 -1.67372 0
M  V30 161 O 14.2839 0.146621 -1.83114 0
M  V30 162 C 14.3459 -3.283 -1.4649 0
M  V30 163 C 14.0099 -4.52548 -0.63634 0
M  V30 164 C 15.0069 -5.19839 0.0795586 0
M  V30 165 C 12.6919 -4.98942 -0.579849 0
M  V30 166 C 14.6859 -6.3183 0.840843 0
M  V30 167 C 12.3729 -6.10819 0.185155 0
M  V30 168 C 13.3709 -6.77121 0.894227 0
M  V30 169 O 13.0589 -7.86853 1.64673 0
M  V30 170 H 12.7909 -0.647249 -0.19505 0
M  V30 171 H 15.3449 -2.05318 0.0581272 0
M  V30 172 H 13.5749 -3.14345 -2.2522 0
M  V30 173 H 15.2639 -3.50685 -2.04389 0
M  V30 174 H 16.0299 -4.84979 0.0451202 0
M  V30 175 H 11.9089 -4.47155 -1.1213 0
M  V30 176 H 15.4529 -6.83513 1.39483 0
M  V30 177 H 11.3499 -6.4512 0.221384 0
M  V30 178 H 12.1179 -8.03412 1.56432 0
M  V30 179 N 14.781 0.264519 -1.55364 0
M  V30 180 C 16.009 1.013 -1.80405 0
M  V30 181 C 16.424 1.79618 -0.581622 0
M  V30 182 O 15.781 1.76879 0.449468 0
M  V30 183 C 15.832 1.96487 -3.03439 0
M  V30 184 O 15.553 1.21341 -4.20961 0
M  V30 185 C 17.054 2.83079 -3.41147 0
M  V30 186 H 14.274 0.298875 -0.600762 0
M  V30 187 H 16.818 0.292736 -2.02394 0
M  V30 188 H 14.973 2.63965 -2.83551 0
M  V30 189 H 15.387 1.85573 -4.90574 0
M  V30 190 H 16.861 3.4565 -4.30384 0
M  V30 191 H 17.338 3.53286 -2.60932 0
M  V30 192 H 17.944 2.2108 -3.63323 0
M  V30 193 N 16.2591 1.48442 0.529413 0
M  V30 194 C 17.2221 1.62524 1.61612 0
M  V30 195 C 18.2221 0.498509 1.52877 0
M  V30 196 O 19.4121 0.76431 1.56537 0
M  V30 197 C 16.5441 1.59597 3.01233 0
M  V30 198 H 17.7371 2.59423 1.50465 0
M  V30 199 H 15.2901 1.37047 0.751514 0
M  V30 200 H 16.0251 0.641781 3.17886 0
M  V30 201 H 15.8101 2.41397 3.08982 0
M  V30 202 H 17.3001 1.72646 3.80241 0
M  V30 203 N 17.7372 -0.778329 1.37039 0
M  V30 204 C 18.6472 -1.92253 1.34446 0
M  V30 205 C 19.6632 -1.72267 0.244991 0
M  V30 206 O 20.8392 -1.95615 0.479258 0
M  V30 207 C 17.9042 -3.27282 1.144 0
M  V30 208 C 16.9652 -3.59969 2.33925 0
M  V30 209 C 16.1982 -4.88555 2.14825 0
M  V30 210 O 16.4212 -5.59113 1.12912 0
M  V30 211 O 15.3552 -5.20153 3.02861 0
M  V30 212 H 19.1812 -1.97392 2.30803 0
M  V30 213 H 16.7662 -0.920154 1.17701 0
M  V30 214 H 18.6482 -4.08062 1.05182 0
M  V30 215 H 17.3232 -3.23011 0.211124 0
M  V30 216 H 16.2302 -2.7945 2.48714 0
M  V30 217 H 17.5632 -3.68976 3.25757 0
M  V30 218 N 19.2153 -1.21501 -1.00376 0
M  V30 219 C 20.4403 -1.05977 -1.78279 0
M  V30 220 C 20.8653 0.385994 -1.84097 0
M  V30 221 O 20.2233 1.27849 -1.28547 0
M  V30 222 C 20.2713 -1.66302 -3.19963 0
M  V30 223 O 19.3753 -0.909333 -4.0225 0
M  V30 224 H 18.7163 -0.372906 -0.549397 0
M  V30 225 H 21.2463 -1.6107 -1.26165 0
M  V30 226 H 21.2563 -1.70574 -3.70632 0
M  V30 227 H 19.9313 -2.71515 -3.15043 0
M  V30 228 H 18.5083 -0.941795 -3.60811 0
M  V30 229 N 20.6934 1.19889 -1.02296 0
M  V30 230 C 21.6564 2.21116 -0.603351 0
M  V30 231 C 22.6564 1.5738 0.329884 0
M  V30 232 O 23.8464 1.73802 0.117702 0
M  V30 233 C 20.9784 3.40696 0.117992 0
M  V30 234 H 22.1714 2.59754 -1.49893 0
M  V30 235 H 19.7244 1.33463 -0.813468 0
M  V30 236 H 20.4594 3.07569 1.0282 0
M  V30 237 H 20.2444 3.88188 -0.552511 0
M  V30 238 H 21.7344 4.15692 0.398696 0
M  V30 239 N 22.1715 0.800033 1.35784 0
M  V30 240 C 23.1015 0.220184 2.3246 0
M  V30 241 C 24.0825 -0.65073 1.57161 0
M  V30 242 O 25.2675 -0.582359 1.85263 0
M  V30 243 C 22.3975 -0.637353 3.41402 0
M  V30 244 C 21.3515 0.134531 4.27789 0
M  V30 245 C 20.6775 -0.844285 5.27992 0
M  V30 246 C 21.9775 1.32979 5.05088 0
M  V30 247 H 23.6715 1.02787 2.81203 0
M  V30 248 H 21.2175 0.495717 1.35199 0
M  V30 249 H 23.1705 -1.05302 4.08031 0
M  V30 250 H 21.8945 -1.47785 2.91251 0
M  V30 251 H 20.5535 0.531296 3.6273 0
M  V30 252 H 20.2015 -1.68011 4.74111 0
M  V30 253 H 19.9015 -0.332184 5.8666 0
M  V30 254 H 21.4255 -1.2583 5.97494 0
M  V30 255 H 22.8395 0.98934 5.64699 0
M  V30 256 H 21.2365 1.77593 5.7322 0
M  V30 257 H 22.3065 2.11978 4.36111 0
M  V30 258 N 23.6496 -1.47581 0.552962 0
M  V30 259 C 24.8966 -2.02482 0.0273243 0
M  V30 260 C 25.2246 -1.42776 -1.32081 0
M  V30 261 O 24.4796 -0.571393 -1.87173 0
M  V30 262 C 24.7786 -3.57199 -0.119728 0
M  V30 263 C 24.4446 -4.35804 1.15697 0
M  V30 264 C 23.1066 -4.57 1.50681 0
M  V30 265 C 25.4586 -4.81167 2.00319 0
M  V30 266 C 22.7866 -5.20807 2.70142 0
M  V30 267 C 25.1386 -5.46293 3.18978 0
M  V30 268 C 23.8026 -5.65722 3.54281 0
M  V30 269 H 23.0726 -0.740933 0.00999866 0
M  V30 270 H 25.7196 -1.77302 0.72362 0
M  V30 271 H 24.0246 -3.81348 -0.89896 0
M  V30 272 H 25.7216 -3.97324 -0.541718 0
M  V30 273 H 22.3116 -4.19582 0.874561 0
M  V30 274 H 26.4956 -4.64574 1.74599 0
M  V30 275 H 21.7516 -5.34045 2.97668 0
M  V30 276 H 25.9256 -5.80407 3.84838 0
M  V30 277 H 23.5526 -6.14936 4.46942 0
M  V30 278 N 25.1277 -0.289203 -1.54924 0
M  V30 279 C 26.3737 0.323998 -2.00195 0
M  V30 280 C 26.7067 1.54441 -1.17735 0
M  V30 281 O 25.9817 1.92875 -0.250878 0
M  V30 282 C 26.2647 0.692276 -3.53383 0
M  V30 283 C 26.1177 -0.536457 -4.46589 0
M  V30 284 C 27.4367 1.52335 -4.12895 0
M  V30 285 H 24.5557 0.116289 -0.727768 0
M  V30 286 H 27.1977 -0.398954 -1.85764 0
M  V30 287 H 25.3477 1.30822 -3.65811 0
M  V30 288 H 27.0197 -1.17499 -4.46085 0
M  V30 289 H 25.2627 -1.17192 -4.1767 0
M  V30 290 H 25.9337 -0.234806 -5.515 0
M  V30 291 H 28.4097 1.00302 -4.0383 0
M  V30 292 H 27.2857 1.74982 -5.20262 0
M  V30 293 H 27.5467 2.50886 -3.64018 0
M  V30 294 N 26.6058 1.57591 -0.0167156 0
M  V30 295 C 28.0218 1.55946 0.339557 0
M  V30 296 C 28.2218 1.02109 1.73713 0
M  V30 297 O 27.2778 0.662303 2.43659 0
M  V30 298 C 28.5908 3.00037 0.199499 0
M  V30 299 C 30.1388 3.11805 0.273193 0
M  V30 300 C 30.6138 4.57713 0.162068 0
M  V30 301 N 32.1048 4.6268 0.219444 0
M  V30 302 C 32.8398 5.73185 0.157054 0
M  V30 303 N 32.3358 6.92786 0.0442936 0
M  V30 304 N 34.1288 5.61707 0.21014 0
M  V30 305 H 26.2798 1.90921 -0.930758 0
M  V30 306 H 28.5428 0.877674 -0.358319 0
M  V30 307 H 28.2488 3.4333 -0.76273 0
M  V30 308 H 28.1228 3.64387 0.974786 0
M  V30 309 H 30.5098 2.68433 1.22587 0
M  V30 310 H 30.5908 2.50201 -0.532256 0
M  V30 311 H 30.2348 5.01763 -0.78714 0
M  V30 312 H 30.1648 5.17283 0.986222 0
M  V30 313 H 32.6558 3.76649 0.307246 0
M  V30 314 H 32.9688 7.728 0.00304069 0
M  V30 315 H 31.3138 6.94999 0.00968457 0
M  V30 316 H 34.5048 4.6716 0.296546 0
M  V30 317 H 34.6778 6.47807 0.158054 0
M  V30 318 N 28.0839 -0.256276 1.55502 0
M  V30 319 C 29.4999 -0.604325 1.47716 0
M  V30 320 C 29.6999 -1.88763 0.705039 0
M  V30 321 O 28.7559 -2.51445 0.230613 0
M  V30 322 C 30.0689 -0.715756 2.92057 0
M  V30 323 C 31.6169 -0.808706 3.02372 0
M  V30 324 C 32.0919 -0.951777 4.48001 0
M  V30 325 N 33.5829 -1.01688 4.519 0
M  V30 326 C 34.3179 -1.14668 5.61817 0
M  V30 327 N 33.8139 -1.24261 6.81565 0
M  V30 328 N 35.6069 -1.1791 5.49594 0
M  V30 329 H 27.7579 0.586291 2.04148 0
M  V30 330 H 30.0209 0.201015 0.926443 0
M  V30 331 H 29.7269 0.157027 3.51349 0
M  V30 332 H 29.6009 -1.59071 3.42018 0
M  V30 333 H 31.9879 -1.67195 2.43166 0
M  V30 334 H 32.0689 0.0912063 2.55637 0
M  V30 335 H 31.7129 -0.0931291 5.07815 0
M  V30 336 H 31.6429 -1.86659 4.92408 0
M  V30 337 H 34.1339 -0.954468 3.65648 0
M  V30 338 H 34.4469 -1.34046 7.61086 0
M  V30 339 H 32.7919 -1.21236 6.84344 0
M  V30 340 H 35.9829 -1.10057 4.54978 0
M  V30 341 H 36.1559 -1.27681 6.35296 0
M  V30 342 N 29.562 -1.4872 -0.521534 0
M  V30 343 C 30.525 -1.63379 -1.60748 0
M  V30 344 C 31.525 -0.50661 -1.52611 0
M  V30 345 O 32.715 -0.772601 -1.5613 0
M  V30 346 C 29.847 -1.61192 -3.00383 0
M  V30 347 H 31.04 -2.60217 -1.49087 0
M  V30 348 H 28.593 -1.37444 -0.744235 0
M  V30 349 H 29.328 -0.65863 -3.17541 0
M  V30 350 H 29.113 -2.43032 -3.07698 0
M  V30 351 H 30.603 -1.7466 -3.7932 0
M  V30 352 N 31.0401 0.771051 -1.3745 0
M  V30 353 C 31.9701 1.89827 -1.3597 0
M  V30 354 C 32.9511 1.68562 -0.228216 0
M  V30 355 O 34.1361 1.8941 -0.428675 0
M  V30 356 C 31.2661 3.2712 -1.16662 0
M  V30 357 C 30.2201 3.6295 -2.2683 0
M  V30 358 C 29.5461 4.98791 -1.92644 0
M  V30 359 C 30.8461 3.69627 -3.69017 0
M  V30 360 H 32.5401 1.91323 -2.30295 0
M  V30 361 H 30.0861 0.919082 -1.10855 0
M  V30 362 H 32.0391 4.05615 -1.14256 0
M  V30 363 H 30.7631 3.26059 -0.187926 0
M  V30 364 H 29.4221 2.86763 -2.28392 0
M  V30 365 H 29.0701 4.94271 -0.933021 0
M  V30 366 H 28.7701 5.23733 -2.66416 0
M  V30 367 H 30.2941 5.79685 -1.91826 0
M  V30 368 H 31.7081 4.38273 -3.69581 0
M  V30 369 H 30.1051 4.06067 -4.41848 0
M  V30 370 H 31.1751 2.70273 -4.02592 0
M  V30 371 N 32.5182 1.22032 0.997298 0
M  V30 372 C 33.7642 1.04376 1.73878 0
M  V30 373 C 34.0972 -0.420716 1.89588 0
M  V30 374 O 33.3722 -1.31202 1.43583 0
M  V30 375 C 33.6552 1.75047 3.14691 0
M  V30 376 C 33.5082 3.29062 3.06656 0
M  V30 377 C 34.8272 1.49928 4.13775 0
M  V30 378 H 31.9462 0.380578 0.631133 0
M  V30 379 H 34.5882 1.50312 1.16217 0
M  V30 380 H 32.7382 1.35996 3.63919 0
M  V30 381 H 34.4102 3.7753 2.65083 0
M  V30 382 H 32.6532 3.58967 2.43568 0
M  V30 383 H 33.3242 3.73683 4.06282 0
M  V30 384 H 35.8002 1.83842 3.73285 0
M  V30 385 H 34.6762 2.01878 5.10428 0
M  V30 386 H 34.9372 0.430929 4.39995 0
M  V30 387 N 33.9963 -1.19345 1.0293 0
M  V30 388 C 34.9593 -2.20793 0.615069 0
M  V30 389 C 35.9593 -1.57553 -0.321533 0
M  V30 390 O 37.1493 -1.73862 -0.108483 0
M  V30 391 C 34.2813 -3.40754 -0.0999222 0
M  V30 392 H 35.4743 -2.58955 1.51269 0
M  V30 393 H 33.0273 -1.3303 0.820534 0
M  V30 394 H 33.7623 -3.0811 -1.01187 0
M  V30 395 H 33.5473 -3.87889 0.57309 0
M  V30 396 H 35.0373 -4.15898 -0.376645 0
M  V30 397 N 35.4744 -0.807222 -1.35358 0
M  V30 398 C 36.7214 -0.387888 -1.9875 0
M  V30 399 C 37.0494 1.04509 -1.64037 0
M  V30 400 O 36.3044 1.73986 -0.895946 0
M  V30 401 C 36.6034 -0.519036 -3.53611 0
M  V30 402 C 36.2694 -1.91542 -4.08194 0
M  V30 403 C 34.9314 -2.29745 -4.22813 0
M  V30 404 C 37.2834 -2.82896 -4.37744 0
M  V30 405 C 34.6114 -3.58668 -4.643 0
M  V30 406 C 36.9634 -4.11265 -4.8067 0
M  V30 407 C 35.6274 -4.49466 -4.93494 0
M  V30 408 H 34.8974 -0.141938 -0.727279 0
M  V30 409 H 37.5444 -1.02814 -1.6156 0
M  V30 410 H 35.8494 0.204658 -3.91265 0
M  V30 411 H 37.5464 -0.175345 -4.00616 0
M  V30 412 H 34.1364 -1.60862 -3.97268 0
M  V30 413 H 38.3204 -2.54629 -4.26002 0
M  V30 414 H 33.5764 -3.88113 -4.72418 0
M  V30 415 H 37.7504 -4.82153 -5.02496 0
M  V30 416 H 35.3774 -5.49418 -5.25399 0
M  V30 417 N 36.9525 1.47285 -0.560781 0
M  V30 418 C 37.8825 2.32857 0.173105 0
M  V30 419 C 38.8635 1.44009 0.905281 0
M  V30 420 O 40.0485 1.7286 0.885046 0
M  V30 421 C 37.1785 3.25861 1.20133 0
M  V30 422 C 36.1325 4.23978 0.585388 0
M  V30 423 C 35.4585 5.06332 1.7185 0
M  V30 424 C 36.7585 5.20242 -0.463178 0
M  V30 425 H 38.4525 2.94466 -0.541307 0
M  V30 426 H 35.9985 1.41601 -0.261764 0
M  V30 427 H 37.9515 3.84569 1.72293 0
M  V30 428 H 36.6755 2.62315 1.94573 0
M  V30 429 H 35.3345 3.66501 0.085054 0
M  V30 430 H 34.9825 4.39186 2.45203 0
M  V30 431 H 34.6825 5.72762 1.31213 0
M  V30 432 H 36.2065 5.67899 2.24329 0
M  V30 433 H 37.6205 5.73293 -0.027502 0
M  V30 434 H 36.0175 5.94896 -0.788627 0
M  V30 435 H 37.0875 4.65504 -1.35773 0
M  V30 436 N 38.4306 0.297415 1.54768 0
M  V30 437 C 39.6786 -0.312295 1.99673 0
M  V30 438 C 39.9996 -1.54686 1.18732 0
M  V30 439 O 39.2696 -1.93854 0.282382 0
M  V30 440 H 37.8496 -0.118381 0.73756 0
M  V30 441 H 40.5116 0.407915 1.90583 0
M  V30 442 H 39.6076 -0.586813 3.06534 0
M  V30 443 N 39.9087 -1.5758 0.0250728 0
M  V30 444 C 41.1577 -1.90811 -0.653767 0
M  V30 445 C 41.4707 -0.90273 -1.73523 0
M  V30 446 O 42.6767 -1.12614 -2.47043 0
M  V30 447 C 41.1327 -3.38804 -1.21409 0
M  V30 448 C 40.7407 -4.47692 -0.166126 0
M  V30 449 C 42.4847 -3.81108 -1.86967 0
M  V30 450 C 40.3917 -5.86779 -0.737856 0
M  V30 451 H 39.3217 -0.712063 -0.247956 0
M  V30 452 H 41.9727 -1.83281 0.0897137 0
M  V30 453 H 40.3547 -3.41252 -2.00905 0
M  V30 454 H 41.5287 -4.56797 0.606079 0
M  V30 455 H 39.8437 -4.14565 0.390466 0
M  V30 456 H 42.4407 -4.82375 -2.30692 0
M  V30 457 H 42.7837 -3.15953 -2.71071 0
M  V30 458 H 43.3167 -3.81065 -1.14167 0
M  V30 459 H 40.0557 -6.55468 0.0649577 0
M  V30 460 H 39.5757 -5.81288 -1.47864 0
M  V30 461 H 41.2547 -6.35223 -1.22884 0
M  V30 462 N 41.3868 0.248026 -1.55636 0
M  V30 463 C 42.3168 1.31079 -1.93237 0
M  V30 464 C 43.2978 1.50264 -0.797174 0
M  V30 465 O 44.4828 1.62891 -1.05737 0
M  V30 466 C 41.6128 2.66575 -2.22609 0
M  V30 467 C 40.5668 2.62087 -3.3837 0
M  V30 468 C 39.8928 4.01369 -3.53281 0
M  V30 469 C 41.1928 2.19171 -4.7409 0
M  V30 470 H 42.8868 0.998556 -2.82257 0
M  V30 471 H 40.4328 0.47891 -1.35803 0
M  V30 472 H 42.3858 3.41057 -2.47503 0
M  V30 473 H 41.1098 2.99432 -1.30414 0
M  V30 474 H 39.7688 1.90063 -3.13483 0
M  V30 475 H 39.4168 4.31489 -2.58508 0
M  V30 476 H 39.1168 3.99254 -4.31127 0
M  V30 477 H 40.6408 4.77552 -3.80495 0
M  V30 478 H 42.0548 2.83384 -4.98363 0
M  V30 479 H 40.4518 2.2817 -5.5503 0
M  V30 480 H 41.5218 1.14336 -4.71227 0
M  V30 481 N 42.8649 1.48995 0.513639 0
M  V30 482 C 43.7949 1.67636 1.62544 0
M  V30 483 C 44.7759 0.525087 1.61793 0
M  V30 484 O 45.9609 0.759502 1.78732 0
M  V30 485 C 43.0909 1.73114 3.01079 0
M  V30 486 C 42.0449 2.87905 3.16693 0
M  V30 487 C 41.3709 2.78486 4.56453 0
M  V30 488 C 42.6709 4.29005 2.97913 0
M  V30 489 H 44.3649 2.60716 1.47198 0
M  V30 490 H 41.9109 1.25465 0.706714 0
M  V30 491 H 43.8639 1.84742 3.78746 0
M  V30 492 H 42.5879 0.766241 3.17484 0
M  V30 493 H 41.2469 2.75859 2.41448 0
M  V30 494 H 40.8949 1.7993 4.69717 0
M  V30 495 H 40.5949 3.55523 4.67843 0
M  V30 496 H 42.1189 2.92104 5.36197 0
M  V30 497 H 43.5329 4.41798 3.65359 0
M  V30 498 H 41.9299 5.07166 3.20785 0
M  V30 499 H 42.9999 4.44329 1.94165 0
M  V30 500 N 44.343 -0.763751 1.37857 0
M  V30 501 C 45.273 -1.89103 1.36975 0
M  V30 502 C 46.254 -1.68439 0.237152 0
M  V30 503 O 47.439 -1.8918 0.438713 0
M  V30 504 C 44.569 -3.26496 1.18395 0
M  V30 505 C 43.523 -3.61741 2.28751 0
M  V30 506 C 42.849 -4.97762 1.95286 0
M  V30 507 C 44.149 -3.67665 3.70972 0
M  V30 508 H 45.843 -1.90099 2.31307 0
M  V30 509 H 43.389 -0.91319 1.11341 0
M  V30 510 H 45.342 -4.05003 1.16406 0
M  V30 511 H 44.066 -3.25955 0.205215 0
M  V30 512 H 42.725 -2.85547 2.29909 0
M  V30 513 H 42.373 -4.93769 0.959221 0
M  V30 514 H 42.073 -5.22313 2.69189 0
M  V30 515 H 43.597 -5.7866 1.94898 0
M  V30 516 H 45.011 -4.36307 3.719 0
M  V30 517 H 43.408 -4.03718 4.43995 0
M  V30 518 H 44.478 -2.68134 4.0402 0
M  V30 519 N 45.8211 -1.22559 -0.990812 0
M  V30 520 C 47.0491 -1.07779 -1.76611 0
M  V30 521 C 47.4641 0.371513 -1.85109 0
M  V30 522 O 46.8211 1.25737 -1.32274 0
M  V30 523 C 46.8721 -1.68512 -3.19822 0
M  V30 524 O 46.5931 -3.07774 -3.1178 0
M  V30 525 C 48.0941 -1.59035 -4.13791 0
M  V30 526 H 45.3141 -0.377729 -0.554583 0
M  V30 527 H 47.8581 -1.62195 -1.24551 0
M  V30 528 H 46.0131 -1.18154 -3.68942 0
M  V30 529 H 46.4271 -3.37062 -4.01858 0
M  V30 530 H 47.9011 -2.0625 -5.1202 0
M  V30 531 H 48.3781 -0.547273 -4.35777 0
M  V30 532 H 48.9841 -2.08709 -3.70568 0
M  V30 533 N 47.2992 1.18797 -1.03562 0
M  V30 534 C 48.5472 1.88278 -0.734569 0
M  V30 535 C 48.8682 1.8043 0.739586 0
M  V30 536 O 48.1382 1.21925 1.53333 0
M  V30 537 H 46.7182 0.696991 -0.268725 0
M  V30 538 H 49.3802 1.44192 -1.31129 0
M  V30 539 H 48.4762 2.94443 -1.03489 0
M  V30 540 N 48.7773 0.814389 1.34928 0
M  V30 541 C 50.0233 0.399013 1.98836 0
M  V30 542 C 50.3563 -1.03314 1.64438 0
M  V30 543 O 49.6313 -1.71811 0.911659 0
M  V30 544 C 49.9143 0.591629 3.55207 0
M  V30 545 C 49.7673 2.06928 3.99376 0
M  V30 546 C 51.0863 0.022199 4.40094 0
M  V30 547 H 48.2053 0.146451 0.722303 0
M  V30 548 H 50.8473 1.02537 1.59957 0
M  V30 549 H 48.9973 0.0584441 3.88456 0
M  V30 550 H 50.6693 2.66544 3.76499 0
M  V30 551 H 48.9123 2.56287 3.49999 0
M  V30 552 H 49.5833 2.1549 5.08201 0
M  V30 553 H 52.0593 0.477643 4.13349 0
M  V30 554 H 50.9353 0.186832 5.48582 0
M  V30 555 H 51.1963 -1.07215 4.28902 0
M  V30 556 N 50.2554 -1.46986 0.568584 0
M  V30 557 C 51.1854 -2.32946 -0.160753 0
M  V30 558 C 52.1664 -1.44487 -0.897631 0
M  V30 559 O 53.3514 -1.73327 -0.875867 0
M  V30 560 C 50.4814 -3.26494 -1.18403 0
M  V30 561 C 49.4354 -4.24282 -0.562895 0
M  V30 562 C 48.7614 -5.07236 -1.69163 0
M  V30 563 C 50.0614 -5.19989 0.490761 0
M  V30 564 H 51.7554 -2.94175 0.556916 0
M  V30 565 H 49.3014 -1.4146 0.26927 0
M  V30 566 H 51.2544 -3.85477 -1.70251 0
M  V30 567 H 49.9784 -2.63343 -1.93179 0
M  V30 568 H 48.6374 -3.66541 -0.0656164 0
M  V30 569 H 48.2854 -4.4048 -2.42871 0
M  V30 570 H 47.9854 -5.7345 -1.28174 0
M  V30 571 H 49.5094 -5.6908 -2.21314 0
M  V30 572 H 50.9234 -5.73271 0.0579047 0
M  V30 573 H 49.3204 -5.94469 0.820165 0
M  V30 574 H 50.3904 -4.64777 1.3824 0
M  V30 575 N 51.7335 -0.305618 -1.54608 0
M  V30 576 C 52.9825 0.303098 -1.9941 0
M  V30 577 C 53.2955 1.54648 -1.19764 0
M  V30 578 O 54.5015 2.23007 -1.54855 0
M  V30 579 C 52.9575 0.590588 -3.55021 0
M  V30 580 C 52.5655 -0.634719 -4.43481 0
M  V30 581 C 54.3095 1.16025 -4.08336 0
M  V30 582 C 52.2165 -0.320126 -5.90533 0
M  V30 583 H 51.1465 0.117031 -0.744862 0
M  V30 584 H 53.7975 -0.415045 -1.78745 0
M  V30 585 H 52.1795 1.36845 -3.71604 0
M  V30 586 H 53.3535 -1.41079 -4.38672 0
M  V30 587 H 51.6685 -1.12333 -4.00962 0
M  V30 588 H 54.2655 1.40994 -5.15776 0
M  V30 589 H 54.6085 2.10397 -3.5922 0
M  V30 590 H 55.1415 0.443985 -3.95315 0
M  V30 591 H 51.8805 -1.23254 -6.43808 0
M  V30 592 H 51.4005 0.418579 -5.98338 0
M  V30 593 H 53.0795 0.0766241 -6.46955 0
M  V30 594 N 53.2116 1.57565 -0.0334293 0
M  V30 595 C 54.1746 2.09393 0.932048 0
M  V30 596 C 55.1746 1.00986 1.25134 0
M  V30 597 O 56.3646 1.27129 1.19096 0
M  V30 598 C 53.4966 2.56338 2.2473 0
M  V30 599 H 54.6896 2.95984 0.483085 0
M  V30 600 H 52.2426 1.54819 0.21468 0
M  V30 601 H 52.9776 1.7309 2.74245 0
M  V30 602 H 52.7626 3.35542 2.02865 0
M  V30 603 H 54.2526 2.96646 2.93923 0
M  V30 604 N 54.6897 -0.239769 1.55765 0
M  V30 605 C 55.6377 -1.31668 1.91745 0
M  V30 606 C 56.6317 -1.49462 0.797338 0
M  V30 607 O 57.8377 -1.50852 0.982021 0
M  V30 608 H 54.2127 -0.441048 0.609082 0
M  V30 609 H 56.1837 -0.985923 2.81642 0
M  V30 610 C 54.9327 -2.66368 2.2348 0
M  V30 611 H 54.2557 -2.53478 3.09175 0
M  V30 612 H 55.6957 -3.40578 2.52553 0
M  V30 613 C 54.1547 -3.20002 1.05359 0
M  V30 614 O 54.6847 -4.00538 0.305261 0
M  V30 615 N 52.8907 -2.78126 0.842292 0
M  V30 616 H 52.4377 -2.12742 1.45253 0
M  V30 617 H 52.3957 -3.14354 0.053652 0
M  V30 618 N 56.1678 -1.49265 -0.50573 0
M  V30 619 C 57.0978 -1.68495 -1.61653 0
M  V30 620 C 58.0788 -0.53366 -1.61512 0
M  V30 621 O 59.2638 -0.76897 -1.78327 0
M  V30 622 C 56.3938 -1.74709 -3.00157 0
M  V30 623 C 55.3478 -2.89581 -3.15162 0
M  V30 624 C 54.6738 -2.80903 -4.5497 0
M  V30 625 C 55.9738 -4.30578 -2.95634 0
M  V30 626 H 57.6678 -2.61493 -1.45814 0
M  V30 627 H 55.2138 -1.25838 -0.70005 0
M  V30 628 H 57.1668 -1.86748 -3.77761 0
M  V30 629 H 55.8908 -0.783067 -3.17074 0
M  V30 630 H 54.5498 -2.77136 -2.39982 0
M  V30 631 H 54.1978 -1.82419 -4.68756 0
M  V30 632 H 53.8978 -3.57999 -4.65951 0
M  V30 633 H 55.4218 -2.94944 -5.34641 0
M  V30 634 H 56.8358 -4.4373 -3.63011 0
M  V30 635 H 55.2328 -5.0886 -3.18091 0
M  V30 636 H 56.3028 -4.45352 -1.91806 0
M  V30 637 N 57.6459 0.756429 -1.3826 0
M  V30 638 C 58.8759 1.54341 -1.3734 0
M  V30 639 C 59.2839 1.89159 0.0393917 0
M  V30 640 O 58.6269 1.5307 1.01565 0
M  V30 641 C 58.6889 2.87238 -2.16182 0
M  V30 642 C 58.3529 2.74973 -3.65019 0
M  V30 643 C 59.3499 2.44962 -4.58574 0
M  V30 644 C 57.0349 2.92515 -4.08338 0
M  V30 645 C 59.0289 2.32642 -5.93428 0
M  V30 646 C 56.7159 2.79815 -5.43274 0
M  V30 647 C 57.7139 2.49921 -6.35632 0
M  V30 648 O 57.4019 2.37275 -7.68086 0
M  V30 649 H 57.1339 0.484281 -0.471643 0
M  V30 650 H 59.6879 0.944152 -1.82414 0
M  V30 651 H 57.9179 3.49342 -1.65822 0
M  V30 652 H 59.6069 3.48731 -2.07705 0
M  V30 653 H 60.3729 2.31081 -4.26412 0
M  V30 654 H 56.2519 3.14781 -3.368 0
M  V30 655 H 59.7959 2.0923 -6.65484 0
M  V30 656 H 55.6929 2.93269 -5.75034 0
M  V30 657 H 56.4609 2.52509 -7.78577 0
M  V30 658 N 59.124 1.23083 0.984299 0
M  V30 659 C 60.072 1.00593 2.09723 0
M  V30 660 C 61.066 -0.0538014 1.69315 0
M  V30 661 O 62.272 0.0993719 1.79725 0
M  V30 662 H 58.647 0.30817 0.685956 0
M  V30 663 H 60.618 1.95012 2.2586 0
M  V30 664 C 59.367 0.609601 3.42314 0
M  V30 665 H 58.69 1.41675 3.73856 0
M  V30 666 H 60.13 0.491726 4.21139 0
M  V30 667 C 58.589 -0.681745 3.2993 0
M  V30 668 O 59.119 -1.73192 3.62446 0
M  V30 669 N 57.325 -0.656178 2.83095 0
M  V30 670 H 56.872 0.198759 2.56832 0
M  V30 671 H 56.83 -1.52044 2.75191 0
M  V30 672 N 60.6021 -1.18246 1.0419 0
M  V30 673 C 61.5321 -2.24127 0.654914 0
M  V30 674 C 62.5131 -1.66617 -0.342451 0
M  V30 675 O 63.6981 -1.92924 -0.222277 0
M  V30 676 C 60.8281 -3.47295 0.0183757 0
M  V30 677 C 59.7821 -4.17563 0.939414 0
M  V30 678 C 59.1081 -5.34438 0.167286 0
M  V30 679 C 60.4081 -4.70917 2.25908 0
M  V30 680 H 62.1021 -2.56753 1.54007 0
M  V30 681 H 59.6481 -1.23414 0.74195 0
M  V30 682 H 61.6011 -4.20572 -0.264082 0
M  V30 683 H 60.3251 -3.13907 -0.901664 0
M  V30 684 H 58.9841 -3.46186 1.20628 0
M  V30 685 H 58.6321 -4.97298 -0.7552 0
M  V30 686 H 58.3321 -5.82388 0.780901 0
M  V30 687 H 59.8561 -6.10504 -0.108125 0
M  V30 688 H 61.2701 -5.35882 2.03724 0
M  V30 689 H 59.6671 -5.29406 2.82577 0
M  V30 690 H 60.7371 -3.88272 2.9047 0
M  V30 691 N 62.0802 -0.821533 -1.34494 0
M  V30 692 C 63.0122 -0.199946 -2.28326 0
M  V30 693 C 64.0252 0.609377 -1.50965 0
M  V30 694 O 65.2142 0.439285 -1.7301 0
M  V30 695 C 62.3142 0.738431 -3.30757 0
M  V30 696 C 61.4872 -0.0277632 -4.37391 0
M  V30 697 C 60.5462 0.831332 -5.19591 0
M  V30 698 O 59.5722 0.276822 -5.68526 0
M  V30 699 N 60.7742 2.15132 -5.39165 0
M  V30 700 H 63.5392 -1.00609 -2.82308 0
M  V30 701 H 61.1002 -0.678366 -1.47003 0
M  V30 702 H 63.0922 1.31773 -3.82646 0
M  V30 703 H 61.6622 1.44533 -2.7718 0
M  V30 704 H 60.8822 -0.788359 -3.86236 0
M  V30 705 H 62.1702 -0.555251 -5.05761 0
M  V30 706 H 61.5682 2.62559 -5.01078 0
M  V30 707 H 60.1252 2.6795 -5.94177 0
M  V30 708 N 63.5583 1.46682 -0.576371 0
M  V30 709 C 64.8073 2.01619 -0.0572825 0
M  V30 710 C 65.1203 1.45417 1.30818 0
M  V30 711 O 66.3263 1.92133 1.91825 0
M  V30 712 C 64.7823 3.59863 -0.0518371 0
M  V30 713 C 64.3903 4.25059 -1.41523 0
M  V30 714 C 66.1343 4.2248 0.413639 0
M  V30 715 C 64.0413 5.75364 -1.36785 0
M  V30 716 H 62.9713 0.753794 -0.0176448 0
M  V30 717 H 65.6223 1.68481 -0.727076 0
M  V30 718 H 64.0043 3.90048 0.683994 0
M  V30 719 H 65.1783 4.06491 -2.17029 0
M  V30 720 H 63.4933 3.7451 -1.8202 0
M  V30 721 H 66.0903 5.3265 0.467779 0
M  V30 722 H 66.4333 3.90976 1.42982 0
M  V30 723 H 66.9663 3.96897 -0.267929 0
M  V30 724 H 63.7053 6.11518 -2.36063 0
M  V30 725 H 63.2253 5.96214 -0.654895 0
M  V30 726 H 64.9043 6.37955 -1.07805 0
M  V30 727 N 65.0364 0.313813 1.54444 0
M  V30 728 C 66.2824 -0.292108 2.00685 0
M  V30 729 C 66.6154 -1.52548 1.20177 0
M  V30 730 O 65.8904 -1.92452 0.281531 0
M  V30 731 C 66.1734 -0.635968 3.5444 0
M  V30 732 C 66.0264 0.607437 4.4568 0
M  V30 733 C 67.3454 -1.45747 4.15266 0
M  V30 734 H 64.4644 -0.104697 0.729526 0
M  V30 735 H 67.1064 0.428457 1.85106 0
M  V30 736 H 65.2564 -1.24986 3.67846 0
M  V30 737 H 66.9284 1.24581 4.44159 0
M  V30 738 H 65.1714 1.23822 4.15753 0
M  V30 739 H 65.8424 0.322515 5.51057 0
M  V30 740 H 68.3184 -0.938645 4.05375 0
M  V30 741 H 67.1944 -1.66683 5.2298 0
M  V30 742 H 67.4554 -2.45063 3.67963 0
M  V30 743 N 66.5145 -1.57545 0.0417849 0
M  V30 744 C 67.9305 -1.56467 -0.314704 0
M  V30 745 C 68.1305 -1.04859 -1.72066 0
M  V30 746 O 67.1865 -0.700983 -2.42575 0
M  V30 747 C 68.4995 -3.00317 -0.15174 0
M  V30 748 C 70.0475 -3.12201 -0.223553 0
M  V30 749 C 70.5225 -4.57913 -0.0892295 0
M  V30 750 N 72.0135 -4.6297 -0.145808 0
M  V30 751 C 72.7485 -5.73362 -0.0658459 0
M  V30 752 N 72.2445 -6.92769 0.0659282 0
M  V30 753 N 74.0375 -5.6197 -0.12075 0
M  V30 754 H 66.1885 -1.89416 0.961014 0
M  V30 755 H 68.4515 -0.871862 0.372237 0
M  V30 756 H 68.1575 -3.42073 0.817254 0
M  V30 757 H 68.0315 -3.65892 -0.916692 0
M  V30 758 H 70.4185 -2.70349 -1.18301 0
M  V30 759 H 70.4995 -2.49323 0.571994 0
M  V30 760 H 70.1435 -5.00448 0.866867 0
M  V30 761 H 70.0735 -5.18786 -0.903802 0
M  V30 762 H 72.5645 -3.7709 -0.247286 0
M  V30 763 H 72.8775 -7.72707 0.119905 0
M  V30 764 H 71.2225 -6.94927 0.100885 0
M  V30 765 H 74.4135 -4.67572 -0.222187 0
M  V30 766 H 74.5865 -6.47977 -0.0549735 0
M  V30 767 N 67.9926 0.231505 -1.5589 0
M  V30 768 C 69.2396 0.957352 -1.78441 0
M  V30 769 C 69.5676 1.84726 -0.60882 0
M  V30 770 O 68.8226 1.91416 0.40725 0
M  V30 771 C 69.1216 1.83577 -3.0665 0
M  V30 772 C 68.7876 1.09993 -4.37278 0
M  V30 773 C 67.4496 0.896629 -4.72773 0
M  V30 774 C 69.8016 0.579558 -5.17968 0
M  V30 775 C 67.1296 0.160896 -5.86479 0
M  V30 776 C 69.4816 -0.142783 -6.32439 0
M  V30 777 C 68.1456 -0.357427 -6.66542 0
M  V30 778 H 67.4156 0.35032 -0.65296 0
M  V30 779 H 70.0626 0.226259 -1.90159 0
M  V30 780 H 68.3676 2.63441 -2.90011 0
M  V30 781 H 70.0646 2.39934 -3.21298 0
M  V30 782 H 66.6546 1.26835 -4.09403 0
M  V30 783 H 70.8386 0.724125 -4.90989 0
M  V30 784 H 66.0946 -0.0157293 -6.11398 0
M  V30 785 H 70.2686 -0.553559 -6.94196 0
M  V30 786 H 67.8956 -0.929466 -7.54497 0
M  V30 787 N 69.4707 1.49531 0.497807 0
M  V30 788 C 70.6987 1.62893 1.27567 0
M  V30 789 C 71.1137 0.301585 1.86376 0
M  V30 790 O 70.4707 -0.713335 1.67982 0
M  V30 791 C 70.5217 2.70013 2.40364 0
M  V30 792 O 70.2427 3.976 1.83972 0
M  V30 793 C 71.7437 2.94109 3.31685 0
M  V30 794 H 68.9637 0.548298 0.386794 0
M  V30 795 H 71.5077 1.95584 0.597245 0
M  V30 796 H 69.6627 2.40092 3.04031 0
M  V30 797 H 70.0767 4.56631 2.58047 0
M  V30 798 H 71.5507 3.72788 4.07104 0
M  V30 799 H 72.0277 2.04147 3.88871 0
M  V30 800 H 72.6337 3.2546 2.73781 0
M  V30 801 N 70.9488 -0.749086 1.3866 0
M  V30 802 C 72.2258 -1.4992 1.25632 0
M  V30 803 C 72.6058 -2.10633 -0.140317 0
M  V30 804 O 71.9538 -1.97437 -1.15025 0
M  V30 805 C 72.1638 -2.56195 2.36992 0
M  V30 806 C 73.5118 -3.22972 2.75634 0
M  V30 807 O 74.5358 -2.66502 2.36337 0
M  V30 808 O 73.3948 -4.25122 3.43415 0
M  V30 809 H 70.4888 -0.665067 0.491544 0
M  V30 810 H 73.0348 -0.784113 1.50498 0
M  V30 811 H 71.8068 -2.09612 3.30422 0
M  V30 812 H 71.4298 -3.35279 2.13714 0
M  V30 813 N 72.4269 -1.23603 -0.977757 0
M  V30 814 C 73.6569 -1.09487 -1.75203 0
M  V30 815 C 74.0649 0.356321 -1.85814 0
M  V30 816 O 73.4079 1.25816 -1.33851 0
M  V30 817 C 73.4699 -1.64905 -3.19447 0
M  V30 818 C 73.1339 -3.13688 -3.32338 0
M  V30 819 C 74.1309 -4.10953 -3.18455 0
M  V30 820 C 71.8159 -3.53449 -3.56902 0
M  V30 821 C 73.8099 -5.45962 -3.28944 0
M  V30 822 C 71.4969 -4.88602 -3.6703 0
M  V30 823 C 72.4949 -5.84668 -3.53062 0
M  V30 824 O 72.1829 -7.17365 -3.62826 0
M  V30 825 H 71.9149 -0.38367 -0.556573 0
M  V30 826 H 74.4689 -1.6398 -1.23693 0
M  V30 827 H 72.6989 -1.04835 -3.72218 0
M  V30 828 H 74.3879 -1.46226 -3.78646 0
M  V30 829 H 75.1539 -3.81577 -2.99372 0
M  V30 830 H 71.0329 -2.79188 -3.66844 0
M  V30 831 H 74.5769 -6.20925 -3.17958 0
M  V30 832 H 70.4739 -5.17653 -3.85623 0
M  V30 833 H 71.2419 -7.2515 -3.79605 0
M  V30 834 N 73.905 1.17692 -1.04816 0
M  V30 835 C 74.837 2.21103 -0.603822 0
M  V30 836 C 75.85 1.59411 0.33046 0
M  V30 837 O 77.039 1.7807 0.12379 0
M  V30 838 C 74.139 3.38623 0.136898 0
M  V30 839 C 73.312 4.29888 -0.807137 0
M  V30 840 C 72.371 5.26088 -0.10836 0
M  V30 841 O 71.397 5.64353 -0.741232 0
M  V30 842 N 72.599 5.68882 1.15558 0
M  V30 843 H 75.364 2.59848 -1.49329 0
M  V30 844 H 72.925 1.32553 -0.929587 0
M  V30 845 H 74.917 4.00009 0.614401 0
M  V30 846 H 73.487 2.98508 0.927993 0
M  V30 847 H 72.707 3.65993 -1.46434 0
M  V30 848 H 73.995 4.87759 -1.44807 0
M  V30 849 H 73.393 5.39861 1.69015 0
M  V30 850 H 71.95 6.32429 1.57722 0
M  V30 851 N 75.3831 0.828654 1.34056 0
M  V30 852 C 76.6111 0.43262 2.02326 0
M  V30 853 C 77.0261 -0.963147 1.62385 0
M  V30 854 O 76.3831 -1.62425 0.832121 0
M  V30 855 C 76.4341 0.53182 3.57567 0
M  V30 856 O 76.1551 1.87258 3.96063 0
M  V30 857 C 77.6561 0.131422 4.43105 0
M  V30 858 H 74.8761 0.172923 0.648335 0
M  V30 859 H 77.4201 1.1184 1.71208 0
M  V30 860 H 75.5751 -0.105938 3.87255 0
M  V30 861 H 75.9891 1.85087 4.90758 0
M  V30 862 H 77.4631 0.251904 5.51425 0
M  V30 863 H 77.9401 -0.925645 4.29335 0
M  V30 864 H 78.5461 0.743207 4.18756 0
M  V30 865 N 76.8612 -1.46375 0.584142 0
M  V30 866 C 78.2772 -1.57694 0.245929 0
M  V30 867 C 78.4772 -1.57903 -1.25175 0
M  V30 868 O 77.5332 -1.49676 -2.03355 0
M  V30 869 C 78.8462 -2.87028 0.896402 0
M  V30 870 C 80.3942 -3.00662 0.870127 0
M  V30 871 C 80.8692 -4.32734 1.50017 0
M  V30 872 N 82.3602 -4.39436 1.46458 0
M  V30 873 C 83.0952 -5.40248 1.92144 0
M  V30 874 N 82.5912 -6.47726 2.4581 0
M  V30 875 N 84.3842 -5.31459 1.83052 0
M  V30 876 H 76.5352 -1.44483 1.55687 0
M  V30 877 H 78.7982 -0.689291 0.650831 0
M  V30 878 H 78.5042 -2.9269 1.95002 0
M  V30 879 H 78.3782 -3.75014 0.405486 0
M  V30 880 H 80.7652 -2.94581 -0.174871 0
M  V30 881 H 80.8462 -2.14148 1.39908 0
M  V30 882 H 80.4902 -4.39573 2.54437 0
M  V30 883 H 80.4202 -5.18025 0.946432 0
M  V30 884 H 82.9112 -3.62367 1.07231 0
M  V30 885 H 83.2242 -7.20863 2.78525 0
M  V30 886 H 81.5692 -6.48542 2.49836 0
M  V30 887 H 84.7602 -4.46396 1.40883 0
M  V30 888 H 84.9332 -6.09881 2.18973 0
M  V30 889 N 78.3393 -0.321999 -1.54275 0
M  V30 890 C 79.5643 0.285791 -2.05422 0
M  V30 891 C 79.9893 1.45124 -1.19669 0
M  V30 892 O 79.3473 1.80132 -0.205441 0
M  V30 893 C 79.3953 0.69956 -3.53749 0
M  V30 894 O 78.4993 1.8021 -3.70942 0
M  V30 895 H 77.8403 0.0518962 -0.661969 0
M  V30 896 H 80.3703 -0.469954 -1.9913 0
M  V30 897 H 80.3803 0.982649 -3.9599 0
M  V30 898 H 79.0553 -0.152864 -4.15619 0
M  V30 899 H 77.6323 1.51794 -3.40607 0
M  V30 900 N 79.8174 1.5752 -0.0501392 0
M  V30 901 C 80.7654 2.12651 0.942459 0
M  V30 902 C 81.7594 1.05807 1.32292 0
M  V30 903 O 82.9654 1.24217 1.3027 0
M  V30 904 H 79.3404 0.679673 0.321789 0
M  V30 905 H 81.3114 2.94951 0.452356 0
M  V30 906 C 80.0604 2.68565 2.20836 0
M  V30 907 H 79.3834 3.50439 1.92439 0
M  V30 908 H 80.8234 3.10761 2.8845 0
M  V30 909 C 79.2824 1.62291 2.95234 0
M  V30 910 O 79.8124 1.03508 3.88135 0
M  V30 911 N 78.0184 1.33836 2.57946 0
M  V30 912 H 77.5654 1.81826 1.82475 0
M  V30 913 H 77.5234 0.629595 3.08032 0
M  V30 914 N 81.2955 -0.223234 1.56011 0
M  V30 915 C 82.2055 -1.29766 1.95443 0
M  V30 916 C 83.2215 -1.51373 0.858028 0
M  V30 917 O 84.3975 -1.64536 1.16146 0
M  V30 918 C 81.4625 -2.62772 2.26167 0
M  V30 919 C 80.5235 -2.49482 3.49367 0
M  V30 920 C 79.7565 -3.76145 3.78616 0
M  V30 921 O 79.9795 -4.79087 3.09568 0
M  V30 922 O 78.9135 -3.73358 4.72109 0
M  V30 923 H 82.7395 -0.99309 2.87004 0
M  V30 924 H 80.3245 -0.425958 1.43199 0
M  V30 925 H 82.2065 -3.41327 2.47131 0
M  V30 926 H 80.8815 -2.92913 1.37781 0
M  V30 927 H 79.7885 -1.69133 3.33684 0
M  V30 928 H 81.1215 -2.2428 4.38131 0
M  V30 929 N 82.7736 -1.49793 -0.48987 0
M  V30 930 C 83.7216 -1.67783 -1.61095 0
M  V30 931 C 84.7156 -0.543683 -1.60438 0
M  V30 932 O 85.9216 -0.723647 -1.64813 0
M  V30 933 H 82.2966 -0.529255 -0.534222 0
M  V30 934 H 84.2676 -2.61861 -1.43078 0
M  V30 935 C 83.0166 -1.77191 -2.99164 0
M  V30 936 H 82.3396 -2.63841 -3.0038 0
M  V30 937 H 83.7796 -1.93809 -3.77113 0
M  V30 938 C 82.2386 -0.519203 -3.32875 0
M  V30 939 O 82.7686 0.350124 -4.00171 0
M  V30 940 N 80.9746 -0.378816 -2.8812 0
M  V30 941 H 80.5216 -1.08725 -2.33531 0
M  V30 942 H 80.4796 0.458239 -3.11043 0
M  V30 943 N 84.2517 0.741722 -1.39055 0
M  V30 944 C 85.6677 1.04638 -1.20512 0
M  V30 945 C 85.8677 2.01405 -0.0620218 0
M  V30 946 O 84.9237 2.45547 0.588457 0
M  V30 947 C 86.2367 1.6151 -2.53643 0
M  V30 948 C 87.7847 1.73623 -2.6043 0
M  V30 949 C 88.2597 2.33906 -3.93767 0
M  V30 950 N 89.7507 2.41323 -3.9537 0
M  V30 951 C 90.4857 2.88888 -4.95309 0
M  V30 952 N 89.9817 3.36401 -6.05645 0
M  V30 953 N 91.7747 2.88037 -4.82692 0
M  V30 954 H 83.9257 0.0998155 -2.12165 0
M  V30 955 H 86.1887 0.106907 -0.941953 0
M  V30 956 H 85.8947 0.978739 -3.37807 0
M  V30 957 H 85.7687 2.60411 -2.72885 0
M  V30 958 H 88.1557 2.36384 -1.76655 0
M  V30 959 H 88.2367 0.733945 -2.45045 0
M  V30 960 H 87.8807 1.71776 -4.7797 0
M  V30 961 H 87.8107 3.34799 -4.06469 0
M  V30 962 H 90.3017 2.07734 -3.15682 0
M  V30 963 H 90.6147 3.71186 -6.77821 0
M  V30 964 H 88.9597 3.34427 -6.09248 0
M  V30 965 H 92.1507 2.50237 -3.95599 0
M  V30 966 H 92.3237 3.24792 -5.60726 0
M  V30 967 N 85.7298 1.2412 0.971189 0
M  V30 968 C 86.9788 1.07284 1.70801 0
M  V30 969 C 87.2918 -0.388902 1.91695 0
M  V30 970 O 88.4978 -0.677379 2.62914 0
M  V30 971 C 86.9538 1.87145 3.07416 0
M  V30 972 C 86.5618 3.37707 2.94377 0
M  V30 973 C 88.3058 1.78828 3.84995 0
M  V30 974 C 86.2128 4.09925 4.26281 0
M  V30 975 H 85.1428 0.397854 0.64049 0
M  V30 976 H 87.7938 1.4817 1.0825 0
M  V30 977 H 86.1758 1.39071 3.70777 0
M  V30 978 H 87.3498 3.93335 2.4005 0
M  V30 979 H 85.6648 3.46938 2.30267 0
M  V30 980 H 88.2618 2.30089 4.82662 0
M  V30 981 H 88.6048 0.75284 4.09436 0
M  V30 982 H 89.1378 2.24563 3.28354 0
M  V30 983 H 85.8768 5.13813 4.07033 0
M  V30 984 H 85.3968 3.59083 4.80437 0
M  V30 985 H 87.0758 4.1673 4.94919 0
M  V30 986 N 87.2079 -1.17134 1.05439 0
M  V30 987 C 88.1549 -2.21235 0.657539 0
M  V30 988 C 89.1249 -1.62551 -0.341543 0
M  V30 989 O 90.3099 -1.89379 -0.232393 0
M  V30 990 C 87.4499 -3.45076 0.0410575 0
M  V30 991 C 86.5629 -4.18042 1.08927 0
M  V30 992 C 85.6979 -5.29376 0.439848 0
M  V30 993 C 84.7369 -5.94132 1.4722 0
M  V30 994 N 83.8739 -6.96975 0.846756 0
M  V30 995 H 88.7139 -2.54534 1.54972 0
M  V30 996 H 86.2509 -1.25028 0.775006 0
M  V30 997 H 88.2089 -4.15862 -0.33383 0
M  V30 998 H 86.8389 -3.12353 -0.814568 0
M  V30 999 H 85.8909 -3.45945 1.58196 0
M  V30 1000 H 87.2029 -4.62306 1.87282 0
M  V30 1001 H 86.3569 -6.06699 0.0115125 0
M  V30 1002 H 85.0959 -4.86251 -0.375656 0
M  V30 1003 H 84.1009 -5.15538 1.91052 0
M  V30 1004 H 85.3259 -6.39337 2.28965 0
M  V30 1005 H 83.2719 -6.5598 0.0518075 0
M  V30 1006 H 83.1889 -7.39565 1.5678 0
M  V30 1007 H 84.4569 -7.78239 0.443277 0
M  V30 1008 N 88.686 -0.835752 -1.33615 0
M  V30 1009 C 89.616 -0.281739 -2.31794 0
M  V30 1010 C 90.597 0.608833 -1.58831 0
M  V30 1011 O 91.782 0.533035 -1.86741 0
M  V30 1012 C 88.912 0.546612 -3.42971 0
M  V30 1013 C 87.866 -0.247904 -4.27281 0
M  V30 1014 C 87.192 0.704001 -5.30045 0
M  V30 1015 C 88.492 -1.46324 -5.01385 0
M  V30 1016 H 90.186 -1.10206 -2.78379 0
M  V30 1017 H 87.732 -0.531388 -1.33837 0
M  V30 1018 H 89.685 0.944467 -4.1068 0
M  V30 1019 H 88.409 1.40011 -2.95067 0
M  V30 1020 H 87.068 -0.627281 -3.61194 0
M  V30 1021 H 86.716 1.55381 -4.78399 0
M  V30 1022 H 86.416 0.176524 -5.87335 0
M  V30 1023 H 87.94 1.09944 -6.0062 0
M  V30 1024 H 89.354 -1.13871 -5.61877 0
M  V30 1025 H 87.751 -1.92728 -5.6831 0
M  V30 1026 H 88.821 -2.23467 -4.30338 0
M  V30 1027 N 90.1641 1.46063 -0.591896 0
M  V30 1028 C 91.4101 2.02638 -0.0811191 0
M  V30 1029 C 91.7431 1.4613 1.27905 0
M  V30 1030 O 91.0181 0.629908 1.84017 0
M  V30 1031 C 91.3011 3.60091 -0.0252436 0
M  V30 1032 C 91.1541 4.26965 -1.41496 0
M  V30 1033 C 92.4731 4.3496 0.670685 0
M  V30 1034 H 89.5921 0.73635 -0.0309524 0
M  V30 1035 H 92.2341 1.741 -0.760859 0
M  V30 1036 H 90.3841 3.84535 0.553624 0
M  V30 1037 H 92.0561 4.13756 -2.0397 0
M  V30 1038 H 90.2991 3.85971 -1.98011 0
M  V30 1039 H 90.9701 5.35781 -1.32825 0
M  V30 1040 H 93.4461 4.15716 0.178825 0
M  V30 1041 H 92.3221 5.44686 0.678837 0
M  V30 1042 H 92.5831 4.06685 1.73379 0
M  V30 1043 N 91.6422 0.330177 1.54103 0
M  V30 1044 C 93.0532 -0.15652 1.86043 0
M  V30 1045 C 93.4042 -1.51086 1.2517 0
M  V30 1046 O 92.5292 -2.09023 0.560217 0
M  V30 1047 C 93.1242 -0.290784 3.3755 0
M  V30 1048 C 91.6832 -0.721705 3.69416 0
M  V30 1049 C 90.8302 0.152622 2.7688 0
M  V30 1050 H 93.7812 0.550237 1.48856 0
M  V30 1051 H 93.8022 -1.12058 3.63625 0
M  V30 1052 H 93.3142 0.695068 3.81825 0
M  V30 1053 H 91.4152 -1.71706 3.30678 0
M  V30 1054 H 91.5282 -0.520869 4.7626 0
M  V30 1055 H 89.8922 -0.372894 2.51956 0
M  V30 1056 H 90.6752 1.13536 3.23982 0
M  V30 1057 N 93.1203 -1.57491 0.0584922 0
M  V30 1058 C 94.3693 -1.92155 -0.613146 0
M  V30 1059 C 94.6823 -0.939334 -1.71569 0
M  V30 1060 O 95.8883 -1.17829 -2.44599 0
M  V30 1061 C 94.3443 -3.41303 -1.14195 0
M  V30 1062 C 93.9523 -4.47944 -0.0711265 0
M  V30 1063 C 95.6963 -3.84988 -1.78841 0
M  V30 1064 C 93.6033 -5.88212 -0.613225 0
M  V30 1065 H 92.5333 -0.717162 -0.232796 0
M  V30 1066 H 95.1843 -1.83049 0.12857 0
M  V30 1067 H 93.5663 -3.45437 -1.93621 0
M  V30 1068 H 94.7403 -4.55408 0.702836 0
M  V30 1069 H 93.0553 -4.13644 0.478313 0
M  V30 1070 H 95.6523 -4.87159 -2.20408 0
M  V30 1071 H 95.9953 -3.21632 -2.64308 0
M  V30 1072 H 96.5283 -3.83401 -1.06059 0
M  V30 1073 H 93.2673 -6.55183 0.203978 0
M  V30 1074 H 92.7873 -5.84294 -1.35501 0
M  V30 1075 H 94.4663 -6.37687 -1.09383 0
M  V30 1076 N 94.5984 0.214957 -1.56127 0
M  V30 1077 C 95.5614 1.24997 -1.92116 0
M  V30 1078 C 96.5614 1.39467 -0.800344 0
M  V30 1079 O 97.7514 1.37619 -1.06802 0
M  V30 1080 C 94.8834 2.62271 -2.17777 0
M  V30 1081 H 96.0764 0.942875 -2.84693 0
M  V30 1082 H 93.6294 0.455654 -1.49511 0
M  V30 1083 H 94.3644 2.98068 -1.27773 0
M  V30 1084 H 94.1494 2.53143 -2.99434 0
M  V30 1085 H 95.6394 3.36946 -2.46693 0
M  V30 1086 N 96.0765 1.50051 0.48192 0
M  V30 1087 C 97.4875 1.5348 1.06305 0
M  V30 1088 C 97.8385 0.331997 1.93371 0
M  V30 1089 O 96.9635 -0.556256 2.09129 0
M  V30 1090 C 97.5585 2.7813 1.93466 0
M  V30 1091 C 96.1175 2.84275 2.46707 0
M  V30 1092 C 95.2645 2.47637 1.24785 0
M  V30 1093 H 98.2155 1.56472 0.264995 0
M  V30 1094 H 98.2365 2.59372 2.78399 0
M  V30 1095 H 97.7485 3.65654 1.30072 0
M  V30 1096 H 95.8495 2.01077 3.13686 0
M  V30 1097 H 95.9625 3.8691 2.82555 0
M  V30 1098 H 94.3265 1.99835 1.57918 0
M  V30 1099 H 95.1095 3.37457 0.630694 0
M  V30 1100 N 97.5546 -0.734337 1.39446 0
M  V30 1101 C 98.7796 -1.52866 1.40167 0
M  V30 1102 C 99.2046 -1.881 -0.00171513 0
M  V30 1103 O 98.5626 -1.51957 -0.988879 0
M  V30 1104 C 98.6106 -2.79235 2.28167 0
M  V30 1105 O 97.7146 -3.75185 1.71201 0
M  V30 1106 H 97.0556 -0.461618 0.477289 0
M  V30 1107 H 99.5856 -0.905949 1.8345 0
M  V30 1108 H 99.5956 -3.27963 2.42702 0
M  V30 1109 H 98.2706 -2.52923 3.30156 0
M  V30 1110 H 96.8476 -3.33958 1.65912 0
M  V30 1111 N 99.0327 -1.24633 -0.964593 0
M  V30 1112 C 100.449 -1.01239 -1.2338 0
M  V30 1113 C 100.649 0.2769 -1.99588 0
M  V30 1114 O 99.7047 0.992241 -2.32187 0
M  V30 1115 C 101.018 -2.22937 -2.01791 0
M  V30 1116 C 102.566 -2.27594 -2.14872 0
M  V30 1117 C 103.041 -3.48921 -2.96678 0
M  V30 1118 N 104.532 -3.49257 -3.04259 0
M  V30 1119 C 105.267 -4.39795 -3.67924 0
M  V30 1120 N 104.763 -5.40591 -4.33281 0
M  V30 1121 N 106.556 -4.275 -3.64966 0
M  V30 1122 H 98.7067 -2.0748 -0.454502 0
M  V30 1123 H 100.97 -0.910647 -0.26349 0
M  V30 1124 H 100.676 -3.16587 -1.53184 0
M  V30 1125 H 100.55 -2.25306 -3.02518 0
M  V30 1126 H 102.937 -1.34473 -2.6268 0
M  V30 1127 H 103.018 -2.2925 -1.13482 0
M  V30 1128 H 102.662 -4.42359 -2.49562 0
M  V30 1129 H 102.592 -3.4451 -3.98272 0
M  V30 1130 H 105.083 -2.76337 -2.57771 0
M  V30 1131 H 105.396 -6.05904 -4.79687 0
M  V30 1132 H 103.741 -5.44475 -4.3194 0
M  V30 1133 H 106.932 -3.47987 -3.13086 0
M  V30 1134 H 107.105 -4.98258 -4.14298 0
M  V30 1135 N 100.511 1.16574 -1.06058 0
M  V30 1136 C 101.759 1.86677 -0.77434 0
M  V30 1137 C 102.08 1.81959 0.701147 0
M  V30 1138 O 101.35 1.2515 1.50713 0
M  V30 1139 H 99.9298 0.691134 -0.283449 0
M  V30 1140 H 102.592 1.41378 -1.34158 0
M  V30 1141 H 101.688 2.92181 -1.09711 0
M  V30 1142 N 101.989 0.842826 1.3317 0
M  V30 1143 C 103.238 0.436738 1.96915 0
M  V30 1144 C 103.551 -1.01025 1.67491 0
M  V30 1145 O 104.757 -1.5212 2.24881 0
M  V30 1146 C 103.213 0.730021 3.52418 0
M  V30 1147 C 102.821 2.19195 3.90714 0
M  V30 1148 C 104.565 0.391076 4.22695 0
M  V30 1149 C 102.472 2.42907 5.39212 0
M  V30 1150 H 101.402 0.15958 0.736919 0
M  V30 1151 H 104.053 1.03196 1.51733 0
M  V30 1152 H 102.435 0.0643755 3.95948 0
M  V30 1153 H 103.609 2.8984 3.58231 0
M  V30 1154 H 101.924 2.49425 3.33431 0
M  V30 1155 H 104.521 0.545817 5.31907 0
M  V30 1156 H 104.864 -0.666294 4.10933 0
M  V30 1157 H 105.397 1.01212 3.84709 0
M  V30 1158 H 102.136 3.47224 5.55982 0
M  V30 1159 H 101.656 1.76827 5.73142 0
M  V30 1160 H 103.335 2.2626 6.06148 0
M  V30 1161 N 103.467 -1.45747 0.599634 0
M  V30 1162 C 104.716 -2.01502 0.0893511 0
M  V30 1163 C 105.029 -1.4748 -1.28488 0
M  V30 1164 O 106.235 -1.95161 -1.88745 0
M  V30 1165 C 104.691 -3.59735 0.109082 0
M  V30 1166 C 104.299 -4.22754 1.48267 0
M  V30 1167 C 106.043 -4.23085 -0.346374 0
M  V30 1168 C 103.95 -5.73115 1.45921 0
M  V30 1169 H 102.88 -0.753417 0.0296347 0
M  V30 1170 H 105.531 -1.67303 0.753788 0
M  V30 1171 H 103.913 -3.91087 -0.621854 0
M  V30 1172 H 105.087 -4.02987 2.23468 0
M  V30 1173 H 103.402 -3.71567 1.87955 0
M  V30 1174 H 105.999 -5.33327 -0.38298 0
M  V30 1175 H 106.342 -3.93201 -1.36743 0
M  V30 1176 H 106.875 -3.9642 0.331038 0
M  V30 1177 H 103.614 -6.07685 2.45762 0
M  V30 1178 H 103.134 -5.95097 0.749665 0
M  V30 1179 H 104.813 -6.3616 1.17941 0
M  V30 1180 N 104.945 -0.338344 -1.53925 0
M  V30 1181 C 106.175 0.260919 -2.04946 0
M  V30 1182 C 106.583 1.45174 -1.2133 0
M  V30 1183 O 105.926 1.82122 -0.240262 0
M  V30 1184 C 105.988 0.744596 -3.51704 0
M  V30 1185 C 105.652 -0.325883 -4.55837 0
M  V30 1186 C 106.649 -1.16687 -5.06636 0
M  V30 1187 C 104.334 -0.478317 -5.00017 0
M  V30 1188 C 106.328 -2.14588 -6.00192 0
M  V30 1189 C 104.015 -1.46073 -5.93385 0
M  V30 1190 C 105.013 -2.29297 -6.4336 0
M  V30 1191 O 104.701 -3.25867 -7.34892 0
M  V30 1192 H 104.433 0.0551207 -0.673749 0
M  V30 1193 H 106.987 -0.486984 -1.99544 0
M  V30 1194 H 105.217 1.54366 -3.54553 0
M  V30 1195 H 106.906 1.26383 -3.85723 0
M  V30 1196 H 107.672 -1.06016 -4.73271 0
M  V30 1197 H 103.551 0.159613 -4.60724 0
M  V30 1198 H 107.095 -2.79585 -6.39123 0
M  V30 1199 H 102.992 -1.56802 -6.26166 0
M  V30 1200 H 103.76 -3.21278 -7.5281 0
M  V30 1201 N 106.423 1.57458 -0.0668435 0
M  V30 1202 C 107.7 1.8469 0.644132 0
M  V30 1203 C 108.08 0.958343 1.88093 0
M  V30 1204 O 107.428 0.0233579 2.28488 0
M  V30 1205 C 107.638 3.34767 0.986509 0
M  V30 1206 C 108.986 4.02159 1.36212 0
M  V30 1207 O 110.01 3.39484 1.07839 0
M  V30 1208 O 108.869 5.12694 1.89227 0
M  V30 1209 H 105.963 0.762816 0.319437 0
M  V30 1210 H 108.509 1.6942 -0.0973986 0
M  V30 1211 H 107.281 3.91151 0.107883 0
M  V30 1212 H 106.904 3.55281 1.78497 0
M  V30 1213 N 107.901 -0.206675 1.56239 0
M  V30 1214 C 109.317 -0.557025 1.49564 0
M  V30 1215 C 109.517 -1.86424 0.764735 0
M  V30 1216 O 108.573 -2.50584 0.310491 0
M  V30 1217 C 109.886 -0.622478 2.94186 0
M  V30 1218 C 111.434 -0.712099 3.04792 0
M  V30 1219 C 111.909 -0.808767 4.50803 0
M  V30 1220 N 113.4 -0.8726 4.54907 0
M  V30 1221 C 114.135 -0.967365 5.65181 0
M  V30 1222 N 113.631 -1.02515 6.85173 0
M  V30 1223 N 115.424 -1.00366 5.53067 0
M  V30 1224 H 107.575 0.650943 2.02179 0
M  V30 1225 H 109.838 0.230387 0.919579 0
M  V30 1226 H 109.544 0.268727 3.50672 0
M  V30 1227 H 109.418 -1.4811 3.46905 0
M  V30 1228 H 111.805 -1.59374 2.48363 0
M  V30 1229 H 111.886 0.172489 2.55218 0
M  V30 1230 H 111.53 0.0684754 5.07854 0
M  V30 1231 H 111.46 -1.70899 4.98098 0
M  V30 1232 H 113.951 -0.837657 3.68499 0
M  V30 1233 H 114.264 -1.09765 7.64965 0
M  V30 1234 H 112.609 -0.994026 6.87855 0
M  V30 1235 H 115.8 -0.95527 4.58249 0
M  V30 1236 H 115.973 -1.07405 6.39037 0
M  V30 1237 N 109.379 -1.50304 -0.473955 0
M  V30 1238 C 110.327 -1.69482 -1.59307 0
M  V30 1239 C 111.321 -0.560669 -1.59853 0
M  V30 1240 O 112.527 -0.741087 -1.64036 0
M  V30 1241 H 108.902 -0.534892 -0.528578 0
M  V30 1242 H 110.873 -2.63364 -1.40293 0
M  V30 1243 C 109.622 -1.80354 -2.97267 0
M  V30 1244 H 108.945 -2.67012 -2.97564 0
M  V30 1245 H 110.385 -1.97798 -3.75036 0
M  V30 1246 C 108.844 -0.55448 -3.32306 0
M  V30 1247 O 109.374 0.307661 -4.0052 0
M  V30 1248 N 107.58 -0.409354 -2.87702 0
M  V30 1249 H 107.127 -1.11196 -2.32364 0
M  V30 1250 H 107.085 0.425223 -3.11511 0
M  V30 1251 N 110.857 0.726932 -1.39834 0
M  V30 1252 C 112.105 1.4837 -1.37225 0
M  V30 1253 C 112.426 1.94979 0.0284857 0
M  V30 1254 O 111.696 1.69555 0.981213 0
M  V30 1255 H 110.276 0.55043 -0.505011 0
M  V30 1256 H 112.938 0.862468 -1.74778 0
M  V30 1257 H 112.034 2.36198 -2.04003 0
M  V30 1258 N 112.336 1.25143 0.95797 0
M  V30 1259 C 113.585 1.0909 1.69654 0
M  V30 1260 C 113.898 -0.368548 1.92097 0
M  V30 1261 O 115.104 -0.649455 2.63618 0
M  V30 1262 C 113.56 1.90395 3.05414 0
M  V30 1263 C 113.168 3.4081 2.90779 0
M  V30 1264 C 114.912 1.82901 3.83076 0
M  V30 1265 C 112.819 4.14423 4.21909 0
M  V30 1266 H 111.749 0.404625 0.636235 0
M  V30 1267 H 114.4 1.4931 1.06672 0
M  V30 1268 H 112.782 1.42996 3.69281 0
M  V30 1269 H 113.956 3.95859 2.35865 0
M  V30 1270 H 112.271 3.49361 2.26575 0
M  V30 1271 H 114.868 2.35196 4.80195 0
M  V30 1272 H 115.211 0.796224 4.08615 0
M  V30 1273 H 115.744 2.28033 3.25954 0
M  V30 1274 H 112.483 5.18102 4.01561 0
M  V30 1275 H 112.003 3.64159 4.76601 0
M  V30 1276 H 113.682 4.21956 4.90471 0
M  V30 1277 N 113.814 -1.1601 1.06675 0
M  V30 1278 C 115.225 -1.68235 0.809565 0
M  V30 1279 C 115.576 -1.8454 -0.666303 0
M  V30 1280 O 114.701 -1.54374 -1.5165 0
M  V30 1281 C 115.296 -3.05585 1.46299 0
M  V30 1282 C 113.855 -3.54915 1.25349 0
M  V30 1283 C 113.002 -2.30804 1.53703 0
M  V30 1284 H 115.953 -1.00318 1.22971 0
M  V30 1285 H 115.974 -3.70174 0.880431 0
M  V30 1286 H 115.486 -2.93686 2.53713 0
M  V30 1287 H 113.587 -3.72067 0.199261 0
M  V30 1288 H 113.7 -4.36774 1.9689 0
M  V30 1289 H 112.064 -2.36007 0.957739 0
M  V30 1290 H 112.847 -2.21499 2.62284 0
M  V30 1291 N 115.292 -0.849877 -1.32721 0
M  V30 1292 C 116.222 -0.306308 -2.31482 0
M  V30 1293 C 117.203 0.591952 -1.59468 0
M  V30 1294 O 118.388 0.513199 -1.87296 0
M  V30 1295 C 115.518 0.510204 -3.43532 0
M  V30 1296 C 114.472 -0.293209 -4.26994 0
M  V30 1297 C 113.798 0.647743 -5.30762 0
M  V30 1298 C 115.098 -1.51634 -4.99804 0
M  V30 1299 H 116.792 -1.13153 -2.77195 0
M  V30 1300 H 114.338 -0.545553 -1.33266 0
M  V30 1301 H 116.291 0.900856 -4.11658 0
M  V30 1302 H 115.015 1.36874 -2.96535 0
M  V30 1303 H 113.674 -0.665555 -3.60508 0
M  V30 1304 H 113.322 1.50299 -4.8002 0
M  V30 1305 H 113.022 0.11422 -5.87489 0
M  V30 1306 H 114.546 1.03567 -6.01753 0
M  V30 1307 H 115.96 -1.19824 -5.60638 0
M  V30 1308 H 114.357 -1.98745 -5.66234 0
M  V30 1309 H 115.427 -2.28018 -4.27943 0
M  V30 1310 N 116.77 1.45427 -0.607355 0
M  V30 1311 C 117.733 2.28974 0.101693 0
M  V30 1312 C 118.733 1.39754 0.795329 0
M  V30 1313 O 119.923 1.61878 0.643527 0
M  V30 1314 C 117.055 3.20768 1.15414 0
M  V30 1315 H 118.248 2.93147 -0.632844 0
M  V30 1316 H 115.801 1.51945 -0.366391 0
M  V30 1317 H 116.536 2.61395 1.91945 0
M  V30 1318 H 116.321 3.86489 0.66098 0
M  V30 1319 H 117.811 3.83589 1.65073 0
M  V30 1320 N 118.248 0.346503 1.53744 0
M  V30 1321 C 119.178 -0.501193 2.28058 0
M  V30 1322 C 120.159 -1.10014 1.29734 0
M  V30 1323 O 121.344 -1.12097 1.58581 0
M  V30 1324 C 118.474 -1.65078 3.05559 0
M  V30 1325 C 117.428 -1.18003 4.11411 0
M  V30 1326 C 116.754 -2.41837 4.76884 0
M  V30 1327 C 118.054 -0.278394 5.21558 0
M  V30 1328 H 119.748 0.11875 2.99164 0
M  V30 1329 H 117.294 0.0585531 1.43881 0
M  V30 1330 H 119.247 -2.25028 3.56287 0
M  V30 1331 H 117.971 -2.29767 2.32109 0
M  V30 1332 H 116.63 -0.603331 3.61601 0
M  V30 1333 H 116.278 -3.0494 4.00026 0
M  V30 1334 H 115.978 -2.1102 5.48402 0
M  V30 1335 H 117.502 -3.02508 5.30397 0
M  V30 1336 H 118.916 -0.784823 5.67903 0
M  V30 1337 H 117.313 -0.0619707 6.00068 0
M  V30 1338 H 118.383 0.684677 4.80042 0
M  V30 1339 N 119.726 -1.57421 0.075193 0
M  V30 1340 C 120.674 -2.14124 -0.908508 0
M  V30 1341 C 121.668 -1.07898 -1.30592 0
M  V30 1342 O 122.874 -1.26273 -1.28277 0
M  V30 1343 H 119.249 -0.684707 -0.310935 0
M  V30 1344 H 121.22 -2.95634 -0.405374 0
M  V30 1345 C 119.969 -2.72044 -2.16535 0
M  V30 1346 H 119.292 -3.53456 -1.86839 0
M  V30 1347 H 120.732 -3.15311 -2.83469 0
M  V30 1348 C 119.191 -1.66968 -2.92615 0
M  V30 1349 O 119.721 -1.0967 -3.86439 0
M  V30 1350 N 117.927 -1.37923 -2.55784 0
M  V30 1351 H 117.474 -1.84706 -1.79559 0
M  V30 1352 H 117.432 -0.67852 -3.06991 0
M  V30 1353 N 121.204 0.198386 -1.56346 0
M  V30 1354 C 122.62 0.549085 -1.49857 0
M  V30 1355 C 122.82 1.86016 -0.774611 0
M  V30 1356 O 121.876 2.50416 -0.323776 0
M  V30 1357 C 123.189 0.606868 -2.94512 0
M  V30 1358 C 124.737 0.695925 -3.05165 0
M  V30 1359 C 125.212 0.784848 -4.51225 0
M  V30 1360 N 126.703 0.848463 -4.55363 0
M  V30 1361 C 127.438 0.937378 -5.65686 0
M  V30 1362 N 126.934 0.9888 -6.85707 0
M  V30 1363 N 128.727 0.974312 -5.53592 0
M  V30 1364 H 120.878 -0.661655 -2.01831 0
M  V30 1365 H 123.141 -0.235261 -0.918344 0
M  V30 1366 H 122.847 -0.28732 -3.50524 0
M  V30 1367 H 122.721 1.46268 -3.47686 0
M  V30 1368 H 125.108 1.58055 -2.49204 0
M  V30 1369 H 125.189 -0.186022 -2.55123 0
M  V30 1370 H 124.833 -0.0954072 -5.0781 0
M  V30 1371 H 124.763 1.68255 -4.98997 0
M  V30 1372 H 127.254 0.818103 -3.68938 0
M  V30 1373 H 127.567 1.05707 -7.65536 0
M  V30 1374 H 125.912 0.957534 -6.88372 0
M  V30 1375 H 129.103 0.930954 -4.58749 0
M  V30 1376 H 129.276 1.04015 -6.39597 0
M  V30 1377 N 122.682 1.50554 0.465978 0
M  V30 1378 C 123.91 1.65563 1.24083 0
M  V30 1379 C 124.325 0.341051 1.85694 0
M  V30 1380 O 123.682 -0.677543 1.69457 0
M  V30 1381 C 123.733 2.75051 2.34583 0
M  V30 1382 O 123.454 4.01413 1.75497 0
M  V30 1383 C 124.955 3.01078 3.25372 0
M  V30 1384 H 122.175 0.55638 0.375077 0
M  V30 1385 H 124.719 1.96807 0.555624 0
M  V30 1386 H 122.874 2.46486 2.9887 0
M  V30 1387 H 123.288 4.62002 2.48303 0
M  V30 1388 H 124.762 3.81339 3.99105 0
M  V30 1389 H 125.239 2.12349 3.84453 0
M  V30 1390 H 125.845 3.31194 2.66816 0
M  V30 1391 N 124.16 -0.719506 1.40217 0
M  V30 1392 C 125.409 -1.47486 1.37589 0
M  V30 1393 C 125.722 -1.9559 -0.0201568 0
M  V30 1394 O 126.928 -2.70973 -0.169049 0
M  V30 1395 C 125.384 -2.66575 2.41796 0
M  V30 1396 C 124.992 -2.25358 3.87192 0
M  V30 1397 C 126.736 -3.4433 2.48269 0
M  V30 1398 C 124.643 -3.41262 4.83005 0
M  V30 1399 H 123.573 -0.553901 0.511576 0
M  V30 1400 H 126.224 -0.783427 1.65936 0
M  V30 1401 H 124.606 -3.3787 2.06543 0
M  V30 1402 H 125.78 -1.61509 4.31569 0
M  V30 1403 H 124.095 -1.60657 3.84159 0
M  V30 1404 H 126.692 -4.30569 3.17041 0
M  V30 1405 H 127.035 -3.87872 1.51198 0
M  V30 1406 H 127.568 -2.80076 2.82493 0
M  V30 1407 H 124.307 -3.02755 5.81394 0
M  V30 1408 H 123.827 -4.0404 4.43297 0
M  V30 1409 H 125.506 -4.07383 5.02641 0
M  V30 1410 N 125.638 -1.25649 -0.95132 0
M  V30 1411 C 126.868 -1.13179 -1.72841 0
M  V30 1412 C 127.276 0.316827 -1.86528 0
M  V30 1413 O 126.619 1.22948 -1.3649 0
M  V30 1414 C 126.681 -1.71644 -3.15878 0
M  V30 1415 C 126.345 -3.20667 -3.25609 0
M  V30 1416 C 127.342 -4.17616 -3.09666 0
M  V30 1417 C 125.027 -3.6094 -3.49324 0
M  V30 1418 C 127.021 -5.52817 -3.17289 0
M  V30 1419 C 124.708 -4.96278 -3.56584 0
M  V30 1420 C 125.706 -5.92025 -3.40581 0
M  V30 1421 O 125.394 -7.24899 -3.47528 0
M  V30 1422 H 125.126 -0.395389 -0.54831 0
M  V30 1423 H 127.68 -1.66566 -1.20187 0
M  V30 1424 H 125.91 -1.12707 -3.69911 0
M  V30 1425 H 127.599 -1.54225 -3.75459 0
M  V30 1426 H 128.365 -3.87842 -2.91211 0
M  V30 1427 H 124.244 -2.86907 -3.6084 0
M  V30 1428 H 127.788 -6.2753 -3.04716 0
M  V30 1429 H 123.685 -5.25716 -3.74556 0
M  V30 1430 H 124.453 -7.33039 -3.64138 0
M  V30 1431 N 127.117 1.15442 -1.07289 0
M  V30 1432 C 128.049 2.19773 -0.650585 0
M  V30 1433 C 129.062 1.60076 0.296572 0
M  V30 1434 O 130.251 1.78293 0.0859905 0
M  V30 1435 C 127.351 3.38838 0.0650398 0
M  V30 1436 C 126.524 4.2808 -0.898141 0
M  V30 1437 C 125.583 5.2574 -0.219926 0
M  V30 1438 O 124.609 5.62654 -0.860773 0
M  V30 1439 N 125.811 5.71205 1.03466 0
M  V30 1440 H 128.576 2.56622 -1.54808 0
M  V30 1441 H 126.137 1.30551 -0.957494 0
M  V30 1442 H 128.129 4.01222 0.529415 0
M  V30 1443 H 126.699 3.00409 0.864466 0
M  V30 1444 H 125.919 3.62804 -1.54165 0
M  V30 1445 H 127.207 4.84577 -1.5512 0
M  V30 1446 H 126.605 5.43325 1.57526 0
M  V30 1447 H 125.162 6.35633 1.44272 0
M  V30 1448 N 128.595 0.856903 1.32268 0
M  V30 1449 C 129.844 0.457599 1.96441 0
M  V30 1450 C 130.157 -0.992426 1.68553 0
M  V30 1451 O 131.363 -1.49727 2.26482 0
M  V30 1452 C 129.819 0.767358 3.51624 0
M  V30 1453 C 129.427 2.23326 3.88367 0
M  V30 1454 C 131.171 0.435887 4.22256 0
M  V30 1455 C 129.078 2.48613 5.36606 0
M  V30 1456 H 128.008 0.167387 0.735185 0
M  V30 1457 H 130.659 1.048 1.5063 0
M  V30 1458 H 129.041 0.106367 3.95857 0
M  V30 1459 H 130.215 2.93623 3.55137 0
M  V30 1460 H 128.53 2.52948 3.30766 0
M  V30 1461 H 131.127 0.602202 5.31298 0
M  V30 1462 H 131.47 -0.622672 4.11617 0
M  V30 1463 H 132.003 1.05286 3.83614 0
M  V30 1464 H 128.742 3.53101 5.52268 0
M  V30 1465 H 128.262 1.82896 5.71235 0
M  V30 1466 H 129.941 2.32676 6.03714 0
M  V30 1467 N 130.073 -1.45103 0.615059 0
M  V30 1468 C 130.983 -2.34382 -0.101034 0
M  V30 1469 C 131.999 -1.51681 -0.852585 0
M  V30 1470 O 133.175 -1.8446 -0.808484 0
M  V30 1471 C 130.24 -3.29417 -1.08099 0
M  V30 1472 C 129.301 -4.28025 -0.330577 0
M  V30 1473 C 128.534 -5.1852 -1.26385 0
M  V30 1474 O 128.757 -5.12598 -2.50198 0
M  V30 1475 O 127.691 -5.97122 -0.756866 0
M  V30 1476 H 131.517 -2.97033 0.632855 0
M  V30 1477 H 129.102 -1.4461 0.375293 0
M  V30 1478 H 130.984 -3.87958 -1.6452 0
M  V30 1479 H 129.659 -2.69321 -1.79577 0
M  V30 1480 H 128.566 -3.73078 0.276283 0
M  V30 1481 H 129.899 -4.90997 0.343866 0
M  V30 1482 N 131.551 -0.354651 -1.53558 0
M  V30 1483 C 132.484 0.540273 -2.21712 0
M  V30 1484 C 133.462 1.09161 -1.2051 0
M  V30 1485 O 134.646 1.14979 -1.49372 0
M  V30 1486 C 131.773 1.74435 -2.90328 0
M  V30 1487 C 130.819 1.32146 -4.05512 0
M  V30 1488 S 131.652 0.331924 -5.3447 0
M  V30 1489 C 132.808 1.54258 -6.06593 0
M  V30 1490 H 133.041 -0.0385776 -2.97275 0
M  V30 1491 H 130.574 -0.138736 -1.53775 0
M  V30 1492 H 132.532 2.43507 -3.30476 0
M  V30 1493 H 131.193 2.29444 -2.1451 0
M  V30 1494 H 130.386 2.21952 -4.52497 0
M  V30 1495 H 129.988 0.710091 -3.67197 0
M  V30 1496 H 132.28 2.47534 -6.30661 0
M  V30 1497 H 133.223 1.11431 -6.99277 0
M  V30 1498 H 133.631 1.74367 -5.36895 0
M  V30 1499 N 133.029 1.57378 -0.0835403 0
M  V30 1500 C 133.962 2.09016 0.915833 0
M  V30 1501 C 134.94 0.997993 1.2837 0
M  V30 1502 O 136.124 1.27219 1.39096 0
M  V30 1503 C 133.251 2.55757 2.22049 0
M  V30 1504 C 132.297 3.76522 2.00333 0
M  V30 1505 S 133.13 5.20661 1.25191 0
M  V30 1506 C 134.286 5.70743 2.56912 0
M  V30 1507 H 134.519 2.93457 0.476492 0
M  V30 1508 H 132.052 1.53856 0.129493 0
M  V30 1509 H 134.01 2.83346 2.97027 0
M  V30 1510 H 132.671 1.71564 2.63106 0
M  V30 1511 H 131.864 4.07256 2.96916 0
M  V30 1512 H 131.466 3.49367 1.33488 0
M  V30 1513 H 133.758 5.78304 3.52946 0
M  V30 1514 H 134.701 6.6944 2.30772 0
M  V30 1515 H 135.109 4.98616 2.64655 0
M  V30 1516 N 134.507 -0.190092 1.56449 0
M  V30 1517 C 135.918 -0.754312 1.70784 0
M  V30 1518 C 136.269 -1.83631 0.690951 0
M  V30 1519 O 135.394 -2.15868 -0.151604 0
M  V30 1520 C 135.989 -1.37503 3.09642 0
M  V30 1521 C 134.548 -1.88628 3.25725 0
M  V30 1522 C 133.695 -0.758098 2.66736 0
M  V30 1523 H 136.646 0.0350524 1.58661 0
M  V30 1524 H 136.667 -2.2445 3.0725 0
M  V30 1525 H 136.179 -0.587302 3.83631 0
M  V30 1526 H 134.28 -2.70103 2.56661 0
M  V30 1527 H 134.393 -2.04462 4.3328 0
M  V30 1528 H 132.757 -1.17369 2.26046 0
M  V30 1529 H 133.54 0.0174705 3.43296 0
M  V30 1530 N 135.985 -1.50799 -0.457987 0
M  V30 1531 C 136.895 -1.73426 -1.57989 0
M  V30 1532 C 137.911 -0.617745 -1.62665 0
M  V30 1533 O 139.087 -0.897614 -1.80291 0
M  V30 1534 C 136.152 -1.83557 -2.94122 0
M  V30 1535 C 135.213 -3.07345 -2.99729 0
M  V30 1536 C 134.446 -3.16983 -4.29368 0
M  V30 1537 O 134.669 -2.33077 -5.20607 0
M  V30 1538 O 133.603 -4.09812 -4.40837 0
M  V30 1539 H 137.429 -2.68555 -1.41817 0
M  V30 1540 H 135.014 -1.35052 -0.638859 0
M  V30 1541 H 136.896 -1.92326 -3.74952 0
M  V30 1542 H 135.571 -0.916137 -3.10465 0
M  V30 1543 H 134.478 -3.04068 -2.1793 0
M  V30 1544 H 135.811 -3.9891 -2.88326 0
M  V30 1545 N 137.463 0.71206 -1.40597 0
M  V30 1546 C 138.41 1.82613 -1.41142 0
M  V30 1547 C 139.38 1.63925 -0.267903 0
M  V30 1548 O 140.565 1.85009 -0.466495 0
M  V30 1549 C 137.705 3.20354 -1.28324 0
M  V30 1550 C 136.818 3.50589 -2.52411 0
M  V30 1551 C 135.953 4.77855 -2.32009 0
M  V30 1552 C 134.992 5.01005 -3.51654 0
M  V30 1553 N 134.129 6.19487 -3.30425 0
M  V30 1554 H 138.969 1.81482 -2.36365 0
M  V30 1555 H 136.506 0.886475 -1.17388 0
M  V30 1556 H 138.464 3.99899 -1.18899 0
M  V30 1557 H 137.094 3.20705 -0.367189 0
M  V30 1558 H 136.146 2.65573 -2.72351 0
M  V30 1559 H 137.458 3.63604 -3.41458 0
M  V30 1560 H 136.612 5.65424 -2.19956 0
M  V30 1561 H 135.351 4.67056 -1.40392 0
M  V30 1562 H 134.356 4.1189 -3.64179 0
M  V30 1563 H 135.581 5.13674 -4.44202 0
M  V30 1564 H 133.527 6.09932 -2.41494 0
M  V30 1565 H 133.444 6.33194 -4.13039 0
M  V30 1566 H 134.712 7.09834 -3.22113 0
M  V30 1567 N 138.941 1.26152 0.944643 0
M  V30 1568 C 140.187 1.11657 1.69294 0
M  V30 1569 C 140.52 -0.339926 1.91202 0
M  V30 1570 O 139.795 -1.24994 1.49019 0
M  V30 1571 C 140.078 1.88236 3.06984 0
M  V30 1572 C 139.931 3.41772 2.92424 0
M  V30 1573 C 141.25 1.67343 4.07043 0
M  V30 1574 H 138.369 0.407004 0.614424 0
M  V30 1575 H 141.011 1.55106 1.09737 0
M  V30 1576 H 139.161 1.51308 3.57824 0
M  V30 1577 H 140.833 3.88433 2.48832 0
M  V30 1578 H 139.076 3.68974 2.28124 0
M  V30 1579 H 139.747 3.90579 3.90067 0
M  V30 1580 H 142.223 1.99509 3.65151 0
M  V30 1581 H 141.099 2.23346 5.01406 0
M  V30 1582 H 141.36 0.617158 4.37771 0
M  V30 1583 N 140.419 -1.14872 1.07899 0
M  V30 1584 C 141.696 -1.81928 0.71845 0
M  V30 1585 C 142.076 -1.95417 -0.798455 0
M  V30 1586 O 141.424 -1.50997 -1.715 0
M  V30 1587 C 141.634 -3.17937 1.43935 0
M  V30 1588 C 142.982 -3.93501 1.59506 0
M  V30 1589 O 144.006 -3.27509 1.40058 0
M  V30 1590 O 142.865 -5.1183 1.91551 0
M  V30 1591 H 139.959 -0.78628 0.256305 0
M  V30 1592 H 142.505 -1.21934 1.18026 0
M  V30 1593 H 141.277 -3.0325 2.47295 0
M  V30 1594 H 140.9 -3.85619 0.968687 0
M  V30 1595 N 141.898 -0.863906 -1.31812 0
M  V30 1596 C 142.846 -0.30422 -2.30602 0
M  V30 1597 C 143.84 0.577419 -1.59255 0
M  V30 1598 O 145.046 0.464194 -1.73912 0
M  V30 1599 H 141.421 -0.0796877 -0.747766 0
M  V30 1600 H 143.392 -1.15148 -2.75288 0
M  V30 1601 C 142.141 0.484617 -3.44306 0
M  V30 1602 H 141.464 -0.18451 -3.99374 0
M  V30 1603 H 142.904 0.841664 -4.15562 0
M  V30 1604 C 141.363 1.6735 -2.92396 0
M  V30 1605 O 141.893 2.77273 -2.90659 0
M  V30 1606 N 140.099 1.50362 -2.48676 0
M  V30 1607 H 139.646 0.609402 -2.50288 0
M  V30 1608 H 139.604 2.30051 -2.14299 0
M  V30 1609 N 143.376 1.44774 -0.622745 0
M  V30 1610 C 144.622 2.0242 -0.124083 0
M  V30 1611 C 144.955 1.4881 1.24777 0
M  V30 1612 O 144.23 0.668799 1.8264 0
M  V30 1613 C 144.513 3.59957 -0.101619 0
M  V30 1614 C 144.366 4.23867 -1.50521 0
M  V30 1615 C 145.685 4.36284 0.578272 0
M  V30 1616 H 142.804 0.735528 -0.0465645 0
M  V30 1617 H 145.446 1.72447 -0.797617 0
M  V30 1618 H 143.596 3.85623 0.471934 0
M  V30 1619 H 145.268 4.09336 -2.12701 0
M  V30 1620 H 143.511 3.81684 -2.06154 0
M  V30 1621 H 144.182 5.32843 -1.4416 0
M  V30 1622 H 146.658 4.16001 0.0906057 0
M  V30 1623 H 145.534 5.46004 0.563149 0
M  V30 1624 H 145.795 4.10271 1.64713 0
M  V30 1625 N 144.854 0.36279 1.53368 0
M  V30 1626 C 145.786 -0.519668 2.23231 0
M  V30 1627 C 146.799 -1.04844 1.24546 0
M  V30 1628 O 147.988 -0.955296 1.50786 0
M  V30 1629 C 145.088 -1.72995 2.9142 0
M  V30 1630 C 144.261 -1.33316 4.16588 0
M  V30 1631 C 143.32 -2.40521 4.68013 0
M  V30 1632 O 142.346 -2.03027 5.3176 0
M  V30 1633 N 143.548 -3.72065 4.45587 0
M  V30 1634 H 146.313 0.078751 2.99597 0
M  V30 1635 H 143.874 0.187833 1.60807 0
M  V30 1636 H 145.866 -2.44184 3.22733 0
M  V30 1637 H 144.436 -2.2353 2.18525 0
M  V30 1638 H 143.656 -0.451236 3.91609 0
M  V30 1639 H 144.944 -1.04432 4.97967 0
M  V30 1640 H 144.342 -4.05304 3.94646 0
M  V30 1641 H 142.899 -4.39366 4.81457 0
M  V30 1642 N 146.332 -1.57332 0.0918853 0
M  V30 1643 C 147.264 -2.10869 -0.898168 0
M  V30 1644 C 148.277 -1.04521 -1.24817 0
M  V30 1645 O 149.466 -1.31977 -1.20184 0
M  V30 1646 C 146.566 -2.57083 -2.2082 0
M  V30 1647 C 145.739 -3.87229 -2.03402 0
M  V30 1648 C 144.798 -4.19324 -3.17889 0
M  V30 1649 O 143.824 -4.88598 -2.91994 0
M  V30 1650 N 145.026 -3.74471 -4.43567 0
M  V30 1651 H 147.791 -2.96439 -0.440943 0
M  V30 1652 H 145.352 -1.61631 -0.0933064 0
M  V30 1653 H 147.344 -2.75602 -2.96354 0
M  V30 1654 H 145.914 -1.76541 -2.57977 0
M  V30 1655 H 145.134 -3.7789 -1.12218 0
M  V30 1656 H 146.422 -4.72379 -1.89038 0
M  V30 1657 H 145.82 -3.18546 -4.67488 0
M  V30 1658 H 144.377 -3.98151 -5.16061 0
M  V30 1659 N 147.81 0.181792 -1.56548 0
M  V30 1660 C 149.038 0.915947 -1.85521 0
M  V30 1661 C 149.453 1.76282 -0.676016 0
M  V30 1662 O 148.81 1.79012 0.355077 0
M  V30 1663 C 148.861 1.80126 -3.13427 0
M  V30 1664 O 148.582 0.988562 -4.26801 0
M  V30 1665 C 150.083 2.64597 -3.55673 0
M  V30 1666 H 147.303 0.26661 -0.61576 0
M  V30 1667 H 149.847 0.185039 -2.03661 0
M  V30 1668 H 148.002 2.48563 -2.97145 0
M  V30 1669 H 148.416 1.59308 -4.99721 0
M  V30 1670 H 149.89 3.2235 -4.48101 0
M  V30 1671 H 150.367 3.38958 -2.79292 0
M  V30 1672 H 150.973 2.0151 -3.74532 0
M  V30 1673 N 149.288 1.51039 0.449983 0
M  V30 1674 C 150.218 1.74379 1.55288 0
M  V30 1675 C 151.199 0.593236 1.5942 0
M  V30 1676 O 152.384 0.834625 1.7535 0
M  V30 1677 C 149.514 1.85728 2.93466 0
M  V30 1678 C 148.468 3.01078 3.04197 0
M  V30 1679 C 147.794 2.97595 4.44231 0
M  V30 1680 C 149.094 4.41254 2.7945 0
M  V30 1681 H 150.788 2.66725 1.36008 0
M  V30 1682 H 148.334 1.2835 0.652864 0
M  V30 1683 H 150.287 2.0064 3.70569 0
M  V30 1684 H 149.011 0.900207 3.13949 0
M  V30 1685 H 147.67 2.85851 2.29531 0
M  V30 1686 H 147.318 1.99691 4.61663 0
M  V30 1687 H 147.018 3.75046 4.52343 0
M  V30 1688 H 148.542 3.14583 5.23326 0
M  V30 1689 H 149.956 4.56897 3.46292 0
M  V30 1690 H 148.353 5.20315 2.98985 0
M  V30 1691 H 149.423 4.52164 1.75144 0
M  V30 1692 N 150.766 -0.704594 1.40972 0
M  V30 1693 C 152.043 -1.45847 1.30338 0
M  V30 1694 C 152.423 -2.10973 -0.0732344 0
M  V30 1695 O 151.771 -2.00997 -1.08685 0
M  V30 1696 C 151.981 -2.48525 2.45023 0
M  V30 1697 C 153.329 -3.1404 2.8577 0
M  V30 1698 O 154.353 -2.58848 2.44696 0
M  V30 1699 O 153.212 -4.13981 3.56766 0
M  V30 1700 H 150.306 -0.649092 0.512454 0
M  V30 1701 H 152.852 -0.735836 1.52917 0
M  V30 1702 H 151.624 -1.98994 3.36923 0
M  V30 1703 H 151.247 -3.2831 2.24272 0
M  V30 1704 N 152.244 -1.26651 -0.937939 0
M  V30 1705 C 153.207 -1.08546 -2.01867 0
M  V30 1706 C 154.207 -0.0327327 -1.60767 0
M  V30 1707 O 155.397 -0.276427 -1.71993 0
M  V30 1708 C 152.529 -0.651711 -3.34613 0
M  V30 1709 H 153.722 -2.04502 -2.1936 0
M  V30 1710 H 151.275 -1.09294 -1.11734 0
M  V30 1711 H 152.01 0.309696 -3.22818 0
M  V30 1712 H 151.795 -1.41189 -3.65798 0
M  V30 1713 H 153.285 -0.546973 -4.14002 0
M  V30 1714 N 153.722 1.14298 -1.08507 0
M  V30 1715 C 154.652 2.21542 -0.737646 0
M  V30 1716 C 155.633 1.67773 0.280377 0
M  V30 1717 O 156.818 1.93616 0.150521 0
M  V30 1718 C 153.948 3.46988 -0.147259 0
M  V30 1719 C 152.902 4.13789 -1.09374 0
M  V30 1720 C 152.228 5.33449 -0.365524 0
M  V30 1721 C 153.528 4.62208 -2.4323 0
M  V30 1722 H 155.222 2.5086 -1.6343 0
M  V30 1723 H 152.768 1.20576 -0.787243 0
M  V30 1724 H 154.721 4.21262 0.107808 0
M  V30 1725 H 153.445 3.17037 0.784538 0
M  V30 1726 H 152.104 3.4147 -1.33393 0
M  V30 1727 H 151.752 4.99759 0.57011 0
M  V30 1728 H 151.452 5.79088 -0.996512 0
M  V30 1729 H 152.976 6.10485 -0.118534 0
M  V30 1730 H 154.39 5.27952 -2.23472 0
M  V30 1731 H 152.787 5.18553 -3.02031 0
M  V30 1732 H 153.857 3.77224 -3.04681 0
M  V30 1733 N 155.201 0.870884 1.31352 0
M  V30 1734 C 156.617 0.562932 1.49343 0
M  V30 1735 C 156.817 -0.902725 1.80148 0
M  V30 1736 O 155.873 -1.68484 1.88067 0
M  V30 1737 C 157.186 1.46393 2.62659 0
M  V30 1738 C 158.734 1.46607 2.76542 0
M  V30 1739 C 159.209 2.35266 3.92955 0
M  V30 1740 N 160.7 2.33151 4.00243 0
M  V30 1741 C 161.435 2.98471 4.89594 0
M  V30 1742 N 160.931 3.72964 5.8384 0
M  V30 1743 N 162.724 2.87775 4.82848 0
M  V30 1744 H 154.875 1.81923 1.09626 0
M  V30 1745 H 157.138 0.777934 0.541777 0
M  V30 1746 H 156.844 2.50689 2.46674 0
M  V30 1747 H 156.718 1.16314 3.58819 0
M  V30 1748 H 159.105 0.43069 2.9194 0
M  V30 1749 H 159.186 1.8071 1.81046 0
M  V30 1750 H 158.83 3.38881 3.78315 0
M  V30 1751 H 158.76 1.98487 4.87761 0
M  V30 1752 H 161.251 1.79006 3.32814 0
M  V30 1753 H 161.564 4.19932 6.4875 0
M  V30 1754 H 159.909 3.77073 5.83816 0
M  V30 1755 H 163.1 2.29116 4.08195 0
M  V30 1756 H 163.273 3.38961 5.52277 0
M  V30 1757 N 156.679 -1.44442 0.630414 0
M  V30 1758 C 157.904 -2.06927 0.139944 0
M  V30 1759 C 158.329 -1.46795 -1.17613 0
M  V30 1760 O 157.687 -0.569144 -1.72135 0
M  V30 1761 C 157.735 -3.6058 0.0379581 0
M  V30 1762 O 156.839 -3.99937 -1.0062 0
M  V30 1763 H 156.18 -0.658608 0.0844483 0
M  V30 1764 H 158.71 -1.85327 0.866891 0
M  V30 1765 H 158.72 -4.07714 -0.152856 0
M  V30 1766 H 157.395 -4.03728 0.998809 0
M  V30 1767 H 155.972 -3.64436 -0.79001 0
M  V30 1768 N 158.157 -0.370918 -1.53173 0
M  V30 1769 C 159.403 0.217423 -2.01631 0
M  V30 1770 C 159.736 1.47983 -1.25756 0
M  V30 1771 O 159.011 1.91274 -0.352764 0
M  V30 1772 C 159.294 0.503982 -3.56556 0
M  V30 1773 C 159.147 -0.77243 -4.43118 0
M  V30 1774 C 160.466 1.30234 -4.20389 0
M  V30 1775 H 157.585 0.0775486 -0.732909 0
M  V30 1776 H 160.227 -0.496863 -1.83388 0
M  V30 1777 H 158.377 1.11248 -3.72231 0
M  V30 1778 H 160.049 -1.4098 -4.39229 0
M  V30 1779 H 158.292 -1.39167 -4.10871 0
M  V30 1780 H 158.963 -0.526815 -5.4948 0
M  V30 1781 H 161.439 0.787546 -4.08579 0
M  V30 1782 H 160.315 1.47158 -5.28806 0
M  V30 1783 H 160.576 2.31237 -3.76805 0
M  V30 1784 N 159.635 1.57281 -0.100228 0
M  V30 1785 C 160.881 1.94826 0.563101 0
M  V30 1786 C 161.214 0.982475 1.67514 0
M  V30 1787 O 160.489 0.0164069 1.94493 0
M  V30 1788 C 160.772 3.42453 1.11346 0
M  V30 1789 C 160.625 4.498 0.00612081 0
M  V30 1790 C 161.944 3.91506 2.01024 0
M  V30 1791 H 159.063 0.708428 0.203221 0
M  V30 1792 H 161.705 1.8922 -0.171979 0
M  V30 1793 H 159.855 3.47361 1.7399 0
M  V30 1794 H 161.527 4.57 -0.628357 0
M  V30 1795 H 159.77 4.28756 -0.659581 0
M  V30 1796 H 160.441 5.50306 0.432109 0
M  V30 1797 H 162.917 3.88784 1.48278 0
M  V30 1798 H 161.793 4.95358 2.36457 0
M  V30 1799 H 162.054 3.31099 2.92961 0
M  V30 1800 N 161.113 -0.173488 1.56642 0
M  V30 1801 C 162.39 -0.917617 1.7274 0
M  V30 1802 C 162.77 -2.00484 0.661027 0
M  V30 1803 O 162.118 -2.26184 -0.32453 0
M  V30 1804 C 162.328 -1.48433 3.15862 0
M  V30 1805 C 163.676 -1.95809 3.76754 0
M  V30 1806 O 164.7 -1.58231 3.19126 0
M  V30 1807 O 163.559 -2.65024 4.77938 0
M  V30 1808 H 160.653 -0.431772 0.705338 0
M  V30 1809 H 163.199 -0.161487 1.6893 0
M  V30 1810 H 161.971 -0.701715 3.84957 0
M  V30 1811 H 161.594 -2.30471 3.23989 0
M  V30 1812 N 162.591 -1.51276 -0.441967 0
M  V30 1813 C 163.521 -1.752 -1.54361 0
M  V30 1814 C 164.502 -0.601682 -1.59103 0
M  V30 1815 O 165.687 -0.843913 -1.74905 0
M  V30 1816 C 162.817 -1.87282 -2.92477 0
M  V30 1817 C 161.771 -3.02687 -3.02596 0
M  V30 1818 C 161.097 -2.99947 -4.42647 0
M  V30 1819 C 162.397 -4.4273 -2.77106 0
M  V30 1820 H 164.091 -2.67442 -1.34592 0
M  V30 1821 H 161.637 -1.28694 -0.646048 0
M  V30 1822 H 163.59 -2.02602 -3.695 0
M  V30 1823 H 162.314 -0.916844 -3.13467 0
M  V30 1824 H 160.973 -2.87065 -2.28012 0
M  V30 1825 H 160.621 -2.02136 -4.60597 0
M  V30 1826 H 160.321 -3.77439 -4.50348 0
M  V30 1827 H 161.845 -3.17354 -5.2165 0
M  V30 1828 H 163.259 -4.58727 -3.43864 0
M  V30 1829 H 161.656 -5.21893 -2.96222 0
M  V30 1830 H 162.726 -4.53087 -1.72744 0
M  V30 1831 N 164.069 0.697108 -1.41344 0
M  V30 1832 C 165.297 1.48593 -1.43972 0
M  V30 1833 C 165.712 1.88747 -0.0445612 0
M  V30 1834 O 165.069 1.56682 0.935785 0
M  V30 1835 C 165.12 2.74946 -2.34706 0
M  V30 1836 O 164.841 2.36484 -3.68791 0
M  V30 1837 C 166.342 3.687 -2.46121 0
M  V30 1838 H 163.562 0.457964 -0.490418 0
M  V30 1839 H 166.106 0.858429 -1.8561 0
M  V30 1840 H 164.261 3.33937 -1.9638 0
M  V30 1841 H 164.675 3.17918 -4.17167 0
M  V30 1842 H 166.149 4.54145 -3.13777 0
M  V30 1843 H 166.626 4.13081 -1.49199 0
M  V30 1844 H 167.232 3.15613 -2.85076 0
M  V30 1845 N 165.547 1.27147 0.931209 0
M  V30 1846 C 166.824 1.0401 1.65654 0
M  V30 1847 C 167.204 -0.426297 2.06751 0
M  V30 1848 O 166.552 -1.40879 1.79904 0
M  V30 1849 C 166.762 1.99834 2.86125 0
M  V30 1850 C 168.11 2.29007 3.57549 0
M  V30 1851 O 169.134 1.97779 2.96246 0
M  V30 1852 O 167.993 2.82222 4.67989 0
M  V30 1853 H 165.087 0.396239 0.725895 0
M  V30 1854 H 167.633 1.38397 0.982056 0
M  V30 1855 H 166.405 2.98744 2.52721 0
M  V30 1856 H 166.028 1.65987 3.61295 0
M  V30 1857 N 167.025 -1.13721 1.09112 0
M  V30 1858 C 168.302 -1.81155 0.737706 0
M  V30 1859 C 168.682 -1.96253 -0.777683 0
M  V30 1860 O 168.03 -1.52807 -1.69889 0
M  V30 1861 C 168.24 -3.16392 1.47299 0
M  V30 1862 C 169.588 -3.91787 1.63671 0
M  V30 1863 O 170.612 -3.26005 1.43524 0
M  V30 1864 O 169.471 -5.0977 1.96969 0
M  V30 1865 H 166.565 -0.783518 0.26463 0
M  V30 1866 H 169.111 -1.20676 1.19312 0
M  V30 1867 H 167.883 -3.0061 2.50498 0
M  V30 1868 H 167.506 -3.8457 1.00953 0
M  V30 1869 N 168.503 -0.877838 -1.30888 0
M  V30 1870 C 169.78 -0.413052 -1.91189 0
M  V30 1871 C 170.16 1.1056 -1.79832 0
M  V30 1872 O 169.508 1.93771 -1.21099 0
M  V30 1873 C 169.718 -0.903191 -3.3711 0
M  V30 1874 C 171.066 -0.93395 -4.14201 0
M  V30 1875 O 172.09 -0.849373 -3.45925 0
M  V30 1876 O 170.949 -1.05772 -5.36167 0
M  V30 1877 H 168.043 -0.125035 -0.817493 0
M  V30 1878 H 170.589 -0.966269 -1.39504 0
M  V30 1879 H 169.361 -1.94692 -3.39427 0
M  V30 1880 H 168.984 -0.328732 -3.96239 0
M  V30 1881 N 169.982 1.44106 -0.638065 0
M  V30 1882 C 171.231 2.01194 -0.142744 0
M  V30 1883 C 171.544 1.50835 1.24532 0
M  V30 1884 O 172.75 2.00096 1.83504 0
M  V30 1885 C 171.206 3.59319 -0.20442 0
M  V30 1886 C 170.814 4.18674 -1.59423 0
M  V30 1887 C 172.558 4.23854 0.234079 0
M  V30 1888 C 170.465 5.69045 -1.61065 0
M  V30 1889 H 169.395 0.752367 -0.0495998 0
M  V30 1890 H 172.046 1.65246 -0.797881 0
M  V30 1891 H 170.428 3.92598 0.517946 0
M  V30 1892 H 171.602 3.96921 -2.34074 0
M  V30 1893 H 169.917 3.66453 -1.97741 0
M  V30 1894 H 172.514 5.34155 0.241443 0
M  V30 1895 H 172.857 3.96688 1.2627 0
M  V30 1896 H 173.39 3.95403 -0.436025 0
M  V30 1897 H 170.129 6.00956 -2.61787 0
M  V30 1898 H 169.649 5.929 -0.90718 0
M  V30 1899 H 171.328 6.32809 -1.34766 0
M  V30 1900 N 171.46 0.379036 1.52974 0
M  V30 1901 C 172.423 -0.448865 2.24762 0
M  V30 1902 C 173.423 -0.998689 1.26027 0
M  V30 1903 O 174.613 -0.882313 1.50203 0
M  V30 1904 C 171.745 -1.62872 2.99476 0
M  V30 1905 H 172.938 0.179491 2.99362 0
M  V30 1906 H 170.491 0.13096 1.5575 0
M  V30 1907 H 171.226 -2.29479 2.29151 0
M  V30 1908 H 171.011 -1.24128 3.71934 0
M  V30 1909 H 172.501 -2.2151 3.5401 0
M  V30 1910 N 172.938 -1.57226 0.108567 0
M  V30 1911 C 173.901 -2.13602 -0.831082 0
M  V30 1912 C 174.901 -1.06841 -1.20173 0
M  V30 1913 O 176.091 -1.32666 -1.12895 0
M  V30 1914 C 173.223 -2.66769 -2.12243 0
M  V30 1915 H 174.416 -2.97951 -0.341317 0
M  V30 1916 H 171.969 -1.55667 -0.14057 0
M  V30 1917 H 172.704 -1.85977 -2.65675 0
M  V30 1918 H 172.489 -3.44839 -1.86625 0
M  V30 1919 H 173.979 -3.10332 -2.79435 0
M  V30 1920 N 174.416 0.165178 -1.56732 0
M  V30 1921 C 175.663 0.880807 -1.8234 0
M  V30 1922 C 175.991 1.81977 -0.686621 0
M  V30 1923 O 175.246 1.92971 0.325697 0
M  V30 1924 C 175.545 1.70405 -3.1416 0
M  V30 1925 C 175.211 0.913475 -4.4155 0
M  V30 1926 C 173.873 0.695303 -4.7615 0
M  V30 1927 C 176.225 0.359349 -5.1996 0
M  V30 1928 C 173.553 -0.0879947 -5.86634 0
M  V30 1929 C 175.905 -0.410893 -6.31264 0
M  V30 1930 C 174.569 -0.639808 -6.64427 0
M  V30 1931 H 173.839 0.32231 -0.667231 0
M  V30 1932 H 176.486 0.145402 -1.90947 0
M  V30 1933 H 174.791 2.50903 -3.00923 0
M  V30 1934 H 176.488 2.26091 -3.31186 0
M  V30 1935 H 173.078 1.09357 -4.14414 0
M  V30 1936 H 177.262 0.515228 -4.93618 0
M  V30 1937 H 172.518 -0.27503 -6.10781 0
M  V30 1938 H 176.692 -0.847494 -6.91224 0
M  V30 1939 H 174.319 -1.24864 -7.49875 0
M  V30 1940 N 175.894 1.51508 0.433938 0
M  V30 1941 C 177.31 1.39759 0.770682 0
M  V30 1942 C 177.51 0.482594 1.95636 0
M  V30 1943 O 176.566 -0.0609691 2.52426 0
M  V30 1944 C 177.879 2.81851 1.04787 0
M  V30 1945 C 179.427 2.91025 1.1521 0
M  V30 1946 C 179.902 4.34032 1.46219 0
M  V30 1947 N 181.393 4.37154 1.53136 0
M  V30 1948 C 182.128 5.4484 1.78709 0
M  V30 1949 N 181.624 6.62682 2.02051 0
M  V30 1950 N 183.417 5.32324 1.80519 0
M  V30 1951 H 175.568 2.09548 -0.346892 0
M  V30 1952 H 177.831 0.943446 -0.0928074 0
M  V30 1953 H 177.537 3.50815 0.249304 0
M  V30 1954 H 177.411 3.21386 1.97461 0
M  V30 1955 H 179.798 2.22257 1.94128 0
M  V30 1956 H 179.879 2.54983 0.204281 0
M  V30 1957 H 179.523 5.03351 0.678274 0
M  V30 1958 H 179.453 4.6759 2.42212 0
M  V30 1959 H 181.944 3.52197 1.36987 0
M  V30 1960 H 182.257 7.40543 2.20943 0
M  V30 1961 H 180.602 6.65791 1.99366 0
M  V30 1962 H 183.793 4.39246 1.61805 0
M  V30 1963 H 183.966 6.16328 2.00111 0
M  V30 1964 N 177.372 -0.689602 1.41712 0
M  V30 1965 C 178.319 -1.80345 1.44029 0
M  V30 1966 C 179.289 -1.63478 0.293948 0
M  V30 1967 O 180.474 -1.84244 0.495869 0
M  V30 1968 C 177.614 -3.18272 1.33405 0
M  V30 1969 C 176.727 -3.46529 2.57956 0
M  V30 1970 C 175.862 -4.74103 2.39582 0
M  V30 1971 C 174.901 -4.95347 3.5958 0
M  V30 1972 N 174.038 -6.14151 3.40239 0
M  V30 1973 H 178.878 -1.77698 2.39222 0
M  V30 1974 H 176.415 -0.867688 1.18784 0
M  V30 1975 H 178.373 -3.97956 1.25246 0
M  V30 1976 H 177.003 -3.2008 0.418164 0
M  V30 1977 H 176.055 -2.61207 2.76542 0
M  V30 1978 H 177.367 -3.58126 3.47199 0
M  V30 1979 H 176.521 -5.61853 2.28924 0
M  V30 1980 H 175.26 -4.64763 1.47805 0
M  V30 1981 H 174.265 -4.06044 3.70686 0
M  V30 1982 H 175.49 -5.06542 4.52318 0
M  V30 1983 H 173.436 -6.06013 2.51167 0
M  V30 1984 H 173.353 -6.26543 4.23061 0
M  V30 1985 H 174.621 -7.04619 3.33365 0
M  V30 1986 N 178.85 -1.27639 -0.924453 0
M  V30 1987 C 179.76 -1.12466 -2.05885 0
M  V30 1988 C 180.776 -0.053869 -1.73917 0
M  V30 1989 O 181.952 -0.261012 -1.99702 0
M  V30 1990 C 179.017 -0.776768 -3.37886 0
M  V30 1991 C 178.078 -1.92878 -3.83532 0
M  V30 1992 C 177.311 -1.59739 -5.09234 0
M  V30 1993 O 177.534 -0.506782 -5.68144 0
M  V30 1994 O 176.468 -2.43761 -5.50331 0
M  V30 1995 H 180.294 -2.07671 -2.21599 0
M  V30 1996 H 177.879 -1.06857 -1.04413 0
M  V30 1997 H 179.761 -0.596229 -4.17161 0
M  V30 1998 H 178.436 0.145732 -3.23372 0
M  V30 1999 H 177.343 -2.1644 -3.0513 0
M  V30 2000 H 178.676 -2.8316 -4.02593 0
M  V30 2001 N 180.328 1.1314 -1.09713 0
M  V30 2002 C 181.744 1.36477 -0.827423 0
M  V30 2003 C 181.944 1.93654 0.556817 0
M  V30 2004 O 181 2.15791 1.31112 0
M  V30 2005 C 182.313 2.31334 -1.92106 0
M  V30 2006 C 183.861 2.44943 -1.94864 0
M  V30 2007 C 184.336 3.4311 -3.0338 0
M  V30 2008 N 185.827 3.50662 -3.02639 0
M  V30 2009 C 186.562 4.2651 -3.83246 0
M  V30 2010 N 186.058 5.05485 -4.73768 0
M  V30 2011 N 187.851 4.2184 -3.71493 0
M  V30 2012 H 180.002 0.743807 -1.9895 0
M  V30 2013 H 182.265 0.389823 -0.864143 0
M  V30 2014 H 181.971 1.96483 -2.91698 0
M  V30 2015 H 181.845 3.31381 -1.80184 0
M  V30 2016 H 184.232 2.79079 -0.959099 0
M  V30 2017 H 184.313 1.4481 -2.10864 0
M  V30 2018 H 183.957 3.09704 -4.02549 0
M  V30 2019 H 183.887 4.43055 -2.84622 0
M  V30 2020 H 186.378 2.94315 -2.37039 0
M  V30 2021 H 186.691 5.60675 -5.3185 0
M  V30 2022 H 185.036 5.04708 -4.77802 0
M  V30 2023 H 188.227 3.5922 -3.00131 0
M  V30 2024 H 188.4 4.80697 -4.3455 0
M  V30 2025 N 181.806 0.884767 1.30421 0
M  V30 2026 C 182.769 0.356277 2.26414 0
M  V30 2027 C 183.769 -0.501124 1.52792 0
M  V30 2028 O 184.959 -0.30831 1.7145 0
M  V30 2029 C 182.091 -0.492316 3.37326 0
M  V30 2030 H 183.284 1.20389 2.74675 0
M  V30 2031 H 180.837 0.661607 1.41607 0
M  V30 2032 H 181.572 -1.36052 2.94381 0
M  V30 2033 H 181.357 0.121832 3.91911 0
M  V30 2034 H 182.847 -0.853871 4.08777 0
M  V30 2035 N 183.284 -1.43765 0.645699 0
M  V30 2036 C 184.7 -1.56509 0.312591 0
M  V30 2037 C 184.9 -1.6307 -1.18365 0
M  V30 2038 O 183.956 -1.58167 -1.96824 0
M  V30 2039 C 185.269 -2.82968 1.01733 0
M  V30 2040 C 186.817 -2.96701 0.996865 0
M  V30 2041 C 187.292 -4.25982 1.68236 0
M  V30 2042 N 188.783 -4.32829 1.64964 0
M  V30 2043 C 189.518 -5.31613 2.14885 0
M  V30 2044 N 189.014 -6.36718 2.73061 0
M  V30 2045 N 190.807 -5.23217 2.05428 0
M  V30 2046 H 182.958 -1.3775 1.61675 0
M  V30 2047 H 185.221 -0.661067 0.679481 0
M  V30 2048 H 184.927 -2.84156 2.0724 0
M  V30 2049 H 184.801 -3.72957 0.564177 0
M  V30 2050 H 187.188 -2.95058 -0.0497719 0
M  V30 2051 H 187.269 -2.08022 1.48865 0
M  V30 2052 H 186.913 -4.28386 2.72852 0
M  V30 2053 H 186.843 -5.13545 1.16529 0
M  V30 2054 H 189.334 -3.57493 1.22503 0
M  V30 2055 H 189.647 -7.08401 3.08848 0
M  V30 2056 H 187.992 -6.37362 2.77118 0
M  V30 2057 H 191.183 -4.40019 1.59689 0
M  V30 2058 H 191.356 -6.00045 2.44643 0
M  V30 2059 N 184.763 -0.387143 -1.52771 0
M  V30 2060 C 185.988 0.198407 -2.06449 0
M  V30 2061 C 186.413 1.39918 -1.25716 0
M  V30 2062 O 185.771 1.79099 -0.281657 0
M  V30 2063 C 185.819 0.548893 -3.56398 0
M  V30 2064 O 184.923 1.64315 -3.78252 0
M  V30 2065 H 184.264 0.0237731 -0.663574 0
M  V30 2066 H 186.794 -0.553989 -1.96957 0
M  V30 2067 H 186.804 0.813812 -3.99801 0
M  V30 2068 H 185.479 -0.329005 -4.14597 0
M  V30 2069 H 184.056 1.37211 -3.46738 0
M  V30 2070 N 186.241 1.57166 -0.116904 0
M  V30 2071 C 187.191 2.11756 0.845178 0
M  V30 2072 C 188.175 1.03783 1.22955 0
M  V30 2073 O 189.367 1.3002 1.20099 0
M  V30 2074 C 186.496 2.71886 2.09602 0
M  V30 2075 C 185.582 3.86937 1.7361 0
M  V30 2076 N 185.973 4.94073 1.08284 0
M  V30 2077 C 184.271 3.97082 2.03082 0
M  V30 2078 C 184.972 5.74477 0.913855 0
M  V30 2079 N 183.948 5.2423 1.43818 0
M  V30 2080 H 187.75 2.91967 0.336523 0
M  V30 2081 H 185.264 1.62174 0.0856332 0
M  V30 2082 H 187.261 3.09338 2.79492 0
M  V30 2083 H 185.921 1.93138 2.61013 0
M  V30 2084 H 186.932 5.12483 0.747067 0
M  V30 2085 H 183.609 3.29372 2.56554 0
M  V30 2086 H 184.999 6.70701 0.40125 0
M  V30 2087 N 187.719 -0.156864 1.56817 0
M  V30 2088 C 189.135 -0.50916 1.5126 0
M  V30 2089 C 189.335 -1.83897 0.823658 0
M  V30 2090 O 188.391 -2.49469 0.390055 0
M  V30 2091 C 189.704 -0.52857 2.96018 0
M  V30 2092 C 191.252 -0.614771 3.06903 0
M  V30 2093 C 191.727 -0.664938 4.53147 0
M  V30 2094 N 193.218 -0.727433 4.57452 0
M  V30 2095 C 193.953 -0.787067 5.67973 0
M  V30 2096 N 193.449 -0.806649 6.88088 0
M  V30 2097 N 195.242 -0.827195 5.5598 0
M  V30 2098 H 187.393 0.714935 2.00006 0
M  V30 2099 H 189.656 0.259526 0.911784 0
M  V30 2100 H 189.362 0.380154 3.49639 0
M  V30 2101 H 189.236 -1.36998 3.51442 0
M  V30 2102 H 191.623 -1.51392 2.53307 0
M  V30 2103 H 191.704 0.253597 2.5454 0
M  V30 2104 H 191.348 0.230011 5.07379 0
M  V30 2105 H 191.278 -1.54966 5.03282 0
M  V30 2106 H 193.769 -0.719998 3.70978 0
M  V30 2107 H 194.082 -0.853727 7.6807 0
M  V30 2108 H 192.427 -0.774687 6.90669 0
M  V30 2109 H 195.618 -0.808998 4.61056 0
M  V30 2110 H 195.791 -0.870206 6.4213 0
M  V30 2111 N 189.197 -1.51736 -0.425897 0
M  V30 2112 C 190.444 -1.6497 -1.17436 0
M  V30 2113 C 190.772 -0.371445 -1.9092 0
M  V30 2114 O 190.027 0.644963 -1.84767 0
M  V30 2115 C 190.326 -2.81103 -2.20717 0
M  V30 2116 C 189.992 -4.19954 -1.64162 0
M  V30 2117 C 188.654 -4.57725 -1.48462 0
M  V30 2118 C 191.006 -5.06552 -1.22696 0
M  V30 2119 C 188.334 -5.79789 -0.897873 0
M  V30 2120 C 190.686 -6.29205 -0.654464 0
M  V30 2121 C 189.35 -6.6574 -0.484456 0
M  V30 2122 H 188.62 -0.603668 -0.429727 0
M  V30 2123 H 191.267 -1.85798 -0.463829 0
M  V30 2124 H 189.572 -2.54542 -2.97852 0
M  V30 2125 H 191.269 -2.8854 -2.78471 0
M  V30 2126 H 187.859 -3.90181 -1.77361 0
M  V30 2127 H 192.043 -4.77968 -1.33642 0
M  V30 2128 H 187.299 -6.06733 -0.75402 0
M  V30 2129 H 191.473 -6.95643 -0.324694 0
M  V30 2130 H 189.1 -7.60195 -0.0276833 0
M  V30 2131 N 190.675 0.682077 -1.42076 0
M  V30 2132 C 191.903 1.47057 -1.4554 0
M  V30 2133 C 192.318 1.8869 -0.0645779 0
M  V30 2134 O 191.675 1.57666 0.919115 0
M  V30 2135 C 191.726 2.72442 -2.37609 0
M  V30 2136 O 191.447 2.32559 -3.71279 0
M  V30 2137 C 192.948 3.66069 -2.50017 0
M  V30 2138 H 190.168 0.452737 -0.495248 0
M  V30 2139 H 192.712 0.838695 -1.8651 0
M  V30 2140 H 190.867 3.31835 -1.9991 0
M  V30 2141 H 191.281 3.13475 -4.20516 0
M  V30 2142 H 192.755 4.50792 -3.18576 0
M  V30 2143 H 193.232 4.11476 -1.53572 0
M  V30 2144 H 193.838 3.12572 -2.88407 0
M  V30 2145 N 192.153 1.28127 0.917671 0
M  V30 2146 C 193.378 1.18007 1.70555 0
M  V30 2147 C 193.803 -0.258257 1.86319 0
M  V30 2148 O 193.161 -1.1869 1.37049 0
M  V30 2149 C 193.209 1.87948 3.07746 0
M  V30 2150 O 192.313 1.18427 3.9503 0
M  V30 2151 H 191.654 0.409867 0.522403 0
M  V30 2152 H 194.184 1.69379 1.1477 0
M  V30 2153 H 194.194 1.95701 3.58001 0
M  V30 2154 H 192.869 2.92573 2.95591 0
M  V30 2155 H 191.446 1.18811 3.53466 0
M  V30 2156 N 193.631 -1.12557 1.10312 0
M  V30 2157 C 194.88 -1.83395 0.839588 0
M  V30 2158 C 195.193 -1.84939 -0.636929 0
M  V30 2159 O 196.399 -2.51761 -1.01631 0
M  V30 2160 C 194.855 -3.29303 1.45215 0
M  V30 2161 C 194.463 -3.36122 2.96186 0
M  V30 2162 C 196.207 -4.05121 1.26796 0
M  V30 2163 C 194.114 -4.76357 3.50483 0
M  V30 2164 H 193.044 -0.687133 0.310425 0
M  V30 2165 H 195.695 -1.26746 1.32694 0
M  V30 2166 H 194.077 -3.85812 0.892469 0
M  V30 2167 H 195.251 -2.89559 3.58458 0
M  V30 2168 H 193.566 -2.73776 3.13745 0
M  V30 2169 H 196.163 -5.08668 1.64806 0
M  V30 2170 H 196.506 -4.15773 0.209409 0
M  V30 2171 H 197.039 -3.54967 1.79563 0
M  V30 2172 H 193.778 -4.70899 4.55998 0
M  V30 2173 H 193.298 -5.23377 2.92978 0
M  V30 2174 H 194.977 -5.45294 3.48228 0
M  V30 2175 N 195.109 -0.891671 -1.2995 0
M  V30 2176 C 196.52 -0.563104 -1.78006 0
M  V30 2177 C 196.871 0.920978 -1.73241 0
M  V30 2178 O 195.996 1.71987 -1.31337 0
M  V30 2179 C 196.591 -1.01539 -3.23226 0
M  V30 2180 C 195.15 -0.738124 -3.69092 0
M  V30 2181 C 194.297 -1.19461 -2.50249 0
M  V30 2182 H 197.248 -1.07522 -1.16725 0
M  V30 2183 H 197.269 -0.347217 -3.78912 0
M  V30 2184 H 196.781 -2.09555 -3.26662 0
M  V30 2185 H 194.882 0.329766 -3.71138 0
M  V30 2186 H 194.995 -1.33037 -4.60259 0
M  V30 2187 H 193.359 -0.613787 -2.47194 0
M  V30 2188 H 194.142 -2.28265 -2.56417 0
M  V30 2189 N 196.587 1.43421 -0.653314 0
M  V30 2190 C 197.833 2.02111 -0.166992 0
M  V30 2191 C 198.166 1.51423 1.21592 0
M  V30 2192 O 197.441 0.707389 1.8118 0
M  V30 2193 C 197.724 3.5966 -0.177948 0
M  V30 2194 C 197.577 4.20579 -1.59478 0
M  V30 2195 C 198.896 4.37413 0.4856 0
M  V30 2196 H 196.015 0.734374 -0.0621557 0
M  V30 2197 H 198.657 1.70717 -0.834016 0
M  V30 2198 H 196.807 3.86537 0.390032 0
M  V30 2199 H 198.479 4.04732 -2.21336 0
M  V30 2200 H 196.722 3.77226 -2.14204 0
M  V30 2201 H 197.393 5.29665 -1.5543 0
M  V30 2202 H 199.869 4.161 0.00234528 0
M  V30 2203 H 198.745 5.47075 0.447207 0
M  V30 2204 H 199.006 4.13672 1.55974 0
M  V30 2205 N 198.065 0.39524 1.52563 0
M  V30 2206 C 199.012 -0.437036 2.26624 0
M  V30 2207 C 199.982 -1.05281 1.28472 0
M  V30 2208 O 201.167 -1.07971 1.57311 0
M  V30 2209 C 198.307 -1.55524 3.08069 0
M  V30 2210 C 197.42 -0.961745 4.21158 0
M  V30 2211 C 196.555 -2.05149 4.89987 0
M  V30 2212 C 195.594 -1.4342 5.95061 0
M  V30 2213 N 194.731 -2.46351 6.57462 0
M  V30 2214 H 199.571 0.200976 2.97322 0
M  V30 2215 H 197.108 0.110944 1.46681 0
M  V30 2216 H 199.066 -2.21437 3.53584 0
M  V30 2217 H 197.696 -2.16348 2.3957 0
M  V30 2218 H 196.748 -0.192048 3.79915 0
M  V30 2219 H 198.06 -0.470701 4.96574 0
M  V30 2220 H 197.214 -2.78819 5.38837 0
M  V30 2221 H 195.953 -2.57615 4.14109 0
M  V30 2222 H 194.958 -0.682774 5.45544 0
M  V30 2223 H 196.183 -0.917416 6.72875 0
M  V30 2224 H 194.129 -2.97975 5.8442 0
M  V30 2225 H 194.046 -2.02019 7.28508 0
M  V30 2226 H 195.314 -3.19633 7.10954 0
M  V30 2227 N 199.544 -1.57102 0.125237 0
M  V30 2228 C 200.772 -1.99761 -0.538797 0
M  V30 2229 C 201.187 -1.00503 -1.59827 0
M  V30 2230 O 200.544 0.00119474 -1.825 0
M  V30 2231 C 200.595 -3.42408 -1.15927 0
M  V30 2232 O 200.316 -4.37869 -0.142143 0
M  V30 2233 C 201.817 -4.00232 -1.90602 0
M  V30 2234 H 199.037 -0.655772 -0.14214 0
M  V30 2235 H 201.581 -2.03383 0.213413 0
M  V30 2236 H 199.736 -3.39706 -1.86223 0
M  V30 2237 H 200.15 -5.21128 -0.593775 0
M  V30 2238 H 201.624 -5.02105 -2.29335 0
M  V30 2239 H 202.101 -3.39721 -2.78363 0
M  V30 2240 H 202.707 -4.06499 -1.25055 0
M  V30 2241 N 201.022 0.148545 -1.56898 0
M  V30 2242 C 201.97 1.20265 -1.99096 0
M  V30 2243 C 202.964 1.44559 -0.883123 0
M  V30 2244 O 204.17 1.4487 -1.0683 0
M  V30 2245 H 200.545 0.404786 -0.63376 0
M  V30 2246 H 202.516 0.82004 -2.86911 0
M  V30 2247 C 201.265 2.52886 -2.3863 0
M  V30 2248 H 200.588 2.35021 -3.23427 0
M  V30 2249 H 202.028 3.25274 -2.7198 0
M  V30 2250 C 200.487 3.13315 -1.23837 0
M  V30 2251 O 201.017 3.98077 -0.538268 0
M  V30 2252 N 199.223 2.72742 -1.00301 0
M  V30 2253 H 198.77 2.03912 -1.5741 0
M  V30 2254 H 198.728 3.13507 -0.236838 0
M  V30 2255 N 202.5 1.5196 0.417844 0
M  V30 2256 C 203.43 1.77634 1.51554 0
M  V30 2257 C 204.411 0.626918 1.58126 0
M  V30 2258 O 205.596 0.871632 1.7354 0
M  V30 2259 C 202.726 1.91911 2.8946 0
M  V30 2260 C 201.68 3.07463 2.97743 0
M  V30 2261 C 201.006 3.06951 4.37819 0
M  V30 2262 C 202.306 4.47082 2.70027 0
M  V30 2263 H 204 2.6955 1.3032 0
M  V30 2264 H 201.546 1.29706 0.625492 0
M  V30 2265 H 203.499 2.08455 3.6623 0
M  V30 2266 H 202.223 0.966598 3.11969 0
M  V30 2267 H 200.882 2.90656 2.23416 0
M  V30 2268 H 200.53 2.09438 4.57323 0
M  V30 2269 H 200.23 3.84556 4.44286 0
M  V30 2270 H 201.754 3.25613 5.16535 0
M  V30 2271 H 203.168 4.6414 3.36522 0
M  V30 2272 H 201.565 5.2654 2.87881 0
M  V30 2273 H 202.635 4.55777 1.65514 0
M  V30 2274 N 203.978 -0.674533 1.42435 0
M  V30 2275 C 205.206 -1.46283 1.46317 0
M  V30 2276 C 205.621 -1.88653 0.0745836 0
M  V30 2277 O 204.978 -1.58151 -0.91074 0
M  V30 2278 C 205.029 -2.71178 2.3905 0
M  V30 2279 O 204.75 -2.30586 3.72507 0
M  V30 2280 C 206.251 -3.64738 2.51955 0
M  V30 2281 H 203.471 -0.450104 0.497642 0
M  V30 2282 H 206.015 -0.828792 1.86953 0
M  V30 2283 H 204.17 -3.3077 2.01667 0
M  V30 2284 H 204.584 -3.11241 4.22172 0
M  V30 2285 H 206.058 -4.49096 3.20962 0
M  V30 2286 H 206.535 -4.10656 1.55752 0
M  V30 2287 H 207.141 -3.11038 2.90061 0
M  V30 2288 N 205.456 -1.28612 -0.910864 0
M  V30 2289 C 206.366 -1.14643 -2.0468 0
M  V30 2290 C 207.382 -0.0723121 -1.7385 0
M  V30 2291 O 208.558 -0.282178 -1.99413 0
M  V30 2292 C 205.623 -0.812561 -3.37044 0
M  V30 2293 C 204.684 -1.96935 -3.81465 0
M  V30 2294 C 203.917 -1.65131 -5.07511 0
M  V30 2295 O 204.14 -0.567013 -5.67575 0
M  V30 2296 O 203.074 -2.49585 -5.47714 0
M  V30 2297 H 206.9 -2.1001 -2.19384 0
M  V30 2298 H 204.485 -1.07958 -1.03274 0
M  V30 2299 H 206.367 -0.640441 -4.16505 0
M  V30 2300 H 205.042 0.111426 -3.23508 0
M  V30 2301 H 203.949 -2.19664 -3.02818 0
M  V30 2302 H 205.282 -2.87414 -3.99567 0
M  V30 2303 N 206.934 1.1197 -1.10907 0
M  V30 2304 C 208.18 1.8386 -0.855773 0
M  V30 2305 C 208.513 1.84134 0.617103 0
M  V30 2306 O 207.788 1.29041 1.45529 0
M  V30 2307 C 208.071 3.31305 -1.411 0
M  V30 2308 C 207.924 3.39456 -2.9511 0
M  V30 2309 C 209.243 4.2721 -1.05736 0
M  V30 2310 H 206.362 0.667545 -0.312334 0
M  V30 2311 H 209.004 1.31331 -1.37303 0
M  V30 2312 H 207.154 3.76169 -0.97105 0
M  V30 2313 H 208.826 3.03191 -3.47668 0
M  V30 2314 H 207.069 2.79849 -3.31462 0
M  V30 2315 H 207.74 4.43209 -3.29044 0
M  V30 2316 H 210.216 3.90497 -1.43706 0
M  V30 2317 H 209.092 5.28775 -1.47269 0
M  V30 2318 H 209.353 4.42088 0.0325958 0
M  V30 2319 N 208.412 0.89855 1.29475 0
M  V30 2320 C 209.344 0.332726 2.26772 0
M  V30 2321 C 210.357 -0.520323 1.54261 0
M  V30 2322 O 211.546 -0.337668 1.75277 0
M  V30 2323 C 208.646 -0.544334 3.345 0
M  V30 2324 C 207.819 0.282728 4.36485 0
M  V30 2325 C 206.878 -0.526982 5.23555 0
M  V30 2326 O 205.904 0.0551165 5.69173 0
M  V30 2327 N 207.106 -1.83331 5.5079 0
M  V30 2328 H 209.871 1.16897 2.75962 0
M  V30 2329 H 207.432 0.762919 1.42798 0
M  V30 2330 H 209.424 -1.09239 3.89678 0
M  V30 2331 H 207.994 -1.28127 2.85136 0
M  V30 2332 H 207.214 1.01221 3.80983 0
M  V30 2333 H 208.502 0.84918 5.01664 0
M  V30 2334 H 207.9 -2.32898 5.15534 0
M  V30 2335 H 206.457 -2.32852 6.08788 0
M  V30 2336 N 209.89 -1.43072 0.660911 0
M  V30 2337 C 211.136 -2.0202 0.177708 0
M  V30 2338 C 211.469 -1.52066 -1.20787 0
M  V30 2339 O 210.744 -0.716987 -1.80802 0
M  V30 2340 C 211.027 -3.59561 0.197019 0
M  V30 2341 C 210.88 -4.19727 1.61706 0
M  V30 2342 C 212.199 -4.37664 -0.462396 0
M  V30 2343 H 209.318 -0.734034 0.0660494 0
M  V30 2344 H 211.96 -1.70272 0.843058 0
M  V30 2345 H 210.11 -3.86739 -0.369527 0
M  V30 2346 H 211.782 -4.03553 2.23479 0
M  V30 2347 H 210.025 -3.76084 2.16201 0
M  V30 2348 H 210.696 -5.28834 1.58237 0
M  V30 2349 H 213.172 -4.16095 0.0197215 0
M  V30 2350 H 212.048 -5.47305 -0.418188 0
M  V30 2351 H 212.309 -4.14493 -1.53778 0
M  V30 2352 N 211.368 -0.403325 -1.52352 0
M  V30 2353 C 212.331 0.413051 -2.25447 0
M  V30 2354 C 213.331 0.978513 -1.276 0
M  V30 2355 O 214.521 0.858305 -1.51587 0
M  V30 2356 C 211.653 1.58087 -3.02029 0
M  V30 2357 H 212.846 -0.227094 -2.99039 0
M  V30 2358 H 210.399 -0.155722 -1.55522 0
M  V30 2359 H 211.134 2.25804 -2.32772 0
M  V30 2360 H 210.919 1.18195 -3.73861 0
M  V30 2361 H 212.409 2.1585 -3.57489 0
M  V30 2362 N 212.846 1.57033 -0.133567 0
M  V30 2363 C 214.262 1.58035 0.222944 0
M  V30 2364 C 214.462 1.14713 1.6566 0
M  V30 2365 O 213.518 0.841218 2.38075 0
M  V30 2366 C 214.831 3.00691 -0.0236116 0
M  V30 2367 C 216.379 3.12973 0.0411512 0
M  V30 2368 C 216.854 4.57654 -0.177899 0
M  V30 2369 N 218.345 4.63033 -0.124365 0
M  V30 2370 C 219.08 5.72771 -0.268553 0
M  V30 2371 N 218.576 6.91206 -0.46972 0
M  V30 2372 N 220.369 5.61718 -0.2071 0
M  V30 2373 H 212.52 1.8349 -1.06981 0
M  V30 2374 H 214.783 0.848677 -0.422436 0
M  V30 2375 H 214.489 3.36726 -1.0153 0
M  V30 2376 H 214.363 3.70614 0.701808 0
M  V30 2377 H 216.75 2.76787 1.02338 0
M  V30 2378 H 216.831 2.45564 -0.716383 0
M  V30 2379 H 216.475 4.94542 -1.15717 0
M  V30 2380 H 216.405 5.23173 0.599797 0
M  V30 2381 H 218.896 3.7789 0.027011 0
M  V30 2382 H 219.209 7.70693 -0.570212 0
M  V30 2383 H 217.554 6.93156 -0.505876 0
M  V30 2384 H 220.745 4.68072 -0.0507986 0
M  V30 2385 H 220.918 6.47195 -0.322909 0
M  V30 2386 N 214.325 -0.140222 1.56975 0
M  V30 2387 C 215.572 -0.851687 1.83719 0
M  V30 2388 C 215.9 -1.80862 0.715485 0
M  V30 2389 O 215.155 -1.93464 -0.294956 0
M  V30 2390 C 215.454 -1.65386 3.16832 0
M  V30 2391 C 215.12 -0.843112 4.42947 0
M  V30 2392 C 213.782 -0.619464 4.77196 0
M  V30 2393 C 216.134 -0.276582 5.20466 0
M  V30 2394 C 213.462 0.181312 5.8642 0
M  V30 2395 C 215.814 0.51127 6.30531 0
M  V30 2396 C 214.478 0.745432 6.63325 0
M  V30 2397 H 213.748 -0.311654 0.672274 0
M  V30 2398 H 216.395 -0.115006 1.91154 0
M  V30 2399 H 214.7 -2.46084 3.04877 0
M  V30 2400 H 216.397 -2.20793 3.34741 0
M  V30 2401 H 212.987 -1.0275 4.16101 0
M  V30 2402 H 217.171 -0.436632 4.94376 0
M  V30 2403 H 212.427 0.372165 6.10266 0
M  V30 2404 H 216.601 0.957354 6.89788 0
M  V30 2405 H 214.228 1.36778 7.47794 0
M  V30 2406 N 215.803 -1.52179 -0.40978 0
M  V30 2407 C 216.766 -1.74853 -1.48186 0
M  V30 2408 C 217.766 -0.618417 -1.48433 0
M  V30 2409 O 218.956 -0.886286 -1.49969 0
M  V30 2410 C 216.088 -1.8303 -2.87598 0
M  V30 2411 H 217.281 -2.70559 -1.29374 0
M  V30 2412 H 214.834 -1.42586 -0.640233 0
M  V30 2413 H 215.569 -0.89236 -3.11781 0
M  V30 2414 H 215.354 -2.65187 -2.88822 0
M  V30 2415 H 216.844 -2.02316 -3.65319 0
M  V30 2416 N 217.281 0.66697 -1.42791 0
M  V30 2417 C 218.527 1.4291 -1.43891 0
M  V30 2418 C 218.86 1.94114 -0.0578972 0
M  V30 2419 O 218.135 1.71414 0.91911 0
M  V30 2420 C 218.418 2.62049 -2.46987 0
M  V30 2421 C 218.271 2.16426 -3.94309 0
M  V30 2422 C 219.59 3.64266 -2.46978 0
M  V30 2423 H 216.709 0.518306 -0.523954 0
M  V30 2424 H 219.351 0.757321 -1.74255 0
M  V30 2425 H 217.501 3.19361 -2.21225 0
M  V30 2426 H 219.173 1.64221 -4.31079 0
M  V30 2427 H 217.416 1.47925 -4.078 0
M  V30 2428 H 218.087 3.02038 -4.62036 0
M  V30 2429 H 220.563 3.16686 -2.69906 0
M  V30 2430 H 219.439 4.45196 -3.21079 0
M  V30 2431 H 219.7 4.15927 -1.49857 0
M  V30 2432 N 218.759 1.29093 0.90403 0
M  V30 2433 C 219.707 1.13727 2.02901 0
M  V30 2434 C 220.701 0.0539853 1.69314 0
M  V30 2435 O 221.907 0.213469 1.7873 0
M  V30 2436 H 218.282 0.35117 0.664969 0
M  V30 2437 H 220.253 2.08982 2.13001 0
M  V30 2438 C 219.002 0.826066 3.37745 0
M  V30 2439 H 218.325 1.65164 3.64089 0
M  V30 2440 H 219.765 0.758559 4.17159 0
M  V30 2441 C 218.224 -0.470541 3.33598 0
M  V30 2442 O 218.754 -1.49792 3.72727 0
M  V30 2443 N 216.96 -0.474812 2.86695 0
M  V30 2444 H 216.507 0.361692 2.55048 0
M  V30 2445 H 216.465 -1.34236 2.84303 0
M  V30 2446 N 220.237 -1.11381 1.11499 0
M  V30 2447 C 221.169 -2.17207 0.731704 0
M  V30 2448 C 222.182 -1.61066 -0.236957 0
M  V30 2449 O 223.371 -1.78489 -0.0197591 0
M  V30 2450 C 220.471 -3.38846 0.0607624 0
M  V30 2451 C 219.644 -4.24451 1.0564 0
M  V30 2452 C 218.703 -5.24562 0.4149 0
M  V30 2453 O 217.729 -5.59071 1.069 0
M  V30 2454 N 218.931 -5.74651 -0.821943 0
M  V30 2455 H 221.696 -2.50699 1.64225 0
M  V30 2456 H 219.257 -1.26908 1.00529 0
M  V30 2457 H 221.249 -4.02911 -0.380139 0
M  V30 2458 H 219.819 -3.03411 -0.752376 0
M  V30 2459 H 219.039 -3.56833 1.67524 0
M  V30 2460 H 220.327 -4.78486 1.72998 0
M  V30 2461 H 219.725 -5.48797 -1.37252 0
M  V30 2462 H 218.282 -6.40549 -1.20582 0
M  V30 2463 N 221.715 -0.905404 -1.28997 0
M  V30 2464 C 222.945 -0.549049 -1.99171 0
M  V30 2465 C 223.353 0.87203 -1.67906 0
M  V30 2466 O 222.696 1.58796 -0.923561 0
M  V30 2467 C 222.758 -0.668306 -3.53234 0
M  V30 2468 C 222.422 -2.0574 -4.08069 0
M  V30 2469 C 223.419 -3.0292 -4.22534 0
M  V30 2470 C 221.104 -2.36833 -4.42962 0
M  V30 2471 C 223.098 -4.29314 -4.71135 0
M  V30 2472 C 220.785 -3.63467 -4.91258 0
M  V30 2473 C 221.783 -4.59522 -5.053 0
M  V30 2474 O 221.471 -5.83907 -5.52546 0
M  V30 2475 H 221.203 -0.208784 -0.64295 0
M  V30 2476 H 223.757 -1.21836 -1.65363 0
M  V30 2477 H 221.987 0.0580547 -3.86656 0
M  V30 2478 H 223.676 -0.320273 -4.04634 0
M  V30 2479 H 224.442 -2.80216 -3.95859 0
M  V30 2480 H 220.321 -1.62824 -4.31288 0
M  V30 2481 H 223.865 -5.04293 -4.8201 0
M  V30 2482 H 219.762 -3.86 -5.17372 0
M  V30 2483 H 220.53 -5.86578 -5.70849 0
M  V30 2484 N 223.193 1.4272 -0.668489 0
M  V30 2485 C 224.609 1.55992 -0.33745 0
M  V30 2486 C 224.809 1.64933 1.15756 0
M  V30 2487 O 223.865 1.61278 1.94282 0
M  V30 2488 C 225.178 2.81314 -1.06222 0
M  V30 2489 C 226.726 2.95078 -1.04394 0
M  V30 2490 C 227.201 4.23252 -1.74991 0
M  V30 2491 N 228.692 4.3015 -1.71829 0
M  V30 2492 C 229.427 5.28127 -2.23315 0
M  V30 2493 N 228.923 6.32293 -2.83156 0
M  V30 2494 N 230.716 5.19882 -2.13726 0
M  V30 2495 H 222.867 1.3516 -1.63846 0
M  V30 2496 H 225.13 0.650174 -0.689912 0
M  V30 2497 H 224.836 2.80823 -2.11734 0
M  V30 2498 H 224.71 3.72012 -0.62344 0
M  V30 2499 H 227.097 2.951 0.0028244 0
M  V30 2500 H 227.178 2.05627 -1.52155 0
M  V30 2501 H 226.822 4.2399 -2.79633 0
M  V30 2502 H 226.752 5.11626 -1.24685 0
M  V30 2503 H 229.243 3.55499 -1.28175 0
M  V30 2504 H 229.556 7.03398 -3.20079 0
M  V30 2505 H 227.901 6.32873 -2.87223 0
M  V30 2506 H 231.092 4.37423 -1.66669 0
M  V30 2507 H 231.265 5.96077 -2.54158 0
M  V30 2508 N 224.671 0.411399 1.52136 0
M  V30 2509 C 225.918 -0.163645 2.01838 0
M  V30 2510 C 226.246 -1.4495 1.29691 0
M  V30 2511 O 225.501 -1.91725 0.392431 0
M  V30 2512 C 225.8 -0.455872 3.54481 0
M  V30 2513 C 225.466 0.741055 4.44769 0
M  V30 2514 C 224.128 1.06936 4.69167 0
M  V30 2515 C 226.48 1.54075 4.97906 0
M  V30 2516 C 223.808 2.19851 5.43951 0
M  V30 2517 C 226.16 2.66067 5.73926 0
M  V30 2518 C 224.824 2.99381 5.96596 0
M  V30 2519 H 224.094 -0.0598821 0.738576 0
M  V30 2520 H 226.741 0.553283 1.83333 0
M  V30 2521 H 225.046 -1.2544 3.71177 0
M  V30 2522 H 226.743 -0.913802 3.90449 0
M  V30 2523 H 223.333 0.475192 4.25958 0
M  V30 2524 H 227.517 1.30033 4.78963 0
M  V30 2525 H 222.773 2.46006 5.59724 0
M  V30 2526 H 226.947 3.28419 6.14096 0
M  V30 2527 H 224.574 3.86992 6.54325 0
M  V30 2528 N 226.149 -1.5696 0.141893 0
M  V30 2529 C 227.56 -1.82797 -0.379776 0
M  V30 2530 C 227.911 -1.06033 -1.6508 0
M  V30 2531 O 227.036 -0.304011 -2.14254 0
M  V30 2532 C 227.631 -3.31578 -0.695802 0
M  V30 2533 C 226.19 -3.58014 -1.16201 0
M  V30 2534 C 225.337 -2.76699 -0.182455 0
M  V30 2535 H 228.288 -1.54406 0.366675 0
M  V30 2536 H 228.309 -3.47454 -1.55099 0
M  V30 2537 H 227.821 -3.87421 0.229449 0
M  V30 2538 H 225.922 -3.07553 -2.10338 0
M  V30 2539 H 226.035 -4.66501 -1.09151 0
M  V30 2540 H 224.399 -2.45618 -0.674072 0
M  V30 2541 H 225.182 -3.35311 0.736297 0
M  V30 2542 N 227.627 0.131896 -1.57047 0
M  V30 2543 C 228.875 0.840269 -1.83804 0
M  V30 2544 C 229.196 1.81017 -0.72512 0
M  V30 2545 O 228.466 1.94272 0.251995 0
M  V30 2546 H 227.046 0.313294 -0.678127 0
M  V30 2547 H 229.708 0.122294 -1.94516 0
M  V30 2548 H 228.804 1.39335 -2.79271 0
M  V30 2549 N 229.106 1.52395 0.401703 0
M  V30 2550 C 230.352 1.67065 1.14966 0
M  V30 2551 C 230.685 0.403052 1.89971 0
M  V30 2552 O 229.96 -0.598774 1.85054 0
M  V30 2553 C 230.243 2.8975 2.13815 0
M  V30 2554 C 230.096 4.26578 1.42658 0
M  V30 2555 C 231.415 3.07965 3.14397 0
M  V30 2556 H 228.534 0.607968 0.416587 0
M  V30 2557 H 231.176 1.84965 0.434511 0
M  V30 2558 H 229.326 2.74619 2.74803 0
M  V30 2559 H 230.998 4.53451 0.847329 0
M  V30 2560 H 229.241 4.27639 0.72849 0
M  V30 2561 H 229.912 5.08483 2.14823 0
M  V30 2562 H 232.388 3.22043 2.63491 0
M  V30 2563 H 231.264 3.95308 3.80819 0
M  V30 2564 H 231.525 2.21611 3.82545 0
M  V30 2565 N 230.584 -0.659388 1.43143 0
M  V30 2566 C 231.494 -1.80167 1.50256 0
M  V30 2567 C 232.51 -1.69571 0.390106 0
M  V30 2568 O 233.686 -1.90849 0.643319 0
M  V30 2569 C 230.751 -3.16409 1.41725 0
M  V30 2570 C 229.812 -3.38848 2.63591 0
M  V30 2571 C 229.045 -4.68591 2.55458 0
M  V30 2572 O 229.268 -5.47532 1.59891 0
M  V30 2573 O 228.202 -4.92614 3.45854 0
M  V30 2574 H 232.028 -1.77121 2.46702 0
M  V30 2575 H 229.613 -0.817092 1.25076 0
M  V30 2576 H 231.495 -3.9768 1.39387 0
M  V30 2577 H 230.17 -3.20059 0.484118 0
M  V30 2578 H 229.077 -2.57366 2.71502 0
M  V30 2579 H 230.41 -3.4004 3.55856 0
M  V30 2580 N 232.062 -1.29571 -0.897171 0
M  V30 2581 C 233.308 -1.17863 -1.65034 0
M  V30 2582 C 233.641 0.268729 -1.92332 0
M  V30 2583 O 232.916 1.19378 -1.53555 0
M  V30 2584 C 233.199 -1.995 -2.99786 0
M  V30 2585 C 233.052 -3.5239 -2.79538 0
M  V30 2586 C 234.371 -1.82335 -4.00552 0
M  V30 2587 H 231.49 -0.429528 -0.598895 0
M  V30 2588 H 234.132 -1.59072 -1.03905 0
M  V30 2589 H 232.282 -1.64485 -3.51962 0
M  V30 2590 H 233.954 -3.97401 -2.34244 0
M  V30 2591 H 232.197 -3.77187 -2.14273 0
M  V30 2592 H 232.868 -4.04787 -3.75302 0
M  V30 2593 H 235.344 -2.12924 -3.57495 0
M  V30 2594 H 234.22 -2.41801 -4.92771 0
M  V30 2595 H 234.481 -0.779209 -4.35179 0
M  V30 2596 N 233.54 1.10788 -1.12088 0
M  V30 2597 C 234.487 2.17025 -0.785407 0
M  V30 2598 C 235.457 1.64265 0.246191 0
M  V30 2599 O 236.642 1.90412 0.121584 0
M  V30 2600 C 233.782 3.44249 -0.242177 0
M  V30 2601 C 232.895 4.1098 -1.33115 0
M  V30 2602 C 232.03 5.25911 -0.747741 0
M  V30 2603 C 231.069 5.84538 -1.81609 0
M  V30 2604 N 230.206 6.90853 -1.25167 0
M  V30 2605 H 235.046 2.45066 -1.69548 0
M  V30 2606 H 232.583 1.20297 -0.846582 0
M  V30 2607 H 234.541 4.17101 0.0908026 0
M  V30 2608 H 233.171 3.16571 0.631072 0
M  V30 2609 H 232.223 3.36133 -1.78097 0
M  V30 2610 H 233.535 4.50601 -2.13917 0
M  V30 2611 H 232.689 6.056 -0.365216 0
M  V30 2612 H 231.428 4.87614 0.0915188 0
M  V30 2613 H 230.433 5.03522 -2.20785 0
M  V30 2614 H 231.658 6.249 -2.6585 0
M  V30 2615 H 229.604 6.54562 -0.434174 0
M  V30 2616 H 229.521 7.29166 -1.99633 0
M  V30 2617 H 230.789 7.7433 -0.896259 0
M  V30 2618 N 235.018 0.912232 1.28515 0
M  V30 2619 C 236.266 0.543523 1.94654 0
M  V30 2620 C 236.587 -0.9155 1.72173 0
M  V30 2621 O 235.857 -1.64708 1.06058 0
M  V30 2622 H 234.437 0.198017 0.720277 0
M  V30 2623 H 237.099 1.16126 1.56527 0
M  V30 2624 H 236.195 0.736684 3.03281 0
M  V30 2625 N 236.496 -1.42363 0.676048 0
M  V30 2626 C 237.726 -2.05561 0.206967 0
M  V30 2627 C 238.134 -1.50887 -1.14148 0
M  V30 2628 O 237.477 -0.643933 -1.72044 0
M  V30 2629 C 237.539 -3.5944 0.0659508 0
M  V30 2630 C 237.203 -4.36812 1.34331 0
M  V30 2631 C 238.2 -4.67383 2.27704 0
M  V30 2632 C 235.885 -4.76429 1.59125 0
M  V30 2633 C 237.879 -5.36509 3.44147 0
M  V30 2634 C 235.566 -5.45294 2.75857 0
M  V30 2635 C 236.564 -5.75259 3.68193 0
M  V30 2636 O 236.252 -6.42712 4.82883 0
M  V30 2637 H 235.984 -0.668872 0.0979084 0
M  V30 2638 H 238.538 -1.83467 0.923531 0
M  V30 2639 H 236.768 -3.80197 -0.706204 0
M  V30 2640 H 238.457 -4.0427 -0.363418 0
M  V30 2641 H 239.223 -4.37275 2.09799 0
M  V30 2642 H 235.102 -4.52498 0.881258 0
M  V30 2643 H 238.646 -5.59814 4.16238 0
M  V30 2644 H 234.543 -5.7482 2.93688 0
M  V30 2645 H 235.311 -6.61204 4.82444 0
M  V30 2646 N 237.974 -0.419461 -1.51915 0
M  V30 2647 C 238.921 0.400927 -2.27291 0
M  V30 2648 C 239.891 1.03224 -1.30131 0
M  V30 2649 O 241.076 1.05455 -1.59009 0
M  V30 2650 C 238.216 1.50603 -3.10504 0
M  V30 2651 C 237.329 0.89462 -4.22635 0
M  V30 2652 C 236.464 1.97328 -4.93189 0
M  V30 2653 C 235.503 1.33935 -5.97267 0
M  V30 2654 N 234.64 2.3586 -6.61298 0
M  V30 2655 H 239.48 -0.248251 -2.96964 0
M  V30 2656 H 237.017 -0.134266 -1.46486 0
M  V30 2657 H 238.975 2.15783 -3.57062 0
M  V30 2658 H 237.605 2.12509 -2.42981 0
M  V30 2659 H 236.657 0.131583 -3.80172 0
M  V30 2660 H 237.969 0.391641 -4.9726 0
M  V30 2661 H 237.123 2.70211 -5.43204 0
M  V30 2662 H 235.862 2.50994 -4.18155 0
M  V30 2663 H 234.867 0.595896 -5.46561 0
M  V30 2664 H 236.092 0.810252 -6.74249 0
M  V30 2665 H 234.038 2.88639 -5.89087 0
M  V30 2666 H 233.955 1.90403 -7.3163 0
M  V30 2667 H 235.223 3.08282 -7.15949 0
M  V30 2668 N 239.452 1.56882 -0.150215 0
M  V30 2669 C 240.868 1.58263 0.20617 0
M  V30 2670 C 241.068 1.16464 1.64434 0
M  V30 2671 O 240.124 0.866422 2.3717 0
M  V30 2672 C 241.437 3.00649 -0.0555025 0
M  V30 2673 C 242.985 3.12999 0.00795388 0
M  V30 2674 C 243.46 4.5744 -0.226429 0
M  V30 2675 N 244.951 4.62875 -0.173469 0
M  V30 2676 C 245.686 5.72454 -0.329288 0
M  V30 2677 N 245.182 6.90669 -0.543005 0
M  V30 2678 N 246.975 5.61467 -0.266666 0
M  V30 2679 H 239.126 1.82345 -1.08922 0
M  V30 2680 H 241.389 0.844149 -0.431413 0
M  V30 2681 H 241.095 3.3563 -1.05096 0
M  V30 2682 H 240.969 3.71337 0.66246 0
M  V30 2683 H 243.356 2.77857 0.993966 0
M  V30 2684 H 243.437 2.4479 -0.742388 0
M  V30 2685 H 243.081 4.93287 -1.20956 0
M  V30 2686 H 243.011 5.2378 0.544274 0
M  V30 2687 H 245.502 3.77898 -0.0130709 0
M  V30 2688 H 245.815 7.70045 -0.651922 0
M  V30 2689 H 244.16 6.92581 -0.579366 0
M  V30 2690 H 247.351 4.67992 -0.100441 0
M  V30 2691 H 247.524 6.46816 -0.391535 0
M  V30 2692 N 240.93 -0.123565 1.57115 0
M  V30 2693 C 242.346 -0.476961 1.52306 0
M  V30 2694 C 242.546 -1.82109 0.86248 0
M  V30 2695 O 241.602 -2.48586 0.442884 0
M  V30 2696 C 242.915 -0.465661 2.97073 0
M  V30 2697 C 244.463 -0.549534 3.08138 0
M  V30 2698 C 244.938 -0.568669 4.54456 0
M  V30 2699 N 246.429 -0.630237 4.58892 0
M  V30 2700 C 247.164 -0.666415 5.69514 0
M  V30 2701 N 246.66 -0.660514 6.89644 0
M  V30 2702 N 248.453 -0.709077 5.5761 0
M  V30 2703 H 240.604 0.757198 1.98445 0
M  V30 2704 H 242.867 0.278808 0.906074 0
M  V30 2705 H 242.573 0.454232 3.48754 0
M  V30 2706 H 242.447 -1.29513 3.54269 0
M  V30 2707 H 244.834 -1.45985 2.56461 0
M  V30 2708 H 244.915 0.307532 2.53945 0
M  V30 2709 H 244.559 0.337581 5.06777 0
M  V30 2710 H 244.489 -1.44256 5.06456 0
M  V30 2711 H 246.98 -0.641146 3.72421 0
M  V30 2712 H 247.293 -0.690616 7.69708 0
M  V30 2713 H 245.638 -0.628012 6.92157 0
M  V30 2714 H 248.829 -0.711019 4.62668 0
M  V30 2715 H 249.002 -0.733804 6.43832 0
M  V30 2716 N 242.408 -1.52605 -0.393616 0
M  V30 2717 C 243.638 -1.71046 -1.15874 0
M  V30 2718 C 244.046 -0.426483 -1.84331 0
M  V30 2719 O 243.389 0.608513 -1.73329 0
M  V30 2720 C 243.451 -2.80118 -2.25332 0
M  V30 2721 C 243.115 -4.21381 -1.76881 0
M  V30 2722 C 244.112 -5.04697 -1.24808 0
M  V30 2723 C 241.797 -4.67683 -1.83244 0
M  V30 2724 C 243.791 -6.32393 -0.797387 0
M  V30 2725 C 241.478 -5.95364 -1.37787 0
M  V30 2726 C 242.476 -6.77549 -0.861208 0
M  V30 2727 O 242.164 -8.02837 -0.413252 0
M  V30 2728 H 241.896 -0.576155 -0.353583 0
M  V30 2729 H 244.45 -2.00018 -0.467123 0
M  V30 2730 H 242.68 -2.46557 -2.97904 0
M  V30 2731 H 244.369 -2.87006 -2.87023 0
M  V30 2732 H 245.135 -4.70111 -1.19252 0
M  V30 2733 H 241.014 -4.03805 -2.22401 0
M  V30 2734 H 244.558 -6.9649 -0.393437 0
M  V30 2735 H 240.455 -6.29455 -1.43026 0
M  V30 2736 H 241.223 -8.16749 -0.53515 0
M  V30 2737 N 243.887 0.651787 -1.4349 0
M  V30 2738 C 245.117 1.43728 -1.48411 0
M  V30 2739 C 245.525 1.8893 -0.10103 0
M  V30 2740 O 244.868 1.60182 0.899307 0
M  V30 2741 C 244.93 2.70411 -2.36893 0
M  V30 2742 C 244.594 2.4714 -3.8441 0
M  V30 2743 C 245.591 2.10271 -4.75481 0
M  V30 2744 C 243.276 2.6142 -4.28912 0
M  V30 2745 C 245.27 1.87982 -6.0905 0
M  V30 2746 C 242.957 2.38746 -5.62533 0
M  V30 2747 C 243.955 2.02083 -6.5242 0
M  V30 2748 O 243.643 1.79647 -7.8357 0
M  V30 2749 H 243.375 0.447962 -0.506267 0
M  V30 2750 H 245.929 0.80624 -1.88915 0
M  V30 2751 H 244.159 3.36079 -1.91278 0
M  V30 2752 H 245.848 3.32364 -2.33 0
M  V30 2753 H 246.614 1.98814 -4.42378 0
M  V30 2754 H 242.493 2.88931 -3.59222 0
M  V30 2755 H 246.037 1.5929 -6.7917 0
M  V30 2756 H 241.934 2.49806 -5.95203 0
M  V30 2757 H 242.702 1.9406 -7.95162 0
M  V30 2758 N 245.365 1.30045 0.890287 0
M  V30 2759 C 246.776 1.16738 1.45702 0
M  V30 2760 C 247.127 -0.233939 1.948 0
M  V30 2761 O 246.252 -1.13021 1.84541 0
M  V30 2762 C 246.847 2.11313 2.64825 0
M  V30 2763 C 245.406 2.02001 3.17604 0
M  V30 2764 C 244.553 2.01699 1.90296 0
M  V30 2765 H 247.504 1.42392 0.700726 0
M  V30 2766 H 247.525 1.69086 3.40867 0
M  V30 2767 H 247.037 3.13294 2.2906 0
M  V30 2768 H 245.138 1.03142 3.5804 0
M  V30 2769 H 245.251 2.90128 3.81264 0
M  V30 2770 H 243.615 1.46427 2.08402 0
M  V30 2771 H 244.398 3.05402 1.56795 0
M  V30 2772 N 246.843 -1.10192 1.12674 0
M  V30 2773 C 248.073 -1.85713 0.905213 0
M  V30 2774 C 248.481 -1.81056 -0.549108 0
M  V30 2775 O 247.824 -1.19927 -1.39151 0
M  V30 2776 C 247.886 -3.34972 1.30516 0
M  V30 2777 C 247.55 -3.63385 2.77129 0
M  V30 2778 C 248.547 -3.59772 3.75313 0
M  V30 2779 C 246.232 -3.91981 3.14096 0
M  V30 2780 C 248.226 -3.84354 5.08479 0
M  V30 2781 C 245.913 -4.16218 4.47443 0
M  V30 2782 C 246.911 -4.12395 5.44444 0
M  V30 2783 O 246.599 -4.36014 6.75387 0
M  V30 2784 H 246.331 -0.593719 0.323223 0
M  V30 2785 H 248.885 -1.40198 1.50112 0
M  V30 2786 H 247.115 -3.81156 0.652463 0
M  V30 2787 H 248.804 -3.91886 1.05736 0
M  V30 2788 H 249.57 -3.37716 3.48099 0
M  V30 2789 H 245.449 -3.94085 2.39202 0
M  V30 2790 H 248.993 -3.81285 5.84181 0
M  V30 2791 H 244.89 -4.37754 4.74386 0
M  V30 2792 H 245.658 -4.53516 6.8137 0
M  V30 2793 N 248.321 -0.919034 -1.28029 0
M  V30 2794 C 249.569 -0.553838 -1.94363 0
M  V30 2795 C 249.89 0.906357 -1.72656 0
M  V30 2796 O 249.16 1.64143 -1.0693 0
M  V30 2797 H 247.74 -0.201834 -0.719216 0
M  V30 2798 H 250.402 -1.16954 -1.55909 0
M  V30 2799 H 249.498 -0.752758 -3.02886 0
M  V30 2800 N 249.799 1.42003 -0.683588 0
M  V30 2801 C 251.024 2.06265 -0.216647 0
M  V30 2802 C 251.449 1.51059 1.12083 0
M  V30 2803 O 250.807 0.632638 1.69904 0
M  V30 2804 C 250.855 3.60191 -0.171759 0
M  V30 2805 O 249.959 4.03396 0.857069 0
M  V30 2806 H 249.3 0.65502 -0.108834 0
M  V30 2807 H 251.83 1.81982 -0.935077 0
M  V30 2808 H 251.84 4.08 0.0014303 0
M  V30 2809 H 250.515 3.99743 -1.14796 0
M  V30 2810 H 249.092 3.67117 0.654208 0
M  V30 2811 N 251.277 0.427512 1.51691 0
M  V30 2812 C 252.24 -0.377132 2.26076 0
M  V30 2813 C 253.24 -0.958089 1.29141 0
M  V30 2814 O 254.43 -0.83408 1.52934 0
M  V30 2815 C 251.562 -1.53262 3.04506 0
M  V30 2816 H 252.755 0.27464 2.9864 0
M  V30 2817 H 250.308 0.180445 1.55255 0
M  V30 2818 H 251.043 -2.22072 2.36335 0
M  V30 2819 H 250.828 -1.12232 3.75694 0
M  V30 2820 H 252.318 -2.10135 3.60878 0
M  V30 2821 N 252.755 -1.56801 0.158532 0
M  V30 2822 C 253.685 -2.20347 -0.772609 0
M  V30 2823 C 254.666 -1.15518 -1.24859 0
M  V30 2824 O 255.851 -1.43902 -1.30406 0
M  V30 2825 C 252.981 -2.83417 -2.00729 0
M  V30 2826 C 251.935 -3.94174 -1.66765 0
M  V30 2827 C 251.261 -4.44233 -2.97592 0
M  V30 2828 C 252.561 -5.14392 -0.905447 0
M  V30 2829 H 254.255 -2.98413 -0.242959 0
M  V30 2830 H 251.801 -1.43537 -0.115419 0
M  V30 2831 H 253.754 -3.26543 -2.6636 0
M  V30 2832 H 252.478 -2.02701 -2.56086 0
M  V30 2833 H 251.137 -3.51684 -1.03508 0
M  V30 2834 H 250.785 -3.60325 -3.50963 0
M  V30 2835 H 250.485 -5.18945 -2.75626 0
M  V30 2836 H 252.009 -4.90037 -3.64274 0
M  V30 2837 H 253.423 -5.5429 -1.46408 0
M  V30 2838 H 251.82 -5.9494 -0.7853 0
M  V30 2839 H 252.89 -4.84795 0.100668 0
M  V30 2840 N 254.233 0.115231 -1.57178 0
M  V30 2841 C 255.461 0.836437 -1.89239 0
M  V30 2842 C 255.876 1.73256 -0.750175 0
M  V30 2843 O 255.233 1.80357 0.278832 0
M  V30 2844 C 255.284 1.66671 -3.20785 0
M  V30 2845 O 255.005 0.806652 -4.3061 0
M  V30 2846 C 256.506 2.49274 -3.66575 0
M  V30 2847 H 253.726 0.240253 -0.626514 0
M  V30 2848 H 256.27 0.0984932 -2.04263 0
M  V30 2849 H 254.425 2.35737 -3.0742 0
M  V30 2850 H 254.839 1.37969 -5.06028 0
M  V30 2851 H 256.313 3.03055 -4.6137 0
M  V30 2852 H 256.79 3.26807 -2.93417 0
M  V30 2853 H 257.396 1.85443 -3.82741 0
M  V30 2854 N 255.711 1.52812 0.385517 0
M  V30 2855 C 256.661 1.74219 1.47078 0
M  V30 2856 C 257.645 0.59632 1.49442 0
M  V30 2857 O 258.837 0.85428 1.5502 0
M  V30 2858 C 255.966 1.9176 2.84751 0
M  V30 2859 C 255.052 3.12289 2.86943 0
M  V30 2860 N 255.443 4.34575 2.58802 0
M  V30 2861 C 253.741 3.12605 3.1811 0
M  V30 2862 C 254.442 5.162 2.68166 0
M  V30 2863 N 253.418 4.51964 3.02043 0
M  V30 2864 H 257.22 2.6639 1.24152 0
M  V30 2865 H 254.734 1.51166 0.593504 0
M  V30 2866 H 256.731 2.05218 3.62893 0
M  V30 2867 H 255.391 1.00805 3.08656 0
M  V30 2868 H 256.402 4.62649 2.32759 0
M  V30 2869 H 253.079 2.31472 3.47458 0
M  V30 2870 H 254.469 6.23689 2.49923 0
M  V30 2871 N 257.189 -0.644168 1.43834 0
M  V30 2872 C 258.435 -1.40603 1.46146 0
M  V30 2873 C 258.768 -1.93997 0.0887717 0
M  V30 2874 O 258.043 -1.72854 -0.891724 0
M  V30 2875 C 258.326 -2.58086 2.51124 0
M  V30 2876 C 258.179 -2.10126 3.97702 0
M  V30 2877 C 259.498 -3.60291 2.52742 0
M  V30 2878 H 256.617 -0.509905 0.532134 0
M  V30 2879 H 259.259 -0.729502 1.75437 0
M  V30 2880 H 257.409 -3.15801 2.26278 0
M  V30 2881 H 259.081 -1.57342 4.33637 0
M  V30 2882 H 257.324 -1.41419 4.10101 0
M  V30 2883 H 257.995 -2.94649 4.66783 0
M  V30 2884 H 260.471 -3.12352 2.7491 0
M  V30 2885 H 259.347 -4.40032 3.28121 0
M  V30 2886 H 259.608 -4.1349 1.56455 0
M  V30 2887 N 258.668 -1.30515 -0.883378 0
M  V30 2888 C 259.917 -1.18795 -1.63005 0
M  V30 2889 C 260.23 0.255923 -1.93919 0
M  V30 2890 O 261.436 0.494654 -2.66956 0
M  V30 2891 C 259.892 -2.07878 -2.93794 0
M  V30 2892 C 259.5 -3.57184 -2.70414 0
M  V30 2893 C 261.244 -2.04924 -3.71761 0
M  V30 2894 C 259.151 -4.38317 -3.97029 0
M  V30 2895 H 258.081 -0.441031 -0.611562 0
M  V30 2896 H 260.732 -1.55275 -0.977854 0
M  V30 2897 H 259.114 -1.64283 -3.60315 0
M  V30 2898 H 260.288 -4.08937 -2.12384 0
M  V30 2899 H 258.603 -3.61976 -2.0582 0
M  V30 2900 H 261.2 -2.62792 -4.65665 0
M  V30 2901 H 261.543 -1.0331 -4.03277 0
M  V30 2902 H 262.076 -2.46649 -3.12104 0
M  V30 2903 H 258.815 -5.40632 -3.70671 0
M  V30 2904 H 258.335 -3.91326 -4.54559 0
M  V30 2905 H 260.014 -4.49834 -4.65036 0
M  V30 2906 N 260.146 1.09593 -1.13257 0
M  V30 2907 C 261.394 1.81375 -0.891492 0
M  V30 2908 C 261.715 1.86049 0.584009 0
M  V30 2909 O 260.985 1.34481 1.42449 0
M  V30 2910 H 259.565 0.671708 -0.326828 0
M  V30 2911 H 262.227 1.3256 -1.42877 0
M  V30 2912 H 261.323 2.84612 -1.28071 0
M  V30 2913 N 261.624 0.925811 1.2754 0
M  V30 2914 C 262.854 0.580666 1.98272 0
M  V30 2915 C 263.262 -0.845207 1.69272 0
M  V30 2916 O 262.605 -1.57306 0.948707 0
M  V30 2917 C 262.667 0.724418 3.52126 0
M  V30 2918 C 262.331 2.12206 4.04744 0
M  V30 2919 C 263.328 3.09604 4.17662 0
M  V30 2920 C 261.013 2.4385 4.39138 0
M  V30 2921 C 263.007 4.36755 4.64246 0
M  V30 2922 C 260.694 3.71237 4.85414 0
M  V30 2923 C 261.692 4.67503 4.97926 0
M  V30 2924 O 261.38 5.92624 5.43187 0
M  V30 2925 H 261.112 0.218987 0.639547 0
M  V30 2926 H 263.666 1.24452 1.63404 0
M  V30 2927 H 261.896 0.0034663 3.867 0
M  V30 2928 H 263.585 0.384607 4.04074 0
M  V30 2929 H 264.351 2.86478 3.91351 0
M  V30 2930 H 260.23 1.69665 4.28643 0
M  V30 2931 H 263.774 5.11898 4.73927 0
M  V30 2932 H 259.671 3.94182 5.11166 0
M  V30 2933 H 260.439 5.95585 5.61445 0
M  V30 2934 N 263.102 -1.41638 0.69111 0
M  V30 2935 C 264.348 -2.01598 0.220519 0
M  V30 2936 C 264.681 -1.54594 -1.17535 0
M  V30 2937 O 263.956 -0.755177 -1.79241 0
M  V30 2938 C 264.239 -3.59062 0.273243 0
M  V30 2939 C 264.092 -4.16203 1.70573 0
M  V30 2940 C 265.411 -4.38546 -0.369457 0
M  V30 2941 H 262.53 -0.732468 0.0816045 0
M  V30 2942 H 265.172 -1.68445 0.878986 0
M  V30 2943 H 263.322 -3.87435 -0.287411 0
M  V30 2944 H 264.994 -3.98722 2.31989 0
M  V30 2945 H 263.237 -3.71414 2.2413 0
M  V30 2946 H 263.908 -5.25358 1.69419 0
M  V30 2947 H 266.384 -4.1596 0.107977 0
M  V30 2948 H 265.26 -5.48069 -0.302002 0
M  V30 2949 H 265.521 -4.17662 -1.44951 0
M  V30 2950 N 264.58 -0.43555 -1.51462 0
M  V30 2951 C 265.805 0.132627 -2.06976 0
M  V30 2952 C 266.23 1.35848 -1.30104 0
M  V30 2953 O 265.588 1.78112 -0.338493 0
M  V30 2954 C 265.636 0.43523 -3.57964 0
M  V30 2955 O 264.74 1.52198 -3.83288 0
M  V30 2956 H 264.081 0.00265 -0.663995 0
M  V30 2957 H 266.611 -0.616369 -1.95095 0
M  V30 2958 H 266.621 0.686206 -4.02188 0
M  V30 2959 H 265.296 -0.460739 -4.1334 0
M  V30 2960 H 263.873 1.2611 -3.50928 0
M  V30 2961 N 266.058 1.56714 -0.166846 0
M  V30 2962 C 267.005 2.17746 0.765193 0
M  V30 2963 C 267.975 1.11614 1.23011 0
M  V30 2964 O 269.16 1.39745 1.29908 0
M  V30 2965 C 266.3 2.81882 1.9909 0
M  V30 2966 C 265.413 4.02462 1.56997 0
M  V30 2967 C 264.548 4.54537 2.749 0
M  V30 2968 C 263.587 5.67538 2.29275 0
M  V30 2969 N 262.724 6.14142 3.40255 0
M  V30 2970 H 267.564 2.97048 0.237952 0
M  V30 2971 H 265.101 1.4672 0.105725 0
M  V30 2972 H 267.059 3.17221 2.70974 0
M  V30 2973 H 265.689 2.05191 2.49192 0
M  V30 2974 H 264.741 3.72973 0.748037 0
M  V30 2975 H 266.053 4.84273 1.19503 0
M  V30 2976 H 265.207 4.92035 3.54946 0
M  V30 2977 H 263.946 3.71774 3.1565 0
M  V30 2978 H 262.951 5.29597 1.47674 0
M  V30 2979 H 264.176 6.52099 1.89588 0
M  V30 2980 H 262.122 5.3431 3.8059 0
M  V30 2981 H 262.039 6.9093 3.06841 0
M  V30 2982 H 263.307 6.56289 4.206 0
M  V30 2983 N 267.536 -0.106894 1.57237 0
M  V30 2984 C 268.785 -0.811163 1.8467 0
M  V30 2985 C 269.098 -1.80469 0.754342 0
M  V30 2986 O 270.304 -2.55601 0.915439 0
M  V30 2987 C 268.76 -1.49337 3.27454 0
M  V30 2988 C 268.368 -0.540217 4.44731 0
M  V30 2989 C 270.112 -2.18206 3.64124 0
M  V30 2990 C 268.019 -1.22634 5.78545 0
M  V30 2991 H 266.949 -0.306679 0.688813 0
M  V30 2992 H 269.6 -0.0639887 1.83388 0
M  V30 2993 H 267.982 -2.2876 3.23241 0
M  V30 2994 H 269.156 0.221659 4.60267 0
M  V30 2995 H 267.471 0.042146 4.16379 0
M  V30 2996 H 270.068 -2.70253 4.61376 0
M  V30 2997 H 270.411 -2.96562 2.92158 0
M  V30 2998 H 270.944 -1.45658 3.70174 0
M  V30 2999 H 267.683 -0.483832 6.53712 0
M  V30 3000 H 267.203 -1.95993 5.66874 0
M  V30 3001 H 268.882 -1.75615 6.2271 0
M  V30 3002 N 269.014 -1.53014 -0.377408 0
M  V30 3003 C 269.962 -1.7927 -1.48206 0
M  V30 3004 C 270.956 -0.661195 -1.55963 0
M  V30 3005 O 272.162 -0.843908 -1.58991 0
M  V30 3006 H 268.537 -0.567425 -0.493491 0
M  V30 3007 H 270.508 -2.71753 -1.2326 0
M  V30 3008 C 269.257 -1.98894 -2.85196 0
M  V30 3009 H 268.58 -2.85395 -2.79981 0
M  V30 3010 H 270.02 -2.21249 -3.61698 0
M  V30 3011 C 268.479 -0.764691 -3.28107 0
M  V30 3012 O 269.009 0.0523226 -4.01666 0
M  V30 3013 N 267.215 -0.591493 -2.84517 0
M  V30 3014 H 266.762 -1.25749 -2.24822 0
M  V30 3015 H 266.72 0.226253 -3.13585 0
M  V30 3016 N 270.492 0.636531 -1.44174 0
M  V30 3017 C 271.769 1.39463 -1.37148 0
M  V30 3018 C 272.149 2.11082 -0.027507 0
M  V30 3019 O 271.497 2.05954 0.989716 0
M  V30 3020 C 271.707 2.36552 -2.56601 0
M  V30 3021 C 273.055 3.00048 -3.00427 0
M  V30 3022 O 274.079 2.46878 -2.56767 0
M  V30 3023 O 272.938 3.96488 -3.76111 0
M  V30 3024 H 270.032 0.623903 -0.542839 0
M  V30 3025 H 272.578 0.662039 -1.56253 0
M  V30 3026 H 271.35 1.82692 -3.46034 0
M  V30 3027 H 270.973 3.17236 -2.39681 0
M  V30 3028 N 271.97 1.30982 0.876444 0
M  V30 3029 C 272.917 1.18085 1.98304 0
M  V30 3030 C 273.887 0.0682263 1.6596 0
M  V30 3031 O 275.072 0.239937 1.89285 0
M  V30 3032 C 272.212 0.887475 3.33493 0
M  V30 3033 C 271.325 2.08281 3.78475 0
M  V30 3034 C 270.46 1.72678 5.0235 0
M  V30 3035 C 269.499 2.88657 5.39762 0
M  V30 3036 N 268.636 2.53292 6.54819 0
M  V30 3037 H 273.476 2.1275 2.08666 0
M  V30 3038 H 271.013 1.05839 1.02159 0
M  V30 3039 H 272.971 0.697961 4.1132 0
M  V30 3040 H 271.601 -0.022315 3.22792 0
M  V30 3041 H 270.653 2.3833 2.96484 0
M  V30 3042 H 271.965 2.95108 4.02135 0
M  V30 3043 H 271.119 1.50151 5.87826 0
M  V30 3044 H 269.858 0.830327 4.8058 0
M  V30 3045 H 268.863 3.1184 4.52809 0
M  V30 3046 H 270.088 3.79002 5.63502 0
M  V30 3047 H 268.034 1.66163 6.34607 0
M  V30 3048 H 267.951 3.3365 6.7839 0
M  V30 3049 H 269.219 2.34143 7.43503 0
M  V30 3050 N 273.449 -1.08991 1.13837 0
M  V30 3051 C 274.726 -1.77863 0.813876 0
M  V30 3052 C 275.106 -1.99375 -0.693746 0
M  V30 3053 O 274.454 -1.59875 -1.63255 0
M  V30 3054 C 274.664 -3.0986 1.60586 0
M  V30 3055 C 276.012 -3.84493 1.8014 0
M  V30 3056 O 277.036 -3.19624 1.57222 0
M  V30 3057 O 275.895 -5.00957 2.18413 0
M  V30 3058 H 272.989 -0.771589 0.297624 0
M  V30 3059 H 275.535 -1.15507 1.24323 0
M  V30 3060 H 274.307 -2.89715 2.63022 0
M  V30 3061 H 273.93 -3.79942 1.17173 0
M  V30 3062 N 274.927 -0.932562 -1.27047 0
M  V30 3063 C 276.173 -0.576412 -1.94436 0
M  V30 3064 C 276.506 0.880891 -1.73072 0
M  V30 3065 O 275.781 1.62905 -1.06264 0
M  V30 3066 C 276.064 -0.909031 -3.48437 0
M  V30 3067 C 275.917 -2.42044 -3.79123 0
M  V30 3068 C 277.236 -0.418341 -4.38107 0
M  V30 3069 H 274.355 -0.210888 -0.706184 0
M  V30 3070 H 276.997 -1.16522 -1.50075 0
M  V30 3071 H 275.147 -0.407947 -3.86352 0
M  V30 3072 H 276.819 -2.99359 -3.50973 0
M  V30 3073 H 275.062 -2.86758 -3.25503 0
M  V30 3074 H 275.733 -2.6037 -4.86736 0
M  V30 3075 H 278.209 -0.847856 -4.0737 0
M  V30 3076 H 277.085 -0.679981 -5.44672 0
M  V30 3077 H 277.346 0.681642 -4.36814 0
M  V30 3078 N 276.405 1.4127 -0.698611 0
M  V30 3079 C 277.315 2.34573 -0.0357891 0
M  V30 3080 C 278.331 1.56393 0.762701 0
M  V30 3081 O 279.507 1.8886 0.699564 0
M  V30 3082 C 276.572 3.35159 0.887089 0
M  V30 3083 C 275.633 4.29225 0.0804634 0
M  V30 3084 C 274.866 5.25006 0.959387 0
M  V30 3085 O 275.089 5.26314 2.19886 0
M  V30 3086 O 274.023 6.00519 0.407439 0
M  V30 3087 H 277.849 2.92838 -0.804957 0
M  V30 3088 H 275.434 1.42175 -0.458966 0
M  V30 3089 H 277.316 3.9689 1.41621 0
M  V30 3090 H 275.991 2.79333 1.6357 0
M  V30 3091 H 274.898 3.70833 -0.493328 0
M  V30 3092 H 276.231 4.88157 -0.629547 0
M  V30 3093 N 277.883 0.443576 1.51229 0
M  V30 3094 C 279.299 0.0962001 1.5931 0
M  V30 3095 C 279.499 -1.39501 1.45402 0
M  V30 3096 O 278.555 -2.16557 1.29843 0
M  V30 3097 C 279.868 0.621875 2.94199 0
M  V30 3098 C 281.416 0.582865 3.07525 0
M  V30 3099 C 281.891 1.08562 4.44948 0
M  V30 3100 N 283.382 1.04387 4.51284 0
M  V30 3101 C 284.117 1.40368 5.55954 0
M  V30 3102 N 283.613 1.83664 6.68011 0
M  V30 3103 N 285.406 1.32145 5.46346 0
M  V30 3104 H 277.557 1.41376 1.58514 0
M  V30 3105 H 279.82 0.582965 0.747567 0
M  V30 3106 H 279.526 1.66546 3.09767 0
M  V30 3107 H 279.4 0.0502125 3.77167 0
M  V30 3108 H 281.787 -0.451749 2.91622 0
M  V30 3109 H 281.868 1.191 2.26382 0
M  V30 3110 H 281.512 2.11873 4.61598 0
M  V30 3111 H 281.442 0.453956 5.2464 0
M  V30 3112 H 283.933 0.725986 3.70861 0
M  V30 3113 H 284.246 2.0934 7.43906 0
M  V30 3114 H 282.591 1.87596 6.69203 0
M  V30 3115 H 285.782 0.981808 4.57688 0
M  V30 3116 H 285.955 1.60514 6.27805 0
M  V30 3117 N 279.361 -1.56624 0.175154 0
M  V30 3118 C 280.291 -2.21155 -0.749195 0
M  V30 3119 C 281.272 -1.16836 -1.23626 0
M  V30 3120 O 282.457 -1.45277 -1.28873 0
M  V30 3121 C 279.587 -2.8553 -1.97711 0
M  V30 3122 C 278.541 -3.95921 -1.62575 0
M  V30 3123 C 277.867 -4.47365 -2.92864 0
M  V30 3124 C 279.167 -5.15323 -0.850838 0
M  V30 3125 H 280.861 -2.98653 -0.211295 0
M  V30 3126 H 278.407 -1.43651 -0.100188 0
M  V30 3127 H 280.36 -3.2935 -2.62881 0
M  V30 3128 H 279.084 -2.05406 -2.53921 0
M  V30 3129 H 277.743 -3.52762 -0.997719 0
M  V30 3130 H 277.391 -3.64027 -3.47122 0
M  V30 3131 H 277.091 -5.21839 -2.70106 0
M  V30 3132 H 278.615 -4.93873 -3.59056 0
M  V30 3133 H 280.029 -5.55812 -1.40521 0
M  V30 3134 H 278.426 -5.95739 -0.722154 0
M  V30 3135 H 279.496 -4.84661 0.152082 0
M  V30 3136 N 280.839 0.0985539 -1.57292 0
M  V30 3137 C 281.787 1.1387 -2.02821 0
M  V30 3138 C 282.781 1.41676 -0.928666 0
M  V30 3139 O 283.987 1.41398 -1.11385 0
M  V30 3140 H 280.362 0.384419 -0.646317 0
M  V30 3141 H 282.333 0.728347 -2.89375 0
M  V30 3142 C 281.082 2.45166 -2.46554 0
M  V30 3143 H 280.405 2.24613 -3.3074 0
M  V30 3144 H 281.845 3.16456 -2.8219 0
M  V30 3145 C 280.304 3.09216 -1.33742 0
M  V30 3146 O 280.834 3.96163 -0.66464 0
M  V30 3147 N 279.04 2.69413 -1.08928 0
M  V30 3148 H 278.587 1.98801 -1.63817 0
M  V30 3149 H 278.545 3.12594 -0.336458 0
M  V30 3150 N 282.317 1.53212 0.369288 0
M  V30 3151 C 283.265 1.80054 1.47253 0
M  V30 3152 C 284.259 0.669456 1.55611 0
M  V30 3153 O 285.465 0.852328 1.58541 0
M  V30 3154 H 281.84 0.570034 0.490475 0
M  V30 3155 H 283.811 2.72403 1.21817 0
M  V30 3156 C 282.56 2.00403 2.84137 0
M  V30 3157 H 281.883 2.86876 2.78464 0
M  V30 3158 H 283.323 2.23164 3.60519 0
M  V30 3159 C 281.782 0.782081 3.27697 0
M  V30 3160 O 282.312 -0.0310205 4.01688 0
M  V30 3161 N 280.518 0.606573 2.84199 0
M  V30 3162 H 280.065 1.26939 2.24152 0
M  V30 3163 H 280.023 -0.20962 3.137 0
M  V30 3164 N 283.795 -0.628877 1.44509 0
M  V30 3165 C 285.072 -1.38733 1.37886 0
M  V30 3166 C 285.452 -2.11065 0.0387008 0
M  V30 3167 O 284.8 -2.06476 -0.97878 0
M  V30 3168 C 285.01 -2.35188 2.57852 0
M  V30 3169 C 286.358 -2.9845 3.02014 0
M  V30 3170 O 287.382 -2.45513 2.58073 0
M  V30 3171 O 286.241 -3.94487 3.78209 0
M  V30 3172 H 283.335 -0.621015 0.54614 0
M  V30 3173 H 285.881 -0.653744 1.56602 0
M  V30 3174 H 284.653 -1.80855 3.46998 0
M  V30 3175 H 284.276 -3.1596 2.4136 0
M  V30 3176 N 285.273 -1.31445 -0.869486 0
M  V30 3177 C 286.521 -1.20918 -1.61936 0
M  V30 3178 C 286.842 0.232683 -1.93607 0
M  V30 3179 O 286.112 1.15352 -1.58338 0
M  V30 3180 H 284.692 -0.44454 -0.600328 0
M  V30 3181 H 287.354 -1.64776 -1.0409 0
M  V30 3182 H 286.45 -1.78124 -2.56278 0
M  V30 3183 N 286.751 1.08385 -1.14413 0
M  V30 3184 C 287.698 2.15311 -0.831265 0
M  V30 3185 C 288.668 1.64751 0.211292 0
M  V30 3186 O 289.853 1.90627 0.0811674 0
M  V30 3187 C 286.993 3.43658 -0.315143 0
M  V30 3188 C 286.106 4.08064 -1.41802 0
M  V30 3189 C 285.241 5.24207 -0.859126 0
M  V30 3190 C 284.28 5.80554 -1.93967 0
M  V30 3191 N 283.417 6.88042 -1.39793 0
M  V30 3192 H 288.257 2.41415 -1.74708 0
M  V30 3193 H 285.794 1.18474 -0.871909 0
M  V30 3194 H 287.752 4.172 0.00230884 0
M  V30 3195 H 286.382 3.17839 0.56378 0
M  V30 3196 H 285.434 3.3228 -1.85187 0
M  V30 3197 H 286.746 4.45962 -2.23427 0
M  V30 3198 H 285.9 6.04689 -0.49359 0
M  V30 3199 H 284.639 4.87699 -0.011932 0
M  V30 3200 H 283.644 4.98725 -2.31415 0
M  V30 3201 H 284.869 6.19121 -2.79046 0
M  V30 3202 H 282.815 6.53493 -0.572919 0
M  V30 3203 H 282.732 7.24767 -2.15054 0
M  V30 3204 H 284 7.72255 -1.0603 0
M  V30 3205 N 288.23 0.939286 1.26551 0
M  V30 3206 C 289.16 0.465044 2.28822 0
M  V30 3207 C 290.141 -0.480692 1.63167 0
M  V30 3208 O 291.326 -0.382955 1.90387 0
M  V30 3209 C 288.456 -0.27234 3.46231 0
M  V30 3210 C 287.41 0.58666 4.2396 0
M  V30 3211 C 286.736 -0.280573 5.33963 0
M  V30 3212 C 288.036 1.85704 4.88171 0
M  V30 3213 H 289.73 1.31979 2.68741 0
M  V30 3214 H 287.276 0.636061 1.29191 0
M  V30 3215 H 289.229 -0.615133 4.16886 0
M  V30 3216 H 287.953 -1.16121 3.0526 0
M  V30 3217 H 286.612 0.91232 3.55067 0
M  V30 3218 H 286.26 -1.16874 4.89234 0
M  V30 3219 H 285.96 0.29076 5.8688 0
M  V30 3220 H 287.484 -0.618678 6.07458 0
M  V30 3221 H 288.898 1.58161 5.51052 0
M  V30 3222 H 287.295 2.37279 5.51197 0
M  V30 3223 H 288.365 2.56957 4.11219 0
M  V30 3224 N 289.708 -1.40897 0.706093 0
M  V30 3225 C 290.671 -2.29131 0.0562841 0
M  V30 3226 C 291.671 -1.44901 -0.697166 0
M  V30 3227 O 292.861 -1.65926 -0.530484 0
M  V30 3228 C 289.993 -3.27957 -0.93043 0
M  V30 3229 H 291.186 -2.88091 0.833284 0
M  V30 3230 H 288.739 -1.4906 0.470192 0
M  V30 3231 H 289.474 -2.73997 -1.73482 0
M  V30 3232 H 289.259 -3.90124 -0.393166 0
M  V30 3233 H 290.749 -3.94049 -1.38256 0
M  V30 3234 N 291.186 -0.45159 -1.50991 0
M  V30 3235 C 292.134 0.366864 -2.29689 0
M  V30 3236 C 293.128 1.00809 -1.36139 0
M  V30 3237 O 294.334 0.941427 -1.53418 0
M  V30 3238 H 290.709 0.137133 -0.739391 0
M  V30 3239 H 292.68 -0.317538 -2.96706 0
M  V30 3240 C 291.429 1.44751 -3.16137 0
M  V30 3241 H 290.752 0.963473 -3.88017 0
M  V30 3242 H 292.192 1.99315 -3.74232 0
M  V30 3243 C 290.651 2.43869 -2.32442 0
M  V30 3244 O 291.181 3.4872 -1.99392 0
M  V30 3245 N 289.387 2.15105 -1.95392 0
M  V30 3246 H 288.934 1.29866 -2.22469 0
M  V30 3247 H 288.892 2.81661 -1.39693 0
M  V30 3248 N 292.664 1.56529 -0.183458 0
M  V30 3249 C 293.894 2.01331 0.463612 0
M  V30 3250 C 294.302 1.06278 1.5653 0
M  V30 3251 O 293.645 0.0577976 1.83609 0
M  V30 3252 C 293.707 3.42547 1.09096 0
M  V30 3253 C 293.371 4.56817 0.129442 0
M  V30 3254 C 294.368 5.15734 -0.656807 0
M  V30 3255 C 292.053 5.02295 0.02174 0
M  V30 3256 C 294.047 6.1857 -1.53784 0
M  V30 3257 C 291.734 6.04978 -0.862864 0
M  V30 3258 C 292.732 6.62988 -1.64123 0
M  V30 3259 O 292.42 7.63677 -2.51103 0
M  V30 3260 H 292.152 0.664917 0.121907 0
M  V30 3261 H 294.706 2.034 -0.285954 0
M  V30 3262 H 292.936 3.37428 1.88889 0
M  V30 3263 H 294.625 3.71228 1.64148 0
M  V30 3264 H 295.391 4.81473 -0.583839 0
M  V30 3265 H 291.27 4.56847 0.617392 0
M  V30 3266 H 294.814 6.63777 -2.14583 0
M  V30 3267 H 290.711 6.38663 -0.93699 0
M  V30 3268 H 291.479 7.81049 -2.44753 0
M  V30 3269 N 294.142 -0.090211 1.57342 0
M  V30 3270 C 295.105 -1.09335 2.01441 0
M  V30 3271 C 296.105 -1.32666 0.908641 0
M  V30 3272 O 297.295 -1.28697 1.174 0
M  V30 3273 C 294.427 -2.44136 2.3793 0
M  V30 3274 H 295.62 -0.713662 2.91285 0
M  V30 3275 H 293.173 -0.335404 1.52659 0
M  V30 3276 H 293.908 -2.86972 1.51055 0
M  V30 3277 H 293.693 -2.28548 3.18603 0
M  V30 3278 H 295.183 -3.16277 2.72688 0
M  V30 3279 N 295.62 -1.53406 -0.361157 0
M  V30 3280 C 296.583 -1.79479 -1.42548 0
M  V30 3281 C 297.583 -0.665327 -1.4639 0
M  V30 3282 O 298.773 -0.933549 -1.47073 0
M  V30 3283 C 295.905 -1.92087 -2.8163 0
M  V30 3284 H 297.098 -2.74538 -1.20701 0
M  V30 3285 H 294.651 -1.4455 -0.594546 0
M  V30 3286 H 295.386 -0.991099 -3.08784 0
M  V30 3287 H 295.171 -2.74241 -2.80239 0
M  V30 3288 H 296.661 -2.13836 -3.58697 0
M  V30 3289 N 297.098 0.621204 -1.44841 0
M  V30 3290 C 298.326 1.40752 -1.51646 0
M  V30 3291 C 298.741 1.88246 -0.144549 0
M  V30 3292 O 298.098 1.61422 0.851416 0
M  V30 3293 C 298.149 2.62119 -2.4895 0
M  V30 3294 O 297.87 2.16602 -3.80808 0
M  V30 3295 C 299.371 3.55135 -2.65319 0
M  V30 3296 H 296.591 0.431325 -0.514004 0
M  V30 3297 H 299.135 0.758835 -1.899 0
M  V30 3298 H 297.29 3.23058 -2.13805 0
M  V30 3299 H 297.704 2.95358 -4.33433 0
M  V30 3300 H 299.178 4.36874 -3.37409 0
M  V30 3301 H 299.655 4.04592 -1.70886 0
M  V30 3302 H 300.261 3.00058 -3.01405 0
M  V30 3303 N 298.576 1.31904 0.862503 0
M  V30 3304 C 299.526 1.16772 1.95827 0
M  V30 3305 C 300.51 0.0767098 1.60717 0
M  V30 3306 O 301.702 0.302407 1.74398 0
M  V30 3307 C 298.831 0.884858 3.317 0
M  V30 3308 C 297.917 2.0172 3.73055 0
M  V30 3309 N 298.308 3.265 3.86305 0
M  V30 3310 C 296.606 1.91861 4.02623 0
M  V30 3311 C 297.307 4.00616 4.2176 0
M  V30 3312 N 296.283 3.28847 4.32852 0
M  V30 3313 H 300.085 2.11382 2.04193 0
M  V30 3314 H 297.599 1.2357 1.05377 0
M  V30 3315 H 299.596 0.757419 4.09962 0
M  V30 3316 H 298.256 -0.0529448 3.24657 0
M  V30 3317 H 299.267 3.61529 3.70833 0
M  V30 3318 H 295.944 1.05593 4.03926 0
M  V30 3319 H 297.334 5.08182 4.39546 0
M  V30 3320 N 300.054 -1.07777 1.14986 0
M  V30 3321 C 301.331 -1.7699 0.832695 0
M  V30 3322 C 301.711 -2.001 -0.672561 0
M  V30 3323 O 301.059 -1.61598 -1.6155 0
M  V30 3324 C 301.269 -3.08139 1.63863 0
M  V30 3325 C 302.617 -3.8256 1.84208 0
M  V30 3326 O 303.641 -3.17939 1.60603 0
M  V30 3327 O 302.5 -4.98612 2.23714 0
M  V30 3328 H 299.594 -0.768389 0.305791 0
M  V30 3329 H 302.14 -1.14182 1.25541 0
M  V30 3330 H 300.912 -2.86909 2.6608 0
M  V30 3331 H 300.535 -3.78678 1.21197 0
M  V30 3332 N 301.532 -0.945985 -1.26051 0
M  V30 3333 C 302.781 -0.591836 -1.92822 0
M  V30 3334 C 303.094 0.873956 -1.7499 0
M  V30 3335 O 304.3 1.33769 -2.36259 0
M  V30 3336 C 302.756 -1.00776 -3.45503 0
M  V30 3337 C 302.364 -2.4955 -3.7206 0
M  V30 3338 C 304.108 -0.725735 -4.1825 0
M  V30 3339 C 302.015 -2.84988 -5.18205 0
M  V30 3340 H 300.945 -0.217635 -0.721908 0
M  V30 3341 H 303.596 -1.14927 -1.43052 0
M  V30 3342 H 301.978 -0.378812 -3.94184 0
M  V30 3343 H 303.152 -3.1739 -3.34066 0
M  V30 3344 H 301.467 -2.75133 -3.12555 0
M  V30 3345 H 304.064 -0.966771 -5.25887 0
M  V30 3346 H 304.407 0.337639 -4.14929 0
M  V30 3347 H 304.94 -1.31463 -3.7545 0
M  V30 3348 H 301.679 -3.90307 -5.26631 0
M  V30 3349 H 301.199 -2.21813 -5.57278 0
M  V30 3350 H 302.878 -2.73712 -5.86252 0
M  V30 3351 N 303.011 1.40521 -0.713556 0
M  V30 3352 C 304.259 2.00527 -0.251692 0
M  V30 3353 C 304.58 1.56857 1.15848 0
M  V30 3354 O 303.85 0.807127 1.785 0
M  V30 3355 H 302.43 0.741551 -0.0900646 0
M  V30 3356 H 305.092 1.71887 -0.918733 0
M  V30 3357 H 304.188 3.10813 -0.283192 0
M  V30 3358 N 304.489 0.459591 1.5075 0
M  V30 3359 C 305.436 -0.340524 2.28274 0
M  V30 3360 C 306.406 -0.997371 1.32822 0
M  V30 3361 O 307.591 -1.01202 1.61749 0
M  V30 3362 C 304.731 -1.42317 3.14388 0
M  V30 3363 C 303.844 -0.782251 4.24859 0
M  V30 3364 C 302.979 -1.84182 4.98247 0
M  V30 3365 C 302.018 -1.18053 6.00608 0
M  V30 3366 N 301.155 -2.18244 6.67319 0
M  V30 3367 H 305.995 0.326899 2.96202 0
M  V30 3368 H 303.532 0.173057 1.46078 0
M  V30 3369 H 305.49 -2.06241 3.62658 0
M  V30 3370 H 304.12 -2.05992 2.4853 0
M  V30 3371 H 303.172 -0.0307404 3.80388 0
M  V30 3372 H 304.484 -0.259663 4.98124 0
M  V30 3373 H 303.638 -2.55714 5.50177 0
M  V30 3374 H 302.377 -2.39819 4.24662 0
M  V30 3375 H 301.382 -0.450776 5.47949 0
M  V30 3376 H 302.607 -0.631202 6.7616 0
M  V30 3377 H 300.553 -2.72919 5.96533 0
M  V30 3378 H 300.47 -1.70938 7.36421 0
M  V30 3379 H 301.738 -2.89191 7.23871 0
M  V30 3380 N 305.967 -1.56429 0.191757 0
M  V30 3381 C 306.897 -2.21937 -0.725696 0
M  V30 3382 C 307.878 -1.1814 -1.2238 0
M  V30 3383 O 309.063 -1.46636 -1.27325 0
M  V30 3384 C 306.193 -2.87611 -1.94672 0
M  V30 3385 C 305.147 -3.97623 -1.58366 0
M  V30 3386 C 304.473 -4.50446 -2.88102 0
M  V30 3387 C 305.773 -5.16197 -0.796133 0
M  V30 3388 H 307.467 -2.98861 -0.179606 0
M  V30 3389 H 305.013 -1.43749 -0.0849464 0
M  V30 3390 H 306.966 -3.3212 -2.59373 0
M  V30 3391 H 305.69 -2.08087 -2.51728 0
M  V30 3392 H 304.349 -3.53801 -0.960247 0
M  V30 3393 H 303.997 -3.67688 -3.43241 0
M  V30 3394 H 303.697 -5.24675 -2.64556 0
M  V30 3395 H 305.221 -4.97654 -3.53798 0
M  V30 3396 H 306.635 -5.57271 -1.34618 0
M  V30 3397 H 305.032 -5.96471 -0.658928 0
M  V30 3398 H 306.102 -4.84473 0.203478 0
M  V30 3399 N 307.445 0.0818655 -1.57387 0
M  V30 3400 C 308.693 0.781368 -1.86384 0
M  V30 3401 C 309.014 1.78618 -0.782342 0
M  V30 3402 O 308.284 1.94976 0.190061 0
M  V30 3403 H 306.864 0.291562 -0.687751 0
M  V30 3404 H 309.526 0.060348 -1.94807 0
M  V30 3405 H 308.622 1.3038 -2.83562 0
M  V30 3406 N 308.923 1.53595 0.353017 0
M  V30 3407 C 310.172 1.69603 1.09168 0
M  V30 3408 C 310.485 0.460925 1.90092 0
M  V30 3409 O 311.691 0.501774 2.66823 0
M  V30 3410 C 310.147 2.99872 1.9901 0
M  V30 3411 C 309.755 4.30687 1.23339 0
M  V30 3412 C 311.499 3.25246 2.72792 0
M  V30 3413 C 309.406 5.52036 2.12156 0
M  V30 3414 H 308.336 0.631966 0.411261 0
M  V30 3415 H 310.987 1.80096 0.351802 0
M  V30 3416 H 309.369 2.83212 2.7678 0
M  V30 3417 H 310.543 4.58019 0.505456 0
M  V30 3418 H 308.858 4.11853 0.613663 0
M  V30 3419 H 311.455 4.13095 3.39495 0
M  V30 3420 H 311.798 2.41846 3.38846 0
M  V30 3421 H 312.331 3.42638 2.021 0
M  V30 3422 H 309.07 6.37951 1.50659 0
M  V30 3423 H 308.59 5.28966 2.82764 0
M  V30 3424 H 310.269 5.87313 2.71427 0
M  V30 3425 N 310.401 -0.613514 1.45168 0
M  V30 3426 C 311.311 -1.75296 1.55912 0
M  V30 3427 C 312.327 -1.68244 0.443856 0
M  V30 3428 O 313.503 -1.88706 0.70371 0
M  V30 3429 C 310.568 -3.1174 1.5172 0
M  V30 3430 C 309.629 -3.30291 2.74238 0
M  V30 3431 C 308.862 -4.60226 2.70236 0
M  V30 3432 O 309.085 -5.42168 1.77229 0
M  V30 3433 O 308.019 -4.81361 3.61352 0
M  V30 3434 H 311.845 -1.69183 2.52212 0
M  V30 3435 H 309.43 -0.776886 1.27612 0
M  V30 3436 H 311.312 -3.93044 1.51968 0
M  V30 3437 H 309.987 -3.18357 0.585697 0
M  V30 3438 H 308.894 -2.48598 2.79553 0
M  V30 3439 H 310.227 -3.28547 3.66494 0
M  V30 3440 N 311.879 -1.3236 -0.855495 0
M  V30 3441 C 313.295 -1.11332 -1.14356 0
M  V30 3442 C 313.495 0.106751 -2.01217 0
M  V30 3443 O 312.551 0.791891 -2.39761 0
M  V30 3444 C 313.864 -2.39237 -1.82171 0
M  V30 3445 C 315.412 -2.44986 -1.9481 0
M  V30 3446 C 315.887 -3.7281 -2.66039 0
M  V30 3447 N 317.378 -3.73787 -2.73565 0
M  V30 3448 C 318.113 -4.69394 -3.29327 0
M  V30 3449 N 317.609 -5.75367 -3.85907 0
M  V30 3450 N 319.402 -4.56893 -3.27423 0
M  V30 3451 H 311.553 -2.10586 -0.277027 0
M  V30 3452 H 313.816 -0.929701 -0.185364 0
M  V30 3453 H 313.522 -3.28431 -1.25802 0
M  V30 3454 H 313.396 -2.50134 -2.82335 0
M  V30 3455 H 315.783 -1.56252 -2.50338 0
M  V30 3456 H 315.864 -2.38043 -0.936448 0
M  V30 3457 H 315.508 -4.61918 -2.11174 0
M  V30 3458 H 315.438 -3.77024 -3.67642 0
M  V30 3459 H 317.929 -2.97189 -2.33424 0
M  V30 3460 H 318.242 -6.44378 -4.26611 0
M  V30 3461 H 316.587 -5.79123 -3.84242 0
M  V30 3462 H 319.778 -3.73269 -2.82467 0
M  V30 3463 H 319.951 -5.31577 -3.7058 0
M  V30 3464 N 313.357 1.07166 -1.15556 0
M  V30 3465 C 314.587 1.83248 -0.954133 0
M  V30 3466 C 314.995 1.82449 0.500911 0
M  V30 3467 O 314.338 1.23575 1.35923 0
M  V30 3468 C 314.4 3.31393 -1.39351 0
M  V30 3469 C 314.064 3.5591 -2.86666 0
M  V30 3470 C 315.061 3.49695 -3.8472 0
M  V30 3471 C 312.746 3.83515 -3.24379 0
M  V30 3472 C 314.74 3.70737 -5.18491 0
M  V30 3473 C 312.427 4.04209 -4.58321 0
M  V30 3474 C 313.425 3.97815 -5.55186 0
M  V30 3475 O 313.113 4.17954 -6.86709 0
M  V30 3476 H 312.845 0.584941 -0.338851 0
M  V30 3477 H 315.399 1.36169 -1.53777 0
M  V30 3478 H 313.629 3.79292 -0.75329 0
M  V30 3479 H 315.318 3.88945 -1.16089 0
M  V30 3480 H 316.084 3.28368 -3.56931 0
M  V30 3481 H 311.963 3.87605 -2.49567 0
M  V30 3482 H 315.507 3.65663 -5.94085 0
M  V30 3483 H 311.404 4.25023 -4.85825 0
M  V30 3484 H 312.172 4.35291 -6.93155 0
M  V30 3485 N 314.835 0.952656 1.25548 0
M  V30 3486 C 316.065 0.622592 1.96996 0
M  V30 3487 C 316.473 -0.809112 1.71026 0
M  V30 3488 O 315.816 -1.55258 0.981861 0
M  V30 3489 C 315.878 0.798946 3.5051 0
M  V30 3490 C 315.542 2.20744 4.00151 0
M  V30 3491 C 316.539 3.18394 4.11001 0
M  V30 3492 C 314.224 2.5311 4.33867 0
M  V30 3493 C 316.218 4.46504 4.54877 0
M  V30 3494 C 313.905 3.8145 4.7743 0
M  V30 3495 C 314.903 4.77959 4.87897 0
M  V30 3496 O 314.591 6.04012 5.30494 0
M  V30 3497 H 314.323 0.232503 0.634758 0
M  V30 3498 H 316.877 1.2789 1.60728 0
M  V30 3499 H 315.107 0.0854903 3.86605 0
M  V30 3500 H 316.796 0.47023 4.03167 0
M  V30 3501 H 317.562 2.94715 3.85186 0
M  V30 3502 H 313.441 1.78719 4.24948 0
M  V30 3503 H 316.985 5.21835 4.62962 0
M  V30 3504 H 312.882 4.04936 5.0269 0
M  V30 3505 H 313.65 6.0736 5.48685 0
M  V30 3506 N 316.313 -1.40141 0.720998 0
M  V30 3507 C 317.223 -2.34486 0.0731031 0
M  V30 3508 C 318.239 -1.57587 -0.737723 0
M  V30 3509 O 319.415 -1.89949 -0.669429 0
M  V30 3510 C 316.48 -3.36528 -0.833656 0
M  V30 3511 C 315.541 -4.29298 -0.0121673 0
M  V30 3512 C 314.774 -5.26466 -0.875742 0
M  V30 3513 O 314.997 -5.29745 -2.11485 0
M  V30 3514 O 313.931 -6.01092 -0.31185 0
M  V30 3515 H 317.757 -2.9152 0.851444 0
M  V30 3516 H 315.342 -1.41427 0.481527 0
M  V30 3517 H 317.224 -3.99093 -1.35289 0
M  V30 3518 H 315.899 -2.81899 -1.59105 0
M  V30 3519 H 314.806 -3.70001 0.552262 0
M  V30 3520 H 316.139 -4.87094 0.707129 0
M  V30 3521 N 317.792 -0.46758 -1.50504 0
M  V30 3522 C 319.069 0.15003 -1.95024 0
M  V30 3523 C 319.449 1.57304 -1.40779 0
M  V30 3524 O 318.797 2.20281 -0.607319 0
M  V30 3525 C 319.007 0.0969324 -3.48865 0
M  V30 3526 C 320.355 0.287565 -4.23625 0
M  V30 3527 O 321.379 0.173678 -3.55776 0
M  V30 3528 O 320.238 0.517186 -5.44047 0
M  V30 3529 H 317.332 0.113582 -0.819163 0
M  V30 3530 H 319.878 -0.52773 -1.61286 0
M  V30 3531 H 318.65 -0.896732 -3.80886 0
M  V30 3532 H 318.273 0.816303 -3.8913 0
M  V30 3533 N 319.27 1.56325 -0.20005 0
M  V30 3534 C 320.516 1.98012 0.438059 0
M  V30 3535 C 320.849 1.08702 1.60927 0
M  V30 3536 O 320.124 0.140064 1.93995 0
M  V30 3537 C 320.407 3.48841 0.893419 0
M  V30 3538 C 320.26 4.48928 -0.279947 0
M  V30 3539 C 321.579 4.03498 1.75719 0
M  V30 3540 H 318.698 0.719918 0.157757 0
M  V30 3541 H 321.34 1.87743 -0.291968 0
M  V30 3542 H 319.49 3.57723 1.51547 0
M  V30 3543 H 321.162 4.52079 -0.91772 0
M  V30 3544 H 319.405 4.23694 -0.930919 0
M  V30 3545 H 320.076 5.5194 0.0812601 0
M  V30 3546 H 322.552 3.97427 1.23253 0
M  V30 3547 H 321.428 5.09393 2.04476 0
M  V30 3548 H 321.689 3.4906 2.71311 0
M  V30 3549 N 320.748 -0.0735177 1.57428 0
M  V30 3550 C 321.678 -1.0879 2.06608 0
M  V30 3551 C 322.659 -1.40473 0.959237 0
M  V30 3552 O 323.844 -1.5013 1.23185 0
M  V30 3553 C 320.974 -2.40183 2.50857 0
M  V30 3554 C 319.928 -2.22858 3.65402 0
M  V30 3555 C 319.254 -3.59619 3.957 0
M  V30 3556 C 320.554 -1.65123 4.95511 0
M  V30 3557 H 322.248 -0.678673 2.91607 0
M  V30 3558 H 319.794 -0.325013 1.40284 0
M  V30 3559 H 321.747 -3.11437 2.83874 0
M  V30 3560 H 320.471 -2.83083 1.62885 0
M  V30 3561 H 319.13 -1.54045 3.32664 0
M  V30 3562 H 318.778 -4.00086 3.04861 0
M  V30 3563 H 318.478 -3.48866 4.72828 0
M  V30 3564 H 320.002 -4.32306 4.31212 0
M  V30 3565 H 321.416 -2.26241 5.26771 0
M  V30 3566 H 319.813 -1.65071 5.7695 0
M  V30 3567 H 320.883 -0.612559 4.81015 0
M  V30 3568 N 322.226 -1.5378 -0.344866 0
M  V30 3569 C 323.176 -1.78057 -1.42407 0
M  V30 3570 C 324.16 -0.635732 -1.47808 0
M  V30 3571 O 325.352 -0.89508 -1.527 0
M  V30 3572 C 322.481 -1.99242 -2.79566 0
M  V30 3573 C 321.567 -3.19787 -2.78562 0
M  V30 3574 N 321.958 -4.41284 -2.47189 0
M  V30 3575 C 320.256 -3.2093 -3.0971 0
M  V30 3576 C 320.957 -5.23128 -2.54385 0
M  V30 3577 N 319.933 -4.59813 -2.89953 0
M  V30 3578 H 323.735 -2.69588 -1.17046 0
M  V30 3579 H 321.249 -1.52687 -0.553217 0
M  V30 3580 H 323.246 -2.14768 -3.57324 0
M  V30 3581 H 321.906 -1.08953 -3.05875 0
M  V30 3582 H 322.917 -4.68657 -2.20411 0
M  V30 3583 H 319.594 -2.40603 -3.41199 0
M  V30 3584 H 320.984 -6.30096 -2.333 0
M  V30 3585 N 323.704 0.605807 -1.45491 0
M  V30 3586 C 324.952 1.36207 -1.49305 0
M  V30 3587 C 325.273 1.94519 -0.136863 0
M  V30 3588 O 324.543 1.77261 0.833983 0
M  V30 3589 H 323.123 0.50565 -0.549843 0
M  V30 3590 H 325.785 0.711239 -1.81459 0
M  V30 3591 H 324.881 2.18058 -2.23287 0
M  V30 3592 N 325.182 1.32811 0.848464 0
M  V30 3593 C 326.114 1.18095 1.96433 0
M  V30 3594 C 327.127 0.114354 1.62398 0
M  V30 3595 O 328.316 0.363892 1.74751 0
M  V30 3596 C 325.416 0.786798 3.2964 0
M  V30 3597 C 324.589 1.943 3.91875 0
M  V30 3598 C 323.648 1.53138 5.03423 0
M  V30 3599 O 322.674 2.24432 5.23086 0
M  V30 3600 N 323.876 0.430915 5.78898 0
M  V30 3601 H 326.641 2.14218 2.09597 0
M  V30 3602 H 324.202 1.2543 1.02367 0
M  V30 3603 H 326.194 0.493715 4.01677 0
M  V30 3604 H 324.764 -0.0834541 3.12489 0
M  V30 3605 H 323.984 2.40224 3.12547 0
M  V30 3606 H 325.272 2.71689 4.30189 0
M  V30 3607 H 324.67 -0.162333 5.65467 0
M  V30 3608 H 323.227 0.197466 6.51501 0
M  V30 3609 N 326.66 -1.06551 1.16123 0
M  V30 3610 C 327.888 -1.83005 0.965237 0
M  V30 3611 C 328.303 -1.82423 -0.486542 0
M  V30 3612 O 327.66 -1.24152 -1.33763 0
M  V30 3613 C 327.711 -3.29733 1.48183 0
M  V30 3614 O 327.432 -3.30416 2.87674 0
M  V30 3615 C 328.933 -4.22926 1.32848 0
M  V30 3616 H 326.153 -0.577118 0.342309 0
M  V30 3617 H 328.697 -1.3445 1.54089 0
M  V30 3618 H 326.852 -3.75609 0.948517 0
M  V30 3619 H 327.266 -4.22149 3.11272 0
M  V30 3620 H 328.74 -5.23916 1.73827 0
M  V30 3621 H 329.217 -4.38346 0.273692 0
M  V30 3622 H 329.823 -3.82894 1.85127 0
M  V30 3623 N 328.138 -0.959301 -1.25041 0
M  V30 3624 C 329.386 -0.615393 -1.92503 0
M  V30 3625 C 329.707 0.850969 -1.75452 0
M  V30 3626 O 328.977 1.60658 -1.12098 0
M  V30 3627 H 327.557 -0.224613 -0.712431 0
M  V30 3628 H 330.219 -1.21855 -1.5211 0
M  V30 3629 H 329.315 -0.848738 -3.00338 0
M  V30 3630 N 329.616 1.39756 -0.72842 0
M  V30 3631 C 330.846 2.04651 -0.283117 0
M  V30 3632 C 331.254 1.5502 1.08469 0
M  V30 3633 O 330.597 0.707343 1.69536 0
M  V30 3634 C 330.659 3.58947 -0.199309 0
M  V30 3635 C 330.323 4.31525 -1.5045 0
M  V30 3636 C 331.32 4.5861 -2.44894 0
M  V30 3637 C 329.005 4.70195 -1.76698 0
M  V30 3638 C 330.999 5.23366 -3.63822 0
M  V30 3639 C 328.686 5.3468 -2.95906 0
M  V30 3640 C 329.684 5.61198 -3.89289 0
M  V30 3641 O 329.372 6.24347 -5.06404 0
M  V30 3642 H 329.104 0.664777 -0.122666 0
M  V30 3643 H 331.658 1.79913 -0.990987 0
M  V30 3644 H 329.888 3.82556 0.56461 0
M  V30 3645 H 331.577 4.0534 0.213125 0
M  V30 3646 H 332.343 4.29187 -2.25883 0
M  V30 3647 H 328.222 4.48916 -1.04859 0
M  V30 3648 H 331.766 5.4398 -4.36728 0
M  V30 3649 H 327.663 5.63524 -3.14819 0
M  V30 3650 H 328.431 6.42842 -5.06652 0
M  V30 3651 N 331.094 0.475555 1.50254 0
M  V30 3652 C 332.004 -0.321501 2.32387 0
M  V30 3653 C 333.02 -0.991755 1.42969 0
M  V30 3654 O 334.196 -0.978747 1.76018 0
M  V30 3655 C 331.261 -1.38667 3.17762 0
M  V30 3656 C 330.322 -0.732538 4.23004 0
M  V30 3657 C 329.555 -1.74695 5.04299 0
M  V30 3658 O 329.778 -2.97399 4.86734 0
M  V30 3659 O 328.712 -1.31631 5.8733 0
M  V30 3660 H 332.538 0.350071 3.01676 0
M  V30 3661 H 330.123 0.237321 1.47503 0
M  V30 3662 H 332.005 -2.00354 3.70724 0
M  V30 3663 H 330.68 -2.04163 2.51196 0
M  V30 3664 H 329.587 -0.0765902 3.74022 0
M  V30 3665 H 330.92 -0.120452 4.92053 0
M  V30 3666 N 332.573 -1.56217 0.208337 0
M  V30 3667 C 333.483 -2.23316 -0.718836 0
M  V30 3668 C 334.499 -1.23648 -1.22422 0
M  V30 3669 O 335.675 -1.56423 -1.26861 0
M  V30 3670 C 332.74 -2.88968 -1.91568 0
M  V30 3671 C 331.801 -4.03943 -1.45357 0
M  V30 3672 C 331.034 -4.66455 -2.59337 0
M  V30 3673 O 331.257 -4.27919 -3.77149 0
M  V30 3674 O 330.191 -5.55686 -2.31293 0
M  V30 3675 H 334.017 -3.03182 -0.177315 0
M  V30 3676 H 331.602 -1.49384 -0.0215402 0
M  V30 3677 H 333.484 -3.30455 -2.61491 0
M  V30 3678 H 332.159 -2.12071 -2.44556 0
M  V30 3679 H 331.066 -3.67052 -0.722746 0
M  V30 3680 H 332.399 -4.82543 -0.970219 0
M  V30 3681 N 334.051 0.0651679 -1.57465 0
M  V30 3682 C 335.297 0.764193 -1.87851 0
M  V30 3683 C 335.63 1.76889 -0.801495 0
M  V30 3684 O 334.905 1.93594 0.187528 0
M  V30 3685 C 335.188 1.46625 -3.28897 0
M  V30 3686 C 335.041 0.477515 -4.47258 0
M  V30 3687 C 336.36 2.4095 -3.68281 0
M  V30 3688 H 333.479 0.276351 -0.683227 0
M  V30 3689 H 336.121 0.0272868 -1.8998 0
M  V30 3690 H 334.271 2.09438 -3.27212 0
M  V30 3691 H 335.943 -0.145922 -4.61069 0
M  V30 3692 H 334.186 -0.206576 -4.33308 0
M  V30 3693 H 334.857 1.0065 -5.42746 0
M  V30 3694 H 337.333 1.88209 -3.71102 0
M  V30 3695 H 336.209 2.87072 -4.67847 0
M  V30 3696 H 336.47 3.26049 -2.98571 0
M  V30 3697 N 335.529 1.53961 0.336706 0
M  V30 3698 C 336.439 1.85432 1.43708 0
M  V30 3699 C 337.455 0.745053 1.57242 0
M  V30 3700 O 338.631 1.03804 1.72588 0
M  V30 3701 C 335.696 2.06349 2.78605 0
M  V30 3702 C 334.757 3.30191 2.74358 0
M  V30 3703 C 333.99 3.50101 4.02822 0
M  V30 3704 O 334.213 2.7371 5.00439 0
M  V30 3705 O 333.147 4.43547 4.06878 0
M  V30 3706 H 336.973 2.78975 1.20028 0
M  V30 3707 H 334.558 1.39701 0.52952 0
M  V30 3708 H 336.44 2.21513 3.58483 0
M  V30 3709 H 335.115 1.15995 3.02203 0
M  V30 3710 H 334.022 3.20425 1.93078 0
M  V30 3711 H 335.355 4.2056 2.55715 0
M  V30 3712 N 337.007 -0.598083 1.45811 0
M  V30 3713 C 338.253 -1.35882 1.50545 0
M  V30 3714 C 338.586 -1.93616 0.150445 0
M  V30 3715 O 337.861 -1.75604 -0.83628 0
M  V30 3716 C 338.144 -2.49966 2.59208 0
M  V30 3717 C 337.997 -1.97367 4.04186 0
M  V30 3718 C 339.316 -3.52068 2.64076 0
M  V30 3719 H 336.435 -0.492717 0.548087 0
M  V30 3720 H 339.077 -0.673319 1.77669 0
M  V30 3721 H 337.227 -3.08443 2.3621 0
M  V30 3722 H 338.899 -1.43466 4.38423 0
M  V30 3723 H 337.142 -1.283 4.14393 0
M  V30 3724 H 337.813 -2.79649 4.75921 0
M  V30 3725 H 340.289 -3.03448 2.84708 0
M  V30 3726 H 339.165 -4.2937 3.41954 0
M  V30 3727 H 339.426 -4.08304 1.69531 0
M  V30 3728 N 338.485 -1.33259 -0.841409 0
M  V30 3729 C 339.433 -1.23279 -1.97244 0
M  V30 3730 C 340.427 -0.134706 -1.68864 0
M  V30 3731 O 341.633 -0.298501 -1.77508 0
M  V30 3732 H 338.008 -0.382497 -0.647457 0
M  V30 3733 H 339.979 -2.18906 -2.02787 0
M  V30 3734 C 338.728 -0.986268 -3.33419 0
M  V30 3735 H 338.051 -1.82347 -3.55794 0
M  V30 3736 H 339.491 -0.956728 -4.13065 0
M  V30 3737 C 337.95 0.310842 -3.35463 0
M  V30 3738 O 338.48 1.31838 -3.79449 0
M  V30 3739 N 336.686 0.337485 -2.88634 0
M  V30 3740 H 336.233 -0.482967 -2.53032 0
M  V30 3741 H 336.191 1.20518 -2.90384 0
M  V30 3742 N 339.963 1.05934 -1.16686 0
M  V30 3743 C 340.911 2.15603 -0.872817 0
M  V30 3744 C 341.905 1.68647 0.159576 0
M  V30 3745 O 343.111 1.79995 0.0132125 0
M  V30 3746 H 339.486 0.703885 -0.264671 0
M  V30 3747 H 341.457 2.37613 -1.80507 0
M  V30 3748 C 340.206 3.45457 -0.394344 0
M  V30 3749 H 339.529 3.81984 -1.18019 0
M  V30 3750 H 340.969 4.2339 -0.227408 0
M  V30 3751 C 339.428 3.25021 0.88673 0
M  V30 3752 O 339.958 3.50906 1.95519 0
M  V30 3753 N 338.164 2.78437 0.831925 0
M  V30 3754 H 337.711 2.57572 -0.0377619 0
M  V30 3755 H 337.669 2.65144 1.68956 0
M  V30 3756 N 341.441 0.965919 1.2453 0
M  V30 3757 C 342.857 0.67216 1.44756 0
M  V30 3758 C 343.057 -0.766609 1.86347 0
M  V30 3759 O 342.113 -1.5407 2.00047 0
M  V30 3760 C 343.426 1.65473 2.51076 0
M  V30 3761 C 344.974 1.66716 2.64905 0
M  V30 3762 C 345.449 2.63766 3.74421 0
M  V30 3763 N 346.94 2.62198 3.81846 0
M  V30 3764 C 347.675 3.33966 4.66106 0
M  V30 3765 N 347.171 4.15245 5.54566 0
M  V30 3766 N 348.964 3.22799 4.60171 0
M  V30 3767 H 341.115 1.89553 0.958293 0
M  V30 3768 H 343.378 0.815979 0.482579 0
M  V30 3769 H 343.084 2.68296 2.27399 0
M  V30 3770 H 342.958 1.4261 3.49202 0
M  V30 3771 H 345.345 0.646057 2.87941 0
M  V30 3772 H 345.426 1.93642 1.67142 0
M  V30 3773 H 345.07 3.6601 3.52135 0
M  V30 3774 H 345 2.34121 4.71694 0
M  V30 3775 H 347.491 2.032 3.18619 0
M  V30 3776 H 347.804 4.66898 6.15814 0
M  V30 3777 H 346.149 4.1934 5.54237 0
M  V30 3778 H 349.34 2.58764 3.90075 0
M  V30 3779 H 349.513 3.78994 5.25612 0
M  V30 3780 N 342.919 -1.39368 0.735821 0
M  V30 3781 C 344.167 -2.00101 0.283562 0
M  V30 3782 C 344.488 -1.5868 -1.13338 0
M  V30 3783 O 343.758 -0.835423 -1.77193 0
M  V30 3784 H 342.338 -0.740024 0.101851 0
M  V30 3785 H 345 -1.70404 0.945962 0
M  V30 3786 H 344.096 -3.10323 0.332604 0
M  V30 3787 N 344.397 -0.483516 -1.5 0
M  V30 3788 C 345.813 -0.138404 -1.58999 0
M  V30 3789 C 346.013 1.35597 -1.4905 0
M  V30 3790 O 345.069 2.13039 -1.35539 0
M  V30 3791 C 346.382 -0.699658 -2.92447 0
M  V30 3792 C 347.93 -0.664195 -3.05872 0
M  V30 3793 C 348.405 -1.20321 -4.41913 0
M  V30 3794 N 349.896 -1.16315 -4.48358 0
M  V30 3795 C 350.631 -1.55058 -5.52037 0
M  V30 3796 N 350.127 -2.01311 -6.62907 0
M  V30 3797 N 351.92 -1.46584 -5.42651 0
M  V30 3798 H 344.071 -1.45529 -1.5471 0
M  V30 3799 H 346.334 -0.60258 -0.731848 0
M  V30 3800 H 346.04 -1.747 -3.05242 0
M  V30 3801 H 345.914 -0.150194 -3.76901 0
M  V30 3802 H 348.301 0.374272 -2.92717 0
M  V30 3803 H 348.382 -1.25061 -2.23144 0
M  V30 3804 H 348.026 -2.24037 -4.55818 0
M  V30 3805 H 347.956 -0.592896 -5.23252 0
M  V30 3806 H 350.447 -0.824058 -3.68806 0
M  V30 3807 H 350.76 -2.2899 -7.38095 0
M  V30 3808 H 349.105 -2.05273 -6.63994 0
M  V30 3809 H 352.296 -1.10281 -4.54924 0
M  V30 3810 H 352.469 -1.77103 -6.23329 0
M  V30 3811 N 345.875 1.56104 -0.216619 0
M  V30 3812 C 347.121 1.98466 0.417033 0
M  V30 3813 C 347.454 1.10403 1.59765 0
M  V30 3814 O 346.729 0.160632 1.93836 0
M  V30 3815 C 347.012 3.49769 0.85637 0
M  V30 3816 C 346.865 4.48606 -0.327546 0
M  V30 3817 C 348.184 4.05339 1.7143 0
M  V30 3818 H 345.303 0.721551 0.150112 0
M  V30 3819 H 347.945 1.87423 -0.311864 0
M  V30 3820 H 346.095 3.5931 1.47745 0
M  V30 3821 H 347.767 4.5108 -0.965618 0
M  V30 3822 H 346.01 4.22682 -0.975805 0
M  V30 3823 H 346.681 5.51995 0.0227149 0
M  V30 3824 H 349.157 3.98712 1.19031 0
M  V30 3825 H 348.033 5.11533 1.99061 0
M  V30 3826 H 348.294 3.51918 2.67593 0
M  V30 3827 N 347.353 -0.0568162 1.57498 0
M  V30 3828 C 348.602 -0.752001 1.87157 0
M  V30 3829 C 348.915 -1.77978 0.811375 0
M  V30 3830 O 350.121 -2.52559 0.996293 0
M  V30 3831 C 348.577 -1.38844 3.3204 0
M  V30 3832 C 348.185 -0.398456 4.46225 0
M  V30 3833 C 349.929 -2.06512 3.70882 0
M  V30 3834 C 347.836 -1.04166 5.82154 0
M  V30 3835 H 346.766 -0.28461 0.698222 0
M  V30 3836 H 349.417 -0.00561272 1.83499 0
M  V30 3837 H 347.799 -2.1836 3.30356 0
M  V30 3838 H 348.973 0.367977 4.59328 0
M  V30 3839 H 347.288 0.174592 4.16034 0
M  V30 3840 H 349.885 -2.55437 4.6974 0
M  V30 3841 H 350.228 -2.87117 3.01445 0
M  V30 3842 H 350.761 -1.33808 3.7462 0
M  V30 3843 H 347.5 -0.275614 6.5492 0
M  V30 3844 H 347.02 -1.7786 5.72823 0
M  V30 3845 H 348.699 -1.55715 6.27982 0
M  V30 3846 N 348.832 -1.54138 -0.328536 0
M  V30 3847 C 350.248 -1.44736 -0.672574 0
M  V30 3848 C 350.448 -0.616217 -1.91846 0
M  V30 3849 O 349.504 -0.113067 -2.52247 0
M  V30 3850 C 350.817 -2.884 -0.851217 0
M  V30 3851 C 352.365 -2.98271 -0.948877 0
M  V30 3852 C 352.84 -4.43074 -1.15973 0
M  V30 3853 N 354.331 -4.46665 -1.22658 0
M  V30 3854 C 355.066 -5.55857 -1.40751 0
M  V30 3855 N 354.562 -6.75026 -1.5592 0
M  V30 3856 N 356.355 -5.43495 -1.4342 0
M  V30 3857 H 348.506 -2.06661 0.490421 0
M  V30 3858 H 350.769 -0.934812 0.157579 0
M  V30 3859 H 350.475 -3.51699 -0.00704236 0
M  V30 3860 H 350.349 -3.34225 -1.74853 0
M  V30 3861 H 352.736 -2.35102 -1.78356 0
M  V30 3862 H 352.817 -2.55785 -0.0281435 0
M  V30 3863 H 352.461 -5.06827 -0.329915 0
M  V30 3864 H 352.391 -4.83165 -2.09426 0
M  V30 3865 H 354.882 -3.60797 -1.124 0
M  V30 3866 H 355.195 -7.54004 -1.69404 0
M  V30 3867 H 353.54 -6.77944 -1.53027 0
M  V30 3868 H 356.731 -4.49349 -1.31162 0
M  V30 3869 H 356.904 -6.28649 -1.57178 0
M  V30 3870 N 350.31 0.590341 -1.46126 0
M  V30 3871 C 351.242 1.71427 -1.52136 0
M  V30 3872 C 352.255 1.57542 -0.41042 0
M  V30 3873 O 353.444 1.65106 -0.678389 0
M  V30 3874 C 350.544 3.09605 -1.37834 0
M  V30 3875 C 349.717 3.49566 -2.62912 0
M  V30 3876 C 348.776 4.66773 -2.42918 0
M  V30 3877 O 347.802 4.73019 -3.1661 0
M  V30 3878 N 349.004 5.61161 -1.4859 0
M  V30 3879 H 351.769 1.66728 -2.49042 0
M  V30 3880 H 349.33 0.776113 -1.42085 0
M  V30 3881 H 351.322 3.85796 -1.22243 0
M  V30 3882 H 349.892 3.08714 -0.491393 0
M  V30 3883 H 349.112 2.63158 -2.93499 0
M  V30 3884 H 350.4 3.73028 -3.46017 0
M  V30 3885 H 349.798 5.58844 -0.87808 0
M  V30 3886 H 348.355 6.36814 -1.38965 0
M  V30 3887 N 351.788 1.33704 0.83433 0
M  V30 3888 C 352.718 1.26967 1.95963 0
M  V30 3889 C 353.699 0.149337 1.69443 0
M  V30 3890 O 354.884 0.339852 1.91203 0
M  V30 3891 C 352.014 1.01275 3.32206 0
M  V30 3892 C 350.968 2.09652 3.73136 0
M  V30 3893 C 350.294 1.69166 5.07235 0
M  V30 3894 C 351.594 3.51372 3.86439 0
M  V30 3895 H 353.288 2.2112 2.01857 0
M  V30 3896 H 350.834 1.06447 0.969793 0
M  V30 3897 H 352.787 0.952106 4.10503 0
M  V30 3898 H 351.511 0.0356203 3.26581 0
M  V30 3899 H 350.17 2.14766 2.97104 0
M  V30 3900 H 349.818 0.701437 4.98085 0
M  V30 3901 H 349.518 2.41694 5.35591 0
M  V30 3902 H 351.042 1.64576 5.88003 0
M  V30 3903 H 352.456 3.48734 4.55036 0
M  V30 3904 H 350.853 4.22425 4.26236 0
M  V30 3905 H 351.923 3.89546 2.88759 0
M  V30 3906 N 353.266 -1.05314 1.17247 0
M  V30 3907 C 354.213 -2.13031 0.888058 0
M  V30 3908 C 355.183 -1.65253 -0.167537 0
M  V30 3909 O 356.368 -1.90775 -0.0305974 0
M  V30 3910 C 353.508 -3.42702 0.406147 0
M  V30 3911 C 352.621 -4.04161 1.52572 0
M  V30 3912 C 351.756 -5.21744 0.997808 0
M  V30 3913 C 350.795 -5.75207 2.09291 0
M  V30 3914 N 349.932 -6.84094 1.57986 0
M  V30 3915 H 354.772 -2.36698 1.81048 0
M  V30 3916 H 352.309 -1.16121 0.903013 0
M  V30 3917 H 354.267 -4.17059 0.108305 0
M  V30 3918 H 352.897 -3.19222 -0.479313 0
M  V30 3919 H 351.949 -3.27253 1.93931 0
M  V30 3920 H 353.261 -4.39881 2.35172 0
M  V30 3921 H 352.415 -6.03168 0.653739 0
M  V30 3922 H 351.154 -4.87495 0.141232 0
M  V30 3923 H 350.159 -4.92414 2.44557 0
M  V30 3924 H 351.384 -6.11505 2.95362 0
M  V30 3925 H 349.33 -6.51745 0.74598 0
M  V30 3926 H 349.247 -7.18811 2.34195 0
M  V30 3927 H 350.515 -7.69172 1.26468 0
M  V30 3928 N 354.744 -0.972509 -1.24016 0
M  V30 3929 C 355.654 -0.5143 -2.28893 0
M  V30 3930 C 356.67 0.427078 -1.68677 0
M  V30 3931 O 357.846 0.298939 -1.99169 0
M  V30 3932 C 354.911 0.183598 -3.46214 0
M  V30 3933 C 353.972 -0.798202 -4.21814 0
M  V30 3934 C 353.205 -0.133514 -5.33533 0
M  V30 3935 O 353.428 1.07714 -5.60137 0
M  V30 3936 O 352.362 -0.828103 -5.96176 0
M  V30 3937 H 356.188 -1.38629 -2.70214 0
M  V30 3938 H 353.773 -0.739769 -1.29799 0
M  V30 3939 H 355.655 0.575433 -4.17453 0
M  V30 3940 H 354.33 1.03048 -3.0686 0
M  V30 3941 H 353.237 -1.24059 -3.52931 0
M  V30 3942 H 354.57 -1.61364 -4.64997 0
M  V30 3943 N 356.222 1.38976 -0.743202 0
M  V30 3944 C 357.468 2.0064 -0.295189 0
M  V30 3945 C 357.801 1.5885 1.11716 0
M  V30 3946 O 357.076 0.821181 1.76315 0
M  V30 3947 C 357.359 3.578 -0.406318 0
M  V30 3948 C 357.212 4.09586 -1.85903 0
M  V30 3949 C 358.531 4.39616 0.206439 0
M  V30 3950 H 355.65 0.728935 -0.108733 0
M  V30 3951 H 358.292 1.65067 -0.940897 0
M  V30 3952 H 356.442 3.88235 0.143419 0
M  V30 3953 H 358.114 3.89837 -2.46627 0
M  V30 3954 H 356.357 3.6284 -2.3776 0
M  V30 3955 H 357.028 5.18708 -1.888 0
M  V30 3956 H 359.504 4.15273 -0.262283 0
M  V30 3957 H 358.38 5.48812 0.0983819 0
M  V30 3958 H 358.641 4.22754 1.2935 0
M  V30 3959 N 357.7 0.491464 1.49741 0
M  V30 3960 C 359.111 0.0413169 1.86654 0
M  V30 3961 C 359.462 -1.36985 1.40462 0
M  V30 3962 O 358.587 -2.01917 0.778354 0
M  V30 3963 C 359.182 0.0682023 3.38731 0
M  V30 3964 C 357.741 -0.32656 3.74981 0
M  V30 3965 C 356.888 0.444888 2.73708 0
M  V30 3966 H 359.839 0.704733 1.42194 0
M  V30 3967 H 359.86 -0.729322 3.73445 0
M  V30 3968 H 359.372 1.09539 3.72321 0
M  V30 3969 H 357.473 -1.35734 3.46997 0
M  V30 3970 H 357.586 -0.013741 4.79098 0
M  V30 3971 H 355.95 -0.104062 2.54487 0
M  V30 3972 H 356.733 1.47197 3.10142 0
M  V30 3973 N 359.178 -1.55987 0.224894 0
M  V30 3974 C 360.589 -1.84553 -0.282345 0
M  V30 3975 C 360.94 -1.14634 -1.59227 0
M  V30 3976 O 360.065 -0.417155 -2.12341 0
M  V30 3977 C 360.66 -3.348 -0.519062 0
M  V30 3978 C 359.219 -3.63671 -0.970604 0
M  V30 3979 C 358.366 -2.77277 -0.0355261 0
M  V30 3980 H 361.317 -1.52245 0.448006 0
M  V30 3981 H 361.338 -3.55187 -1.36463 0
M  V30 3982 H 360.85 -3.8566 0.43449 0
M  V30 3983 H 358.951 -3.1827 -1.9374 0
M  V30 3984 H 359.064 -4.71631 -0.842698 0
M  V30 3985 H 357.428 -2.48846 -0.542927 0
M  V30 3986 H 358.211 -3.30937 0.913003 0
M  V30 3987 N 360.656 0.0484629 -1.57525 0
M  V30 3988 C 361.588 1.08222 -2.02041 0
M  V30 3989 C 362.601 1.33621 -0.930012 0
M  V30 3990 O 363.79 1.3145 -1.20761 0
M  V30 3991 C 360.89 2.42818 -2.36416 0
M  V30 3992 C 360.063 2.37049 -3.67596 0
M  V30 3993 C 359.122 3.53937 -3.89378 0
M  V30 3994 O 358.148 3.34308 -4.60681 0
M  V30 3995 N 359.35 4.75126 -3.3352 0
M  V30 3996 H 362.115 0.702946 -2.9134 0
M  V30 3997 H 359.676 0.236745 -1.6016 0
M  V30 3998 H 361.668 3.197 -2.48141 0
M  V30 3999 H 360.238 2.72661 -1.52888 0
M  V30 4000 H 359.458 1.45395 -3.66407 0
M  V30 4001 H 360.746 2.30318 -4.53686 0
M  V30 4002 H 360.144 4.93976 -2.75688 0
M  V30 4003 H 358.701 5.49439 -3.50656 0
M  V30 4004 N 362.134 1.5431 0.320358 0
M  V30 4005 C 363.097 1.83195 1.3774 0
M  V30 4006 C 364.097 0.703906 1.44575 0
M  V30 4007 O 365.287 0.972214 1.44546 0
M  V30 4008 C 362.419 1.99487 2.76438 0
M  V30 4009 H 363.612 2.77642 1.1338 0
M  V30 4010 H 361.165 1.46076 0.556012 0
M  V30 4011 H 361.9 1.07262 3.06048 0
M  V30 4012 H 361.685 2.81575 2.7287 0
M  V30 4013 H 363.175 2.23271 3.52902 0
M  V30 4014 N 363.613 -0.582584 1.46437 0
M  V30 4015 C 364.861 -1.33814 1.51453 0
M  V30 4016 C 365.182 -1.94277 0.167792 0
M  V30 4017 O 364.452 -1.78566 -0.805677 0
M  V30 4018 H 363.032 -0.496838 0.557818 0
M  V30 4019 H 365.694 -0.682281 1.82568 0
M  V30 4020 H 364.79 -2.14479 2.26728 0
M  V30 4021 N 365.091 -1.34144 -0.827227 0
M  V30 4022 C 366.041 -1.21923 -1.92663 0
M  V30 4023 C 367.025 -0.119294 -1.60457 0
M  V30 4024 O 368.217 -0.348539 -1.73534 0
M  V30 4025 C 365.346 -0.972492 -3.29238 0
M  V30 4026 C 364.432 -2.1154 -3.67576 0
M  V30 4027 N 364.823 -3.36627 -3.77512 0
M  V30 4028 C 363.121 -2.02468 -3.97395 0
M  V30 4029 C 363.822 -4.11658 -4.1099 0
M  V30 4030 N 362.798 -3.40207 -4.23981 0
M  V30 4031 H 366.6 -2.16721 -1.98517 0
M  V30 4032 H 364.114 -1.2632 -1.02064 0
M  V30 4033 H 366.111 -0.865847 -4.0781 0
M  V30 4034 H 364.771 -0.0331509 -3.24683 0
M  V30 4035 H 365.782 -3.71234 -3.61118 0
M  V30 4036 H 362.459 -1.16265 -4.00985 0
M  V30 4037 H 363.849 -5.19657 -4.25918 0
M  V30 4038 N 366.569 1.04691 -1.17803 0
M  V30 4039 C 367.846 1.7472 -0.879328 0
M  V30 4040 C 368.226 2.01812 0.619271 0
M  V30 4041 O 367.574 1.65824 1.57209 0
M  V30 4042 C 367.784 3.03686 -1.71976 0
M  V30 4043 C 369.132 3.77542 -1.94286 0
M  V30 4044 O 370.156 3.13569 -1.68976 0
M  V30 4045 O 369.015 4.92506 -2.36855 0
M  V30 4046 H 366.109 0.760011 -0.326056 0
M  V30 4047 H 368.655 1.10813 -1.28525 0
M  V30 4048 H 367.427 2.79754 -2.73594 0
M  V30 4049 H 367.05 3.75332 -1.31194 0
M  V30 4050 N 368.047 0.979072 1.23499 0
M  V30 4051 C 369.296 0.642751 1.91185 0
M  V30 4052 C 369.609 -0.827253 1.77245 0
M  V30 4053 O 370.815 -1.27458 2.39722 0
M  V30 4054 C 369.271 1.09901 3.42709 0
M  V30 4055 C 368.879 2.59327 3.65313 0
M  V30 4056 C 370.623 0.836371 4.16179 0
M  V30 4057 C 368.53 2.98627 5.10467 0
M  V30 4058 H 367.46 0.236698 0.715884 0
M  V30 4059 H 370.111 1.1868 1.39955 0
M  V30 4060 H 368.493 0.48319 3.93041 0
M  V30 4061 H 369.667 3.26136 3.25533 0
M  V30 4062 H 367.982 2.83323 3.05151 0
M  V30 4063 H 370.579 1.10586 5.23139 0
M  V30 4064 H 370.922 -0.227509 4.15678 0
M  V30 4065 H 371.455 1.41371 3.71832 0
M  V30 4066 H 368.194 4.04133 5.16098 0
M  V30 4067 H 367.714 2.3651 5.51201 0
M  V30 4068 H 369.393 2.89159 5.78788 0
M  V30 4069 N 369.525 -1.3858 0.750561 0
M  V30 4070 C 370.755 -2.04175 0.31564 0
M  V30 4071 C 371.163 -1.56726 -1.05989 0
M  V30 4072 O 370.506 -0.734225 -1.68389 0
M  V30 4073 C 370.568 -3.58585 0.256389 0
M  V30 4074 C 370.232 -4.29077 1.57296 0
M  V30 4075 C 371.229 -4.54656 2.52159 0
M  V30 4076 C 368.914 -4.67324 1.84156 0
M  V30 4077 C 370.908 -5.17512 3.72103 0
M  V30 4078 C 368.595 -5.29905 3.04374 0
M  V30 4079 C 369.593 -5.54933 3.98168 0
M  V30 4080 O 369.281 -6.16212 5.16273 0
M  V30 4081 H 369.013 -0.662742 0.133226 0
M  V30 4082 H 371.567 -1.78313 1.01948 0
M  V30 4083 H 369.797 -3.83406 -0.503677 0
M  V30 4084 H 371.486 -4.05628 -0.148612 0
M  V30 4085 H 372.252 -4.25539 2.32683 0
M  V30 4086 H 368.131 -4.47191 1.11988 0
M  V30 4087 H 371.675 -5.36963 4.45327 0
M  V30 4088 H 367.572 -5.58444 3.23745 0
M  V30 4089 H 368.34 -6.34701 5.16815 0
M  V30 4090 N 371.003 -0.499398 -1.49478 0
M  V30 4091 C 371.933 0.269244 -2.31943 0
M  V30 4092 C 372.914 0.964054 -1.40143 0
M  V30 4093 O 374.099 0.955767 -1.69052 0
M  V30 4094 C 371.229 1.33504 -3.20615 0
M  V30 4095 C 370.183 0.760202 -4.21195 0
M  V30 4096 C 369.509 1.9264 -4.98792 0
M  V30 4097 C 370.809 -0.247661 -5.21712 0
M  V30 4098 H 372.503 -0.419082 -2.96452 0
M  V30 4099 H 370.049 -0.202988 -1.42562 0
M  V30 4100 H 372.002 1.88048 -3.77115 0
M  V30 4101 H 370.726 2.05253 -2.54045 0
M  V30 4102 H 369.385 0.23653 -3.65836 0
M  V30 4103 H 369.033 2.63154 -4.28671 0
M  V30 4104 H 368.733 1.54785 -5.66847 0
M  V30 4105 H 370.257 2.4762 -5.58137 0
M  V30 4106 H 371.671 0.209579 -5.72917 0
M  V30 4107 H 370.068 -0.541962 -5.97648 0
M  V30 4108 H 371.138 -1.16409 -4.7072 0
M  V30 4109 N 372.481 1.55866 -0.233164 0
M  V30 4110 C 373.709 2.02998 0.399905 0
M  V30 4111 C 374.124 1.11274 1.52524 0
M  V30 4112 O 373.481 0.124528 1.82075 0
M  V30 4113 C 373.532 3.4958 0.920639 0
M  V30 4114 O 373.253 4.37808 -0.159834 0
M  V30 4115 C 374.754 4.12411 1.62578 0
M  V30 4116 H 371.974 0.664006 0.0966281 0
M  V30 4117 H 374.518 2.0143 -0.353013 0
M  V30 4118 H 372.673 3.51727 1.62379 0
M  V30 4119 H 373.087 5.23981 0.23337 0
M  V30 4120 H 374.561 5.16711 1.94201 0
M  V30 4121 H 375.038 3.5809 2.54299 0
M  V30 4122 H 375.644 4.14148 0.967553 0
M  V30 4123 N 373.959 -0.0401083 1.57549 0
M  V30 4124 C 374.889 -1.04384 2.08869 0
M  V30 4125 C 375.87 -1.38407 0.988817 0
M  V30 4126 O 377.055 -1.47483 1.26342 0
M  V30 4127 C 374.185 -2.34808 2.55895 0
M  V30 4128 C 373.139 -2.15057 3.70047 0
M  V30 4129 C 372.465 -3.51145 4.03239 0
M  V30 4130 C 373.765 -1.54576 4.98902 0
M  V30 4131 H 375.459 -0.616666 2.92981 0
M  V30 4132 H 373.005 -0.295184 1.40942 0
M  V30 4133 H 374.958 -3.05346 2.90417 0
M  V30 4134 H 373.682 -2.79565 1.68853 0
M  V30 4135 H 372.341 -1.46954 3.35857 0
M  V30 4136 H 371.989 -3.93529 3.13279 0
M  V30 4137 H 371.689 -3.38758 4.80122 0
M  V30 4138 H 373.213 -4.23062 4.40285 0
M  V30 4139 H 374.627 -2.15017 5.31451 0
M  V30 4140 H 373.024 -1.52796 5.80322 0
M  V30 4141 H 374.094 -0.51039 4.82206 0
M  V30 4142 N 375.437 -1.54477 -0.31217 0
M  V30 4143 C 376.714 -1.63891 -1.06767 0
M  V30 4144 C 377.094 -0.480028 -2.0557 0
M  V30 4145 O 376.442 0.524487 -2.22399 0
M  V30 4146 C 376.652 -3.01402 -1.75948 0
M  V30 4147 C 378 -3.57838 -2.28554 0
M  V30 4148 O 379.024 -3.03782 -1.85998 0
M  V30 4149 O 377.883 -4.52462 -3.06497 0
M  V30 4150 H 374.977 -0.664125 -0.492816 0
M  V30 4151 H 377.523 -1.66823 -0.311149 0
M  V30 4152 H 376.295 -3.77187 -1.04144 0
M  V30 4153 H 375.918 -3.02199 -2.58383 0
M  V30 4154 N 376.915 0.57481 -1.46744 0
M  V30 4155 C 377.845 1.69337 -1.60771 0
M  V30 4156 C 378.826 1.63825 -0.457736 0
M  V30 4157 O 380.011 1.8172 -0.684947 0
M  V30 4158 C 377.141 3.0798 -1.60517 0
M  V30 4159 C 376.095 3.28327 -2.74564 0
M  V30 4160 C 375.421 4.67578 -2.59373 0
M  V30 4161 C 376.721 3.15398 -4.16319 0
M  V30 4162 H 378.415 1.57853 -2.54407 0
M  V30 4163 H 375.961 0.75799 -1.22436 0
M  V30 4164 H 377.914 3.86061 -1.68923 0
M  V30 4165 H 376.638 3.20381 -0.634305 0
M  V30 4166 H 375.297 2.52649 -2.65639 0
M  V30 4167 H 374.945 4.76755 -1.60353 0
M  V30 4168 H 374.645 4.82144 -3.35873 0
M  V30 4169 H 376.169 5.47817 -2.69682 0
M  V30 4170 H 377.583 3.83315 -4.26313 0
M  V30 4171 H 375.98 3.41482 -4.93468 0
M  V30 4172 H 377.05 2.12372 -4.3592 0
M  V30 4173 N 378.394 1.34581 0.820102 0
M  V30 4174 C 379.341 1.2639 1.93117 0
M  V30 4175 C 380.311 0.138554 1.65521 0
M  V30 4176 O 381.496 0.320004 1.88097 0
M  V30 4177 C 378.636 1.02812 3.29429 0
M  V30 4178 C 377.749 2.24146 3.693 0
M  V30 4179 C 376.884 1.93829 4.94574 0
M  V30 4180 C 375.923 3.1129 5.27034 0
M  V30 4181 N 375.06 2.80838 6.43486 0
M  V30 4182 H 379.9 2.21408 1.99455 0
M  V30 4183 H 377.437 1.10077 0.975784 0
M  V30 4184 H 379.395 0.871788 4.0799 0
M  V30 4185 H 378.025 0.114612 3.22596 0
M  V30 4186 H 377.077 2.50691 2.86109 0
M  V30 4187 H 378.389 3.11899 3.89257 0
M  V30 4188 H 377.543 1.74948 5.80929 0
M  V30 4189 H 376.282 1.03341 4.76626 0
M  V30 4190 H 375.287 3.30764 4.39175 0
M  V30 4191 H 376.512 4.02561 5.4692 0
M  V30 4192 H 374.458 1.92929 6.26988 0
M  V30 4193 H 374.375 3.62123 6.63629 0
M  V30 4194 H 375.643 2.65467 7.32903 0
M  V30 4195 N 379.872 -1.04064 1.18357 0
M  V30 4196 C 380.802 -2.14001 0.934113 0
M  V30 4197 C 381.783 -1.69616 -0.128186 0
M  V30 4198 O 382.968 -1.94185 0.0244093 0
M  V30 4199 C 380.098 -3.44253 0.459066 0
M  V30 4200 C 379.052 -4.02261 1.46185 0
M  V30 4201 C 378.378 -5.27992 0.844322 0
M  V30 4202 C 379.678 -4.38432 2.83856 0
M  V30 4203 H 381.372 -2.35127 1.85352 0
M  V30 4204 H 378.918 -1.12998 0.892604 0
M  V30 4205 H 380.871 -4.20522 0.271907 0
M  V30 4206 H 379.595 -3.22813 -0.495912 0
M  V30 4207 H 378.254 -3.28074 1.63595 0
M  V30 4208 H 377.902 -5.02862 -0.117845 0
M  V30 4209 H 377.602 -5.67765 1.51384 0
M  V30 4210 H 379.126 -6.06938 0.667693 0
M  V30 4211 H 380.54 -5.05688 2.70098 0
M  V30 4212 H 378.937 -4.89254 3.47491 0
M  V30 4213 H 380.007 -3.4826 3.37406 0
M  V30 4214 N 381.35 -0.985608 -1.22978 0
M  V30 4215 C 382.282 -0.488154 -2.23941 0
M  V30 4216 C 383.295 0.41282 -1.57479 0
M  V30 4217 O 384.484 0.216121 -1.77187 0
M  V30 4218 C 381.584 0.312611 -3.37455 0
M  V30 4219 C 380.757 -0.582741 -4.33501 0
M  V30 4220 C 379.816 0.165064 -5.25941 0
M  V30 4221 O 378.842 -0.447077 -5.67442 0
M  V30 4222 N 380.044 1.44953 -5.62111 0
M  V30 4223 H 382.809 -1.3563 -2.67254 0
M  V30 4224 H 380.37 -0.859477 -1.37203 0
M  V30 4225 H 382.362 0.821357 -3.96277 0
M  V30 4226 H 380.932 1.0818 -2.93285 0
M  V30 4227 H 380.152 -1.27225 -3.73105 0
M  V30 4228 H 381.44 -1.19275 -4.94622 0
M  V30 4229 H 380.838 1.9683 -5.30353 0
M  V30 4230 H 379.395 1.90361 -6.23383 0
M  V30 4231 N 382.828 1.3818 -0.7579 0
M  V30 4232 C 383.76 2.2901 -0.0932177 0
M  V30 4233 C 384.773 1.47958 0.679136 0
M  V30 4234 O 385.962 1.70773 0.519514 0
M  V30 4235 C 383.062 3.26953 0.89192 0
M  V30 4236 C 382.235 4.37045 0.176303 0
M  V30 4237 C 381.294 5.15148 1.07281 0
M  V30 4238 O 380.32 5.66616 0.541728 0
M  V30 4239 N 381.522 5.28542 2.40049 0
M  V30 4240 H 384.287 2.86694 -0.873303 0
M  V30 4241 H 381.848 1.50007 -0.609054 0
M  V30 4242 H 383.84 3.76083 1.49479 0
M  V30 4243 H 382.41 2.70136 1.57306 0
M  V30 4244 H 381.63 3.89493 -0.607328 0
M  V30 4245 H 382.918 5.07801 -0.318718 0
M  V30 4246 H 382.316 4.88285 2.85647 0
M  V30 4247 H 380.873 5.8103 2.95376 0
M  V30 4248 N 384.306 0.507319 1.49211 0
M  V30 4249 C 385.536 -0.0315292 2.06576 0
M  V30 4250 C 385.944 -1.30791 1.36713 0
M  V30 4251 O 385.287 -1.78324 0.441181 0
M  V30 4252 C 385.349 -0.349104 3.57801 0
M  V30 4253 C 385.013 0.830475 4.49391 0
M  V30 4254 C 386.01 1.72271 4.90529 0
M  V30 4255 C 383.695 1.03107 4.91604 0
M  V30 4256 C 385.689 2.79964 5.72625 0
M  V30 4257 C 383.376 2.11116 5.73475 0
M  V30 4258 C 384.374 2.99379 6.1389 0
M  V30 4259 O 384.062 4.05523 6.94123 0
M  V30 4260 H 383.794 0.0201002 0.675701 0
M  V30 4261 H 386.348 0.705737 1.92895 0
M  V30 4262 H 384.578 -1.14005 3.69513 0
M  V30 4263 H 386.267 -0.827319 3.97379 0
M  V30 4264 H 387.033 1.57958 4.58557 0
M  V30 4265 H 382.912 0.353417 4.59643 0
M  V30 4266 H 386.456 3.48884 6.04091 0
M  V30 4267 H 382.353 2.25421 6.0486 0
M  V30 4268 H 383.121 4.02953 7.1244 0
M  V30 4269 N 385.784 -1.5574 0.241426 0
M  V30 4270 C 387.033 -1.97986 -0.385295 0
M  V30 4271 C 387.346 -1.13267 -1.59468 0
M  V30 4272 O 388.552 -1.45501 -2.2922 0
M  V30 4273 C 387.008 -3.52275 -0.736884 0
M  V30 4274 C 386.616 -4.45726 0.450796 0
M  V30 4275 C 388.36 -4.03189 -1.3281 0
M  V30 4276 C 386.267 -5.91352 0.0756662 0
M  V30 4277 H 385.197 -0.739386 -0.147731 0
M  V30 4278 H 387.848 -1.80308 0.340779 0
M  V30 4279 H 386.23 -3.65628 -1.52094 0
M  V30 4280 H 387.404 -4.44131 1.22819 0
M  V30 4281 H 385.719 -4.05264 0.956573 0
M  V30 4282 H 388.316 -5.09505 -1.62201 0
M  V30 4283 H 388.659 -3.50212 -2.25071 0
M  V30 4284 H 389.192 -3.93141 -0.607069 0
M  V30 4285 H 385.931 -6.48354 0.965272 0
M  V30 4286 H 385.451 -5.96095 -0.665635 0
M  V30 4287 H 387.13 -6.46084 -0.344075 0
M  V30 4288 N 387.262 0.0317525 -1.57568 0
M  V30 4289 C 388.172 1.05021 -2.0978 0
M  V30 4290 C 389.188 1.39809 -1.03583 0
M  V30 4291 O 390.364 1.49182 -1.35302 0
M  V30 4292 C 387.429 2.33301 -2.56459 0
M  V30 4293 C 386.49 2.0512 -3.77127 0
M  V30 4294 C 385.723 3.27283 -4.2157 0
M  V30 4295 O 385.946 4.37861 -3.65559 0
M  V30 4296 O 384.88 3.13141 -5.14029 0
M  V30 4297 H 388.706 0.636505 -2.96955 0
M  V30 4298 H 386.291 0.248559 -1.47318 0
M  V30 4299 H 388.173 3.08722 -2.86825 0
M  V30 4300 H 386.848 2.73973 -1.72397 0
M  V30 4301 H 385.755 1.27276 -3.51784 0
M  V30 4302 H 387.088 1.69305 -4.62165 0
M  V30 4303 N 388.74 1.54641 0.303973 0
M  V30 4304 C 389.968 1.77768 1.05858 0
M  V30 4305 C 390.383 0.535722 1.8104 0
M  V30 4306 O 389.74 -0.494337 1.75677 0
M  V30 4307 C 389.791 2.9834 2.04146 0
M  V30 4308 O 389.512 4.17736 1.32015 0
M  V30 4309 C 391.013 3.33832 2.91669 0
M  V30 4310 H 388.233 0.592961 0.314067 0
M  V30 4311 H 390.777 2.01583 0.344149 0
M  V30 4312 H 388.932 2.76742 2.71096 0
M  V30 4313 H 389.346 4.85693 1.97998 0
M  V30 4314 H 390.82 4.21448 3.56491 0
M  V30 4315 H 391.297 2.51857 3.59812 0
M  V30 4316 H 391.903 3.57579 2.30254 0
M  V30 4317 N 390.218 -0.567019 1.47046 0
M  V30 4318 C 391.148 -1.68482 1.61667 0
M  V30 4319 C 392.129 -1.6358 0.466418 0
M  V30 4320 O 393.314 -1.81354 0.694574 0
M  V30 4321 C 390.444 -3.07124 1.62148 0
M  V30 4322 C 389.398 -3.26867 2.76301 0
M  V30 4323 C 388.724 -4.66196 2.61849 0
M  V30 4324 C 390.024 -3.13186 4.17986 0
M  V30 4325 H 391.718 -1.56502 2.5524 0
M  V30 4326 H 389.264 -0.751486 1.22836 0
M  V30 4327 H 391.217 -3.8516 1.70968 0
M  V30 4328 H 389.941 -3.2004 0.651287 0
M  V30 4329 H 388.6 -2.51237 2.66975 0
M  V30 4330 H 388.248 -4.75898 1.62879 0
M  V30 4331 H 387.948 -4.80356 3.38425 0
M  V30 4332 H 389.472 -5.46379 2.72584 0
M  V30 4333 H 390.886 -3.81049 4.2834 0
M  V30 4334 H 389.283 -3.3886 4.95272 0
M  V30 4335 H 390.353 -2.10057 4.3704 0
M  V30 4336 N 391.696 -1.35014 -0.812953 0
M  V30 4337 C 392.626 -1.30069 -1.93919 0
M  V30 4338 C 393.607 -0.176275 -1.69184 0
M  V30 4339 O 394.792 -0.370227 -1.90638 0
M  V30 4340 C 391.922 -1.06547 -3.30552 0
M  V30 4341 C 390.876 -2.15561 -3.69753 0
M  V30 4342 C 390.202 -1.77214 -5.04479 0
M  V30 4343 C 391.502 -3.57476 -3.808 0
M  V30 4344 H 393.196 -2.24303 -1.98314 0
M  V30 4345 H 390.742 -1.07977 -0.952736 0
M  V30 4346 H 392.695 -1.01729 -4.08937 0
M  V30 4347 H 391.419 -0.0875719 -3.26483 0
M  V30 4348 H 390.078 -2.19466 -2.9365 0
M  V30 4349 H 389.726 -0.780589 -4.96906 0
M  V30 4350 H 389.426 -2.50184 -5.31678 0
M  V30 4351 H 390.95 -1.7391 -5.8531 0
M  V30 4352 H 392.364 -3.55929 -4.4943 0
M  V30 4353 H 390.761 -4.29152 -4.19462 0
M  V30 4354 H 391.831 -3.94091 -2.82525 0
M  V30 4355 N 393.175 1.03435 -1.18907 0
M  V30 4356 C 394.138 2.09756 -0.923844 0
M  V30 4357 C 395.138 1.60528 0.093416 0
M  V30 4358 O 396.328 1.73631 -0.140727 0
M  V30 4359 C 393.46 3.38692 -0.387354 0
M  V30 4360 H 394.653 2.34719 -1.86674 0
M  V30 4361 H 392.206 1.19959 -1.00197 0
M  V30 4362 H 392.941 3.19396 0.561845 0
M  V30 4363 H 392.726 3.75742 -1.12074 0
M  V30 4364 H 394.216 4.17016 -0.220694 0
M  V30 4365 N 394.653 0.992116 1.22453 0
M  V30 4366 C 395.901 0.666215 1.90804 0
M  V30 4367 C 396.222 -0.804152 1.77647 0
M  V30 4368 O 395.492 -1.57629 1.16318 0
M  V30 4369 H 394.072 0.243423 0.706225 0
M  V30 4370 H 396.734 1.25845 1.48825 0
M  V30 4371 H 395.83 0.928069 2.97982 0
M  V30 4372 N 396.131 -1.37776 0.765217 0
M  V30 4373 C 397.356 -2.04651 0.336537 0
M  V30 4374 C 397.781 -1.57337 -1.03086 0
M  V30 4375 O 397.139 -0.730621 -1.65927 0
M  V30 4376 C 397.187 -3.58577 0.381468 0
M  V30 4377 O 396.291 -4.07706 -0.62042 0
M  V30 4378 H 395.632 -0.64756 0.146838 0
M  V30 4379 H 398.162 -1.76221 1.03959 0
M  V30 4380 H 398.172 -4.07314 0.236448 0
M  V30 4381 H 396.847 -3.9237 1.37907 0
M  V30 4382 H 395.424 -3.70306 -0.439056 0
M  V30 4383 N 397.609 -0.515225 -1.4894 0
M  V30 4384 C 399.025 -0.172099 -1.58669 0
M  V30 4385 C 399.225 1.32405 -1.51892 0
M  V30 4386 O 398.281 2.10116 -1.40027 0
M  V30 4387 C 399.594 -0.761533 -2.90897 0
M  V30 4388 C 401.142 -0.728926 -3.04394 0
M  V30 4389 C 401.617 -1.29667 -4.39261 0
M  V30 4390 N 403.108 -1.25799 -4.4579 0
M  V30 4391 C 403.843 -1.66733 -5.48623 0
M  V30 4392 N 403.339 -2.15327 -6.58488 0
M  V30 4393 N 405.132 -1.58061 -5.39419 0
M  V30 4394 H 397.283 -1.48778 -1.51588 0
M  V30 4395 H 399.546 -0.617968 -0.718901 0
M  V30 4396 H 399.252 -1.81136 -3.01468 0
M  V30 4397 H 399.126 -0.230106 -3.76497 0
M  V30 4398 H 401.513 0.312098 -2.93445 0
M  V30 4399 H 401.594 -1.29766 -2.20442 0
M  V30 4400 H 401.238 -2.33655 -4.50963 0
M  V30 4401 H 401.168 -0.703752 -5.21876 0
M  V30 4402 H 403.659 -0.902102 -3.66975 0
M  V30 4403 H 403.972 -2.44594 -7.33071 0
M  V30 4404 H 402.317 -2.19311 -6.59491 0
M  V30 4405 H 405.508 -1.19906 -4.52482 0
M  V30 4406 H 405.681 -1.90284 -6.19432 0
M  V30 4407 N 399.087 1.5561 -0.249682 0
M  V30 4408 C 400.05 2.20217 0.635394 0
M  V30 4409 C 401.05 1.17227 1.10066 0
M  V30 4410 O 402.24 1.42292 1.00492 0
M  V30 4411 C 399.372 2.84794 1.87363 0
M  V30 4412 H 400.565 2.99814 0.0716752 0
M  V30 4413 H 398.118 1.563 -0.000153234 0
M  V30 4414 H 398.853 2.09142 2.47851 0
M  V30 4415 H 398.638 3.60241 1.5482 0
M  V30 4416 H 400.128 3.3423 2.5036 0
M  V30 4417 N 400.565 -0.0233959 1.57583 0
M  V30 4418 C 401.528 -1.00693 2.05897 0
M  V30 4419 C 402.528 -1.28693 0.964092 0
M  V30 4420 O 403.718 -1.23602 1.22753 0
M  V30 4421 C 400.85 -2.33825 2.4807 0
M  V30 4422 H 402.043 -0.589476 2.9405 0
M  V30 4423 H 399.596 -0.270354 1.53944 0
M  V30 4424 H 400.331 -2.80307 1.6309 0
M  V30 4425 H 400.116 -2.1483 3.2801 0
M  V30 4426 H 401.606 -3.04426 2.85857 0
M  V30 4427 N 402.043 -1.548 -0.295768 0
M  V30 4428 C 403.289 -1.74588 -1.03184 0
M  V30 4429 C 403.622 -0.532962 -1.86744 0
M  V30 4430 O 402.897 0.469872 -1.88739 0
M  V30 4431 C 403.18 -3.03791 -1.93347 0
M  V30 4432 C 403.033 -4.35392 -1.12933 0
M  V30 4433 C 404.352 -3.28892 -2.92435 0
M  V30 4434 H 401.471 -0.635221 -0.373715 0
M  V30 4435 H 404.113 -1.87519 -0.30606 0
M  V30 4436 H 402.263 -2.92898 -2.55232 0
M  V30 4437 H 403.935 -4.58211 -0.532943 0
M  V30 4438 H 402.178 -4.31642 -0.432168 0
M  V30 4439 H 402.849 -5.22074 -1.79284 0
M  V30 4440 H 405.325 -3.39429 -2.4068 0
M  V30 4441 H 404.201 -4.20603 -3.52682 0
M  V30 4442 H 404.462 -2.47437 -3.6637 0
M  V30 4443 N 403.521 0.559213 -1.47345 0
M  V30 4444 C 404.767 1.31843 -1.54095 0
M  V30 4445 C 405.1 1.93149 -0.201726 0
M  V30 4446 O 404.375 1.77759 0.789428 0
M  V30 4447 C 404.658 2.43006 -2.65744 0
M  V30 4448 C 404.511 1.86581 -4.09277 0
M  V30 4449 C 405.83 3.44943 -2.73318 0
M  V30 4450 H 402.949 0.478012 -0.560957 0
M  V30 4451 H 405.591 0.625977 -1.79392 0
M  V30 4452 H 403.741 3.02072 -2.44305 0
M  V30 4453 H 405.413 1.31792 -4.42073 0
M  V30 4454 H 403.656 1.17268 -4.17649 0
M  V30 4455 H 404.327 2.66933 -4.83168 0
M  V30 4456 H 406.803 2.95793 -2.92653 0
M  V30 4457 H 405.679 4.20153 -3.53218 0
M  V30 4458 H 405.94 4.03665 -1.80296 0
M  V30 4459 N 404.999 1.35443 0.805782 0
M  V30 4460 C 406.245 1.28952 1.56522 0
M  V30 4461 C 406.578 -0.135597 1.93726 0
M  V30 4462 O 405.853 -1.08516 1.61414 0
M  V30 4463 C 406.136 2.19678 2.85331 0
M  V30 4464 C 405.989 3.7081 2.54598 0
M  V30 4465 C 407.308 2.09495 3.8704 0
M  V30 4466 H 404.427 0.469764 0.567883 0
M  V30 4467 H 407.069 1.65851 0.927001 0
M  V30 4468 H 405.219 1.8834 3.39795 0
M  V30 4469 H 406.891 4.12593 2.06312 0
M  V30 4470 H 405.134 3.91051 1.8778 0
M  V30 4471 H 405.805 4.29679 3.46525 0
M  V30 4472 H 408.281 2.37045 3.41978 0
M  V30 4473 H 407.157 2.75173 4.74943 0
M  V30 4474 H 407.418 1.07714 4.28777 0
M  V30 4475 N 406.477 -1.02803 1.19454 0
M  V30 4476 C 407.705 -1.79841 1.02297 0
M  V30 4477 C 408.12 -1.83879 -0.428259 0
M  V30 4478 O 407.477 -1.28345 -1.29745 0
M  V30 4479 C 407.528 -3.24852 1.58598 0
M  V30 4480 O 407.249 -3.21097 2.98041 0
M  V30 4481 C 408.75 -4.18485 1.46236 0
M  V30 4482 H 405.97 -0.565936 0.360496 0
M  V30 4483 H 408.514 -1.2948 1.58288 0
M  V30 4484 H 406.669 -3.72401 1.06753 0
M  V30 4485 H 407.083 -4.12033 3.24545 0
M  V30 4486 H 408.557 -5.18121 1.90407 0
M  V30 4487 H 409.034 -4.37254 0.41301 0
M  V30 4488 H 409.64 -3.76811 1.97215 0
M  V30 4489 N 407.956 -0.998596 -1.21925 0
M  V30 4490 C 409.233 -0.593401 -1.86382 0
M  V30 4491 C 409.613 0.92916 -1.89552 0
M  V30 4492 O 408.961 1.81347 -1.39017 0
M  V30 4493 C 409.171 -1.22039 -3.26967 0
M  V30 4494 C 410.519 -1.32449 -4.03413 0
M  V30 4495 O 411.543 -1.17522 -3.36254 0
M  V30 4496 O 410.402 -1.56395 -5.23644 0
M  V30 4497 H 407.496 -0.202385 -0.801854 0
M  V30 4498 H 410.042 -1.09484 -1.29659 0
M  V30 4499 H 408.814 -2.26158 -3.19325 0
M  V30 4500 H 408.437 -0.704906 -3.91301 0
M  V30 4501 N 409.434 1.37368 -0.772513 0
M  V30 4502 C 410.845 1.8231 -0.402493 0
M  V30 4503 C 411.196 1.6436 1.07146 0
M  V30 4504 O 410.321 1.15514 1.82991 0
M  V30 4505 C 410.916 3.30979 -0.723776 0
M  V30 4506 C 409.475 3.74195 -0.406802 0
M  V30 4507 C 408.622 2.59885 -0.967218 0
M  V30 4508 H 411.573 1.25829 -0.967099 0
M  V30 4509 H 411.594 3.80499 -0.00870832 0
M  V30 4510 H 411.106 3.44011 -1.7966 0
M  V30 4511 H 409.207 3.66732 0.658673 0
M  V30 4512 H 409.32 4.7027 -0.915588 0
M  V30 4513 H 407.684 2.51674 -0.391416 0
M  V30 4514 H 408.467 2.7571 -2.04546 0
M  V30 4515 N 410.912 0.523116 1.48665 0
M  V30 4516 C 412.328 0.180511 1.58576 0
M  V30 4517 C 412.528 -1.31597 1.52592 0
M  V30 4518 O 411.584 -2.0937 1.4114 0
M  V30 4519 C 412.897 0.776949 2.90489 0
M  V30 4520 C 414.445 0.745058 3.04003 0
M  V30 4521 C 414.92 1.31995 4.38567 0
M  V30 4522 N 416.411 1.28162 4.45117 0
M  V30 4523 C 417.146 1.6964 5.47731 0
M  V30 4524 N 416.642 2.18816 6.57337 0
M  V30 4525 N 418.435 1.6092 5.38573 0
M  V30 4526 H 410.586 1.4958 1.50797 0
M  V30 4527 H 412.849 0.621772 0.715614 0
M  V30 4528 H 412.555 1.82732 3.00503 0
M  V30 4529 H 412.429 0.25007 3.7637 0
M  V30 4530 H 414.816 -0.296532 2.93606 0
M  V30 4531 H 414.897 1.30933 2.1975 0
M  V30 4532 H 414.541 2.36043 4.49718 0
M  V30 4533 H 414.471 0.731418 5.21496 0
M  V30 4534 H 416.962 0.92155 3.66491 0
M  V30 4535 H 417.275 2.48478 7.31764 0
M  V30 4536 H 415.62 2.22805 6.58318 0
M  V30 4537 H 418.811 1.22304 4.5184 0
M  V30 4538 H 418.984 1.93567 6.18414 0
M  V30 4539 N 412.39 -1.55475 0.257931 0
M  V30 4540 C 413.618 -2.03609 -0.367559 0
M  V30 4541 C 414.033 -1.13687 -1.50734 0
M  V30 4542 O 413.39 -0.153479 -1.81853 0
M  V30 4543 C 413.441 -3.51001 -0.864908 0
M  V30 4544 O 413.162 -4.37499 0.229465 0
M  V30 4545 C 414.663 -4.14946 -1.55997 0
M  V30 4546 H 411.883 -0.665459 -0.0860521 0
M  V30 4547 H 414.427 -2.00843 0.385014 0
M  V30 4548 H 412.582 -3.54266 -1.56762 0
M  V30 4549 H 412.996 -5.24286 -0.14998 0
M  V30 4550 H 414.47 -5.19735 -1.85956 0
M  V30 4551 H 414.947 -3.6209 -2.4857 0
M  V30 4552 H 415.553 -4.15635 -0.901543 0
M  V30 4553 N 413.868 0.0150385 -1.57593 0
M  V30 4554 C 415.116 0.701613 -1.8953 0
M  V30 4555 C 415.437 1.75139 -0.857396 0
M  V30 4556 O 414.707 1.95607 0.107194 0
M  V30 4557 H 413.287 0.26213 -0.699498 0
M  V30 4558 H 415.949 -0.0223304 -1.94887 0
M  V30 4559 H 415.045 1.18236 -2.88837 0
M  V30 4560 N 415.346 1.54954 0.287554 0
M  V30 4561 C 416.594 1.74528 1.01904 0
M  V30 4562 C 416.915 0.541349 1.87335 0
M  V30 4563 O 416.185 -0.444108 1.908 0
M  V30 4564 H 414.765 0.643576 0.379235 0
M  V30 4565 H 417.427 1.92333 0.315294 0
M  V30 4566 H 416.523 2.64015 1.6644 0
M  V30 4567 N 416.824 -0.551391 1.4764 0
M  V30 4568 C 418.07 -1.31024 1.54792 0
M  V30 4569 C 418.403 -1.9304 0.211967 0
M  V30 4570 O 417.678 -1.78175 -0.77999 0
M  V30 4571 C 417.961 -2.41593 2.67029 0
M  V30 4572 C 417.814 -1.84408 4.10261 0
M  V30 4573 C 419.133 -3.43488 2.75143 0
M  V30 4574 H 416.252 -0.475031 0.563485 0
M  V30 4575 H 418.894 -0.616454 1.79722 0
M  V30 4576 H 417.044 -3.00772 2.45904 0
M  V30 4577 H 418.716 -1.29445 4.42766 0
M  V30 4578 H 416.959 -1.15051 4.18265 0
M  V30 4579 H 417.63 -2.64367 4.84576 0
M  V30 4580 H 420.106 -2.94236 2.94218 0
M  V30 4581 H 418.982 -4.18274 3.55441 0
M  V30 4582 H 419.243 -4.02703 1.82435 0
M  V30 4583 N 418.302 -1.35869 -0.798587 0
M  V30 4584 C 419.232 -1.32118 -1.92528 0
M  V30 4585 C 420.213 -0.194209 -1.68988 0
M  V30 4586 O 421.398 -0.390426 -1.90235 0
M  V30 4587 C 418.528 -1.10047 -3.29404 0
M  V30 4588 C 417.482 -2.19471 -3.67446 0
M  V30 4589 C 416.808 -1.82555 -5.02571 0
M  V30 4590 C 418.108 -3.61495 -3.76987 0
M  V30 4591 H 419.802 -2.26394 -1.95924 0
M  V30 4592 H 417.348 -1.08981 -0.94123 0
M  V30 4593 H 419.301 -1.06061 -4.07835 0
M  V30 4594 H 418.025 -0.122195 -3.26371 0
M  V30 4595 H 416.684 -2.22568 -2.91306 0
M  V30 4596 H 416.332 -0.833249 -4.9605 0
M  V30 4597 H 416.032 -2.5581 -5.28995 0
M  V30 4598 H 417.556 -1.80108 -5.83432 0
M  V30 4599 H 418.97 -3.60676 -4.4563 0
M  V30 4600 H 417.367 -4.33577 -4.14887 0
M  V30 4601 H 418.437 -3.97065 -2.78329 0
M  V30 4602 N 419.78 1.02168 -1.19998 0
M  V30 4603 C 420.743 2.08765 -0.94604 0
M  V30 4604 C 421.743 1.60618 0.0763846 0
M  V30 4605 O 422.933 1.73472 -0.159135 0
M  V30 4606 C 420.065 3.38262 -0.423255 0
M  V30 4607 H 421.258 2.32726 -1.89153 0
M  V30 4608 H 418.811 1.1889 -1.01464 0
M  V30 4609 H 419.546 3.19974 0.527938 0
M  V30 4610 H 419.331 3.74532 -1.16053 0
M  V30 4611 H 420.821 4.16759 -0.264911 0
M  V30 4612 N 421.258 1.00505 1.21394 0
M  V30 4613 C 422.188 0.585684 2.26035 0
M  V30 4614 C 423.169 -0.393525 1.65485 0
M  V30 4615 O 424.354 -0.281497 1.92149 0
M  V30 4616 C 421.484 -0.0884283 3.47187 0
M  V30 4617 C 420.438 0.810567 4.20254 0
M  V30 4618 C 419.764 0.00286382 5.347 0
M  V30 4619 C 421.064 2.1132 4.77641 0
M  V30 4620 H 422.758 1.46039 2.61368 0
M  V30 4621 H 420.304 0.703648 1.25638 0
M  V30 4622 H 422.257 -0.393286 4.19561 0
M  V30 4623 H 420.981 -0.997766 3.10986 0
M  V30 4624 H 419.64 1.09925 3.49731 0
M  V30 4625 H 419.288 -0.907765 4.94741 0
M  V30 4626 H 418.988 0.601444 5.84514 0
M  V30 4627 H 420.512 -0.295808 6.09883 0
M  V30 4628 H 421.926 1.87148 5.41893 0
M  V30 4629 H 420.323 2.66164 5.37845 0
M  V30 4630 H 421.393 2.78393 3.9702 0
M  V30 4631 N 422.737 -1.36956 0.779787 0
M  V30 4632 C 423.983 -1.99787 0.348281 0
M  V30 4633 C 424.316 -1.61756 -1.07465 0
M  V30 4634 O 423.591 -0.867639 -1.74075 0
M  V30 4635 C 423.874 -3.56597 0.50104 0
M  V30 4636 C 423.727 -4.04513 1.96697 0
M  V30 4637 C 425.046 -4.40008 -0.0898097 0
M  V30 4638 H 422.165 -0.725796 0.128022 0
M  V30 4639 H 424.807 -1.62514 0.984331 0
M  V30 4640 H 422.957 -3.88479 -0.0404347 0
M  V30 4641 H 424.629 -3.83161 2.56876 0
M  V30 4642 H 422.872 -3.56408 2.47297 0
M  V30 4643 H 423.543 -5.1352 2.02486 0
M  V30 4644 H 426.019 -4.14431 0.372293 0
M  V30 4645 H 424.895 -5.4888 0.0471605 0
M  V30 4646 H 425.156 -4.26035 -1.18096 0
M  V30 4647 N 424.215 -0.530993 -1.48385 0
M  V30 4648 C 425.44 0.000729535 -2.074 0
M  V30 4649 C 425.865 1.27298 -1.3848 0
M  V30 4650 O 425.223 1.75599 -0.451081 0
M  V30 4651 C 425.271 0.206697 -3.60007 0
M  V30 4652 O 424.375 1.27514 -3.92191 0
M  V30 4653 H 423.716 -0.039583 -0.662819 0
M  V30 4654 H 426.246 -0.739194 -1.9078 0
M  V30 4655 H 426.256 0.42904 -4.05738 0
M  V30 4656 H 424.931 -0.722675 -4.09573 0
M  V30 4657 H 423.508 1.03537 -3.58238 0
M  V30 4658 N 425.693 1.55336 -0.266172 0
M  V30 4659 C 426.921 2.03801 0.356756 0
M  V30 4660 C 427.336 1.14485 1.50129 0
M  V30 4661 O 426.693 0.163121 1.8177 0
M  V30 4662 C 426.744 3.51455 0.846281 0
M  V30 4663 O 426.465 4.37371 -0.252663 0
M  V30 4664 C 427.966 4.15767 1.53794 0
M  V30 4665 H 425.186 0.665906 0.0825218 0
M  V30 4666 H 427.73 2.00636 -0.39566 0
M  V30 4667 H 425.885 3.55092 1.54881 0
M  V30 4668 H 426.299 5.24358 0.122173 0
M  V30 4669 H 427.773 5.20714 1.83198 0
M  V30 4670 H 428.25 3.63404 2.46646 0
M  V30 4671 H 428.856 4.16107 0.879488 0
M  V30 4672 N 427.171 -0.0066808 1.57599 0
M  V30 4673 C 428.582 -0.550379 1.78403 0
M  V30 4674 C 428.933 -1.74339 0.900014 0
M  V30 4675 O 428.058 -2.16166 0.100713 0
M  V30 4676 C 428.653 -1.00523 3.23544 0
M  V30 4677 C 427.212 -1.49428 3.45468 0
M  V30 4678 C 426.359 -0.442444 2.73748 0
M  V30 4679 H 429.31 0.219508 1.57175 0
M  V30 4680 H 429.331 -1.87157 3.31289 0
M  V30 4681 H 428.843 -0.136735 3.87859 0
M  V30 4682 H 426.944 -2.3839 2.86358 0
M  V30 4683 H 427.057 -1.52635 4.54136 0
M  V30 4684 H 425.421 -0.902578 2.38171 0
M  V30 4685 H 426.204 0.416973 3.40758 0
M  V30 4686 N 428.649 -1.55105 -0.279332 0
M  V30 4687 C 429.874 -1.7976 -1.03446 0
M  V30 4688 C 430.299 -0.565952 -1.79384 0
M  V30 4689 O 429.657 0.484259 -1.74713 0
M  V30 4690 C 429.705 -3.0179 -1.97371 0
M  V30 4691 O 428.809 -2.76432 -3.06038 0
M  V30 4692 H 428.15 -0.594334 -0.29608 0
M  V30 4693 H 430.68 -2.02235 -0.310165 0
M  V30 4694 H 430.69 -3.30351 -2.39441 0
M  V30 4695 H 429.365 -3.91085 -1.4151 0
M  V30 4696 H 427.942 -2.58949 -2.68328 0
M  V30 4697 N 430.127 0.543554 -1.4793 0
M  V30 4698 C 431.357 1.32324 -1.58663 0
M  V30 4699 C 431.765 1.8766 -0.240896 0
M  V30 4700 O 431.108 1.66411 0.778011 0
M  V30 4701 C 431.17 2.52094 -2.56299 0
M  V30 4702 C 430.834 2.17944 -4.01683 0
M  V30 4703 C 431.831 1.74422 -4.89768 0
M  V30 4704 C 429.516 2.28884 -4.47121 0
M  V30 4705 C 431.51 1.42287 -6.21316 0
M  V30 4706 C 429.197 1.96361 -5.78693 0
M  V30 4707 C 430.195 1.53132 -6.65612 0
M  V30 4708 O 429.883 1.21029 -7.94737 0
M  V30 4709 H 429.615 0.409174 -0.538101 0
M  V30 4710 H 432.169 0.663887 -1.94375 0
M  V30 4711 H 430.399 3.20965 -2.15681 0
M  V30 4712 H 432.088 3.14165 -2.57012 0
M  V30 4713 H 432.854 1.65452 -4.55907 0
M  V30 4714 H 428.733 2.61488 -3.79664 0
M  V30 4715 H 432.277 1.08472 -6.89115 0
M  V30 4716 H 428.174 2.04967 -6.12094 0
M  V30 4717 H 428.942 1.34543 -8.07366 0
M  V30 4718 N 431.605 1.3629 0.791371 0
M  V30 4719 C 432.882 1.20962 1.53712 0
M  V30 4720 C 433.262 -0.205021 2.10102 0
M  V30 4721 O 432.61 -1.21042 1.93807 0
M  V30 4722 C 432.82 2.29002 2.63361 0
M  V30 4723 C 434.168 2.65572 3.31295 0
M  V30 4724 O 435.192 2.2803 2.73643 0
M  V30 4725 O 434.051 3.3018 4.35481 0
M  V30 4726 H 431.145 0.47086 0.679867 0
M  V30 4727 H 433.691 1.48016 0.830021 0
M  V30 4728 H 432.463 3.2382 2.19674 0
M  V30 4729 H 432.086 2.03303 3.41692 0
M  V30 4730 N 433.083 -1.0153 1.20538 0
M  V30 4731 C 434.494 -1.56598 1.01657 0
M  V30 4732 C 434.845 -1.91505 -0.426668 0
M  V30 4733 O 433.97 -1.72375 -1.30827 0
M  V30 4734 C 434.565 -2.84542 1.83905 0
M  V30 4735 C 433.124 -3.36133 1.69386 0
M  V30 4736 C 432.271 -2.09427 1.81757 0
M  V30 4737 H 435.222 -0.838974 1.34711 0
M  V30 4738 H 435.243 -3.56004 1.34319 0
M  V30 4739 H 434.755 -2.59105 2.8894 0
M  V30 4740 H 432.856 -3.66528 0.669933 0
M  V30 4741 H 432.969 -4.08248 2.50739 0
M  V30 4742 H 431.333 -2.21941 1.24957 0
M  V30 4743 H 432.116 -1.86414 2.88279 0
M  V30 4744 N 434.561 -1.01147 -1.20859 0
M  V30 4745 C 435.509 -0.57059 -2.25493 0
M  V30 4746 C 436.503 0.388109 -1.64894 0
M  V30 4747 O 437.709 0.258592 -1.78133 0
M  V30 4748 H 434.084 -0.166191 -0.733406 0
M  V30 4749 H 436.055 -1.46411 -2.60012 0
M  V30 4750 C 434.804 0.0805241 -3.47607 0
M  V30 4751 H 434.127 -0.648156 -3.94511 0
M  V30 4752 H 435.567 0.352197 -4.22535 0
M  V30 4753 C 434.026 1.32175 -3.09889 0
M  V30 4754 O 434.556 2.41553 -3.20959 0
M  V30 4755 N 432.762 1.20392 -2.64488 0
M  V30 4756 H 432.309 0.313905 -2.5568 0
M  V30 4757 H 432.267 2.03541 -2.39621 0
M  V30 4758 N 436.039 1.36541 -0.78704 0
M  V30 4759 C 436.969 2.32659 -0.197992 0
M  V30 4760 C 437.95 1.56533 0.665697 0
M  V30 4761 O 439.135 1.84698 0.60001 0
M  V30 4762 C 436.265 3.40778 0.669901 0
M  V30 4763 C 435.219 4.27897 -0.0937039 0
M  V30 4764 C 434.545 5.27163 0.894629 0
M  V30 4765 C 435.845 5.06334 -1.28154 0
M  V30 4766 H 437.539 2.82171 -1.00099 0
M  V30 4767 H 435.085 1.35665 -0.482793 0
M  V30 4768 H 437.038 4.07008 1.09191 0
M  V30 4769 H 435.762 2.89827 1.50558 0
M  V30 4770 H 434.421 3.6322 -0.49666 0
M  V30 4771 H 434.069 4.72486 1.72527 0
M  V30 4772 H 433.769 5.86317 0.388149 0
M  V30 4773 H 435.293 5.96266 1.31525 0
M  V30 4774 H 436.707 5.65617 -0.93541 0
M  V30 4775 H 435.104 5.74888 -1.72115 0
M  V30 4776 H 436.174 4.38114 -2.07807 0
M  V30 4777 N 437.518 0.538854 1.48102 0
M  V30 4778 C 438.765 0.0080018 2.02498 0
M  V30 4779 C 439.093 -1.33437 1.41509 0
M  V30 4780 O 438.348 -1.87709 0.553507 0
M  V30 4781 C 438.647 -0.153808 3.57069 0
M  V30 4782 C 438.313 1.11533 4.36888 0
M  V30 4783 C 436.975 1.46314 4.58417 0
M  V30 4784 C 439.327 1.95718 4.83057 0
M  V30 4785 C 436.655 2.6516 5.23361 0
M  V30 4786 C 439.007 3.13751 5.49312 0
M  V30 4787 C 437.671 3.48866 5.69077 0
M  V30 4788 H 436.941 0.00292807 0.740994 0
M  V30 4789 H 439.588 0.706668 1.77984 0
M  V30 4790 H 437.893 -0.935309 3.80472 0
M  V30 4791 H 439.59 -0.579607 3.96789 0
M  V30 4792 H 436.18 0.834484 4.20398 0
M  V30 4793 H 440.364 1.70158 4.66219 0
M  V30 4794 H 435.62 2.92558 5.36861 0
M  V30 4795 H 439.794 3.79282 5.84053 0
M  V30 4796 H 437.421 4.41054 6.19173 0
M  V30 4797 N 438.996 -1.55193 0.274407 0
M  V30 4798 C 440.242 -1.99877 -0.343086 0
M  V30 4799 C 440.575 -1.16256 -1.55558 0
M  V30 4800 O 439.85 -0.232462 -1.93106 0
M  V30 4801 C 440.133 -3.52706 -0.725965 0
M  V30 4802 C 439.986 -4.47081 0.493818 0
M  V30 4803 C 441.305 -4.11422 -1.56268 0
M  V30 4804 H 438.424 -0.726625 -0.123229 0
M  V30 4805 H 441.066 -1.86136 0.38121 0
M  V30 4806 H 439.216 -3.64546 -1.34307 0
M  V30 4807 H 440.888 -4.47186 1.13237 0
M  V30 4808 H 439.131 -4.1877 1.13201 0
M  V30 4809 H 439.802 -5.51699 0.18217 0
M  V30 4810 H 442.278 -4.02855 -1.04151 0
M  V30 4811 H 441.154 -5.18568 -1.79939 0
M  V30 4812 H 441.415 -3.61607 -2.54348 0
M  V30 4813 N 440.474 -0.00167713 -1.576 0
M  V30 4814 C 441.751 0.719951 -1.81868 0
M  V30 4815 C 442.131 1.91895 -0.879747 0
M  V30 4816 O 441.479 2.28389 0.0711423 0
M  V30 4817 C 441.689 1.12409 -3.30402 0
M  V30 4818 C 443.037 1.52724 -3.96182 0
M  V30 4819 O 444.061 1.21784 -3.34734 0
M  V30 4820 O 442.92 2.10265 -5.04431 0
M  V30 4821 H 440.014 0.350707 -0.748955 0
M  V30 4822 H 442.56 -0.0272597 -1.69678 0
M  V30 4823 H 441.332 0.269532 -3.90371 0
M  V30 4824 H 440.955 1.93035 -3.47596 0
M  V30 4825 N 441.952 1.55251 0.271103 0
M  V30 4826 C 443.2 1.75599 1.00047 0
M  V30 4827 C 443.521 0.561188 1.8675 0
M  V30 4828 O 442.791 -0.423846 1.9126 0
M  V30 4829 H 441.371 0.647562 0.372387 0
M  V30 4830 H 444.033 1.92656 0.294876 0
M  V30 4831 H 443.129 2.65766 1.6363 0
M  V30 4832 N 443.43 -0.535701 1.48216 0
M  V30 4833 C 444.679 -1.28828 1.55197 0
M  V30 4834 C 444.992 -1.94263 0.228278 0
M  V30 4835 O 446.198 -2.70927 0.176278 0
M  V30 4836 C 444.654 -2.33727 2.73678 0
M  V30 4837 C 444.262 -1.74386 4.12666 0
M  V30 4838 C 446.006 -3.1003 2.89968 0
M  V30 4839 C 443.913 -2.77192 5.22416 0
M  V30 4840 H 442.843 -0.484484 0.577747 0
M  V30 4841 H 445.494 -0.56646 1.74538 0
M  V30 4842 H 443.876 -3.08919 2.4776 0
M  V30 4843 H 445.05 -1.05421 4.48579 0
M  V30 4844 H 443.365 -1.10595 4.01445 0
M  V30 4845 H 445.962 -3.86842 3.6913 0
M  V30 4846 H 446.305 -3.65542 1.9921 0
M  V30 4847 H 446.838 -2.41952 3.15759 0
M  V30 4848 H 443.577 -2.26507 6.15122 0
M  V30 4849 H 443.097 -3.44502 4.90998 0
M  V30 4850 H 444.776 -3.40285 5.50286 0
M  V30 4851 N 444.908 -1.36708 -0.784132 0
M  V30 4852 C 446.133 -1.34565 -1.5782 0
M  V30 4853 C 446.558 0.0695257 -1.87971 0
M  V30 4854 O 445.916 1.04302 -1.48293 0
M  V30 4855 C 445.964 -2.17952 -2.87279 0
M  V30 4856 O 445.068 -1.57563 -3.81114 0
M  V30 4857 H 444.409 -0.460337 -0.478524 0
M  V30 4858 H 446.939 -1.80064 -0.971495 0
M  V30 4859 H 446.949 -2.30721 -3.365 0
M  V30 4860 H 445.624 -3.20823 -2.64661 0
M  V30 4861 H 444.201 -1.53764 -3.39722 0
M  V30 4862 N 446.386 1.0089 -1.21074 0
M  V30 4863 C 447.611 1.78727 -1.05221 0
M  V30 4864 C 448.036 1.83932 0.393795 0
M  V30 4865 O 447.394 1.28004 1.28393 0
M  V30 4866 C 447.442 3.20665 -1.64944 0
M  V30 4867 O 446.546 4.02632 -0.892273 0
M  V30 4868 H 445.887 0.550973 -0.370574 0
M  V30 4869 H 448.417 1.26847 -1.60534 0
M  V30 4870 H 448.427 3.71352 -1.69002 0
M  V30 4871 H 447.102 3.16191 -2.70177 0
M  V30 4872 H 445.679 3.61207 -0.926492 0
M  V30 4873 N 447.864 1.01787 1.20321 0
M  V30 4874 C 448.811 0.589197 2.23153 0
M  V30 4875 C 449.781 -0.391367 1.61423 0
M  V30 4876 O 450.966 -0.290518 1.88575 0
M  V30 4877 C 448.106 -0.0650747 3.45039 0
M  V30 4878 C 447.219 0.960207 4.21194 0
M  V30 4879 C 446.354 0.276854 5.30478 0
M  V30 4880 C 445.393 1.2888 5.98378 0
M  V30 4881 N 444.53 0.632031 6.99249 0
M  V30 4882 H 449.37 1.47071 2.59179 0
M  V30 4883 H 446.907 0.736192 1.27352 0
M  V30 4884 H 448.865 -0.461552 4.14639 0
M  V30 4885 H 447.495 -0.910233 3.09701 0
M  V30 4886 H 446.547 1.47484 3.50646 0
M  V30 4887 H 447.859 1.72977 4.67847 0
M  V30 4888 H 447.013 -0.175056 6.06447 0
M  V30 4889 H 445.752 -0.525004 4.84866 0
M  V30 4890 H 444.757 1.75109 5.21169 0
M  V30 4891 H 445.982 2.09196 6.46076 0
M  V30 4892 H 443.928 -0.149935 6.55829 0
M  V30 4893 H 443.845 1.33964 7.44036 0
M  V30 4894 H 445.113 0.203755 7.79234 0
M  V30 4895 N 449.342 -1.36122 0.79427 0
M  V30 4896 C 450.619 -1.93398 0.292685 0
M  V30 4897 C 450.999 -1.72567 -1.21589 0
M  V30 4898 O 450.347 -1.08745 -2.00965 0
M  V30 4899 C 450.557 -3.42099 0.690614 0
M  V30 4900 C 451.905 -4.19231 0.673105 0
M  V30 4901 O 452.929 -3.50559 0.631389 0
M  V30 4902 O 451.788 -5.41732 0.720362 0
M  V30 4903 H 448.882 -0.823712 0.0736693 0
M  V30 4904 H 451.428 -1.45273 0.87714 0
M  V30 4905 H 450.2 -3.50938 1.73085 0
M  V30 4906 H 449.823 -3.97519 0.0803036 0
M  V30 4907 N 450.82 -0.546701 -1.47814 0
M  V30 4908 C 452.05 -0.0232519 -2.06587 0
M  V30 4909 C 452.458 1.2712 -1.40133 0
M  V30 4910 O 451.801 1.77091 -0.488305 0
M  V30 4911 C 451.863 0.254117 -3.58601 0
M  V30 4912 C 451.527 -0.949331 -4.47031 0
M  V30 4913 C 452.524 -1.85216 -4.85789 0
M  V30 4914 C 450.209 -1.16104 -4.88697 0
M  V30 4915 C 452.203 -2.95047 -5.65001 0
M  V30 4916 C 449.89 -2.26247 -5.67676 0
M  V30 4917 C 450.888 -3.1555 -6.05737 0
M  V30 4918 O 450.576 -4.23784 -6.83127 0
M  V30 4919 H 450.308 -0.0380082 -0.674931 0
M  V30 4920 H 452.862 -0.756631 -1.90956 0
M  V30 4921 H 451.092 1.04168 -3.72406 0
M  V30 4922 H 452.781 0.72167 -3.99433 0
M  V30 4923 H 453.547 -1.70061 -4.54207 0
M  V30 4924 H 449.426 -0.475159 -4.58545 0
M  V30 4925 H 452.97 -3.64778 -5.94628 0
M  V30 4926 H 448.867 -2.41379 -5.98671 0
M  V30 4927 H 449.635 -4.21701 -7.01506 0
M  V30 4928 N 452.299 1.55045 -0.282633 0
M  V30 4929 C 453.524 2.04628 0.337977 0
M  V30 4930 C 453.949 1.15937 1.48123 0
M  V30 4931 O 453.307 0.159532 1.80597 0
M  V30 4932 C 453.355 3.51854 0.78936 0
M  V30 4933 O 452.459 3.66236 1.89592 0
M  V30 4934 H 451.8 0.660434 0.0687261 0
M  V30 4935 H 454.33 2.00261 -0.419124 0
M  V30 4936 H 454.34 3.93361 1.08311 0
M  V30 4937 H 453.015 4.15873 -0.0470419 0
M  V30 4938 H 451.592 3.36633 1.60413 0
M  V30 4939 N 453.777 0.010035 1.57597 0
M  V30 4940 C 454.74 -0.963029 2.07986 0
M  V30 4941 C 455.74 -1.26619 0.991173 0
M  V30 4942 O 456.93 -1.2097 1.25347 0
M  V30 4943 C 454.062 -2.2851 2.52974 0
M  V30 4944 H 455.255 -0.526971 2.95234 0
M  V30 4945 H 452.808 -0.237639 1.54483 0
M  V30 4946 H 453.543 -2.76784 1.69 0
M  V30 4947 H 453.328 -2.07824 3.32493 0
M  V30 4948 H 454.818 -2.98294 2.9225 0
M  V30 4949 N 455.255 -1.55392 -0.262866 0
M  V30 4950 C 456.185 -1.91978 -1.32917 0
M  V30 4951 C 457.166 -0.7828 -1.51017 0
M  V30 4952 O 458.351 -1.04178 -1.63892 0
M  V30 4953 C 455.481 -2.20055 -2.68687 0
M  V30 4954 C 454.435 -3.35854 -2.65304 0
M  V30 4955 C 453.761 -3.49435 -4.04721 0
M  V30 4956 C 455.061 -4.71977 -2.23685 0
M  V30 4957 H 456.755 -2.81292 -1.02544 0
M  V30 4958 H 454.301 -1.3534 -0.491846 0
M  V30 4959 H 456.254 -2.44237 -3.43404 0
M  V30 4960 H 454.978 -1.27551 -3.00663 0
M  V30 4961 H 453.637 -3.11655 -1.93045 0
M  V30 4962 H 453.285 -2.54379 -4.33936 0
M  V30 4963 H 452.985 -4.27297 -4.0335 0
M  V30 4964 H 454.509 -3.7592 -4.81161 0
M  V30 4965 H 455.923 -4.95637 -2.88127 0
M  V30 4966 H 454.32 -5.52828 -2.33456 0
M  V30 4967 H 455.39 -4.70115 -1.18827 0
M  V30 4968 N 456.733 0.527833 -1.48498 0
M  V30 4969 C 457.663 1.64136 -1.66077 0
M  V30 4970 C 458.644 1.62286 -0.509625 0
M  V30 4971 O 459.829 1.79449 -0.742413 0
M  V30 4972 C 456.959 3.02717 -1.70234 0
M  V30 4973 C 455.913 3.19426 -2.8487 0
M  V30 4974 C 455.239 4.5909 -2.74118 0
M  V30 4975 C 456.539 3.01993 -4.26142 0
M  V30 4976 H 458.233 1.4968 -2.593 0
M  V30 4977 H 455.779 0.718654 -1.24785 0
M  V30 4978 H 457.732 3.80491 -1.8112 0
M  V30 4979 H 456.456 3.18201 -0.735911 0
M  V30 4980 H 455.115 2.4407 -2.73542 0
M  V30 4981 H 454.763 4.71413 -1.7544 0
M  V30 4982 H 454.463 4.71214 -3.51042 0
M  V30 4983 H 455.987 5.3896 -2.86974 0
M  V30 4984 H 457.401 3.69558 -4.38292 0
M  V30 4985 H 455.798 3.2561 -5.04082 0
M  V30 4986 H 456.868 1.98396 -4.42456 0
M  V30 4987 N 458.211 1.37122 0.776871 0
M  V30 4988 C 459.159 1.32549 1.91138 0
M  V30 4989 C 460.153 0.215119 1.68029 0
M  V30 4990 O 461.359 0.382852 1.75881 0
M  V30 4991 H 457.734 0.412952 0.62847 0
M  V30 4992 H 459.705 2.28332 1.92112 0
M  V30 4993 C 458.454 1.14422 3.28333 0
M  V30 4994 H 457.777 1.99115 3.46689 0
M  V30 4995 H 459.217 1.15272 4.0803 0
M  V30 4996 C 457.676 -0.150434 3.36564 0
M  V30 4997 O 458.206 -1.13584 3.85307 0
M  V30 4998 N 456.412 -0.19939 2.89915 0
M  V30 4999 H 455.959 0.603142 2.5044 0
M  V30 5000 H 455.917 -1.06526 2.95803 0
M  V30 5001 N 459.689 -1.00246 1.21608 0
M  V30 5002 C 460.966 -1.71336 0.943568 0
M  V30 5003 C 461.346 -2.03972 -0.543943 0
M  V30 5004 O 460.694 -1.71545 -1.50946 0
M  V30 5005 C 460.904 -2.97094 1.83128 0
M  V30 5006 C 462.252 -3.70071 2.08165 0
M  V30 5007 O 463.276 -3.07081 1.80498 0
M  V30 5008 O 462.135 -4.83376 2.54971 0
M  V30 5009 H 459.229 -0.747386 0.354039 0
M  V30 5010 H 461.775 -1.05967 1.32549 0
M  V30 5011 H 460.547 -2.69407 2.83788 0
M  V30 5012 H 460.17 -3.70204 1.45034 0
M  V30 5013 N 461.167 -1.02423 -1.1978 0
M  V30 5014 C 462.578 -0.748389 -1.71044 0
M  V30 5015 C 462.929 0.732398 -1.82017 0
M  V30 5016 O 462.054 1.57116 -1.48807 0
M  V30 5017 C 462.649 -1.35187 -3.1066 0
M  V30 5018 C 461.208 -1.12472 -3.59203 0
M  V30 5019 C 460.355 -1.45283 -2.36195 0
M  V30 5020 H 463.306 -1.19275 -1.04686 0
M  V30 5021 H 463.327 -0.746408 -3.73107 0
M  V30 5022 H 462.839 -2.4296 -3.02642 0
M  V30 5023 H 460.94 -0.0649983 -3.72543 0
M  V30 5024 H 461.053 -1.81016 -4.43588 0
M  V30 5025 H 459.417 -0.872034 -2.39307 0
M  V30 5026 H 460.2 -2.54129 -2.30811 0
M  V30 5027 N 462.645 1.35699 -0.801477 0
M  V30 5028 C 463.593 2.3177 -0.196317 0
M  V30 5029 C 464.587 1.56388 0.651081 0
M  V30 5030 O 465.793 1.71557 0.544815 0
M  V30 5031 H 462.168 0.750669 -0.0447189 0
M  V30 5032 H 464.139 2.8036 -1.02181 0
M  V30 5033 C 462.888 3.41671 0.644702 0
M  V30 5034 H 462.211 3.998 0.0019921 0
M  V30 5035 H 463.651 4.11184 1.0346 0
M  V30 5036 C 462.11 2.84271 1.80808 0
M  V30 5037 O 462.64 2.77408 2.9053 0
M  V30 5038 N 460.846 2.41391 1.61799 0
M  V30 5039 H 460.393 2.47173 0.725493 0
M  V30 5040 H 460.351 2.03334 2.39797 0
M  V30 5041 N 464.123 0.554532 1.47522 0
M  V30 5042 C 465.351 0.034257 2.06872 0
M  V30 5043 C 465.766 -1.25826 1.40759 0
M  V30 5044 O 465.123 -1.75425 0.503217 0
M  V30 5045 C 465.174 -0.167827 3.6111 0
M  V30 5046 O 464.895 1.07351 4.24744 0
M  V30 5047 C 466.396 -0.72569 4.3732 0
M  V30 5048 H 463.616 0.0446275 0.669514 0
M  V30 5049 H 466.16 0.767181 1.89564 0
M  V30 5050 H 464.315 -0.850872 3.7794 0
M  V30 5051 H 464.729 0.869563 5.17242 0
M  V30 5052 H 466.203 -0.816394 5.45929 0
M  V30 5053 H 466.68 -1.73635 4.0342 0
M  V30 5054 H 467.286 -0.0784292 4.25228 0
M  V30 5055 N 465.601 -1.54893 0.290851 0
M  V30 5056 C 467.012 -1.85584 -0.203816 0
M  V30 5057 C 467.363 -1.21285 -1.54222 0
M  V30 5058 O 466.488 -0.506841 -2.10381 0
M  V30 5059 C 467.083 -3.367 -0.376595 0
M  V30 5060 C 465.642 -3.6746 -0.815485 0
M  V30 5061 C 464.789 -2.77178 0.0821087 0
M  V30 5062 H 467.74 -1.50208 0.512175 0
M  V30 5063 H 467.761 -3.60656 -1.21275 0
M  V30 5064 H 467.273 -3.8347 0.59767 0
M  V30 5065 H 465.374 -3.26201 -1.80066 0
M  V30 5066 H 465.487 -4.7478 -0.641905 0
M  V30 5067 H 463.851 -2.50925 -0.436895 0
M  V30 5068 H 464.634 -3.26767 1.05254 0
M  V30 5069 N 467.08 -0.0183926 -1.57589 0
M  V30 5070 C 468.01 0.965596 -2.12599 0
M  V30 5071 C 468.991 1.34641 -1.0395 0
M  V30 5072 O 470.176 1.42693 -1.31729 0
M  V30 5073 C 467.306 2.25149 -2.64434 0
M  V30 5074 C 466.26 2.01175 -3.77773 0
M  V30 5075 C 465.586 3.35937 -4.15994 0
M  V30 5076 C 466.886 1.35953 -5.04296 0
M  V30 5077 H 468.58 0.507504 -2.95067 0
M  V30 5078 H 466.126 0.242671 -1.41941 0
M  V30 5079 H 468.079 2.94357 -3.01549 0
M  V30 5080 H 466.803 2.73105 -1.79112 0
M  V30 5081 H 465.462 1.34388 -3.4108 0
M  V30 5082 H 465.11 3.81631 -3.27669 0
M  V30 5083 H 464.81 3.20705 -4.92364 0
M  V30 5084 H 466.334 4.0643 -4.55683 0
M  V30 5085 H 467.748 1.95144 -5.39065 0
M  V30 5086 H 466.145 1.31152 -5.85593 0
M  V30 5087 H 467.215 0.331071 -4.83768 0
M  V30 5088 N 468.558 1.5553 0.254621 0
M  V30 5089 C 469.804 1.77262 0.985193 0
M  V30 5090 C 470.137 0.582286 1.85265 0
M  V30 5091 O 469.412 -0.419666 1.89919 0
M  V30 5092 C 469.695 3.0881 1.85225 0
M  V30 5093 C 469.548 4.38233 1.0135 0
M  V30 5094 C 470.867 3.3653 2.83612 0
M  V30 5095 H 467.986 0.644906 0.356742 0
M  V30 5096 H 470.628 1.88264 0.256236 0
M  V30 5097 H 468.778 2.99562 2.47376 0
M  V30 5098 H 470.45 4.59463 0.411269 0
M  V30 5099 H 468.693 4.32636 0.317574 0
M  V30 5100 H 469.364 5.26644 1.65379 0
M  V30 5101 H 471.84 3.45691 2.31596 0
M  V30 5102 H 470.716 4.29805 3.41407 0
M  V30 5103 H 470.977 2.57064 3.59681 0
M  V30 5104 N 470.036 -0.519951 1.48776 0
M  V30 5105 C 470.984 -1.64443 1.64503 0
M  V30 5106 C 471.978 -1.61501 0.511248 0
M  V30 5107 O 473.184 -1.66238 0.690294 0
M  V30 5108 H 469.559 -0.544776 0.518385 0
M  V30 5109 H 471.53 -1.48325 2.58925 0
M  V30 5110 C 470.279 -3.02673 1.71127 0
M  V30 5111 H 469.602 -3.05635 2.57735 0
M  V30 5112 H 471.042 -3.80941 1.86172 0
M  V30 5113 C 469.501 -3.33854 0.452032 0
M  V30 5114 O 470.031 -3.99385 -0.430678 0
M  V30 5115 N 468.237 -2.88825 0.32069 0
M  V30 5116 H 467.784 -2.35674 1.03998 0
M  V30 5117 H 467.742 -3.10056 -0.520814 0
M  V30 5118 N 471.514 -1.37532 -0.769588 0
M  V30 5119 C 472.93 -1.18379 -1.07045 0
M  V30 5120 C 473.13 -0.0214312 -2.01489 0
M  V30 5121 O 472.186 0.637809 -2.44312 0
M  V30 5122 C 473.499 -2.50338 -1.66588 0
M  V30 5123 C 475.047 -2.56879 -1.78835 0
M  V30 5124 C 475.522 -3.88974 -2.41792 0
M  V30 5125 N 477.013 -3.90428 -2.4924 0
M  V30 5126 C 477.748 -4.89388 -2.98809 0
M  V30 5127 N 477.244 -5.98745 -3.48535 0
M  V30 5128 N 479.037 -4.76791 -2.97703 0
M  V30 5129 H 471.188 -2.11921 -0.142541 0
M  V30 5130 H 473.451 -0.939608 -0.125863 0
M  V30 5131 H 473.157 -3.35767 -1.0466 0
M  V30 5132 H 473.031 -2.67583 -2.65856 0
M  V30 5133 H 475.418 -1.71856 -2.39895 0
M  V30 5134 H 475.499 -2.43516 -0.783166 0
M  V30 5135 H 475.143 -4.74412 -1.81371 0
M  V30 5136 H 475.073 -3.99641 -3.4292 0
M  V30 5137 H 477.564 -3.11433 -2.14052 0
M  V30 5138 H 477.877 -6.70205 -3.84767 0
M  V30 5139 H 476.222 -6.02387 -3.46634 0
M  V30 5140 H 479.413 -3.90478 -2.58157 0
M  V30 5141 H 479.586 -5.54069 -3.36024 0
M  V30 5142 N 472.992 0.995999 -1.22138 0
M  V30 5143 C 473.955 2.06711 -0.990109 0
M  V30 5144 C 474.955 1.60744 0.0422978 0
M  V30 5145 O 476.145 1.73095 -0.195895 0
M  V30 5146 C 473.277 3.37288 -0.49491 0
M  V30 5147 H 474.47 2.28661 -1.94047 0
M  V30 5148 H 472.023 1.16711 -1.03963 0
M  V30 5149 H 472.758 3.21022 0.459948 0
M  V30 5150 H 472.543 3.71986 -1.23971 0
M  V30 5151 H 474.033 4.16103 -0.353253 0
M  V30 5152 N 474.47 1.03057 1.19235 0
M  V30 5153 C 475.698 0.747697 1.92917 0
M  V30 5154 C 476.113 -0.69372 1.75593 0
M  V30 5155 O 475.47 -1.47191 1.07894 0
M  V30 5156 C 475.521 1.09159 3.44625 0
M  V30 5157 O 475.242 2.47641 3.61394 0
M  V30 5158 C 476.743 0.831763 4.35427 0
M  V30 5159 H 473.963 0.273453 0.612751 0
M  V30 5160 H 476.507 1.37552 1.51327 0
M  V30 5161 H 474.662 0.508919 3.84043 0
M  V30 5162 H 475.076 2.60499 4.55237 0
M  V30 5163 H 476.55 1.12233 5.4047 0
M  V30 5164 H 477.027 -0.233769 4.38577 0
M  V30 5165 H 477.633 1.39725 4.01693 0
M  V30 5166 N 475.948 -1.35272 0.808662 0
M  V30 5167 C 476.88 -2.28507 0.178149 0
M  V30 5168 C 477.893 -1.50377 -0.623754 0
M  V30 5169 O 479.082 -1.72583 -0.455774 0
M  V30 5170 C 476.182 -3.30038 -0.769959 0
M  V30 5171 C 475.355 -4.37398 -0.0139749 0
M  V30 5172 C 474.414 -5.18775 -0.880875 0
M  V30 5173 O 473.44 -5.68236 -0.331059 0
M  V30 5174 N 474.642 -5.37087 -2.20267 0
M  V30 5175 H 477.407 -2.83255 0.979106 0
M  V30 5176 H 474.968 -1.47643 0.664308 0
M  V30 5177 H 476.96 -3.81371 -1.35418 0
M  V30 5178 H 475.53 -2.75789 -1.47171 0
M  V30 5179 H 474.75 -3.86971 0.751468 0
M  V30 5180 H 476.038 -5.06268 0.506965 0
M  V30 5181 H 475.436 -4.9855 -2.67328 0
M  V30 5182 H 473.993 -5.91593 -2.73608 0
M  V30 5183 N 477.426 -0.562348 -1.47226 0
M  V30 5184 C 478.674 -0.0401371 -2.0206 0
M  V30 5185 C 478.995 1.3165 -1.43852 0
M  V30 5186 O 478.265 1.85976 -0.615599 0
M  V30 5187 H 476.845 -0.0118479 -0.746906 0
M  V30 5188 H 479.507 -0.73352 -1.8057 0
M  V30 5189 H 478.603 0.0441254 -3.12069 0
M  V30 5190 N 478.904 1.54736 -0.299062 0
M  V30 5191 C 480.15 2.00397 0.311244 0
M  V30 5192 C 480.483 1.18716 1.53688 0
M  V30 5193 O 479.758 0.263154 1.92712 0
M  V30 5194 C 480.041 3.53817 0.669761 0
M  V30 5195 C 479.894 4.46239 -0.564882 0
M  V30 5196 C 481.213 4.13856 1.49702 0
M  V30 5197 H 478.332 0.728493 0.111653 0
M  V30 5198 H 480.974 1.85506 -0.410774 0
M  V30 5199 H 479.124 3.66637 1.28491 0
M  V30 5200 H 480.796 4.45328 -1.20337 0
M  V30 5201 H 479.039 4.16916 -1.19849 0
M  V30 5202 H 479.71 5.5134 -0.269918 0
M  V30 5203 H 482.186 4.04461 0.977284 0
M  V30 5204 H 481.062 5.21365 1.71666 0
M  V30 5205 H 481.323 3.65608 2.48563 0
M  V30 5206 N 480.382 0.0267497 1.57577 0
M  V30 5207 C 481.612 -0.6617 1.95717 0
M  V30 5208 C 482.02 -1.66331 0.901706 0
M  V30 5209 O 481.363 -1.83273 -0.125241 0
M  V30 5210 C 481.425 -1.42649 3.29987 0
M  V30 5211 C 481.089 -0.583482 4.5326 0
M  V30 5212 C 482.086 0.140221 5.19711 0
M  V30 5213 C 479.771 -0.521581 4.99585 0
M  V30 5214 C 481.765 0.914523 6.30805 0
M  V30 5215 C 479.452 0.256428 6.10562 0
M  V30 5216 C 480.45 0.973189 6.76031 0
M  V30 5217 O 480.138 1.73845 7.84878 0
M  V30 5218 H 479.87 -0.187483 0.649481 0
M  V30 5219 H 482.424 0.0820847 2.05236 0
M  V30 5220 H 480.654 -2.21536 3.16952 0
M  V30 5221 H 482.343 -2.00282 3.53047 0
M  V30 5222 H 483.109 0.101716 4.84893 0
M  V30 5223 H 478.988 -1.06904 4.48433 0
M  V30 5224 H 482.532 1.4745 6.81839 0
M  V30 5225 H 478.429 0.296657 6.44818 0
M  V30 5226 H 479.197 1.65797 8.01532 0
M  V30 5227 N 481.861 -1.55662 -0.24637 0
M  V30 5228 C 483.272 -1.67953 -0.81539 0
M  V30 5229 C 483.623 -0.624302 -1.86002 0
M  V30 5230 O 482.748 0.229328 -2.15181 0
M  V30 5231 C 483.343 -3.04484 -1.48576 0
M  V30 5232 C 481.902 -3.18713 -2.00248 0
M  V30 5233 C 481.049 -2.6383 -0.853766 0
M  V30 5234 H 484 -1.58685 -0.0221692 0
M  V30 5235 H 484.021 -2.98959 -2.3538 0
M  V30 5236 H 483.533 -3.81264 -0.725222 0
M  V30 5237 H 481.634 -2.46757 -2.79181 0
M  V30 5238 H 481.747 -4.25628 -2.1995 0
M  V30 5239 H 480.111 -2.21667 -1.25442 0
M  V30 5240 H 480.894 -3.43135 -0.106302 0
M  V30 5241 N 483.339 0.512053 -1.4905 0
M  V30 5242 C 484.75 1.09376 -1.51307 0
M  V30 5243 C 485.101 1.94 -0.292971 0
M  V30 5244 O 484.226 2.07965 0.598277 0
M  V30 5245 C 484.821 1.99031 -2.74176 0
M  V30 5246 C 483.38 2.52385 -2.79247 0
M  V30 5247 C 482.527 1.29749 -2.45073 0
M  V30 5248 H 485.478 0.296467 -1.55906 0
M  V30 5249 H 485.499 2.83569 -2.53711 0
M  V30 5250 H 485.011 1.37412 -3.62959 0
M  V30 5251 H 483.112 3.17673 -1.94716 0
M  V30 5252 H 483.225 2.90293 -3.81139 0
M  V30 5253 H 481.589 1.61912 -1.96612 0
M  V30 5254 H 482.372 0.698555 -3.36118 0
M  V30 5255 N 484.817 1.37938 0.762283 0
M  V30 5256 C 485.78 1.34279 1.85747 0
M  V30 5257 C 486.78 0.244969 1.58923 0
M  V30 5258 O 487.97 0.501365 1.66829 0
M  V30 5259 C 485.102 1.08833 3.23061 0
M  V30 5260 H 486.295 2.31705 1.90401 0
M  V30 5261 H 483.848 1.23105 0.963057 0
M  V30 5262 H 484.583 0.119767 3.24079 0
M  V30 5263 H 484.368 1.88306 3.43923 0
M  V30 5264 H 485.858 1.08946 4.03138 0
M  V30 5265 N 486.295 -0.989507 1.22664 0
M  V30 5266 C 487.52 -1.77031 1.08051 0
M  V30 5267 C 487.945 -1.84535 -0.364483 0
M  V30 5268 O 487.303 -1.3003 -1.2634 0
M  V30 5269 C 487.351 -3.18 1.70024 0
M  V30 5270 O 486.455 -4.01161 0.956216 0
M  V30 5271 H 485.796 -0.545008 0.379292 0
M  V30 5272 H 488.326 -1.24277 1.62531 0
M  V30 5273 H 488.336 -3.68616 1.74888 0
M  V30 5274 H 487.011 -3.11853 2.75174 0
M  V30 5275 H 485.588 -3.59687 0.98384 0
M  V30 5276 N 487.773 -1.03688 -1.18687 0
M  V30 5277 C 489.001 -0.757918 -1.92518 0
M  V30 5278 C 489.416 0.684398 -1.75959 0
M  V30 5279 O 488.773 1.46617 -1.08673 0
M  V30 5280 C 488.824 -1.10985 -3.44042 0
M  V30 5281 O 488.545 -2.49554 -3.60076 0
M  V30 5282 C 490.046 -0.854844 -4.3498 0
M  V30 5283 H 487.266 -0.276699 -0.611293 0
M  V30 5284 H 489.81 -1.38352 -1.50595 0
M  V30 5285 H 487.965 -0.529279 -3.83767 0
M  V30 5286 H 488.379 -2.6291 -4.53849 0
M  V30 5287 H 489.853 -1.15098 -5.39867 0
M  V30 5288 H 490.33 0.210507 -4.38695 0
M  V30 5289 H 490.936 -1.41853 -4.00946 0
M  V30 5290 N 489.251 1.34841 -0.815825 0
M  V30 5291 C 490.497 1.98793 -0.401129 0
M  V30 5292 C 490.83 1.64548 1.03139 0
M  V30 5293 O 490.105 0.913487 1.71714 0
M  V30 5294 C 490.388 3.55143 -0.595409 0
M  V30 5295 C 490.241 3.99155 -2.07352 0
M  V30 5296 C 491.56 4.40092 -0.0268823 0
M  V30 5297 H 488.679 0.722146 -0.14722 0
M  V30 5298 H 491.321 1.59847 -1.02707 0
M  V30 5299 H 489.471 3.8845 -0.0625779 0
M  V30 5300 H 491.143 3.76216 -2.66945 0
M  V30 5301 H 489.386 3.49726 -2.56659 0
M  V30 5302 H 490.057 5.07971 -2.1603 0
M  V30 5303 H 492.533 4.13298 -0.482042 0
M  V30 5304 H 491.409 5.48562 -0.19267 0
M  V30 5305 H 491.67 4.29016 1.06759 0
M  V30 5306 N 490.729 0.570148 1.46925 0
M  V30 5307 C 491.676 -0.170257 2.30171 0
M  V30 5308 C 492.646 -0.896099 1.39855 0
M  V30 5309 O 493.831 -0.889248 1.68811 0
M  V30 5310 C 490.971 -1.18605 3.24079 0
M  V30 5311 C 490.084 -0.464947 4.29491 0
M  V30 5312 C 489.219 -1.46716 5.10537 0
M  V30 5313 C 488.258 -0.731758 6.0771 0
M  V30 5314 N 487.395 -1.68142 6.81669 0
M  V30 5315 H 492.235 0.545713 2.92961 0
M  V30 5316 H 489.772 0.280938 1.44392 0
M  V30 5317 H 491.73 -1.78771 3.76957 0
M  V30 5318 H 490.36 -1.86989 2.63125 0
M  V30 5319 H 489.412 0.251506 3.79568 0
M  V30 5320 H 490.724 0.110548 4.98677 0
M  V30 5321 H 489.878 -2.14199 5.6763 0
M  V30 5322 H 488.617 -2.07658 4.41282 0
M  V30 5323 H 487.622 -0.0430787 5.49783 0
M  V30 5324 H 488.847 -0.127904 6.7898 0
M  V30 5325 H 486.793 -2.27918 6.15134 0
M  V30 5326 H 486.71 -1.15841 7.47072 0
M  V30 5327 H 487.978 -2.347 7.43328 0
M  V30 5328 N 492.207 -1.54576 0.307264 0
M  V30 5329 C 493.618 -1.8579 -0.184121 0
M  V30 5330 C 493.969 -1.22914 -1.52927 0
M  V30 5331 O 493.094 -0.529126 -2.09831 0
M  V30 5332 C 493.689 -3.37081 -0.340862 0
M  V30 5333 C 492.248 -3.68304 -0.776465 0
M  V30 5334 C 491.395 -2.77076 0.111503 0
M  V30 5335 H 494.346 -1.49656 0.528078 0
M  V30 5336 H 494.367 -3.61922 -1.17443 0
M  V30 5337 H 493.879 -3.82815 0.638309 0
M  V30 5338 H 491.98 -3.28092 -1.76596 0
M  V30 5339 H 492.093 -4.75434 -0.591512 0
M  V30 5340 H 490.457 -2.51374 -0.410256 0
M  V30 5341 H 491.24 -3.25632 1.08714 0
M  V30 5342 N 493.685 -0.035106 -1.57561 0
M  V30 5343 C 494.915 0.651312 -1.96065 0
M  V30 5344 C 495.323 1.6585 -0.910514 0
M  V30 5345 O 494.666 1.83336 0.11552 0
M  V30 5346 C 494.728 1.40897 -3.30739 0
M  V30 5347 C 494.392 0.559436 -4.53563 0
M  V30 5348 C 495.389 -0.16778 -5.19629 0
M  V30 5349 C 493.074 0.495079 -4.99854 0
M  V30 5350 C 495.068 -0.947963 -6.30311 0
M  V30 5351 C 492.755 -0.288804 -6.10417 0
M  V30 5352 C 493.753 -1.00903 -6.75505 0
M  V30 5353 O 493.441 -1.78005 -7.83945 0
M  V30 5354 H 493.173 0.184036 -0.650467 0
M  V30 5355 H 495.727 -0.0929677 -2.05189 0
M  V30 5356 H 493.957 2.19852 -3.18123 0
M  V30 5357 H 495.646 1.98407 -3.54104 0
M  V30 5358 H 496.412 -0.12743 -4.84833 0
M  V30 5359 H 492.291 1.04524 -4.48994 0
M  V30 5360 H 495.835 -1.51064 -6.81047 0
M  V30 5361 H 491.732 -0.33085 -6.44652 0
M  V30 5362 H 492.5 -1.70046 -8.00641 0
M  V30 5363 N 495.163 1.55791 0.238111 0
M  V30 5364 C 496.409 1.78297 0.966337 0
M  V30 5365 C 496.742 0.601903 1.84637 0
M  V30 5366 O 496.017 -0.399499 1.90353 0
M  V30 5367 C 496.3 3.10758 1.81939 0
M  V30 5368 C 496.153 4.39283 0.966958 0
M  V30 5369 C 497.472 3.39519 2.80027 0
M  V30 5370 H 494.591 0.648654 0.349882 0
M  V30 5371 H 497.233 1.88525 0.236253 0
M  V30 5372 H 495.383 3.02168 2.44185 0
M  V30 5373 H 497.055 4.59873 0.362514 0
M  V30 5374 H 495.298 4.32948 0.271669 0
M  V30 5375 H 495.969 5.28368 1.59784 0
M  V30 5376 H 498.445 3.48128 2.27917 0
M  V30 5377 H 497.321 4.33402 3.36829 0
M  V30 5378 H 497.582 2.60864 3.56934 0
M  V30 5379 N 496.642 -0.504142 1.49319 0
M  V30 5380 C 497.605 -1.5883 1.65244 0
M  V30 5381 C 498.605 -1.52009 0.524386 0
M  V30 5382 O 499.795 -1.55218 0.79077 0
M  V30 5383 C 496.927 -2.98481 1.64687 0
M  V30 5384 H 498.12 -1.4604 2.61939 0
M  V30 5385 H 495.673 -0.728144 1.38303 0
M  V30 5386 H 496.408 -3.16751 0.695644 0
M  V30 5387 H 496.193 -3.0484 2.46607 0
M  V30 5388 H 497.683 -3.77256 1.79075 0
M  V30 5389 N 498.12 -1.38341 -0.754957 0
M  V30 5390 C 499.366 -1.34672 -1.51628 0
M  V30 5391 C 499.699 0.0636036 -1.94096 0
M  V30 5392 O 498.974 1.0245 -1.6533 0
M  V30 5393 C 499.257 -2.30116 -2.76981 0
M  V30 5394 C 499.11 -3.80003 -2.4066 0
M  V30 5395 C 500.429 -2.23715 -3.78998 0
M  V30 5396 H 497.548 -0.490517 -0.550056 0
M  V30 5397 H 500.19 -1.69178 -0.864807 0
M  V30 5398 H 498.34 -2.00821 -3.3257 0
M  V30 5399 H 500.012 -4.19966 -1.90856 0
M  V30 5400 H 498.255 -3.97751 -1.73137 0
M  V30 5401 H 498.926 -4.42244 -3.30339 0
M  V30 5402 H 501.402 -2.49574 -3.32945 0
M  V30 5403 H 500.278 -2.9261 -4.64403 0
M  V30 5404 H 500.539 -1.23554 -4.24484 0
M  V30 5405 N 499.598 0.982988 -1.23187 0
M  V30 5406 C 500.823 1.76455 -1.08988 0
M  V30 5407 C 501.248 1.84726 0.354691 0
M  V30 5408 O 500.606 1.30699 1.25649 0
M  V30 5409 C 500.654 3.17094 -1.71708 0
M  V30 5410 O 499.758 4.00648 -0.977477 0
M  V30 5411 H 499.099 0.542988 -0.382177 0
M  V30 5412 H 501.629 1.23413 -1.63188 0
M  V30 5413 H 501.639 3.67684 -1.76841 0
M  V30 5414 H 500.314 3.10389 -2.76823 0
M  V30 5415 H 498.891 3.59161 -1.0029 0
M  V30 5416 N 501.076 1.04316 1.18135 0
M  V30 5417 C 502.039 0.640794 2.2006 0
M  V30 5418 C 503.039 -0.303124 1.57917 0
M  V30 5419 O 504.229 -0.0881855 1.73977 0
M  V30 5420 C 501.361 -0.060148 3.40847 0
M  V30 5421 H 502.554 1.54281 2.57172 0
M  V30 5422 H 500.107 0.836004 1.32063 0
M  V30 5423 H 500.842 -0.975845 3.0927 0
M  V30 5424 H 500.627 0.618319 3.87194 0
M  V30 5425 H 502.117 -0.328082 4.16309 0
M  V30 5426 N 502.554 -1.34406 0.822964 0
M  V30 5427 C 503.484 -2.32052 0.259608 0
M  V30 5428 C 504.465 -1.58243 -0.623961 0
M  V30 5429 O 505.65 -1.86224 -0.55083 0
M  V30 5430 C 502.78 -3.42434 -0.579314 0
M  V30 5431 C 501.734 -4.27499 0.20712 0
M  V30 5432 C 501.06 -5.29349 -0.754547 0
M  V30 5433 C 502.36 -5.02758 1.41533 0
M  V30 5434 H 504.054 -2.79418 1.07545 0
M  V30 5435 H 501.6 -1.34338 0.518593 0
M  V30 5436 H 503.553 -4.0976 -0.983612 0
M  V30 5437 H 502.277 -2.93717 -1.4282 0
M  V30 5438 H 500.936 -3.61776 0.592787 0
M  V30 5439 H 500.584 -4.76895 -1.59939 0
M  V30 5440 H 500.284 -5.8714 -0.232561 0
M  V30 5441 H 501.808 -5.99544 -1.1567 0
M  V30 5442 H 503.222 -5.62938 1.08504 0
M  V30 5443 H 501.619 -5.70123 1.87296 0
M  V30 5444 H 502.689 -4.32451 2.1935 0
M  V30 5445 N 504.032 -0.577932 -1.46621 0
M  V30 5446 C 505.257 -0.0652536 -2.07297 0
M  V30 5447 C 505.682 1.22828 -1.4246 0
M  V30 5448 O 505.04 1.74075 -0.506718 0
M  V30 5449 C 505.088 0.0920589 -3.60482 0
M  V30 5450 O 504.192 1.14972 -3.96049 0
M  V30 5451 H 503.533 -0.06065 -0.661224 0
M  V30 5452 H 506.063 -0.799515 -1.88332 0
M  V30 5453 H 506.073 0.299741 -4.06897 0
M  V30 5454 H 504.748 -0.852612 -4.07067 0
M  V30 5455 H 503.325 0.920879 -3.61351 0
M  V30 5456 N 505.51 1.54411 -0.315457 0
M  V30 5457 C 506.473 2.22713 0.54142 0
M  V30 5458 C 507.473 1.2179 1.04995 0
M  V30 5459 O 508.663 1.46426 0.943667 0
M  V30 5460 C 505.795 2.92485 1.75116 0
M  V30 5461 H 506.988 2.99849 -0.0555508 0
M  V30 5462 H 504.541 1.56159 -0.0664453 0
M  V30 5463 H 505.276 2.19466 2.38758 0
M  V30 5464 H 505.061 3.66483 1.39401 0
M  V30 5465 H 506.551 3.44548 2.35959 0
M  V30 5466 N 506.988 0.0434614 1.5754 0
M  V30 5467 C 508.236 -0.630786 1.92004 0
M  V30 5468 C 508.557 -1.71836 0.921807 0
M  V30 5469 O 507.827 -1.9587 -0.034522 0
M  V30 5470 H 506.407 -0.235988 0.708745 0
M  V30 5471 H 509.069 0.0946462 1.9467 0
M  V30 5472 H 508.165 -1.07434 2.93026 0
M  V30 5473 N 508.466 -1.55915 -0.229846 0
M  V30 5474 C 509.712 -1.78807 -0.956868 0
M  V30 5475 C 510.045 -0.611687 -1.84315 0
M  V30 5476 O 509.32 0.389398 -1.90562 0
M  V30 5477 C 509.603 -3.11718 -1.80288 0
M  V30 5478 C 509.456 -4.3979 -0.943649 0
M  V30 5479 C 510.775 -3.40999 -2.78222 0
M  V30 5480 H 507.894 -0.6505 -0.346437 0
M  V30 5481 H 510.536 -1.88648 -0.226252 0
M  V30 5482 H 508.686 -3.03459 -2.42579 0
M  V30 5483 H 510.358 -4.60059 -0.338121 0
M  V30 5484 H 508.601 -4.33086 -0.248705 0
M  V30 5485 H 509.272 -5.29208 -1.5698 0
M  V30 5486 H 511.748 -3.49332 -2.26067 0
M  V30 5487 H 510.624 -4.35183 -3.34526 0
M  V30 5488 H 510.885 -2.62754 -3.55546 0
M  V30 5489 N 509.944 0.496216 -1.49584 0
M  V30 5490 C 511.193 1.24668 -1.58558 0
M  V30 5491 C 511.506 1.9359 -0.279703 0
M  V30 5492 O 512.712 2.70365 -0.248048 0
M  V30 5493 C 511.168 2.26388 -2.79779 0
M  V30 5494 C 510.776 1.63384 -4.17145 0
M  V30 5495 C 512.52 3.02233 -2.98086 0
M  V30 5496 C 510.427 2.63243 -5.29582 0
M  V30 5497 H 509.357 0.468995 -0.590389 0
M  V30 5498 H 512.008 0.519985 -1.75978 0
M  V30 5499 H 510.39 3.02241 -2.55863 0
M  V30 5500 H 511.564 0.93491 -4.51216 0
M  V30 5501 H 509.879 0.999121 -4.04236 0
M  V30 5502 H 512.476 3.76919 -3.79257 0
M  V30 5503 H 512.819 3.60132 -2.08831 0
M  V30 5504 H 513.352 2.33495 -3.22063 0
M  V30 5505 H 510.091 2.10119 -6.20911 0
M  V30 5506 H 509.611 3.31363 -4.99959 0
M  V30 5507 H 511.29 3.25575 -5.59115 0
M  V30 5508 N 511.423 1.38739 0.74761 0
M  V30 5509 C 512.651 1.38521 1.53686 0
M  V30 5510 C 513.066 -0.0235129 1.88785 0
M  V30 5511 O 512.423 -0.991662 1.53207 0
M  V30 5512 C 512.474 2.24641 2.83229 0
M  V30 5513 O 512.195 3.60026 2.49625 0
M  V30 5514 C 513.696 2.32669 3.77333 0
M  V30 5515 H 510.916 0.473589 0.475347 0
M  V30 5516 H 513.46 1.82395 0.924786 0
M  V30 5517 H 511.615 1.84213 3.40799 0
M  V30 5518 H 512.029 4.05435 3.3275 0
M  V30 5519 H 513.503 2.97201 4.65162 0
M  V30 5520 H 513.98 1.3421 4.18192 0
M  V30 5521 H 514.586 2.73512 3.25685 0
M  V30 5522 N 512.901 -0.976442 1.23707 0
M  V30 5523 C 514.317 -1.24341 1.00058 0
M  V30 5524 C 514.517 -1.99315 -0.295932 0
M  V30 5525 O 513.573 -2.3123 -1.01435 0
M  V30 5526 C 514.886 -2.03909 2.21001 0
M  V30 5527 C 516.434 -2.17034 2.25534 0
M  V30 5528 C 516.909 -2.99994 3.46075 0
M  V30 5529 N 518.4 -3.07578 3.46338 0
M  V30 5530 C 519.135 -3.72104 4.36264 0
M  V30 5531 N 518.631 -4.3842 5.36432 0
M  V30 5532 N 520.424 -3.69029 4.23998 0
M  V30 5533 H 512.575 -0.47428 2.07037 0
M  V30 5534 H 514.838 -0.272167 0.908091 0
M  V30 5535 H 514.544 -1.56198 3.15111 0
M  V30 5536 H 514.418 -3.04654 2.22409 0
M  V30 5537 H 516.805 -2.63951 1.31961 0
M  V30 5538 H 516.886 -1.15664 2.28156 0
M  V30 5539 H 516.53 -2.53772 4.39957 0
M  V30 5540 H 516.46 -4.01541 3.40694 0
M  V30 5541 H 518.951 -2.60397 2.73865 0
M  V30 5542 H 519.264 -4.85447 6.013 0
M  V30 5543 H 517.609 -4.37116 5.40328 0
M  V30 5544 H 520.8 -3.16392 3.44984 0
M  V30 5545 H 520.973 -4.19034 4.94282 0
M  V30 5546 N 514.379 -1.04941 -1.1758 0
M  V30 5547 C 515.327 -0.64204 -2.23563 0
M  V30 5548 C 516.321 0.335453 -1.66045 0
M  V30 5549 O 517.527 0.20179 -1.78865 0
M  V30 5550 H 513.902 -0.18944 -0.727748 0
M  V30 5551 H 515.873 -1.54609 -2.55223 0
M  V30 5552 C 514.622 -0.0301051 -3.47687 0
M  V30 5553 H 513.945 -0.773339 -3.92249 0
M  V30 5554 H 515.385 0.217592 -4.23441 0
M  V30 5555 C 513.844 1.2225 -3.13937 0
M  V30 5556 O 514.374 2.3122 -3.28482 0
M  V30 5557 N 512.58 1.11917 -2.68185 0
M  V30 5558 H 512.127 0.232403 -2.5655 0
M  V30 5559 H 512.085 1.95814 -2.45976 0
M  V30 5560 N 515.857 1.33968 -0.830081 0
M  V30 5561 C 517.085 2.0228 -0.434773 0
M  V30 5562 C 517.5 1.62487 0.961419 0
M  V30 5563 O 516.857 0.833849 1.62337 0
M  V30 5564 C 516.908 3.5751 -0.535625 0
M  V30 5565 O 516.629 3.95864 -1.87679 0
M  V30 5566 C 518.13 4.43091 -0.136137 0
M  V30 5567 H 515.35 0.648151 -0.173613 0
M  V30 5568 H 517.894 1.71089 -1.12022 0
M  V30 5569 H 516.049 3.87266 0.101817 0
M  V30 5570 H 516.463 4.9056 -1.85609 0
M  V30 5571 H 517.937 5.51398 -0.257772 0
M  V30 5572 H 518.414 4.29433 0.921076 0
M  V30 5573 H 519.02 4.18677 -0.747662 0
M  V30 5574 N 517.335 0.585699 1.46312 0
M  V30 5575 C 518.563 0.0781299 2.06752 0
M  V30 5576 C 518.978 -1.22812 1.43396 0
M  V30 5577 O 518.335 -1.74318 0.540314 0
M  V30 5578 C 518.386 -0.0911927 3.61385 0
M  V30 5579 O 518.107 1.16336 4.22371 0
M  V30 5580 C 519.608 -0.632765 4.38761 0
M  V30 5581 H 516.828 0.0588188 0.668417 0
M  V30 5582 H 519.372 0.807218 1.87894 0
M  V30 5583 H 517.527 -0.770514 3.7966 0
M  V30 5584 H 517.941 0.979082 5.15281 0
M  V30 5585 H 519.415 -0.70041 5.47538 0
M  V30 5586 H 519.892 -1.65039 4.07012 0
M  V30 5587 H 520.498 0.0117856 4.25298 0
M  V30 5588 N 518.813 -1.54241 0.323641 0
M  V30 5589 C 519.743 -2.27289 -0.534993 0
M  V30 5590 C 520.724 -1.28087 -1.11927 0
M  V30 5591 O 521.909 -1.56899 -1.14439 0
M  V30 5592 C 519.039 -3.03075 -1.69596 0
M  V30 5593 C 517.993 -4.09614 -1.24098 0
M  V30 5594 C 517.319 -4.73242 -2.4889 0
M  V30 5595 C 518.619 -5.21087 -0.355789 0
M  V30 5596 H 520.313 -2.99308 0.0743257 0
M  V30 5597 H 517.859 -1.43952 0.0371874 0
M  V30 5598 H 519.812 -3.52907 -2.30293 0
M  V30 5599 H 518.536 -2.28673 -2.33187 0
M  V30 5600 H 517.195 -3.60666 -0.656945 0
M  V30 5601 H 516.843 -3.95455 -3.10845 0
M  V30 5602 H 516.543 -5.45209 -2.19138 0
M  V30 5603 H 518.067 -5.25848 -3.10348 0
M  V30 5604 H 519.481 -5.66675 -0.869042 0
M  V30 5605 H 517.878 -5.9991 -0.151045 0
M  V30 5606 H 518.948 -4.81005 0.613339 0
M  V30 5607 N 520.291 -0.0518155 -1.57515 0
M  V30 5608 C 521.538 0.621823 -1.92716 0
M  V30 5609 C 521.866 1.70813 -0.930229 0
M  V30 5610 O 521.121 1.95616 0.0573708 0
M  V30 5611 C 521.42 1.25607 -3.34601 0
M  V30 5612 C 521.086 0.297901 -4.49915 0
M  V30 5613 C 519.748 0.034243 -4.81188 0
M  V30 5614 C 522.1 -0.358738 -5.19964 0
M  V30 5615 C 519.428 -0.893479 -5.79857 0
M  V30 5616 C 521.78 -1.27466 -6.19625 0
M  V30 5617 C 520.444 -1.54698 -6.49326 0
M  V30 5618 H 519.714 0.227541 -0.705199 0
M  V30 5619 H 522.361 -0.118432 -1.91133 0
M  V30 5620 H 520.666 2.07161 -3.32553 0
M  V30 5621 H 522.363 1.78424 -3.59118 0
M  V30 5622 H 518.953 0.513581 -4.25512 0
M  V30 5623 H 523.137 -0.168133 -4.96015 0
M  V30 5624 H 518.393 -1.11193 -6.01204 0
M  V30 5625 H 522.567 -1.78953 -6.73015 0
M  V30 5626 H 520.194 -2.26748 -7.25596 0
M  V30 5627 N 521.769 1.56035 0.221574 0
M  V30 5628 C 523.046 1.69837 0.970301 0
M  V30 5629 C 523.426 0.599065 2.02421 0
M  V30 5630 O 522.774 -0.393929 2.25079 0
M  V30 5631 C 522.984 3.11148 1.58076 0
M  V30 5632 C 524.332 3.70555 2.07302 0
M  V30 5633 O 525.356 3.14109 1.6797 0
M  V30 5634 O 524.215 4.69562 2.79596 0
M  V30 5635 H 521.309 0.691727 0.453257 0
M  V30 5636 H 523.855 1.68353 0.213358 0
M  V30 5637 H 522.627 3.82617 0.819759 0
M  V30 5638 H 522.25 3.16749 2.40324 0
M  V30 5639 N 523.247 -0.488276 1.49845 0
M  V30 5640 C 524.658 -1.06955 1.53028 0
M  V30 5641 C 525.009 -1.9351 0.323797 0
M  V30 5642 O 524.134 -2.08891 -0.565116 0
M  V30 5643 C 524.729 -1.94643 2.77307 0
M  V30 5644 C 523.288 -2.4791 2.83227 0
M  V30 5645 C 522.435 -1.25833 2.47106 0
M  V30 5646 H 525.386 -0.271626 1.56358 0
M  V30 5647 H 525.407 -2.79496 2.5819 0
M  V30 5648 H 524.919 -1.31621 3.65099 0
M  V30 5649 H 523.02 -3.14535 1.99745 0
M  V30 5650 H 523.133 -2.84193 3.85709 0
M  V30 5651 H 521.497 -1.58764 1.99163 0
M  V30 5652 H 522.28 -0.644993 3.37186 0
M  V30 5653 N 524.725 -1.39134 -0.740242 0
M  V30 5654 C 525.973 -1.35803 -1.49673 0
M  V30 5655 C 526.294 0.0470897 -1.94943 0
M  V30 5656 O 525.564 0.997347 -1.68611 0
M  V30 5657 H 524.144 -0.499736 -0.555224 0
M  V30 5658 H 526.806 -1.73947 -0.879107 0
M  V30 5659 H 525.902 -2.0174 -2.38133 0
M  V30 5660 N 526.204 0.969867 -1.24223 0
M  V30 5661 C 527.45 1.71582 -1.09231 0
M  V30 5662 C 527.805 1.88898 0.365432 0
M  V30 5663 O 527.098 1.43781 1.2664 0
M  V30 5664 C 527.292 3.10883 -1.76314 0
M  V30 5665 C 527.121 3.07155 -3.2846 0
M  V30 5666 C 525.891 3.11757 -3.97663 0
M  V30 5667 C 528.089 2.895 -4.25082 0
M  V30 5668 N 526.071 2.98025 -5.36707 0
M  V30 5669 C 527.442 2.84041 -5.51109 0
M  V30 5670 C 529.497 2.74064 -4.15684 0
M  V30 5671 C 528.2 2.64725 -6.68815 0
M  V30 5672 C 530.226 2.56115 -5.33066 0
M  V30 5673 C 529.588 2.51363 -6.58024 0
M  V30 5674 H 525.687 0.636496 -0.454309 0
M  V30 5675 H 528.271 1.15004 -1.57106 0
M  V30 5676 H 526.442 3.65657 -1.30955 0
M  V30 5677 H 528.174 3.74171 -1.54201 0
M  V30 5678 H 524.929 3.20352 -3.48814 0
M  V30 5679 H 525.353 2.94405 -6.09635 0
M  V30 5680 H 529.995 2.76521 -3.19837 0
M  V30 5681 H 527.713 2.61011 -7.64787 0
M  V30 5682 H 531.299 2.45119 -5.27644 0
M  V30 5683 H 530.179 2.37651 -7.47323 0
M  V30 5684 N 527.682 1.05563 1.17022 0
M  V30 5685 C 528.928 0.778872 1.87897 0
M  V30 5686 C 529.283 -0.686839 1.79723 0
M  V30 5687 O 528.576 -1.49612 1.19694 0
M  V30 5688 C 528.77 1.19849 3.36706 0
M  V30 5689 C 528.599 2.70345 3.59366 0
M  V30 5690 C 527.369 3.37707 3.75875 0
M  V30 5691 C 529.567 3.68564 3.58699 0
M  V30 5692 N 527.549 4.7703 3.86414 0
M  V30 5693 C 528.92 4.93634 3.75134 0
M  V30 5694 C 530.975 3.6198 3.4187 0
M  V30 5695 C 529.678 6.12907 3.76481 0
M  V30 5696 C 531.704 4.80697 3.44507 0
M  V30 5697 C 531.066 6.04592 3.61453 0
M  V30 5698 H 527.165 0.337297 0.705517 0
M  V30 5699 H 529.749 1.34832 1.40458 0
M  V30 5700 H 527.92 0.656958 3.82804 0
M  V30 5701 H 529.652 0.871172 3.95212 0
M  V30 5702 H 526.407 2.88108 3.75887 0
M  V30 5703 H 526.831 5.49483 3.95471 0
M  V30 5704 H 531.473 2.67154 3.27702 0
M  V30 5705 H 529.191 7.08073 3.89432 0
M  V30 5706 H 532.777 4.77259 3.32738 0
M  V30 5707 H 531.657 6.94916 3.63403 0
M  V30 5708 N 529.16 -1.33526 0.837174 0
M  V30 5709 C 530.092 -2.28077 0.226579 0
M  V30 5710 C 531.105 -1.51666 -0.591717 0
M  V30 5711 O 532.294 -1.73511 -0.419064 0
M  V30 5712 C 529.394 -3.31597 -0.69978 0
M  V30 5713 C 528.567 -4.37329 0.0788067 0
M  V30 5714 C 527.626 -5.20526 -0.770637 0
M  V30 5715 O 526.652 -5.68811 -0.210453 0
M  V30 5716 N 527.854 -5.41639 -2.08825 0
M  V30 5717 H 530.619 -2.81115 1.03897 0
M  V30 5718 H 528.18 -1.46201 0.695476 0
M  V30 5719 H 530.172 -3.84158 -1.27298 0
M  V30 5720 H 528.742 -2.78848 -1.41288 0
M  V30 5721 H 527.962 -3.8529 0.833381 0
M  V30 5722 H 529.25 -5.05079 0.614238 0
M  V30 5723 H 528.648 -5.04108 -2.56693 0
M  V30 5724 H 527.205 -5.97263 -2.60998 0
M  V30 5725 N 530.638 -0.59345 -1.46 0
M  V30 5726 C 531.568 0.121192 -2.33185 0
M  V30 5727 C 532.549 0.872977 -1.4599 0
M  V30 5728 O 533.734 0.846321 -1.74789 0
M  V30 5729 C 530.864 1.12844 -3.28456 0
M  V30 5730 C 529.818 0.4908 -4.25177 0
M  V30 5731 C 529.144 1.60529 -5.10034 0
M  V30 5732 C 530.444 -0.578949 -5.19081 0
M  V30 5733 H 532.138 -0.606767 -2.93187 0
M  V30 5734 H 529.684 -0.293242 -1.40983 0
M  V30 5735 H 531.637 1.63684 -3.88311 0
M  V30 5736 H 530.361 1.88681 -2.66584 0
M  V30 5737 H 529.02 0.00339328 -3.666 0
M  V30 5738 H 528.668 2.35359 -4.44539 0
M  V30 5739 H 528.368 1.18422 -5.75543 0
M  V30 5740 H 529.892 2.11623 -5.72755 0
M  V30 5741 H 531.306 -0.155199 -5.7309 0
M  V30 5742 H 529.703 -0.920947 -5.92991 0
M  V30 5743 H 530.773 -1.46109 -4.62364 0
M  V30 5744 N 532.116 1.54067 -0.331816 0
M  V30 5745 C 533.527 1.86059 0.15454 0
M  V30 5746 C 533.878 1.25331 1.50952 0
M  V30 5747 O 533.003 0.562441 2.08963 0
M  V30 5748 C 533.598 3.37581 0.287192 0
M  V30 5749 C 532.157 3.69493 0.717773 0
M  V30 5750 C 531.304 2.76863 -0.155569 0
M  V30 5751 H 534.255 1.48797 -0.55182 0
M  V30 5752 H 534.276 3.63744 1.11671 0
M  V30 5753 H 533.788 3.81751 -0.699131 0
M  V30 5754 H 531.889 3.3086 1.71354 0
M  V30 5755 H 532.002 4.76315 0.5158 0
M  V30 5756 H 530.366 2.51995 0.370213 0
M  V30 5757 H 531.149 3.23861 -1.13881 0
M  V30 5758 N 533.594 0.0601682 1.57485 0
M  V30 5759 C 534.842 -0.610386 1.92662 0
M  V30 5760 C 535.163 -1.70849 0.939981 0
M  V30 5761 O 534.433 -1.95895 -0.0137455 0
M  V30 5762 H 533.013 -0.228457 0.711208 0
M  V30 5763 H 535.675 0.115288 1.94559 0
M  V30 5764 H 534.771 -1.0432 2.94149 0
M  V30 5765 N 535.072 -1.5615 -0.213296 0
M  V30 5766 C 536.297 -1.83986 -0.957282 0
M  V30 5767 C 536.722 -0.641526 -1.76822 0
M  V30 5768 O 536.08 0.409722 -1.7661 0
M  V30 5769 C 536.128 -3.09889 -1.84393 0
M  V30 5770 O 535.232 -2.89163 -2.94038 0
M  V30 5771 H 534.573 -0.606357 -0.270605 0
M  V30 5772 H 537.103 -2.03369 -0.224111 0
M  V30 5773 H 537.113 -3.40209 -2.25215 0
M  V30 5774 H 535.788 -3.96735 -1.24795 0
M  V30 5775 H 534.365 -2.70097 -2.57103 0
M  V30 5776 N 536.55 0.480323 -1.50102 0
M  V30 5777 C 537.46 1.60547 -1.71061 0
M  V30 5778 C 538.476 1.63564 -0.593529 0
M  V30 5779 O 539.652 1.81604 -0.870751 0
M  V30 5780 C 536.717 2.96814 -1.79171 0
M  V30 5781 C 535.778 3.04259 -3.02861 0
M  V30 5782 C 535.011 4.34027 -3.10574 0
M  V30 5783 O 535.234 5.24009 -2.25323 0
M  V30 5784 O 534.168 4.46873 -4.03223 0
M  V30 5785 H 537.994 1.45788 -2.6642 0
M  V30 5786 H 535.579 0.658838 -1.34088 0
M  V30 5787 H 537.461 3.77765 -1.86738 0
M  V30 5788 H 536.136 3.11791 -0.869947 0
M  V30 5789 H 535.043 2.22419 -3.008 0
M  V30 5790 H 536.376 2.94216 -3.94586 0
M  V30 5791 N 538.028 1.39524 0.732853 0
M  V30 5792 C 538.975 1.38416 1.84688 0
M  V30 5793 C 539.945 0.243539 1.64305 0
M  V30 5794 O 541.13 0.438979 1.85681 0
M  V30 5795 C 538.27 1.23555 3.22224 0
M  V30 5796 C 537.383 2.47179 3.54298 0
M  V30 5797 C 536.518 2.2489 4.81246 0
M  V30 5798 C 535.557 3.44178 5.0617 0
M  V30 5799 N 534.694 3.21192 6.24323 0
M  V30 5800 H 539.534 2.33645 1.84971 0
M  V30 5801 H 537.071 1.16059 0.903804 0
M  V30 5802 H 539.029 1.12949 4.0162 0
M  V30 5803 H 537.659 0.31954 3.21215 0
M  V30 5804 H 536.711 2.68379 2.69587 0
M  V30 5805 H 538.023 3.36022 3.68633 0
M  V30 5806 H 537.177 2.11538 5.68627 0
M  V30 5807 H 535.916 1.33443 4.69089 0
M  V30 5808 H 534.921 3.58025 4.17251 0
M  V30 5809 H 536.146 4.36528 5.20212 0
M  V30 5810 H 534.092 2.32413 6.1345 0
M  V30 5811 H 534.009 4.03594 6.39256 0
M  V30 5812 H 535.277 3.1154 7.14537 0
M  V30 5813 N 539.506 -0.963266 1.24736 0
M  V30 5814 C 540.922 -1.23273 1.01371 0
M  V30 5815 C 541.122 -1.99618 -0.274776 0
M  V30 5816 O 540.178 -2.32293 -0.989769 0
M  V30 5817 C 541.491 -2.01554 2.23152 0
M  V30 5818 C 543.039 -2.14629 2.27823 0
M  V30 5819 C 543.514 -2.96307 3.49237 0
M  V30 5820 N 545.005 -3.03887 3.49581 0
M  V30 5821 C 545.74 -3.67456 4.40186 0
M  V30 5822 N 545.236 -4.32706 5.41052 0
M  V30 5823 N 547.029 -3.64511 4.27888 0
M  V30 5824 H 539.18 -0.452294 2.07528 0
M  V30 5825 H 541.443 -0.262521 0.910926 0
M  V30 5826 H 541.149 -1.52847 3.1675 0
M  V30 5827 H 541.023 -3.02278 2.25628 0
M  V30 5828 H 543.41 -2.62537 1.34753 0
M  V30 5829 H 543.491 -1.13238 2.2937 0
M  V30 5830 H 543.135 -2.49091 4.42624 0
M  V30 5831 H 543.065 -3.97905 3.44933 0
M  V30 5832 H 545.556 -2.57477 2.76611 0
M  V30 5833 H 545.869 -4.79042 6.06415 0
M  V30 5834 H 544.214 -4.31361 5.44934 0
M  V30 5835 H 547.405 -3.12715 3.4832 0
M  V30 5836 H 547.578 -4.13768 4.98698 0
M  V30 5837 N 540.985 -1.06182 -1.16461 0
M  V30 5838 C 542.215 -0.797425 -1.9059 0
M  V30 5839 C 542.623 0.651845 -1.77616 0
M  V30 5840 O 541.966 1.45788 -1.11766 0
M  V30 5841 C 542.028 -1.11128 -3.41893 0
M  V30 5842 C 541.692 -2.55874 -3.78652 0
M  V30 5843 C 542.689 -3.54104 -3.80665 0
M  V30 5844 C 540.374 -2.91144 -4.09317 0
M  V30 5845 C 542.368 -4.85645 -4.12829 0
M  V30 5846 C 540.055 -4.22885 -4.41148 0
M  V30 5847 C 541.053 -5.19945 -4.42883 0
M  V30 5848 O 540.741 -6.49322 -4.73959 0
M  V30 5849 H 540.473 -0.288709 -0.611247 0
M  V30 5850 H 543.027 -1.41841 -1.4856 0
M  V30 5851 H 541.257 -0.433217 -3.84266 0
M  V30 5852 H 542.946 -0.831306 -3.97296 0
M  V30 5853 H 543.712 -3.28197 -3.57088 0
M  V30 5854 H 539.591 -2.16252 -4.07131 0
M  V30 5855 H 543.135 -5.61398 -4.14099 0
M  V30 5856 H 539.032 -4.48551 -4.6419 0
M  V30 5857 H 539.8 -6.54294 -4.91774 0
M  V30 5858 N 542.463 1.3308 -0.844243 0
M  V30 5859 C 543.879 1.50447 -0.532729 0
M  V30 5860 C 544.079 1.78292 0.938837 0
M  V30 5861 O 543.135 1.84635 1.72239 0
M  V30 5862 C 544.448 2.65555 -1.41072 0
M  V30 5863 C 545.996 2.7944 -1.41005 0
M  V30 5864 C 546.471 3.97616 -2.27301 0
M  V30 5865 N 547.962 4.0486 -2.2504 0
M  V30 5866 C 548.697 4.95508 -2.88547 0
M  V30 5867 N 548.193 5.91236 -3.61126 0
M  V30 5868 N 549.986 4.88548 -2.77989 0
M  V30 5869 H 542.137 1.13269 -1.79677 0
M  V30 5870 H 544.4 0.55734 -0.766861 0
M  V30 5871 H 544.106 2.51675 -2.45668 0
M  V30 5872 H 543.98 3.61089 -1.09061 0
M  V30 5873 H 546.367 2.92749 -0.371784 0
M  V30 5874 H 546.448 1.8465 -1.77026 0
M  V30 5875 H 546.092 3.85066 -3.3119 0
M  V30 5876 H 546.022 4.91661 -1.88619 0
M  V30 5877 H 548.513 3.36353 -1.72264 0
M  V30 5878 H 548.826 6.57079 -4.06776 0
M  V30 5879 H 547.171 5.91295 -3.65234 0
M  V30 5880 H 550.362 4.12729 -2.20846 0
M  V30 5881 H 550.535 5.58994 -3.27765 0
M  V30 5882 N 543.941 0.601185 1.45683 0
M  V30 5883 C 545.218 0.0261659 1.95582 0
M  V30 5884 C 545.598 -1.4399 1.5437 0
M  V30 5885 O 544.946 -2.13919 0.80318 0
M  V30 5886 C 545.156 0.217557 3.48321 0
M  V30 5887 C 546.504 0.0950076 4.24494 0
M  V30 5888 O 547.528 0.147345 3.55895 0
M  V30 5889 O 546.387 -0.025261 5.46494 0
M  V30 5890 H 543.481 -0.0393688 0.826062 0
M  V30 5891 H 546.027 0.670798 1.55879 0
M  V30 5892 H 544.799 1.23601 3.71266 0
M  V30 5893 H 544.422 -0.46264 3.94899 0
M  V30 5894 N 545.419 -1.53889 0.339982 0
M  V30 5895 C 546.665 -2.01849 -0.250694 0
M  V30 5896 C 547.02 -1.22356 -1.48482 0
M  V30 5897 O 546.313 -0.301906 -1.89206 0
M  V30 5898 C 546.507 -3.51968 -0.620735 0
M  V30 5899 C 546.336 -4.45996 0.575981 0
M  V30 5900 C 545.106 -4.93619 1.08019 0
M  V30 5901 C 547.304 -4.93923 1.43332 0
M  V30 5902 N 545.286 -5.7159 2.2396 0
M  V30 5903 C 546.657 -5.69982 2.43969 0
M  V30 5904 C 548.712 -4.76038 1.45918 0
M  V30 5905 C 547.415 -6.30057 3.47016 0
M  V30 5906 C 549.441 -5.36961 2.47845 0
M  V30 5907 C 548.803 -6.12884 3.47208 0
M  V30 5908 H 544.902 -0.780054 -0.0551368 0
M  V30 5909 H 547.486 -1.88722 0.478741 0
M  V30 5910 H 545.657 -3.65308 -1.31928 0
M  V30 5911 H 547.389 -3.86677 -1.19429 0
M  V30 5912 H 544.144 -4.69134 0.64884 0
M  V30 5913 H 544.568 -6.15247 2.82489 0
M  V30 5914 H 549.21 -4.16887 0.704608 0
M  V30 5915 H 546.928 -6.88319 4.23371 0
M  V30 5916 H 550.514 -5.2503 2.50668 0
M  V30 5917 H 549.394 -6.59187 4.24785 0
M  V30 5918 N 546.897 -0.0685191 -1.57451 0
M  V30 5919 C 547.844 0.899861 -2.12535 0
M  V30 5920 C 548.814 1.29749 -1.03703 0
M  V30 5921 O 549.999 1.38392 -1.31348 0
M  V30 5922 C 547.139 2.16328 -2.6888 0
M  V30 5923 C 546.252 1.81857 -3.91857 0
M  V30 5924 C 545.387 3.02786 -4.36457 0
M  V30 5925 C 544.426 2.64317 -5.5209 0
M  V30 5926 N 543.563 3.77994 -5.91663 0
M  V30 5927 H 548.403 0.423243 -2.94979 0
M  V30 5928 H 545.94 0.197268 -1.45771 0
M  V30 5929 H 547.898 2.90281 -2.99655 0
M  V30 5930 H 546.528 2.61536 -1.89206 0
M  V30 5931 H 545.58 0.979808 -3.67565 0
M  V30 5932 H 546.892 1.49553 -4.75852 0
M  V30 5933 H 546.046 3.85021 -4.68875 0
M  V30 5934 H 544.785 3.38281 -3.51308 0
M  V30 5935 H 543.79 1.80503 -5.19325 0
M  V30 5936 H 545.015 2.29995 -6.38967 0
M  V30 5937 H 542.961 4.13258 -5.09464 0
M  V30 5938 H 542.878 3.49447 -6.7039 0
M  V30 5939 H 544.146 4.60818 -6.28703 0
M  V30 5940 N 548.375 1.56261 0.205012 0
M  V30 5941 C 549.322 1.93754 1.25411 0
M  V30 5942 C 550.292 0.796826 1.45739 0
M  V30 5943 O 551.477 1.05414 1.59036 0
M  V30 5944 C 548.617 2.27383 2.59598 0
M  V30 5945 C 547.73 3.5447 2.46931 0
M  V30 5946 C 546.865 3.77468 3.73753 0
M  V30 5947 C 545.904 4.98014 3.55877 0
M  V30 5948 N 545.041 5.17316 4.74688 0
M  V30 5949 H 549.881 2.83203 0.92737 0
M  V30 5950 H 547.418 1.40158 0.446574 0
M  V30 5951 H 549.376 2.44895 3.37761 0
M  V30 5952 H 548.006 1.41088 2.90335 0
M  V30 5953 H 547.058 3.45061 1.60116 0
M  V30 5954 H 548.37 4.42789 2.29651 0
M  V30 5955 H 547.524 3.95165 4.60358 0
M  V30 5956 H 546.263 2.87461 3.93976 0
M  V30 5957 H 545.268 4.80249 2.67657 0
M  V30 5958 H 546.493 5.8952 3.37109 0
M  V30 5959 H 544.439 4.30255 4.95194 0
M  V30 5960 H 544.356 5.99796 4.60197 0
M  V30 5961 H 545.624 5.39463 5.62672 0
M  V30 5962 N 549.853 -0.472356 1.50355 0
M  V30 5963 C 551.099 -1.22348 1.62488 0
M  V30 5964 C 551.454 -1.89711 0.320574 0
M  V30 5965 O 550.747 -1.79074 -0.68141 0
M  V30 5966 C 550.941 -2.29257 2.74182 0
M  V30 5967 C 550.77 -1.72383 4.15348 0
M  V30 5968 C 549.54 -1.52411 4.81766 0
M  V30 5969 C 551.738 -1.21949 4.99633 0
M  V30 5970 N 549.72 -0.907669 6.07153 0
M  V30 5971 C 551.091 -0.726191 6.15732 0
M  V30 5972 C 553.146 -1.10792 4.85417 0
M  V30 5973 C 551.849 -0.132322 7.19178 0
M  V30 5974 C 553.875 -0.52799 5.89038 0
M  V30 5975 C 553.237 -0.0450604 7.04386 0
M  V30 5976 H 549.336 -0.436631 0.648751 0
M  V30 5977 H 551.92 -0.525698 1.87469 0
M  V30 5978 H 550.091 -2.96464 2.50926 0
M  V30 5979 H 551.823 -2.9628 2.75681 0
M  V30 5980 H 548.578 -1.776 4.39039 0
M  V30 5981 H 549.002 -0.617897 6.74174 0
M  V30 5982 H 553.644 -1.46722 3.96525 0
M  V30 5983 H 551.362 0.239187 8.07746 0
M  V30 5984 H 554.948 -0.444046 5.80103 0
M  V30 5985 H 553.828 0.396659 7.83196 0
M  V30 5986 N 551.331 -1.39911 -0.725443 0
M  V30 5987 C 552.579 -1.37382 -1.48224 0
M  V30 5988 C 552.9 0.0264107 -1.94982 0
M  V30 5989 O 552.17 0.979408 -1.6966 0
M  V30 5990 H 550.75 -0.505596 -0.549892 0
M  V30 5991 H 553.412 -1.7487 -0.860608 0
M  V30 5992 H 552.508 -2.04254 -2.3598 0
M  V30 5993 N 552.809 0.956637 -1.25245 0
M  V30 5994 C 553.759 2.03841 -1.02141 0
M  V30 5995 C 554.743 1.60848 0.0410058 0
M  V30 5996 O 555.935 1.76142 -0.174084 0
M  V30 5997 C 553.064 3.37282 -0.639963 0
M  V30 5998 C 552.15 3.86805 -1.73903 0
M  V30 5999 N 552.541 4.09143 -2.97381 0
M  V30 6000 C 550.839 4.15574 -1.61909 0
M  V30 6001 C 551.54 4.49923 -3.68707 0
M  V30 6002 N 550.516 4.55737 -2.96318 0
M  V30 6003 H 554.318 2.19102 -1.95886 0
M  V30 6004 H 551.832 1.1413 -1.15534 0
M  V30 6005 H 553.829 4.14403 -0.455643 0
M  V30 6006 H 552.489 3.23401 0.29018 0
M  V30 6007 H 553.5 3.96275 -3.33447 0
M  V30 6008 H 550.177 4.10566 -0.757764 0
M  V30 6009 H 551.567 4.75526 -4.74684 0
M  V30 6010 N 554.287 1.06798 1.15896 0
M  V30 6011 C 555.535 0.786211 1.8618 0
M  V30 6012 C 555.856 -0.689547 1.82401 0
M  V30 6013 O 555.126 -1.49913 1.26107 0
M  V30 6014 H 553.706 0.287843 0.689315 0
M  V30 6015 H 556.368 1.35055 1.40521 0
M  V30 6016 H 555.464 1.1157 2.91477 0
M  V30 6017 N 555.766 -1.3263 0.851289 0
M  V30 6018 C 557.182 -1.50162 0.5407 0
M  V30 6019 C 557.382 -1.78788 -0.929369 0
M  V30 6020 O 556.438 -1.85545 -1.71258 0
M  V30 6021 C 557.751 -2.64803 1.42478 0
M  V30 6022 C 559.299 -2.78688 1.42485 0
M  V30 6023 C 559.774 -3.96405 2.29407 0
M  V30 6024 N 561.265 -4.0366 2.27184 0
M  V30 6025 C 562 -4.93971 2.9117 0
M  V30 6026 N 561.496 -5.89313 3.64256 0
M  V30 6027 N 563.289 -4.87066 2.80576 0
M  V30 6028 H 555.44 -1.12315 1.80275 0
M  V30 6029 H 557.703 -0.553266 0.769806 0
M  V30 6030 H 557.409 -2.50368 2.46999 0
M  V30 6031 H 557.283 -3.60506 1.10974 0
M  V30 6032 H 559.67 -2.92547 0.387304 0
M  V30 6033 H 559.751 -1.83708 1.78002 0
M  V30 6034 H 559.395 -3.83304 3.33228 0
M  V30 6035 H 559.325 -4.90654 1.91224 0
M  V30 6036 H 561.816 -3.35435 1.74045 0
M  V30 6037 H 562.129 -6.54913 4.10255 0
M  V30 6038 H 560.474 -5.8935 3.68364 0
M  V30 6039 H 563.665 -4.11552 2.23031 0
M  V30 6040 H 563.838 -5.57248 3.30725 0
M  V30 6041 N 557.244 -0.608902 -1.45362 0
M  V30 6042 C 558.174 0.0964526 -2.33301 0
M  V30 6043 C 559.155 0.857444 -1.46908 0
M  V30 6044 O 560.34 0.827735 -1.75676 0
M  V30 6045 C 557.47 1.09354 -3.29635 0
M  V30 6046 C 556.424 0.445676 -4.25673 0
M  V30 6047 C 555.75 1.5511 -5.11708 0
M  V30 6048 C 557.05 -0.633972 -5.18438 0
M  V30 6049 H 558.744 -0.637829 -2.92527 0
M  V30 6050 H 556.29 -0.308178 -1.40664 0
M  V30 6051 H 558.243 1.59556 -3.90025 0
M  V30 6052 H 556.967 1.85843 -2.6857 0
M  V30 6053 H 555.626 -0.0354897 -3.66583 0
M  V30 6054 H 555.274 2.30631 -4.4701 0
M  V30 6055 H 554.974 1.12311 -5.76767 0
M  V30 6056 H 556.498 2.05537 -5.74967 0
M  V30 6057 H 557.912 -0.215974 -5.72893 0
M  V30 6058 H 556.309 -0.983789 -5.91981 0
M  V30 6059 H 557.379 -1.51005 -4.60788 0
M  V30 6060 N 558.722 1.53707 -0.348139 0
M  V30 6061 C 559.67 2.26671 0.521808 0
M  V30 6062 C 560.664 1.28988 1.09811 0
M  V30 6063 O 561.87 1.4668 1.04332 0
M  V30 6064 H 558.245 0.728387 0.186968 0
M  V30 6065 H 560.216 2.98176 -0.115563 0
M  V30 6066 C 558.965 3.05591 1.6586 0
M  V30 6067 H 558.288 3.80589 1.22443 0
M  V30 6068 H 559.728 3.59851 2.24239 0
M  V30 6069 C 558.187 2.15366 2.59073 0
M  V30 6070 O 558.717 1.7528 3.61441 0
M  V30 6071 N 556.923 1.80352 2.27863 0
M  V30 6072 H 556.47 2.13149 1.44656 0
M  V30 6073 H 556.428 1.20268 2.90488 0
M  V30 6074 N 560.2 0.0768682 1.57412 0
M  V30 6075 C 561.446 -0.591961 1.93968 0
M  V30 6076 C 561.779 -1.68954 0.9575 0
M  V30 6077 O 561.054 -1.94496 -0.0124675 0
M  V30 6078 C 561.337 -1.16418 3.40762 0
M  V30 6079 C 561.19 -0.0728933 4.49741 0
M  V30 6080 C 562.509 -2.06814 3.88479 0
M  V30 6081 H 559.628 -0.213716 0.705333 0
M  V30 6082 H 562.27 0.14387 1.89455 0
M  V30 6083 H 560.42 -1.79128 3.4474 0
M  V30 6084 H 562.092 0.560446 4.57883 0
M  V30 6085 H 560.335 0.595859 4.29688 0
M  V30 6086 H 561.006 -0.513755 5.49604 0
M  V30 6087 H 563.482 -1.54033 3.8654 0
M  V30 6088 H 562.358 -2.43785 4.91793 0
M  V30 6089 H 562.619 -2.97844 3.26713 0
M  V30 6090 N 561.678 -1.56367 -0.196722 0
M  V30 6091 C 562.906 -1.84639 -0.933608 0
M  V30 6092 C 563.321 -0.659164 -1.76919 0
M  V30 6093 O 562.678 0.372142 -1.78665 0
M  V30 6094 C 562.729 -3.11694 -1.83109 0
M  V30 6095 O 562.45 -4.25838 -1.02924 0
M  V30 6096 C 563.951 -3.53132 -2.67979 0
M  V30 6097 H 561.171 -0.613188 -0.272473 0
M  V30 6098 H 563.715 -2.03475 -0.204465 0
M  V30 6099 H 561.87 -2.94759 -2.51387 0
M  V30 6100 H 562.284 -4.98178 -1.64069 0
M  V30 6101 H 563.758 -4.45005 -3.26611 0
M  V30 6102 H 564.235 -2.76045 -3.41608 0
M  V30 6103 H 564.841 -3.72592 -2.05074 0
M  V30 6104 N 563.156 0.464375 -1.50603 0
M  V30 6105 C 564.572 0.798684 -1.38178 0
M  V30 6106 C 564.772 1.96568 -0.44308 0
M  V30 6107 O 563.828 2.52252 0.111814 0
M  V30 6108 C 565.141 1.10444 -2.79683 0
M  V30 6109 C 566.689 1.2105 -2.88645 0
M  V30 6110 C 567.164 1.54934 -4.30998 0
M  V30 6111 N 568.655 1.61913 -4.3398 0
M  V30 6112 C 569.39 1.8965 -5.41129 0
M  V30 6113 N 568.886 2.15361 -6.58477 0
M  V30 6114 N 570.679 1.91207 -5.28579 0
M  V30 6115 H 562.83 -0.304603 -2.10204 0
M  V30 6116 H 565.093 -0.0737804 -0.945125 0
M  V30 6117 H 564.799 0.319934 -3.50242 0
M  V30 6118 H 564.673 2.03896 -3.17342 0
M  V30 6119 H 567.06 1.98567 -2.18301 0
M  V30 6120 H 567.141 0.255613 -2.5452 0
M  V30 6121 H 566.785 0.779549 -5.01882 0
M  V30 6122 H 566.715 2.51584 -4.62615 0
M  V30 6123 H 569.206 1.44055 -3.49366 0
M  V30 6124 H 569.519 2.35818 -7.35941 0
M  V30 6125 H 567.864 2.1274 -6.6164 0
M  V30 6126 H 571.055 1.70622 -4.35897 0
M  V30 6127 H 571.228 2.12488 -6.12171 0
M  V30 6128 N 564.634 1.40294 0.718013 0
M  V30 6129 C 565.859 1.41941 1.5122 0
M  V30 6130 C 566.284 0.0202371 1.88089 0
M  V30 6131 O 565.642 -0.971078 1.53101 0
M  V30 6132 C 565.69 2.3141 2.76554 0
M  V30 6133 O 564.794 1.75567 3.73162 0
M  V30 6134 H 564.135 0.482644 0.456016 0
M  V30 6135 H 566.665 1.84494 0.884478 0
M  V30 6136 H 566.675 2.46513 3.25108 0
M  V30 6137 H 565.35 3.33085 2.49053 0
M  V30 6138 H 563.927 1.69798 3.31999 0
M  V30 6139 N 566.112 -0.949982 1.2575 0
M  V30 6140 C 567.042 -2.06483 1.09028 0
M  V30 6141 C 568.023 -1.701 -0.00201532 0
M  V30 6142 O 569.208 -1.93469 0.168383 0
M  V30 6143 C 566.338 -3.39899 0.71316 0
M  V30 6144 C 565.292 -3.90309 1.75621 0
M  V30 6145 C 564.618 -5.20274 1.23365 0
M  V30 6146 C 565.918 -4.16169 3.15596 0
M  V30 6147 H 567.612 -2.20731 2.02283 0
M  V30 6148 H 565.158 -1.06066 0.973964 0
M  V30 6149 H 567.111 -4.17346 0.58309 0
M  V30 6150 H 565.835 -3.25602 -0.255091 0
M  V30 6151 H 564.494 -3.15035 1.8748 0
M  V30 6152 H 564.142 -5.02351 0.255491 0
M  V30 6153 H 563.842 -5.54971 1.93082 0
M  V30 6154 H 565.366 -6.00314 1.11607 0
M  V30 6155 H 566.78 -4.84259 3.06864 0
M  V30 6156 H 565.177 -4.62131 3.82825 0
M  V30 6157 H 566.247 -3.22273 3.6231 0
M  V30 6158 N 567.59 -1.07411 -1.15328 0
M  V30 6159 C 568.5 -0.706438 -2.23711 0
M  V30 6160 C 569.516 0.282586 -1.7169 0
M  V30 6161 O 570.692 0.129066 -2.00986 0
M  V30 6162 C 567.757 -0.11048 -3.46524 0
M  V30 6163 C 566.818 -1.15282 -4.13532 0
M  V30 6164 C 566.051 -0.585205 -5.30482 0
M  V30 6165 O 566.274 0.598549 -5.67251 0
M  V30 6166 O 565.208 -1.33039 -5.87013 0
M  V30 6167 H 569.034 -1.61031 -2.57493 0
M  V30 6168 H 566.619 -0.847113 -1.23062 0
M  V30 6169 H 568.501 0.21957 -4.20828 0
M  V30 6170 H 567.176 0.766703 -3.14489 0
M  V30 6171 H 566.083 -1.53523 -3.41147 0
M  V30 6172 H 567.416 -2.00192 -4.49649 0
M  V30 6173 N 569.068 1.32177 -0.85831 0
M  V30 6174 C 569.978 2.32561 -0.308606 0
M  V30 6175 C 570.994 1.64209 0.575462 0
M  V30 6176 O 572.17 1.95719 0.474961 0
M  V30 6177 C 569.235 3.43207 0.490909 0
M  V30 6178 C 568.296 4.27243 -0.419733 0
M  V30 6179 C 567.529 5.32605 0.341719 0
M  V30 6180 O 567.752 5.48332 1.57125 0
M  V30 6181 O 566.686 6.0118 -0.294379 0
M  V30 6182 H 570.512 2.81477 -1.14037 0
M  V30 6183 H 568.097 1.35866 -0.621349 0
M  V30 6184 H 569.979 4.10677 0.944574 0
M  V30 6185 H 568.654 2.96474 1.29941 0
M  V30 6186 H 567.561 3.62569 -0.921652 0
M  V30 6187 H 568.894 4.7751 -1.19352 0
M  V30 6188 N 570.547 0.616602 1.45037 0
M  V30 6189 C 571.772 0.120192 2.07051 0
M  V30 6190 C 572.197 -1.19008 1.45666 0
M  V30 6191 O 571.555 -1.7267 0.552692 0
M  V30 6192 C 571.603 0.00354901 3.606 0
M  V30 6193 O 570.707 -1.04431 3.98958 0
M  V30 6194 H 570.048 0.0781599 0.659384 0
M  V30 6195 H 572.578 0.849167 1.86146 0
M  V30 6196 H 572.588 -0.191754 4.07549 0
M  V30 6197 H 571.263 0.960239 4.04663 0
M  V30 6198 H 569.84 -0.824749 3.63665 0
M  V30 6199 N 572.025 -1.5352 0.356285 0
M  V30 6200 C 572.988 -2.24071 -0.482182 0
M  V30 6201 C 573.988 -1.24531 -1.01729 0
M  V30 6202 O 575.178 -1.48876 -0.904513 0
M  V30 6203 C 572.31 -2.97025 -1.67299 0
M  V30 6204 H 573.503 -2.99596 0.135031 0
M  V30 6205 H 571.056 -1.55928 0.107825 0
M  V30 6206 H 571.791 -2.25719 -2.32855 0
M  V30 6207 H 571.576 -3.7005 -1.29636 0
M  V30 6208 H 573.066 -3.50683 -2.26741 0
M  V30 6209 N 573.503 -0.0852151 -1.57369 0
M  V30 6210 C 574.78 0.622534 -1.85429 0
M  V30 6211 C 575.16 1.86962 -0.980229 0
M  V30 6212 O 574.508 2.28445 -0.0500219 0
M  V30 6213 C 574.718 0.947374 -3.35896 0
M  V30 6214 C 576.066 1.31509 -4.03721 0
M  V30 6215 O 577.09 1.03869 -3.40719 0
M  V30 6216 O 575.949 1.83231 -5.14868 0
M  V30 6217 H 573.043 0.310513 -0.766492 0
M  V30 6218 H 575.589 -0.117164 -1.69295 0
M  V30 6219 H 574.361 0.0622264 -3.91251 0
M  V30 6220 H 573.984 1.74338 -3.5734 0
M  V30 6221 N 574.981 1.5647 0.188427 0
M  V30 6222 C 576.209 1.85131 0.923803 0
M  V30 6223 C 576.624 0.668537 1.76567 0
M  V30 6224 O 575.981 -0.362662 1.7886 0
M  V30 6225 C 576.032 3.12661 1.81453 0
M  V30 6226 O 575.753 4.26378 1.00665 0
M  V30 6227 C 577.254 3.54548 2.66103 0
M  V30 6228 H 574.474 0.614624 0.269218 0
M  V30 6229 H 577.018 2.03581 0.193671 0
M  V30 6230 H 575.173 2.96088 2.49821 0
M  V30 6231 H 575.587 4.99041 1.61425 0
M  V30 6232 H 577.061 4.4673 3.24247 0
M  V30 6233 H 577.538 2.77853 3.40139 0
M  V30 6234 H 578.144 3.73674 2.03096 0
M  V30 6235 N 576.459 -0.456382 1.50847 0
M  V30 6236 C 577.706 -1.20736 1.62571 0
M  V30 6237 C 578.034 -1.9163 0.332904 0
M  V30 6238 O 577.289 -1.8343 -0.682058 0
M  V30 6239 C 577.588 -2.26336 2.76599 0
M  V30 6240 C 577.254 -1.7259 4.16562 0
M  V30 6241 C 575.916 -1.57654 4.54641 0
M  V30 6242 C 578.268 -1.32877 5.03977 0
M  V30 6243 C 575.596 -1.0145 5.77862 0
M  V30 6244 C 577.948 -0.7811 6.27759 0
M  V30 6245 C 576.612 -0.618488 6.64628 0
M  V30 6246 H 575.882 -0.441803 0.594888 0
M  V30 6247 H 578.529 -0.501169 1.84826 0
M  V30 6248 H 576.834 -3.0292 2.48489 0
M  V30 6249 H 578.531 -2.84227 2.82871 0
M  V30 6250 H 575.121 -1.85187 3.86528 0
M  V30 6251 H 579.305 -1.43245 4.75179 0
M  V30 6252 H 574.561 -0.876109 6.0509 0
M  V30 6253 H 578.735 -0.464783 6.94847 0
M  V30 6254 H 576.362 -0.180838 7.59985 0
M  V30 6255 N 577.937 -1.40673 -0.710563 0
M  V30 6256 C 579.184 -1.39222 -1.47049 0
M  V30 6257 C 579.512 0.0037691 -1.945 0
M  V30 6258 O 578.767 0.989224 -1.68857 0
M  V30 6259 C 579.066 -2.33253 -2.70791 0
M  V30 6260 C 578.732 -3.80406 -2.42079 0
M  V30 6261 C 577.394 -4.20496 -2.33959 0
M  V30 6262 C 579.746 -4.73375 -2.18094 0
M  V30 6263 C 577.074 -5.51584 -1.99929 0
M  V30 6264 C 579.426 -6.04768 -1.85576 0
M  V30 6265 C 578.09 -6.43895 -1.75941 0
M  V30 6266 H 577.36 -0.509449 -0.538092 0
M  V30 6267 H 580.007 -1.73363 -0.81348 0
M  V30 6268 H 578.312 -1.92314 -3.41354 0
M  V30 6269 H 580.009 -2.29412 -3.28894 0
M  V30 6270 H 576.599 -3.48645 -2.49288 0
M  V30 6271 H 580.783 -4.43217 -2.23321 0
M  V30 6272 H 576.039 -5.80797 -1.91011 0
M  V30 6273 H 580.213 -6.76318 -1.66033 0
M  V30 6274 H 577.84 -7.45387 -1.4934 0
M  V30 6275 N 579.415 0.9433 -1.26252 0
M  V30 6276 C 580.645 1.72117 -1.14277 0
M  V30 6277 C 581.053 1.86726 0.304944 0
M  V30 6278 O 580.396 1.3727 1.22076 0
M  V30 6279 C 580.458 3.14778 -1.73651 0
M  V30 6280 C 580.122 3.23561 -3.22734 0
M  V30 6281 C 581.119 3.07001 -4.19579 0
M  V30 6282 C 578.804 3.47019 -3.63157 0
M  V30 6283 C 580.798 3.13763 -5.54826 0
M  V30 6284 C 578.485 3.53416 -4.98538 0
M  V30 6285 C 579.483 3.36804 -5.94182 0
M  V30 6286 O 579.171 3.42906 -7.27098 0
M  V30 6287 H 578.903 0.545781 -0.398873 0
M  V30 6288 H 581.457 1.19123 -1.67328 0
M  V30 6289 H 579.687 3.69186 -1.1506 0
M  V30 6290 H 581.376 3.74469 -1.56613 0
M  V30 6291 H 582.142 2.88736 -3.89688 0
M  V30 6292 H 578.021 3.59006 -2.89199 0
M  V30 6293 H 581.565 3.00714 -6.29458 0
M  V30 6294 H 577.462 3.71201 -5.28091 0
M  V30 6295 H 578.23 3.59463 -7.35342 0
M  V30 6296 N 580.893 1.08022 1.14757 0
M  V30 6297 C 581.825 0.664566 2.19354 0
M  V30 6298 C 582.838 -0.286374 1.60261 0
M  V30 6299 O 584.027 -0.0746362 1.78344 0
M  V30 6300 C 581.127 -0.0434634 3.38872 0
M  V30 6301 C 580.3 0.925381 4.27499 0
M  V30 6302 C 579.359 0.253398 5.2559 0
M  V30 6303 O 578.385 0.896581 5.62094 0
M  V30 6304 N 579.587 -0.998263 5.71852 0
M  V30 6305 H 582.352 1.56438 2.55631 0
M  V30 6306 H 579.913 0.965788 1.29939 0
M  V30 6307 H 581.905 -0.503857 4.01551 0
M  V30 6308 H 580.475 -0.845321 3.00954 0
M  V30 6309 H 579.695 1.56472 3.61815 0
M  V30 6310 H 580.983 1.58203 4.8358 0
M  V30 6311 H 580.381 -1.54063 5.44317 0
M  V30 6312 H 578.938 -1.40222 6.36538 0
M  V30 6313 N 582.371 -1.3172 0.865308 0
M  V30 6314 C 583.617 -1.97168 0.474633 0
M  V30 6315 C 583.95 -1.68263 -0.969604 0
M  V30 6316 O 583.225 -0.976588 -1.68205 0
M  V30 6317 C 583.508 -3.52689 0.726808 0
M  V30 6318 C 583.361 -3.91185 2.22024 0
M  V30 6319 C 584.68 -4.39689 0.190201 0
M  V30 6320 H 581.799 -0.716185 0.17392 0
M  V30 6321 H 584.441 -1.55925 1.08569 0
M  V30 6322 H 582.591 -3.8795 0.206705 0
M  V30 6323 H 584.263 -3.66049 2.80724 0
M  V30 6324 H 582.506 -3.3996 2.69462 0
M  V30 6325 H 583.177 -4.99604 2.34735 0
M  V30 6326 H 585.653 -4.11225 0.635103 0
M  V30 6327 H 584.529 -5.47469 0.396132 0
M  V30 6328 H 584.79 -4.32683 -0.907625 0
M  V30 6329 N 583.85 -0.624285 -1.44708 0
M  V30 6330 C 584.812 0.0749638 -2.29077 0
M  V30 6331 C 585.812 0.778965 -1.40673 0
M  V30 6332 O 587.003 0.624591 -1.62618 0
M  V30 6333 C 584.135 1.11663 -3.22094 0
M  V30 6334 H 585.327 -0.667013 -2.92388 0
M  V30 6335 H 582.88 -0.384098 -1.51507 0
M  V30 6336 H 583.615 1.88881 -2.63618 0
M  V30 6337 H 583.401 0.61583 -3.87234 0
M  V30 6338 H 584.891 1.60585 -3.8549 0
M  V30 6339 N 585.328 1.53329 -0.364422 0
M  V30 6340 C 586.558 2.05359 0.226096 0
M  V30 6341 C 586.966 1.23777 1.43094 0
M  V30 6342 O 586.309 0.271139 1.81688 0
M  V30 6343 C 586.371 3.52918 0.684794 0
M  V30 6344 C 586.035 4.55218 -0.403206 0
M  V30 6345 C 587.032 5.04583 -1.2527 0
M  V30 6346 C 584.717 4.99134 -0.563117 0
M  V30 6347 C 586.711 5.96463 -2.24745 0
M  V30 6348 C 584.398 5.9082 -1.56124 0
M  V30 6349 C 585.396 6.39375 -2.40184 0
M  V30 6350 O 585.084 7.29255 -3.38293 0
M  V30 6351 H 584.816 0.674588 0.0436772 0
M  V30 6352 H 587.37 1.98688 -0.520782 0
M  V30 6353 H 585.6 3.57122 1.48326 0
M  V30 6354 H 587.289 3.87812 1.19818 0
M  V30 6355 H 588.055 4.71403 -1.14034 0
M  V30 6356 H 583.934 4.60928 0.0813909 0
M  V30 6357 H 587.478 6.34285 -2.90393 0
M  V30 6358 H 583.375 6.23414 -1.67407 0
M  V30 6359 H 584.143 7.47249 -3.34009 0
M  V30 6360 N 586.806 0.0935595 1.57322 0
M  V30 6361 C 588.083 -0.612692 1.85756 0
M  V30 6362 C 588.463 -1.86439 0.99013 0
M  V30 6363 O 587.811 -2.28416 0.0621362 0
M  V30 6364 C 588.021 -0.929547 3.36393 0
M  V30 6365 C 589.369 -1.29366 4.04413 0
M  V30 6366 O 590.393 -1.02061 3.41265 0
M  V30 6367 O 589.252 -1.80498 5.15832 0
M  V30 6368 H 586.346 -0.306444 0.768128 0
M  V30 6369 H 588.892 0.126141 1.69231 0
M  V30 6370 H 587.664 -0.0414766 3.91278 0
M  V30 6371 H 587.287 -1.72441 3.5826 0
M  V30 6372 N 588.284 -1.56567 -0.180126 0
M  V30 6373 C 589.217 -1.90813 -1.25163 0
M  V30 6374 C 590.195 -0.7699 -1.43218 0
M  V30 6375 O 591.379 -1.02236 -1.58367 0
M  V30 6376 C 588.506 -2.15138 -2.61597 0
M  V30 6377 C 587.552 -3.37834 -2.60328 0
M  V30 6378 S 588.385 -4.92486 -2.1028 0
M  V30 6379 C 589.541 -5.19896 -3.48509 0
M  V30 6380 H 589.774 -2.81398 -0.959283 0
M  V30 6381 H 587.307 -1.49541 -0.3843 0
M  V30 6382 H 589.265 -2.29835 -3.40127 0
M  V30 6383 H 587.926 -1.25276 -2.88036 0
M  V30 6384 H 587.119 -3.52027 -3.60684 0
M  V30 6385 H 586.721 -3.22208 -1.8989 0
M  V30 6386 H 589.013 -5.11334 -4.44459 0
M  V30 6387 H 589.956 -6.21571 -3.39198 0
M  V30 6388 H 590.364 -4.47489 -3.44114 0
M  V30 6389 N 589.762 0.448376 -1.51087 0
M  V30 6390 C 591.01 1.19635 -1.62886 0
M  V30 6391 C 591.331 1.91977 -0.342024 0
M  V30 6392 O 590.601 1.85094 0.641636 0
M  V30 6393 H 589.181 0.444598 -0.600285 0
M  V30 6394 H 591.843 0.515138 -1.87969 0
M  V30 6395 H 590.939 1.93194 -2.45117 0
M  V30 6396 N 591.24 1.41047 0.703093 0
M  V30 6397 C 592.489 1.39301 1.4587 0
M  V30 6398 C 592.802 0.00267077 1.956 0
M  V30 6399 O 594.008 -0.137414 2.71152 0
M  V30 6400 C 592.464 2.44891 2.63735 0
M  V30 6401 C 592.072 3.89796 2.20824 0
M  V30 6402 C 593.816 2.5227 3.41409 0
M  V30 6403 C 591.723 4.86955 3.35602 0
M  V30 6404 H 590.653 0.518005 0.547893 0
M  V30 6405 H 593.304 1.66839 0.764009 0
M  V30 6406 H 591.686 2.10472 3.35436 0
M  V30 6407 H 592.86 4.33424 1.56461 0
M  V30 6408 H 591.175 3.86008 1.56163 0
M  V30 6409 H 593.772 3.22044 4.26839 0
M  V30 6410 H 594.115 1.55714 3.86081 0
M  V30 6411 H 594.648 2.85742 2.7676 0
M  V30 6412 H 591.387 5.84888 2.9595 0
M  V30 6413 H 590.907 4.47982 3.98839 0
M  V30 6414 H 592.586 5.07361 4.01489 0
M  V30 6415 N 592.718 -0.936591 1.26751 0
M  V30 6416 C 593.995 -1.66094 1.03306 0
M  V30 6417 C 594.375 -2.06568 -0.435058 0
M  V30 6418 O 593.723 -1.79305 -1.41641 0
M  V30 6419 C 593.933 -2.86969 1.98619 0
M  V30 6420 C 595.281 -3.58516 2.27489 0
M  V30 6421 O 596.305 -2.97082 1.96522 0
M  V30 6422 O 595.164 -4.69181 2.80235 0
M  V30 6423 H 592.258 -0.727568 0.393158 0
M  V30 6424 H 594.804 -0.987914 1.3798 0
M  V30 6425 H 593.576 -2.53985 2.9767 0
M  V30 6426 H 593.199 -3.61996 1.64454 0
M  V30 6427 N 594.196 -1.08629 -1.14182 0
M  V30 6428 C 595.612 -0.814363 -1.3726 0
M  V30 6429 C 595.812 0.575271 -1.93114 0
M  V30 6430 O 594.868 1.33165 -2.1453 0
M  V30 6431 C 596.181 -1.8989 -2.33157 0
M  V30 6432 C 597.729 -1.92518 -2.46791 0
M  V30 6433 C 598.204 -3.00092 -3.45989 0
M  V30 6434 N 599.695 -2.99279 -3.53534 0
M  V30 6435 C 600.43 -3.79158 -4.30147 0
M  V30 6436 N 599.926 -4.68923 -5.09983 0
M  V30 6437 N 601.719 -3.67451 -4.25366 0
M  V30 6438 H 593.87 -1.98232 -0.762758 0
M  V30 6439 H 596.133 -0.860383 -0.398051 0
M  V30 6440 H 595.839 -2.89809 -1.99257 0
M  V30 6441 H 595.713 -1.77013 -3.33086 0
M  V30 6442 H 598.1 -0.932425 -2.79982 0
M  V30 6443 H 598.181 -2.09473 -1.46816 0
M  V30 6444 H 597.825 -3.99575 -3.13532 0
M  V30 6445 H 597.755 -2.80382 -4.45751 0
M  V30 6446 H 600.246 -2.3422 -2.96563 0
M  V30 6447 H 600.559 -5.26475 -5.65724 0
M  V30 6448 H 598.904 -4.72964 -5.09244 0
M  V30 6449 H 602.095 -2.9669 -3.62067 0
M  V30 6450 H 602.268 -4.29944 -4.84822 0
M  V30 6451 N 595.674 1.31259 -0.872281 0
M  V30 6452 C 596.604 2.30929 -0.345554 0
M  V30 6453 C 597.585 1.60449 0.5648 0
M  V30 6454 O 598.77 1.8814 0.481335 0
M  V30 6455 C 595.9 3.44348 0.451823 0
M  V30 6456 C 594.854 4.26435 -0.365641 0
M  V30 6457 C 594.18 5.31785 0.557562 0
M  V30 6458 C 595.48 4.97159 -1.60095 0
M  V30 6459 H 597.174 2.75234 -1.17841 0
M  V30 6460 H 594.72 1.3232 -0.568094 0
M  V30 6461 H 596.673 4.13128 0.830854 0
M  V30 6462 H 595.397 2.98816 1.31821 0
M  V30 6463 H 594.056 3.59326 -0.726649 0
M  V30 6464 H 593.704 4.82502 1.4213 0
M  V30 6465 H 593.404 5.87598 0.0144878 0
M  V30 6466 H 594.928 6.03424 0.933387 0
M  V30 6467 H 596.342 5.58523 -1.29323 0
M  V30 6468 H 594.739 5.62779 -2.08327 0
M  V30 6469 H 595.809 4.24012 -2.35249 0
M  V30 6470 N 597.152 0.631951 1.44375 0
M  V30 6471 C 598.377 0.142146 2.06912 0
M  V30 6472 C 598.802 -1.17456 1.4692 0
M  V30 6473 O 598.16 -1.72074 0.570975 0
M  V30 6474 C 598.208 0.0417952 3.60576 0
M  V30 6475 O 597.312 -1.00194 4.00044 0
M  V30 6476 H 596.653 0.0851491 0.658518 0
M  V30 6477 H 599.183 0.868863 1.85235 0
M  V30 6478 H 599.193 -0.148517 4.0773 0
M  V30 6479 H 597.868 1.0031 4.03622 0
M  V30 6480 H 596.445 -0.786131 3.64519 0
M  V30 6481 N 598.631 -1.53133 0.372548 0
M  V30 6482 C 599.541 -2.29671 -0.478379 0
M  V30 6483 C 600.557 -1.35913 -1.08644 0
M  V30 6484 O 601.733 -1.68975 -1.09588 0
M  V30 6485 C 598.798 -3.07625 -1.599 0
M  V30 6486 C 597.859 -4.17061 -1.01776 0
M  V30 6487 C 597.092 -4.91289 -2.08497 0
M  V30 6488 O 597.315 -4.65442 -3.29727 0
M  V30 6489 O 596.249 -5.7705 -1.71164 0
M  V30 6490 H 600.075 -3.03355 0.144649 0
M  V30 6491 H 597.66 -1.48773 0.136729 0
M  V30 6492 H 599.542 -3.56281 -2.25038 0
M  V30 6493 H 598.217 -2.3677 -2.2073 0
M  V30 6494 H 597.124 -3.72641 -0.330098 0
M  V30 6495 H 598.457 -4.90102 -0.453915 0
M  V30 6496 N 600.109 -0.101901 -1.5727 0
M  V30 6497 C 601.355 0.554864 -1.95686 0
M  V30 6498 C 601.71 1.65368 -0.983415 0
M  V30 6499 O 601.003 1.91597 -0.0105374 0
M  V30 6500 C 601.197 1.14898 -3.38427 0
M  V30 6501 C 601.026 0.109251 -4.49567 0
M  V30 6502 C 599.796 -0.316633 -5.04307 0
M  V30 6503 C 601.994 -0.665196 -5.0998 0
M  V30 6504 N 599.976 -1.34393 -5.99009 0
M  V30 6505 C 601.347 -1.54413 -6.00464 0
M  V30 6506 C 603.402 -0.717966 -4.92696 0
M  V30 6507 C 602.105 -2.47122 -6.75517 0
M  V30 6508 C 604.131 -1.63268 -5.68417 0
M  V30 6509 C 603.493 -2.49923 -6.58572 0
M  V30 6510 H 599.592 0.17317 -0.762585 0
M  V30 6511 H 602.176 -0.18605 -1.93809 0
M  V30 6512 H 600.347 1.85969 -3.40984 0
M  V30 6513 H 602.079 1.76867 -3.64006 0
M  V30 6514 H 598.834 0.0724419 -4.73545 0
M  V30 6515 H 599.258 -1.85598 -6.51062 0
M  V30 6516 H 603.9 -0.0621637 -4.22754 0
M  V30 6517 H 601.618 -3.13724 -7.44717 0
M  V30 6518 H 605.204 -1.67874 -5.57054 0
M  V30 6519 H 604.084 -3.19553 -7.16139 0
M  V30 6520 N 601.587 1.56661 0.17182 0
M  V30 6521 C 602.52 1.91474 1.24149 0
M  V30 6522 C 603.498 0.777485 1.42807 0
M  V30 6523 O 604.682 1.03075 1.57822 0
M  V30 6524 C 601.809 2.16523 2.60453 0
M  V30 6525 C 600.855 3.39209 2.58533 0
M  V30 6526 S 601.688 4.93594 2.07665 0
M  V30 6527 C 602.844 5.21737 3.45747 0
M  V30 6528 H 603.077 2.81903 0.944346 0
M  V30 6529 H 600.61 1.49743 0.376364 0
M  V30 6530 H 602.568 2.31635 3.38903 0
M  V30 6531 H 601.229 1.26802 2.87368 0
M  V30 6532 H 600.422 3.53935 3.58812 0
M  V30 6533 H 600.024 3.2321 1.88178 0
M  V30 6534 H 602.316 5.13684 4.41741 0
M  V30 6535 H 603.259 6.23361 3.35896 0
M  V30 6536 H 603.667 4.49307 3.41736 0
M  V30 6537 N 603.065 -0.440357 1.51323 0
M  V30 6538 C 604.313 -1.18769 1.63518 0
M  V30 6539 C 604.634 -1.91793 0.352201 0
M  V30 6540 O 603.904 -1.85432 -0.631811 0
M  V30 6541 H 602.484 -0.441408 0.602634 0
M  V30 6542 H 605.146 -0.505162 1.8824 0
M  V30 6543 H 604.242 -1.91892 2.46138 0
M  V30 6544 N 604.543 -1.41418 -0.695603 0
M  V30 6545 C 605.49 -1.43264 -1.80954 0
M  V30 6546 C 606.46 -0.287016 -1.63601 0
M  V30 6547 O 607.645 -0.488054 -1.84452 0
M  V30 6548 C 604.785 -1.32054 -3.18835 0
M  V30 6549 C 603.898 -2.56485 -3.4762 0
M  V30 6550 C 603.033 -2.3757 -4.75115 0
M  V30 6551 C 602.072 -3.57477 -4.96867 0
M  V30 6552 N 601.209 -3.37632 -6.15588 0
M  V30 6553 H 606.049 -2.38467 -1.78711 0
M  V30 6554 H 603.586 -1.18415 -0.872715 0
M  V30 6555 H 605.544 -1.23558 -3.98484 0
M  V30 6556 H 604.174 -0.404592 -3.20254 0
M  V30 6557 H 603.226 -2.75432 -2.62376 0
M  V30 6558 H 604.538 -3.45678 -3.59594 0
M  V30 6559 H 603.692 -2.2654 -5.62818 0
M  V30 6560 H 602.431 -1.45834 -4.65386 0
M  V30 6561 H 601.436 -3.68961 -4.07612 0
M  V30 6562 H 602.661 -4.50167 -5.08455 0
M  V30 6563 H 600.607 -2.48596 -6.07072 0
M  V30 6564 H 600.524 -4.20401 -6.2833 0
M  V30 6565 H 601.792 -3.30375 -7.06026 0
M  V30 6566 N 606.021 0.929856 -1.27246 0
M  V30 6567 C 607.268 1.67731 -1.13457 0
M  V30 6568 C 607.596 1.9185 0.319998 0
M  V30 6569 O 606.851 1.50524 1.25064 0
M  V30 6570 C 607.15 3.05116 -1.86115 0
M  V30 6571 C 606.816 3.00715 -3.35978 0
M  V30 6572 C 605.478 2.99222 -3.76855 0
M  V30 6573 C 607.83 2.92168 -4.3161 0
M  V30 6574 C 605.158 2.86962 -5.11732 0
M  V30 6575 C 607.51 2.81449 -5.66542 0
M  V30 6576 C 606.174 2.78305 -6.06715 0
M  V30 6577 H 605.444 0.613772 -0.415168 0
M  V30 6578 H 608.091 1.08456 -1.57827 0
M  V30 6579 H 606.396 3.68083 -1.34246 0
M  V30 6580 H 608.093 3.61822 -1.72876 0
M  V30 6581 H 604.683 3.02664 -3.03468 0
M  V30 6582 H 608.867 2.92421 -4.01003 0
M  V30 6583 H 604.123 2.82913 -5.42006 0
M  V30 6584 H 608.297 2.738 -6.40317 0
M  V30 6585 H 605.924 2.68561 -7.11181 0
M  V30 6586 N 607.499 1.09233 1.13605 0
M  V30 6587 C 608.747 0.825525 1.84471 0
M  V30 6588 C 609.068 -0.650702 1.83823 0
M  V30 6589 O 608.338 -1.47204 1.29259 0
M  V30 6590 H 606.918 0.3024 0.683054 0
M  V30 6591 H 609.58 1.38006 1.37624 0
M  V30 6592 H 608.676 1.17727 2.89045 0
M  V30 6593 N 608.977 -1.30795 0.87923 0
M  V30 6594 C 610.207 -2.00237 0.50881 0
M  V30 6595 C 610.615 -1.66115 -0.905682 0
M  V30 6596 O 609.958 -0.89138 -1.60624 0
M  V30 6597 C 610.02 -3.54508 0.597003 0
M  V30 6598 C 609.684 -4.12131 1.97477 0
M  V30 6599 C 610.681 -4.28552 2.94346 0
M  V30 6600 C 608.366 -4.47644 2.2786 0
M  V30 6601 C 610.36 -4.79689 4.19735 0
M  V30 6602 C 608.047 -4.98481 3.53496 0
M  V30 6603 C 609.045 -5.14456 4.49248 0
M  V30 6604 O 608.733 -5.64199 5.72656 0
M  V30 6605 H 608.465 -0.647026 0.195788 0
M  V30 6606 H 611.019 -1.67785 1.1848 0
M  V30 6607 H 609.249 -3.86461 -0.135945 0
M  V30 6608 H 610.938 -4.05198 0.238684 0
M  V30 6609 H 611.704 -4.01424 2.72183 0
M  V30 6610 H 607.583 -4.34481 1.54102 0
M  V30 6611 H 611.127 -4.92073 4.9448 0
M  V30 6612 H 607.024 -5.25044 3.75498 0
M  V30 6613 H 607.792 -5.82551 5.74957 0
M  V30 6614 N 610.455 -0.639598 -1.44038 0
M  V30 6615 C 611.703 -0.147188 -2.01563 0
M  V30 6616 C 612.024 1.2384 -1.50628 0
M  V30 6617 O 611.294 1.82452 -0.713316 0
M  V30 6618 H 609.874 -0.0514231 -0.745228 0
M  V30 6619 H 612.536 -0.828205 -1.76428 0
M  V30 6620 H 611.632 -0.121358 -3.11864 0
M  V30 6621 N 611.933 1.52934 -0.380664 0
M  V30 6622 C 612.883 2.22989 0.475399 0
M  V30 6623 C 613.867 1.23058 1.03661 0
M  V30 6624 O 615.059 1.48436 0.964146 0
M  V30 6625 C 612.188 3.0338 1.60671 0
M  V30 6626 C 611.274 4.107 1.05766 0
M  V30 6627 N 611.665 5.05264 0.232837 0
M  V30 6628 C 609.963 4.25676 1.33101 0
M  V30 6629 C 610.664 5.81658 -0.0695134 0
M  V30 6630 N 609.64 5.40989 0.532144 0
M  V30 6631 H 613.442 2.93456 -0.161418 0
M  V30 6632 H 610.956 1.61291 -0.189495 0
M  V30 6633 H 612.953 3.52098 2.23232 0
M  V30 6634 H 611.613 2.34446 2.24644 0
M  V30 6635 H 612.624 5.17739 -0.129204 0
M  V30 6636 H 609.301 3.6797 1.97241 0
M  V30 6637 H 610.691 6.67843 -0.737269 0
M  V30 6638 N 613.412 0.11024 1.57214 0
M  V30 6639 C 614.642 -0.557025 1.98949 0
M  V30 6640 C 615.05 -1.61317 0.988606 0
M  V30 6641 O 614.393 -1.83679 -0.0279159 0
M  V30 6642 C 614.455 -1.24956 3.37085 0
M  V30 6643 C 614.119 -0.342398 4.55716 0
M  V30 6644 C 615.116 0.415511 5.18237 0
M  V30 6645 C 612.801 -0.256029 5.01647 0
M  V30 6646 C 614.795 1.24761 6.25071 0
M  V30 6647 C 612.482 0.579713 6.08344 0
M  V30 6648 C 613.48 1.33017 6.69922 0
M  V30 6649 O 613.168 2.15205 7.74559 0
M  V30 6650 H 612.9 -0.152792 0.658506 0
M  V30 6651 H 615.454 0.19076 2.04512 0
M  V30 6652 H 613.684 -2.04424 3.2825 0
M  V30 6653 H 615.373 -1.81286 3.63167 0
M  V30 6654 H 616.139 0.358605 4.83672 0
M  V30 6655 H 612.018 -0.829831 4.5347 0
M  V30 6656 H 615.562 1.83386 6.73064 0
M  V30 6657 H 611.459 0.638044 6.42339 0
M  V30 6658 H 612.227 2.08052 7.91617 0
M  V30 6659 N 614.89 -1.56749 -0.16351 0
M  V30 6660 C 616.118 -1.86577 -0.894233 0
M  V30 6661 C 616.533 -0.696543 -1.75481 0
M  V30 6662 O 615.89 0.334161 -1.79415 0
M  V30 6663 C 615.941 -3.15508 -1.76456 0
M  V30 6664 O 615.662 -4.27926 -0.938685 0
M  V30 6665 C 617.163 -3.58737 -2.60428 0
M  V30 6666 H 614.383 -0.618829 -0.259405 0
M  V30 6667 H 616.927 -2.03863 -0.161259 0
M  V30 6668 H 615.082 -3.00025 -2.45079 0
M  V30 6669 H 615.496 -5.01546 -1.53465 0
M  V30 6670 H 616.97 -4.51832 -3.17099 0
M  V30 6671 H 617.447 -2.83229 -3.35675 0
M  V30 6672 H 618.053 -3.76858 -1.97125 0
M  V30 6673 N 616.368 0.432326 -1.51554 0
M  V30 6674 C 617.616 1.17901 -1.64146 0
M  V30 6675 C 617.937 1.91604 -0.362367 0
M  V30 6676 O 617.207 1.85764 0.621968 0
M  V30 6677 H 615.787 0.438206 -0.604966 0
M  V30 6678 H 618.449 0.495172 -1.88505 0
M  V30 6679 H 617.545 1.90584 -2.47152 0
M  V30 6680 N 617.846 1.41785 0.688094 0
M  V30 6681 C 619.095 1.4084 1.44385 0
M  V30 6682 C 619.408 0.0234166 1.95586 0
M  V30 6683 O 620.614 -0.108647 2.71283 0
M  V30 6684 C 619.07 2.47675 2.61123 0
M  V30 6685 C 618.678 3.92116 2.16677 0
M  V30 6686 C 620.422 2.55877 3.38714 0
M  V30 6687 C 618.329 4.90487 3.30419 0
M  V30 6688 H 617.259 0.523787 0.542368 0
M  V30 6689 H 619.91 1.6764 0.74627 0
M  V30 6690 H 618.292 2.14018 3.33185 0
M  V30 6691 H 619.466 4.35059 1.51856 0
M  V30 6692 H 617.781 3.87642 1.5206 0
M  V30 6693 H 620.378 3.26553 4.234 0
M  V30 6694 H 620.721 1.59801 3.84408 0
M  V30 6695 H 621.254 2.88662 2.73714 0
M  V30 6696 H 617.993 5.87994 2.89729 0
M  V30 6697 H 617.513 4.52187 3.94065 0
M  V30 6698 H 619.192 5.11591 3.96085 0
M  V30 6699 N 619.324 -0.923095 1.27737 0
M  V30 6700 C 620.601 -1.64989 1.05062 0
M  V30 6701 C 620.981 -2.07018 -0.413124 0
M  V30 6702 O 620.329 -1.80797 -1.39731 0
M  V30 6703 C 620.539 -2.84847 2.01652 0
M  V30 6704 C 621.887 -3.56083 2.31279 0
M  V30 6705 O 622.911 -2.94981 1.99662 0
M  V30 6706 O 621.77 -4.66182 2.85196 0
M  V30 6707 H 618.864 -0.723357 0.400853 0
M  V30 6708 H 621.41 -0.973224 1.3902 0
M  V30 6709 H 620.182 -2.50814 3.00347 0
M  V30 6710 H 619.805 -3.60231 1.68284 0
M  V30 6711 N 620.802 -1.09834 -1.13024 0
M  V30 6712 C 621.732 -0.763451 -2.20666 0
M  V30 6713 C 622.713 0.260778 -1.68089 0
M  V30 6714 O 623.898 0.127915 -1.93778 0
M  V30 6715 C 621.028 -0.187744 -3.46792 0
M  V30 6716 C 619.982 -1.14196 -4.12484 0
M  V30 6717 C 619.308 -0.427755 -5.32986 0
M  V30 6718 C 620.608 -2.48607 -4.59338 0
M  V30 6719 H 622.302 -1.66347 -2.48936 0
M  V30 6720 H 619.848 -0.801261 -1.19649 0
M  V30 6721 H 621.801 0.0586375 -4.21359 0
M  V30 6722 H 620.525 0.747485 -3.17931 0
M  V30 6723 H 619.184 -1.37369 -3.3989 0
M  V30 6724 H 618.832 0.511747 -5.0039 0
M  V30 6725 H 618.532 -1.06403 -5.77886 0
M  V30 6726 H 620.056 -0.189772 -6.10305 0
M  V30 6727 H 621.47 -2.29618 -5.25308 0
M  V30 6728 H 619.867 -3.08062 -5.14993 0
M  V30 6729 H 620.937 -3.09062 -3.73642 0
M  V30 6730 N 622.28 1.30327 -0.886154 0
M  V30 6731 C 623.243 2.26376 -0.358687 0
M  V30 6732 C 624.243 1.52845 0.499498 0
M  V30 6733 O 625.433 1.71483 0.306485 0
M  V30 6734 C 622.565 3.37379 0.488726 0
M  V30 6735 H 623.758 2.74547 -1.20681 0
M  V30 6736 H 621.311 1.41536 -0.663113 0
M  V30 6737 H 622.046 2.94526 1.35739 0
M  V30 6738 H 621.831 3.91897 -0.126003 0
M  V30 6739 H 623.321 4.08868 0.84952 0
M  V30 6740 N 623.758 0.647228 1.43697 0
M  V30 6741 C 624.668 -0.0487997 2.34549 0
M  V30 6742 C 625.684 -0.818586 1.53542 0
M  V30 6743 O 626.86 -0.767195 1.86215 0
M  V30 6744 C 623.925 -1.00734 3.31743 0
M  V30 6745 C 622.986 -0.23515 4.28655 0
M  V30 6746 C 622.219 -1.14803 5.21206 0
M  V30 6747 O 622.442 -2.38717 5.18045 0
M  V30 6748 O 621.376 -0.623667 5.9866 0
M  V30 6749 H 625.202 0.698863 2.9555 0
M  V30 6750 H 622.787 0.407412 1.43738 0
M  V30 6751 H 624.669 -1.55837 3.91526 0
M  V30 6752 H 623.344 -1.73534 2.73254 0
M  V30 6753 H 622.251 0.359319 3.7237 0
M  V30 6754 H 623.584 0.453152 4.9011 0
M  V30 6755 N 625.236 -1.5273 0.388769 0
M  V30 6756 C 626.146 -2.30165 -0.453993 0
M  V30 6757 C 627.162 -1.37058 -1.07197 0
M  V30 6758 O 628.338 -1.70127 -1.0779 0
M  V30 6759 C 625.403 -3.09303 -1.56628 0
M  V30 6760 C 624.464 -4.18117 -0.973467 0
M  V30 6761 C 623.697 -4.93472 -2.03275 0
M  V30 6762 O 623.92 -4.68913 -3.24772 0
M  V30 6763 O 622.854 -5.78833 -1.65034 0
M  V30 6764 H 626.68 -3.03185 0.176816 0
M  V30 6765 H 624.265 -1.4862 0.152501 0
M  V30 6766 H 626.147 -3.58648 -2.21246 0
M  V30 6767 H 624.822 -2.39098 -2.18206 0
M  V30 6768 H 623.729 -3.7297 -0.290556 0
M  V30 6769 H 625.062 -4.90556 -0.401908 0
M  V30 6770 N 626.714 -0.118576 -1.57153 0
M  V30 6771 C 628.13 0.238014 -1.57815 0
M  V30 6772 C 628.33 1.66747 -1.13127 0
M  V30 6773 O 627.386 2.38867 -0.818462 0
M  V30 6774 C 628.699 0.00508207 -3.007 0
M  V30 6775 C 630.247 0.0710139 -3.12919 0
M  V30 6776 C 630.722 -0.13422 -4.57803 0
M  V30 6777 N 632.213 -0.0801755 -4.63131 0
M  V30 6778 C 632.948 -0.213885 -5.73001 0
M  V30 6779 N 632.444 -0.403742 -6.91623 0
M  V30 6780 N 634.237 -0.15349 -5.6189 0
M  V30 6781 H 626.388 -1.05226 -1.84503 0
M  V30 6782 H 628.651 -0.414318 -0.852669 0
M  V30 6783 H 628.357 -0.983125 -3.3768 0
M  V30 6784 H 628.231 0.73714 -3.69927 0
M  V30 6785 H 630.618 1.04975 -2.75798 0
M  V30 6786 H 630.699 -0.692918 -2.46236 0
M  V30 6787 H 630.343 -1.10992 -4.95624 0
M  V30 6788 H 630.273 0.649692 -5.22577 0
M  V30 6789 H 632.764 0.0630689 -3.77847 0
M  V30 6790 H 633.077 -0.496645 -7.71202 0
M  V30 6791 H 631.422 -0.43971 -6.93608 0
M  V30 6792 H 634.613 -0.00613174 -4.681 0
M  V30 6793 H 634.786 -0.261138 -6.47474 0
M  V30 6794 N 628.193 1.56834 0.155195 0
M  V30 6795 C 629.418 1.87412 0.888337 0
M  V30 6796 C 629.843 0.70671 1.74319 0
M  V30 6797 O 629.201 -0.343892 1.78009 0
M  V30 6798 C 629.249 3.1652 1.72765 0
M  V30 6799 O 628.353 2.99877 2.83103 0
M  V30 6800 H 627.694 0.615983 0.247914 0
M  V30 6801 H 630.224 2.04061 0.148478 0
M  V30 6802 H 630.234 3.48334 2.12433 0
M  V30 6803 H 628.909 4.01094 1.09985 0
M  V30 6804 H 627.486 2.79453 2.46902 0
M  V30 6805 N 629.671 -0.424282 1.51781 0
M  V30 6806 C 630.919 -1.17028 1.64769 0
M  V30 6807 C 631.24 -1.91409 0.372523 0
M  V30 6808 O 630.51 -1.86091 -0.612108 0
M  V30 6809 H 629.09 -0.434992 0.607282 0
M  V30 6810 H 631.752 -0.485169 1.88765 0
M  V30 6811 H 630.848 -1.8927 2.4816 0
M  V30 6812 N 631.149 -1.42148 -0.680565 0
M  V30 6813 C 632.097 -1.45401 -1.81552 0
M  V30 6814 C 633.091 -0.33036 -1.66147 0
M  V30 6815 O 634.297 -0.503103 -1.72826 0
M  V30 6816 H 630.672 -0.455265 -0.59853 0
M  V30 6817 H 632.643 -2.41024 -1.75926 0
M  V30 6818 C 631.392 -1.36769 -3.19671 0
M  V30 6819 H 630.715 -2.22525 -3.32149 0
M  V30 6820 H 632.155 -1.43106 -3.9912 0
M  V30 6821 C 630.614 -0.0817752 -3.36801 0
M  V30 6822 O 631.144 0.867707 -3.92216 0
M  V30 6823 N 629.35 -0.000799811 -2.906 0
M  V30 6824 H 628.897 -0.774231 -2.4569 0
M  V30 6825 H 628.855 0.858961 -3.02439 0
M  V30 6826 N 632.627 0.916307 -1.28225 0
M  V30 6827 C 633.56 2.01954 -1.06254 0
M  V30 6828 C 634.538 1.62587 0.0205983 0
M  V30 6829 O 635.722 1.88073 -0.126824 0
M  V30 6830 C 632.849 3.33086 -0.614141 0
M  V30 6831 C 631.895 3.91435 -1.69354 0
M  V30 6832 S 632.728 4.22603 -3.28887 0
M  V30 6833 C 633.884 5.568 -2.85876 0
M  V30 6834 H 634.117 2.20281 -1.99659 0
M  V30 6835 H 631.65 1.06085 -1.12184 0
M  V30 6836 H 633.608 4.089 -0.36213 0
M  V30 6837 H 632.269 3.12664 0.300036 0
M  V30 6838 H 631.462 4.86098 -1.33136 0
M  V30 6839 H 631.064 3.22248 -1.89821 0
M  V30 6840 H 633.356 6.3658 -2.31888 0
M  V30 6841 H 634.299 5.97927 -3.79326 0
M  V30 6842 H 634.707 5.17865 -2.24669 0
M  V30 6843 N 634.105 1.10431 1.1244 0
M  V30 6844 C 635.516 0.864439 1.65482 0
M  V30 6845 C 635.867 -0.60527 1.8663 0
M  V30 6846 O 634.992 -1.46492 1.59276 0
M  V30 6847 C 635.587 1.56267 3.0061 0
M  V30 6848 C 634.146 1.3695 3.50602 0
M  V30 6849 C 633.293 1.61209 2.25626 0
M  V30 6850 H 636.244 1.26203 0.962209 0
M  V30 6851 H 636.265 1.00166 3.67079 0
M  V30 6852 H 635.777 2.63231 2.85186 0
M  V30 6853 H 633.878 0.321481 3.71211 0
M  V30 6854 H 633.991 2.11143 4.30064 0
M  V30 6855 H 632.355 1.03482 2.32731 0
M  V30 6856 H 633.138 2.69425 2.12756 0
M  V30 6857 N 635.583 -1.29855 0.893053 0
M  V30 6858 C 636.811 -1.99976 0.530788 0
M  V30 6859 C 637.226 -1.66889 -0.882799 0
M  V30 6860 O 636.583 -0.910352 -1.58173 0
M  V30 6861 C 636.634 -3.54547 0.705587 0
M  V30 6862 O 636.355 -3.86458 2.06353 0
M  V30 6863 C 637.856 -4.41937 0.347387 0
M  V30 6864 H 635.076 -0.639129 0.204339 0
M  V30 6865 H 637.62 -1.65549 1.20057 0
M  V30 6866 H 635.775 -3.87311 0.0830685 0
M  V30 6867 H 636.189 -4.81146 2.08803 0
M  V30 6868 H 637.663 -5.4954 0.520557 0
M  V30 6869 H 638.14 -4.33339 -0.715139 0
M  V30 6870 H 638.746 -4.14633 0.946567 0
M  V30 6871 N 637.061 -0.65484 -1.43351 0
M  V30 6872 C 638.477 -0.32255 -1.56307 0
M  V30 6873 C 638.677 1.17324 -1.63821 0
M  V30 6874 O 637.733 1.95813 -1.59417 0
M  V30 6875 C 639.046 -1.03533 -2.82314 0
M  V30 6876 C 640.594 -1.01574 -2.9606 0
M  V30 6877 C 641.069 -1.70945 -4.24902 0
M  V30 6878 N 642.56 -1.67716 -4.3177 0
M  V30 6879 C 643.295 -2.18265 -5.30234 0
M  V30 6880 N 642.791 -2.7711 -6.34966 0
M  V30 6881 N 644.584 -2.08756 -5.21898 0
M  V30 6882 H 636.735 -1.62549 -1.36717 0
M  V30 6883 H 638.998 -0.683676 -0.656727 0
M  V30 6884 H 638.704 -2.09045 -2.8283 0
M  V30 6885 H 638.578 -0.587913 -3.7259 0
M  V30 6886 H 640.965 0.0309834 -2.95084 0
M  V30 6887 H 641.046 -1.50186 -2.07069 0
M  V30 6888 H 640.69 -2.75574 -4.26639 0
M  V30 6889 H 640.62 -1.19797 -5.12793 0
M  V30 6890 H 643.111 -1.24777 -3.56706 0
M  V30 6891 H 643.424 -3.13353 -7.06421 0
M  V30 6892 H 641.769 -2.81171 -6.35585 0
M  V30 6893 H 644.96 -1.62488 -4.38994 0
M  V30 6894 H 645.133 -2.48459 -5.98475 0
M  V30 6895 N 638.539 1.52521 -0.396863 0
M  V30 6896 C 639.449 2.30403 0.44178 0
M  V30 6897 C 640.465 1.37625 1.06468 0
M  V30 6898 O 641.641 1.70697 1.06886 0
M  V30 6899 C 638.706 3.1013 1.54986 0
M  V30 6900 C 637.767 4.18628 0.951279 0
M  V30 6901 C 637 4.94543 2.00655 0
M  V30 6902 O 637.223 4.70629 3.22281 0
M  V30 6903 O 636.157 5.797 1.61962 0
M  V30 6904 H 639.983 3.03087 -0.192892 0
M  V30 6905 H 637.568 1.48537 -0.16038 0
M  V30 6906 H 639.45 3.59816 2.19341 0
M  V30 6907 H 638.125 2.40251 2.16935 0
M  V30 6908 H 637.032 3.73119 0.270773 0
M  V30 6909 H 638.365 4.90763 0.375887 0
M  V30 6910 N 640.017 0.126909 1.57088 0
M  V30 6911 C 641.263 -0.523662 1.96543 0
M  V30 6912 C 641.618 -1.63783 1.0096 0
M  V30 6913 O 640.911 -1.91556 0.0410175 0
M  V30 6914 C 641.105 -1.095 3.40212 0
M  V30 6915 C 640.934 -0.037715 4.49684 0
M  V30 6916 C 639.704 0.396823 5.03739 0
M  V30 6917 C 641.902 0.746245 5.08857 0
M  V30 6918 N 639.884 1.43905 5.96795 0
M  V30 6919 C 641.255 1.63947 5.97931 0
M  V30 6920 C 643.31 0.796259 4.91492 0
M  V30 6921 C 642.013 2.57837 6.715 0
M  V30 6922 C 644.039 1.7229 5.65747 0
M  V30 6923 C 643.401 2.60369 6.54513 0
M  V30 6924 H 639.5 -0.161016 0.765244 0
M  V30 6925 H 642.084 0.21686 1.93489 0
M  V30 6926 H 640.255 -1.80521 3.43899 0
M  V30 6927 H 641.987 -1.71054 3.66773 0
M  V30 6928 H 638.742 0.00290406 4.736 0
M  V30 6929 H 639.166 1.95932 6.48027 0
M  V30 6930 H 643.808 0.129412 4.22602 0
M  V30 6931 H 641.526 3.25532 7.39631 0
M  V30 6932 H 645.112 1.76715 5.54313 0
M  V30 6933 H 643.992 3.30906 7.10965 0
M  V30 6934 N 641.495 -1.56914 -0.146875 0
M  V30 6935 C 642.442 -1.98275 -1.18134 0
M  V30 6936 C 643.412 -0.850367 -1.42681 0
M  V30 6937 O 644.597 -1.11244 -1.55014 0
M  V30 6938 C 641.737 -2.36861 -2.5098 0
M  V30 6939 C 640.85 -3.63391 -2.33605 0
M  V30 6940 C 639.985 -3.91079 -3.59486 0
M  V30 6941 C 639.024 -5.10879 -3.37149 0
M  V30 6942 N 638.161 -5.34577 -4.55161 0
M  V30 6943 H 643.001 -2.8645 -0.821622 0
M  V30 6944 H 640.538 -1.41718 -0.394248 0
M  V30 6945 H 642.496 -2.57262 -3.28439 0
M  V30 6946 H 641.126 -1.51766 -2.84898 0
M  V30 6947 H 640.178 -3.50766 -1.47199 0
M  V30 6948 H 641.49 -4.51007 -2.13059 0
M  V30 6949 H 640.644 -4.11979 -4.45374 0
M  V30 6950 H 639.383 -3.01885 -3.83036 0
M  V30 6951 H 638.388 -4.89853 -2.49649 0
M  V30 6952 H 639.613 -6.01626 -3.14997 0
M  V30 6953 H 637.559 -4.48337 -4.78884 0
M  V30 6954 H 637.476 -6.16463 -4.37618 0
M  V30 6955 H 638.744 -5.59975 -5.42263 0
M  V30 6956 N 642.974 0.416227 -1.52004 0
M  V30 6957 C 643.906 1.52552 -1.71058 0
M  V30 6958 C 644.919 1.51693 -0.59102 0
M  V30 6959 O 646.108 1.56087 -0.865973 0
M  V30 6960 C 643.208 2.91455 -1.72937 0
M  V30 6961 C 642.381 3.16584 -3.01816 0
M  V30 6962 C 641.44 4.35322 -2.95603 0
M  V30 6963 O 640.466 4.32947 -3.6952 0
M  V30 6964 N 641.668 5.40049 -2.12903 0
M  V30 6965 H 644.433 1.36604 -2.66757 0
M  V30 6966 H 641.994 0.60544 -1.50153 0
M  V30 6967 H 643.986 3.68944 -1.66321 0
M  V30 6968 H 642.556 3.00895 -0.847418 0
M  V30 6969 H 641.776 2.27203 -3.22137 0
M  V30 6970 H 643.064 3.30213 -3.87088 0
M  V30 6971 H 642.462 5.44823 -1.52265 0
M  V30 6972 H 641.019 6.16308 -2.1215 0
M  V30 6973 N 644.452 1.42507 0.673017 0
M  V30 6974 C 645.399 1.46124 1.78651 0
M  V30 6975 C 646.369 0.313007 1.63124 0
M  V30 6976 O 647.554 0.517337 1.83653 0
M  V30 6977 C 644.694 1.3711 3.16694 0
M  V30 6978 C 643.807 2.61983 3.43495 0
M  V30 6979 C 642.942 2.45098 4.71275 0
M  V30 6980 C 641.981 3.65336 4.91117 0
M  V30 6981 N 641.118 3.47383 6.10139 0
M  V30 6982 H 645.958 2.4128 1.74895 0
M  V30 6983 H 643.495 1.19788 0.853766 0
M  V30 6984 H 645.453 1.29881 3.96468 0
M  V30 6985 H 644.083 0.45549 3.1957 0
M  V30 6986 H 643.135 2.79571 2.57961 0
M  V30 6987 H 644.447 3.51355 3.5405 0
M  V30 6988 H 643.601 2.35466 5.59143 0
M  V30 6989 H 642.34 1.53219 4.63007 0
M  V30 6990 H 641.345 3.754 4.0169 0
M  V30 6991 H 642.57 4.58199 5.01229 0
M  V30 6992 H 640.516 2.58222 6.0304 0
M  V30 6993 H 640.433 4.30344 6.21563 0
M  V30 6994 H 641.701 3.41565 7.00681 0
M  V30 6995 N 645.93 -0.909495 1.28709 0
M  V30 6996 C 647.346 -1.18862 1.06508 0
M  V30 6997 C 647.546 -2.00604 -0.189864 0
M  V30 6998 O 646.602 -2.36281 -0.890355 0
M  V30 6999 C 647.915 -1.91908 2.31499 0
M  V30 7000 C 649.463 -2.04773 2.36721 0
M  V30 7001 C 649.938 -2.81228 3.6149 0
M  V30 7002 N 651.429 -2.88787 3.62155 0
M  V30 7003 C 652.164 -3.48455 4.55375 0
M  V30 7004 N 651.66 -4.09369 5.58918 0
M  V30 7005 N 653.453 -3.46035 4.42963 0
M  V30 7006 H 645.604 -0.363867 2.0926 0
M  V30 7007 H 647.867 -0.223649 0.921241 0
M  V30 7008 H 647.573 -1.39275 3.22948 0
M  V30 7009 H 647.447 -2.92436 2.38245 0
M  V30 7010 H 649.834 -2.56585 1.45767 0
M  V30 7011 H 649.915 -1.03408 2.33967 0
M  V30 7012 H 649.559 -2.30094 4.5279 0
M  V30 7013 H 649.489 -3.82917 3.61499 0
M  V30 7014 H 651.98 -2.45514 2.87283 0
M  V30 7015 H 652.293 -4.52891 6.26187 0
M  V30 7016 H 650.638 -4.0786 5.62739 0
M  V30 7017 H 653.829 -2.9766 3.6127 0
M  V30 7018 H 654.002 -3.92244 5.15799 0
M  V30 7019 N 647.408 -1.11026 -1.11852 0
M  V30 7020 C 648.655 -0.85646 -1.83497 0
M  V30 7021 C 648.983 0.617938 -1.84423 0
M  V30 7022 O 648.238 1.47194 -1.28966 0
M  V30 7023 C 648.537 -1.35777 -3.30604 0
M  V30 7024 C 648.203 -2.84465 -3.49843 0
M  V30 7025 C 646.865 -3.25068 -3.54802 0
M  V30 7026 C 649.217 -3.80251 -3.56453 0
M  V30 7027 C 646.545 -4.60194 -3.63921 0
M  V30 7028 C 648.897 -5.15188 -3.67102 0
M  V30 7029 C 647.561 -5.55356 -3.70319 0
M  V30 7030 H 646.831 -0.313401 -0.671462 0
M  V30 7031 H 649.478 -1.38792 -1.31943 0
M  V30 7032 H 647.783 -0.746455 -3.84624 0
M  V30 7033 H 649.48 -1.13779 -3.8452 0
M  V30 7034 H 646.07 -2.52054 -3.46651 0
M  V30 7035 H 650.254 -3.49986 -3.51886 0
M  V30 7036 H 645.51 -4.90728 -3.64686 0
M  V30 7037 H 649.684 -5.89248 -3.71159 0
M  V30 7038 H 647.311 -6.60054 -3.77138 0
M  V30 7039 N 648.886 1.2938 -0.899927 0
M  V30 7040 C 649.833 2.27713 -0.376243 0
M  V30 7041 C 650.803 1.57016 0.541774 0
M  V30 7042 O 651.988 1.84997 0.466966 0
M  V30 7043 C 649.128 3.42889 0.39 0
M  V30 7044 C 648.241 4.28369 -0.558938 0
M  V30 7045 C 647.376 5.30726 0.224379 0
M  V30 7046 C 646.415 6.07862 -0.719068 0
M  V30 7047 N 645.552 7.02094 0.0298569 0
M  V30 7048 H 650.392 2.71888 -1.21988 0
M  V30 7049 H 647.929 1.33724 -0.612879 0
M  V30 7050 H 649.887 4.08443 0.850314 0
M  V30 7051 H 648.517 2.99743 1.19809 0
M  V30 7052 H 647.569 3.62986 -1.13777 0
M  V30 7053 H 648.881 4.82068 -1.2811 0
M  V30 7054 H 648.035 6.02098 0.745881 0
M  V30 7055 H 646.774 4.77759 0.979674 0
M  V30 7056 H 645.779 5.35353 -1.25207 0
M  V30 7057 H 647.004 6.62917 -1.4737 0
M  V30 7058 H 644.95 6.51496 0.767415 0
M  V30 7059 H 644.867 7.5335 -0.632391 0
M  V30 7060 H 646.135 7.77685 0.531615 0
M  V30 7061 N 650.364 0.662433 1.43002 0
M  V30 7062 C 651.311 -0.0235324 2.30788 0
M  V30 7063 C 652.281 -0.805342 1.4527 0
M  V30 7064 O 653.466 -0.78009 1.74124 0
M  V30 7065 C 650.606 -0.977545 3.30965 0
M  V30 7066 C 649.719 -0.190865 4.31578 0
M  V30 7067 C 648.854 -1.13951 5.18834 0
M  V30 7068 C 647.893 -0.343796 6.11134 0
M  V30 7069 N 647.03 -1.2445 6.90982 0
M  V30 7070 H 651.87 0.730921 2.88897 0
M  V30 7071 H 649.407 0.372197 1.42313 0
M  V30 7072 H 651.365 -1.54437 3.87563 0
M  V30 7073 H 649.995 -1.69877 2.74484 0
M  V30 7074 H 649.047 0.492388 3.772 0
M  V30 7075 H 650.359 0.427464 4.96965 0
M  V30 7076 H 649.513 -1.77666 5.80103 0
M  V30 7077 H 648.252 -1.79174 4.53595 0
M  V30 7078 H 647.257 0.30665 5.48944 0
M  V30 7079 H 648.482 0.304161 6.78419 0
M  V30 7080 H 646.428 -1.88336 6.28383 0
M  V30 7081 H 646.345 -0.680959 7.52927 0
M  V30 7082 H 647.613 -1.86952 7.56749 0
M  V30 7083 N 651.842 -1.52309 0.404946 0
M  V30 7084 C 653.253 -1.86585 -0.0655926 0
M  V30 7085 C 653.604 -1.3239 -1.44801 0
M  V30 7086 O 652.729 -0.6615 -2.06042 0
M  V30 7087 C 653.324 -3.38566 -0.125801 0
M  V30 7088 C 651.883 -3.72497 -0.540666 0
M  V30 7089 C 651.03 -2.75806 0.287487 0
M  V30 7090 H 653.981 -1.45995 0.622185 0
M  V30 7091 H 654.002 -3.68658 -0.941888 0
M  V30 7092 H 653.514 -3.77981 0.880473 0
M  V30 7093 H 651.615 -3.38659 -1.55373 0
M  V30 7094 H 651.728 -4.78234 -0.287956 0
M  V30 7095 H 650.092 -2.53474 -0.249561 0
M  V30 7096 H 650.875 -3.18059 1.29203 0
M  V30 7097 N 653.32 -0.135238 -1.57019 0
M  V30 7098 C 654.566 0.513232 -1.96818 0
M  V30 7099 C 654.921 1.63245 -1.01827 0
M  V30 7100 O 654.214 1.91532 -0.0511756 0
M  V30 7101 C 654.408 1.07694 -3.40788 0
M  V30 7102 C 654.237 0.0138667 -4.49698 0
M  V30 7103 C 653.007 -0.423532 -5.03522 0
M  V30 7104 C 655.205 -0.77322 -5.08454 0
M  V30 7105 N 653.187 -1.47068 -5.96024 0
M  V30 7106 C 654.558 -1.67115 -5.97053 0
M  V30 7107 C 656.613 -0.822313 -4.91063 0
M  V30 7108 C 655.316 -2.61395 -6.70123 0
M  V30 7109 C 657.342 -1.75288 -5.64826 0
M  V30 7110 C 656.704 -2.63836 -6.53123 0
M  V30 7111 H 652.803 0.156956 -0.766087 0
M  V30 7112 H 655.387 -0.227118 -1.93371 0
M  V30 7113 H 653.558 1.78694 -3.44852 0
M  V30 7114 H 655.29 1.69106 -3.67675 0
M  V30 7115 H 652.045 -0.0280202 -4.73592 0
M  V30 7116 H 652.469 -1.99366 -6.46979 0
M  V30 7117 H 657.111 -0.151822 -4.22527 0
M  V30 7118 H 654.829 -3.2945 -7.37895 0
M  V30 7119 H 658.415 -1.79652 -5.53368 0
M  V30 7120 H 657.295 -3.34672 -7.092 0
M  V30 7121 N 654.798 1.5699 0.138552 0
M  V30 7122 C 656.028 1.87704 0.863184 0
M  V30 7123 C 656.436 0.722411 1.74865 0
M  V30 7124 O 655.779 -0.316636 1.80951 0
M  V30 7125 C 655.841 3.13219 1.76449 0
M  V30 7126 C 655.505 4.44648 1.05532 0
M  V30 7127 C 656.502 5.18318 0.405252 0
M  V30 7128 C 654.187 4.91367 1.04231 0
M  V30 7129 C 656.181 6.36916 -0.24835 0
M  V30 7130 C 653.868 6.09887 0.384904 0
M  V30 7131 C 654.866 6.82508 -0.259292 0
M  V30 7132 O 654.554 7.98775 -0.906258 0
M  V30 7133 H 654.286 0.626255 0.254521 0
M  V30 7134 H 656.84 2.04966 0.133472 0
M  V30 7135 H 655.07 2.91988 2.53535 0
M  V30 7136 H 656.759 3.30111 2.36181 0
M  V30 7137 H 657.525 4.83289 0.407053 0
M  V30 7138 H 653.404 4.34759 1.53315 0
M  V30 7139 H 656.948 6.93538 -0.751755 0
M  V30 7140 H 652.845 6.44376 0.380799 0
M  V30 7141 H 653.613 8.14494 -0.80877 0
M  V30 7142 N 656.276 -0.40816 1.52223 0
M  V30 7143 C 657.208 -1.51642 1.71864 0
M  V30 7144 C 658.221 -1.51378 0.599056 0
M  V30 7145 O 659.41 -1.55626 0.874239 0
M  V30 7146 C 656.51 -2.90534 1.74481 0
M  V30 7147 C 655.683 -3.14979 3.03491 0
M  V30 7148 C 654.742 -4.33749 2.97907 0
M  V30 7149 O 653.768 -4.30982 3.71811 0
M  V30 7150 N 654.97 -5.38912 2.15764 0
M  V30 7151 H 657.735 -1.35188 2.67478 0
M  V30 7152 H 655.296 -0.597468 1.50472 0
M  V30 7153 H 657.288 -3.68056 1.68275 0
M  V30 7154 H 655.858 -3.00441 0.863363 0
M  V30 7155 H 655.078 -2.25492 3.23337 0
M  V30 7156 H 656.366 -3.28156 3.88833 0
M  V30 7157 H 655.764 -5.44008 1.55152 0
M  V30 7158 H 654.321 -6.15174 2.15415 0
M  V30 7159 N 657.755 -1.42862 -0.66545 0
M  V30 7160 C 659.003 -1.43546 -1.42264 0
M  V30 7161 C 659.324 -0.0563116 -1.94919 0
M  V30 7162 O 658.594 0.906568 -1.73661 0
M  V30 7163 H 657.174 -0.528464 -0.527953 0
M  V30 7164 H 659.836 -1.78363 -0.785665 0
M  V30 7165 H 658.932 -2.14079 -2.27105 0
M  V30 7166 N 659.233 0.902656 -1.29189 0
M  V30 7167 C 660.51 1.63296 -1.07674 0
M  V30 7168 C 660.89 2.07649 0.380137 0
M  V30 7169 O 660.238 1.82997 1.36837 0
M  V30 7170 C 660.448 2.81603 -2.06158 0
M  V30 7171 C 661.796 3.52359 -2.36914 0
M  V30 7172 O 662.82 2.91767 -2.04329 0
M  V30 7173 O 661.679 4.61586 -2.92576 0
M  V30 7174 H 658.773 0.716889 -0.41231 0
M  V30 7175 H 661.319 0.950984 -1.4055 0
M  V30 7176 H 660.091 2.46004 -3.04299 0
M  V30 7177 H 659.714 3.57508 -1.73993 0
M  V30 7178 N 660.711 1.11618 1.11262 0
M  V30 7179 C 661.939 0.888739 1.8684 0
M  V30 7180 C 662.354 -0.561558 1.80255 0
M  V30 7181 O 661.711 -1.38782 1.18515 0
M  V30 7182 C 661.762 1.34422 3.35579 0
M  V30 7183 O 661.483 2.73766 3.42029 0
M  V30 7184 C 662.984 1.15246 4.28058 0
M  V30 7185 H 660.204 0.318152 0.590779 0
M  V30 7186 H 662.748 1.48398 1.40707 0
M  V30 7187 H 660.903 0.79239 3.7921 0
M  V30 7188 H 661.317 2.9355 4.34659 0
M  V30 7189 H 662.791 1.52015 5.30656 0
M  V30 7190 H 663.268 0.0922007 4.39103 0
M  V30 7191 H 663.874 1.69136 3.90222 0
M  V30 7192 N 662.189 -1.289 0.906776 0
M  V30 7193 C 663.438 -1.9455 0.532262 0
M  V30 7194 C 663.751 -1.72219 -0.927353 0
M  V30 7195 O 664.957 -2.32033 -1.40971 0
M  V30 7196 C 663.413 -3.48438 0.901041 0
M  V30 7197 C 663.021 -3.79558 2.37991 0
M  V30 7198 C 664.765 -4.20284 0.596777 0
M  V30 7199 C 662.672 -5.26723 2.68918 0
M  V30 7200 H 661.602 -0.728259 0.195333 0
M  V30 7201 H 664.253 -1.46519 1.10474 0
M  V30 7202 H 662.635 -3.95162 0.257419 0
M  V30 7203 H 663.809 -3.43668 3.06967 0
M  V30 7204 H 662.124 -3.20868 2.65391 0
M  V30 7205 H 664.721 -5.28612 0.8046 0
M  V30 7206 H 665.064 -4.13694 -0.465072 0
M  V30 7207 H 665.597 -3.79315 1.19855 0
M  V30 7208 H 662.336 -5.38384 3.73928 0
M  V30 7209 H 661.856 -5.63836 2.04571 0
M  V30 7210 H 663.535 -5.94391 2.55555 0
M  V30 7211 N 663.667 -0.670007 -1.42649 0
M  V30 7212 C 665.078 -0.268118 -1.84765 0
M  V30 7213 C 665.429 1.18877 -1.56086 0
M  V30 7214 O 664.554 1.90947 -1.01825 0
M  V30 7215 C 665.149 -0.47984 -3.35385 0
M  V30 7216 C 663.708 -0.132116 -3.76168 0
M  V30 7217 C 662.855 -0.774611 -2.66261 0
M  V30 7218 H 665.806 -0.872509 -1.32563 0
M  V30 7219 H 665.827 0.269522 -3.79544 0
M  V30 7220 H 665.339 -1.54026 -3.56227 0
M  V30 7221 H 663.44 0.92505 -3.60934 0
M  V30 7222 H 663.553 -0.569294 -4.75706 0
M  V30 7223 H 661.917 -0.206353 -2.53863 0
M  V30 7224 H 662.7 -1.83839 -2.89928 0
M  V30 7225 N 665.145 1.52092 -0.413018 0
M  V30 7226 C 666.391 2.02154 0.161737 0
M  V30 7227 C 666.724 1.29789 1.44459 0
M  V30 7228 O 665.999 0.405378 1.90229 0
M  V30 7229 C 666.282 3.5781 0.405463 0
M  V30 7230 C 666.135 4.40819 -0.894335 0
M  V30 7231 C 667.454 4.23821 1.18591 0
M  V30 7232 H 664.573 0.734769 0.0573077 0
M  V30 7233 H 667.215 1.81948 -0.547247 0
M  V30 7234 H 665.365 3.75158 1.0094 0
M  V30 7235 H 667.037 4.35175 -1.53039 0
M  V30 7236 H 665.28 4.06877 -1.50444 0
M  V30 7237 H 665.951 5.47819 -0.678144 0
M  V30 7238 H 668.427 4.10596 0.674573 0
M  V30 7239 H 667.303 5.32663 1.3252 0
M  V30 7240 H 667.564 3.83038 2.20758 0
M  V30 7241 N 666.623 0.143563 1.56945 0
M  V30 7242 C 667.871 -0.507402 1.95627 0
M  V30 7243 C 668.192 -1.65626 1.02922 0
M  V30 7244 O 667.462 -1.95693 0.0901136 0
M  V30 7245 H 666.042 -0.190436 0.722318 0
M  V30 7246 H 668.704 0.218257 1.93674 0
M  V30 7247 H 667.8 -0.885816 2.99265 0
M  V30 7248 N 668.101 -1.57061 -0.130224 0
M  V30 7249 C 669.35 -1.83446 -0.838488 0
M  V30 7250 C 669.663 -0.727468 -1.81569 0
M  V30 7251 O 670.869 -0.877394 -2.56932 0
M  V30 7252 C 669.325 -3.25201 -1.54182 0
M  V30 7253 C 668.933 -4.4388 -0.606178 0
M  V30 7254 C 670.677 -3.60844 -2.23588 0
M  V30 7255 C 668.584 -5.76661 -1.31209 0
M  V30 7256 H 667.514 -0.684185 -0.316871 0
M  V30 7257 H 670.165 -1.83273 -0.0912059 0
M  V30 7258 H 668.547 -3.1981 -2.33533 0
M  V30 7259 H 669.721 -4.60545 0.153308 0
M  V30 7260 H 668.036 -4.16395 -0.0196705 0
M  V30 7261 H 670.633 -4.57313 -2.77072 0
M  V30 7262 H 670.976 -2.87724 -3.00867 0
M  V30 7263 H 671.509 -3.67971 -1.51137 0
M  V30 7264 H 668.248 -6.52922 -0.580823 0
M  V30 7265 H 667.768 -5.63902 -2.04387 0
M  V30 7266 H 669.447 -6.20035 -1.8484 0
M  V30 7267 N 669.579 0.400081 -1.52437 0
M  V30 7268 C 670.827 1.14392 -1.6661 0
M  V30 7269 C 671.148 1.90792 -0.402927 0
M  V30 7270 O 670.418 1.87042 0.582425 0
M  V30 7271 H 668.998 0.425275 -0.614125 0
M  V30 7272 H 671.66 0.455076 -1.89513 0
M  V30 7273 H 670.756 1.85298 -2.51139 0
M  V30 7274 N 671.057 1.43213 0.657864 0
M  V30 7275 C 671.989 1.43974 1.78337 0
M  V30 7276 C 673.002 0.336482 1.59285 0
M  V30 7277 O 674.191 0.600631 1.68091 0
M  V30 7278 C 671.291 1.23242 3.15697 0
M  V30 7279 C 670.464 2.46319 3.61449 0
M  V30 7280 C 669.523 2.2088 4.77597 0
M  V30 7281 O 668.549 2.942 4.87273 0
M  V30 7282 N 669.751 1.22251 5.67481 0
M  V30 7283 H 672.516 2.40993 1.78164 0
M  V30 7284 H 670.077 1.3831 0.841549 0
M  V30 7285 H 672.069 1.04113 3.91079 0
M  V30 7286 H 670.639 0.346849 3.1067 0
M  V30 7287 H 669.859 2.80904 2.76563 0
M  V30 7288 H 671.147 3.28239 3.88763 0
M  V30 7289 H 670.545 0.616433 5.62331 0
M  V30 7290 H 669.102 1.09107 6.42603 0
M  V30 7291 N 672.536 -0.895792 1.29666 0
M  V30 7292 C 673.784 -1.64339 1.17631 0
M  V30 7293 C 674.105 -1.93099 -0.271643 0
M  V30 7294 O 673.375 -1.55981 -1.18518 0
M  V30 7295 H 671.955 -0.609162 0.432354 0
M  V30 7296 H 674.617 -1.07389 1.62646 0
M  V30 7297 H 673.713 -2.59815 1.72924 0
M  V30 7298 N 674.014 -1.12206 -1.10668 0
M  V30 7299 C 675.244 -0.897332 -1.86095 0
M  V30 7300 C 675.652 0.556778 -1.80822 0
M  V30 7301 O 674.995 1.39658 -1.19337 0
M  V30 7302 C 675.057 -1.29095 -3.35522 0
M  V30 7303 C 674.721 -2.75586 -3.64556 0
M  V30 7304 C 675.718 -3.73785 -3.6136 0
M  V30 7305 C 673.403 -3.12432 -3.93309 0
M  V30 7306 C 675.397 -5.06845 -3.86506 0
M  V30 7307 C 673.084 -4.45675 -4.18111 0
M  V30 7308 C 674.082 -5.42691 -4.147 0
M  V30 7309 O 673.77 -6.73532 -4.38873 0
M  V30 7310 H 673.502 -0.320704 -0.595084 0
M  V30 7311 H 676.056 -1.49517 -1.40833 0
M  V30 7312 H 674.286 -0.636299 -3.81429 0
M  V30 7313 H 675.975 -1.04073 -3.92331 0
M  V30 7314 H 676.741 -3.46664 -3.39189 0
M  V30 7315 H 672.62 -2.3753 -3.95096 0
M  V30 7316 H 676.164 -5.82559 -3.83758 0
M  V30 7317 H 672.061 -4.72526 -4.39761 0
M  V30 7318 H 672.829 -6.79442 -4.564 0
M  V30 7319 N 675.492 1.28418 -0.913599 0
M  V30 7320 C 676.738 1.95627 -0.556933 0
M  V30 7321 C 677.093 1.706 0.889565 0
M  V30 7322 O 676.386 1.01637 1.6242 0
M  V30 7323 C 676.58 3.48283 -0.802099 0
M  V30 7324 C 676.409 3.88151 -2.27088 0
M  V30 7325 C 675.179 4.1232 -2.92096 0
M  V30 7326 C 677.377 3.98819 -3.24728 0
M  V30 7327 N 675.359 4.3886 -4.29272 0
M  V30 7328 C 676.73 4.29571 -4.47067 0
M  V30 7329 C 678.785 3.81342 -3.20129 0
M  V30 7330 C 677.488 4.44667 -5.65388 0
M  V30 7331 C 679.514 3.97656 -4.37749 0
M  V30 7332 C 678.876 4.2878 -5.58862 0
M  V30 7333 H 674.975 0.739715 -0.253664 0
M  V30 7334 H 677.559 1.55074 -1.1773 0
M  V30 7335 H 675.73 3.87826 -0.211007 0
M  V30 7336 H 677.462 4.02623 -0.409478 0
M  V30 7337 H 674.217 4.06611 -2.42826 0
M  V30 7338 H 674.641 4.56214 -5.00198 0
M  V30 7339 H 679.283 3.56331 -2.2757 0
M  V30 7340 H 677.001 4.68509 -6.58426 0
M  V30 7341 H 680.587 3.85569 -4.35692 0
M  V30 7342 H 679.467 4.41136 -6.48359 0
M  V30 7343 N 676.97 0.677563 1.42291 0
M  V30 7344 C 678.198 0.209459 2.05837 0
M  V30 7345 C 678.613 -1.13444 1.50917 0
M  V30 7346 O 677.97 -1.70529 0.65008 0
M  V30 7347 C 678.021 0.138819 3.61233 0
M  V30 7348 O 677.742 1.42962 4.14118 0
M  V30 7349 C 679.243 -0.352449 4.41897 0
M  V30 7350 H 676.463 0.101209 0.663323 0
M  V30 7351 H 679.007 0.925077 1.8238 0
M  V30 7352 H 677.162 -0.527505 3.83792 0
M  V30 7353 H 677.576 1.3048 5.08011 0
M  V30 7354 H 679.05 -0.350778 5.50884 0
M  V30 7355 H 679.527 -1.3882 4.16684 0
M  V30 7356 H 680.133 0.282236 4.24362 0
M  V30 7357 N 678.448 -1.51871 0.421078 0
M  V30 7358 C 679.411 -2.25914 -0.386712 0
M  V30 7359 C 680.411 -1.28733 -0.963555 0
M  V30 7360 O 681.601 -1.52579 -0.840556 0
M  V30 7361 C 678.733 -3.03853 -1.54551 0
M  V30 7362 H 679.926 -2.98754 0.261978 0
M  V30 7363 H 677.479 -1.5533 0.173862 0
M  V30 7364 H 678.214 -2.35392 -2.23072 0
M  V30 7365 H 677.999 -3.75215 -1.13824 0
M  V30 7366 H 679.489 -3.59984 -2.11663 0
M  V30 7367 N 679.926 -0.151884 -1.56866 0
M  V30 7368 C 681.154 0.504813 -2.00647 0
M  V30 7369 C 681.569 1.58098 -1.03201 0
M  V30 7370 O 680.926 1.82476 -0.0297814 0
M  V30 7371 C 680.977 1.10099 -3.44326 0
M  V30 7372 O 680.698 0.0678021 -4.38048 0
M  V30 7373 C 682.199 1.83782 -4.03409 0
M  V30 7374 H 679.419 0.130989 -0.65809 0
M  V30 7375 H 681.963 -0.247903 -2.02992 0
M  V30 7376 H 680.118 1.8043 -3.42817 0
M  V30 7377 H 680.532 0.505237 -5.22061 0
M  V30 7378 H 682.006 2.2078 -5.05925 0
M  V30 7379 H 682.483 2.72557 -3.44397 0
M  V30 7380 H 683.089 1.18138 -4.08563 0
M  V30 7381 N 681.404 1.57128 0.121893 0
M  V30 7382 C 682.815 1.73902 0.679348 0
M  V30 7383 C 683.166 0.770135 1.80453 0
M  V30 7384 O 682.291 -0.0576083 2.16323 0
M  V30 7385 C 682.886 3.15328 1.2391 0
M  V30 7386 C 681.445 3.33618 1.74288 0
M  V30 7387 C 680.592 2.6978 0.641414 0
M  V30 7388 H 683.543 1.58359 -0.104 0
M  V30 7389 H 683.564 3.16718 2.10879 0
M  V30 7390 H 683.076 3.85821 0.419957 0
M  V30 7391 H 681.177 2.68162 2.58689 0
M  V30 7392 H 681.29 4.4176 1.85432 0
M  V30 7393 H 679.654 2.30935 1.0743 0
M  V30 7394 H 680.437 3.42895 -0.166707 0
M  V30 7395 N 682.882 -0.391992 1.52647 0
M  V30 7396 C 684.131 -1.13449 1.6677 0
M  V30 7397 C 684.444 -1.91203 0.412399 0
M  V30 7398 O 685.65 -2.68013 0.433707 0
M  V30 7399 C 684.106 -2.06577 2.9471 0
M  V30 7400 C 683.714 -1.3426 4.27409 0
M  V30 7401 C 685.458 -2.80981 3.18198 0
M  V30 7402 C 683.365 -2.26136 5.46458 0
M  V30 7403 H 682.295 -0.427211 0.621295 0
M  V30 7404 H 684.946 -0.397522 1.79142 0
M  V30 7405 H 683.328 -2.83898 2.76076 0
M  V30 7406 H 684.502 -0.621856 4.56585 0
M  V30 7407 H 682.817 -0.718279 4.10158 0
M  V30 7408 H 685.414 -3.49898 4.04321 0
M  V30 7409 H 685.757 -3.44891 2.33144 0
M  V30 7410 H 686.29 -2.10754 3.37383 0
M  V30 7411 H 683.029 -1.66846 6.33911 0
M  V30 7412 H 682.549 -2.96134 5.21598 0
M  V30 7413 H 684.228 -2.86286 5.80215 0
M  V30 7414 N 684.36 -1.4356 -0.65026 0
M  V30 7415 C 685.292 -1.44918 -1.77571 0
M  V30 7416 C 686.305 -0.344925 -1.59104 0
M  V30 7417 O 687.494 -0.609537 -1.6777 0
M  V30 7418 C 684.594 -1.24914 -3.15039 0
M  V30 7419 C 683.767 -2.48232 -3.60138 0
M  V30 7420 C 682.826 -2.23409 -4.76419 0
M  V30 7421 O 681.852 -2.9678 -4.85706 0
M  V30 7422 N 683.054 -1.25259 -5.66825 0
M  V30 7423 H 685.819 -2.41935 -1.76883 0
M  V30 7424 H 683.38 -1.38754 -0.834202 0
M  V30 7425 H 685.372 -1.06185 -3.90521 0
M  V30 7426 H 683.942 -0.363319 -3.10481 0
M  V30 7427 H 683.162 -2.82366 -2.75069 0
M  V30 7428 H 684.45 -3.30296 -3.87017 0
M  V30 7429 H 683.848 -0.646246 -5.61997 0
M  V30 7430 H 682.405 -1.12513 -6.42016 0
M  V30 7431 N 685.838 0.888903 -1.30139 0
M  V30 7432 C 686.771 1.99655 -1.10514 0
M  V30 7433 C 687.749 1.62594 -0.0138934 0
M  V30 7434 O 688.933 1.87762 -0.166689 0
M  V30 7435 C 686.06 3.31708 -0.684655 0
M  V30 7436 C 685.106 3.87755 -1.77619 0
M  V30 7437 S 685.939 4.15532 -3.37777 0
M  V30 7438 C 687.095 5.5061 -2.97622 0
M  V30 7439 H 687.328 2.15996 -2.04287 0
M  V30 7440 H 684.861 1.03682 -1.14409 0
M  V30 7441 H 686.819 4.08039 -0.448782 0
M  V30 7442 H 685.48 3.1323 0.233648 0
M  V30 7443 H 684.673 4.83164 -1.43417 0
M  V30 7444 H 684.275 3.18149 -1.96614 0
M  V30 7445 H 686.567 6.31518 -2.45338 0
M  V30 7446 H 687.51 5.89747 -3.91924 0
M  V30 7447 H 687.918 5.12983 -2.35603 0
M  V30 7448 N 687.317 1.12792 1.10072 0
M  V30 7449 C 688.542 0.908838 1.86427 0
M  V30 7450 C 688.967 -0.536793 1.80278 0
M  V30 7451 O 688.325 -1.38033 1.17543 0
M  V30 7452 C 688.373 1.39295 3.3261 0
M  V30 7453 O 687.477 0.573846 4.08388 0
M  V30 7454 H 686.818 0.326234 0.578331 0
M  V30 7455 H 689.348 1.50094 1.39043 0
M  V30 7456 H 689.358 1.39366 3.83459 0
M  V30 7457 H 688.033 2.44555 3.36401 0
M  V30 7458 H 686.61 0.640438 3.67359 0
M  V30 7459 N 688.795 -1.27931 0.920396 0
M  V30 7460 C 689.742 -2.27085 0.412422 0
M  V30 7461 C 690.712 -1.57858 -0.516725 0
M  V30 7462 O 691.897 -1.85717 -0.437475 0
M  V30 7463 C 689.037 -3.43466 -0.335399 0
M  V30 7464 C 688.15 -4.27425 0.627017 0
M  V30 7465 C 687.285 -5.31016 -0.139916 0
M  V30 7466 C 686.324 -6.06641 0.815683 0
M  V30 7467 N 685.461 -7.02052 0.0818439 0
M  V30 7468 H 690.301 -2.69913 1.26298 0
M  V30 7469 H 687.838 -1.32732 0.634076 0
M  V30 7470 H 689.796 -4.09744 -0.785226 0
M  V30 7471 H 688.426 -3.01611 -1.15025 0
M  V30 7472 H 687.478 -3.6113 1.19537 0
M  V30 7473 H 688.79 -4.79969 1.35763 0
M  V30 7474 H 687.944 -6.03208 -0.649998 0
M  V30 7475 H 686.683 -4.79257 -0.903543 0
M  V30 7476 H 685.688 -5.33294 1.33708 0
M  V30 7477 H 686.913 -6.60489 1.57897 0
M  V30 7478 H 684.859 -6.52634 -0.663671 0
M  V30 7479 H 684.776 -7.52249 0.752163 0
M  V30 7480 H 686.044 -7.78432 -0.407825 0
M  V30 7481 N 690.273 -0.685099 -1.4193 0
M  V30 7482 C 691.236 -0.0222632 -2.29189 0
M  V30 7483 C 692.236 0.7186 -1.4385 0
M  V30 7484 O 693.426 0.555058 -1.6512 0
M  V30 7485 C 690.558 0.979013 -3.2654 0
M  V30 7486 H 691.751 -0.790424 -2.89296 0
M  V30 7487 H 689.304 -0.448012 -1.49742 0
M  V30 7488 H 690.039 1.77531 -2.71392 0
M  V30 7489 H 689.824 0.451037 -3.89497 0
M  V30 7490 H 691.314 1.44091 -3.91954 0
M  V30 7491 N 691.751 1.51645 -0.429126 0
M  V30 7492 C 692.681 2.30434 0.377148 0
M  V30 7493 C 693.662 1.35493 1.02838 0
M  V30 7494 O 694.847 1.6441 1.03359 0
M  V30 7495 C 691.977 3.14038 1.48315 0
M  V30 7496 C 690.931 4.1719 0.955855 0
M  V30 7497 C 690.257 4.89263 2.15698 0
M  V30 7498 C 691.557 5.223 -0.00402136 0
M  V30 7499 H 693.251 2.98085 -0.280336 0
M  V30 7500 H 690.797 1.43354 -0.136265 0
M  V30 7501 H 692.75 3.67933 2.05435 0
M  V30 7502 H 691.474 2.44193 2.16881 0
M  V30 7503 H 690.133 3.64335 0.406929 0
M  V30 7504 H 689.781 4.15929 2.82864 0
M  V30 7505 H 689.481 5.59009 1.81059 0
M  V30 7506 H 691.005 5.45978 2.73387 0
M  V30 7507 H 692.419 5.71315 0.476607 0
M  V30 7508 H 690.816 5.99525 -0.26258 0
M  V30 7509 H 691.886 4.75638 -0.943236 0
M  V30 7510 N 693.229 0.160201 1.56784 0
M  V30 7511 C 694.162 -0.812797 2.13234 0
M  V30 7512 C 695.14 -1.2335 1.05942 0
M  V30 7513 O 696.324 -1.32725 1.33852 0
M  V30 7514 C 693.451 -2.09311 2.66283 0
M  V30 7515 C 692.497 -1.8173 3.85845 0
M  V30 7516 S 693.33 -0.996473 5.26147 0
M  V30 7517 C 694.486 -2.28769 5.82594 0
M  V30 7518 H 694.719 -0.332794 2.95432 0
M  V30 7519 H 692.252 -0.0542971 1.54304 0
M  V30 7520 H 694.21 -2.82854 2.97496 0
M  V30 7521 H 692.871 -2.54425 1.84192 0
M  V30 7522 H 692.064 -2.76699 4.21253 0
M  V30 7523 H 691.666 -1.16289 3.55462 0
M  V30 7524 H 693.958 -3.24319 5.9483 0
M  V30 7525 H 694.901 -1.97846 6.79899 0
M  V30 7526 H 695.309 -2.40021 5.10931 0
M  V30 7527 N 694.707 -1.5719 -0.113559 0
M  V30 7528 C 695.956 -1.84325 -0.818984 0
M  V30 7529 C 696.269 -0.746685 -1.80787 0
M  V30 7530 O 697.475 -0.904596 -2.55987 0
M  V30 7531 C 695.931 -3.26818 -1.50724 0
M  V30 7532 C 695.539 -4.44498 -0.559065 0
M  V30 7533 C 697.283 -3.63196 -2.19748 0
M  V30 7534 C 695.19 -5.7802 -1.25086 0
M  V30 7535 H 694.12 -0.687507 -0.309596 0
M  V30 7536 H 696.771 -1.8336 -0.0717621 0
M  V30 7537 H 695.153 -3.22269 -2.30128 0
M  V30 7538 H 696.327 -4.60356 0.202146 0
M  V30 7539 H 694.642 -4.16393 0.024495 0
M  V30 7540 H 697.239 -4.60226 -2.72206 0
M  V30 7541 H 697.582 -2.90899 -2.97798 0
M  V30 7542 H 698.115 -3.69553 -1.47226 0
M  V30 7543 H 694.854 -6.53501 -0.511539 0
M  V30 7544 H 694.374 -5.66038 -1.98395 0
M  V30 7545 H 696.053 -6.2196 -1.78253 0
M  V30 7546 N 696.185 0.383891 -1.52853 0
M  V30 7547 C 697.115 1.47559 -1.80965 0
M  V30 7548 C 698.096 1.5669 -0.661986 0
M  V30 7549 O 699.281 1.71556 -0.910072 0
M  V30 7550 C 696.411 2.85114 -1.98312 0
M  V30 7551 C 695.365 2.9082 -3.14019 0
M  V30 7552 C 694.691 4.30873 -3.16627 0
M  V30 7553 C 695.991 2.60001 -4.52986 0
M  V30 7554 H 697.685 1.24283 -2.72386 0
M  V30 7555 H 695.231 0.596445 -1.31067 0
M  V30 7556 H 697.184 3.61496 -2.16561 0
M  V30 7557 H 695.908 3.09738 -1.03585 0
M  V30 7558 H 694.567 2.16886 -2.9556 0
M  V30 7559 H 694.215 4.52545 -2.19573 0
M  V30 7560 H 693.915 4.3561 -3.94357 0
M  V30 7561 H 695.439 5.09154 -3.37038 0
M  V30 7562 H 696.853 3.261 -4.71521 0
M  V30 7563 H 695.25 2.76081 -5.32822 0
M  V30 7564 H 696.32 1.5532 -4.59351 0
M  V30 7565 N 697.663 1.43903 0.642637 0
M  V30 7566 C 698.912 1.45362 1.39831 0
M  V30 7567 C 699.225 0.0856289 1.95412 0
M  V30 7568 O 700.431 -0.0222856 2.71491 0
M  V30 7569 C 698.887 2.55857 2.53111 0
M  V30 7570 C 698.495 3.98811 2.04092 0
M  V30 7571 C 700.239 2.66524 3.30402 0
M  V30 7572 C 698.146 5.00751 3.14647 0
M  V30 7573 H 697.076 0.540777 0.52543 0
M  V30 7574 H 699.727 1.69929 0.692559 0
M  V30 7575 H 698.109 2.2451 3.26207 0
M  V30 7576 H 699.283 4.3967 1.37938 0
M  V30 7577 H 697.598 3.92284 1.39651 0
M  V30 7578 H 700.195 3.39858 4.12796 0
M  V30 7579 H 700.538 1.71949 3.79129 0
M  V30 7580 H 701.071 2.97224 2.64392 0
M  V30 7581 H 697.81 5.96914 2.70876 0
M  V30 7582 H 697.33 4.64495 3.79479 0
M  V30 7583 H 699.009 5.23933 3.79609 0
M  V30 7584 N 699.141 -0.881989 1.30609 0
M  V30 7585 C 700.089 -2.00942 1.17155 0
M  V30 7586 C 701.083 -1.69198 0.0827154 0
M  V30 7587 O 702.289 -1.78342 0.243775 0
M  V30 7588 H 698.664 -0.658913 0.362406 0
M  V30 7589 H 700.635 -2.09423 2.12567 0
M  V30 7590 C 699.384 -3.36294 0.883273 0
M  V30 7591 H 698.707 -3.61233 1.7132 0
M  V30 7592 H 700.147 -4.15812 0.829255 0
M  V30 7593 C 698.606 -3.34348 -0.413851 0
M  V30 7594 O 699.136 -3.75216 -1.43444 0
M  V30 7595 N 697.342 -2.87459 -0.426082 0
M  V30 7596 H 696.889 -2.54397 0.40493 0
M  V30 7597 H 696.847 -2.8654 -1.29391 0
M  V30 7598 N 700.619 -1.13374 -1.09472 0
M  V30 7599 C 701.896 -0.806329 -1.78207 0
M  V30 7600 C 702.276 0.702191 -1.99079 0
M  V30 7601 O 701.624 1.63931 -1.59182 0
M  V30 7602 C 701.834 -1.59271 -3.10538 0
M  V30 7603 C 703.182 -1.78509 -3.85253 0
M  V30 7604 O 704.206 -1.55866 -3.20288 0
M  V30 7605 O 703.065 -2.16287 -5.01879 0
M  V30 7606 H 700.159 -0.29435 -0.772843 0
M  V30 7607 H 702.705 -1.23833 -1.16033 0
M  V30 7608 H 701.477 -2.61792 -2.90828 0
M  V30 7609 H 701.1 -1.15562 -3.80436 0
M  V30 7610 N 702.098 1.27442 -0.927168 0
M  V30 7611 C 703.346 1.94007 -0.566203 0
M  V30 7612 C 703.667 1.7323 0.895345 0
M  V30 7613 O 702.937 1.07973 1.63459 0
M  V30 7614 H 701.517 0.717917 -0.206409 0
M  V30 7615 H 704.179 1.55161 -1.17945 0
M  V30 7616 H 703.275 3.02401 -0.772028 0
M  V30 7617 N 703.576 0.692616 1.41565 0
M  V30 7618 C 704.825 0.219452 2.00503 0
M  V30 7619 C 705.138 -1.18683 1.55479 0
M  V30 7620 O 706.344 -1.75731 2.06956 0
M  V30 7621 C 704.8 0.341451 3.58277 0
M  V30 7622 C 704.408 1.75291 4.12283 0
M  V30 7623 C 706.152 -0.0720899 4.24439 0
M  V30 7624 C 704.059 1.82673 5.62481 0
M  V30 7625 H 702.989 0.0782874 0.749925 0
M  V30 7626 H 705.64 0.860386 1.62079 0
M  V30 7627 H 704.022 -0.367683 3.94289 0
M  V30 7628 H 705.196 2.49057 3.87695 0
M  V30 7629 H 703.511 2.11587 3.58636 0
M  V30 7630 H 706.108 -0.0373385 5.34687 0
M  V30 7631 H 706.451 -1.11034 4.0122 0
M  V30 7632 H 706.984 0.586663 3.9345 0
M  V30 7633 H 703.723 2.84539 5.90523 0
M  V30 7634 H 703.243 1.13288 5.89004 0
M  V30 7635 H 704.922 1.58827 6.27203 0
M  V30 7636 N 705.054 -1.51416 0.437162 0
M  V30 7637 C 706.3 -2.02386 -0.129555 0
M  V30 7638 C 706.633 -1.32071 -1.42376 0
M  V30 7639 O 705.908 -0.43559 -1.8956 0
M  V30 7640 C 706.191 -3.5841 -0.348487 0
M  V30 7641 C 706.044 -4.39341 0.964352 0
M  V30 7642 C 707.363 -4.25654 -1.11834 0
M  V30 7643 H 704.482 -0.735587 -0.0456109 0
M  V30 7644 H 707.124 -1.81055 0.576124 0
M  V30 7645 H 705.274 -3.76716 -0.949592 0
M  V30 7646 H 706.946 -4.32685 1.59942 0
M  V30 7647 H 705.189 -4.04432 1.56898 0
M  V30 7648 H 705.86 -5.4667 0.765212 0
M  V30 7649 H 708.336 -4.11617 -0.609165 0
M  V30 7650 H 707.212 -5.34704 -1.24029 0
M  V30 7651 H 707.473 -3.86502 -2.14636 0
M  V30 7652 N 706.532 -0.168513 -1.56696 0
M  V30 7653 C 707.479 0.762875 -2.17828 0
M  V30 7654 C 708.449 1.22892 -1.11745 0
M  V30 7655 O 709.634 1.29759 -1.39883 0
M  V30 7656 C 706.774 1.9879 -2.82093 0
M  V30 7657 C 705.887 1.56568 -4.02629 0
M  V30 7658 C 705.022 2.74416 -4.54829 0
M  V30 7659 C 704.061 2.28671 -5.67782 0
M  V30 7660 N 703.198 3.39602 -6.14504 0
M  V30 7661 H 708.038 0.23479 -2.97074 0
M  V30 7662 H 705.575 0.104163 -1.46731 0
M  V30 7663 H 707.533 2.70636 -3.17509 0
M  V30 7664 H 706.163 2.48973 -2.05456 0
M  V30 7665 H 705.215 0.744067 -3.73052 0
M  V30 7666 H 706.527 1.18988 -4.844 0
M  V30 7667 H 705.681 3.54423 -4.92412 0
M  V30 7668 H 704.42 3.15254 -3.7211 0
M  V30 7669 H 703.425 1.4711 -5.29753 0
M  V30 7670 H 704.65 1.88894 -6.52301 0
M  V30 7671 H 702.596 3.80021 -5.34715 0
M  V30 7672 H 702.513 3.06105 -6.91257 0
M  V30 7673 H 703.781 4.19902 -6.56737 0
M  V30 7674 N 708.01 1.57248 0.105221 0
M  V30 7675 C 709.256 1.85845 0.811753 0
M  V30 7676 C 709.589 0.756219 1.78871 0
M  V30 7677 O 708.864 -0.236736 1.93054 0
M  V30 7678 C 709.147 3.25059 1.54947 0
M  V30 7679 C 709 4.45898 0.591185 0
M  V30 7680 C 710.319 3.6203 2.50245 0
M  V30 7681 H 707.438 0.675973 0.293649 0
M  V30 7682 H 710.08 1.89849 0.0756269 0
M  V30 7683 H 708.23 3.21776 2.17698 0
M  V30 7684 H 709.902 4.61291 -0.0285352 0
M  V30 7685 H 708.145 4.33693 -0.0962343 0
M  V30 7686 H 708.816 5.40009 1.1443 0
M  V30 7687 H 711.292 3.66192 1.97593 0
M  V30 7688 H 710.168 4.60389 2.98886 0
M  V30 7689 H 710.429 2.90176 3.33542 0
M  V30 7690 N 709.488 -0.375779 1.53054 0
M  V30 7691 C 710.899 -0.95309 1.6054 0
M  V30 7692 C 711.25 -1.90575 0.466446 0
M  V30 7693 O 710.375 -2.12507 -0.408609 0
M  V30 7694 C 710.97 -1.73537 2.90982 0
M  V30 7695 C 709.529 -2.26218 3.00836 0
M  V30 7696 C 708.676 -1.07157 2.55759 0
M  V30 7697 H 711.627 -0.154895 1.57942 0
M  V30 7698 H 711.648 -2.59574 2.78211 0
M  V30 7699 H 711.16 -1.04176 3.73857 0
M  V30 7700 H 709.261 -2.98852 2.22527 0
M  V30 7701 H 709.374 -2.54799 4.05727 0
M  V30 7702 H 707.738 -1.43553 2.10391 0
M  V30 7703 H 708.521 -0.393099 3.41042 0
M  V30 7704 N 710.966 -1.44241 -0.634997 0
M  V30 7705 C 711.916 -1.47247 -1.74076 0
M  V30 7706 C 712.9 -0.338708 -1.57295 0
M  V30 7707 O 714.092 -0.583751 -1.67097 0
M  V30 7708 C 711.221 -1.41579 -3.12746 0
M  V30 7709 C 710.307 -2.60055 -3.35011 0
M  V30 7710 N 710.698 -3.85321 -3.27661 0
M  V30 7711 C 708.996 -2.55168 -3.65794 0
M  V30 7712 C 709.697 -4.64241 -3.50508 0
M  V30 7713 N 708.673 -3.95254 -3.73196 0
M  V30 7714 H 712.475 -2.4195 -1.66845 0
M  V30 7715 H 709.989 -1.3915 -0.837326 0
M  V30 7716 H 711.986 -1.41816 -3.92038 0
M  V30 7717 H 710.646 -0.479108 -3.21146 0
M  V30 7718 H 711.657 -4.17345 -3.06665 0
M  V30 7719 H 708.334 -1.70276 -3.81198 0
M  V30 7720 H 709.724 -5.73267 -3.50449 0
M  V30 7721 N 712.444 0.87505 -1.31075 0
M  V30 7722 C 713.374 1.99775 -1.20881 0
M  V30 7723 C 714.355 1.69822 -0.0971612 0
M  V30 7724 O 715.54 1.92158 -0.280895 0
M  V30 7725 C 712.67 3.35163 -0.910118 0
M  V30 7726 C 711.624 3.79406 -1.98078 0
M  V30 7727 C 710.95 5.12197 -1.53488 0
M  V30 7728 C 712.25 3.97061 -3.39323 0
M  V30 7729 H 713.944 2.08562 -2.14808 0
M  V30 7730 H 711.49 1.00207 -1.03415 0
M  V30 7731 H 713.443 4.13237 -0.825423 0
M  V30 7732 H 712.167 3.26536 0.064822 0
M  V30 7733 H 710.826 3.03568 -2.05528 0
M  V30 7734 H 710.474 5.00007 -0.547941 0
M  V30 7735 H 710.174 5.4277 -2.2511 0
M  V30 7736 H 711.698 5.92785 -1.46417 0
M  V30 7737 H 713.112 4.65545 -3.34576 0
M  V30 7738 H 711.509 4.39025 -4.09118 0
M  V30 7739 H 712.579 3.00601 -3.80483 0
M  V30 7740 N 713.922 1.13953 1.08869 0
M  V30 7741 C 714.852 0.844824 2.17681 0
M  V30 7742 C 715.833 -0.198213 1.68941 0
M  V30 7743 O 717.018 -0.0559073 1.9412 0
M  V30 7744 C 714.148 0.316325 3.45856 0
M  V30 7745 C 713.102 1.29426 4.07962 0
M  V30 7746 C 712.428 0.625275 5.31031 0
M  V30 7747 C 713.728 2.65484 4.49795 0
M  V30 7748 H 715.422 1.75471 2.42591 0
M  V30 7749 H 712.968 0.845116 1.16592 0
M  V30 7750 H 714.921 0.0977876 4.21287 0
M  V30 7751 H 713.645 -0.628972 3.20486 0
M  V30 7752 H 712.304 1.49889 3.34558 0
M  V30 7753 H 711.952 -0.325678 5.01945 0
M  V30 7754 H 711.652 1.27777 5.73539 0
M  V30 7755 H 713.176 0.416152 6.0918 0
M  V30 7756 H 714.59 2.48957 5.16424 0
M  V30 7757 H 712.987 3.26963 5.03205 0
M  V30 7758 H 714.057 3.22717 3.61914 0
M  V30 7759 N 715.4 -1.26948 0.933913 0
M  V30 7760 C 716.333 -2.24977 0.382169 0
M  V30 7761 C 717.311 -1.53893 -0.524949 0
M  V30 7762 O 718.495 -1.82699 -0.464048 0
M  V30 7763 C 715.622 -3.35676 -0.451615 0
M  V30 7764 C 714.668 -4.24686 0.392947 0
M  V30 7765 S 715.501 -5.03898 1.81237 0
M  V30 7766 C 716.657 -6.18078 0.986443 0
M  V30 7767 H 716.89 -2.71429 1.21299 0
M  V30 7768 H 714.423 -1.35701 0.736523 0
M  V30 7769 H 716.381 -3.99901 -0.926797 0
M  V30 7770 H 715.042 -2.8785 -1.25703 0
M  V30 7771 H 714.235 -5.03402 -0.245533 0
M  V30 7772 H 713.837 -3.65288 0.802537 0
M  V30 7773 H 716.129 -6.77125 0.225321 0
M  V30 7774 H 717.072 -6.86216 1.74682 0
M  V30 7775 H 717.48 -5.62047 0.525711 0
M  V30 7776 N 716.879 -0.700114 -1.41195 0
M  V30 7777 C 718.104 -0.240704 -2.05998 0
M  V30 7778 C 718.529 1.10313 -1.52357 0
M  V30 7779 O 717.887 1.69154 -0.652424 0
M  V30 7780 C 717.935 -0.213783 -3.59966 0
M  V30 7781 O 717.039 0.809933 -4.04368 0
M  V30 7782 H 716.38 -0.116471 -0.653705 0
M  V30 7783 H 718.91 -0.956251 -1.80878 0
M  V30 7784 H 718.92 -0.0461852 -4.07974 0
M  V30 7785 H 717.595 -1.19454 -3.98376 0
M  V30 7786 H 716.172 0.611319 -3.67855 0
M  V30 7787 N 718.357 1.51182 -0.445186 0
M  V30 7788 C 719.585 2.06568 0.117091 0
M  V30 7789 C 720 1.31182 1.35781 0
M  V30 7790 O 719.357 0.373605 1.78635 0
M  V30 7791 C 719.408 3.58917 0.431408 0
M  V30 7792 O 719.129 4.31456 -0.760078 0
M  V30 7793 C 720.63 4.30843 1.0435 0
M  V30 7794 H 717.85 0.670985 0.00444436 0
M  V30 7795 H 720.394 1.94666 -0.626525 0
M  V30 7796 H 718.549 3.70708 1.12493 0
M  V30 7797 H 718.963 5.22215 -0.489048 0
M  V30 7798 H 720.437 5.38499 1.21337 0
M  V30 7799 H 720.914 3.89644 2.02667 0
M  V30 7800 H 721.52 4.23516 0.38913 0
M  V30 7801 N 719.835 0.176821 1.56605 0
M  V30 7802 C 720.798 -0.737429 2.17013 0
M  V30 7803 C 721.798 -1.15414 1.11965 0
M  V30 7804 O 722.988 -1.0702 1.37449 0
M  V30 7805 C 720.12 -2.00445 2.75744 0
M  V30 7806 H 721.313 -0.211455 2.99154 0
M  V30 7807 H 718.866 -0.0727582 1.56131 0
M  V30 7808 H 719.601 -2.57338 1.97352 0
M  V30 7809 H 719.386 -1.71456 3.52626 0
M  V30 7810 H 720.876 -2.65679 3.22187 0
M  V30 7811 N 721.313 -1.57302 -0.09688 0
M  V30 7812 C 722.223 -2.05258 -1.13606 0
M  V30 7813 C 723.239 -0.977137 -1.43972 0
M  V30 7814 O 724.415 -1.29018 -1.54649 0
M  V30 7815 C 721.48 -2.46593 -2.43706 0
M  V30 7816 C 720.541 -3.68322 -2.20538 0
M  V30 7817 C 719.774 -4.07676 -3.44435 0
M  V30 7818 O 719.997 -3.47141 -4.52603 0
M  V30 7819 O 718.931 -5.00641 -3.34129 0
M  V30 7820 H 722.757 -2.94069 -0.758752 0
M  V30 7821 H 720.342 -1.46164 -0.309263 0
M  V30 7822 H 722.224 -2.73814 -3.20318 0
M  V30 7823 H 720.899 -1.6092 -2.80867 0
M  V30 7824 H 719.806 -3.4622 -1.41713 0
M  V30 7825 H 721.139 -4.54769 -1.88271 0
M  V30 7826 N 722.791 0.367657 -1.53252 0
M  V30 7827 C 724.068 1.12606 -1.59935 0
M  V30 7828 C 724.448 2.07167 -0.405606 0
M  V30 7829 O 723.796 2.20364 0.604323 0
M  V30 7830 C 724.006 1.86699 -2.94863 0
M  V30 7831 C 725.354 2.41306 -3.49366 0
M  V30 7832 O 726.378 1.96828 -2.96879 0
M  V30 7833 O 725.237 3.2261 -4.41118 0
M  V30 7834 H 722.331 0.516438 -0.645926 0
M  V30 7835 H 724.877 0.371088 -1.65593 0
M  V30 7836 H 723.649 1.17674 -3.73187 0
M  V30 7837 H 723.272 2.6911 -2.92687 0
M  V30 7838 N 724.269 1.44576 0.627338 0
M  V30 7839 C 725.517 1.47267 1.38408 0
M  V30 7840 C 725.838 0.107971 1.94701 0
M  V30 7841 O 725.108 -0.860206 1.76004 0
M  V30 7842 H 723.688 0.542276 0.513756 0
M  V30 7843 H 726.35 1.80383 0.738099 0
M  V30 7844 H 725.446 2.20025 2.21349 0
M  V30 7845 N 725.747 -0.868086 1.31537 0
M  V30 7846 C 726.694 -1.97548 1.19346 0
M  V30 7847 C 727.664 -1.65913 0.0787922 0
M  V30 7848 O 728.849 -1.89129 0.251985 0
M  V30 7849 C 725.989 -3.32922 0.908692 0
M  V30 7850 C 725.102 -3.77141 2.10687 0
M  V30 7851 C 724.237 -5.01241 1.75873 0
M  V30 7852 C 723.276 -5.37914 2.92088 0
M  V30 7853 N 722.413 -6.53192 2.57457 0
M  V30 7854 H 727.253 -2.07307 2.14074 0
M  V30 7855 H 724.79 -1.01483 1.06487 0
M  V30 7856 H 726.748 -4.10867 0.724138 0
M  V30 7857 H 725.378 -3.228 -0.0017611 0
M  V30 7858 H 724.43 -2.94961 2.40213 0
M  V30 7859 H 725.742 -4.00248 2.97663 0
M  V30 7860 H 724.896 -5.86858 1.53891 0
M  V30 7861 H 723.635 -4.80041 0.86091 0
M  V30 7862 H 722.64 -4.50814 3.14717 0
M  V30 7863 H 723.865 -5.61077 3.82582 0
M  V30 7864 H 721.811 -6.33536 1.702 0
M  V30 7865 H 721.728 -6.76252 3.37963 0
M  V30 7866 H 722.996 -7.41997 2.38873 0
M  V30 7867 N 727.225 -1.14528 -1.08264 0
M  V30 7868 C 728.157 -0.791325 -2.15106 0
M  V30 7869 C 729.17 0.192449 -1.61659 0
M  V30 7870 O 730.359 -0.0294704 -1.78476 0
M  V30 7871 C 727.459 -0.154183 -3.38549 0
M  V30 7872 C 726.632 -1.17305 -4.21377 0
M  V30 7873 C 725.691 -0.559401 -5.23218 0
M  V30 7874 O 724.717 -1.22277 -5.55911 0
M  V30 7875 N 725.919 0.663159 -5.767 0
M  V30 7876 H 728.684 -1.71076 -2.46075 0
M  V30 7877 H 726.245 -1.0399 -1.24087 0
M  V30 7878 H 728.237 0.268884 -4.03806 0
M  V30 7879 H 726.807 0.668418 -3.0537 0
M  V30 7880 H 726.027 -1.773 -3.52077 0
M  V30 7881 H 727.315 -1.86128 -4.73533 0
M  V30 7882 H 726.713 1.22066 -5.52373 0
M  V30 7883 H 725.27 1.02871 -6.43631 0
M  V30 7884 N 728.703 1.26451 -0.940633 0
M  V30 7885 C 729.949 1.94065 -0.58878 0
M  V30 7886 C 730.282 1.7363 0.869853 0
M  V30 7887 O 729.557 1.073 1.62225 0
M  V30 7888 C 729.84 3.47852 -0.931199 0
M  V30 7889 C 729.693 3.77575 -2.44453 0
M  V30 7890 C 731.012 4.37832 -0.446229 0
M  V30 7891 H 728.131 0.704827 -0.21538 0
M  V30 7892 H 730.773 1.4933 -1.17475 0
M  V30 7893 H 728.923 3.86085 -0.432539 0
M  V30 7894 H 730.595 3.49059 -3.01588 0
M  V30 7895 H 728.838 3.23671 -2.88825 0
M  V30 7896 H 729.509 4.85068 -2.63464 0
M  V30 7897 H 731.985 4.06822 -0.873778 0
M  V30 7898 H 730.861 5.44228 -0.714648 0
M  V30 7899 H 731.122 4.37239 0.653815 0
M  V30 7900 N 730.181 0.707592 1.40822 0
M  V30 7901 C 731.592 0.317011 1.83989 0
M  V30 7902 C 731.943 -1.14697 1.59182 0
M  V30 7903 O 731.068 -1.8818 1.06852 0
M  V30 7904 C 731.663 0.568593 3.33995 0
M  V30 7905 C 730.222 0.231804 3.75686 0
M  V30 7906 C 729.369 0.844933 2.64114 0
M  V30 7907 H 732.32 0.907349 1.30203 0
M  V30 7908 H 732.341 -0.168798 3.80125 0
M  V30 7909 H 731.853 1.63417 3.52018 0
M  V30 7910 H 729.954 -0.82903 3.6326 0
M  V30 7911 H 730.067 0.695219 4.74029 0
M  V30 7912 H 728.431 0.273588 2.53226 0
M  V30 7913 H 729.214 1.91462 2.84951 0
M  V30 7914 N 731.66 -1.50943 0.453197 0
M  V30 7915 C 732.906 -2.03153 -0.100277 0
M  V30 7916 C 733.261 -1.33032 -1.38997 0
M  V30 7917 O 732.554 -0.441423 -1.86446 0
M  V30 7918 C 732.748 -3.55603 -0.357944 0
M  V30 7919 C 732.577 -4.40495 0.905223 0
M  V30 7920 C 731.347 -4.84247 1.44337 0
M  V30 7921 C 733.545 -4.81931 1.79575 0
M  V30 7922 N 731.527 -5.53403 2.65742 0
M  V30 7923 C 732.898 -5.50314 2.85577 0
M  V30 7924 C 734.953 -4.63903 1.80828 0
M  V30 7925 C 733.656 -6.02581 3.92797 0
M  V30 7926 C 735.682 -5.17097 2.86993 0
M  V30 7927 C 735.044 -5.8544 3.91713 0
M  V30 7928 H 731.143 -0.781995 0.00287755 0
M  V30 7929 H 733.727 -1.84651 0.617411 0
M  V30 7930 H 731.898 -3.74087 -1.04467 0
M  V30 7931 H 733.63 -3.9447 -0.904175 0
M  V30 7932 H 730.385 -4.63029 0.995045 0
M  V30 7933 H 730.809 -5.92598 3.27348 0
M  V30 7934 H 735.451 -4.10512 1.0119 0
M  V30 7935 H 733.169 -6.55018 4.73262 0
M  V30 7936 H 736.755 -5.0499 2.88923 0
M  V30 7937 H 735.635 -6.25861 4.72512 0
M  V30 7938 N 733.138 -0.185124 -1.56509 0
M  V30 7939 C 734.384 0.456934 -1.97585 0
M  V30 7940 C 734.717 1.61957 -1.07161 0
M  V30 7941 O 733.992 1.9412 -0.121546 0
M  V30 7942 C 734.275 0.926666 -3.47973 0
M  V30 7943 C 734.128 -0.237097 -4.49175 0
M  V30 7944 C 735.447 1.79561 -4.01803 0
M  V30 7945 H 732.566 0.164619 -0.71838 0
M  V30 7946 H 735.208 -0.274039 -1.88013 0
M  V30 7947 H 733.358 1.54954 -3.56261 0
M  V30 7948 H 735.03 -0.87454 -4.52934 0
M  V30 7949 H 733.273 -0.890446 -4.24563 0
M  V30 7950 H 733.944 0.133924 -5.51838 0
M  V30 7951 H 736.42 1.27039 -3.96232 0
M  V30 7952 H 735.296 2.09327 -5.07418 0
M  V30 7953 H 735.557 2.74629 -3.46455 0
M  V30 7954 N 734.616 1.57351 0.0885366 0
M  V30 7955 C 735.548 1.99221 1.13329 0
M  V30 7956 C 736.561 0.895705 1.35945 0
M  V30 7957 O 737.75 1.17376 1.34481 0
M  V30 7958 C 734.85 2.3016 2.48756 0
M  V30 7959 C 734.023 3.61444 2.46327 0
M  V30 7960 C 733.082 3.80244 3.63732 0
M  V30 7961 O 732.108 4.52024 3.45924 0
M  V30 7962 N 733.31 3.2132 4.8346 0
M  V30 7963 H 736.075 2.89456 0.776862 0
M  V30 7964 H 733.636 1.59505 0.277428 0
M  V30 7965 H 735.628 2.39925 3.25911 0
M  V30 7966 H 734.198 1.459 2.76464 0
M  V30 7967 H 733.418 3.62588 1.54673 0
M  V30 7968 H 734.706 4.47678 2.41789 0
M  V30 7969 H 734.104 2.63028 5.00832 0
M  V30 7970 H 732.661 3.3656 5.58185 0
M  V30 7971 N 736.094 -0.359525 1.53444 0
M  V30 7972 C 737.505 -0.936009 1.61542 0
M  V30 7973 C 737.856 -1.90069 0.486633 0
M  V30 7974 O 736.981 -2.12929 -0.386047 0
M  V30 7975 C 737.576 -1.70441 2.92806 0
M  V30 7976 C 736.135 -2.23015 3.03218 0
M  V30 7977 C 735.282 -1.04438 2.56881 0
M  V30 7978 H 738.233 -0.138134 1.58098 0
M  V30 7979 H 738.254 -2.56609 2.80948 0
M  V30 7980 H 737.766 -1.00205 3.74941 0
M  V30 7981 H 735.867 -2.96475 2.25684 0
M  V30 7982 H 735.98 -2.50481 4.08407 0
M  V30 7983 H 734.344 -1.41314 2.11902 0
M  V30 7984 H 735.127 -0.356905 3.4144 0
M  V30 7985 N 737.572 -1.44907 -0.619662 0
M  V30 7986 C 738.522 -1.49085 -1.72504 0
M  V30 7987 C 739.506 -0.355372 -1.56926 0
M  V30 7988 O 740.698 -0.601441 -1.66468 0
M  V30 7989 C 737.827 -1.44889 -3.11227 0
M  V30 7990 C 736.913 -2.63593 -3.32234 0
M  V30 7991 N 737.304 -3.88775 -3.23555 0
M  V30 7992 C 735.602 -2.59033 -3.63067 0
M  V30 7993 C 736.303 -4.67932 -3.45564 0
M  V30 7994 N 735.279 -3.9919 -3.68983 0
M  V30 7995 H 739.081 -2.43706 -1.6427 0
M  V30 7996 H 736.595 -1.4003 -0.82252 0
M  V30 7997 H 738.592 -1.45966 -3.90512 0
M  V30 7998 H 737.252 -0.513143 -3.2062 0
M  V30 7999 H 738.263 -4.20574 -3.02221 0
M  V30 8000 H 734.94 -1.7431 -3.79371 0
M  V30 8001 H 736.33 -5.76952 -3.44349 0
M  V30 8002 N 739.05 0.861098 -1.31996 0
M  V30 8003 C 739.96 2.00154 -1.22374 0
M  V30 8004 C 740.976 1.73447 -0.138631 0
M  V30 8005 O 742.152 1.98191 -0.358104 0
M  V30 8006 C 739.217 3.33696 -0.940645 0
M  V30 8007 C 738.278 3.73668 -2.11355 0
M  V30 8008 C 737.511 5.00837 -1.84386 0
M  V30 8009 O 737.734 5.64996 -0.783287 0
M  V30 8010 O 736.668 5.37787 -2.70313 0
M  V30 8011 H 740.494 2.11207 -2.18233 0
M  V30 8012 H 738.079 0.990768 -1.11822 0
M  V30 8013 H 739.961 4.13756 -0.798987 0
M  V30 8014 H 738.636 3.23698 -0.0121636 0
M  V30 8015 H 737.543 2.94211 -2.31065 0
M  V30 8016 H 738.876 3.88303 -3.02459 0
M  V30 8017 N 740.528 1.15101 1.07655 0
M  V30 8018 C 741.939 0.933848 1.61667 0
M  V30 8019 C 742.29 -0.525569 1.8903 0
M  V30 8020 O 741.415 -1.39605 1.65346 0
M  V30 8021 C 742.01 1.68876 2.93711 0
M  V30 8022 C 740.569 1.51697 3.44478 0
M  V30 8023 C 739.716 1.70633 2.18586 0
M  V30 8024 H 742.667 1.30171 0.907816 0
M  V30 8025 H 742.688 1.15645 3.625 0
M  V30 8026 H 742.2 2.7509 2.73764 0
M  V30 8027 H 740.301 0.478635 3.69513 0
M  V30 8028 H 740.414 2.29194 4.20722 0
M  V30 8029 H 738.778 1.13259 2.28132 0
M  V30 8030 H 739.561 2.78206 2.01137 0
M  V30 8031 N 742.006 -1.2595 0.947325 0
M  V30 8032 C 743.417 -1.75389 0.639963 0
M  V30 8033 C 743.768 -1.77081 -0.844788 0
M  V30 8034 O 742.893 -1.3869 -1.66114 0
M  V30 8035 C 743.488 -3.18506 1.15496 0
M  V30 8036 C 742.047 -3.65534 0.897894 0
M  V30 8037 C 741.194 -2.44818 1.30228 0
M  V30 8038 H 744.145 -1.1194 1.12495 0
M  V30 8039 H 744.166 -3.77045 0.511627 0
M  V30 8040 H 743.678 -3.17243 2.23559 0
M  V30 8041 H 741.779 -3.72221 -0.168096 0
M  V30 8042 H 741.892 -4.54039 1.52922 0
M  V30 8043 H 740.256 -2.44291 0.720678 0
M  V30 8044 H 741.039 -2.46251 2.39198 0
M  V30 8045 N 743.484 -0.715051 -1.40445 0
M  V30 8046 C 744.73 -0.254705 -2.01194 0
M  V30 8047 C 745.063 1.14894 -1.56567 0
M  V30 8048 O 744.338 1.77933 -0.785491 0
M  V30 8049 C 744.621 -0.334148 -3.58546 0
M  V30 8050 C 744.474 -1.77613 -4.13248 0
M  V30 8051 C 745.793 0.294968 -4.3911 0
M  V30 8052 H 742.912 -0.094025 -0.730978 0
M  V30 8053 H 745.554 -0.907449 -1.66929 0
M  V30 8054 H 743.704 0.221609 -3.87867 0
M  V30 8055 H 745.376 -2.38723 -3.94727 0
M  V30 8056 H 743.619 -2.30402 -3.67556 0
M  V30 8057 H 744.29 -1.78311 -5.22407 0
M  V30 8058 H 746.766 -0.178563 -4.15717 0
M  V30 8059 H 745.642 0.208934 -5.48502 0
M  V30 8060 H 745.903 1.37841 -4.20062 0
M  V30 8061 N 744.962 1.50701 -0.461195 0
M  V30 8062 C 746.21 2.01867 0.0970051 0
M  V30 8063 C 746.531 1.34591 1.41104 0
M  V30 8064 O 745.801 0.488041 1.89723 0
M  V30 8065 H 744.381 0.74599 0.0388392 0
M  V30 8066 H 747.043 1.85129 -0.609357 0
M  V30 8067 H 746.139 3.11051 0.255688 0
M  V30 8068 N 746.441 0.193421 1.56409 0
M  V30 8069 C 747.718 -0.493318 1.89277 0
M  V30 8070 C 748.098 -1.79765 1.10669 0
M  V30 8071 O 747.446 -2.27558 0.207274 0
M  V30 8072 C 747.656 -0.713732 3.41624 0
M  V30 8073 C 749.004 -1.03385 4.11821 0
M  V30 8074 O 750.028 -0.801511 3.47065 0
M  V30 8075 O 748.887 -1.47327 5.26267 0
M  V30 8076 H 745.981 -0.256973 0.786062 0
M  V30 8077 H 748.527 0.23351 1.68086 0
M  V30 8078 H 747.299 0.207446 3.9075 0
M  V30 8079 H 746.922 -1.49308 3.68501 0
M  V30 8080 N 747.919 -1.57396 -0.0801906 0
M  V30 8081 C 749.168 -1.8602 -0.779702 0
M  V30 8082 C 749.481 -0.784864 -1.79163 0
M  V30 8083 O 750.687 -0.958691 -2.54011 0
M  V30 8084 C 749.143 -3.29942 -1.43758 0
M  V30 8085 C 748.751 -4.45584 -0.464654 0
M  V30 8086 C 750.495 -3.67775 -2.11995 0
M  V30 8087 C 748.402 -5.80544 -1.12797 0
M  V30 8088 H 747.332 -0.69392 -0.294943 0
M  V30 8089 H 749.983 -1.83471 -0.0328527 0
M  V30 8090 H 748.365 -3.27078 -2.2324 0
M  V30 8091 H 749.539 -4.59824 0.299749 0
M  V30 8092 H 747.854 -4.16247 0.112813 0
M  V30 8093 H 750.451 -4.65896 -2.62383 0
M  V30 8094 H 750.794 -2.9715 -2.91561 0
M  V30 8095 H 751.327 -3.72593 -1.39354 0
M  V30 8096 H 748.066 -6.54439 -0.372807 0
M  V30 8097 H 747.586 -5.70119 -1.86344 0
M  V30 8098 H 749.265 -6.25602 -1.6502 0
M  V30 8099 N 749.397 0.351382 -1.53633 0
M  V30 8100 C 750.347 1.4316 -1.77452 0
M  V30 8101 C 751.331 1.48076 -0.62946 0
M  V30 8102 O 752.523 1.53078 -0.888599 0
M  V30 8103 C 749.652 2.80409 -1.98055 0
M  V30 8104 C 748.738 2.79915 -3.18604 0
M  V30 8105 N 749.129 2.49057 -4.40232 0
M  V30 8106 C 747.427 3.11067 -3.19614 0
M  V30 8107 C 748.128 2.566 -5.22045 0
M  V30 8108 N 747.104 2.919 -4.5858 0
M  V30 8109 H 750.906 1.18188 -2.69089 0
M  V30 8110 H 748.42 0.559684 -1.52451 0
M  V30 8111 H 750.417 3.58231 -2.13251 0
M  V30 8112 H 749.077 3.06334 -1.07655 0
M  V30 8113 H 750.088 2.22395 -4.67719 0
M  V30 8114 H 746.765 3.42215 -2.39154 0
M  V30 8115 H 748.155 2.35968 -6.29101 0
M  V30 8116 N 750.875 1.45233 0.611969 0
M  V30 8117 C 752.1 1.52767 1.40274 0
M  V30 8118 C 752.525 0.159701 1.87421 0
M  V30 8119 O 751.883 -0.854837 1.59882 0
M  V30 8120 C 751.931 2.51286 2.58626 0
M  V30 8121 O 751.035 2.02764 3.59111 0
M  V30 8122 H 750.376 0.515141 0.418958 0
M  V30 8123 H 752.906 1.90547 0.745188 0
M  V30 8124 H 752.916 2.69949 3.05927 0
M  V30 8125 H 751.591 3.50641 2.23659 0
M  V30 8126 H 750.168 1.93957 3.18489 0
M  V30 8127 N 752.353 -0.854086 1.3245 0
M  V30 8128 C 753.601 -1.60513 1.228 0
M  V30 8129 C 753.922 -1.93865 -0.210073 0
M  V30 8130 O 753.192 -1.59673 -1.13496 0
M  V30 8131 H 751.772 -0.595099 0.451516 0
M  V30 8132 H 754.434 -1.0216 1.6598 0
M  V30 8133 H 753.53 -2.54182 1.81102 0
M  V30 8134 N 753.831 -1.1567 -1.07043 0
M  V30 8135 C 755.061 -0.956083 -1.83146 0
M  V30 8136 C 755.469 0.498969 -1.82502 0
M  V30 8137 O 754.812 1.35791 -1.23719 0
M  V30 8138 C 754.874 -1.39704 -3.31245 0
M  V30 8139 C 754.538 -2.87045 -3.55604 0
M  V30 8140 C 755.535 -3.85092 -3.49285 0
M  V30 8141 C 753.22 -3.24787 -3.8317 0
M  V30 8142 C 755.214 -5.18885 -3.70185 0
M  V30 8143 C 752.901 -4.58751 -4.03721 0
M  V30 8144 C 753.899 -5.55609 -3.97224 0
M  V30 8145 O 753.587 -6.87154 -4.17223 0
M  V30 8146 H 753.319 -0.339473 -0.58458 0
M  V30 8147 H 755.873 -1.53922 -1.36005 0
M  V30 8148 H 754.103 -0.757326 -3.79212 0
M  V30 8149 H 755.792 -1.16503 -3.88821 0
M  V30 8150 H 756.558 -3.5728 -3.27988 0
M  V30 8151 H 752.437 -2.49979 -3.87339 0
M  V30 8152 H 755.981 -5.94473 -3.6503 0
M  V30 8153 H 751.878 -4.86277 -4.24505 0
M  V30 8154 H 752.646 -6.93618 -4.34553 0
M  V30 8155 N 755.309 1.25446 -0.953992 0
M  V30 8156 C 756.555 1.93756 -0.618888 0
M  V30 8157 C 756.91 1.73344 0.83484 0
M  V30 8158 O 756.203 1.06753 1.59105 0
M  V30 8159 C 756.397 3.45555 -0.912496 0
M  V30 8160 C 756.226 3.8073 -2.39321 0
M  V30 8161 C 754.996 4.02819 -3.05065 0
M  V30 8162 C 757.194 3.88286 -3.37251 0
M  V30 8163 N 755.176 4.24981 -4.43017 0
M  V30 8164 C 756.547 4.1513 -4.60507 0
M  V30 8165 C 758.602 3.70965 -3.32099 0
M  V30 8166 C 757.305 4.26454 -5.79249 0
M  V30 8167 C 759.331 3.83528 -4.50178 0
M  V30 8168 C 758.693 4.10783 -5.72221 0
M  V30 8169 H 754.792 0.731271 -0.277069 0
M  V30 8170 H 757.376 1.5125 -1.22604 0
M  V30 8171 H 755.547 3.86959 -0.334284 0
M  V30 8172 H 757.279 4.01117 -0.537362 0
M  V30 8173 H 754.034 3.9868 -2.55639 0
M  V30 8174 H 754.458 4.4007 -5.14459 0
M  V30 8175 H 759.1 3.4891 -2.38791 0
M  V30 8176 H 756.818 4.47325 -6.72998 0
M  V30 8177 H 760.404 3.71513 -4.47738 0
M  V30 8178 H 759.284 4.20285 -6.62065 0
M  V30 8179 N 756.787 0.722489 1.40064 0
M  V30 8180 C 757.697 0.0755984 2.34478 0
M  V30 8181 C 758.713 -0.736046 1.57665 0
M  V30 8182 O 759.889 -0.667407 1.9002 0
M  V30 8183 C 756.954 -0.830075 3.36616 0
M  V30 8184 C 756.015 -0.00759884 4.29299 0
M  V30 8185 C 755.248 -0.870139 5.26559 0
M  V30 8186 O 755.471 -2.10921 5.2997 0
M  V30 8187 O 754.405 -0.305454 6.01124 0
M  V30 8188 H 758.231 0.854545 2.9143 0
M  V30 8189 H 755.816 0.483032 1.41376 0
M  V30 8190 H 757.698 -1.34864 3.99236 0
M  V30 8191 H 756.373 -1.58805 2.82069 0
M  V30 8192 H 755.28 0.556199 3.69942 0
M  V30 8193 H 756.613 0.712312 4.87018 0
M  V30 8194 N 758.265 -1.50454 0.469181 0
M  V30 8195 C 759.195 -2.31353 -0.31592 0
M  V30 8196 C 760.176 -1.38172 -0.992094 0
M  V30 8197 O 761.361 -1.67093 -0.989633 0
M  V30 8198 C 758.491 -3.1786 -1.39937 0
M  V30 8199 C 757.445 -4.19578 -0.844909 0
M  V30 8200 C 756.771 -4.9481 -2.0265 0
M  V30 8201 C 758.071 -5.22106 0.142499 0
M  V30 8202 H 759.765 -2.97237 0.359269 0
M  V30 8203 H 757.311 -1.42942 0.174224 0
M  V30 8204 H 759.264 -3.7325 -1.95607 0
M  V30 8205 H 757.988 -2.49858 -2.1033 0
M  V30 8206 H 756.647 -3.65285 -0.310189 0
M  V30 8207 H 756.295 -4.23282 -2.71737 0
M  V30 8208 H 755.995 -5.63613 -1.66174 0
M  V30 8209 H 757.519 -5.53035 -2.58815 0
M  V30 8210 H 758.933 -5.72378 -0.324966 0
M  V30 8211 H 757.33 -5.98618 0.421441 0
M  V30 8212 H 758.4 -4.7297 1.06901 0
M  V30 8213 N 759.743 -0.201713 -1.56304 0
M  V30 8214 C 760.706 0.702811 -2.18159 0
M  V30 8215 C 761.706 1.13619 -1.13787 0
M  V30 8216 O 762.896 1.0482 -1.39134 0
M  V30 8217 C 760.028 1.96032 -2.78898 0
M  V30 8218 H 761.221 0.163836 -2.99452 0
M  V30 8219 H 758.774 0.04791 -1.56227 0
M  V30 8220 H 759.509 2.54165 -2.01421 0
M  V30 8221 H 759.294 1.65824 -3.55309 0
M  V30 8222 H 760.784 2.60519 -3.26373 0
M  V30 8223 N 761.222 1.57436 0.0718424 0
M  V30 8224 C 762.169 2.03686 1.08539 0
M  V30 8225 C 763.139 0.917474 1.38462 0
M  V30 8226 O 764.324 1.18513 1.4953 0
M  V30 8227 C 761.464 2.48566 2.39393 0
M  V30 8228 C 760.577 3.74122 2.16001 0
M  V30 8229 C 759.712 4.07786 3.40418 0
M  V30 8230 C 758.751 5.26383 3.1239 0
M  V30 8231 N 757.888 5.55685 4.29138 0
M  V30 8232 H 762.728 2.90043 0.684018 0
M  V30 8233 H 760.265 1.43438 0.326183 0
M  V30 8234 H 762.223 2.72639 3.15791 0
M  V30 8235 H 760.853 1.65186 2.77333 0
M  V30 8236 H 759.905 3.57389 1.30296 0
M  V30 8237 H 761.217 4.60659 1.91298 0
M  V30 8238 H 760.371 4.32759 4.25211 0
M  V30 8239 H 759.11 3.19817 3.68197 0
M  V30 8240 H 758.115 5.01206 2.25993 0
M  V30 8241 H 759.34 6.1597 2.85934 0
M  V30 8242 H 757.286 4.70675 4.56948 0
M  V30 8243 H 757.203 6.3664 4.07708 0
M  V30 8244 H 758.471 5.85209 5.14928 0
M  V30 8245 N 762.7 -0.34323 1.53817 0
M  V30 8246 C 763.977 -1.10047 1.61706 0
M  V30 8247 C 764.357 -2.06495 0.438514 0
M  V30 8248 O 763.705 -2.21297 -0.569188 0
M  V30 8249 C 763.915 -1.81985 2.97796 0
M  V30 8250 C 765.263 -2.35717 3.53161 0
M  V30 8251 O 766.287 -1.9208 2.99973 0
M  V30 8252 O 765.146 -3.15551 4.46195 0
M  V30 8253 H 762.24 -0.506096 0.654061 0
M  V30 8254 H 764.786 -0.344697 1.66162 0
M  V30 8255 H 763.558 -1.11722 3.75012 0
M  V30 8256 H 763.181 -2.64419 2.96931 0
M  V30 8257 N 764.178 -1.45556 -0.604258 0
M  V30 8258 C 765.426 -1.4945 -1.36048 0
M  V30 8259 C 765.747 -0.138933 -1.94504 0
M  V30 8260 O 765.017 0.832097 -1.7735 0
M  V30 8261 H 763.597 -0.550381 -0.505064 0
M  V30 8262 H 766.259 -1.81535 -0.709308 0
M  V30 8263 H 765.355 -2.23519 -2.17821 0
M  V30 8264 N 765.656 0.84705 -1.32902 0
M  V30 8265 C 766.589 1.96038 -1.1681 0
M  V30 8266 C 767.567 1.62468 -0.0656144 0
M  V30 8267 O 768.751 1.87136 -0.226339 0
M  V30 8268 C 765.878 3.29362 -0.789839 0
M  V30 8269 C 764.924 3.81908 -1.89865 0
M  V30 8270 S 765.757 4.04576 -3.50826 0
M  V30 8271 C 766.913 5.40863 -3.14989 0
M  V30 8272 H 767.146 2.09387 -2.11055 0
M  V30 8273 H 764.679 0.999896 -1.1765 0
M  V30 8274 H 766.637 4.06405 -0.578369 0
M  V30 8275 H 765.298 3.13815 0.133878 0
M  V30 8276 H 764.491 4.78357 -1.58716 0
M  V30 8277 H 764.093 3.11733 -2.06636 0
M  V30 8278 H 766.385 6.23393 -2.65306 0
M  V30 8279 H 767.328 5.7698 -4.10488 0
M  V30 8280 H 767.736 5.05228 -2.51804 0
M  V30 8281 N 767.134 1.16236 1.06428 0
M  V30 8282 C 768.364 0.965782 1.82637 0
M  V30 8283 C 768.772 -0.489284 1.82764 0
M  V30 8284 O 768.115 -1.35133 1.24438 0
M  V30 8285 C 768.177 1.41458 3.30499 0
M  V30 8286 C 767.841 2.88926 3.54077 0
M  V30 8287 C 768.838 3.86939 3.47238 0
M  V30 8288 C 766.523 3.26814 3.81442 0
M  V30 8289 C 768.517 5.20841 3.67428 0
M  V30 8290 C 766.204 4.60886 4.01282 0
M  V30 8291 C 767.202 5.57708 3.94272 0
M  V30 8292 O 766.89 6.89357 4.13573 0
M  V30 8293 H 766.622 0.342569 0.582772 0
M  V30 8294 H 769.176 1.54641 1.35187 0
M  V30 8295 H 767.406 0.777426 3.78805 0
M  V30 8296 H 769.095 1.18563 3.88198 0
M  V30 8297 H 769.861 3.59014 3.26089 0
M  V30 8298 H 765.74 2.5203 3.86008 0
M  V30 8299 H 769.284 5.96401 3.61873 0
M  V30 8300 H 765.181 4.88522 4.21921 0
M  V30 8301 H 765.949 6.95913 4.30869 0
M  V30 8302 N 768.612 -1.24939 0.960631 0
M  V30 8303 C 769.86 -1.92437 0.617441 0
M  V30 8304 C 770.181 -1.75543 -0.849101 0
M  V30 8305 O 769.451 -1.12269 -1.60538 0
M  V30 8306 H 768.031 -0.712192 0.225371 0
M  V30 8307 H 770.693 -1.5198 1.22017 0
M  V30 8308 H 769.789 -3.00247 0.851933 0
M  V30 8309 N 770.09 -0.729906 -1.39679 0
M  V30 8310 C 771.336 -0.27603 -2.00913 0
M  V30 8311 C 771.669 1.13227 -1.57776 0
M  V30 8312 O 770.944 1.7709 -0.804319 0
M  V30 8313 C 771.227 -0.372157 -3.58172 0
M  V30 8314 C 771.08 -1.81986 -4.11341 0
M  V30 8315 C 772.399 0.248378 -4.39399 0
M  V30 8316 H 769.518 -0.101773 -0.729939 0
M  V30 8317 H 772.16 -0.925104 -1.65957 0
M  V30 8318 H 770.31 0.180459 -3.88081 0
M  V30 8319 H 771.982 -2.42896 -3.92172 0
M  V30 8320 H 770.225 -2.34287 -3.65092 0
M  V30 8321 H 770.896 -1.83842 -5.20486 0
M  V30 8322 H 773.372 -0.222645 -4.15504 0
M  V30 8323 H 772.248 0.150746 -5.48693 0
M  V30 8324 H 772.509 1.33378 -4.21501 0
M  V30 8325 N 771.568 1.50203 -0.477153 0
M  V30 8326 C 772.531 2.27194 0.302599 0
M  V30 8327 C 773.531 1.32221 0.915112 0
M  V30 8328 O 774.721 1.55593 0.783348 0
M  V30 8329 C 771.853 3.0938 1.43167 0
M  V30 8330 H 773.046 2.97575 -0.372678 0
M  V30 8331 H 770.599 1.54578 -0.231392 0
M  V30 8332 H 771.334 2.43509 2.14182 0
M  V30 8333 H 771.119 3.79181 0.998197 0
M  V30 8334 H 772.609 3.67592 1.98157 0
M  V30 8335 N 773.046 0.209999 1.56195 0
M  V30 8336 C 773.994 -0.721416 2.2113 0
M  V30 8337 C 774.988 -1.20852 1.18706 0
M  V30 8338 O 776.194 -1.16968 1.36815 0
M  V30 8339 H 772.569 -0.251033 0.708863 0
M  V30 8340 H 774.54 -0.150193 2.98022 0
M  V30 8341 C 773.289 -1.92392 2.89621 0
M  V30 8342 H 772.612 -1.5582 3.68185 0
M  V30 8343 H 774.052 -2.55367 3.38473 0
M  V30 8344 C 772.511 -2.77208 1.91461 0
M  V30 8345 O 773.041 -3.75603 1.42426 0
M  V30 8346 N 771.247 -2.43006 1.59363 0
M  V30 8347 H 770.794 -1.63047 1.99433 0
M  V30 8348 H 770.752 -3.00036 0.939449 0
M  V30 8349 N 774.524 -1.57472 -0.0634922 0
M  V30 8350 C 775.94 -1.54016 -0.418466 0
M  V30 8351 C 776.14 -0.931376 -1.78683 0
M  V30 8352 O 775.196 -0.537465 -2.46714 0
M  V30 8353 C 776.509 -2.98634 -0.351906 0
M  V30 8354 C 778.057 -3.10012 -0.431494 0
M  V30 8355 C 778.532 -4.56296 -0.394754 0
M  V30 8356 N 780.023 -4.60964 -0.454583 0
M  V30 8357 C 780.758 -5.71643 -0.448501 0
M  V30 8358 N 780.254 -6.91663 -0.396742 0
M  V30 8359 N 782.047 -5.5991 -0.495677 0
M  V30 8360 H 774.198 -1.95409 0.832408 0
M  V30 8361 H 776.461 -0.894769 0.313197 0
M  V30 8362 H 776.167 -3.46766 0.587048 0
M  V30 8363 H 776.041 -3.58955 -1.15893 0
M  V30 8364 H 778.428 -2.61848 -1.36087 0
M  V30 8365 H 778.509 -2.52585 0.404258 0
M  V30 8366 H 778.153 -5.05119 0.530811 0
M  V30 8367 H 778.083 -5.11594 -1.24815 0
M  V30 8368 H 780.574 -3.74598 -0.498496 0
M  V30 8369 H 780.887 -7.71783 -0.396256 0
M  V30 8370 H 779.232 -6.9405 -0.363304 0
M  V30 8371 H 782.423 -4.65046 -0.533864 0
M  V30 8372 H 782.596 -6.46164 -0.487469 0
M  V30 8373 N 776.003 0.335068 -1.53997 0
M  V30 8374 C 777.414 0.910191 -1.6301 0
M  V30 8375 C 777.765 1.89271 -0.516809 0
M  V30 8376 O 776.89 2.13516 0.352123 0
M  V30 8377 C 777.485 1.65761 -2.9548 0
M  V30 8378 C 776.044 2.18163 -3.06728 0
M  V30 8379 C 775.191 1.00338 -2.5851 0
M  V30 8380 H 778.142 0.112965 -1.58297 0
M  V30 8381 H 778.163 2.52107 -2.84995 0
M  V30 8382 H 777.675 0.94227 -3.76488 0
M  V30 8383 H 775.776 2.92847 -2.30372 0
M  V30 8384 H 775.889 2.43952 -4.1234 0
M  V30 8385 H 774.253 1.37925 -2.14124 0
M  V30 8386 H 775.036 0.30254 -3.41964 0
M  V30 8387 N 777.481 1.45874 0.596531 0
M  V30 8388 C 778.429 1.55739 1.72766 0
M  V30 8389 C 779.423 0.426666 1.63939 0
M  V30 8390 O 780.629 0.60301 1.69599 0
M  V30 8391 H 777.004 0.489386 0.570968 0
M  V30 8392 H 778.975 2.50871 1.61575 0
M  V30 8393 C 777.724 1.55174 3.11153 0
M  V30 8394 H 777.047 2.41511 3.1861 0
M  V30 8395 H 778.487 1.66133 3.90097 0
M  V30 8396 C 776.946 0.278001 3.35751 0
M  V30 8397 O 777.476 -0.637557 3.96608 0
M  V30 8398 N 775.682 0.170227 2.90101 0
M  V30 8399 H 775.229 0.916159 2.40758 0
M  V30 8400 H 775.187 -0.68117 3.06932 0
M  V30 8401 N 778.959 -0.83999 1.33349 0
M  V30 8402 C 780.207 -1.59202 1.24496 0
M  V30 8403 C 780.528 -1.94077 -0.189499 0
M  V30 8404 O 779.798 -1.60868 -1.11796 0
M  V30 8405 H 778.378 -0.590276 0.457802 0
M  V30 8406 H 781.04 -1.00394 1.67054 0
M  V30 8407 H 780.136 -2.52247 1.83788 0
M  V30 8408 N 780.437 -1.16799 -1.0581 0
M  V30 8409 C 781.665 -0.97687 -1.82387 0
M  V30 8410 C 782.08 0.474917 -1.82729 0
M  V30 8411 O 781.437 1.3297 -1.25001 0
M  V30 8412 C 781.488 -1.50279 -3.28783 0
M  V30 8413 O 781.209 -2.89772 -3.28578 0
M  V30 8414 C 782.71 -1.35538 -4.22071 0
M  V30 8415 H 779.93 -0.345977 -0.574927 0
M  V30 8416 H 782.474 -1.54942 -1.33466 0
M  V30 8417 H 780.629 -0.972414 -3.74997 0
M  V30 8418 H 781.043 -3.13954 -4.20159 0
M  V30 8419 H 782.517 -1.7716 -5.22799 0
M  V30 8420 H 782.994 -0.301598 -4.38163 0
M  V30 8421 H 783.6 -1.87562 -3.81708 0
M  V30 8422 N 781.915 1.24427 -0.967243 0
M  V30 8423 C 782.878 2.23637 -0.501927 0
M  V30 8424 C 783.878 1.55712 0.401283 0
M  V30 8425 O 785.068 1.73085 0.196808 0
M  V30 8426 C 782.2 3.39804 0.273176 0
M  V30 8427 H 783.393 2.66317 -1.37897 0
M  V30 8428 H 780.946 1.37033 -0.751783 0
M  V30 8429 H 781.681 3.02562 1.16733 0
M  V30 8430 H 781.466 3.90303 -0.37498 0
M  V30 8431 H 782.956 4.13443 0.587776 0
M  V30 8432 N 783.393 0.737304 1.3929 0
M  V30 8433 C 784.343 0.0748537 2.27877 0
M  V30 8434 C 785.327 -0.71022 1.44377 0
M  V30 8435 O 786.519 -0.578851 1.67267 0
M  V30 8436 C 783.648 -0.82991 3.33118 0
M  V30 8437 C 782.734 -0.0388619 4.24082 0
M  V30 8438 N 783.125 0.989182 4.96033 0
M  V30 8439 C 781.423 -0.268167 4.45193 0
M  V30 8440 C 782.124 1.46639 5.62914 0
M  V30 8441 N 781.1 0.784581 5.37908 0
M  V30 8442 H 784.902 0.862457 2.80961 0
M  V30 8443 H 782.416 0.571845 1.51999 0
M  V30 8444 H 784.413 -1.31999 3.95452 0
M  V30 8445 H 783.073 -1.61665 2.81593 0
M  V30 8446 H 784.084 1.3706 4.99435 0
M  V30 8447 H 780.761 -1.02953 4.04607 0
M  V30 8448 H 782.151 2.32182 6.30508 0
M  V30 8449 N 784.871 -1.49948 0.485112 0
M  V30 8450 C 785.818 -2.28819 -0.301729 0
M  V30 8451 C 786.788 -1.34496 -0.974683 0
M  V30 8452 O 787.973 -1.63444 -0.984418 0
M  V30 8453 C 785.113 -3.16758 -1.36961 0
M  V30 8454 C 784.226 -4.26125 -0.710027 0
M  V30 8455 C 783.361 -5.01302 -1.75699 0
M  V30 8456 C 782.4 -6.02525 -1.07841 0
M  V30 8457 N 781.537 -6.70927 -2.06886 0
M  V30 8458 H 786.377 -2.95604 0.377127 0
M  V30 8459 H 783.914 -1.45764 0.197826 0
M  V30 8460 H 785.872 -3.66106 -2.00056 0
M  V30 8461 H 784.502 -2.51991 -2.01744 0
M  V30 8462 H 783.554 -3.80385 0.0338278 0
M  V30 8463 H 784.866 -4.98493 -0.175079 0
M  V30 8464 H 784.02 -5.54438 -2.46339 0
M  V30 8465 H 782.759 -4.28672 -2.32577 0
M  V30 8466 H 781.764 -5.48635 -0.357706 0
M  V30 8467 H 782.989 -6.77134 -0.516345 0
M  V30 8468 H 780.935 -6.01079 -2.62755 0
M  V30 8469 H 780.852 -7.39216 -1.58414 0
M  V30 8470 H 782.12 -7.28675 -2.76863 0
M  V30 8471 N 786.349 -0.21828 -1.56081 0
M  V30 8472 C 787.579 0.41865 -2.02314 0
M  V30 8473 C 787.987 1.54124 -1.09739 0
M  V30 8474 O 787.33 1.83435 -0.0986829 0
M  V30 8475 C 787.392 1.01439 -3.44892 0
M  V30 8476 C 787.056 0.0276523 -4.56992 0
M  V30 8477 C 788.053 -0.771526 -5.14143 0
M  V30 8478 C 785.738 -0.0901537 -5.02219 0
M  V30 8479 C 787.732 -1.67525 -6.14991 0
M  V30 8480 C 785.419 -0.997411 -6.02905 0
M  V30 8481 C 786.417 -1.78851 -6.59167 0
M  V30 8482 O 786.105 -2.68052 -7.57894 0
M  V30 8483 H 785.837 0.107066 -0.667468 0
M  V30 8484 H 788.391 -0.331191 -2.02712 0
M  V30 8485 H 786.621 1.81326 -3.41552 0
M  V30 8486 H 788.31 1.55838 -3.74792 0
M  V30 8487 H 789.076 -0.690945 -4.80053 0
M  V30 8488 H 784.955 0.515474 -4.58109 0
M  V30 8489 H 788.499 -2.29316 -6.58832 0
M  V30 8490 H 784.396 -1.07902 -6.36418 0
M  V30 8491 H 785.164 -2.6209 -7.75404 0
M  V30 8492 N 787.827 1.57504 0.0551401 0
M  V30 8493 C 789.074 1.88055 0.751104 0
M  V30 8494 C 789.402 0.812231 1.76729 0
M  V30 8495 O 788.657 -0.189918 1.94776 0
M  V30 8496 C 788.956 3.25311 1.48013 0
M  V30 8497 C 788.622 4.46858 0.602375 0
M  V30 8498 C 787.284 4.79847 0.360536 0
M  V30 8499 C 789.636 5.212 -0.00524047 0
M  V30 8500 C 786.964 5.84582 -0.498127 0
M  V30 8501 C 789.316 6.26844 -0.851453 0
M  V30 8502 C 787.98 6.58324 -1.103 0
M  V30 8503 H 787.25 0.688142 0.274848 0
M  V30 8504 H 789.897 1.91497 0.0114795 0
M  V30 8505 H 788.202 3.17737 2.29239 0
M  V30 8506 H 789.899 3.46189 2.02371 0
M  V30 8507 H 786.489 4.21049 0.801007 0
M  V30 8508 H 790.673 4.96013 0.168682 0
M  V30 8509 H 785.929 6.07361 -0.701594 0
M  V30 8510 H 790.103 6.83603 -1.32893 0
M  V30 8511 H 787.73 7.39304 -1.77011 0
M  V30 8512 N 789.305 -0.326896 1.54172 0
M  V30 8513 C 790.268 -1.38515 1.8261 0
M  V30 8514 C 791.268 -1.44872 0.697771 0
M  V30 8515 O 792.458 -1.44957 0.966078 0
M  V30 8516 C 789.59 -2.77281 1.98313 0
M  V30 8517 H 790.783 -1.14556 2.77159 0
M  V30 8518 H 788.336 -0.562199 1.45839 0
M  V30 8519 H 789.071 -3.065 1.05964 0
M  V30 8520 H 788.856 -2.74061 2.80416 0
M  V30 8521 H 790.346 -3.53845 2.21773 0
M  V30 8522 N 790.784 -1.46188 -0.588786 0
M  V30 8523 C 792.009 -1.5498 -1.37826 0
M  V30 8524 C 792.434 -0.189498 -1.87143 0
M  V30 8525 O 791.792 0.829293 -1.61222 0
M  V30 8526 C 791.84 -2.55369 -2.54596 0
M  V30 8527 O 790.944 -2.08452 -3.55839 0
M  V30 8528 H 790.285 -0.521741 -0.41071 0
M  V30 8529 H 792.815 -1.91708 -0.714779 0
M  V30 8530 H 792.825 -2.74782 -3.01594 0
M  V30 8531 H 791.5 -3.54155 -2.18052 0
M  V30 8532 H 790.077 -1.98999 -3.15363 0
M  V30 8533 N 792.262 0.832906 -1.33792 0
M  V30 8534 C 793.225 1.92471 -1.24449 0
M  V30 8535 C 794.225 1.59981 -0.162085 0
M  V30 8536 O 795.415 1.69208 -0.414029 0
M  V30 8537 C 792.547 3.28278 -0.919044 0
M  V30 8538 H 793.74 2.0218 -2.21502 0
M  V30 8539 H 791.293 1.0257 -1.17936 0
M  V30 8540 H 792.028 3.24263 0.048738 0
M  V30 8541 H 791.813 3.53241 -1.70187 0
M  V30 8542 H 793.303 4.08253 -0.878576 0
M  V30 8543 N 793.74 1.17359 1.05189 0
M  V30 8544 C 795.151 0.96793 1.5965 0
M  V30 8545 C 795.502 -0.485355 1.90102 0
M  V30 8546 O 794.627 -1.36066 1.6827 0
M  V30 8547 C 795.222 1.75068 2.90063 0
M  V30 8548 C 793.781 1.58969 3.41183 0
M  V30 8549 C 792.928 1.75231 2.14917 0
M  V30 8550 H 795.879 1.32067 0.880001 0
M  V30 8551 H 795.9 1.23308 3.59966 0
M  V30 8552 H 795.412 2.80835 2.67868 0
M  V30 8553 H 793.513 0.556906 3.68415 0
M  V30 8554 H 793.626 2.38067 4.15766 0
M  V30 8555 H 791.99 1.18073 2.25679 0
M  V30 8556 H 792.773 2.8241 1.95191 0
M  V30 8557 N 795.218 -1.23913 0.973828 0
M  V30 8558 C 796.448 -1.95911 0.655938 0
M  V30 8559 C 796.856 -1.72375 -0.779967 0
M  V30 8560 O 796.199 -1.00807 -1.5357 0
M  V30 8561 C 796.261 -3.49103 0.858324 0
M  V30 8562 C 795.925 -3.96347 2.27504 0
M  V30 8563 C 796.922 -4.05537 3.25324 0
M  V30 8564 C 794.607 -4.29509 2.60437 0
M  V30 8565 C 796.601 -4.47233 4.5416 0
M  V30 8566 C 794.288 -4.70887 3.89498 0
M  V30 8567 C 795.286 -4.79714 4.86172 0
M  V30 8568 O 794.974 -5.20166 6.1293 0
M  V30 8569 H 794.706 -0.630721 0.243244 0
M  V30 8570 H 797.26 -1.58534 1.30599 0
M  V30 8571 H 795.49 -3.86405 0.151097 0
M  V30 8572 H 797.179 -4.02311 0.538592 0
M  V30 8573 H 797.945 -3.80128 3.0121 0
M  V30 8574 H 793.824 -4.21853 1.85906 0
M  V30 8575 H 797.368 -4.54038 5.29618 0
M  V30 8576 H 793.265 -4.95744 4.1341 0
M  V30 8577 H 794.033 -5.38298 6.16586 0
M  V30 8578 N 796.696 -0.74468 -1.38897 0
M  V30 8579 C 797.643 -0.111064 -2.30533 0
M  V30 8580 C 798.613 0.719276 -1.49719 0
M  V30 8581 O 799.798 0.677244 -1.78376 0
M  V30 8582 C 796.938 0.78292 -3.36102 0
M  V30 8583 C 796.051 -0.0610817 -4.31957 0
M  V30 8584 C 795.186 0.835075 -5.24595 0
M  V30 8585 C 794.225 -0.0130974 -6.12099 0
M  V30 8586 N 793.362 0.839525 -6.97063 0
M  V30 8587 H 798.202 -0.898113 -2.84144 0
M  V30 8588 H 795.739 -0.454537 -1.39901 0
M  V30 8589 H 797.697 1.31578 -3.95908 0
M  V30 8590 H 796.327 1.53585 -2.83922 0
M  V30 8591 H 795.379 -0.711469 -3.73687 0
M  V30 8592 H 796.691 -0.716482 -4.93627 0
M  V30 8593 H 795.845 1.43542 -5.89475 0
M  V30 8594 H 794.584 1.52423 -4.63269 0
M  V30 8595 H 793.589 -0.626179 -5.46223 0
M  V30 8596 H 794.814 -0.699181 -6.75491 0
M  V30 8597 H 792.76 1.5138 -6.38295 0
M  V30 8598 H 792.677 0.240823 -7.55616 0
M  V30 8599 H 793.945 1.42513 -7.66362 0
M  V30 8600 N 798.174 1.49689 -0.493057 0
M  V30 8601 C 799.423 2.01622 0.0560733 0
M  V30 8602 C 799.736 1.37838 1.3878 0
M  V30 8603 O 800.942 1.81054 2.02316 0
M  V30 8604 C 799.398 3.59586 0.150409 0
M  V30 8605 C 799.006 4.32338 -1.1742 0
M  V30 8606 C 800.75 4.19489 0.650327 0
M  V30 8607 C 798.657 5.8214 -1.04246 0
M  V30 8608 H 797.587 0.753594 0.0247297 0
M  V30 8609 H 800.238 1.723 -0.631279 0
M  V30 8610 H 798.62 3.8559 0.902035 0
M  V30 8611 H 799.794 4.18042 -1.9385 0
M  V30 8612 H 798.109 3.84144 -1.60694 0
M  V30 8613 H 800.706 5.29181 0.766272 0
M  V30 8614 H 801.049 3.82326 1.6472 0
M  V30 8615 H 801.582 3.97775 -0.0445371 0
M  V30 8616 H 798.321 6.23814 -2.01336 0
M  V30 8617 H 797.841 5.98952 -0.31892 0
M  V30 8618 H 799.52 6.43004 -0.717957 0
M  V30 8619 N 799.652 0.226554 1.55963 0
M  V30 8620 C 800.615 -0.668015 2.19249 0
M  V30 8621 C 801.615 -1.11794 1.1558 0
M  V30 8622 O 802.805 -1.02593 1.40784 0
M  V30 8623 C 799.937 -1.91571 2.81981 0
M  V30 8624 H 801.13 -0.116175 2.99675 0
M  V30 8625 H 798.683 -0.0230497 1.56283 0
M  V30 8626 H 799.418 -2.50929 2.05439 0
M  V30 8627 H 799.203 -1.6015 3.57903 0
M  V30 8628 H 800.693 -2.55294 3.30477 0
M  V30 8629 N 801.13 -1.57531 -0.0467866 0
M  V30 8630 C 802.093 -2.04379 -1.03738 0
M  V30 8631 C 803.093 -0.944881 -1.3011 0
M  V30 8632 O 804.283 -1.20904 -1.25411 0
M  V30 8633 C 801.415 -2.44572 -2.37482 0
M  V30 8634 H 802.608 -2.93142 -0.633063 0
M  V30 8635 H 800.161 -1.53526 -0.293177 0
M  V30 8636 H 800.896 -1.58911 -2.82697 0
M  V30 8637 H 800.681 -3.24785 -2.19675 0
M  V30 8638 H 802.171 -2.81307 -3.08636 0
M  V30 8639 N 802.608 0.318715 -1.54344 0
M  V30 8640 C 803.555 1.39242 -1.84066 0
M  V30 8641 C 804.525 1.51175 -0.688134 0
M  V30 8642 O 805.71 1.66318 -0.935039 0
M  V30 8643 C 802.85 2.75528 -2.07794 0
M  V30 8644 C 801.963 2.72187 -3.35467 0
M  V30 8645 C 801.098 4.00352 -3.4913 0
M  V30 8646 C 800.137 3.91338 -4.7066 0
M  V30 8647 N 799.274 5.11242 -4.81224 0
M  V30 8648 H 804.114 1.13196 -2.75664 0
M  V30 8649 H 801.651 0.547857 -1.36517 0
M  V30 8650 H 803.609 3.54763 -2.19543 0
M  V30 8651 H 802.239 2.99873 -1.19482 0
M  V30 8652 H 801.291 1.84917 -3.3243 0
M  V30 8653 H 802.603 2.61411 -4.24812 0
M  V30 8654 H 801.757 4.88019 -3.60448 0
M  V30 8655 H 800.496 4.1394 -2.57886 0
M  V30 8656 H 799.501 3.02055 -4.59394 0
M  V30 8657 H 800.726 3.7931 -5.63294 0
M  V30 8658 H 798.672 5.25327 -3.92897 0
M  V30 8659 H 798.589 5.0282 -5.64543 0
M  V30 8660 H 799.857 6.0061 -4.96879 0
M  V30 8661 N 804.086 1.46499 0.581025 0
M  V30 8662 C 805.311 1.55708 1.37002 0
M  V30 8663 C 805.736 0.19942 1.8704 0
M  V30 8664 O 805.094 -0.820731 1.61659 0
M  V30 8665 C 805.142 2.56716 2.53238 0
M  V30 8666 O 804.246 2.10336 3.54729 0
M  V30 8667 H 803.587 0.523912 0.407937 0
M  V30 8668 H 806.117 1.92085 0.704602 0
M  V30 8669 H 806.127 2.76378 3.00132 0
M  V30 8670 H 804.802 3.55307 2.16171 0
M  V30 8671 H 803.379 2.00669 3.14303 0
M  V30 8672 N 805.565 -0.825799 1.34232 0
M  V30 8673 C 806.813 -1.57873 1.26177 0
M  V30 8674 C 807.134 -1.94267 -0.168904 0
M  V30 8675 O 806.404 -1.62045 -1.10084 0
M  V30 8676 H 804.984 -0.585388 0.464037 0
M  V30 8677 H 807.646 -0.986163 1.6811 0
M  V30 8678 H 806.742 -2.50283 1.86453 0
M  V30 8679 N 807.043 -1.17915 -1.04565 0
M  V30 8680 C 808.271 -0.99616 -1.8134 0
M  V30 8681 C 808.686 0.455509 -1.83223 0
M  V30 8682 O 808.043 1.31636 -1.26405 0
M  V30 8683 C 808.094 -1.53758 -3.27171 0
M  V30 8684 O 807.815 -2.93241 -3.25486 0
M  V30 8685 C 809.316 -1.40007 -4.2061 0
M  V30 8686 H 806.536 -0.352055 -0.571225 0
M  V30 8687 H 809.08 -1.56349 -1.31815 0
M  V30 8688 H 807.235 -1.01213 -3.73945 0
M  V30 8689 H 807.649 -3.18392 -4.16805 0
M  V30 8690 H 809.123 -1.82695 -5.2089 0
M  V30 8691 H 809.6 -0.348054 -4.37819 0
M  V30 8692 H 810.206 -1.916 -3.79697 0
M  V30 8693 N 808.521 1.23394 -0.980386 0
M  V30 8694 C 809.484 2.23092 -0.525619 0
M  V30 8695 C 810.484 1.56129 0.384745 0
M  V30 8696 O 811.674 1.73284 0.178439 0
M  V30 8697 C 808.806 3.40074 0.23712 0
M  V30 8698 H 809.999 2.64839 -1.40714 0
M  V30 8699 H 807.552 1.36227 -0.766275 0
M  V30 8700 H 808.287 3.03783 1.13518 0
M  V30 8701 H 808.072 3.89883 -0.416356 0
M  V30 8702 H 809.562 4.14043 0.543892 0
M  V30 8703 N 809.999 0.752036 1.385 0
M  V30 8704 C 810.931 0.0835089 2.29048 0
M  V30 8705 C 811.944 -0.685402 1.47669 0
M  V30 8706 O 813.133 -0.526748 1.70551 0
M  V30 8707 C 810.233 -0.905772 3.26572 0
M  V30 8708 C 809.406 -0.194828 4.36966 0
M  V30 8709 C 808.465 -1.09464 5.14688 0
M  V30 8710 O 807.491 -0.565743 5.66381 0
M  V30 8711 N 808.693 -2.42287 5.2752 0
M  V30 8712 H 811.458 0.861142 2.87062 0
M  V30 8713 H 809.019 0.602689 1.50264 0
M  V30 8714 H 811.011 -1.51072 3.75446 0
M  V30 8715 H 809.581 -1.58449 2.69467 0
M  V30 8716 H 808.801 0.590812 3.89747 0
M  V30 8717 H 810.089 0.297189 5.07931 0
M  V30 8718 H 809.487 -2.87715 4.8707 0
M  V30 8719 H 808.044 -2.97836 5.79773 0
M  V30 8720 N 811.477 -1.49425 0.500989 0
M  V30 8721 C 812.723 -2.02753 -0.0436 0
M  V30 8722 C 813.056 -1.37991 -1.36646 0
M  V30 8723 O 812.331 -0.515597 -1.87542 0
M  V30 8724 C 812.614 -3.59565 -0.19616 0
M  V30 8725 C 812.467 -4.34855 1.14982 0
M  V30 8726 C 813.786 -4.30014 -0.936795 0
M  V30 8727 H 810.905 -0.73686 -0.0143711 0
M  V30 8728 H 813.547 -1.78448 0.652397 0
M  V30 8729 H 811.697 -3.80405 -0.788959 0
M  V30 8730 H 813.369 -4.25512 1.7815 0
M  V30 8731 H 811.612 -3.97414 1.73911 0
M  V30 8732 H 812.283 -5.42933 0.996385 0
M  V30 8733 H 814.759 -4.1383 -0.434036 0
M  V30 8734 H 813.635 -5.39483 -1.01238 0
M  V30 8735 H 813.896 -3.95257 -1.9805 0
M  V30 8736 N 812.955 -0.234822 -1.55841 0
M  V30 8737 C 814.202 0.39326 -1.98645 0
M  V30 8738 C 814.53 1.58823 -1.12274 0
M  V30 8739 O 813.785 1.94954 -0.170731 0
M  V30 8740 C 814.084 0.858032 -3.46947 0
M  V30 8741 C 813.75 -0.227858 -4.50324 0
M  V30 8742 C 812.412 -0.526128 -4.78315 0
M  V30 8743 C 814.764 -0.961576 -5.12253 0
M  V30 8744 C 812.092 -1.5624 -5.65514 0
M  V30 8745 C 814.444 -1.98728 -6.00575 0
M  V30 8746 C 813.108 -2.29233 -6.26904 0
M  V30 8747 H 812.378 0.143904 -0.726892 0
M  V30 8748 H 815.025 -0.34012 -1.88455 0
M  V30 8749 H 813.33 1.67041 -3.54408 0
M  V30 8750 H 815.027 1.35407 -3.77447 0
M  V30 8751 H 811.617 0.0147624 -4.28597 0
M  V30 8752 H 815.801 -0.744388 -4.90686 0
M  V30 8753 H 811.057 -1.80422 -5.84173 0
M  V30 8754 H 815.231 -2.5608 -6.47608 0
M  V30 8755 H 812.858 -3.09671 -6.94268 0
M  V30 8756 N 814.433 1.57553 0.0384317 0
M  V30 8757 C 815.681 1.88468 0.729672 0
M  V30 8758 C 816.002 0.831302 1.76393 0
M  V30 8759 O 815.272 -0.13622 1.95426 0
M  V30 8760 H 813.852 0.695529 0.272485 0
M  V30 8761 H 816.514 1.94899 0.0066032 0
M  V30 8762 H 815.61 2.8705 1.22511 0
M  V30 8763 N 815.911 -0.310526 1.54511 0
M  V30 8764 C 816.841 -1.38757 1.878 0
M  V30 8765 C 817.822 -1.53353 0.735991 0
M  V30 8766 O 819.007 -1.67018 0.990887 0
M  V30 8767 C 816.137 -2.75327 2.11689 0
M  V30 8768 C 815.091 -2.75506 3.27537 0
M  V30 8769 C 814.417 -4.15275 3.36824 0
M  V30 8770 C 815.717 -2.38093 4.64875 0
M  V30 8771 H 817.411 -1.11146 2.78005 0
M  V30 8772 H 814.957 -0.533232 1.33763 0
M  V30 8773 H 816.91 -3.50752 2.33562 0
M  V30 8774 H 815.634 -3.04443 1.18245 0
M  V30 8775 H 814.293 -2.02538 3.05572 0
M  V30 8776 H 813.941 -4.41553 2.40915 0
M  V30 8777 H 813.641 -4.16299 4.14692 0
M  V30 8778 H 815.165 -4.92493 3.60947 0
M  V30 8779 H 816.579 -3.03232 4.86542 0
M  V30 8780 H 814.976 -2.50345 5.45387 0
M  V30 8781 H 816.046 -1.33227 4.66239 0
M  V30 8782 N 817.389 -1.46805 -0.573248 0
M  V30 8783 C 818.336 -1.58084 -1.68161 0
M  V30 8784 C 819.306 -0.424636 -1.6058 0
M  V30 8785 O 820.491 -0.642623 -1.79652 0
M  V30 8786 C 817.631 -1.58601 -3.06496 0
M  V30 8787 C 816.744 -2.85023 -3.24632 0
M  V30 8788 C 815.879 -2.76981 -4.53271 0
M  V30 8789 C 814.918 -3.983 -4.64783 0
M  V30 8790 N 814.055 -3.88589 -5.84759 0
M  V30 8791 H 818.895 -2.52755 -1.57858 0
M  V30 8792 H 816.432 -1.25385 -0.769218 0
M  V30 8793 H 818.39 -1.56885 -3.86579 0
M  V30 8794 H 817.02 -0.674553 -3.15673 0
M  V30 8795 H 816.072 -2.96678 -2.38089 0
M  V30 8796 H 817.384 -3.7491 -3.29004 0
M  V30 8797 H 816.538 -2.73424 -5.41594 0
M  V30 8798 H 815.277 -1.84751 -4.51352 0
M  V30 8799 H 814.282 -4.02179 -3.74876 0
M  V30 8800 H 815.507 -4.91639 -4.68474 0
M  V30 8801 H 813.453 -2.99151 -5.83819 0
M  V30 8802 H 813.37 -4.7214 -5.90441 0
M  V30 8803 H 814.638 -3.89022 -6.75486 0
M  V30 8804 N 818.867 0.818669 -1.34668 0
M  V30 8805 C 819.83 1.9114 -1.26483 0
M  V30 8806 C 820.83 1.598 -0.179044 0
M  V30 8807 O 822.02 1.6876 -0.431952 0
M  V30 8808 C 819.152 3.27285 -0.95381 0
M  V30 8809 H 820.345 1.9982 -2.23634 0
M  V30 8810 H 817.898 1.01314 -1.19018 0
M  V30 8811 H 818.633 3.24297 0.0143428 0
M  V30 8812 H 818.418 3.51416 -1.73924 0
M  V30 8813 H 819.908 4.07299 -0.921827 0
M  V30 8814 N 820.346 1.18468 1.03938 0
M  V30 8815 C 821.294 0.909286 2.14091 0
M  V30 8816 C 822.288 -0.130928 1.68893 0
M  V30 8817 O 823.494 0.0173403 1.79992 0
M  V30 8818 H 819.869 0.27658 0.699291 0
M  V30 8819 H 821.84 1.84514 2.34515 0
M  V30 8820 C 820.589 0.452922 3.44737 0
M  V30 8821 H 819.912 1.24485 3.79926 0
M  V30 8822 H 821.352 0.299238 4.22943 0
M  V30 8823 C 819.811 -0.831435 3.26479 0
M  V30 8824 O 820.341 -1.89535 3.54174 0
M  V30 8825 N 818.547 -0.784545 2.79809 0
M  V30 8826 H 818.094 0.0814746 2.57471 0
M  V30 8827 H 818.052 -1.64431 2.67973 0
M  V30 8828 N 821.824 -1.22873 0.986916 0
M  V30 8829 C 822.734 -2.28277 0.540978 0
M  V30 8830 C 823.75 -1.69164 -0.407363 0
M  V30 8831 O 824.926 -1.99504 -0.275674 0
M  V30 8832 C 821.991 -3.46404 -0.143181 0
M  V30 8833 C 821.052 -4.20854 0.847375 0
M  V30 8834 C 820.285 -5.33341 0.19577 0
M  V30 8835 O 820.508 -5.61356 -1.0117 0
M  V30 8836 O 819.442 -5.95169 0.897623 0
M  V30 8837 H 823.268 -2.68578 1.41773 0
M  V30 8838 H 820.853 -1.28927 0.754867 0
M  V30 8839 H 822.735 -4.18096 -0.526676 0
M  V30 8840 H 821.41 -3.08041 -0.994593 0
M  V30 8841 H 820.317 -3.51459 1.28169 0
M  V30 8842 H 821.65 -4.63082 1.6678 0
M  V30 8843 N 823.302 -0.75937 -1.38099 0
M  V30 8844 C 824.53 -0.329111 -2.04266 0
M  V30 8845 C 824.945 1.04453 -1.57274 0
M  V30 8846 O 824.302 1.66449 -0.748397 0
M  V30 8847 C 824.353 -0.349192 -3.5981 0
M  V30 8848 O 824.074 -1.66863 -4.05078 0
M  V30 8849 C 825.575 0.0942106 -4.432 0
M  V30 8850 H 822.795 -0.13971 -0.656294 0
M  V30 8851 H 825.339 -1.02984 -1.76677 0
M  V30 8852 H 823.494 0.302846 -3.86214 0
M  V30 8853 H 823.908 -1.59877 -4.9954 0
M  V30 8854 H 825.382 0.0290004 -5.51992 0
M  V30 8855 H 825.859 1.1429 -4.24069 0
M  V30 8856 H 826.465 -0.529171 -4.21995 0
M  V30 8857 N 824.78 1.49157 -0.508906 0
M  V30 8858 C 826.01 2.06579 0.0293308 0
M  V30 8859 C 826.418 1.36852 1.30645 0
M  V30 8860 O 825.761 0.443079 1.78276 0
M  V30 8861 C 825.823 3.57838 0.345296 0
M  V30 8862 C 825.487 4.49302 -0.835256 0
M  V30 8863 C 826.484 4.90345 -1.72793 0
M  V30 8864 C 824.169 4.91494 -1.0363 0
M  V30 8865 C 826.163 5.72327 -2.80573 0
M  V30 8866 C 823.85 5.7325 -2.11726 0
M  V30 8867 C 824.848 6.13572 -3.00032 0
M  V30 8868 O 824.536 6.93691 -4.06261 0
M  V30 8869 H 824.268 0.675679 -0.0208193 0
M  V30 8870 H 826.822 1.9282 -0.707789 0
M  V30 8871 H 825.052 3.69634 1.13612 0
M  V30 8872 H 826.741 3.97467 0.823089 0
M  V30 8873 H 827.507 4.58388 -1.58446 0
M  V30 8874 H 823.386 4.59605 -0.358308 0
M  V30 8875 H 826.93 6.03719 -3.49527 0
M  V30 8876 H 822.827 6.0462 -2.26065 0
M  V30 8877 H 823.595 7.12011 -4.03711 0
M  V30 8878 N 826.258 0.243083 1.55714 0
M  V30 8879 C 827.206 -0.674349 2.2261 0
M  V30 8880 C 828.2 -1.18307 1.21243 0
M  V30 8881 O 829.406 -1.1404 1.39265 0
M  V30 8882 H 825.781 -0.235941 0.714028 0
M  V30 8883 H 827.752 -0.0869446 2.98273 0
M  V30 8884 C 826.501 -1.86206 2.93637 0
M  V30 8885 H 825.824 -1.47975 3.71407 0
M  V30 8886 H 827.264 -2.4813 3.43813 0
M  V30 8887 C 825.723 -2.73084 1.97298 0
M  V30 8888 O 826.253 -3.72497 1.50361 0
M  V30 8889 N 824.459 -2.39571 1.64482 0
M  V30 8890 H 824.006 -1.5878 2.02846 0
M  V30 8891 H 823.964 -2.97976 1.00288 0
M  V30 8892 N 827.736 -1.57571 -0.0300757 0
M  V30 8893 C 828.699 -2.05468 -1.01565 0
M  V30 8894 C 829.699 -0.958628 -1.29101 0
M  V30 8895 O 830.889 -1.22228 -1.24121 0
M  V30 8896 C 828.021 -2.47077 -2.34874 0
M  V30 8897 H 829.214 -2.93797 -0.601936 0
M  V30 8898 H 826.767 -1.53828 -0.276878 0
M  V30 8899 H 827.502 -1.61901 -2.80996 0
M  V30 8900 H 827.287 -3.27097 -2.16218 0
M  V30 8901 H 828.777 -2.84564 -3.05635 0
M  V30 8902 N 829.214 0.302327 -1.54673 0
M  V30 8903 C 830.164 1.37443 -1.81916 0
M  V30 8904 C 831.148 1.45999 -0.676251 0
M  V30 8905 O 832.34 1.50174 -0.93685 0
M  V30 8906 C 829.469 2.73966 -2.06876 0
M  V30 8907 C 828.555 2.69637 -3.27348 0
M  V30 8908 N 828.946 2.34926 -4.47933 0
M  V30 8909 C 827.244 3.00742 -3.29348 0
M  V30 8910 C 827.945 2.39862 -5.29944 0
M  V30 8911 N 826.921 2.77163 -4.67634 0
M  V30 8912 H 830.723 1.09567 -2.72713 0
M  V30 8913 H 828.237 0.5109 -1.54154 0
M  V30 8914 H 830.234 3.51265 -2.2454 0
M  V30 8915 H 828.894 3.02754 -1.17346 0
M  V30 8916 H 829.905 2.07403 -4.74557 0
M  V30 8917 H 826.582 3.34434 -2.49921 0
M  V30 8918 H 827.972 2.15835 -6.3629 0
M  V30 8919 N 830.692 1.47107 0.565454 0
M  V30 8920 C 831.639 1.58974 1.6732 0
M  V30 8921 C 832.609 0.433146 1.60353 0
M  V30 8922 O 833.794 0.652141 1.79309 0
M  V30 8923 C 830.934 1.60224 3.05651 0
M  V30 8924 C 830.047 2.86741 3.23116 0
M  V30 8925 C 829.182 2.79381 4.51796 0
M  V30 8926 C 828.221 4.0076 4.62664 0
M  V30 8927 N 827.358 3.91685 5.8269 0
M  V30 8928 H 832.198 2.53588 1.56515 0
M  V30 8929 H 829.735 1.25791 0.762558 0
M  V30 8930 H 831.693 1.58933 3.85741 0
M  V30 8931 H 830.323 0.691285 3.15311 0
M  V30 8932 H 829.375 2.97936 2.36513 0
M  V30 8933 H 830.687 3.7665 3.27011 0
M  V30 8934 H 829.841 2.76293 5.40136 0
M  V30 8935 H 828.58 1.87142 4.50366 0
M  V30 8936 H 827.585 4.04162 3.72738 0
M  V30 8937 H 828.81 4.94117 4.6586 0
M  V30 8938 H 826.756 3.02243 5.82224 0
M  V30 8939 H 826.673 4.75264 5.87929 0
M  V30 8940 H 827.941 3.92599 6.73414 0
M  V30 8941 N 832.17 -0.811516 1.35101 0
M  V30 8942 C 833.419 -1.56343 1.27435 0
M  V30 8943 C 833.732 -1.95019 -0.150696 0
M  V30 8944 O 834.938 -2.6924 -0.349586 0
M  V30 8945 C 833.394 -2.82124 2.23459 0
M  V30 8946 C 833.002 -2.50706 3.71283 0
M  V30 8947 C 834.746 -3.60137 2.24726 0
M  V30 8948 C 832.653 -3.72748 4.59143 0
M  V30 8949 H 831.583 -0.58682 0.473453 0
M  V30 8950 H 834.234 -0.892465 1.60335 0
M  V30 8951 H 832.616 -3.50905 1.83525 0
M  V30 8952 H 833.79 -1.89962 4.19823 0
M  V30 8953 H 832.105 -1.85947 3.72576 0
M  V30 8954 H 834.702 -4.50775 2.87587 0
M  V30 8955 H 835.045 -3.97101 1.24965 0
M  V30 8956 H 835.578 -2.98311 2.63164 0
M  V30 8957 H 832.317 -3.40896 5.59884 0
M  V30 8958 H 831.837 -4.32735 4.15332 0
M  V30 8959 H 833.516 -4.40033 4.74321 0
M  V30 8960 N 833.648 -1.19017 -1.03309 0
M  V30 8961 C 834.611 -0.926076 -2.09658 0
M  V30 8962 C 835.611 0.0917077 -1.60538 0
M  V30 8963 O 836.801 -0.142574 -1.73616 0
M  V30 8964 C 833.933 -0.390958 -3.38651 0
M  V30 8965 H 835.126 -1.86923 -2.3452 0
M  V30 8966 H 832.679 -1.00325 -1.19853 0
M  V30 8967 H 833.414 0.558446 -3.19456 0
M  V30 8968 H 833.199 -1.12474 -3.75622 0
M  V30 8969 H 834.689 -0.225131 -4.16993 0
M  V30 8970 N 835.127 1.22348 -0.993418 0
M  V30 8971 C 836.037 2.27987 -0.553076 0
M  V30 8972 C 837.053 1.69378 0.398386 0
M  V30 8973 O 838.229 1.99648 0.26509 0
M  V30 8974 C 835.294 3.46475 0.124809 0
M  V30 8975 C 834.355 4.20399 -0.869682 0
M  V30 8976 C 833.588 5.33229 -0.224052 0
M  V30 8977 O 833.811 5.61885 0.981915 0
M  V30 8978 O 832.745 5.94685 -0.929174 0
M  V30 8979 H 836.571 2.67822 -1.43195 0
M  V30 8980 H 834.156 1.28525 -0.761694 0
M  V30 8981 H 836.038 4.18369 0.504496 0
M  V30 8982 H 834.713 3.08565 0.978243 0
M  V30 8983 H 833.62 3.50774 -1.30031 0
M  V30 8984 H 834.953 4.62191 -1.69233 0
M  V30 8985 N 836.605 0.766683 1.37694 0
M  V30 8986 C 838.021 0.445739 1.53249 0
M  V30 8987 C 838.221 -1.03935 1.72626 0
M  V30 8988 O 837.277 -1.82525 1.74473 0
M  V30 8989 C 838.59 1.2564 2.73194 0
M  V30 8990 C 840.138 1.24779 2.87053 0
M  V30 8991 C 840.613 2.04169 4.09974 0
M  V30 8992 N 842.104 2.01497 4.17077 0
M  V30 8993 C 842.839 2.5971 5.11212 0
M  V30 8994 N 842.335 3.26691 6.10938 0
M  V30 8995 N 844.128 2.49568 5.03659 0
M  V30 8996 H 836.279 1.72899 1.23368 0
M  V30 8997 H 838.542 0.733701 0.600322 0
M  V30 8998 H 838.248 2.30859 2.65324 0
M  V30 8999 H 838.122 0.882133 3.6674 0
M  V30 9000 H 840.509 0.203603 2.94397 0
M  V30 9001 H 840.59 1.66166 1.9448 0
M  V30 9002 H 840.234 3.08606 4.03392 0
M  V30 9003 H 840.164 1.60167 5.01651 0
M  V30 9004 H 842.655 1.52728 3.45662 0
M  V30 9005 H 842.968 3.68497 6.79286 0
M  V30 9006 H 841.313 3.30789 6.11231 0
M  V30 9007 H 844.504 1.96859 4.24693 0
M  V30 9008 H 844.677 2.95231 5.76839 0
M  V30 9009 N 838.083 -1.48885 0.516809 0
M  V30 9010 C 839.013 -2.32241 -0.242157 0
M  V30 9011 C 839.994 -1.41258 -0.947633 0
M  V30 9012 O 841.179 -1.70156 -0.935973 0
M  V30 9013 C 838.309 -3.22151 -1.29754 0
M  V30 9014 C 837.263 -4.22053 -0.710995 0
M  V30 9015 C 836.589 -5.01007 -1.86806 0
M  V30 9016 C 837.889 -5.21388 0.30853 0
M  V30 9017 H 839.583 -2.95943 0.453651 0
M  V30 9018 H 837.129 -1.42316 0.219612 0
M  V30 9019 H 839.082 -3.79284 -1.83634 0
M  V30 9020 H 837.806 -2.56423 -2.02274 0
M  V30 9021 H 836.465 -3.66087 -0.193819 0
M  V30 9022 H 836.113 -4.31713 -2.58133 0
M  V30 9023 H 835.813 -5.68615 -1.48159 0
M  V30 9024 H 837.337 -5.60989 -2.4109 0
M  V30 9025 H 838.751 -5.73122 -0.142703 0
M  V30 9026 H 837.148 -5.96975 0.611673 0
M  V30 9027 H 838.218 -4.69329 1.21894 0
M  V30 9028 N 839.561 -0.251338 -1.55583 0
M  V30 9029 C 840.977 0.103409 -1.59265 0
M  V30 9030 C 841.177 1.56559 -1.26852 0
M  V30 9031 O 840.233 2.31071 -1.01796 0
M  V30 9032 C 841.546 -0.249781 -2.99661 0
M  V30 9033 C 843.094 -0.194442 -3.12395 0
M  V30 9034 C 843.569 -0.521728 -4.55019 0
M  V30 9035 N 845.06 -0.472393 -4.60785 0
M  V30 9036 C 845.795 -0.698737 -5.69127 0
M  V30 9037 N 845.291 -0.988443 -6.85713 0
M  V30 9038 N 847.084 -0.629143 -5.58568 0
M  V30 9039 H 839.235 -1.20484 -1.74921 0
M  V30 9040 H 841.498 -0.485092 -0.814488 0
M  V30 9041 H 841.204 -1.26577 -3.28133 0
M  V30 9042 H 841.078 0.420973 -3.74844 0
M  V30 9043 H 843.465 0.812229 -2.83702 0
M  V30 9044 H 843.546 -0.899111 -2.39478 0
M  V30 9045 H 843.19 -1.52597 -4.84434 0
M  V30 9046 H 843.12 0.204468 -5.26203 0
M  V30 9047 H 845.611 -0.257386 -3.77022 0
M  V30 9048 H 845.924 -1.14846 -7.64219 0
M  V30 9049 H 844.269 -1.02596 -6.87386 0
M  V30 9050 H 847.46 -0.402826 -4.66364 0
M  V30 9051 H 847.633 -0.808935 -6.42931 0
M  V30 9052 N 841.039 1.57585 0.0217189 0
M  V30 9053 C 842.316 1.80779 0.74687 0
M  V30 9054 C 842.696 0.851163 1.9318 0
M  V30 9055 O 842.044 -0.105039 2.28258 0
M  V30 9056 C 842.254 3.28696 1.17302 0
M  V30 9057 C 843.602 3.93871 1.58589 0
M  V30 9058 O 844.626 3.3289 1.2674 0
M  V30 9059 O 843.485 5.01254 2.1773 0
M  V30 9060 H 840.579 0.743666 0.361786 0
M  V30 9061 H 843.125 1.697 -0.00206785 0
M  V30 9062 H 841.897 3.89927 0.327453 0
M  V30 9063 H 841.52 3.44692 1.98174 0
M  V30 9064 N 842.517 -0.29412 1.54831 0
M  V30 9065 C 843.467 -1.36476 1.82643 0
M  V30 9066 C 844.451 -1.45638 0.683984 0
M  V30 9067 O 845.643 -1.49675 0.944801 0
M  V30 9068 C 842.772 -2.72865 2.08326 0
M  V30 9069 C 841.858 -2.67898 3.28773 0
M  V30 9070 N 842.249 -2.32547 4.49172 0
M  V30 9071 C 840.547 -2.98991 3.30939 0
M  V30 9072 C 841.248 -2.37048 5.31209 0
M  V30 9073 N 840.224 -2.74679 4.69097 0
M  V30 9074 H 844.026 -1.08119 2.7329 0
M  V30 9075 H 841.54 -0.502718 1.54423 0
M  V30 9076 H 843.537 -3.5007 2.264 0
M  V30 9077 H 842.197 -3.02127 1.1895 0
M  V30 9078 H 843.208 -2.04883 4.7565 0
M  V30 9079 H 839.885 -3.33104 2.51691 0
M  V30 9080 H 841.275 -2.12457 6.37426 0
M  V30 9081 N 843.995 -1.47404 -0.557645 0
M  V30 9082 C 844.942 -1.59859 -1.66475 0
M  V30 9083 C 845.912 -0.441644 -1.60121 0
M  V30 9084 O 847.097 -0.661641 -1.78961 0
M  V30 9085 C 844.237 -1.61843 -3.04797 0
M  V30 9086 C 843.35 -2.8845 -3.2159 0
M  V30 9087 C 842.485 -2.81773 -4.50308 0
M  V30 9088 C 841.524 -4.03208 -4.60532 0
M  V30 9089 N 840.661 -3.94769 -5.80604 0
M  V30 9090 H 845.501 -2.54415 -1.55168 0
M  V30 9091 H 843.038 -1.26194 -0.755876 0
M  V30 9092 H 844.996 -1.60976 -3.84893 0
M  V30 9093 H 843.626 -0.707997 -3.1494 0
M  V30 9094 H 842.678 -2.99186 -2.34929 0
M  V30 9095 H 843.99 -3.78379 -3.25009 0
M  V30 9096 H 843.144 -2.79153 -5.38663 0
M  V30 9097 H 841.883 -1.89527 -4.49367 0
M  V30 9098 H 840.888 -4.06133 -3.70589 0
M  V30 9099 H 842.113 -4.9658 -4.63233 0
M  V30 9100 H 840.059 -3.05326 -5.80613 0
M  V30 9101 H 839.976 -4.78375 -5.854 0
M  V30 9102 H 841.244 -3.96165 -6.71322 0
M  V30 9103 N 845.473 0.80434 -1.35529 0
M  V30 9104 C 846.403 1.93086 -1.31301 0
M  V30 9105 C 847.384 1.69068 -0.187044 0
M  V30 9106 O 848.569 1.90399 -0.382359 0
M  V30 9107 C 845.699 3.29867 -1.0865 0
M  V30 9108 C 844.653 3.68373 -2.17911 0
M  V30 9109 C 843.979 5.0334 -1.80423 0
M  V30 9110 C 845.279 3.78516 -3.59893 0
M  V30 9111 H 846.973 1.96882 -2.25561 0
M  V30 9112 H 844.519 0.945841 -1.08581 0
M  V30 9113 H 846.472 4.08281 -1.04331 0
M  V30 9114 H 845.196 3.2642 -0.108359 0
M  V30 9115 H 843.855 2.92247 -2.21331 0
M  V30 9116 H 843.503 4.96399 -0.812213 0
M  V30 9117 H 843.203 5.30074 -2.53565 0
M  V30 9118 H 844.727 5.84191 -1.77633 0
M  V30 9119 H 846.141 4.47155 -3.58783 0
M  V30 9120 H 844.538 4.16721 -4.31814 0
M  V30 9121 H 845.608 2.8001 -3.95882 0
M  V30 9122 N 846.951 1.19563 1.02676 0
M  V30 9123 C 847.884 0.878638 2.10607 0
M  V30 9124 C 848.862 -0.165176 1.61759 0
M  V30 9125 O 850.046 -0.041014 1.88455 0
M  V30 9126 C 847.173 0.315347 3.37229 0
M  V30 9127 C 846.219 1.33855 4.04951 0
M  V30 9128 S 847.052 2.89982 4.50189 0
M  V30 9129 C 848.208 2.35202 5.80027 0
M  V30 9130 H 848.441 1.79268 2.37171 0
M  V30 9131 H 845.974 1.023 1.15646 0
M  V30 9132 H 847.932 -0.00311911 4.105 0
M  V30 9133 H 846.593 -0.577035 3.08754 0
M  V30 9134 H 845.786 0.893581 4.96015 0
M  V30 9135 H 845.388 1.60397 3.37859 0
M  V30 9136 H 847.68 1.74329 6.54687 0
M  V30 9137 H 848.623 3.24622 6.29306 0
M  V30 9138 H 849.031 1.77702 5.35801 0
M  V30 9139 N 848.429 -1.21819 0.999893 0
M  V30 9140 C 849.657 -1.94758 0.698359 0
M  V30 9141 C 850.072 -1.73771 -0.738183 0
M  V30 9142 O 849.429 -1.04113 -1.49889 0
M  V30 9143 C 849.48 -3.47292 1.00353 0
M  V30 9144 O 849.201 -3.67579 2.38363 0
M  V30 9145 C 850.702 -4.37403 0.72068 0
M  V30 9146 H 847.922 -0.619512 0.257771 0
M  V30 9147 H 850.466 -1.54778 1.33656 0
M  V30 9148 H 848.621 -3.85213 0.411018 0
M  V30 9149 H 849.035 -4.61719 2.48829 0
M  V30 9150 H 850.509 -5.43151 0.984422 0
M  V30 9151 H 850.986 -4.3784 -0.345309 0
M  V30 9152 H 851.592 -4.05119 1.29456 0
M  V30 9153 N 849.908 -0.773975 -1.37286 0
M  V30 9154 C 850.871 -0.167974 -2.28584 0
M  V30 9155 C 851.871 0.625662 -1.48129 0
M  V30 9156 O 853.061 0.448924 -1.68316 0
M  V30 9157 C 850.193 0.769364 -3.32105 0
M  V30 9158 H 851.386 -0.972806 -2.83684 0
M  V30 9159 H 848.939 -0.542335 -1.46589 0
M  V30 9160 H 849.674 1.59912 -2.82132 0
M  V30 9161 H 849.459 0.202419 -3.91577 0
M  V30 9162 H 850.949 1.18872 -4.00324 0
M  V30 9163 N 851.386 1.48609 -0.524698 0
M  V30 9164 C 852.633 2.02497 0.0113214 0
M  V30 9165 C 852.961 1.40229 1.34781 0
M  V30 9166 O 852.216 0.53557 1.88229 0
M  V30 9167 C 852.515 3.56906 0.187873 0
M  V30 9168 C 852.181 4.37932 -1.07359 0
M  V30 9169 C 850.843 4.59792 -1.41933 0
M  V30 9170 C 853.195 4.84902 -1.911 0
M  V30 9171 C 850.523 5.25868 -2.60154 0
M  V30 9172 C 852.875 5.52281 -3.08495 0
M  V30 9173 C 851.539 5.7238 -3.4342 0
M  V30 9174 H 850.809 0.740988 0.0041428 0
M  V30 9175 H 853.456 1.78651 -0.689652 0
M  V30 9176 H 851.761 3.79563 0.971572 0
M  V30 9177 H 853.458 3.96218 0.617443 0
M  V30 9178 H 850.048 4.21175 -0.794331 0
M  V30 9179 H 854.232 4.67821 -1.65701 0
M  V30 9180 H 849.488 5.39628 -2.87422 0
M  V30 9181 H 853.662 5.87645 -3.73692 0
M  V30 9182 H 851.289 6.23354 -4.35126 0
M  V30 9183 N 852.864 0.259585 1.55447 0
M  V30 9184 C 853.827 -0.621359 2.20617 0
M  V30 9185 C 854.827 -1.09317 1.17925 0
M  V30 9186 O 856.017 -0.995842 1.42929 0
M  V30 9187 C 853.149 -1.85546 2.85982 0
M  V30 9188 H 854.342 -0.0525833 2.99854 0
M  V30 9189 H 851.895 0.0101055 1.56297 0
M  V30 9190 H 852.63 -2.46515 2.10715 0
M  V30 9191 H 852.415 -1.52523 3.61219 0
M  V30 9192 H 853.905 -2.48227 3.35817 0
M  V30 9193 N 854.342 -1.57594 -0.0133615 0
M  V30 9194 C 855.753 -1.78168 -0.557937 0
M  V30 9195 C 856.104 -0.892616 -1.74719 0
M  V30 9196 O 855.229 -0.0915491 -2.16206 0
M  V30 9197 C 855.824 -3.23115 -1.01894 0
M  V30 9198 C 854.383 -3.44831 -1.50892 0
M  V30 9199 C 853.53 -2.73558 -0.454044 0
M  V30 9200 H 856.481 -1.57266 0.212843 0
M  V30 9201 H 856.502 -3.30493 -1.8856 0
M  V30 9202 H 856.014 -3.87798 -0.153175 0
M  V30 9203 H 854.115 -2.85345 -2.39602 0
M  V30 9204 H 854.228 -4.53485 -1.54559 0
M  V30 9205 H 852.592 -2.37787 -0.912666 0
M  V30 9206 H 853.375 -3.40932 0.402524 0
M  V30 9207 N 855.82 0.285905 -1.54985 0
M  V30 9208 C 857.05 1.03626 -1.78732 0
M  V30 9209 C 857.458 1.80896 -0.554377 0
M  V30 9210 O 856.801 1.77161 0.48578 0
M  V30 9211 C 856.863 2.05185 -2.95193 0
M  V30 9212 C 856.527 1.46973 -4.32722 0
M  V30 9213 C 857.524 0.891986 -5.12191 0
M  V30 9214 C 855.209 1.50081 -4.79355 0
M  V30 9215 C 857.203 0.353078 -6.36421 0
M  V30 9216 C 854.89 0.958037 -6.03544 0
M  V30 9217 C 855.888 0.385157 -6.81913 0
M  V30 9218 O 855.576 -0.149341 -8.03761 0
M  V30 9219 H 855.308 0.312416 -0.599477 0
M  V30 9220 H 857.862 0.326067 -2.02795 0
M  V30 9221 H 856.092 2.79928 -2.66791 0
M  V30 9222 H 857.781 2.66244 -3.0638 0
M  V30 9223 H 858.547 0.860762 -4.77301 0
M  V30 9224 H 854.426 1.9361 -4.18373 0
M  V30 9225 H 857.97 -0.0947181 -6.97536 0
M  V30 9226 H 853.867 0.986458 -6.37918 0
M  V30 9227 H 854.635 -0.0374719 -8.18491 0
M  V30 9228 N 857.298 1.47698 0.54982 0
M  V30 9229 C 858.246 1.61156 1.67724 0
M  V30 9230 C 859.24 0.478606 1.62498 0
M  V30 9231 O 860.446 0.656661 1.67595 0
M  V30 9232 H 856.821 0.507304 0.55511 0
M  V30 9233 H 858.792 2.55884 1.53512 0
M  V30 9234 C 857.541 1.64994 3.06059 0
M  V30 9235 H 856.864 2.51525 3.10765 0
M  V30 9236 H 858.304 1.78459 3.84615 0
M  V30 9237 C 856.763 0.384677 3.34697 0
M  V30 9238 O 857.293 -0.511057 3.98436 0
M  V30 9239 N 855.499 0.262434 2.89413 0
M  V30 9240 H 855.046 0.99229 2.37721 0
M  V30 9241 H 855.004 -0.583177 3.08944 0
M  V30 9242 N 858.776 -0.797141 1.35954 0
M  V30 9243 C 859.724 -1.93084 1.29697 0
M  V30 9244 C 860.718 -1.68329 0.190152 0
M  V30 9245 O 861.924 -1.7643 0.3567 0
M  V30 9246 H 858.299 -0.634531 0.403577 0
M  V30 9247 H 860.27 -1.95481 2.25455 0
M  V30 9248 C 859.019 -3.29996 1.09536 0
M  V30 9249 H 858.342 -3.49607 1.93946 0
M  V30 9250 H 859.782 -4.09696 1.09202 0
M  V30 9251 C 858.241 -3.36304 -0.200381 0
M  V30 9252 O 858.771 -3.83579 -1.19291 0
M  V30 9253 N 856.977 -2.89587 -0.242406 0
M  V30 9254 H 856.524 -2.51307 0.565897 0
M  V30 9255 H 856.482 -2.94189 -1.10906 0
M  V30 9256 N 860.254 -1.20106 -1.0204 0
M  V30 9257 C 861.665 -1.00992 -1.57027 0
M  V30 9258 C 862.016 0.434782 -1.91322 0
M  V30 9259 O 861.141 1.31557 -1.71819 0
M  V30 9260 C 861.736 -1.82697 -2.85319 0
M  V30 9261 C 860.295 -1.67959 -3.36848 0
M  V30 9262 C 859.442 -1.80868 -2.10195 0
M  V30 9263 H 862.393 -1.34354 -0.844676 0
M  V30 9264 H 862.414 -1.32809 -3.5657 0
M  V30 9265 H 861.926 -2.87839 -2.60328 0
M  V30 9266 H 860.027 -0.654389 -3.66809 0
M  V30 9267 H 860.14 -2.49006 -4.09308 0
M  V30 9268 H 858.504 -1.24015 -2.22469 0
M  V30 9269 H 859.287 -2.87486 -1.87635 0
M  V30 9270 N 861.732 1.21287 -1.00634 0
M  V30 9271 C 862.664 2.2308 -0.526094 0
M  V30 9272 C 863.677 1.58157 0.386031 0
M  V30 9273 O 864.866 1.77528 0.186016 0
M  V30 9274 C 861.966 3.37937 0.255289 0
M  V30 9275 C 861.139 4.32449 -0.656236 0
M  V30 9276 C 860.198 5.26145 0.0757714 0
M  V30 9277 O 859.224 5.66601 -0.543325 0
M  V30 9278 N 860.426 5.6449 1.35391 0
M  V30 9279 H 863.191 2.64913 -1.40147 0
M  V30 9280 H 860.752 1.35724 -0.882641 0
M  V30 9281 H 862.744 3.97614 0.753977 0
M  V30 9282 H 861.314 2.95078 1.03187 0
M  V30 9283 H 860.534 3.70892 -1.3354 0
M  V30 9284 H 861.822 4.92526 -1.27653 0
M  V30 9285 H 861.22 5.33617 1.878 0
M  V30 9286 H 859.777 6.26524 1.79753 0
M  V30 9287 N 863.21 0.781244 1.36873 0
M  V30 9288 C 864.456 0.350407 1.9975 0
M  V30 9289 C 864.789 -1.07293 1.6187 0
M  V30 9290 O 864.064 -1.73983 0.869491 0
M  V30 9291 C 864.347 0.504834 3.56544 0
M  V30 9292 C 864.2 1.97127 4.04303 0
M  V30 9293 C 865.519 -0.0851272 4.40018 0
M  V30 9294 H 862.638 0.128794 0.725659 0
M  V30 9295 H 865.28 0.98606 1.6241 0
M  V30 9296 H 863.43 -0.0363006 3.88483 0
M  V30 9297 H 865.102 2.57284 3.82887 0
M  V30 9298 H 863.345 2.47676 3.56145 0
M  V30 9299 H 864.016 2.03033 5.13305 0
M  V30 9300 H 866.492 0.376704 4.14391 0
M  V30 9301 H 865.368 0.0530015 5.48874 0
M  V30 9302 H 865.629 -1.17642 4.2616 0
M  V30 9303 N 864.689 -1.48329 0.532571 0
M  V30 9304 C 865.652 -2.2816 -0.218069 0
M  V30 9305 C 866.652 -1.35526 -0.865409 0
M  V30 9306 O 867.842 -1.58394 -0.725061 0
M  V30 9307 C 864.974 -3.1448 -1.31586 0
M  V30 9308 H 866.167 -2.95987 0.482865 0
M  V30 9309 H 863.72 -1.53612 0.288603 0
M  V30 9310 H 864.455 -2.5129 -2.04997 0
M  V30 9311 H 864.24 -3.82625 -0.856779 0
M  V30 9312 H 865.73 -3.74693 -1.84377 0
M  V30 9313 N 866.167 -0.267825 -1.55308 0
M  V30 9314 C 867.413 0.351556 -1.9973 0
M  V30 9315 C 867.746 1.56049 -1.15596 0
M  V30 9316 O 867.021 1.93203 -0.224274 0
M  V30 9317 C 867.304 0.74091 -3.52395 0
M  V30 9318 C 867.157 -0.474861 -4.47286 0
M  V30 9319 C 868.476 1.5801 -4.10756 0
M  V30 9320 H 865.595 0.126308 -0.726096 0
M  V30 9321 H 868.237 -0.373316 -1.86296 0
M  V30 9322 H 866.387 1.35851 -3.63973 0
M  V30 9323 H 868.059 -1.1134 -4.47662 0
M  V30 9324 H 866.302 -1.11425 -4.19246 0
M  V30 9325 H 866.973 -0.158782 -5.51772 0
M  V30 9326 H 869.449 1.05857 -4.0241 0
M  V30 9327 H 868.325 1.82135 -5.17801 0
M  V30 9328 H 868.586 2.55878 -3.60526 0
M  V30 9329 N 867.645 1.57599 0.00500368 0
M  V30 9330 C 868.608 2.07058 0.982832 0
M  V30 9331 C 869.608 0.979045 1.27559 0
M  V30 9332 O 870.798 1.24187 1.22161 0
M  V30 9333 C 867.93 2.50782 2.30914 0
M  V30 9334 H 869.123 2.94718 0.555119 0
M  V30 9335 H 866.676 1.54249 0.25237 0
M  V30 9336 H 867.411 1.66351 2.78385 0
M  V30 9337 H 867.196 3.30495 2.10987 0
M  V30 9338 H 868.686 2.89391 3.0107 0
M  V30 9339 N 869.123 -0.277682 1.55134 0
M  V30 9340 C 870.056 -1.3685 1.82612 0
M  V30 9341 C 871.034 -1.47752 0.678833 0
M  V30 9342 O 872.218 -1.6445 0.921329 0
M  V30 9343 C 869.345 -2.74539 1.98359 0
M  V30 9344 C 868.391 -2.80945 3.20893 0
M  V30 9345 S 869.224 -2.40666 4.78373 0
M  V30 9346 C 870.38 -3.80338 4.97085 0
M  V30 9347 H 870.613 -1.13338 2.74849 0
M  V30 9348 H 868.146 -0.477063 1.46845 0
M  V30 9349 H 870.104 -3.53834 2.08115 0
M  V30 9350 H 868.765 -2.95306 1.07019 0
M  V30 9351 H 867.958 -3.81992 3.28783 0
M  V30 9352 H 867.56 -2.09667 3.09703 0
M  V30 9353 H 869.852 -4.75565 4.8254 0
M  V30 9354 H 870.795 -3.77403 5.99143 0
M  V30 9355 H 871.203 -3.71424 4.25094 0
M  V30 9356 N 870.601 -1.47988 -0.541979 0
M  V30 9357 C 871.85 -1.5465 -1.29485 0
M  V30 9358 C 872.163 -0.220041 -1.94358 0
M  V30 9359 O 873.369 -0.164792 -2.70999 0
M  V30 9360 C 871.825 -2.72685 -2.34885 0
M  V30 9361 C 871.433 -4.11923 -1.76134 0
M  V30 9362 C 873.177 -2.88651 -3.11257 0
M  V30 9363 C 871.084 -5.21237 -2.79404 0
M  V30 9364 H 870.014 -0.575688 -0.486928 0
M  V30 9365 H 872.665 -1.74296 -0.573853 0
M  V30 9366 H 871.047 -2.46448 -3.09966 0
M  V30 9367 H 872.221 -4.48128 -1.07322 0
M  V30 9368 H 870.536 -4.00972 -1.12295 0
M  V30 9369 H 873.133 -3.67487 -3.88404 0
M  V30 9370 H 873.476 -1.97658 -3.66384 0
M  V30 9371 H 874.009 -3.14731 -2.43288 0
M  V30 9372 H 870.748 -6.14156 -2.29113 0
M  V30 9373 H 870.268 -4.89533 -3.4658 0
M  V30 9374 H 871.947 -5.48839 -3.42615 0
M  V30 9375 N 872.079 0.78992 -1.36375 0
M  V30 9376 C 873.009 1.91683 -1.33341 0
M  V30 9377 C 873.99 1.68861 -0.204965 0
M  V30 9378 O 875.175 1.89982 -0.402531 0
M  V30 9379 C 872.305 3.28696 -1.12143 0
M  V30 9380 C 871.259 3.66041 -2.21806 0
M  V30 9381 C 870.585 5.01399 -1.85751 0
M  V30 9382 C 871.885 3.74677 -3.63888 0
M  V30 9383 H 873.579 1.94478 -2.27637 0
M  V30 9384 H 871.125 0.934271 -1.09578 0
M  V30 9385 H 873.078 4.07151 -1.08656 0
M  V30 9386 H 871.802 3.26287 -0.142974 0
M  V30 9387 H 870.461 2.89883 -2.24418 0
M  V30 9388 H 870.109 4.9551 -0.864817 0
M  V30 9389 H 869.809 5.27355 -2.59173 0
M  V30 9390 H 871.333 5.82274 -1.83819 0
M  V30 9391 H 872.747 4.43324 -3.63506 0
M  V30 9392 H 871.144 4.12118 -4.3621 0
M  V30 9393 H 872.214 2.75795 -3.9883 0
M  V30 9394 N 873.557 1.20646 1.01402 0
M  V30 9395 C 874.467 0.973385 2.13453 0
M  V30 9396 C 875.483 -0.0715865 1.73853 0
M  V30 9397 O 876.659 0.116438 2.01063 0
M  V30 9398 C 873.724 0.531285 3.42605 0
M  V30 9399 C 872.785 1.64741 3.96433 0
M  V30 9400 C 872.018 1.22631 5.1942 0
M  V30 9401 O 872.241 0.0960891 5.70319 0
M  V30 9402 O 871.175 2.03474 5.66465 0
M  V30 9403 H 875.001 1.91164 2.35987 0
M  V30 9404 H 872.586 0.990553 1.11841 0
M  V30 9405 H 874.468 0.294095 4.20373 0
M  V30 9406 H 873.143 -0.378358 3.21481 0
M  V30 9407 H 872.05 1.93891 3.19933 0
M  V30 9408 H 873.383 2.53415 4.2195 0
M  V30 9409 N 875.035 -1.20752 1.01276 0
M  V30 9410 C 875.983 -2.25432 0.572989 0
M  V30 9411 C 876.977 -1.64935 -0.386354 0
M  V30 9412 O 878.183 -1.7816 -0.256696 0
M  V30 9413 H 874.558 -0.733229 0.166972 0
M  V30 9414 H 876.529 -2.59856 1.46687 0
M  V30 9415 C 875.278 -3.47615 -0.0768249 0
M  V30 9416 H 874.601 -3.94442 0.652354 0
M  V30 9417 H 876.041 -4.22572 -0.3477 0
M  V30 9418 C 874.5 -3.1003 -1.31845 0
M  V30 9419 O 875.03 -3.21216 -2.41211 0
M  V30 9420 N 873.236 -2.64616 -1.20111 0
M  V30 9421 H 872.783 -2.55714 -0.311184 0
M  V30 9422 H 872.741 -2.39838 -2.03286 0
M  V30 9423 N 876.513 -0.788492 -1.36457 0
M  V30 9424 C 877.761 -0.359749 -1.98872 0
M  V30 9425 C 878.082 1.07197 -1.62892 0
M  V30 9426 O 877.352 1.73875 -0.902463 0
M  V30 9427 H 875.932 -0.130029 -0.735596 0
M  V30 9428 H 878.594 -1.01033 -1.66668 0
M  V30 9429 H 877.69 -0.450835 -3.08827 0
M  V30 9430 N 877.991 1.48044 -0.54043 0
M  V30 9431 C 879.239 2.02097 -0.0101367 0
M  V30 9432 C 879.56 1.41881 1.33771 0
M  V30 9433 O 878.83 0.587923 1.8687 0
M  V30 9434 H 877.41 0.747 -0.000758716 0
M  V30 9435 H 880.072 1.81639 -0.706634 0
M  V30 9436 H 879.168 3.11969 0.0904474 0
M  V30 9437 N 879.47 0.276058 1.55163 0
M  V30 9438 C 880.433 -0.597924 2.21263 0
M  V30 9439 C 881.433 -1.0806 1.19078 0
M  V30 9440 O 882.623 -0.980626 1.43977 0
M  V30 9441 C 879.755 -1.82503 2.87933 0
M  V30 9442 H 880.948 -0.0207769 2.99893 0
M  V30 9443 H 878.501 0.0266823 1.56277 0
M  V30 9444 H 879.236 -2.44266 2.13318 0
M  V30 9445 H 879.021 -1.48683 3.62816 0
M  V30 9446 H 880.511 -2.44651 3.38431 0
M  V30 9447 N 880.948 -1.576 0.00335426 0
M  V30 9448 C 882.196 -1.90336 -0.679446 0
M  V30 9449 C 882.517 -0.877777 -1.74127 0
M  V30 9450 O 881.787 0.0843585 -1.95718 0
M  V30 9451 H 880.367 -0.702509 -0.253948 0
M  V30 9452 H 883.029 -1.94848 0.0450731 0
M  V30 9453 H 882.125 -2.90197 -1.14857 0
M  V30 9454 N 882.426 0.269451 -1.5528 0
M  V30 9455 C 883.837 0.840233 -1.66724 0
M  V30 9456 C 884.188 1.86909 -0.596621 0
M  V30 9457 O 883.313 2.14817 0.261246 0
M  V30 9458 C 883.908 1.5308 -3.02245 0
M  V30 9459 C 882.467 2.04957 -3.15705 0
M  V30 9460 C 881.614 0.892838 -2.62533 0
M  V30 9461 H 884.565 0.0457236 -1.58634 0
M  V30 9462 H 884.586 2.39792 -2.95432 0
M  V30 9463 H 884.098 0.781741 -3.80145 0
M  V30 9464 H 882.199 2.82813 -2.42585 0
M  V30 9465 H 882.312 2.26244 -4.22316 0
M  V30 9466 H 880.676 1.28719 -2.19781 0
M  V30 9467 H 881.459 0.157229 -3.4294 0
M  V30 9468 N 883.904 1.48273 0.534124 0
M  V30 9469 C 884.867 1.6201 1.62127 0
M  V30 9470 C 885.867 0.493653 1.53035 0
M  V30 9471 O 887.057 0.759337 1.56779 0
M  V30 9472 C 884.189 1.5864 3.01739 0
M  V30 9473 H 885.382 2.58944 1.51288 0
M  V30 9474 H 882.935 1.36808 0.755861 0
M  V30 9475 H 883.67 0.631685 3.18088 0
M  V30 9476 H 883.455 2.40415 3.09747 0
M  V30 9477 H 884.945 1.71438 3.80787 0
M  V30 9478 N 885.382 -0.782676 1.36792 0
M  V30 9479 C 886.628 -1.54311 1.3159 0
M  V30 9480 C 886.961 -1.93928 -0.102696 0
M  V30 9481 O 886.236 -1.63233 -1.05761 0
M  V30 9482 C 886.519 -2.81561 2.24489 0
M  V30 9483 C 886.372 -2.48268 3.75078 0
M  V30 9484 C 887.691 -3.83428 2.16034 0
M  V30 9485 H 884.81 -0.559828 0.479335 0
M  V30 9486 H 887.452 -0.898717 1.67401 0
M  V30 9487 H 885.602 -3.36549 1.9408 0
M  V30 9488 H 887.274 -1.99279 4.16036 0
M  V30 9489 H 885.517 -1.81116 3.94182 0
M  V30 9490 H 886.188 -3.39183 4.35499 0
M  V30 9491 H 888.664 -3.37905 2.42815 0
M  V30 9492 H 887.54 -4.70204 2.83194 0
M  V30 9493 H 887.801 -4.26887 1.14976 0
M  V30 9494 N 886.86 -1.21182 -1.00761 0
M  V30 9495 C 888.108 -1.02543 -1.74153 0
M  V30 9496 C 888.429 0.442372 -1.89916 0
M  V30 9497 O 887.699 1.31927 -1.44818 0
M  V30 9498 H 886.279 -0.37644 -0.645214 0
M  V30 9499 H 888.941 -1.52446 -1.21434 0
M  V30 9500 H 888.037 -1.49122 -2.7417 0
M  V30 9501 N 888.338 1.20213 -1.01915 0
M  V30 9502 C 889.566 1.93622 -0.729255 0
M  V30 9503 C 889.981 1.74923 0.710444 0
M  V30 9504 O 889.338 1.06484 1.48214 0
M  V30 9505 C 889.389 3.45651 -1.05865 0
M  V30 9506 O 889.11 3.63741 -2.44181 0
M  V30 9507 C 890.611 4.36201 -0.790176 0
M  V30 9508 H 887.831 0.615333 -0.267594 0
M  V30 9509 H 890.375 1.52633 -1.36101 0
M  V30 9510 H 888.53 3.84511 -0.47225 0
M  V30 9511 H 888.944 4.57702 -2.56143 0
M  V30 9512 H 890.418 5.41516 -1.07071 0
M  V30 9513 H 890.895 4.38334 0.275609 0
M  V30 9514 H 891.501 4.03008 -1.35885 0
M  V30 9515 N 889.816 0.795718 1.36037 0
M  V30 9516 C 890.746 0.212803 2.32528 0
M  V30 9517 C 891.727 -0.655716 1.56953 0
M  V30 9518 O 892.912 -0.588238 1.85077 0
M  V30 9519 C 890.042 -0.648189 3.41198 0
M  V30 9520 C 888.996 0.120948 4.27829 0
M  V30 9521 C 888.322 -0.861044 5.27722 0
M  V30 9522 C 889.622 1.31375 5.05508 0
M  V30 9523 H 891.316 1.01893 2.81528 0
M  V30 9524 H 888.862 0.491422 1.35355 0
M  V30 9525 H 890.815 -1.06597 4.07695 0
M  V30 9526 H 889.539 -1.48709 2.9078 0
M  V30 9527 H 888.198 0.519777 3.62897 0
M  V30 9528 H 887.846 -1.69515 4.73575 0
M  V30 9529 H 887.546 -0.350808 5.86552 0
M  V30 9530 H 889.07 -1.27726 5.97092 0
M  V30 9531 H 890.484 0.971406 5.6501 0
M  V30 9532 H 888.881 1.75772 5.73781 0
M  V30 9533 H 889.951 2.10593 4.36782 0
M  V30 9534 N 891.294 -1.47756 0.548274 0
M  V30 9535 C 892.227 -2.26804 -0.252059 0
M  V30 9536 C 893.205 -1.3349 -0.928389 0
M  V30 9537 O 894.389 -1.6286 -0.949156 0
M  V30 9538 C 891.516 -3.10266 -1.35841 0
M  V30 9539 C 890.562 -4.1909 -0.791578 0
M  V30 9540 S 891.395 -5.34323 0.354878 0
M  V30 9541 C 892.551 -6.21348 -0.753511 0
M  V30 9542 H 892.784 -2.94336 0.418744 0
M  V30 9543 H 890.317 -1.50735 0.334413 0
M  V30 9544 H 892.275 -3.58925 -1.99207 0
M  V30 9545 H 890.936 -2.42112 -2.00101 0
M  V30 9546 H 890.129 -4.77183 -1.62212 0
M  V30 9547 H 889.731 -3.73266 -0.234274 0
M  V30 9548 H 892.023 -6.57156 -1.6478 0
M  V30 9549 H 892.966 -7.07788 -0.210141 0
M  V30 9550 H 893.374 -5.54797 -1.04216 0
M  V30 9551 N 892.772 -0.284283 -1.55015 0
M  V30 9552 C 894.188 0.069603 -1.59448 0
M  V30 9553 C 894.388 1.53833 -1.30144 0
M  V30 9554 O 893.444 2.2886 -1.06674 0
M  V30 9555 C 894.757 -0.313287 -2.99064 0
M  V30 9556 C 896.305 -0.260662 -3.11913 0
M  V30 9557 C 896.78 -0.618127 -4.5381 0
M  V30 9558 N 898.271 -0.570026 -4.59679 0
M  V30 9559 C 899.006 -0.8193 -5.67517 0
M  V30 9560 N 898.502 -1.13367 -6.83462 0
M  V30 9561 N 900.295 -0.747482 -5.57108 0
M  V30 9562 H 892.446 -1.24167 -1.72326 0
M  V30 9563 H 894.709 -0.502259 -0.804015 0
M  V30 9564 H 894.415 -1.33509 -3.25374 0
M  V30 9565 H 894.289 0.341369 -3.75652 0
M  V30 9566 H 896.676 0.751869 -2.85361 0
M  V30 9567 H 896.757 -0.949706 -2.37517 0
M  V30 9568 H 896.401 -1.62839 -4.81088 0
M  V30 9569 H 896.331 0.092807 -5.26518 0
M  V30 9570 H 898.822 -0.3373 -3.76392 0
M  V30 9571 H 899.135 -1.3103 -7.61611 0
M  V30 9572 H 897.48 -1.17154 -6.85055 0
M  V30 9573 H 900.671 -0.501658 -4.65404 0
M  V30 9574 H 900.844 -0.945128 -6.4107 0
M  V30 9575 N 894.251 1.57596 -0.0117121 0
M  V30 9576 C 895.183 2.06025 1.0043 0
M  V30 9577 C 896.196 0.980348 1.29973 0
M  V30 9578 O 897.385 1.25691 1.26744 0
M  V30 9579 C 894.485 2.45514 2.33615 0
M  V30 9580 C 893.658 3.76378 2.22842 0
M  V30 9581 C 892.717 4.02606 3.38814 0
M  V30 9582 O 891.743 4.73108 3.16477 0
M  V30 9583 N 892.945 3.51416 4.62047 0
M  V30 9584 H 895.71 2.93811 0.591206 0
M  V30 9585 H 893.271 1.60947 0.175427 0
M  V30 9586 H 895.263 2.60166 3.09993 0
M  V30 9587 H 893.833 1.63186 2.66625 0
M  V30 9588 H 893.053 3.71691 1.313 0
M  V30 9589 H 894.341 4.62149 2.12829 0
M  V30 9590 H 893.739 2.94346 4.83091 0
M  V30 9591 H 892.296 3.71377 5.35651 0
M  V30 9592 N 895.729 -0.261212 1.5542 0
M  V30 9593 C 896.978 -0.989072 1.75785 0
M  V30 9594 C 897.291 -1.8702 0.572961 0
M  V30 9595 O 898.497 -2.63374 0.659289 0
M  V30 9596 C 896.953 -1.80857 3.11157 0
M  V30 9597 C 896.561 -0.975535 4.3725 0
M  V30 9598 C 898.305 -2.53003 3.40866 0
M  V30 9599 C 896.212 -1.7901 5.63657 0
M  V30 9600 H 895.142 -0.373019 0.655266 0
M  V30 9601 H 897.793 -0.244267 1.81867 0
M  V30 9602 H 896.175 -2.59479 2.99144 0
M  V30 9603 H 897.349 -0.232661 4.60212 0
M  V30 9604 H 895.664 -0.368083 4.1477 0
M  V30 9605 H 898.261 -3.14372 4.32521 0
M  V30 9606 H 898.604 -3.23891 2.61535 0
M  V30 9607 H 899.137 -1.81403 3.54031 0
M  V30 9608 H 895.876 -1.12522 6.4577 0
M  V30 9609 H 895.396 -2.50863 5.44819 0
M  V30 9610 H 897.075 -2.36082 6.0239 0
M  V30 9611 N 897.207 -1.48554 -0.526253 0
M  V30 9612 C 898.137 -1.66252 -1.63959 0
M  V30 9613 C 899.118 -0.511351 -1.62232 0
M  V30 9614 O 900.303 -0.744322 -1.7937 0
M  V30 9615 C 897.433 -1.70556 -3.02536 0
M  V30 9616 C 896.387 -2.8521 -3.19123 0
M  V30 9617 C 895.713 -2.74606 -4.58798 0
M  V30 9618 C 897.013 -4.26463 -3.0154 0
M  V30 9619 H 898.707 -2.59459 -1.49404 0
M  V30 9620 H 896.253 -1.24862 -0.717326 0
M  V30 9621 H 898.206 -1.81524 -3.80298 0
M  V30 9622 H 896.93 -0.739297 -3.18123 0
M  V30 9623 H 895.589 -2.73802 -2.43779 0
M  V30 9624 H 895.237 -1.75941 -4.71226 0
M  V30 9625 H 894.937 -3.51544 -4.70841 0
M  V30 9626 H 896.461 -2.87548 -5.38655 0
M  V30 9627 H 897.875 -4.38685 -3.69091 0
M  V30 9628 H 896.272 -5.04428 -3.25073 0
M  V30 9629 H 897.342 -4.42667 -1.97925 0
M  V30 9630 N 898.685 0.775411 -1.37205 0
M  V30 9631 C 899.962 1.5229 -1.22748 0
M  V30 9632 C 900.342 2.10327 0.180487 0
M  V30 9633 O 899.69 1.95206 1.18772 0
M  V30 9634 C 899.9 2.60671 -2.3206 0
M  V30 9635 C 901.248 3.28173 -2.6942 0
M  V30 9636 O 902.272 2.70963 -2.31208 0
M  V30 9637 O 901.131 4.31598 -3.3524 0
M  V30 9638 H 898.225 0.674326 -0.478762 0
M  V30 9639 H 900.771 0.812691 -1.48975 0
M  V30 9640 H 899.543 2.1588 -3.26361 0
M  V30 9641 H 899.166 3.39296 -2.07277 0
M  V30 9642 N 900.163 1.21714 1.00117 0
M  V30 9643 C 901.113 0.947259 2.07391 0
M  V30 9644 C 902.097 -0.0989662 1.60595 0
M  V30 9645 O 903.289 0.11047 1.76655 0
M  V30 9646 C 900.418 0.517954 3.3937 0
M  V30 9647 C 899.504 1.59846 3.92823 0
M  V30 9648 N 899.895 2.82438 4.19598 0
M  V30 9649 C 898.193 1.46822 4.2114 0
M  V30 9650 C 898.894 3.52247 4.62922 0
M  V30 9651 N 897.87 2.79696 4.66124 0
M  V30 9652 H 901.672 1.8786 2.26022 0
M  V30 9653 H 899.186 1.11344 1.18221 0
M  V30 9654 H 901.183 0.305951 4.15776 0
M  V30 9655 H 899.843 -0.40658 3.22144 0
M  V30 9656 H 900.854 3.18944 4.08038 0
M  V30 9657 H 897.531 0.609259 4.13031 0
M  V30 9658 H 898.921 4.57232 4.9233 0
M  V30 9659 N 901.641 -1.19671 1.02551 0
M  V30 9660 C 902.89 -1.88591 0.715272 0
M  V30 9661 C 903.203 -1.80274 -0.758982 0
M  V30 9662 O 904.409 -2.44413 -1.18213 0
M  V30 9663 C 902.865 -3.38264 1.22905 0
M  V30 9664 C 902.473 -3.55146 2.73084 0
M  V30 9665 C 904.217 -4.12683 0.994649 0
M  V30 9666 C 902.124 -4.98693 3.17897 0
M  V30 9667 H 901.054 -0.706326 0.263857 0
M  V30 9668 H 903.705 -1.35322 1.23936 0
M  V30 9669 H 902.087 -3.9091 0.632892 0
M  V30 9670 H 903.261 -3.12845 3.38326 0
M  V30 9671 H 901.576 -2.94112 2.94766 0
M  V30 9672 H 904.173 -5.18536 1.30478 0
M  V30 9673 H 904.516 -4.16243 -0.0686466 0
M  V30 9674 H 905.049 -3.66164 1.55464 0
M  V30 9675 H 901.788 -5.00293 4.23542 0
M  V30 9676 H 901.308 -5.4177 2.57381 0
M  V30 9677 H 902.987 -5.67327 3.11045 0
M  V30 9678 N 903.119 -0.802921 -1.35613 0
M  V30 9679 C 904.052 -0.156345 -2.27664 0
M  V30 9680 C 905.03 0.675517 -1.47904 0
M  V30 9681 O 906.214 0.643589 -1.77173 0
M  V30 9682 C 903.341 0.78348 -3.29514 0
M  V30 9683 C 902.387 0.0317062 -4.26488 0
M  V30 9684 S 903.22 -1.30183 -5.19435 0
M  V30 9685 C 904.376 -0.366354 -6.24827 0
M  V30 9686 H 904.609 -0.936803 -2.82155 0
M  V30 9687 H 902.142 -0.597799 -1.42358 0
M  V30 9688 H 904.1 1.32023 -3.8869 0
M  V30 9689 H 902.761 1.53729 -2.73909 0
M  V30 9690 H 901.954 0.745364 -4.98458 0
M  V30 9691 H 901.556 -0.43497 -3.71462 0
M  V30 9692 H 903.848 0.44976 -6.76005 0
M  V30 9693 H 904.791 -1.05513 -7.00195 0
M  V30 9694 H 905.199 0.0363203 -5.64488 0
M  V30 9695 N 904.597 1.47463 -0.556102 0
M  V30 9696 C 905.527 2.32801 0.180497 0
M  V30 9697 C 906.508 1.43721 0.909848 0
M  V30 9698 O 907.693 1.72578 0.89053 0
M  V30 9699 C 904.823 3.25478 1.21167 0
M  V30 9700 C 903.777 4.2379 0.598846 0
M  V30 9701 C 903.103 5.05783 1.73457 0
M  V30 9702 C 904.403 5.20387 -0.446659 0
M  V30 9703 H 906.097 2.94636 -0.531956 0
M  V30 9704 H 903.643 1.41683 -0.257267 0
M  V30 9705 H 905.596 3.8402 1.73513 0
M  V30 9706 H 904.32 2.61695 1.95405 0
M  V30 9707 H 902.979 3.66472 0.0966897 0
M  V30 9708 H 902.627 4.38405 2.46596 0
M  V30 9709 H 902.327 5.72343 1.33031 0
M  V30 9710 H 903.851 5.67183 2.26131 0
M  V30 9711 H 905.265 5.73299 -0.00930019 0
M  V30 9712 H 903.662 5.95143 -0.769735 0
M  V30 9713 H 904.732 4.65932 -1.34295 0
M  V30 9714 N 906.075 0.2925 1.54862 0
M  V30 9715 C 907.323 -0.318633 1.99572 0
M  V30 9716 C 907.644 -1.55062 1.1824 0
M  V30 9717 O 906.914 -1.93943 0.276226 0
M  V30 9718 H 905.494 -0.120722 0.737181 0
M  V30 9719 H 908.156 0.401862 1.90712 0
M  V30 9720 H 907.252 -0.596542 3.06346 0
M  V30 9721 N 907.553 -1.57587 0.0200696 0
M  V30 9722 C 908.83 -1.82696 -0.698677 0
M  V30 9723 C 909.21 -0.902082 -1.90855 0
M  V30 9724 O 908.558 0.0444834 -2.28457 0
M  V30 9725 C 908.768 -3.31691 -1.08546 0
M  V30 9726 C 910.116 -3.97938 -1.4809 0
M  V30 9727 O 911.14 -3.36133 -1.17869 0
M  V30 9728 O 909.999 -5.06851 -2.04364 0
M  V30 9729 H 907.093 -0.752997 -0.341942 0
M  V30 9730 H 909.639 -1.69635 0.04706 0
M  V30 9731 H 908.411 -3.90659 -0.223956 0
M  V30 9732 H 908.034 -3.49825 -1.88965 0
M  V30 9733 N 909.032 0.252966 -1.55557 0
M  V30 9734 C 909.98 1.33289 -1.90622 0
M  V30 9735 C 910.974 1.50133 -0.784638 0
M  V30 9736 O 912.18 1.51679 -0.969196 0
M  V30 9737 H 908.555 0.446196 -0.605321 0
M  V30 9738 H 910.526 1.00977 -2.80796 0
M  V30 9739 C 909.275 2.68254 -2.21213 0
M  V30 9740 H 908.598 2.5609 -3.07014 0
M  V30 9741 H 910.038 3.42707 -2.49656 0
M  V30 9742 C 908.497 3.20884 -1.02642 0
M  V30 9743 O 909.027 4.00783 -0.271292 0
M  V30 9744 N 907.233 2.7883 -0.818682 0
M  V30 9745 H 906.78 2.13966 -1.43444 0
M  V30 9746 H 906.738 3.14388 -0.0269989 0
M  V30 9747 N 910.51 1.48831 0.518367 0
M  V30 9748 C 911.458 1.64678 1.64268 0
M  V30 9749 C 912.452 0.512967 1.61447 0
M  V30 9750 O 913.658 0.692063 1.66164 0
M  V30 9751 H 910.033 0.518964 0.544224 0
M  V30 9752 H 912.004 2.59083 1.4805 0
M  V30 9753 C 910.753 1.71449 3.0249 0
M  V30 9754 H 910.076 2.58061 3.0536 0
M  V30 9755 H 911.516 1.86577 3.80743 0
M  V30 9756 C 909.975 0.455584 3.33805 0
M  V30 9757 O 910.505 -0.426428 3.9943 0
M  V30 9758 N 908.711 0.323763 2.88791 0
M  V30 9759 H 908.258 1.04249 2.35563 0
M  V30 9760 H 908.216 -0.517514 3.10112 0
M  V30 9761 N 911.988 -0.768124 1.37614 0
M  V30 9762 C 913.216 -1.55726 1.36224 0
M  V30 9763 C 913.631 -1.8873 -0.0515357 0
M  V30 9764 O 912.988 -1.51718 -1.0143 0
M  V30 9765 C 913.039 -2.86533 2.20412 0
M  V30 9766 O 912.76 -2.54942 3.56281 0
M  V30 9767 C 914.261 -3.80745 2.27041 0
M  V30 9768 H 911.481 -0.482325 0.46648 0
M  V30 9769 H 914.025 -0.95176 1.81002 0
M  V30 9770 H 912.18 -3.43496 1.79134 0
M  V30 9771 H 912.594 -3.38732 4.00451 0
M  V30 9772 H 914.068 -4.69523 2.90263 0
M  V30 9773 H 914.545 -4.20138 1.27987 0
M  V30 9774 H 915.151 -3.2971 2.68647 0
M  V30 9775 N 913.466 -1.22244 -0.994698 0
M  V30 9776 C 914.743 -0.954459 -1.70732 0
M  V30 9777 C 915.123 0.530945 -2.04314 0
M  V30 9778 O 914.471 1.49851 -1.72502 0
M  V30 9779 C 914.681 -1.85016 -2.95922 0
M  V30 9780 C 916.029 -2.10517 -3.68738 0
M  V30 9781 O 917.053 -1.82449 -3.05926 0
M  V30 9782 O 915.912 -2.58044 -4.81742 0
M  V30 9783 H 913.006 -0.35879 -0.745116 0
M  V30 9784 H 915.552 -1.33221 -1.0512 0
M  V30 9785 H 914.324 -2.85498 -2.67594 0
M  V30 9786 H 913.947 -1.47388 -3.69273 0
M  V30 9787 N 914.944 1.19125 -1.03184 0
M  V30 9788 C 915.874 2.24675 -0.635889 0
M  V30 9789 C 916.855 1.66321 0.356565 0
M  V30 9790 O 918.04 1.92728 0.238625 0
M  V30 9791 C 915.17 3.47298 0.011069 0
M  V30 9792 C 914.124 4.18345 -0.903979 0
M  V30 9793 C 913.45 5.34561 -0.12197 0
M  V30 9794 C 914.75 4.72816 -2.21907 0
M  V30 9795 H 916.444 2.5805 -1.51825 0
M  V30 9796 H 913.99 1.24039 -0.73146 0
M  V30 9797 H 915.943 4.20333 0.299729 0
M  V30 9798 H 914.667 3.13131 0.928245 0
M  V30 9799 H 913.326 3.47196 -1.17688 0
M  V30 9800 H 912.974 4.9664 0.797334 0
M  V30 9801 H 912.674 5.83029 -0.731498 0
M  V30 9802 H 914.198 6.10391 0.159881 0
M  V30 9803 H 915.612 5.3759 -1.99173 0
M  V30 9804 H 914.009 5.31782 -2.78078 0
M  V30 9805 H 915.079 3.9072 -2.87168 0
M  V30 9806 N 916.422 0.810101 1.35185 0
M  V30 9807 C 917.833 0.452616 1.81131 0
M  V30 9808 C 918.184 -1.02573 1.67252 0
M  V30 9809 O 917.309 -1.79735 1.20516 0
M  V30 9810 C 917.904 0.814775 3.28857 0
M  V30 9811 C 916.463 0.509839 3.72931 0
M  V30 9812 C 915.61 1.03852 2.57119 0
M  V30 9813 H 918.561 1.00143 1.23114 0
M  V30 9814 H 918.582 0.113635 3.8033 0
M  V30 9815 H 918.094 1.89078 3.38926 0
M  V30 9816 H 916.195 -0.557289 3.68409 0
M  V30 9817 H 916.308 1.04493 4.67566 0
M  V30 9818 H 914.672 0.460671 2.50499 0
M  V30 9819 H 915.455 2.12071 2.69964 0
M  V30 9820 N 917.9 -1.47166 0.563914 0
M  V30 9821 C 918.863 -2.28571 -0.169624 0
M  V30 9822 C 919.863 -1.37331 -0.836467 0
M  V30 9823 O 921.053 -1.59896 -0.6913 0
M  V30 9824 C 918.185 -3.17201 -1.24886 0
M  V30 9825 H 919.378 -2.94896 0.545539 0
M  V30 9826 H 916.931 -1.52966 0.321121 0
M  V30 9827 H 917.666 -2.55582 -1.99621 0
M  V30 9828 H 917.451 -3.84356 -0.775426 0
M  V30 9829 H 918.941 -3.7852 -1.76388 0
M  V30 9830 N 919.378 -0.300708 -1.54705 0
M  V30 9831 C 920.288 0.584996 -2.27189 0
M  V30 9832 C 921.304 1.14866 -1.30697 0
M  V30 9833 O 922.48 1.17351 -1.63679 0
M  V30 9834 C 919.545 1.74076 -2.99831 0
M  V30 9835 C 918.606 1.2112 -4.1186 0
M  V30 9836 C 917.839 2.31188 -4.81028 0
M  V30 9837 O 918.062 3.5108 -4.49554 0
M  V30 9838 O 916.996 1.97897 -5.68437 0
M  V30 9839 H 920.822 -0.00298177 -3.037 0
M  V30 9840 H 918.407 -0.0671802 -1.49249 0
M  V30 9841 H 920.289 2.41413 -3.45395 0
M  V30 9842 H 918.964 2.31535 -2.26215 0
M  V30 9843 H 917.871 0.50357 -3.70695 0
M  V30 9844 H 919.204 0.682046 -4.87452 0
M  V30 9845 N 920.856 1.57574 -0.0284266 0
M  V30 9846 C 921.804 2.11332 0.971675 0
M  V30 9847 C 922.798 1.03974 1.33738 0
M  V30 9848 O 924.004 1.22409 1.31969 0
M  V30 9849 H 920.379 0.675174 0.331125 0
M  V30 9850 H 922.35 2.943 0.49296 0
M  V30 9851 C 921.099 2.65496 2.24516 0
M  V30 9852 H 920.422 3.47753 1.9725 0
M  V30 9853 H 921.862 3.06757 2.92705 0
M  V30 9854 C 920.321 1.58207 2.97443 0
M  V30 9855 O 920.851 0.981496 3.89525 0
M  V30 9856 N 919.057 1.30269 2.59766 0
M  V30 9857 H 918.604 1.79294 1.84963 0
M  V30 9858 H 918.562 0.587085 3.0887 0
M  V30 9859 N 922.334 -0.244713 1.55689 0
M  V30 9860 C 923.745 -0.813603 1.6804 0
M  V30 9861 C 924.096 -1.85936 0.626281 0
M  V30 9862 O 923.221 -2.15206 -0.227038 0
M  V30 9863 C 923.816 -1.48252 3.04642 0
M  V30 9864 C 922.375 -1.99908 3.18926 0
M  V30 9865 C 921.522 -0.850958 2.6392 0
M  V30 9866 H 924.473 -0.0204805 1.58687 0
M  V30 9867 H 924.494 -2.35062 2.99209 0
M  V30 9868 H 924.006 -0.721164 3.81341 0
M  V30 9869 H 922.107 -2.78918 2.47054 0
M  V30 9870 H 922.22 -2.19497 4.25862 0
M  V30 9871 H 920.584 -1.25206 2.21801 0
M  V30 9872 H 921.367 -0.10265 3.43146 0
M  V30 9873 N 923.813 -1.49104 -0.510467 0
M  V30 9874 C 924.776 -1.64569 -1.59529 0
M  V30 9875 C 925.776 -0.517937 -1.5223 0
M  V30 9876 O 926.966 -0.784183 -1.55551 0
M  V30 9877 C 924.098 -1.6342 -2.99177 0
M  V30 9878 H 925.291 -2.61318 -1.4715 0
M  V30 9879 H 922.844 -1.37993 -0.734001 0
M  V30 9880 H 923.579 -0.68221 -3.17043 0
M  V30 9881 H 923.364 -2.45312 -3.05883 0
M  V30 9882 H 924.854 -1.77474 -3.78011 0
M  V30 9883 N 925.291 0.760815 -1.38019 0
M  V30 9884 C 926.537 1.52198 -1.34028 0
M  V30 9885 C 926.87 1.94067 0.0718309 0
M  V30 9886 O 926.145 1.64895 1.0315 0
M  V30 9887 C 926.428 2.77954 -2.2894 0
M  V30 9888 C 926.281 2.42269 -3.7898 0
M  V30 9889 C 927.6 3.79943 -2.22107 0
M  V30 9890 H 924.719 0.552131 -0.488181 0
M  V30 9891 H 927.361 0.871971 -1.6881 0
M  V30 9892 H 925.511 3.33419 -1.9941 0
M  V30 9893 H 927.183 1.92635 -4.19153 0
M  V30 9894 H 925.426 1.74822 -3.97014 0
M  V30 9895 H 926.097 3.32211 -4.4084 0
M  V30 9896 H 928.573 3.34 -2.4816 0
M  V30 9897 H 927.449 4.6564 -2.90639 0
M  V30 9898 H 927.71 4.25004 -1.21753 0
M  V30 9899 N 926.769 1.22769 0.988202 0
M  V30 9900 C 927.732 1.00325 2.06076 0
M  V30 9901 C 928.732 -0.0320618 1.60768 0
M  V30 9902 O 929.922 0.206912 1.72967 0
M  V30 9903 C 927.054 0.516376 3.36966 0
M  V30 9904 H 928.247 1.95499 2.27421 0
M  V30 9905 H 925.8 1.04704 1.16047 0
M  V30 9906 H 926.535 -0.439498 3.21308 0
M  V30 9907 H 926.32 1.26337 3.71189 0
M  V30 9908 H 927.81 0.37974 4.1587 0
M  V30 9909 N 928.247 -1.18576 1.03814 0
M  V30 9910 C 929.21 -2.2033 0.63146 0
M  V30 9911 C 930.21 -1.57787 -0.309816 0
M  V30 9912 O 931.4 -1.73938 -0.0955598 0
M  V30 9913 C 928.532 -3.40818 -0.0745963 0
M  V30 9914 H 929.725 -2.57824 1.53189 0
M  V30 9915 H 927.278 -1.32416 0.830398 0
M  V30 9916 H 928.013 -3.08853 -0.988947 0
M  V30 9917 H 927.798 -3.87453 0.6019 0
M  V30 9918 H 929.288 -4.16166 -0.345727 0
M  V30 9919 N 929.725 -0.817259 -1.34754 0
M  V30 9920 C 930.688 -0.240611 -2.27934 0
M  V30 9921 C 931.688 0.578219 -1.50044 0
M  V30 9922 O 932.878 0.395148 -1.69659 0
M  V30 9923 C 930.01 0.663318 -3.34384 0
M  V30 9924 H 931.203 -1.06257 -2.80445 0
M  V30 9925 H 928.756 -0.588697 -1.4479 0
M  V30 9926 H 929.491 1.50855 -2.87077 0
M  V30 9927 H 929.276 0.0777388 -3.92023 0
M  V30 9928 H 930.766 1.06076 -4.03903 0
M  V30 9929 N 931.203 1.46865 -0.571711 0
M  V30 9930 C 932.113 2.33979 0.170571 0
M  V30 9931 C 933.129 1.49083 0.897239 0
M  V30 9932 O 934.305 1.81979 0.862888 0
M  V30 9933 C 931.37 3.26063 1.17831 0
M  V30 9934 C 930.431 4.26855 0.457499 0
M  V30 9935 C 929.664 5.14539 1.41722 0
M  V30 9936 O 929.887 5.04945 2.65305 0
M  V30 9937 O 928.821 5.94612 0.9338 0
M  V30 9938 H 932.647 2.98781 -0.544396 0
M  V30 9939 H 930.232 1.4566 -0.332198 0
M  V30 9940 H 932.114 3.82903 1.75965 0
M  V30 9941 H 930.789 2.63871 1.87493 0
M  V30 9942 H 929.696 3.73734 -0.165406 0
M  V30 9943 H 931.029 4.91802 -0.197953 0
M  V30 9944 N 932.681 0.308908 1.54543 0
M  V30 9945 C 933.958 -0.351558 1.92415 0
M  V30 9946 C 934.338 -1.71061 1.23699 0
M  V30 9947 O 933.686 -2.25394 0.3755 0
M  V30 9948 C 933.896 -0.458357 3.45977 0
M  V30 9949 C 935.244 -0.725524 4.18355 0
M  V30 9950 O 936.268 -0.541859 3.52054 0
M  V30 9951 O 935.127 -1.07884 5.35745 0
M  V30 9952 H 932.221 -0.197957 0.802958 0
M  V30 9953 H 934.767 0.357548 1.65891 0
M  V30 9954 H 933.539 0.496723 3.88134 0
M  V30 9955 H 933.162 -1.21562 3.78561 0
M  V30 9956 N 934.159 -1.57557 0.0367827 0
M  V30 9957 C 935.109 -2.07182 -0.95183 0
M  V30 9958 C 936.093 -0.973921 -1.28076 0
M  V30 9959 O 937.285 -1.23741 -1.26559 0
M  V30 9960 C 934.414 -2.60869 -2.23164 0
M  V30 9961 C 933.5 -3.77602 -1.93074 0
M  V30 9962 N 933.891 -4.87923 -1.33283 0
M  V30 9963 C 932.189 -3.86234 -2.23023 0
M  V30 9964 C 932.89 -5.69083 -1.20498 0
M  V30 9965 N 931.866 -5.16233 -1.70306 0
M  V30 9966 H 935.668 -2.89876 -0.484647 0
M  V30 9967 H 933.182 -1.61528 -0.16804 0
M  V30 9968 H 935.179 -2.94716 -2.9487 0
M  V30 9969 H 933.839 -1.79607 -2.70502 0
M  V30 9970 H 934.85 -5.08018 -1.00686 0
M  V30 9971 H 931.527 -3.15891 -2.72981 0
M  V30 9972 H 932.917 -6.6779 -0.741999 0
M  V30 9973 O 935.676 0.104679 -1.6116 0
M  V30 9974 H 936.367 0.734386 -1.79239 0
M  V30 END ATOM
M  V30 BEGIN BOND
M  V30 END BOND
M  V30 END CTAB
M  END
$$$$
