drugbank_target|Q8RJN8 Endo-1,4-beta-xylanase (DB03389)
 OpenBabel12092120273D

  0  0  0     0  0            999 V3000
M  V30 BEGIN CTAB
M  V30 COUNTS 6665 6763 0 0 0
M  V30 BEGIN ATOM
M  V30 1 H -0.908 1.98254 -0.117106 0
M  V30 2 N 0 1.576 0 0
M  V30 3 C 0.933 2.03868 1.02534 0
M  V30 4 C 1.911 0.928543 1.3348 0
M  V30 5 O 3.095 1.19667 1.45644 0
M  V30 6 C 0.222 2.43627 2.35294 0
M  V30 7 C -0.732 3.65373 2.2001 0
M  V30 8 S 0.101 5.13292 1.52614 0
M  V30 9 C 1.257 5.56322 2.86805 0
M  V30 10 H 1.49 2.90518 0.631377 0
M  V30 11 H -0.977 1.52953 0.210867 0
M  V30 12 H 0.981 2.67203 3.11629 0
M  V30 13 H -0.358 1.57376 2.7183 0
M  V30 14 H -1.165 3.90944 3.18086 0
M  V30 15 H -1.563 3.418 1.51819 0
M  V30 16 H 0.729 5.58782 3.83104 0
M  V30 17 H 1.672 6.56266 2.65933 0
M  V30 18 H 2.08 4.83886 2.90714 0
M  V30 19 N 1.4781 -0.272755 1.55222 0
M  V30 20 C 2.4251 -1.33716 1.88119 0
M  V30 21 C 3.3951 -1.49066 0.73271 0
M  V30 22 O 4.5801 -1.63469 0.984002 0
M  V30 23 C 1.7201 -2.69238 2.15882 0
M  V30 24 C 0.8331 -2.62108 3.43399 0
M  V30 25 C -0.0319 -3.89811 3.60861 0
M  V30 26 C -0.9929 -3.77193 4.8207 0
M  V30 27 N -1.8559 -4.9673 4.96189 0
M  V30 28 H 2.9841 -1.04962 2.78903 0
M  V30 29 H 0.5211 -0.507088 1.38083 0
M  V30 30 H 2.4791 -3.48089 2.29978 0
M  V30 31 H 1.1091 -2.96194 1.28331 0
M  V30 32 H 0.1611 -1.74967 3.37773 0
M  V30 33 H 1.4731 -2.48685 4.32386 0
M  V30 34 H 0.6271 -4.77103 3.74777 0
M  V30 35 H -0.6339 -4.06102 2.7006 0
M  V30 36 H -1.6289 -2.88284 4.68159 0
M  V30 37 H -0.4039 -3.62421 5.74307 0
M  V30 38 H -2.4579 -5.13431 4.08319 0
M  V30 39 H -2.5409 -4.85839 5.79221 0
M  V30 40 H -1.2729 -5.85594 5.1449 0
M  V30 41 N 2.9562 -1.48159 -0.537278 0
M  V30 42 C 4.2022 -1.56035 -1.29541 0
M  V30 43 C 4.5352 -0.230377 -1.92829 0
M  V30 44 O 3.8102 0.762952 -1.78911 0
M  V30 45 C 4.0932 -2.69323 -2.39034 0
M  V30 46 C 3.9462 -4.12002 -1.80485 0
M  V30 47 C 5.2652 -2.78408 -3.40847 0
M  V30 48 H 2.3842 -0.567992 -0.469632 0
M  V30 49 H 5.0262 -1.80302 -0.599277 0
M  V30 50 H 3.1762 -2.48763 -2.98412 0
M  V30 51 H 4.8482 -4.43981 -1.25215 0
M  V30 52 H 3.0912 -4.19344 -1.11055 0
M  V30 53 H 3.7622 -4.87077 -2.59731 0
M  V30 54 H 6.2382 -2.97012 -2.91416 0
M  V30 55 H 5.1142 -3.59416 -4.14863 0
M  V30 56 H 5.3752 -1.86269 -4.00944 0
M  V30 57 N 4.4343 0.785586 -1.36625 0
M  V30 58 C 5.6813 1.54362 -1.31067 0
M  V30 59 C 6.0093 1.94195 0.10893 0
M  V30 60 O 5.2643 1.63262 1.07908 0
M  V30 61 C 5.5633 2.83007 -2.1827 0
M  V30 62 C 5.2293 2.62294 -3.6676 0
M  V30 63 C 3.8913 2.56353 -4.0723 0
M  V30 64 C 6.2433 2.43371 -4.6089 0
M  V30 65 C 3.5713 2.29461 -5.39967 0
M  V30 66 C 5.9233 2.18005 -5.93849 0
M  V30 67 C 4.5873 2.105 -6.3344 0
M  V30 68 H 3.8573 0.564851 -0.479609 0
M  V30 69 H 6.5043 0.906028 -1.68711 0
M  V30 70 H 4.8093 3.51253 -1.73576 0
M  V30 71 H 6.5063 3.40817 -2.11292 0
M  V30 72 H 3.0963 2.67774 -3.34656 0
M  V30 73 H 7.2803 2.46959 -4.30494 0
M  V30 74 H 2.5363 2.22135 -5.69619 0
M  V30 75 H 6.7103 2.02359 -6.66351 0
M  V30 76 H 4.3373 1.89425 -7.36222 0
M  V30 77 N 5.9124 1.20967 1.01018 0
M  V30 78 C 7.1594 1.02374 1.74716 0
M  V30 79 C 7.4874 -0.443375 1.89379 0
M  V30 80 O 6.7424 -1.34535 1.42123 0
M  V30 81 C 7.0414 1.65997 3.16512 0
M  V30 82 C 6.7074 3.15831 3.2181 0
M  V30 83 C 5.3694 3.56719 3.22963 0
M  V30 84 C 7.7214 4.11816 3.19464 0
M  V30 85 C 5.0494 4.92107 3.19449 0
M  V30 86 C 7.4014 5.47158 3.17491 0
M  V30 87 C 6.0654 5.87451 3.16951 0
M  V30 88 H 5.3354 0.374614 0.639332 0
M  V30 89 H 7.9824 1.50485 1.18434 0
M  V30 90 H 6.2874 1.10166 3.75993 0
M  V30 91 H 7.9844 1.49119 3.72242 0
M  V30 92 H 4.5744 2.83263 3.21652 0
M  V30 93 H 8.7584 3.81257 3.17737 0
M  V30 94 H 4.0144 5.22579 3.17366 0
M  V30 95 H 8.1884 6.21274 3.14629 0
M  V30 96 H 5.8154 6.92329 3.13983 0
M  V30 97 N 7.3905 -1.2043 1.01659 0
M  V30 98 C 8.3375 -2.23215 0.586822 0
M  V30 99 C 9.3075 -1.61382 -0.393085 0
M  V30 100 O 10.4925 -1.88544 -0.292525 0
M  V30 101 C 7.6325 -3.45032 -0.0687464 0
M  V30 102 C 6.7455 -4.21296 0.955724 0
M  V30 103 C 5.8805 -5.30507 0.271208 0
M  V30 104 C 4.9195 -5.98515 1.28244 0
M  V30 105 N 4.0565 -6.99316 0.62459 0
M  V30 106 H 8.8965 -2.59336 1.46796 0
M  V30 107 H 6.4335 -1.27431 0.734836 0
M  V30 108 H 8.3915 -4.1459 -0.465965 0
M  V30 109 H 7.0215 -3.09604 -0.913529 0
M  V30 110 H 6.0735 -3.50803 1.4711 0
M  V30 111 H 7.3855 -4.6803 1.72479 0
M  V30 112 H 6.5395 -6.06428 -0.18151 0
M  V30 113 H 5.2785 -4.8481 -0.530163 0
M  V30 114 H 4.2835 -5.21355 1.74554 0
M  V30 115 H 5.5085 -6.46298 2.08509 0
M  V30 116 H 3.4545 -6.55812 -0.156914 0
M  V30 117 H 3.3715 -7.44178 1.33172 0
M  V30 118 H 4.6395 -7.79255 0.195462 0
M  V30 119 N 8.8686 -0.792821 -1.36206 0
M  V30 120 C 10.1176 -0.363353 -1.984 0
M  V30 121 C 10.4306 1.07172 -1.63626 0
M  V30 122 O 11.6366 1.60362 -2.19081 0
M  V30 123 C 10.0926 -0.59872 -3.54885 0
M  V30 124 C 9.7006 -2.04543 -3.9858 0
M  V30 125 C 11.4446 -0.233926 -4.23855 0
M  V30 126 C 9.3516 -2.22727 -5.47856 0
M  V30 127 H 8.2816 -0.13212 -0.742334 0
M  V30 128 H 10.9326 -0.974935 -1.55458 0
M  V30 129 H 9.3146 0.0826222 -3.95914 0
M  V30 130 H 10.4886 -2.76345 -3.68741 0
M  V30 131 H 8.8036 -2.36879 -3.42458 0
M  V30 132 H 11.4006 -0.348027 -5.33566 0
M  V30 133 H 11.7436 0.818351 -4.08177 0
M  V30 134 H 12.2766 -0.868639 -3.882 0
M  V30 135 H 9.0156 -3.2635 -5.68486 0
M  V30 136 H 8.5356 -1.55434 -5.7931 0
M  V30 137 H 10.2146 -2.03607 -6.14128 0
M  V30 138 N 10.3467 1.47872 -0.545128 0
M  V30 139 C 11.5747 2.06889 -0.021084 0
M  V30 140 C 11.9897 1.39955 1.2672 0
M  V30 141 O 11.3467 0.492036 1.75742 0
M  V30 142 C 11.3977 3.60996 0.190817 0
M  V30 143 O 11.1187 4.25419 -1.04644 0
M  V30 144 C 12.6197 4.36849 0.753521 0
M  V30 145 H 9.8397 0.669785 -0.0403635 0
M  V30 146 H 12.3837 1.90049 -0.755095 0
M  V30 147 H 10.5387 3.77391 0.87492 0
M  V30 148 H 10.9527 5.17785 -0.836611 0
M  V30 149 H 12.4267 5.45399 0.851139 0
M  V30 150 H 12.9037 4.02306 1.762 0
M  V30 151 H 13.5097 4.25169 0.105503 0
M  V30 152 N 11.8248 0.280983 1.55075 0
M  V30 153 C 13.0528 -0.337293 2.04132 0
M  V30 154 C 13.4678 -1.4903 1.15912 0
M  V30 155 O 12.8248 -1.81606 0.180459 0
M  V30 156 C 12.8758 -0.812706 3.52246 0
M  V30 157 O 12.5968 0.294387 4.3711 0
M  V30 158 C 14.0978 -1.4982 4.17216 0
M  V30 159 H 11.3178 -0.0761638 0.666663 0
M  V30 160 H 13.8618 0.414787 2.00249 0
M  V30 161 H 12.0168 -1.51486 3.56554 0
M  V30 162 H 12.4308 -0.0721325 5.2445 0
M  V30 163 H 13.9048 -1.7822 5.22438 0
M  V30 164 H 14.3818 -2.43168 3.65741 0
M  V30 165 H 14.9878 -0.839742 4.16927 0
M  V30 166 N 13.3029 -1.57598 0.00835791 0
M  V30 167 C 14.2329 -2.1198 -0.979113 0
M  V30 168 C 15.2139 -1.03091 -1.35301 0
M  V30 169 O 16.3989 -1.30818 -1.43528 0
M  V30 170 C 13.5289 -2.62995 -2.26828 0
M  V30 171 C 12.4829 -3.76485 -2.03576 0
M  V30 172 C 11.8089 -4.13846 -3.38579 0
M  V30 173 C 13.1089 -5.0342 -1.39161 0
M  V30 174 H 14.8029 -2.94738 -0.526281 0
M  V30 175 H 12.3489 -1.41783 -0.251704 0
M  V30 176 H 14.3019 -2.99669 -2.96271 0
M  V30 177 H 13.0259 -1.7737 -2.7424 0
M  V30 178 H 11.6849 -3.40217 -1.36557 0
M  V30 179 H 11.3329 -3.25232 -3.83709 0
M  V30 180 H 11.0329 -4.90312 -3.23834 0
M  V30 181 H 12.5569 -4.53086 -4.09323 0
M  V30 182 H 13.9709 -5.37812 -1.98573 0
M  V30 183 H 12.3679 -5.84746 -1.34878 0
M  V30 184 H 13.4379 -4.83548 -0.361868 0
M  V30 185 N 14.781 0.264519 -1.55364 0
M  V30 186 C 15.711 1.33121 -1.91836 0
M  V30 187 C 16.692 1.51101 -0.781192 0
M  V30 188 O 17.877 1.64003 -1.04003 0
M  V30 189 C 15.007 2.68921 -2.19769 0
M  V30 190 C 13.961 2.65661 -3.35571 0
M  V30 191 C 13.287 4.05093 -3.49004 0
M  V30 192 C 14.587 2.24187 -4.71739 0
M  V30 193 H 16.281 1.02844 -2.81182 0
M  V30 194 H 13.827 0.493286 -1.35287 0
M  V30 195 H 15.78 3.43663 -2.43872 0
M  V30 196 H 14.504 3.00799 -1.27231 0
M  V30 197 H 13.163 1.93377 -3.1145 0
M  V30 198 H 12.811 4.34206 -2.53917 0
M  V30 199 H 12.511 4.03804 -4.26868 0
M  V30 200 H 14.035 4.81561 -3.75408 0
M  V30 201 H 15.449 2.88654 -4.9533 0
M  V30 202 H 13.846 2.34044 -5.52579 0
M  V30 203 H 14.916 1.19327 -4.69988 0
M  V30 204 N 16.2591 1.48442 0.529413 0
M  V30 205 C 17.1891 1.65902 1.64313 0
M  V30 206 C 18.1701 0.507897 1.6234 0
M  V30 207 O 19.3551 0.740503 1.79528 0
M  V30 208 C 16.4851 1.69911 3.02898 0
M  V30 209 C 15.4391 2.8453 3.19729 0
M  V30 210 C 14.7651 2.73629 4.59381 0
M  V30 211 C 16.0651 4.25821 3.02447 0
M  V30 212 H 17.7591 2.5914 1.49955 0
M  V30 213 H 15.3051 1.24709 0.719982 0
M  V30 214 H 17.2581 1.80715 3.80684 0
M  V30 215 H 15.9821 0.732524 3.18279 0
M  V30 216 H 14.6411 2.73283 2.44361 0
M  V30 217 H 14.2891 1.74938 4.71599 0
M  V30 218 H 13.9891 3.50541 4.71588 0
M  V30 219 H 15.5131 2.86401 5.39265 0
M  V30 220 H 16.9271 4.37898 3.70024 0
M  V30 221 H 15.3241 5.03735 3.26146 0
M  V30 222 H 16.3941 4.42244 1.98867 0
M  V30 223 N 17.7372 -0.778329 1.37039 0
M  V30 224 C 18.9862 -1.53189 1.3121 0
M  V30 225 C 19.2992 -1.95328 -0.103095 0
M  V30 226 O 20.5052 -2.70012 -0.283826 0
M  V30 227 C 18.9612 -2.76591 2.30272 0
M  V30 228 C 18.5692 -2.41577 3.77286 0
M  V30 229 C 20.3132 -3.5455 2.33441 0
M  V30 230 C 18.2202 -3.61441 4.68096 0
M  V30 231 H 17.1502 -0.5751 0.487622 0
M  V30 232 H 19.8012 -0.853101 1.62464 0
M  V30 233 H 18.1832 -3.46326 1.92027 0
M  V30 234 H 19.3572 -1.79668 4.2433 0
M  V30 235 H 17.6722 -1.76806 3.76999 0
M  V30 236 H 20.2692 -4.43628 2.98493 0
M  V30 237 H 20.6122 -3.93936 1.34611 0
M  V30 238 H 21.1452 -2.91805 2.7036 0
M  V30 239 H 17.8842 -3.27142 5.6803 0
M  V30 240 H 17.4042 -4.22478 4.25761 0
M  V30 241 H 19.0832 -4.28335 4.8491 0
M  V30 242 N 19.2153 -1.21501 -1.00376 0
M  V30 243 C 20.1453 -0.999478 -2.11028 0
M  V30 244 C 21.1263 0.0759671 -1.6993 0
M  V30 245 O 22.3113 -0.0841106 -1.94018 0
M  V30 246 C 19.4413 -0.564709 -3.42678 0
M  V30 247 C 18.3953 -1.58486 -3.97576 0
M  V30 248 C 17.7213 -1.00628 -5.25146 0
M  V30 249 C 19.0213 -2.97204 -4.29496 0
M  V30 250 H 20.7153 -1.92495 -2.29317 0
M  V30 251 H 18.2613 -0.92693 -1.102 0
M  V30 252 H 20.2143 -0.401091 -4.19487 0
M  V30 253 H 18.9383 0.396411 -3.24185 0
M  V30 254 H 17.5973 -1.73606 -3.22888 0
M  V30 255 H 17.2453 -0.0368439 -5.02987 0
M  V30 256 H 16.9453 -1.68771 -5.62841 0
M  V30 257 H 18.4693 -0.854015 -6.04598 0
M  V30 258 H 19.8833 -2.8552 -4.97143 0
M  V30 259 H 18.2803 -3.62372 -4.78338 0
M  V30 260 H 19.3503 -3.47956 -3.3772 0
M  V30 261 N 20.6934 1.19889 -1.02296 0
M  V30 262 C 21.9424 1.88743 -0.711257 0
M  V30 263 C 22.2554 1.80112 0.762817 0
M  V30 264 O 23.4614 2.44161 1.18733 0
M  V30 265 C 21.9174 3.38525 -1.22185 0
M  V30 266 C 21.5254 3.55727 -2.72328 0
M  V30 267 C 23.2694 4.12893 -0.985864 0
M  V30 268 C 21.1764 4.99369 -3.16835 0
M  V30 269 H 20.1064 0.706885 -0.262353 0
M  V30 270 H 22.7574 1.35586 -1.23648 0
M  V30 271 H 21.1394 3.91044 -0.624571 0
M  V30 272 H 22.3134 3.13564 -3.3766 0
M  V30 273 H 20.6284 2.94739 -2.9414 0
M  V30 274 H 23.2254 5.18813 -1.29374 0
M  V30 275 H 23.5684 4.16228 0.0775055 0
M  V30 276 H 24.1014 3.66494 -1.54684 0
M  V30 277 H 20.8404 5.01193 -4.22476 0
M  V30 278 H 20.3604 5.42317 -2.56228 0
M  V30 279 H 22.0394 5.67988 -3.09837 0
M  V30 280 N 22.1715 0.800033 1.35784 0
M  V30 281 C 23.3965 0.388511 2.03729 0
M  V30 282 C 23.8215 -0.990481 1.5991 0
M  V30 283 O 23.1795 -1.64013 0.772612 0
M  V30 284 C 23.2275 0.4726 3.5749 0
M  V30 285 O 22.3315 -0.51646 4.09153 0
M  V30 286 H 21.6725 0.163271 0.643614 0
M  V30 287 H 24.2025 1.0841 1.73518 0
M  V30 288 H 24.2125 0.34003 4.06581 0
M  V30 289 H 22.8875 1.47848 3.88734 0
M  V30 290 H 21.4645 -0.344673 3.71304 0
M  V30 291 N 23.6496 -1.47581 0.552962 0
M  V30 292 C 24.8796 -2.06575 0.0320091 0
M  V30 293 C 25.2876 -1.4067 -1.26525 0
M  V30 294 O 24.6306 -0.495808 -1.76883 0
M  V30 295 C 24.6926 -3.58705 -0.238913 0
M  V30 296 C 24.3566 -4.46625 0.968272 0
M  V30 297 C 25.3536 -4.85 1.87274 0
M  V30 298 C 23.0386 -4.88201 1.18175 0
M  V30 299 C 25.0326 -5.63745 2.9744 0
M  V30 300 C 22.7196 -5.66712 2.28651 0
M  V30 301 C 23.7176 -6.04394 3.18114 0
M  V30 302 O 23.4056 -6.81324 4.26676 0
M  V30 303 H 23.1376 -0.674763 0.0408689 0
M  V30 304 H 25.6916 -1.90634 0.764719 0
M  V30 305 H 23.9216 -3.72844 -1.02588 0
M  V30 306 H 25.6106 -3.99735 -0.704731 0
M  V30 307 H 26.3766 -4.53482 1.71984 0
M  V30 308 H 22.2556 -4.58339 0.494593 0
M  V30 309 H 25.7996 -5.93077 3.67296 0
M  V30 310 H 21.6966 -5.97642 2.43915 0
M  V30 311 H 22.4646 -6.99712 4.24671 0
M  V30 312 N 25.1277 -0.289203 -1.54924 0
M  V30 313 C 26.0597 0.625583 -2.20497 0
M  V30 314 C 27.0727 1.10667 -1.19402 0
M  V30 315 O 28.2617 1.02615 -1.46056 0
M  V30 316 C 25.3617 1.86702 -2.82835 0
M  V30 317 C 24.5347 1.5304 -4.09753 0
M  V30 318 C 23.5937 2.62576 -4.56005 0
M  V30 319 O 22.6197 2.28167 -5.21468 0
M  V30 320 N 23.8217 3.92901 -4.27328 0
M  V30 321 H 26.5867 0.0642801 -2.99631 0
M  V30 322 H 24.1477 -0.110896 -1.6152 0
M  V30 323 H 26.1397 2.59304 -3.10715 0
M  V30 324 H 24.7097 2.33702 -2.07611 0
M  V30 325 H 23.9297 0.637564 -3.8901 0
M  V30 326 H 25.2177 1.28072 -4.92418 0
M  V30 327 H 24.6157 4.23671 -3.74859 0
M  V30 328 H 23.1727 4.61837 -4.59946 0
M  V30 329 N 26.6058 1.57591 -0.0167156 0
M  V30 330 C 27.8308 1.9598 0.67872 0
M  V30 331 C 28.2558 0.892546 1.65575 0
M  V30 332 O 27.6138 -0.147772 1.80697 0
M  V30 333 C 27.6618 3.33468 1.37227 0
M  V30 334 O 26.7658 3.28954 2.48722 0
M  V30 335 H 26.1068 0.639339 0.17928 0
M  V30 336 H 28.6368 2.04463 -0.0748802 0
M  V30 337 H 28.6468 3.69417 1.7319 0
M  V30 338 H 27.3218 4.10694 0.656007 0
M  V30 339 H 25.8988 3.04705 2.14963 0
M  V30 340 N 28.0839 -0.256276 1.55502 0
M  V30 341 C 29.0139 -1.32102 1.92539 0
M  V30 342 C 29.9949 -1.50684 0.789194 0
M  V30 343 O 31.1799 -1.63449 1.04872 0
M  V30 344 C 28.3099 -2.67752 2.21192 0
M  V30 345 C 27.2639 -2.63878 3.36975 0
M  V30 346 C 26.5899 -4.03236 3.51147 0
M  V30 347 C 27.8899 -2.21682 4.72921 0
M  V30 348 H 29.5839 -1.01351 2.81724 0
M  V30 349 H 27.1299 -0.486105 1.35547 0
M  V30 350 H 29.0829 -3.42365 2.45691 0
M  V30 351 H 27.8069 -3.0012 1.28824 0
M  V30 352 H 26.4659 -1.91722 3.12471 0
M  V30 353 H 26.1139 -4.32854 2.56216 0
M  V30 354 H 25.8139 -4.01535 4.29003 0
M  V30 355 H 27.3379 -4.79563 3.77957 0
M  V30 356 H 28.7519 -2.86023 4.96854 0
M  V30 357 H 27.1489 -2.3111 5.53812 0
M  V30 358 H 28.2189 -1.16833 4.70615 0
M  V30 359 N 29.562 -1.4872 -0.521534 0
M  V30 360 C 30.525 -1.63379 -1.60748 0
M  V30 361 C 31.525 -0.50661 -1.52611 0
M  V30 362 O 32.715 -0.772601 -1.5613 0
M  V30 363 C 29.847 -1.61192 -3.00383 0
M  V30 364 H 31.04 -2.60217 -1.49087 0
M  V30 365 H 28.593 -1.37444 -0.744235 0
M  V30 366 H 29.328 -0.65863 -3.17541 0
M  V30 367 H 29.113 -2.43032 -3.07698 0
M  V30 368 H 30.603 -1.7466 -3.7932 0
M  V30 369 N 31.0401 0.771051 -1.3745 0
M  V30 370 C 32.0031 1.86598 -1.33093 0
M  V30 371 C 33.0031 1.59076 -0.234845 0
M  V30 372 O 34.1931 1.67145 -0.490732 0
M  V30 373 C 31.3251 3.23747 -1.06773 0
M  V30 374 H 32.5181 1.91873 -2.30488 0
M  V30 375 H 30.0711 0.970876 -1.2249 0
M  V30 376 H 30.8061 3.24148 -0.099129 0
M  V30 377 H 30.5911 3.45115 -1.86112 0
M  V30 378 H 32.0811 4.03824 -1.06377 0
M  V30 379 N 32.5182 1.22032 0.997298 0
M  V30 380 C 33.7652 1.04222 1.73621 0
M  V30 381 C 34.0932 -0.423264 1.89839 0
M  V30 382 O 33.3482 -1.3302 1.43542 0
M  V30 383 C 33.6472 1.69345 3.14733 0
M  V30 384 C 33.3132 3.19226 3.18442 0
M  V30 385 C 31.9752 3.60124 3.19161 0
M  V30 386 C 34.3272 4.15181 3.15078 0
M  V30 387 C 31.6552 4.95467 3.14212 0
M  V30 388 C 34.0072 5.50495 3.1167 0
M  V30 389 C 32.6712 5.90779 3.10703 0
M  V30 390 H 31.9412 0.381374 0.635323 0
M  V30 391 H 34.5882 1.51732 1.16831 0
M  V30 392 H 32.8932 1.14147 3.74803 0
M  V30 393 H 34.5902 1.53059 3.7064 0
M  V30 394 H 31.1802 2.86659 3.18629 0
M  V30 395 H 35.3642 3.84605 3.13676 0
M  V30 396 H 30.6202 5.25916 3.11805 0
M  V30 397 H 34.7942 6.24576 3.08022 0
M  V30 398 H 32.4212 6.9562 3.06622 0
M  V30 399 N 33.9963 -1.19345 1.0293 0
M  V30 400 C 34.9443 -2.24621 0.604001 0
M  V30 401 C 35.9383 -1.65452 -0.363587 0
M  V30 402 O 37.1443 -1.78497 -0.23212 0
M  V30 403 H 33.5193 -0.730858 0.177061 0
M  V30 404 H 35.4903 -2.5781 1.50255 0
M  V30 405 C 34.2393 -3.47688 -0.0289127 0
M  V30 406 H 33.5623 -3.93505 0.706651 0
M  V30 407 H 35.0023 -4.23011 -0.289432 0
M  V30 408 C 33.4613 -3.11817 -1.2756 0
M  V30 409 O 33.9913 -3.2451 -2.36762 0
M  V30 410 N 32.1973 -2.66246 -1.16453 0
M  V30 411 H 31.7443 -2.56118 -0.275914 0
M  V30 412 H 31.7023 -2.42617 -1.99961 0
M  V30 413 N 35.4744 -0.807222 -1.35358 0
M  V30 414 C 36.4224 -0.20614 -2.31685 0
M  V30 415 C 37.4164 0.644445 -1.56663 0
M  V30 416 O 38.6224 0.537538 -1.71786 0
M  V30 417 H 34.9974 -0.0479006 -0.750473 0
M  V30 418 H 36.9684 -1.03369 -2.79924 0
M  V30 419 C 35.7174 0.630212 -3.41941 0
M  V30 420 H 35.0404 -0.0149558 -3.99797 0
M  V30 421 H 36.4804 1.01716 -4.11619 0
M  V30 422 C 34.9394 1.79601 -2.85035 0
M  V30 423 O 35.4694 2.89351 -2.78637 0
M  V30 424 N 33.6754 1.60774 -2.42074 0
M  V30 425 H 33.2224 0.715009 -2.47478 0
M  V30 426 H 33.1804 2.38933 -2.04349 0
M  V30 427 N 36.9525 1.47285 -0.560781 0
M  V30 428 C 37.9005 2.31756 0.197942 0
M  V30 429 C 38.8945 1.43146 0.905854 0
M  V30 430 O 40.1005 1.59891 0.826733 0
M  V30 431 H 36.4755 0.747438 0.0827049 0
M  V30 432 H 38.4465 2.9359 -0.533629 0
M  V30 433 C 37.1955 3.25874 1.21249 0
M  V30 434 H 36.5185 3.94023 0.67719 0
M  V30 435 H 37.9585 3.87803 1.71419 0
M  V30 436 C 36.4175 2.49651 2.26221 0
M  V30 437 O 36.9475 2.24355 3.33208 0
M  V30 438 N 35.1535 2.10597 2.00243 0
M  V30 439 H 34.7005 2.31369 1.13252 0
M  V30 440 H 34.6585 1.59913 2.70694 0
M  V30 441 N 38.4306 0.297415 1.54768 0
M  V30 442 C 39.8416 -0.195947 1.85669 0
M  V30 443 C 40.1926 -1.53707 1.21937 0
M  V30 444 O 39.3176 -2.10164 0.515754 0
M  V30 445 C 39.9126 -0.362318 3.36857 0
M  V30 446 C 38.4716 -0.799901 3.67802 0
M  V30 447 C 37.6186 0.0938578 2.77141 0
M  V30 448 H 40.5696 0.518538 1.4999 0
M  V30 449 H 40.5906 -1.19745 3.61167 0
M  V30 450 H 40.1026 0.613921 3.83214 0
M  V30 451 H 38.2036 -1.78682 3.26961 0
M  V30 452 H 38.3166 -0.621773 4.75048 0
M  V30 453 H 36.6806 -0.426254 2.51108 0
M  V30 454 H 37.4636 1.06639 3.26318 0
M  V30 455 N 39.9087 -1.5758 0.0250728 0
M  V30 456 C 41.1337 -1.96337 -0.668317 0
M  V30 457 C 41.5587 -0.901314 -1.651 0
M  V30 458 O 40.9167 0.138187 -1.80773 0
M  V30 459 C 40.9647 -3.34191 -1.35457 0
M  V30 460 O 40.0687 -3.30269 -2.46974 0
M  V30 461 H 39.4097 -0.640281 -0.175887 0
M  V30 462 H 41.9397 -2.0442 0.0857224 0
M  V30 463 H 41.9497 -3.70331 -1.71228 0
M  V30 464 H 40.6247 -4.11036 -0.634218 0
M  V30 465 H 39.2017 -3.05841 -2.13344 0
M  V30 466 N 41.3868 0.248026 -1.55636 0
M  V30 467 C 42.6118 0.998028 -1.81808 0
M  V30 468 C 43.0368 1.78207 -0.601979 0
M  V30 469 O 42.3948 1.75653 0.448961 0
M  V30 470 C 42.4428 1.9125 -3.05705 0
M  V30 471 O 41.5468 3.00406 -2.82542 0
M  V30 472 H 40.8878 0.284045 -0.600179 0
M  V30 473 H 43.4178 0.269357 -2.02819 0
M  V30 474 H 43.4278 2.32737 -3.35108 0
M  V30 475 H 42.1028 1.33602 -3.93857 0
M  V30 476 H 40.6798 2.63056 -2.64303 0
M  V30 477 N 42.8649 1.48995 0.513639 0
M  V30 478 C 44.1109 1.58076 1.27042 0
M  V30 479 C 44.4439 0.261026 1.92438 0
M  V30 480 O 43.7189 -0.734393 1.80103 0
M  V30 481 C 44.0019 2.73091 2.34719 0
M  V30 482 C 43.8549 4.14821 1.73907 0
M  V30 483 C 45.1739 2.83796 3.36375 0
M  V30 484 H 42.2929 0.575391 0.460536 0
M  V30 485 H 44.9349 1.81232 0.570516 0
M  V30 486 H 43.0849 2.53479 2.94416 0
M  V30 487 H 44.7569 4.45917 1.18135 0
M  V30 488 H 42.9999 4.21058 1.0437 0
M  V30 489 H 43.6709 4.91147 2.51949 0
M  V30 490 H 46.1469 3.01611 2.86653 0
M  V30 491 H 45.0229 3.65971 4.09093 0
M  V30 492 H 45.2839 1.92624 3.9793 0
M  V30 493 N 44.343 -0.763751 1.37857 0
M  V30 494 C 45.591 -1.51957 1.33243 0
M  V30 495 C 45.912 -1.94835 -0.0801709 0
M  V30 496 O 45.182 -1.66894 -1.02582 0
M  V30 497 H 43.762 -0.563626 0.49024 0
M  V30 498 H 46.424 -0.908504 1.7243 0
M  V30 499 H 45.52 -2.41523 1.97669 0
M  V30 500 N 45.8211 -1.22559 -0.990812 0
M  V30 501 C 46.7841 -0.998863 -2.0629 0
M  V30 502 C 47.7841 0.0354834 -1.60761 0
M  V30 503 O 48.9741 -0.203231 -1.7301 0
M  V30 504 C 46.1061 -0.509203 -3.37076 0
M  V30 505 H 47.2991 -1.95014 -2.27837 0
M  V30 506 H 44.8521 -1.04456 -1.16269 0
M  V30 507 H 45.5871 0.446335 -3.21214 0
M  V30 508 H 45.3721 -1.25547 -3.71457 0
M  V30 509 H 46.8621 -0.370888 -4.1595 0
M  V30 510 N 47.2992 1.18797 -1.03562 0
M  V30 511 C 48.5292 1.92319 -0.754773 0
M  V30 512 C 48.9372 1.7612 0.691248 0
M  V30 513 O 48.2802 1.08491 1.48241 0
M  V30 514 C 48.3422 3.44284 -1.03484 0
M  V30 515 C 48.0062 3.84258 -2.47376 0
M  V30 516 C 49.0032 3.88459 -3.45537 0
M  V30 517 C 46.6882 4.15701 -2.81954 0
M  V30 518 C 48.6822 4.23545 -4.76328 0
M  V30 519 C 46.3692 4.50458 -4.12954 0
M  V30 520 C 47.3672 4.54356 -5.09951 0
M  V30 521 O 47.0552 4.88305 -6.38603 0
M  V30 522 H 46.7872 0.617527 -0.275021 0
M  V30 523 H 49.3412 1.51683 -1.38497 0
M  V30 524 H 47.5712 3.85135 -0.347513 0
M  V30 525 H 49.2602 3.99049 -0.7426 0
M  V30 526 H 50.0262 3.6431 -3.20162 0
M  V30 527 H 45.9052 4.11847 -2.0713 0
M  V30 528 H 49.4492 4.26502 -5.52035 0
M  V30 529 H 45.3462 4.74067 -4.38099 0
M  V30 530 H 46.1142 5.06227 -6.43177 0
M  V30 531 N 48.7773 0.814389 1.34928 0
M  V30 532 C 50.0023 0.410097 2.03305 0
M  V30 533 C 50.4273 -0.973464 1.60951 0
M  V30 534 O 49.7853 -1.63185 0.789964 0
M  V30 535 C 49.8333 0.51049 3.56968 0
M  V30 536 O 48.9373 -0.473035 4.09678 0
M  V30 537 H 48.2783 0.170088 0.641846 0
M  V30 538 H 50.8083 1.10244 1.72358 0
M  V30 539 H 50.8183 0.383135 4.06197 0
M  V30 540 H 49.4933 1.51963 3.87144 0
M  V30 541 H 48.0703 -0.305272 3.71648 0
M  V30 542 N 50.2554 -1.46986 0.568584 0
M  V30 543 C 51.4804 -2.07335 0.0520528 0
M  V30 544 C 51.9054 -1.41675 -1.23733 0
M  V30 545 O 51.2634 -0.495623 -1.74394 0
M  V30 546 C 51.3114 -3.60417 -0.11501 0
M  V30 547 O 50.4154 -3.95309 -1.17492 0
M  V30 548 H 49.7564 -0.661597 0.0564385 0
M  V30 549 H 52.2864 -1.88837 0.787507 0
M  V30 550 H 52.2964 -4.06698 -0.325644 0
M  V30 551 H 50.9714 -4.07601 0.826675 0
M  V30 552 H 49.5484 -3.60757 -0.943869 0
M  V30 553 N 51.7335 -0.305618 -1.54608 0
M  V30 554 C 52.9815 0.301701 -1.99835 0
M  V30 555 C 53.3025 1.54054 -1.19551 0
M  V30 556 O 52.5725 1.93702 -0.292658 0
M  V30 557 H 51.1525 0.114468 -0.738178 0
M  V30 558 H 53.8145 -0.418016 -1.90364 0
M  V30 559 H 52.9105 0.570548 -3.06841 0
M  V30 560 N 53.2116 1.57565 -0.0334293 0
M  V30 561 C 54.4396 1.9628 0.654347 0
M  V30 562 C 54.8546 0.910138 1.65414 0
M  V30 563 O 54.2116 -0.107595 1.82183 0
M  V30 564 C 54.2626 3.35067 1.35693 0
M  V30 565 O 53.9836 4.36296 0.397191 0
M  V30 566 C 55.4846 3.88439 2.13613 0
M  V30 567 H 52.7046 0.646369 0.180132 0
M  V30 568 H 55.2486 2.04282 -0.0944721 0
M  V30 569 H 53.4036 3.2827 2.05712 0
M  V30 570 H 53.8176 5.1678 0.896597 0
M  V30 571 H 55.2916 4.8788 2.58219 0
M  V30 572 H 55.7686 3.22914 2.97696 0
M  V30 573 H 56.3746 3.98516 1.48543 0
M  V30 574 N 54.6897 -0.239769 1.55765 0
M  V30 575 C 55.9197 -0.982743 1.8173 0
M  V30 576 C 56.3277 -1.7917 0.607835 0
M  V30 577 O 55.6707 -1.78525 -0.432973 0
M  V30 578 C 55.7327 -1.96332 3.01155 0
M  V30 579 C 55.3967 -1.34062 4.36894 0
M  V30 580 C 56.3937 -0.739539 5.14613 0
M  V30 581 C 54.0787 -1.35784 4.83599 0
M  V30 582 C 56.0727 -0.163989 6.37189 0
M  V30 583 C 53.7597 -0.778441 6.06122 0
M  V30 584 C 54.7577 -0.182548 6.82756 0
M  V30 585 O 54.4457 0.387887 8.02964 0
M  V30 586 H 54.1777 -0.294481 0.608487 0
M  V30 587 H 56.7317 -0.26572 2.03674 0
M  V30 588 H 54.9617 -2.71884 2.74984 0
M  V30 589 H 56.6507 -2.57032 3.14149 0
M  V30 590 H 57.4167 -0.718687 4.79646 0
M  V30 591 H 53.2957 -1.81105 4.23936 0
M  V30 592 H 56.8397 0.301753 6.96947 0
M  V30 593 H 52.7367 -0.796645 6.40565 0
M  V30 594 H 53.5047 0.28044 8.18019 0
M  V30 595 N 56.1678 -1.49265 -0.50573 0
M  V30 596 C 57.5838 -1.35923 -0.836486 0
M  V30 597 C 57.7838 -0.388704 -1.97715 0
M  V30 598 O 56.8398 0.181336 -2.51848 0
M  V30 599 C 58.1528 -2.76531 -1.18115 0
M  V30 600 C 59.7008 -2.85197 -1.28964 0
M  V30 601 C 60.1758 -4.26561 -1.66761 0
M  V30 602 N 61.6668 -4.2935 -1.73819 0
M  V30 603 C 62.4018 -5.35693 -2.045 0
M  V30 604 N 61.8978 -6.52287 -2.33438 0
M  V30 605 N 63.6908 -5.23105 -2.05711 0
M  V30 606 H 55.8418 -2.10965 0.246519 0
M  V30 607 H 58.1048 -0.9468 0.0476887 0
M  V30 608 H 57.8108 -3.49226 -0.416398 0
M  V30 609 H 57.6848 -3.11599 -2.1257 0
M  V30 610 H 60.0718 -2.12742 -2.04511 0
M  V30 611 H 60.1528 -2.53718 -0.325704 0
M  V30 612 H 59.7968 -4.99541 -0.917656 0
M  V30 613 H 59.7268 -4.55502 -2.64246 0
M  V30 614 H 62.2178 -3.4526 -1.53635 0
M  V30 615 H 62.5308 -7.29158 -2.56024 0
M  V30 616 H 60.8758 -6.55521 -2.30905 0
M  V30 617 H 64.0668 -4.31026 -1.82577 0
M  V30 618 H 64.2398 -6.06078 -2.29289 0
M  V30 619 N 57.6459 0.756429 -1.3826 0
M  V30 620 C 58.5939 1.89149 -1.35372 0
M  V30 621 C 59.5879 1.67691 -0.24004 0
M  V30 622 O 60.7939 1.75294 -0.408919 0
M  V30 623 H 57.1689 0.622271 -0.422236 0
M  V30 624 H 59.1399 1.88701 -2.31159 0
M  V30 625 C 57.8889 3.26599 -1.19284 0
M  V30 626 H 57.2119 3.43695 -2.0424 0
M  V30 627 H 58.6519 4.06274 -1.21316 0
M  V30 628 C 57.1109 3.3675 0.100454 0
M  V30 629 O 57.6409 3.86951 1.07851 0
M  V30 630 N 55.8469 2.90179 0.15633 0
M  V30 631 H 55.3939 2.49517 -0.640253 0
M  V30 632 H 55.3519 2.97352 1.02123 0
M  V30 633 N 59.124 1.23083 0.984299 0
M  V30 634 C 60.054 1.03292 2.09411 0
M  V30 635 C 61.035 -0.048923 1.7003 0
M  V30 636 O 62.22 0.114967 1.93859 0
M  V30 637 C 59.35 0.619155 3.41736 0
M  V30 638 C 58.304 1.64791 3.95004 0
M  V30 639 C 57.63 1.0897 5.23478 0
M  V30 640 C 58.93 3.03999 4.24714 0
M  V30 641 H 60.624 1.96119 2.26225 0
M  V30 642 H 58.17 0.944344 1.08711 0
M  V30 643 H 60.123 0.467777 4.18796 0
M  V30 644 H 58.847 -0.344786 3.24775 0
M  V30 645 H 57.506 1.78721 3.20085 0
M  V30 646 H 57.154 0.11686 5.02864 0
M  V30 647 H 56.854 1.77704 5.60085 0
M  V30 648 H 58.378 0.950093 6.03163 0
M  V30 649 H 59.792 2.93393 4.92538 0
M  V30 650 H 58.189 3.69936 4.72512 0
M  V30 651 H 59.259 3.53285 3.32142 0
M  V30 652 N 60.6021 -1.18246 1.0419 0
M  V30 653 C 61.5651 -2.20128 0.638452 0
M  V30 654 C 62.5651 -1.57885 -0.304805 0
M  V30 655 O 63.7551 -1.73967 -0.0900369 0
M  V30 656 C 60.8871 -3.4084 -0.0637751 0
M  V30 657 H 62.0801 -2.57336 1.54007 0
M  V30 658 H 59.6331 -1.32152 0.834598 0
M  V30 659 H 60.3681 -3.09166 -0.979136 0
M  V30 660 H 60.1531 -3.8726 0.614198 0
M  V30 661 H 61.6431 -4.16274 -0.332512 0
M  V30 662 N 62.0802 -0.821533 -1.34494 0
M  V30 663 C 63.0122 -0.199946 -2.28326 0
M  V30 664 C 64.0252 0.609377 -1.50965 0
M  V30 665 O 65.2142 0.439285 -1.7301 0
M  V30 666 C 62.3142 0.738431 -3.30757 0
M  V30 667 C 61.4872 -0.0277632 -4.37391 0
M  V30 668 C 60.5462 0.831332 -5.19591 0
M  V30 669 O 59.5722 0.276822 -5.68526 0
M  V30 670 N 60.7742 2.15132 -5.39165 0
M  V30 671 H 63.5392 -1.00609 -2.82308 0
M  V30 672 H 61.1002 -0.678366 -1.47003 0
M  V30 673 H 63.0922 1.31773 -3.82646 0
M  V30 674 H 61.6622 1.44533 -2.7718 0
M  V30 675 H 60.8822 -0.788359 -3.86236 0
M  V30 676 H 62.1702 -0.555251 -5.05761 0
M  V30 677 H 61.5682 2.62559 -5.01078 0
M  V30 678 H 60.1252 2.6795 -5.94177 0
M  V30 679 N 63.5583 1.46682 -0.576371 0
M  V30 680 C 64.4683 2.34032 0.163141 0
M  V30 681 C 65.4843 1.49367 0.892501 0
M  V30 682 O 66.6603 1.82252 0.857106 0
M  V30 683 C 63.7253 3.26435 1.16795 0
M  V30 684 C 62.7863 4.26998 0.443944 0
M  V30 685 C 62.0193 5.14986 1.40088 0
M  V30 686 O 62.2423 5.05785 2.637 0
M  V30 687 O 61.1763 5.94906 0.914917 0
M  V30 688 H 65.0023 2.98607 -0.55388 0
M  V30 689 H 62.5873 1.45554 -0.336821 0
M  V30 690 H 64.4693 3.83459 1.74748 0
M  V30 691 H 63.1443 2.64465 1.86655 0
M  V30 692 H 62.0513 3.7368 -0.177271 0
M  V30 693 H 63.3843 4.91736 -0.213566 0
M  V30 694 N 65.0364 0.313813 1.54444 0
M  V30 695 C 65.9694 -0.598866 2.20202 0
M  V30 696 C 66.9474 -1.12318 1.17573 0
M  V30 697 O 68.1314 -1.18899 1.46271 0
M  V30 698 C 65.2584 -1.82071 2.85601 0
M  V30 699 C 64.3044 -1.42851 4.01865 0
M  V30 700 S 65.1374 -0.473512 5.33402 0
M  V30 701 C 66.2934 -1.70286 6.0229 0
M  V30 702 H 66.5264 -0.0402532 2.97273 0
M  V30 703 H 64.0594 0.0979165 1.54089 0
M  V30 704 H 66.0174 -2.52184 3.23904 0
M  V30 705 H 64.6784 -2.3505 2.08351 0
M  V30 706 H 63.8714 -2.33871 4.46453 0
M  V30 707 H 63.4734 -0.807198 3.65185 0
M  V30 708 H 65.7654 -2.64168 6.23876 0
M  V30 709 H 66.7084 -1.29932 6.96077 0
M  V30 710 H 67.1164 -1.88541 5.32083 0
M  V30 711 N 66.5145 -1.57545 0.0417849 0
M  V30 712 C 67.7625 -1.91937 -0.632829 0
M  V30 713 C 68.0835 -0.919978 -1.71934 0
M  V30 714 O 67.3535 0.0366064 -1.95866 0
M  V30 715 H 65.9335 -0.708493 -0.236742 0
M  V30 716 H 68.5955 -1.9468 0.0925745 0
M  V30 717 H 67.6915 -2.92912 -1.07746 0
M  V30 718 N 67.9926 0.231505 -1.5589 0
M  V30 719 C 68.9396 1.28682 -1.91598 0
M  V30 720 C 69.9096 1.47071 -0.771974 0
M  V30 721 O 71.0946 1.60802 -1.027 0
M  V30 722 C 68.2346 2.6342 -2.22944 0
M  V30 723 C 67.3476 2.52912 -3.50228 0
M  V30 724 C 66.4826 3.80106 -3.7107 0
M  V30 725 C 65.5216 3.64279 -4.91902 0
M  V30 726 N 64.6586 4.834 -5.09184 0
M  V30 727 H 69.4986 0.975305 -2.81588 0
M  V30 728 H 67.0356 0.470299 -1.39379 0
M  V30 729 H 68.9936 3.41869 -2.39126 0
M  V30 730 H 67.6236 2.92687 -1.36139 0
M  V30 731 H 66.6756 1.6595 -3.42294 0
M  V30 732 H 67.9876 2.37133 -4.38827 0
M  V30 733 H 67.1416 4.66999 -3.87295 0
M  V30 734 H 65.8806 3.98799 -2.80733 0
M  V30 735 H 64.8856 2.7577 -4.75637 0
M  V30 736 H 66.1106 3.47067 -5.83714 0
M  V30 737 H 64.0566 5.02425 -4.21788 0
M  V30 738 H 63.9736 4.70311 -5.91898 0
M  V30 739 H 65.2416 5.71747 -5.29835 0
M  V30 740 N 69.4707 1.49531 0.497807 0
M  V30 741 C 70.6987 1.62893 1.27567 0
M  V30 742 C 71.1137 0.301585 1.86376 0
M  V30 743 O 70.4707 -0.713335 1.67982 0
M  V30 744 C 70.5217 2.70013 2.40364 0
M  V30 745 O 70.2427 3.976 1.83972 0
M  V30 746 C 71.7437 2.94109 3.31685 0
M  V30 747 H 68.9637 0.548298 0.386794 0
M  V30 748 H 71.5077 1.95584 0.597245 0
M  V30 749 H 69.6627 2.40092 3.04031 0
M  V30 750 H 70.0767 4.56631 2.58047 0
M  V30 751 H 71.5507 3.72788 4.07104 0
M  V30 752 H 72.0277 2.04147 3.88871 0
M  V30 753 H 72.6337 3.2546 2.73781 0
M  V30 754 N 70.9488 -0.749086 1.3866 0
M  V30 755 C 71.8968 -1.88428 1.36373 0
M  V30 756 C 72.8908 -1.67561 0.248929 0
M  V30 757 O 74.0968 -1.75074 0.41821 0
M  V30 758 H 70.4718 -0.620023 0.42553 0
M  V30 759 H 72.4428 -1.87473 2.32156 0
M  V30 760 C 71.1918 -3.25961 1.21014 0
M  V30 761 H 70.5148 -3.42607 2.06059 0
M  V30 762 H 71.9548 -4.05625 1.23469 0
M  V30 763 C 70.4138 -3.36799 -0.0825941 0
M  V30 764 O 70.9438 -3.87517 -1.05797 0
M  V30 765 N 69.1498 -2.90258 -0.140939 0
M  V30 766 H 68.6968 -2.49174 0.653477 0
M  V30 767 H 68.6548 -2.97889 -1.00545 0
M  V30 768 N 72.4269 -1.23603 -0.977757 0
M  V30 769 C 73.6759 -1.06377 -1.71368 0
M  V30 770 C 73.9889 0.399062 -1.91486 0
M  V30 771 O 75.1949 0.691312 -2.62551 0
M  V30 772 C 73.6509 -1.85512 -3.08404 0
M  V30 773 C 73.2589 -3.36141 -2.96164 0
M  V30 774 C 75.0029 -1.76783 -3.85938 0
M  V30 775 C 72.9099 -4.07659 -4.28449 0
M  V30 776 H 71.8399 -0.394452 -0.642591 0
M  V30 777 H 74.4909 -1.47594 -1.09034 0
M  V30 778 H 72.8729 -1.37103 -3.71509 0
M  V30 779 H 74.0469 -3.92056 -2.42133 0
M  V30 780 H 72.3619 -3.45712 -2.32104 0
M  V30 781 H 74.9589 -2.27526 -4.83876 0
M  V30 782 H 75.3019 -0.731116 -4.0983 0
M  V30 783 H 75.8349 -2.22818 -3.2954 0
M  V30 784 H 72.5739 -5.11648 -4.09752 0
M  V30 785 H 72.0939 -3.5653 -4.82334 0
M  V30 786 H 73.7729 -4.141 -4.97122 0
M  V30 787 N 73.905 1.17692 -1.04816 0
M  V30 788 C 74.837 2.21103 -0.603822 0
M  V30 789 C 75.85 1.59411 0.33046 0
M  V30 790 O 77.039 1.7807 0.12379 0
M  V30 791 C 74.139 3.38623 0.136898 0
M  V30 792 C 73.312 4.29888 -0.807137 0
M  V30 793 C 72.371 5.26088 -0.10836 0
M  V30 794 O 71.397 5.64353 -0.741232 0
M  V30 795 N 72.599 5.68882 1.15558 0
M  V30 796 H 75.364 2.59848 -1.49329 0
M  V30 797 H 72.925 1.32553 -0.929587 0
M  V30 798 H 74.917 4.00009 0.614401 0
M  V30 799 H 73.487 2.98508 0.927993 0
M  V30 800 H 72.707 3.65993 -1.46434 0
M  V30 801 H 73.995 4.87759 -1.44807 0
M  V30 802 H 73.393 5.39861 1.69015 0
M  V30 803 H 71.95 6.32429 1.57722 0
M  V30 804 N 75.3831 0.828654 1.34056 0
M  V30 805 C 76.3151 0.212052 2.28217 0
M  V30 806 C 77.3281 -0.601362 1.51286 0
M  V30 807 O 78.5171 -0.430104 1.73241 0
M  V30 808 C 75.6171 -0.72088 3.31144 0
M  V30 809 C 74.7901 0.0509587 4.3737 0
M  V30 810 C 73.8491 -0.803766 5.20025 0
M  V30 811 O 72.8751 -0.246667 5.68665 0
M  V30 812 N 74.0771 -2.1227 5.40298 0
M  V30 813 H 76.8421 1.02105 2.81771 0
M  V30 814 H 74.4031 0.686153 1.46641 0
M  V30 815 H 76.3951 -1.29742 3.8334 0
M  V30 816 H 74.9651 -1.43061 2.77943 0
M  V30 817 H 74.1851 0.808831 3.85813 0
M  V30 818 H 75.4731 0.582065 5.0546 0
M  V30 819 H 74.8711 -2.59898 5.02464 0
M  V30 820 H 73.4281 -2.64796 5.95589 0
M  V30 821 N 76.8612 -1.46375 0.584142 0
M  V30 822 C 77.8082 -2.30323 -0.148286 0
M  V30 823 C 78.7782 -1.40703 -0.882713 0
M  V30 824 O 79.9632 -1.69651 -0.873099 0
M  V30 825 C 77.1032 -3.25196 -1.15507 0
M  V30 826 C 76.2162 -4.29915 -0.423943 0
M  V30 827 C 75.3512 -5.11914 -1.41838 0
M  V30 828 C 74.3902 -6.08381 -0.673736 0
M  V30 829 N 73.5272 -6.83242 -1.6163 0
M  V30 830 H 78.3672 -2.92427 0.573644 0
M  V30 831 H 75.9042 -1.44118 0.294703 0
M  V30 832 H 77.8622 -3.78646 -1.75166 0
M  V30 833 H 76.4922 -2.64898 -1.8447 0
M  V30 834 H 75.5442 -3.7931 0.287714 0
M  V30 835 H 76.8562 -4.98549 0.158128 0
M  V30 836 H 76.0102 -5.69648 -2.08773 0
M  V30 837 H 74.7492 -4.43243 -2.03438 0
M  V30 838 H 73.7542 -5.49799 0.00938483 0
M  V30 839 H 74.9792 -6.79071 -0.0631082 0
M  V30 840 H 72.9252 -6.1728 -2.22038 0
M  V30 841 H 72.8422 -7.48144 -1.08707 0
M  V30 842 H 74.1102 -7.45534 -2.27596 0
M  V30 843 N 78.3393 -0.321999 -1.54275 0
M  V30 844 C 79.5853 0.281461 -2.00837 0
M  V30 845 C 79.9183 1.51909 -1.20985 0
M  V30 846 O 79.1933 1.923 -0.291733 0
M  V30 847 C 79.4763 0.617162 -3.54772 0
M  V30 848 C 79.3293 -0.631064 -4.45351 0
M  V30 849 C 80.6483 1.43542 -4.16033 0
M  V30 850 H 77.7673 0.100826 -0.730071 0
M  V30 851 H 80.4093 -0.438268 -1.84876 0
M  V30 852 H 78.5593 1.23034 -3.68504 0
M  V30 853 H 80.2313 -1.26934 -4.43492 0
M  V30 854 H 78.4743 -1.26025 -4.15091 0
M  V30 855 H 79.1453 -0.351735 -5.50878 0
M  V30 856 H 81.6213 0.917134 -4.05867 0
M  V30 857 H 80.4973 1.63907 -5.23856 0
M  V30 858 H 80.7583 2.43108 -3.69257 0
M  V30 859 N 79.8174 1.5752 -0.0501392 0
M  V30 860 C 80.7654 2.12651 0.942459 0
M  V30 861 C 81.7594 1.05807 1.32292 0
M  V30 862 O 82.9654 1.24217 1.3027 0
M  V30 863 H 79.3404 0.679673 0.321789 0
M  V30 864 H 81.3114 2.94951 0.452356 0
M  V30 865 C 80.0604 2.68565 2.20836 0
M  V30 866 H 79.3834 3.50439 1.92439 0
M  V30 867 H 80.8234 3.10761 2.8845 0
M  V30 868 C 79.2824 1.62291 2.95234 0
M  V30 869 O 79.8124 1.03508 3.88135 0
M  V30 870 N 78.0184 1.33836 2.57946 0
M  V30 871 H 77.5654 1.81826 1.82475 0
M  V30 872 H 77.5234 0.629595 3.08032 0
M  V30 873 N 81.2955 -0.223234 1.56011 0
M  V30 874 C 82.5205 -0.968978 1.83373 0
M  V30 875 C 82.9455 -1.77227 0.630254 0
M  V30 876 O 82.3035 -1.76345 -0.420959 0
M  V30 877 C 82.3515 -1.86363 3.08709 0
M  V30 878 O 81.4555 -2.95873 2.87285 0
M  V30 879 H 80.7965 -0.274461 0.604622 0
M  V30 880 H 83.3265 -0.237056 2.03222 0
M  V30 881 H 83.3365 -2.27376 3.38768 0
M  V30 882 H 82.0115 -1.27319 3.95933 0
M  V30 883 H 80.5885 -2.58818 2.68454 0
M  V30 884 N 82.7736 -1.49793 -0.48987 0
M  V30 885 C 84.0016 -1.63568 -1.26701 0
M  V30 886 C 84.4166 -0.311465 -1.86213 0
M  V30 887 O 83.7736 0.704416 -1.68357 0
M  V30 888 C 83.8246 -2.71284 -2.38929 0
M  V30 889 O 83.5456 -3.9857 -1.81861 0
M  V30 890 C 85.0466 -2.95864 -3.3012 0
M  V30 891 H 82.2666 -0.550342 -0.383881 0
M  V30 892 H 84.8106 -1.95898 -0.586864 0
M  V30 893 H 82.9656 -2.417 -3.02753 0
M  V30 894 H 83.3796 -4.57993 -2.55622 0
M  V30 895 H 84.8536 -3.74941 -4.05121 0
M  V30 896 H 85.3306 -2.06206 -3.87783 0
M  V30 897 H 85.9366 -3.26907 -2.72051 0
M  V30 898 N 84.2517 0.741722 -1.39055 0
M  V30 899 C 85.4987 1.50114 -1.35912 0
M  V30 900 C 85.8267 1.94443 0.0470937 0
M  V30 901 O 85.0817 1.66612 1.02659 0
M  V30 902 C 85.3807 2.7592 -2.27163 0
M  V30 903 C 85.0467 2.50493 -3.74919 0
M  V30 904 C 83.7087 2.43267 -4.1518 0
M  V30 905 C 86.0607 2.28585 -4.684 0
M  V30 906 C 83.3887 2.12166 -5.46994 0
M  V30 907 C 85.7407 1.99002 -6.00484 0
M  V30 908 C 84.4047 1.90241 -6.39816 0
M  V30 909 H 83.6747 0.549306 -0.497336 0
M  V30 910 H 86.3217 0.851896 -1.71508 0
M  V30 911 H 84.6267 3.45553 -1.84663 0
M  V30 912 H 86.3237 3.33923 -2.22028 0
M  V30 913 H 82.9137 2.56992 -3.43006 0
M  V30 914 H 87.0977 2.33139 -4.38132 0
M  V30 915 H 82.3537 2.03901 -5.76398 0
M  V30 916 H 86.5277 1.81057 -6.72452 0
M  V30 917 H 84.1547 1.65907 -7.41875 0
M  V30 918 N 85.7298 1.2412 0.971189 0
M  V30 919 C 87.0068 0.986867 1.6888 0
M  V30 920 C 87.3868 -0.491857 2.0529 0
M  V30 921 O 86.7348 -1.46531 1.75331 0
M  V30 922 C 86.9448 1.9063 2.92338 0
M  V30 923 C 88.2928 2.17515 3.64654 0
M  V30 924 O 89.3168 1.88254 3.02388 0
M  V30 925 O 88.1758 2.6719 4.7673 0
M  V30 926 H 85.2698 0.372944 0.738134 0
M  V30 927 H 87.8158 1.35203 1.02559 0
M  V30 928 H 86.5878 2.90552 2.62097 0
M  V30 929 H 86.2108 1.54408 3.66393 0
M  V30 930 N 87.2079 -1.17134 1.05439 0
M  V30 931 C 88.1559 -2.23289 0.651511 0
M  V30 932 C 89.1499 -1.66186 -0.328411 0
M  V30 933 O 90.3559 -1.78949 -0.194206 0
M  V30 934 H 86.7309 -0.726938 0.192523 0
M  V30 935 H 88.7019 -2.54565 1.55689 0
M  V30 936 C 87.4509 -3.47671 0.0448436 0
M  V30 937 H 86.7739 -3.91918 0.78996 0
M  V30 938 H 88.2139 -4.2353 -0.19964 0
M  V30 939 C 86.6729 -3.14453 -1.20918 0
M  V30 940 O 87.2029 -3.29459 -2.29825 0
M  V30 941 N 85.4089 -2.68657 -1.10779 0
M  V30 942 H 84.9559 -2.56646 -0.221526 0
M  V30 943 H 84.9139 -2.46804 -1.9477 0
M  V30 944 N 88.686 -0.835752 -1.33615 0
M  V30 945 C 89.619 -0.211815 -2.27215 0
M  V30 946 C 90.597 0.639249 -1.49507 0
M  V30 947 O 91.781 0.600193 -1.78689 0
M  V30 948 C 88.908 0.702893 -3.31326 0
M  V30 949 C 87.954 -0.0723049 -4.26439 0
M  V30 950 S 88.787 -1.42811 -5.16106 0
M  V30 951 C 89.943 -0.518613 -6.23748 0
M  V30 952 H 90.176 -1.00533 -2.79786 0
M  V30 953 H 87.709 -0.632336 -1.40858 0
M  V30 954 H 89.667 1.22505 -3.91794 0
M  V30 955 H 88.328 1.47004 -2.77576 0
M  V30 956 H 87.521 0.62359 -5.00127 0
M  V30 957 H 87.123 -0.525424 -3.70291 0
M  V30 958 H 89.415 0.284778 -6.76901 0
M  V30 959 H 90.358 -1.22556 -6.97413 0
M  V30 960 H 90.766 -0.101344 -5.64409 0
M  V30 961 N 90.1641 1.46063 -0.591896 0
M  V30 962 C 91.4111 2.02338 -0.0809991 0
M  V30 963 C 91.7391 1.46228 1.28249 0
M  V30 964 O 90.9941 0.620818 1.85592 0
M  V30 965 C 91.2931 3.57391 0.0249813 0
M  V30 966 C 90.9591 4.32583 -1.27211 0
M  V30 967 C 89.6211 4.52844 -1.62745 0
M  V30 968 C 91.9731 4.75687 -2.13005 0
M  V30 969 C 89.3011 5.13462 -2.83855 0
M  V30 970 C 91.6531 5.37644 -3.3335 0
M  V30 971 C 90.3171 5.5613 -3.69155 0
M  V30 972 H 89.5871 0.740407 -0.0296397 0
M  V30 973 H 92.2341 1.75321 -0.770374 0
M  V30 974 H 90.5391 3.83597 0.797537 0
M  V30 975 H 92.2361 3.98621 0.436184 0
M  V30 976 H 88.8261 4.17116 -0.985499 0
M  V30 977 H 93.0101 4.59782 -1.86855 0
M  V30 978 H 88.2661 5.25965 -3.11722 0
M  V30 979 H 92.4401 5.7 -4.00092 0
M  V30 980 H 90.0671 6.0287 -4.63089 0
M  V30 981 N 91.6422 0.330177 1.54103 0
M  V30 982 C 92.8902 -0.269871 2.0029 0
M  V30 983 C 93.2112 -1.52133 1.21986 0
M  V30 984 O 92.4812 -1.93212 0.323438 0
M  V30 985 H 91.0612 -0.10271 0.739905 0
M  V30 986 H 93.7232 0.448249 1.89675 0
M  V30 987 H 92.8192 -0.52166 3.07709 0
M  V30 988 N 93.1203 -1.57491 0.0584922 0
M  V30 989 C 94.3503 -1.9701 -0.622134 0
M  V30 990 C 94.7583 -0.935034 -1.6448 0
M  V30 991 O 94.1013 0.0882904 -1.83488 0
M  V30 992 C 94.1633 -3.32794 -1.35972 0
M  V30 993 C 93.8273 -4.54343 -0.492043 0
M  V30 994 C 94.8243 -5.19323 0.244901 0
M  V30 995 C 92.5093 -5.00534 -0.420821 0
M  V30 996 C 94.5033 -6.28835 1.04143 0
M  V30 997 C 92.1903 -6.09921 0.379389 0
M  V30 998 C 93.1883 -6.73933 1.10919 0
M  V30 999 O 92.8763 -7.81216 1.89623 0
M  V30 1000 H 92.6083 -0.653127 -0.174359 0
M  V30 1001 H 95.1623 -2.05029 0.123418 0
M  V30 1002 H 93.3923 -3.21351 -2.15105 0
M  V30 1003 H 95.0813 -3.5701 -1.93129 0
M  V30 1004 H 95.8473 -4.8459 0.19939 0
M  V30 1005 H 91.7263 -4.50496 -0.978474 0
M  V30 1006 H 95.2703 -6.7873 1.61157 0
M  V30 1007 H 91.1673 -6.44089 0.426512 0
M  V30 1008 H 91.9353 -7.98029 1.81913 0
M  V30 1009 N 94.5984 0.214957 -1.56127 0
M  V30 1010 C 95.5464 1.28601 -1.93816 0
M  V30 1011 C 96.5404 1.48175 -0.821016 0
M  V30 1012 O 97.7464 1.49271 -1.0059 0
M  V30 1013 H 94.1214 0.431302 -0.616022 0
M  V30 1014 H 96.0924 0.940991 -2.83175 0
M  V30 1015 C 94.8414 2.62779 -2.27689 0
M  V30 1016 H 94.1644 2.48527 -3.13168 0
M  V30 1017 H 95.6044 3.36517 -2.57939 0
M  V30 1018 C 94.0634 3.18285 -1.10436 0
M  V30 1019 O 94.5934 4.00002 -0.368945 0
M  V30 1020 N 92.7994 2.7675 -0.886433 0
M  V30 1021 H 92.3464 2.10404 -1.48619 0
M  V30 1022 H 92.3044 3.14229 -0.103656 0
M  V30 1023 N 96.0765 1.50051 0.48192 0
M  V30 1024 C 97.0245 1.68635 1.60203 0
M  V30 1025 C 98.0185 0.552184 1.60148 0
M  V30 1026 O 99.2245 0.732377 1.64427 0
M  V30 1027 H 95.5995 0.532081 0.531407 0
M  V30 1028 H 97.5705 2.62616 1.41688 0
M  V30 1029 C 96.3195 1.78775 2.9822 0
M  V30 1030 H 95.6425 2.6543 2.98976 0
M  V30 1031 H 97.0825 1.95806 3.7608 0
M  V30 1032 C 95.5415 0.536849 3.32595 0
M  V30 1033 O 96.0715 -0.328897 4.00351 0
M  V30 1034 N 94.2775 0.394091 2.87915 0
M  V30 1035 H 93.8245 1.09962 2.32951 0
M  V30 1036 H 93.7825 -0.441737 3.11281 0
M  V30 1037 N 97.5546 -0.734337 1.39446 0
M  V30 1038 C 98.7826 -1.52358 1.39981 0
M  V30 1039 C 99.1976 -1.88799 -0.0054975 0
M  V30 1040 O 98.5546 -1.54146 -0.976998 0
M  V30 1041 C 98.6056 -2.81072 2.27333 0
M  V30 1042 O 98.3266 -2.46178 3.62392 0
M  V30 1043 C 99.8276 -3.75096 2.36259 0
M  V30 1044 H 97.0476 -0.470806 0.478103 0
M  V30 1045 H 99.5916 -0.907339 1.83269 0
M  V30 1046 H 97.7466 -3.39026 1.87457 0
M  V30 1047 H 98.1606 -3.28866 4.08592 0
M  V30 1048 H 99.6346 -4.62305 3.01626 0
M  V30 1049 H 100.112 -4.16892 1.38194 0
M  V30 1050 H 100.718 -3.23061 2.76608 0
M  V30 1051 N 99.0327 -1.24633 -0.964593 0
M  V30 1052 C 99.9647 -0.999302 -2.06268 0
M  V30 1053 C 100.978 0.0323226 -1.62768 0
M  V30 1054 O 102.167 -0.205079 -1.77318 0
M  V30 1055 C 99.2667 -0.486816 -3.35385 0
M  V30 1056 C 98.4397 -1.5823 -4.07777 0
M  V30 1057 C 97.4987 -1.07191 -5.15166 0
M  V30 1058 O 96.5247 -1.76426 -5.41168 0
M  V30 1059 N 97.7267 0.0920373 -5.80427 0
M  V30 1060 H 100.492 -1.94477 -2.28033 0
M  V30 1061 H 98.0527 -1.15704 -1.13244 0
M  V30 1062 H 100.045 -0.130066 -4.04491 0
M  V30 1063 H 98.6147 0.364459 -3.10468 0
M  V30 1064 H 97.8347 -2.11109 -3.32906 0
M  V30 1065 H 99.1227 -2.31854 -4.52903 0
M  V30 1066 H 98.5207 0.670784 -5.61709 0
M  V30 1067 H 97.0777 0.389905 -6.50633 0
M  V30 1068 N 100.511 1.16574 -1.06058 0
M  V30 1069 C 101.443 2.2045 -0.627239 0
M  V30 1070 C 102.456 1.59752 0.313534 0
M  V30 1071 O 103.645 1.78192 0.104896 0
M  V30 1072 C 100.745 3.3875 0.100974 0
M  V30 1073 C 99.9178 4.29008 -0.852687 0
M  V30 1074 C 98.9768 5.25944 -0.164152 0
M  V30 1075 O 98.0028 5.63535 -0.801047 0
M  V30 1076 N 99.2048 5.70075 1.09518 0
M  V30 1077 H 101.97 2.58249 -1.52077 0
M  V30 1078 H 99.5308 1.3156 -0.943594 0
M  V30 1079 H 101.523 4.00638 0.57194 0
M  V30 1080 H 100.093 2.99476 0.89628 0
M  V30 1081 H 99.3128 3.64419 -1.50308 0
M  V30 1082 H 100.601 4.86195 -1.49972 0
M  V30 1083 H 99.9988 5.41624 1.6328 0
M  V30 1084 H 98.5558 6.34067 1.51006 0
M  V30 1085 N 101.989 0.842826 1.3317 0
M  V30 1086 C 102.919 0.294028 2.31641 0
M  V30 1087 C 103.9 -0.600401 1.59151 0
M  V30 1088 O 105.085 -0.523124 1.87022 0
M  V30 1089 C 102.215 -0.528416 3.43257 0
M  V30 1090 C 101.169 0.27056 4.27144 0
M  V30 1091 C 100.495 -0.675881 5.30411 0
M  V30 1092 C 101.795 1.48981 5.00602 0
M  V30 1093 H 103.489 1.11681 2.77791 0
M  V30 1094 H 101.035 0.538478 1.33553 0
M  V30 1095 H 102.988 -0.922674 4.11175 0
M  V30 1096 H 101.712 -1.38445 2.95805 0
M  V30 1097 H 100.371 0.646427 3.60856 0
M  V30 1098 H 100.019 -1.52842 4.79216 0
M  V30 1099 H 99.7189 -0.145374 5.8742 0
M  V30 1100 H 101.243 -1.06757 6.01195 0
M  V30 1101 H 102.657 1.16849 5.61266 0
M  V30 1102 H 101.054 1.95739 5.6728 0
M  V30 1103 H 102.124 2.25746 4.29147 0
M  V30 1104 N 103.467 -1.45747 0.599634 0
M  V30 1105 C 104.697 -2.06369 0.0977132 0
M  V30 1106 C 105.105 -1.44624 -1.21985 0
M  V30 1107 O 104.448 -0.551831 -1.75216 0
M  V30 1108 C 104.51 -3.59284 -0.124673 0
M  V30 1109 C 104.174 -4.43318 1.10987 0
M  V30 1110 C 105.171 -4.78796 2.02609 0
M  V30 1111 C 102.856 -4.84194 1.33647 0
M  V30 1112 C 104.85 -5.53997 3.15224 0
M  V30 1113 C 102.537 -5.5915 2.46565 0
M  V30 1114 C 103.535 -5.93968 3.37182 0
M  V30 1115 O 103.223 -6.67405 4.48136 0
M  V30 1116 H 102.955 -0.673122 0.0623153 0
M  V30 1117 H 105.509 -1.88104 0.824981 0
M  V30 1118 H 103.739 -3.75919 -0.906745 0
M  V30 1119 H 105.428 -4.01775 -0.577201 0
M  V30 1120 H 106.194 -4.47781 1.86325 0
M  V30 1121 H 102.073 -4.56534 0.64016 0
M  V30 1122 H 105.617 -5.81091 3.85978 0
M  V30 1123 H 101.514 -5.89579 2.62805 0
M  V30 1124 H 102.282 -6.85847 4.46717 0
M  V30 1125 N 104.945 -0.338344 -1.53925 0
M  V30 1126 C 106.175 0.260919 -2.04946 0
M  V30 1127 C 106.583 1.45174 -1.2133 0
M  V30 1128 O 105.926 1.82122 -0.240262 0
M  V30 1129 C 105.988 0.744596 -3.51704 0
M  V30 1130 C 105.652 -0.325883 -4.55837 0
M  V30 1131 C 106.649 -1.16687 -5.06636 0
M  V30 1132 C 104.334 -0.478317 -5.00017 0
M  V30 1133 C 106.328 -2.14588 -6.00192 0
M  V30 1134 C 104.015 -1.46073 -5.93385 0
M  V30 1135 C 105.013 -2.29297 -6.4336 0
M  V30 1136 O 104.701 -3.25867 -7.34892 0
M  V30 1137 H 104.433 0.0551207 -0.673749 0
M  V30 1138 H 106.987 -0.486984 -1.99544 0
M  V30 1139 H 105.217 1.54366 -3.54553 0
M  V30 1140 H 106.906 1.26383 -3.85723 0
M  V30 1141 H 107.672 -1.06016 -4.73271 0
M  V30 1142 H 103.551 0.159613 -4.60724 0
M  V30 1143 H 107.095 -2.79585 -6.39123 0
M  V30 1144 H 102.992 -1.56802 -6.26166 0
M  V30 1145 H 103.76 -3.21278 -7.5281 0
M  V30 1146 N 106.423 1.57458 -0.0668435 0
M  V30 1147 C 107.834 1.80776 0.466558 0
M  V30 1148 C 108.185 0.980361 1.69951 0
M  V30 1149 O 107.31 0.201441 2.1546 0
M  V30 1150 C 107.905 3.27881 0.85321 0
M  V30 1151 C 106.464 3.52062 1.3315 0
M  V30 1152 C 105.611 2.75513 0.314264 0
M  V30 1153 H 108.562 1.5598 -0.292588 0
M  V30 1154 H 108.583 3.39659 1.715 0
M  V30 1155 H 108.095 3.88075 -0.0443439 0
M  V30 1156 H 106.196 2.97167 2.24772 0
M  V30 1157 H 106.309 4.60762 1.31285 0
M  V30 1158 H 104.673 2.42123 0.790492 0
M  V30 1159 H 105.456 3.38442 -0.575477 0
M  V30 1160 N 107.901 -0.206675 1.56239 0
M  V30 1161 C 109.131 -0.943975 1.83773 0
M  V30 1162 C 109.539 -1.77841 0.645703 0
M  V30 1163 O 108.882 -1.79403 -0.395008 0
M  V30 1164 C 108.944 -1.899 3.05251 0
M  V30 1165 C 108.608 -1.24764 4.39639 0
M  V30 1166 C 109.605 -0.630216 5.16066 0
M  V30 1167 C 107.29 -1.25496 4.8637 0
M  V30 1168 C 109.284 -0.0287946 6.37393 0
M  V30 1169 C 106.971 -0.649698 6.07637 0
M  V30 1170 C 107.969 -0.0376845 6.8299 0
M  V30 1171 O 107.657 0.55812 8.0196 0
M  V30 1172 H 107.389 -0.281508 0.614597 0
M  V30 1173 H 109.943 -0.222458 2.04192 0
M  V30 1174 H 108.173 -2.6599 2.80689 0
M  V30 1175 H 109.862 -2.5031 3.1953 0
M  V30 1176 H 110.628 -0.616785 4.81062 0
M  V30 1177 H 106.507 -1.72072 4.27683 0
M  V30 1178 H 110.051 0.449518 6.9615 0
M  V30 1179 H 105.948 -0.660592 6.42111 0
M  V30 1180 H 106.716 0.453891 8.17241 0
M  V30 1181 N 109.379 -1.50304 -0.473955 0
M  V30 1182 C 110.607 -1.64902 -1.24959 0
M  V30 1183 C 111.022 -0.331198 -1.85872 0
M  V30 1184 O 110.379 0.68652 -1.69095 0
M  V30 1185 C 110.43 -2.73803 -2.36038 0
M  V30 1186 O 110.151 -4.00477 -1.77624 0
M  V30 1187 C 111.652 -2.99349 -3.26964 0
M  V30 1188 H 108.872 -0.554383 -0.378022 0
M  V30 1189 H 111.416 -1.9651 -0.566054 0
M  V30 1190 H 109.571 -2.44898 -3.00173 0
M  V30 1191 H 109.985 -4.60678 -2.5075 0
M  V30 1192 H 111.459 -3.79217 -4.01121 0
M  V30 1193 H 111.936 -2.10307 -3.85574 0
M  V30 1194 H 112.542 -3.29774 -2.68569 0
M  V30 1195 N 110.857 0.726932 -1.39834 0
M  V30 1196 C 111.767 1.87131 -1.41489 0
M  V30 1197 C 112.783 1.71239 -0.308757 0
M  V30 1198 O 113.959 1.93701 -0.551529 0
M  V30 1199 C 111.024 3.22811 -1.26468 0
M  V30 1200 C 110.085 3.51039 -2.47124 0
M  V30 1201 C 109.318 4.80245 -2.3281 0
M  V30 1202 O 109.541 5.54537 -1.33585 0
M  V30 1203 O 108.475 5.08554 -3.21957 0
M  V30 1204 H 112.301 1.8869 -2.3797 0
M  V30 1205 H 109.886 0.875837 -1.21035 0
M  V30 1206 H 111.768 4.03877 -1.20255 0
M  V30 1207 H 110.443 3.22005 -0.330862 0
M  V30 1208 H 109.35 2.70027 -2.58914 0
M  V30 1209 H 110.683 3.56632 -3.39227 0
M  V30 1210 N 112.336 1.25143 0.95797 0
M  V30 1211 C 113.284 1.05019 2.07542 0
M  V30 1212 C 114.278 -0.0178751 1.69391 0
M  V30 1213 O 115.484 0.137472 1.79474 0
M  V30 1214 H 111.859 0.32265 0.679265 0
M  V30 1215 H 113.83 1.99759 2.21673 0
M  V30 1216 C 112.579 0.682074 3.40944 0
M  V30 1217 H 111.902 1.49573 3.70767 0
M  V30 1218 H 113.342 0.580945 4.20001 0
M  V30 1219 C 111.801 -0.611608 3.31302 0
M  V30 1220 O 112.331 -1.65465 3.66038 0
M  V30 1221 N 110.537 -0.595982 2.84423 0
M  V30 1222 H 110.084 0.253192 2.56353 0
M  V30 1223 H 110.042 -1.46173 2.78354 0
M  V30 1224 N 113.814 -1.1601 1.06675 0
M  V30 1225 C 115.062 -1.86264 0.784229 0
M  V30 1226 C 115.383 -1.82328 -0.691488 0
M  V30 1227 O 114.653 -1.25947 -1.50047 0
M  V30 1228 H 113.233 -0.689621 0.28711 0
M  V30 1229 H 115.895 -1.40664 1.34906 0
M  V30 1230 H 114.991 -2.91595 1.11259 0
M  V30 1231 N 115.292 -0.849877 -1.32721 0
M  V30 1232 C 116.538 -0.451591 -1.97708 0
M  V30 1233 C 116.871 0.989175 -1.6712 0
M  V30 1234 O 116.146 1.69334 -0.956891 0
M  V30 1235 C 116.429 -0.685598 -3.53513 0
M  V30 1236 C 116.282 -2.17444 -3.93749 0
M  V30 1237 C 117.601 -0.138874 -4.39881 0
M  V30 1238 H 114.72 -0.16555 -0.718166 0
M  V30 1239 H 117.362 -1.06742 -1.57182 0
M  V30 1240 H 115.512 -0.161416 -3.88165 0
M  V30 1241 H 117.184 -2.76433 -3.693 0
M  V30 1242 H 115.427 -2.65476 -3.43081 0
M  V30 1243 H 116.098 -2.28888 -5.02309 0
M  V30 1244 H 118.574 -0.587068 -4.11938 0
M  V30 1245 H 117.45 -0.332213 -5.47894 0
M  V30 1246 H 117.711 0.95806 -4.31594 0
M  V30 1247 N 116.77 1.45427 -0.607355 0
M  V30 1248 C 118 2.06314 -0.108656 0
M  V30 1249 C 118.408 1.45269 1.21217 0
M  V30 1250 O 117.751 0.561115 1.74921 0
M  V30 1251 C 117.813 3.59345 0.105618 0
M  V30 1252 C 117.477 4.42723 -1.13337 0
M  V30 1253 C 118.474 4.77715 -2.05145 0
M  V30 1254 C 116.159 4.83478 -1.36213 0
M  V30 1255 C 118.153 5.52317 -3.18158 0
M  V30 1256 C 115.84 5.57835 -2.49527 0
M  V30 1257 C 116.838 5.92171 -3.40327 0
M  V30 1258 O 116.526 6.65019 -4.51669 0
M  V30 1259 H 116.258 0.672782 -0.0658842 0
M  V30 1260 H 118.812 1.87664 -0.834945 0
M  V30 1261 H 117.042 3.76394 0.886796 0
M  V30 1262 H 118.731 4.02076 0.555886 0
M  V30 1263 H 119.497 4.46787 -1.88697 0
M  V30 1264 H 115.376 4.56188 -0.664362 0
M  V30 1265 H 118.92 5.79036 -3.89054 0
M  V30 1266 H 114.817 5.88177 -2.65928 0
M  V30 1267 H 115.585 6.83469 -4.50348 0
M  V30 1268 N 118.248 0.346503 1.53744 0
M  V30 1269 C 119.195 -0.508914 2.25119 0
M  V30 1270 C 120.165 -1.09315 1.25058 0
M  V30 1271 O 121.35 -1.12921 1.53797 0
M  V30 1272 C 118.49 -1.65246 3.02965 0
M  V30 1273 C 117.603 -1.09525 4.17886 0
M  V30 1274 C 116.738 -2.20634 4.83212 0
M  V30 1275 C 115.777 -1.62279 5.90196 0
M  V30 1276 N 114.914 -2.67143 6.49291 0
M  V30 1277 H 119.754 0.106283 2.9781 0
M  V30 1278 H 117.291 0.0642227 1.4696 0
M  V30 1279 H 119.249 -2.32574 3.4636 0
M  V30 1280 H 117.879 -2.2386 2.32565 0
M  V30 1281 H 116.931 -0.312818 3.79112 0
M  V30 1282 H 118.243 -0.628444 4.94825 0
M  V30 1283 H 117.397 -2.95821 5.29693 0
M  V30 1284 H 116.136 -2.70659 4.05703 0
M  V30 1285 H 115.141 -0.855989 5.43096 0
M  V30 1286 H 116.366 -1.13102 6.69615 0
M  V30 1287 H 114.312 -3.16417 5.74645 0
M  V30 1288 H 114.229 -2.25093 7.21713 0
M  V30 1289 H 115.497 -3.4209 7.00425 0
M  V30 1290 N 119.726 -1.57421 0.075193 0
M  V30 1291 C 120.689 -2.11791 -0.876203 0
M  V30 1292 C 121.689 -1.04268 -1.22412 0
M  V30 1293 O 122.879 -1.30242 -1.15684 0
M  V30 1294 C 120.011 -2.62207 -2.17854 0
M  V30 1295 H 121.204 -2.9716 -0.40444 0
M  V30 1296 H 118.757 -1.55333 -0.173557 0
M  V30 1297 H 119.492 -1.803 -2.6956 0
M  V30 1298 H 119.277 -3.40802 -1.93897 0
M  V30 1299 H 120.767 -3.04335 -2.85955 0
M  V30 1300 N 121.204 0.198386 -1.56346 0
M  V30 1301 C 122.154 1.2499 -1.90687 0
M  V30 1302 C 123.138 1.41158 -0.772217 0
M  V30 1303 O 124.33 1.43584 -1.03502 0
M  V30 1304 C 121.459 2.59542 -2.24706 0
M  V30 1305 C 120.545 2.47181 -3.44619 0
M  V30 1306 N 120.936 2.04495 -4.62618 0
M  V30 1307 C 119.234 2.78082 -3.48692 0
M  V30 1308 C 119.935 2.03945 -5.44776 0
M  V30 1309 N 118.911 2.45323 -4.85095 0
M  V30 1310 H 122.713 0.911149 -2.7942 0
M  V30 1311 H 120.227 0.40684 -1.57221 0
M  V30 1312 H 122.224 3.3549 -2.47491 0
M  V30 1313 H 120.884 2.94244 -1.37298 0
M  V30 1314 H 121.895 1.75256 -4.87345 0
M  V30 1315 H 118.572 3.17002 -2.71691 0
M  V30 1316 H 119.962 1.72872 -6.4928 0
M  V30 1317 N 122.682 1.50554 0.465978 0
M  V30 1318 C 123.912 1.65323 1.23903 0
M  V30 1319 C 124.32 0.338051 1.86155 0
M  V30 1320 O 123.663 -0.690518 1.70228 0
M  V30 1321 C 123.725 2.69048 2.3844 0
M  V30 1322 C 123.389 4.12462 1.96784 0
M  V30 1323 C 124.386 4.98168 1.48745 0
M  V30 1324 C 122.071 4.58407 2.05349 0
M  V30 1325 C 124.065 6.27868 1.0982 0
M  V30 1326 C 121.752 5.88112 1.66035 0
M  V30 1327 C 122.75 6.72668 1.18349 0
M  V30 1328 O 122.438 7.99951 0.795825 0
M  V30 1329 H 122.17 0.558629 0.38067 0
M  V30 1330 H 124.724 1.97561 0.562022 0
M  V30 1331 H 122.954 2.32062 3.09328 0
M  V30 1332 H 124.643 2.72985 3.0039 0
M  V30 1333 H 125.409 4.63885 1.41546 0
M  V30 1334 H 121.288 3.92735 2.41414 0
M  V30 1335 H 124.832 6.93819 0.725293 0
M  V30 1336 H 120.729 6.21914 1.72895 0
M  V30 1337 H 121.497 8.13265 0.924222 0
M  V30 1338 N 124.16 -0.719506 1.40217 0
M  V30 1339 C 125.409 -1.47486 1.37589 0
M  V30 1340 C 125.722 -1.9559 -0.0201568 0
M  V30 1341 O 126.928 -2.70973 -0.169049 0
M  V30 1342 C 125.384 -2.66575 2.41796 0
M  V30 1343 C 124.992 -2.25358 3.87192 0
M  V30 1344 C 126.736 -3.4433 2.48269 0
M  V30 1345 C 124.643 -3.41262 4.83005 0
M  V30 1346 H 123.573 -0.553901 0.511576 0
M  V30 1347 H 126.224 -0.783427 1.65936 0
M  V30 1348 H 124.606 -3.3787 2.06543 0
M  V30 1349 H 125.78 -1.61509 4.31569 0
M  V30 1350 H 124.095 -1.60657 3.84159 0
M  V30 1351 H 126.692 -4.30569 3.17041 0
M  V30 1352 H 127.035 -3.87872 1.51198 0
M  V30 1353 H 127.568 -2.80076 2.82493 0
M  V30 1354 H 124.307 -3.02755 5.81394 0
M  V30 1355 H 123.827 -4.0404 4.43297 0
M  V30 1356 H 125.506 -4.07383 5.02641 0
M  V30 1357 N 125.638 -1.25649 -0.95132 0
M  V30 1358 C 126.585 -1.06323 -2.04851 0
M  V30 1359 C 127.555 0.0286491 -1.66075 0
M  V30 1360 O 128.74 -0.12917 -1.90362 0
M  V30 1361 C 125.88 -0.691529 -3.381 0
M  V30 1362 C 124.993 -1.85861 -3.89974 0
M  V30 1363 C 124.128 -1.43096 -5.11563 0
M  V30 1364 C 123.167 -2.56696 -5.55674 0
M  V30 1365 N 122.304 -2.14684 -6.68472 0
M  V30 1366 H 127.144 -2.00222 -2.20715 0
M  V30 1367 H 124.681 -0.997027 -1.08156 0
M  V30 1368 H 126.639 -0.456963 -4.1469 0
M  V30 1369 H 125.269 0.210474 -3.22113 0
M  V30 1370 H 124.321 -2.20639 -3.09875 0
M  V30 1371 H 125.633 -2.71161 -4.18657 0
M  V30 1372 H 124.787 -1.15624 -5.9558 0
M  V30 1373 H 123.526 -0.548722 -4.84603 0
M  V30 1374 H 122.531 -2.84909 -4.7022 0
M  V30 1375 H 123.756 -3.45503 -5.8464 0
M  V30 1376 H 121.702 -1.28881 -6.43215 0
M  V30 1377 H 121.619 -2.9353 -6.96689 0
M  V30 1378 H 122.887 -1.90397 -7.5589 0
M  V30 1379 N 127.117 1.15442 -1.07289 0
M  V30 1380 C 128.08 2.18358 -0.696591 0
M  V30 1381 C 129.08 1.58637 0.262837 0
M  V30 1382 O 130.27 1.74145 0.0438809 0
M  V30 1383 C 127.402 3.4089 -0.0266151 0
M  V30 1384 H 128.595 2.53162 -1.60776 0
M  V30 1385 H 126.148 1.29893 -0.869342 0
M  V30 1386 H 126.883 3.11653 0.896822 0
M  V30 1387 H 126.668 3.85495 -0.716657 0
M  V30 1388 H 128.158 4.17009 0.222028 0
M  V30 1389 N 128.595 0.856903 1.32268 0
M  V30 1390 C 129.844 0.457599 1.96441 0
M  V30 1391 C 130.157 -0.992426 1.68553 0
M  V30 1392 O 131.363 -1.49727 2.26482 0
M  V30 1393 C 129.819 0.767358 3.51624 0
M  V30 1394 C 129.427 2.23326 3.88367 0
M  V30 1395 C 131.171 0.435887 4.22256 0
M  V30 1396 C 129.078 2.48613 5.36606 0
M  V30 1397 H 128.008 0.167387 0.735185 0
M  V30 1398 H 130.659 1.048 1.5063 0
M  V30 1399 H 129.041 0.106367 3.95857 0
M  V30 1400 H 130.215 2.93623 3.55137 0
M  V30 1401 H 128.53 2.52948 3.30766 0
M  V30 1402 H 131.127 0.602202 5.31298 0
M  V30 1403 H 131.47 -0.622672 4.11617 0
M  V30 1404 H 132.003 1.05286 3.83614 0
M  V30 1405 H 128.742 3.53101 5.52268 0
M  V30 1406 H 128.262 1.82896 5.71235 0
M  V30 1407 H 129.941 2.32676 6.03714 0
M  V30 1408 N 130.073 -1.45103 0.615059 0
M  V30 1409 C 131.021 -2.32331 -0.111791 0
M  V30 1410 C 132.015 -1.46409 -0.852102 0
M  V30 1411 O 133.221 -1.62849 -0.766821 0
M  V30 1412 H 129.596 -0.749993 -0.0549072 0
M  V30 1413 H 131.567 -2.91407 0.642225 0
M  V30 1414 C 130.316 -3.3015 -1.09071 0
M  V30 1415 H 129.639 -3.96265 -0.530485 0
M  V30 1416 H 131.079 -3.93898 -1.56908 0
M  V30 1417 C 129.538 -2.57875 -2.168 0
M  V30 1418 O 130.068 -2.36567 -3.24652 0
M  V30 1419 N 128.274 -2.17884 -1.92289 0
M  V30 1420 H 127.821 -2.35413 -1.04587 0
M  V30 1421 H 127.779 -1.6985 -2.64572 0
M  V30 1422 N 131.551 -0.354651 -1.53558 0
M  V30 1423 C 132.962 0.126902 -1.86268 0
M  V30 1424 C 133.313 1.49075 -1.27558 0
M  V30 1425 O 132.438 2.08105 -0.5934 0
M  V30 1426 C 133.033 0.237046 -3.3797 0
M  V30 1427 C 131.592 0.662842 -3.70518 0
M  V30 1428 C 130.739 -0.196652 -2.76602 0
M  V30 1429 H 133.69 -0.573849 -1.47962 0
M  V30 1430 H 133.711 1.06259 -3.65362 0
M  V30 1431 H 133.223 -0.755725 -3.80671 0
M  V30 1432 H 131.324 1.66424 -3.33367 0
M  V30 1433 H 131.437 0.445034 -4.77029 0
M  V30 1434 H 129.801 0.332763 -2.52517 0
M  V30 1435 H 130.584 -1.18676 -3.22135 0
M  V30 1436 N 133.029 1.57378 -0.0835403 0
M  V30 1437 C 134.306 1.85363 0.624507 0
M  V30 1438 C 134.686 0.978239 1.87066 0
M  V30 1439 O 134.034 0.0475908 2.2845 0
M  V30 1440 C 134.244 3.35795 0.950947 0
M  V30 1441 C 135.592 4.03581 1.31939 0
M  V30 1442 O 136.616 3.40609 1.04232 0
M  V30 1443 O 135.475 5.14672 1.83779 0
M  V30 1444 H 132.569 0.766162 0.311329 0
M  V30 1445 H 135.115 1.69307 -0.115362 0
M  V30 1446 H 133.887 3.91244 0.0663899 0
M  V30 1447 H 133.51 3.57154 1.74719 0
M  V30 1448 N 134.507 -0.190092 1.56449 0
M  V30 1449 C 135.417 -1.25591 1.98152 0
M  V30 1450 C 136.433 -1.49519 0.889944 0
M  V30 1451 O 137.609 -1.62036 1.19609 0
M  V30 1452 C 134.674 -2.57916 2.3169 0
M  V30 1453 C 133.735 -2.42015 3.5458 0
M  V30 1454 C 132.968 -3.6803 3.8651 0
M  V30 1455 O 133.191 -4.72413 3.1966 0
M  V30 1456 O 132.125 -3.6326 4.79923 0
M  V30 1457 H 135.951 -0.931988 2.89046 0
M  V30 1458 H 133.536 -0.395488 1.4407 0
M  V30 1459 H 135.418 -3.36008 2.54316 0
M  V30 1460 H 134.093 -2.89925 1.43963 0
M  V30 1461 H 133 -1.62017 3.37196 0
M  V30 1462 H 134.333 -2.14937 4.4279 0
M  V30 1463 N 135.985 -1.50799 -0.457987 0
M  V30 1464 C 137.233 -1.62121 -1.2067 0
M  V30 1465 C 137.554 -0.329793 -1.92191 0
M  V30 1466 O 136.824 0.653409 -1.84682 0
M  V30 1467 H 135.404 -0.597441 -0.448411 0
M  V30 1468 H 138.066 -1.87637 -0.527096 0
M  V30 1469 H 137.162 -2.43882 -1.94751 0
M  V30 1470 N 137.463 0.71206 -1.40597 0
M  V30 1471 C 138.74 1.46536 -1.29563 0
M  V30 1472 C 139.12 2.10931 0.0844217 0
M  V30 1473 O 138.468 2.00418 1.0975 0
M  V30 1474 C 138.678 2.49821 -2.43701 0
M  V30 1475 C 140.026 3.15551 -2.841 0
M  V30 1476 O 141.05 2.60142 -2.4332 0
M  V30 1477 O 139.909 4.15867 -3.54566 0
M  V30 1478 H 137.003 0.651801 -0.509004 0
M  V30 1479 H 139.549 0.743935 -1.52524 0
M  V30 1480 H 138.321 2.00778 -3.35863 0
M  V30 1481 H 137.944 3.29495 -2.22528 0
M  V30 1482 N 138.941 1.26152 0.944643 0
M  V30 1483 C 140.218 1.02247 1.66748 0
M  V30 1484 C 140.598 -0.448202 2.06287 0
M  V30 1485 O 139.946 -1.42779 1.78399 0
M  V30 1486 C 140.156 1.96788 2.88228 0
M  V30 1487 C 141.504 2.25201 3.59958 0
M  V30 1488 O 142.528 1.94626 2.98327 0
M  V30 1489 O 141.387 2.77242 4.70956 0
M  V30 1490 H 138.481 0.388517 0.730057 0
M  V30 1491 H 141.027 1.37348 0.99668 0
M  V30 1492 H 139.799 2.96047 2.55875 0
M  V30 1493 H 139.422 1.62145 3.63035 0
M  V30 1494 N 140.419 -1.14872 1.07899 0
M  V30 1495 C 141.668 -1.85135 0.800499 0
M  V30 1496 C 141.981 -1.83547 -0.676014 0
M  V30 1497 O 143.187 -2.49548 -1.06948 0
M  V30 1498 C 141.643 -3.3231 1.38197 0
M  V30 1499 C 141.251 -3.42329 2.8899 0
M  V30 1500 C 142.995 -4.0772 1.18174 0
M  V30 1501 C 140.902 -4.83684 3.403 0
M  V30 1502 H 139.832 -0.693563 0.29578 0
M  V30 1503 H 142.483 -1.29532 1.29976 0
M  V30 1504 H 140.865 -3.87618 0.810431 0
M  V30 1505 H 142.039 -2.97097 3.52236 0
M  V30 1506 H 140.354 -2.80369 3.07867 0
M  V30 1507 H 142.951 -5.12049 1.5398 0
M  V30 1508 H 143.294 -4.16124 0.12117 0
M  V30 1509 H 143.827 -3.58696 1.71994 0
M  V30 1510 H 140.566 -4.80465 4.45907 0
M  V30 1511 H 140.086 -5.29474 2.81811 0
M  V30 1512 H 141.765 -5.52558 3.36584 0
M  V30 1513 N 141.898 -0.863906 -1.31812 0
M  V30 1514 C 143.314 -0.555004 -1.49639 0
M  V30 1515 C 143.514 0.912266 -1.79666 0
M  V30 1516 O 142.57 1.69479 -1.87171 0
M  V30 1517 C 143.883 -1.44998 -2.63431 0
M  V30 1518 C 145.431 -1.45138 -2.77316 0
M  V30 1519 C 145.906 -2.33179 -3.94197 0
M  V30 1520 N 147.397 -2.31025 -4.01474 0
M  V30 1521 C 148.132 -2.95871 -4.9117 0
M  V30 1522 N 147.628 -3.69863 -5.8581 0
M  V30 1523 N 149.421 -2.85211 -4.84367 0
M  V30 1524 H 141.572 -1.81339 -1.10589 0
M  V30 1525 H 143.835 -0.77505 -0.545895 0
M  V30 1526 H 143.541 -2.49377 -2.48 0
M  V30 1527 H 143.415 -1.14409 -3.59431 0
M  V30 1528 H 145.802 -0.415201 -2.92164 0
M  V30 1529 H 145.883 -1.79747 -1.82001 0
M  V30 1530 H 145.527 -3.3687 -3.80107 0
M  V30 1531 H 145.457 -1.95897 -4.88807 0
M  V30 1532 H 147.948 -1.77238 -3.33759 0
M  V30 1533 H 148.261 -4.16486 -6.50968 0
M  V30 1534 H 146.606 -3.73971 -5.85808 0
M  V30 1535 H 149.797 -2.26948 -4.09405 0
M  V30 1536 H 149.97 -3.36027 -5.54066 0
M  V30 1537 N 143.376 1.44774 -0.622745 0
M  V30 1538 C 144.604 2.06487 -0.130722 0
M  V30 1539 C 145.019 1.46476 1.19123 0
M  V30 1540 O 144.376 0.584502 1.72887 0
M  V30 1541 C 144.427 3.615 -0.000807207 0
M  V30 1542 O 144.148 4.19274 -1.27048 0
M  V30 1543 C 145.649 4.40229 0.520898 0
M  V30 1544 H 142.869 0.666704 -0.0758106 0
M  V30 1545 H 145.413 1.85779 -0.854774 0
M  V30 1546 H 143.568 3.81498 0.673643 0
M  V30 1547 H 143.982 5.12622 -1.1099 0
M  V30 1548 H 145.456 5.49144 0.560838 0
M  V30 1549 H 145.933 4.1108 1.54627 0
M  V30 1550 H 146.539 4.25131 -0.120018 0
M  V30 1551 N 144.854 0.36279 1.53368 0
M  V30 1552 C 145.764 -0.492994 2.29362 0
M  V30 1553 C 146.78 -1.09507 1.35219 0
M  V30 1554 O 147.956 -1.10662 1.68273 0
M  V30 1555 C 145.021 -1.61855 3.066 0
M  V30 1556 C 144.082 -1.04429 4.16405 0
M  V30 1557 C 143.315 -2.11621 4.89951 0
M  V30 1558 O 143.538 -3.32684 4.63333 0
M  V30 1559 O 142.472 -1.74835 5.75948 0
M  V30 1560 H 146.298 0.125331 3.03441 0
M  V30 1561 H 143.883 0.127253 1.48857 0
M  V30 1562 H 145.765 -2.27302 3.54841 0
M  V30 1563 H 144.44 -2.22233 2.3536 0
M  V30 1564 H 143.347 -0.353819 3.72423 0
M  V30 1565 H 144.68 -0.485113 4.89804 0
M  V30 1566 N 146.332 -1.57332 0.0918853 0
M  V30 1567 C 147.58 -1.93853 -0.571446 0
M  V30 1568 C 147.901 -0.974212 -1.6892 0
M  V30 1569 O 147.171 -0.0257254 -1.95883 0
M  V30 1570 H 145.751 -0.715666 -0.214082 0
M  V30 1571 H 148.413 -1.94287 0.154464 0
M  V30 1572 H 147.509 -2.96191 -0.983729 0
M  V30 1573 N 147.81 0.181792 -1.56548 0
M  V30 1574 C 148.742 1.24956 -1.92142 0
M  V30 1575 C 149.755 1.41022 -0.813422 0
M  V30 1576 O 150.944 1.41212 -1.09186 0
M  V30 1577 C 148.044 2.61981 -2.14987 0
M  V30 1578 C 147.217 2.6735 -3.46183 0
M  V30 1579 C 146.276 3.85664 -3.5798 0
M  V30 1580 O 145.302 3.72148 -4.30691 0
M  V30 1581 N 146.504 5.01683 -2.92053 0
M  V30 1582 H 149.269 0.947329 -2.84334 0
M  V30 1583 H 146.83 0.371629 -1.57577 0
M  V30 1584 H 148.822 3.3958 -2.20154 0
M  V30 1585 H 147.392 2.84637 -1.2923 0
M  V30 1586 H 146.612 1.75925 -3.52766 0
M  V30 1587 H 147.9 2.67939 -4.32534 0
M  V30 1588 H 147.298 5.15564 -2.32832 0
M  V30 1589 H 145.855 5.77181 -3.0283 0
M  V30 1590 N 149.288 1.51039 0.449983 0
M  V30 1591 C 150.513 1.6715 1.22783 0
M  V30 1592 C 150.938 0.363081 1.84563 0
M  V30 1593 O 150.296 -0.675433 1.68249 0
M  V30 1594 C 150.344 2.77985 2.29689 0
M  V30 1595 O 149.448 2.40707 3.34864 0
M  V30 1596 H 148.789 0.557746 0.360299 0
M  V30 1597 H 151.319 1.97535 0.533005 0
M  V30 1598 H 151.329 3.01693 2.74673 0
M  V30 1599 H 150.004 3.72935 1.84098 0
M  V30 1600 H 148.581 2.27523 2.95445 0
M  V30 1601 N 150.766 -0.704594 1.40972 0
M  V30 1602 C 152.012 -1.46546 1.41053 0
M  V30 1603 C 152.367 -1.92393 0.0159714 0
M  V30 1604 O 151.66 -1.66017 -0.956506 0
M  V30 1605 C 151.854 -2.698 2.34399 0
M  V30 1606 C 151.683 -2.36008 3.82793 0
M  V30 1607 C 150.453 -2.26812 4.51536 0
M  V30 1608 C 152.651 -1.99565 4.74003 0
M  V30 1609 N 150.633 -1.8581 5.85105 0
M  V30 1610 C 152.004 -1.69251 5.96451 0
M  V30 1611 C 154.059 -1.86296 4.61734 0
M  V30 1612 C 152.762 -1.27003 7.07999 0
M  V30 1613 C 154.788 -1.45452 5.73234 0
M  V30 1614 C 154.15 -1.16043 6.94776 0
M  V30 1615 H 150.249 -0.533896 0.571383 0
M  V30 1616 H 152.833 -0.816061 1.76773 0
M  V30 1617 H 151.004 -3.32473 2.00789 0
M  V30 1618 H 152.736 -3.36214 2.25261 0
M  V30 1619 H 149.491 -2.44913 4.05357 0
M  V30 1620 H 149.915 -1.67817 6.55871 0
M  V30 1621 H 154.557 -2.0769 3.68273 0
M  V30 1622 H 152.275 -1.04353 8.01334 0
M  V30 1623 H 155.861 -1.35748 5.65742 0
M  V30 1624 H 154.741 -0.84915 7.79589 0
M  V30 1625 N 152.244 -1.26651 -0.937939 0
M  V30 1626 C 153.492 -1.12165 -1.68118 0
M  V30 1627 C 153.813 0.334983 -1.92101 0
M  V30 1628 O 153.083 1.23583 -1.52 0
M  V30 1629 H 151.663 -0.412093 -0.623048 0
M  V30 1630 H 154.325 -1.59027 -1.12678 0
M  V30 1631 H 153.421 -1.64289 -2.6536 0
M  V30 1632 N 153.722 1.14298 -1.08507 0
M  V30 1633 C 154.655 2.18447 -0.660004 0
M  V30 1634 C 155.633 1.59242 0.328749 0
M  V30 1635 O 156.817 1.87062 0.232367 0
M  V30 1636 C 153.944 3.38688 0.0290807 0
M  V30 1637 C 152.99 4.1646 -0.919982 0
M  V30 1638 S 153.823 4.77334 -2.42718 0
M  V30 1639 C 154.979 6.00931 -1.75024 0
M  V30 1640 H 155.212 2.54166 -1.54231 0
M  V30 1641 H 152.745 1.25446 -0.900149 0
M  V30 1642 H 154.703 4.08342 0.420378 0
M  V30 1643 H 153.364 3.01289 0.887895 0
M  V30 1644 H 152.557 5.02529 -0.384751 0
M  V30 1645 H 152.159 3.52414 -1.25223 0
M  V30 1646 H 154.451 6.69017 -1.06877 0
M  V30 1647 H 155.394 6.59044 -2.58971 0
M  V30 1648 H 155.802 5.51089 -1.22317 0
M  V30 1649 N 155.201 0.870884 1.31352 0
M  V30 1650 C 156.429 0.49677 2.00848 0
M  V30 1651 C 156.844 -0.910998 1.65367 0
M  V30 1652 O 156.201 -1.59696 0.883374 0
M  V30 1653 C 156.252 0.645308 3.55694 0
M  V30 1654 O 155.973 1.99764 3.89905 0
M  V30 1655 C 157.474 0.272326 4.42463 0
M  V30 1656 H 154.694 0.193462 0.642506 0
M  V30 1657 H 157.238 1.1723 1.67563 0
M  V30 1658 H 155.393 0.0173176 3.87396 0
M  V30 1659 H 155.807 2.00607 4.84621 0
M  V30 1660 H 157.281 0.427208 5.50344 0
M  V30 1661 H 157.758 -0.788587 4.32062 0
M  V30 1662 H 158.364 0.876054 4.1618 0
M  V30 1663 N 156.679 -1.44442 0.630414 0
M  V30 1664 C 157.642 -2.29107 -0.0652523 0
M  V30 1665 C 158.642 -1.41002 -0.772995 0
M  V30 1666 O 159.832 -1.62881 -0.617692 0
M  V30 1667 C 156.964 -3.22564 -1.10296 0
M  V30 1668 H 158.157 -2.92103 0.679401 0
M  V30 1669 H 155.71 -1.51343 0.390517 0
M  V30 1670 H 156.445 -2.64416 -1.87762 0
M  V30 1671 H 156.23 -3.87491 -0.59941 0
M  V30 1672 H 157.72 -3.86167 -1.5895 0
M  V30 1673 N 158.157 -0.370918 -1.53173 0
M  V30 1674 C 159.12 0.460778 -2.24521 0
M  V30 1675 C 160.12 1.00536 -1.25496 0
M  V30 1676 O 161.31 0.890266 -1.49733 0
M  V30 1677 C 158.442 1.64457 -2.98608 0
M  V30 1678 H 159.635 -0.163613 -2.99453 0
M  V30 1679 H 157.188 -0.122699 -1.55818 0
M  V30 1680 H 157.923 2.30691 -2.2793 0
M  V30 1681 H 157.708 1.26099 -3.7127 0
M  V30 1682 H 159.198 2.23384 -3.5283 0
M  V30 1683 N 159.635 1.57281 -0.100228 0
M  V30 1684 C 160.881 1.94826 0.563101 0
M  V30 1685 C 161.214 0.982475 1.67514 0
M  V30 1686 O 160.489 0.0164069 1.94493 0
M  V30 1687 C 160.772 3.42453 1.11346 0
M  V30 1688 C 160.625 4.498 0.00612081 0
M  V30 1689 C 161.944 3.91506 2.01024 0
M  V30 1690 H 159.063 0.708428 0.203221 0
M  V30 1691 H 161.705 1.8922 -0.171979 0
M  V30 1692 H 159.855 3.47361 1.7399 0
M  V30 1693 H 161.527 4.57 -0.628357 0
M  V30 1694 H 159.77 4.28756 -0.659581 0
M  V30 1695 H 160.441 5.50306 0.432109 0
M  V30 1696 H 162.917 3.88784 1.48278 0
M  V30 1697 H 161.793 4.95358 2.36457 0
M  V30 1698 H 162.054 3.31099 2.92961 0
M  V30 1699 N 161.113 -0.173488 1.56642 0
M  V30 1700 C 162.046 -1.24353 1.91342 0
M  V30 1701 C 163.024 -1.4289 0.775965 0
M  V30 1702 O 164.208 -1.57932 1.02907 0
M  V30 1703 C 161.335 -2.60683 2.16245 0
M  V30 1704 C 160.381 -2.58894 3.38934 0
M  V30 1705 S 161.214 -2.0819 4.93373 0
M  V30 1706 C 162.37 -3.46302 5.21369 0
M  V30 1707 H 162.603 -0.947345 2.81803 0
M  V30 1708 H 160.136 -0.377958 1.49703 0
M  V30 1709 H 162.094 -3.39149 2.31275 0
M  V30 1710 H 160.755 -2.87502 1.26496 0
M  V30 1711 H 159.948 -3.59188 3.53553 0
M  V30 1712 H 159.55 -1.88522 3.2301 0
M  V30 1713 H 161.842 -4.42287 5.13214 0
M  V30 1714 H 162.785 -3.3656 6.23003 0
M  V30 1715 H 163.193 -3.42214 4.48943 0
M  V30 1716 N 162.591 -1.51276 -0.441967 0
M  V30 1717 C 163.521 -1.752 -1.54361 0
M  V30 1718 C 164.502 -0.601682 -1.59103 0
M  V30 1719 O 165.687 -0.843913 -1.74905 0
M  V30 1720 C 162.817 -1.87282 -2.92477 0
M  V30 1721 C 161.771 -3.02687 -3.02596 0
M  V30 1722 C 161.097 -2.99947 -4.42647 0
M  V30 1723 C 162.397 -4.4273 -2.77106 0
M  V30 1724 H 164.091 -2.67442 -1.34592 0
M  V30 1725 H 161.637 -1.28694 -0.646048 0
M  V30 1726 H 163.59 -2.02602 -3.695 0
M  V30 1727 H 162.314 -0.916844 -3.13467 0
M  V30 1728 H 160.973 -2.87065 -2.28012 0
M  V30 1729 H 160.621 -2.02136 -4.60597 0
M  V30 1730 H 160.321 -3.77439 -4.50348 0
M  V30 1731 H 161.845 -3.17354 -5.2165 0
M  V30 1732 H 163.259 -4.58727 -3.43864 0
M  V30 1733 H 161.656 -5.21893 -2.96222 0
M  V30 1734 H 162.726 -4.53087 -1.72744 0
M  V30 1735 N 164.069 0.697108 -1.41344 0
M  V30 1736 C 165.017 1.83237 -1.43272 0
M  V30 1737 C 166.011 1.66522 -0.310947 0
M  V30 1738 O 167.217 1.73402 -0.482899 0
M  V30 1739 H 163.592 0.603802 -0.448249 0
M  V30 1740 H 165.563 1.78727 -2.38954 0
M  V30 1741 C 164.312 3.21245 -1.33029 0
M  V30 1742 H 163.635 3.34723 -2.18633 0
M  V30 1743 H 165.075 4.00763 -1.38439 0
M  V30 1744 C 163.534 3.36873 -0.0424635 0
M  V30 1745 O 164.064 3.91177 0.913421 0
M  V30 1746 N 162.27 2.90581 0.0331145 0
M  V30 1747 H 161.817 2.46577 -0.745506 0
M  V30 1748 H 161.775 3.01416 0.894199 0
M  V30 1749 N 165.547 1.27147 0.931209 0
M  V30 1750 C 166.494 1.09568 2.03134 0
M  V30 1751 C 167.464 -0.00222433 1.661 0
M  V30 1752 O 168.649 0.159439 1.90133 0
M  V30 1753 C 165.789 0.745231 3.36957 0
M  V30 1754 C 164.902 1.92041 3.86968 0
M  V30 1755 C 164.037 1.51216 5.09222 0
M  V30 1756 C 163.076 2.65504 5.5152 0
M  V30 1757 N 162.213 2.25291 6.64972 0
M  V30 1758 H 167.053 2.03708 2.17502 0
M  V30 1759 H 164.59 1.01411 1.06556 0
M  V30 1760 H 166.548 0.522878 4.1391 0
M  V30 1761 H 165.178 -0.159202 3.22407 0
M  V30 1762 H 164.23 2.25541 3.06326 0
M  V30 1763 H 165.542 2.77787 4.1429 0
M  V30 1764 H 164.696 1.25084 5.93666 0
M  V30 1765 H 163.435 0.625749 4.83669 0
M  V30 1766 H 162.44 2.92354 4.65628 0
M  V30 1767 H 163.665 3.54761 5.7907 0
M  V30 1768 H 161.611 1.39098 6.41083 0
M  V30 1769 H 161.528 3.04577 6.91931 0
M  V30 1770 H 162.796 2.02398 7.52765 0
M  V30 1771 N 167.025 -1.13721 1.09112 0
M  V30 1772 C 167.957 -2.1871 0.685467 0
M  V30 1773 C 168.97 -1.60527 -0.271068 0
M  V30 1774 O 170.159 -1.78407 -0.0576148 0
M  V30 1775 C 167.259 -3.38898 -0.0111255 0
M  V30 1776 C 166.432 -4.26597 0.966131 0
M  V30 1777 C 165.491 -5.25324 0.303539 0
M  V30 1778 O 164.517 -5.61213 0.950177 0
M  V30 1779 N 165.719 -5.72779 -0.943651 0
M  V30 1780 H 168.484 -2.54126 1.58871 0
M  V30 1781 H 166.045 -1.29012 0.978143 0
M  V30 1782 H 168.037 -4.02014 -0.465517 0
M  V30 1783 H 166.607 -3.01747 -0.816565 0
M  V30 1784 H 165.827 -3.60306 1.59917 0
M  V30 1785 H 167.115 -4.82048 1.6281 0
M  V30 1786 H 166.513 -5.45762 -1.48862 0
M  V30 1787 H 165.07 -6.37847 -1.34142 0
M  V30 1788 N 168.503 -0.877838 -1.30888 0
M  V30 1789 C 169.413 -0.343096 -2.32078 0
M  V30 1790 C 170.429 0.551022 -1.65045 0
M  V30 1791 O 171.605 0.445854 -1.96403 0
M  V30 1792 C 168.67 0.439905 -3.43898 0
M  V30 1793 C 167.731 -0.483111 -4.26573 0
M  V30 1794 C 166.964 0.262616 -5.33053 0
M  V30 1795 O 167.187 1.48967 -5.50604 0
M  V30 1796 O 166.121 -0.383593 -6.00676 0
M  V30 1797 H 169.947 -1.18203 -2.79753 0
M  V30 1798 H 167.532 -0.64145 -1.34929 0
M  V30 1799 H 169.414 0.883504 -4.12034 0
M  V30 1800 H 168.089 1.25526 -2.98371 0
M  V30 1801 H 166.996 -0.975374 -3.61161 0
M  V30 1802 H 168.329 -1.26427 -4.75686 0
M  V30 1803 N 169.982 1.44106 -0.638065 0
M  V30 1804 C 170.892 2.34513 0.0637334 0
M  V30 1805 C 171.908 1.53018 0.828346 0
M  V30 1806 O 173.084 1.85723 0.779036 0
M  V30 1807 C 170.149 3.31095 1.02844 0
M  V30 1808 C 169.21 4.28497 0.26244 0
M  V30 1809 C 168.443 5.20465 1.1812 0
M  V30 1810 O 168.666 5.16514 2.42011 0
M  V30 1811 O 167.6 5.98251 0.661774 0
M  V30 1812 H 171.426 2.95989 -0.68003 0
M  V30 1813 H 169.011 1.43994 -0.398252 0
M  V30 1814 H 170.893 3.90526 1.58327 0
M  V30 1815 H 169.568 2.72144 1.7527 0
M  V30 1816 H 168.475 3.72592 -0.335602 0
M  V30 1817 H 169.808 4.90388 -0.421936 0
M  V30 1818 N 171.46 0.379036 1.52974 0
M  V30 1819 C 172.707 -0.206421 2.01445 0
M  V30 1820 C 173.035 -1.47668 1.26587 0
M  V30 1821 O 172.29 -1.92514 0.351675 0
M  V30 1822 C 172.589 -0.53096 3.53434 0
M  V30 1823 C 172.255 0.646546 4.46241 0
M  V30 1824 C 170.917 0.969604 4.7133 0
M  V30 1825 C 173.269 1.43479 5.01062 0
M  V30 1826 C 170.597 2.08263 5.48492 0
M  V30 1827 C 172.949 2.53834 5.7944 0
M  V30 1828 C 171.613 2.86659 6.02812 0
M  V30 1829 H 170.883 -0.0755349 0.73714 0
M  V30 1830 H 173.53 0.514271 1.84465 0
M  V30 1831 H 171.835 -1.33285 3.68432 0
M  V30 1832 H 173.532 -0.996417 3.88423 0
M  V30 1833 H 170.122 0.384734 4.2687 0
M  V30 1834 H 174.306 1.19844 4.81613 0
M  V30 1835 H 169.562 2.34078 5.64816 0
M  V30 1836 H 173.736 3.15319 6.20924 0
M  V30 1837 H 171.363 3.73026 6.62387 0
M  V30 1838 N 172.938 -1.57226 0.108567 0
M  V30 1839 C 174.215 -1.86333 -0.594939 0
M  V30 1840 C 174.595 -1.00788 -1.85486 0
M  V30 1841 O 173.943 -0.0839293 -2.28346 0
M  V30 1842 C 174.153 -3.37265 -0.897405 0
M  V30 1843 C 175.501 -4.05629 -1.25501 0
M  V30 1844 O 176.525 -3.42224 -0.987998 0
M  V30 1845 O 175.384 -5.17531 -1.75567 0
M  V30 1846 H 172.478 -0.771018 -0.2991 0
M  V30 1847 H 175.024 -1.69102 0.142283 0
M  V30 1848 H 173.796 -3.913 -0.00413806 0
M  V30 1849 H 173.419 -3.59889 -1.69014 0
M  V30 1850 N 174.416 0.165178 -1.56732 0
M  V30 1851 C 175.364 1.22369 -1.97809 0
M  V30 1852 C 176.358 1.45488 -0.867741 0
M  V30 1853 O 177.564 1.45995 -1.05288 0
M  V30 1854 H 173.939 0.411486 -0.629431 0
M  V30 1855 H 175.91 0.850425 -2.86025 0
M  V30 1856 C 174.659 2.55403 -2.35934 0
M  V30 1857 H 173.982 2.38438 -3.20916 0
M  V30 1858 H 175.422 3.2814 -2.68514 0
M  V30 1859 C 173.881 3.14611 -1.20506 0
M  V30 1860 O 174.411 3.98626 -0.496016 0
M  V30 1861 N 172.617 2.7379 -0.97403 0
M  V30 1862 H 172.164 2.0557 -1.55238 0
M  V30 1863 H 172.122 3.1374 -0.203573 0
M  V30 1864 N 175.894 1.51508 0.433938 0
M  V30 1865 C 176.824 1.76016 1.53429 0
M  V30 1866 C 177.805 0.610112 1.58782 0
M  V30 1867 O 178.99 0.853177 1.74455 0
M  V30 1868 C 176.12 1.88831 2.9148 0
M  V30 1869 C 175.074 3.04288 3.00987 0
M  V30 1870 C 174.4 3.0229 4.4105 0
M  V30 1871 C 175.7 4.44193 2.74754 0
M  V30 1872 H 177.394 2.68152 1.33171 0
M  V30 1873 H 174.94 1.29035 0.639214 0
M  V30 1874 H 176.893 2.04559 3.6842 0
M  V30 1875 H 175.617 0.933455 3.12976 0
M  V30 1876 H 174.276 2.8827 2.26486 0
M  V30 1877 H 173.924 2.04576 4.59519 0
M  V30 1878 H 173.624 3.79822 4.4834 0
M  V30 1879 H 175.148 3.20116 5.1996 0
M  V30 1880 H 176.562 4.60544 3.41426 0
M  V30 1881 H 174.959 5.23457 2.9345 0
M  V30 1882 H 176.029 4.53996 1.70339 0
M  V30 1883 N 177.372 -0.689602 1.41712 0
M  V30 1884 C 178.618 -1.45041 1.42599 0
M  V30 1885 C 178.973 -1.92366 0.0363764 0
M  V30 1886 O 178.266 -1.67022 -0.938844 0
M  V30 1887 C 178.46 -2.67298 2.37247 0
M  V30 1888 C 178.289 -2.31935 3.85274 0
M  V30 1889 C 177.059 -2.2201 4.53916 0
M  V30 1890 C 179.257 -1.94526 4.76093 0
M  V30 1891 N 177.239 -1.79594 5.87043 0
M  V30 1892 C 178.61 -1.62915 5.98213 0
M  V30 1893 C 180.665 -1.81388 4.63684 0
M  V30 1894 C 179.368 -1.19486 7.09306 0
M  V30 1895 C 181.394 -1.39364 5.74745 0
M  V30 1896 C 180.756 -1.08668 6.95967 0
M  V30 1897 H 176.855 -0.527806 0.577014 0
M  V30 1898 H 179.439 -0.797266 1.77628 0
M  V30 1899 H 177.61 -3.30325 2.04304 0
M  V30 1900 H 179.342 -3.33806 2.28814 0
M  V30 1901 H 176.097 -2.406 4.07932 0
M  V30 1902 H 176.521 -1.60851 6.57614 0
M  V30 1903 H 181.163 -2.03772 3.70455 0
M  V30 1904 H 178.881 -0.958477 8.02396 0
M  V30 1905 H 182.467 -1.2974 5.6715 0
M  V30 1906 H 181.347 -0.766417 7.80446 0
M  V30 1907 N 178.85 -1.27639 -0.924453 0
M  V30 1908 C 180.266 -1.05113 -1.20097 0
M  V30 1909 C 180.466 0.213262 -2.00368 0
M  V30 1910 O 179.522 0.91787 -2.35226 0
M  V30 1911 C 180.835 -2.29244 -1.94596 0
M  V30 1912 C 182.383 -2.34315 -2.07522 0
M  V30 1913 C 182.858 -3.58183 -2.85427 0
M  V30 1914 N 184.349 -3.5876 -2.92994 0
M  V30 1915 C 185.084 -4.51277 -3.53746 0
M  V30 1916 N 184.58 -5.54102 -4.15863 0
M  V30 1917 N 186.373 -4.38894 -3.51181 0
M  V30 1918 H 178.524 -2.08821 -0.388264 0
M  V30 1919 H 180.787 -0.918568 -0.234385 0
M  V30 1920 H 180.493 -3.21301 -1.43034 0
M  V30 1921 H 180.367 -2.34816 -2.95197 0
M  V30 1922 H 182.754 -1.42762 -2.58269 0
M  V30 1923 H 182.835 -2.32744 -1.06131 0
M  V30 1924 H 182.479 -4.50074 -2.35363 0
M  V30 1925 H 182.409 -3.57006 -3.8711 0
M  V30 1926 H 184.9 -2.84398 -2.4885 0
M  V30 1927 H 185.213 -6.20859 -4.60168 0
M  V30 1928 H 183.558 -5.57941 -4.144 0
M  V30 1929 H 186.749 -3.57772 -3.01856 0
M  V30 1930 H 186.922 -5.11186 -3.98237 0
M  V30 1931 N 180.328 1.1314 -1.09713 0
M  V30 1932 C 181.575 1.84484 -0.834987 0
M  V30 1933 C 181.903 1.83689 0.639418 0
M  V30 1934 O 181.158 1.2724 1.4869 0
M  V30 1935 C 181.457 3.32167 -1.3191 0
M  V30 1936 C 181.123 3.53139 -2.80363 0
M  V30 1937 C 179.785 3.58571 -3.20905 0
M  V30 1938 C 182.137 3.60866 -3.76065 0
M  V30 1939 C 179.465 3.69267 -4.55916 0
M  V30 1940 C 181.817 3.73089 -5.10869 0
M  V30 1941 C 180.481 3.76775 -5.50996 0
M  V30 1942 H 179.751 0.675073 -0.305544 0
M  V30 1943 H 182.398 1.33554 -1.37243 0
M  V30 1944 H 180.703 3.85469 -0.701517 0
M  V30 1945 H 182.4 3.85821 -1.09284 0
M  V30 1946 H 178.99 3.49569 -2.47991 0
M  V30 1947 H 183.174 3.55946 -3.45855 0
M  V30 1948 H 178.43 3.70388 -4.86438 0
M  V30 1949 H 182.604 3.78011 -5.84877 0
M  V30 1950 H 180.231 3.84815 -6.55608 0
M  V30 1951 N 181.806 0.884767 1.30421 0
M  V30 1952 C 182.769 0.356277 2.26414 0
M  V30 1953 C 183.769 -0.501124 1.52792 0
M  V30 1954 O 184.959 -0.30831 1.7145 0
M  V30 1955 C 182.091 -0.492316 3.37326 0
M  V30 1956 H 183.284 1.20389 2.74675 0
M  V30 1957 H 180.837 0.661607 1.41607 0
M  V30 1958 H 181.572 -1.36052 2.94381 0
M  V30 1959 H 181.357 0.121832 3.91911 0
M  V30 1960 H 182.847 -0.853871 4.08777 0
M  V30 1961 N 183.284 -1.43765 0.645699 0
M  V30 1962 C 184.231 -2.30745 -0.0504648 0
M  V30 1963 C 185.201 -1.4432 -0.822241 0
M  V30 1964 O 186.386 -1.73202 -0.800358 0
M  V30 1965 C 183.526 -3.29802 -1.0161 0
M  V30 1966 C 182.639 -4.31326 -0.241219 0
M  V30 1967 C 181.774 -5.17469 -1.19998 0
M  V30 1968 C 180.813 -6.10691 -0.415094 0
M  V30 1969 N 179.95 -6.89483 -1.32506 0
M  V30 1970 H 184.79 -2.8973 0.697155 0
M  V30 1971 H 182.327 -1.42738 0.355563 0
M  V30 1972 H 184.285 -3.85734 -1.58949 0
M  V30 1973 H 182.915 -2.72483 -1.73069 0
M  V30 1974 H 181.967 -3.77749 0.448334 0
M  V30 1975 H 183.279 -4.9743 0.369437 0
M  V30 1976 H 182.433 -5.7799 -1.84424 0
M  V30 1977 H 181.172 -4.51473 -1.84455 0
M  V30 1978 H 180.177 -5.49265 0.242565 0
M  V30 1979 H 181.402 -6.78727 0.224966 0
M  V30 1980 H 179.348 -6.26142 -1.95657 0
M  V30 1981 H 179.265 -7.52081 -0.768783 0
M  V30 1982 H 180.533 -7.54516 -1.9577 0
M  V30 1983 N 184.763 -0.387143 -1.52771 0
M  V30 1984 C 185.726 0.436939 -2.24997 0
M  V30 1985 C 186.726 0.991991 -1.26555 0
M  V30 1986 O 187.916 0.874335 -1.50669 0
M  V30 1987 C 185.048 1.61281 -3.00335 0
M  V30 1988 H 186.241 -0.195365 -2.99263 0
M  V30 1989 H 183.794 -0.139218 -1.55679 0
M  V30 1990 H 184.529 2.2826 -2.30364 0
M  V30 1991 H 184.314 1.22154 -3.72587 0
M  V30 1992 H 185.804 2.19629 -3.5518 0
M  V30 1993 N 186.241 1.57166 -0.116904 0
M  V30 1994 C 187.471 1.99184 0.548586 0
M  V30 1995 C 187.879 0.995436 1.60897 0
M  V30 1996 O 187.222 -0.0201293 1.83689 0
M  V30 1997 C 187.284 3.37611 1.23526 0
M  V30 1998 C 186.948 4.55857 0.323077 0
M  V30 1999 C 187.945 5.18056 -0.437476 0
M  V30 2000 C 185.63 5.01751 0.234761 0
M  V30 2001 C 187.624 6.24536 -1.2741 0
M  V30 2002 C 185.311 6.08093 -0.605496 0
M  V30 2003 C 186.309 6.69352 -1.35856 0
M  V30 2004 O 185.997 7.7364 -2.18487 0
M  V30 2005 H 185.729 0.659148 0.149999 0
M  V30 2006 H 188.283 2.0443 -0.199428 0
M  V30 2007 H 186.513 3.29113 2.0303 0
M  V30 2008 H 188.202 3.63932 1.79745 0
M  V30 2009 H 188.968 4.83516 -0.379105 0
M  V30 2010 H 184.847 4.53817 0.810601 0
M  V30 2011 H 188.391 6.72281 -1.86237 0
M  V30 2012 H 184.288 6.42063 -0.665268 0
M  V30 2013 H 185.056 7.90727 -2.11406 0
M  V30 2014 N 187.719 -0.156864 1.56817 0
M  V30 2015 C 188.651 -1.21883 1.94106 0
M  V30 2016 C 189.664 -1.3971 0.835754 0
M  V30 2017 O 190.853 -1.39457 1.11418 0
M  V30 2018 C 187.953 -2.58527 2.19127 0
M  V30 2019 C 187.126 -2.61809 3.50393 0
M  V30 2020 C 186.185 -3.7992 3.64071 0
M  V30 2021 O 185.211 -3.65249 4.36557 0
M  V30 2022 N 186.413 -4.96973 2.99997 0
M  V30 2023 H 189.178 -0.901974 2.85805 0
M  V30 2024 H 186.739 -0.346513 1.58148 0
M  V30 2025 H 188.731 -3.36034 2.25529 0
M  V30 2026 H 187.301 -2.82545 1.33742 0
M  V30 2027 H 186.521 -1.7029 3.5552 0
M  V30 2028 H 187.809 -2.61024 4.36742 0
M  V30 2029 H 187.207 -5.11794 2.41004 0
M  V30 2030 H 185.764 -5.7229 3.11974 0
M  V30 2031 N 189.197 -1.51736 -0.425897 0
M  V30 2032 C 190.144 -1.73875 -1.51776 0
M  V30 2033 C 191.114 -0.580702 -1.55618 0
M  V30 2034 O 192.299 -0.81641 -1.72451 0
M  V30 2035 C 189.439 -1.88012 -2.89388 0
M  V30 2036 C 188.552 -3.15606 -2.94986 0
M  V30 2037 C 187.687 -3.20271 -4.23793 0
M  V30 2038 C 186.726 -4.42134 -4.23302 0
M  V30 2039 N 185.863 -4.44284 -5.43651 0
M  V30 2040 H 190.703 -2.67071 -1.32201 0
M  V30 2041 H 188.24 -1.32351 -0.642008 0
M  V30 2042 H 190.198 -1.9419 -3.69251 0
M  V30 2043 H 188.828 -0.98213 -3.07496 0
M  V30 2044 H 187.88 -3.18681 -2.07717 0
M  V30 2045 H 189.192 -4.05486 -2.90486 0
M  V30 2046 H 188.346 -3.25428 -5.12036 0
M  V30 2047 H 187.085 -2.28299 -4.30965 0
M  V30 2048 H 186.09 -4.3714 -3.3345 0
M  V30 2049 H 187.315 -5.35382 -4.17783 0
M  V30 2050 H 185.261 -3.55188 -5.51523 0
M  V30 2051 H 185.178 -5.27988 -5.41078 0
M  V30 2052 H 186.446 -4.53649 -6.33895 0
M  V30 2053 N 190.675 0.682077 -1.42076 0
M  V30 2054 C 191.623 1.81707 -1.45208 0
M  V30 2055 C 192.617 1.66183 -0.328591 0
M  V30 2056 O 193.823 1.7288 -0.501264 0
M  V30 2057 H 190.198 0.599014 -0.454628 0
M  V30 2058 H 192.169 1.76183 -2.40836 0
M  V30 2059 C 190.918 3.19816 -1.36428 0
M  V30 2060 H 190.241 3.32385 -2.22171 0
M  V30 2061 H 191.681 3.99272 -1.42681 0
M  V30 2062 C 190.14 3.36809 -0.078191 0
M  V30 2063 O 190.67 3.92124 0.87188 0
M  V30 2064 N 188.876 2.906 0.00229266 0
M  V30 2065 H 188.423 2.45772 -0.771616 0
M  V30 2066 H 188.381 3.02347 0.862179 0
M  V30 2067 N 192.153 1.28127 0.917671 0
M  V30 2068 C 193.564 1.13622 1.48145 0
M  V30 2069 C 193.915 -0.275207 1.9426 0
M  V30 2070 O 193.04 -1.1691 1.82102 0
M  V30 2071 C 193.635 2.05648 2.69248 0
M  V30 2072 C 192.194 1.95219 3.21818 0
M  V30 2073 C 191.341 1.97618 1.94532 0
M  V30 2074 H 194.292 1.40874 0.730772 0
M  V30 2075 H 194.313 1.61818 3.44377 0
M  V30 2076 H 193.825 3.08365 2.35653 0
M  V30 2077 H 191.926 0.955244 3.60147 0
M  V30 2078 H 192.039 2.81976 3.87333 0
M  V30 2079 H 190.403 1.41973 2.11461 0
M  V30 2080 H 191.186 3.02007 1.63238 0
M  V30 2081 N 193.631 -1.12557 1.10312 0
M  V30 2082 C 194.908 -1.80363 0.756878 0
M  V30 2083 C 195.288 -1.97067 -0.756824 0
M  V30 2084 O 194.636 -1.54601 -1.68259 0
M  V30 2085 C 194.846 -3.14812 1.50647 0
M  V30 2086 C 196.194 -3.90029 1.67817 0
M  V30 2087 O 197.218 -3.24464 1.46974 0
M  V30 2088 O 196.077 -5.07652 2.02365 0
M  V30 2089 H 193.171 -0.780667 0.272926 0
M  V30 2090 H 195.717 -1.19404 1.20586 0
M  V30 2091 H 194.489 -2.97936 2.53672 0
M  V30 2092 H 194.112 -3.83478 1.05026 0
M  V30 2093 N 195.109 -0.891671 -1.2995 0
M  V30 2094 C 196.057 -0.353066 -2.29905 0
M  V30 2095 C 197.051 0.543509 -1.60444 0
M  V30 2096 O 198.257 0.4272 -1.74857 0
M  V30 2097 H 194.632 -0.095531 -0.745907 0
M  V30 2098 H 196.603 -1.20961 -2.72784 0
M  V30 2099 C 195.352 0.411475 -3.45257 0
M  V30 2100 H 194.675 -0.269182 -3.98893 0
M  V30 2101 H 196.115 0.753328 -4.17254 0
M  V30 2102 C 194.574 1.6111 -2.9588 0
M  V30 2103 O 195.104 2.71045 -2.96475 0
M  V30 2104 N 193.31 1.45054 -2.51809 0
M  V30 2105 H 192.857 0.556175 -2.51524 0
M  V30 2106 H 192.815 2.25453 -2.1913 0
M  V30 2107 N 196.587 1.43421 -0.653314 0
M  V30 2108 C 197.537 2.2792 0.060558 0
M  V30 2109 C 198.521 1.39906 0.794677 0
M  V30 2110 O 199.713 1.63536 0.677128 0
M  V30 2111 C 196.842 3.27603 1.0262 0
M  V30 2112 C 195.928 4.23104 0.290551 0
M  V30 2113 N 196.319 5.01031 -0.692967 0
M  V30 2114 C 194.617 4.42816 0.531984 0
M  V30 2115 C 195.318 5.70626 -1.12963 0
M  V30 2116 N 194.294 5.41617 -0.463867 0
M  V30 2117 H 198.096 2.85585 -0.694143 0
M  V30 2118 H 195.61 1.55126 -0.480602 0
M  V30 2119 H 197.607 3.86918 1.55242 0
M  V30 2120 H 196.267 2.71499 1.78096 0
M  V30 2121 H 197.278 5.0669 -1.07169 0
M  V30 2122 H 193.955 3.97782 1.26791 0
M  V30 2123 H 195.345 6.4318 -1.94343 0
M  V30 2124 N 198.065 0.39524 1.52563 0
M  V30 2125 C 199.476 -0.0774719 1.86539 0
M  V30 2126 C 199.827 -1.45641 1.31466 0
M  V30 2127 O 198.952 -2.06459 0.648367 0
M  V30 2128 C 199.547 -0.147356 3.38479 0
M  V30 2129 C 198.106 -0.564373 3.72145 0
M  V30 2130 C 197.253 0.269919 2.75983 0
M  V30 2131 H 200.204 0.612876 1.46388 0
M  V30 2132 H 200.225 -0.965343 3.68051 0
M  V30 2133 H 199.737 0.856387 3.78534 0
M  V30 2134 H 197.838 -1.57527 3.37663 0
M  V30 2135 H 197.951 -0.318402 4.78041 0
M  V30 2136 H 196.315 -0.265696 2.5331 0
M  V30 2137 H 197.098 1.27175 3.18875 0
M  V30 2138 N 199.544 -1.57102 0.125237 0
M  V30 2139 C 200.821 -1.86953 -0.575142 0
M  V30 2140 C 201.201 -1.02749 -1.84407 0
M  V30 2141 O 200.549 -0.108144 -2.28244 0
M  V30 2142 C 200.759 -3.38198 -0.861583 0
M  V30 2143 C 202.107 -4.06937 -1.21192 0
M  V30 2144 O 203.131 -3.43252 -0.951645 0
M  V30 2145 O 201.99 -5.19364 -1.70068 0
M  V30 2146 H 199.084 -0.774147 -0.290906 0
M  V30 2147 H 201.63 -1.68942 0.160211 0
M  V30 2148 H 200.402 -3.91282 0.0373647 0
M  V30 2149 H 200.025 -3.61661 -1.65188 0
M  V30 2150 N 201.022 0.148545 -1.56898 0
M  V30 2151 C 201.985 1.16736 -1.97244 0
M  V30 2152 C 202.985 1.35947 -0.858777 0
M  V30 2153 O 204.175 1.32966 -1.12542 0
M  V30 2154 C 201.307 2.52798 -2.28705 0
M  V30 2155 H 202.5 0.821279 -2.88435 0
M  V30 2156 H 200.053 0.391831 -1.51309 0
M  V30 2157 H 200.788 2.92381 -1.403 0
M  V30 2158 H 200.573 2.40216 -3.09901 0
M  V30 2159 H 202.063 3.26179 -2.60762 0
M  V30 2160 N 202.5 1.5196 0.417844 0
M  V30 2161 C 203.447 1.74678 1.50852 0
M  V30 2162 C 204.417 0.588947 1.55308 0
M  V30 2163 O 205.602 0.825544 1.72016 0
M  V30 2164 C 202.742 1.89544 2.88387 0
M  V30 2165 C 201.855 3.17166 2.93309 0
M  V30 2166 C 200.99 3.22513 4.22088 0
M  V30 2167 C 200.029 4.44372 4.20951 0
M  V30 2168 N 199.166 4.47161 5.41287 0
M  V30 2169 H 204.006 2.67768 1.30783 0
M  V30 2170 H 201.543 1.32689 0.63498 0
M  V30 2171 H 203.501 1.96146 3.68216 0
M  V30 2172 H 202.131 0.998424 3.06971 0
M  V30 2173 H 201.183 3.19778 2.06024 0
M  V30 2174 H 202.495 4.07021 2.88332 0
M  V30 2175 H 201.649 3.28139 5.10303 0
M  V30 2176 H 200.388 2.30581 4.29748 0
M  V30 2177 H 199.393 4.38902 3.31127 0
M  V30 2178 H 200.618 5.3759 4.14938 0
M  V30 2179 H 198.564 3.58108 5.49632 0
M  V30 2180 H 198.481 5.3085 5.3827 0
M  V30 2181 H 199.749 4.57005 6.3148 0
M  V30 2182 N 203.978 -0.674533 1.42435 0
M  V30 2183 C 204.925 -1.78807 1.45934 0
M  V30 2184 C 205.895 -1.63157 0.311271 0
M  V30 2185 O 207.08 -1.83707 0.515383 0
M  V30 2186 C 204.22 -3.16839 1.36773 0
M  V30 2187 C 203.333 -3.43774 2.61617 0
M  V30 2188 C 202.468 -4.71536 2.44597 0
M  V30 2189 C 201.507 -4.91505 3.64814 0
M  V30 2190 N 200.644 -6.10508 3.46734 0
M  V30 2191 H 205.484 -1.75151 2.41093 0
M  V30 2192 H 203.021 -0.85504 1.19697 0
M  V30 2193 H 204.979 -3.96606 1.29459 0
M  V30 2194 H 203.609 -3.19619 0.452089 0
M  V30 2195 H 202.661 -2.58259 2.79297 0
M  V30 2196 H 203.973 -3.54423 3.50978 0
M  V30 2197 H 203.127 -5.59393 2.3487 0
M  V30 2198 H 201.866 -4.6317 1.52726 0
M  V30 2199 H 200.871 -4.0209 3.74972 0
M  V30 2200 H 202.096 -5.01716 4.57665 0
M  V30 2201 H 200.042 -6.03315 2.5758 0
M  V30 2202 H 199.959 -6.2202 4.29682 0
M  V30 2203 H 201.227 -7.01044 3.40819 0
M  V30 2204 N 205.456 -1.28612 -0.910864 0
M  V30 2205 C 206.388 -1.08589 -2.01844 0
M  V30 2206 C 207.401 -0.0367419 -1.62759 0
M  V30 2207 O 208.59 -0.280101 -1.76289 0
M  V30 2208 C 205.69 -0.628626 -3.33019 0
M  V30 2209 C 204.863 -1.75382 -4.00699 0
M  V30 2210 C 203.922 -1.28945 -5.10156 0
M  V30 2211 O 202.948 -1.9922 -5.33198 0
M  V30 2212 N 204.15 -0.154224 -5.80295 0
M  V30 2213 H 206.915 -2.03973 -2.19579 0
M  V30 2214 H 204.476 -1.20403 -1.08234 0
M  V30 2215 H 206.468 -0.301508 -4.03575 0
M  V30 2216 H 205.038 0.232451 -3.11735 0
M  V30 2217 H 204.258 -2.25039 -3.23653 0
M  V30 2218 H 205.546 -2.50854 -4.42662 0
M  V30 2219 H 204.944 0.43194 -5.64049 0
M  V30 2220 H 203.501 0.113599 -6.51701 0
M  V30 2221 N 206.934 1.1197 -1.10907 0
M  V30 2222 C 208.182 1.83225 -0.852819 0
M  V30 2223 C 208.503 1.84769 0.623341 0
M  V30 2224 O 207.773 1.3143 1.45269 0
M  V30 2225 H 206.353 0.67849 -0.312507 0
M  V30 2226 H 209.015 1.3556 -1.40033 0
M  V30 2227 H 208.111 2.87265 -1.22005 0
M  V30 2228 N 208.412 0.89855 1.29475 0
M  V30 2229 C 209.658 0.524658 1.95896 0
M  V30 2230 C 209.991 -0.926468 1.70676 0
M  V30 2231 O 209.266 -1.65665 1.01908 0
M  V30 2232 C 209.549 0.81633 3.50725 0
M  V30 2233 C 209.402 2.31907 3.85408 0
M  V30 2234 C 210.721 0.302038 4.39062 0
M  V30 2235 H 207.84 0.19209 0.711527 0
M  V30 2236 H 210.482 1.12502 1.53112 0
M  V30 2237 H 208.632 0.305369 3.87298 0
M  V30 2238 H 210.304 2.89949 3.58786 0
M  V30 2239 H 208.547 2.78027 3.32992 0
M  V30 2240 H 209.218 2.47373 4.93468 0
M  V30 2241 H 211.694 0.739551 4.09475 0
M  V30 2242 H 210.57 0.535331 5.46283 0
M  V30 2243 H 210.831 -0.797216 4.34853 0
M  V30 2244 N 209.89 -1.43072 0.660911 0
M  V30 2245 C 211.12 -2.05769 0.185153 0
M  V30 2246 C 211.528 -1.49668 -1.15742 0
M  V30 2247 O 210.871 -0.625649 -1.72717 0
M  V30 2248 C 210.933 -3.59489 0.0278237 0
M  V30 2249 C 210.597 -4.38212 1.2969 0
M  V30 2250 C 211.594 -4.69772 2.22734 0
M  V30 2251 C 209.279 -4.7809 1.54063 0
M  V30 2252 C 211.273 -5.40129 3.38437 0
M  V30 2253 C 208.96 -5.4819 2.70058 0
M  V30 2254 C 209.958 -5.79132 3.62071 0
M  V30 2255 O 209.646 -6.47798 4.76039 0
M  V30 2256 H 209.378 -0.669873 0.0908086 0
M  V30 2257 H 211.932 -1.84436 0.90402 0
M  V30 2258 H 210.162 -3.79426 -0.746489 0
M  V30 2259 H 211.851 -4.03862 -0.406275 0
M  V30 2260 H 212.617 -4.39476 2.05149 0
M  V30 2261 H 208.496 -4.53408 0.833215 0
M  V30 2262 H 212.04 -5.64198 4.10277 0
M  V30 2263 H 207.937 -5.77902 2.87574 0
M  V30 2264 H 208.705 -6.66283 4.75404 0
M  V30 2265 N 211.368 -0.403325 -1.52352 0
M  V30 2266 C 212.331 0.413051 -2.25447 0
M  V30 2267 C 213.331 0.978513 -1.276 0
M  V30 2268 O 214.521 0.858305 -1.51587 0
M  V30 2269 C 211.653 1.58087 -3.02029 0
M  V30 2270 H 212.846 -0.227094 -2.99039 0
M  V30 2271 H 210.399 -0.155722 -1.55522 0
M  V30 2272 H 211.134 2.25804 -2.32772 0
M  V30 2273 H 210.919 1.18195 -3.73861 0
M  V30 2274 H 212.409 2.1585 -3.57489 0
M  V30 2275 N 212.846 1.57033 -0.133567 0
M  V30 2276 C 214.092 1.96764 0.515326 0
M  V30 2277 C 214.447 1.01653 1.63353 0
M  V30 2278 O 213.74 0.0491374 1.91537 0
M  V30 2279 C 213.934 3.40674 1.08057 0
M  V30 2280 C 213.763 4.49696 0.0186522 0
M  V30 2281 C 212.533 5.03567 -0.418174 0
M  V30 2282 C 214.731 5.08536 -0.767809 0
M  V30 2283 N 212.713 5.9618 -1.46434 0
M  V30 2284 C 214.084 5.97231 -1.6648 0
M  V30 2285 C 216.139 4.9115 -0.817087 0
M  V30 2286 C 214.842 6.70401 -2.60681 0
M  V30 2287 C 216.868 5.65012 -1.74687 0
M  V30 2288 C 216.23 6.53403 -2.63141 0
M  V30 2289 H 212.329 0.765919 0.157771 0
M  V30 2290 H 214.913 1.93395 -0.22506 0
M  V30 2291 H 213.084 3.44662 1.79061 0
M  V30 2292 H 214.816 3.67495 1.69497 0
M  V30 2293 H 211.571 4.73594 -0.0229803 0
M  V30 2294 H 211.995 6.47191 -1.98678 0
M  V30 2295 H 216.637 4.22543 -0.147326 0
M  V30 2296 H 214.355 7.38245 -3.28664 0
M  V30 2297 H 217.941 5.53559 -1.79063 0
M  V30 2298 H 216.821 7.09556 -3.33917 0
M  V30 2299 N 214.325 -0.140222 1.56975 0
M  V30 2300 C 215.272 -1.17292 1.98774 0
M  V30 2301 C 216.242 -1.4232 0.856408 0
M  V30 2302 O 217.427 -1.54541 1.119 0
M  V30 2303 C 214.567 -2.49973 2.37923 0
M  V30 2304 C 213.68 -2.32062 3.64378 0
M  V30 2305 C 212.815 -3.57825 3.926 0
M  V30 2306 C 211.854 -3.3498 5.12303 0
M  V30 2307 N 210.991 -4.52891 5.36502 0
M  V30 2308 H 215.831 -0.809472 2.86795 0
M  V30 2309 H 213.368 -0.388237 1.41884 0
M  V30 2310 H 215.326 -3.27346 2.58652 0
M  V30 2311 H 213.956 -2.84252 1.52972 0
M  V30 2312 H 213.008 -1.45711 3.51387 0
M  V30 2313 H 214.32 -2.11145 4.51906 0
M  V30 2314 H 213.474 -4.43624 4.13863 0
M  V30 2315 H 212.213 -3.81753 3.03506 0
M  V30 2316 H 211.218 -2.4757 4.90906 0
M  V30 2317 H 212.443 -3.12444 6.02956 0
M  V30 2318 H 210.389 -4.76979 4.50363 0
M  V30 2319 H 210.306 -4.35001 6.18312 0
M  V30 2320 H 211.574 -5.39884 5.62268 0
M  V30 2321 N 215.803 -1.52179 -0.40978 0
M  V30 2322 C 216.733 -1.78435 -1.5061 0
M  V30 2323 C 217.714 -0.635295 -1.57791 0
M  V30 2324 O 218.899 -0.880823 -1.73076 0
M  V30 2325 C 216.029 -1.93444 -2.88439 0
M  V30 2326 C 214.983 -3.09038 -2.96108 0
M  V30 2327 C 214.309 -3.09268 -4.36185 0
M  V30 2328 C 215.609 -4.48508 -2.67652 0
M  V30 2329 H 217.303 -2.70237 -1.28889 0
M  V30 2330 H 214.849 -1.30036 -0.618605 0
M  V30 2331 H 216.802 -2.10394 -3.65119 0
M  V30 2332 H 215.526 -0.983129 -3.11452 0
M  V30 2333 H 214.185 -2.91837 -2.21872 0
M  V30 2334 H 213.833 -2.11861 -4.56206 0
M  V30 2335 H 213.533 -3.86907 -4.42241 0
M  V30 2336 H 215.057 -3.28348 -5.14801 0
M  V30 2337 H 216.471 -4.65918 -3.34056 0
M  V30 2338 H 214.868 -5.28059 -2.85085 0
M  V30 2339 H 215.938 -4.56649 -1.63095 0
M  V30 2340 N 217.281 0.66697 -1.42791 0
M  V30 2341 C 218.228 1.7803 -1.4688 0
M  V30 2342 C 219.198 1.6299 -0.319919 0
M  V30 2343 O 220.383 1.83432 -0.525118 0
M  V30 2344 C 217.523 3.1611 -1.38451 0
M  V30 2345 C 216.636 3.42381 -2.63437 0
M  V30 2346 C 215.771 4.70232 -2.47094 0
M  V30 2347 C 214.81 4.89564 -3.67415 0
M  V30 2348 N 213.947 6.08661 -3.49966 0
M  V30 2349 H 218.787 1.7387 -2.42019 0
M  V30 2350 H 216.324 0.84868 -1.20149 0
M  V30 2351 H 218.282 3.95914 -1.31561 0
M  V30 2352 H 216.912 3.19374 -0.469033 0
M  V30 2353 H 215.964 2.56774 -2.80662 0
M  V30 2354 H 217.276 3.52557 -3.52853 0
M  V30 2355 H 216.43 5.5814 -2.37834 0
M  V30 2356 H 215.169 4.62353 -1.5518 0
M  V30 2357 H 214.174 4.00096 -3.77099 0
M  V30 2358 H 215.399 4.99282 -4.6032 0
M  V30 2359 H 213.345 6.0194 -2.60776 0
M  V30 2360 H 213.262 6.19733 -4.32975 0
M  V30 2361 H 214.53 6.99226 -3.44532 0
M  V30 2362 N 218.759 1.29093 0.90403 0
M  V30 2363 C 219.689 1.16401 2.02418 0
M  V30 2364 C 220.67 0.0593085 1.69997 0
M  V30 2365 O 221.855 0.238021 1.92736 0
M  V30 2366 C 218.985 0.835233 3.37107 0
M  V30 2367 C 217.939 1.89578 3.83724 0
M  V30 2368 C 217.265 1.42041 5.15489 0
M  V30 2369 C 218.565 3.30394 4.04521 0
M  V30 2370 H 220.259 2.10109 2.13295 0
M  V30 2371 H 217.805 1.01157 1.02486 0
M  V30 2372 H 219.758 0.733169 4.14973 0
M  V30 2373 H 218.482 -0.137543 3.2631 0
M  V30 2374 H 217.141 1.98715 3.08071 0
M  V30 2375 H 216.789 0.436426 5.01103 0
M  V30 2376 H 216.489 2.12964 5.4765 0
M  V30 2377 H 218.013 1.33176 5.959 0
M  V30 2378 H 219.427 3.24123 4.72882 0
M  V30 2379 H 217.824 3.99237 4.48029 0
M  V30 2380 H 218.894 3.73692 3.09002 0
M  V30 2381 N 220.237 -1.11381 1.11499 0
M  V30 2382 C 221.185 -2.19522 0.768956 0
M  V30 2383 C 222.179 -1.67693 -0.239857 0
M  V30 2384 O 223.385 -1.79727 -0.0990755 0
M  V30 2385 H 219.76 -0.715711 0.230786 0
M  V30 2386 H 221.731 -2.45954 1.68964 0
M  V30 2387 C 220.48 -3.46945 0.229073 0
M  V30 2388 H 219.803 -3.8718 0.996596 0
M  V30 2389 H 221.243 -4.23993 0.0251441 0
M  V30 2390 C 219.702 -3.2042 -1.04079 0
M  V30 2391 O 220.232 -3.41178 -2.12038 0
M  V30 2392 N 218.438 -2.74151 -0.963823 0
M  V30 2393 H 217.985 -2.57459 -0.0851722 0
M  V30 2394 H 217.943 -2.56781 -1.81414 0
M  V30 2395 N 221.715 -0.905404 -1.28997 0
M  V30 2396 C 222.647 -0.344748 -2.26592 0
M  V30 2397 C 223.66 0.512135 -1.54535 0
M  V30 2398 O 224.849 0.328368 -1.75454 0
M  V30 2399 C 221.949 0.526587 -3.34784 0
M  V30 2400 C 221.122 -0.305871 -4.36329 0
M  V30 2401 C 220.181 0.499209 -5.23827 0
M  V30 2402 O 219.207 -0.0853004 -5.69136 0
M  V30 2403 N 220.409 1.80408 -5.51755 0
M  V30 2404 H 223.174 -1.18359 -2.75338 0
M  V30 2405 H 220.735 -0.770481 -1.42391 0
M  V30 2406 H 222.727 1.07171 -3.90252 0
M  V30 2407 H 221.297 1.26613 -2.85811 0
M  V30 2408 H 220.517 -1.0324 -3.80441 0
M  V30 2409 H 221.805 -0.875773 -5.01206 0
M  V30 2410 H 221.203 2.3016 -5.16762 0
M  V30 2411 H 219.76 2.29621 -6.10014 0
M  V30 2412 N 223.193 1.4272 -0.668489 0
M  V30 2413 C 224.141 2.32586 0.0254857 0
M  V30 2414 C 225.135 1.49471 0.797176 0
M  V30 2415 O 226.341 1.65583 0.705853 0
M  V30 2416 H 222.716 0.751514 0.0270339 0
M  V30 2417 H 224.687 2.88823 -0.749936 0
M  V30 2418 C 223.436 3.3397 0.967427 0
M  V30 2419 H 222.759 3.97961 0.383048 0
M  V30 2420 H 224.199 3.9945 1.42181 0
M  V30 2421 C 222.658 2.65744 2.0708 0
M  V30 2422 O 223.188 2.48454 3.15648 0
M  V30 2423 N 221.394 2.2487 1.8407 0
M  V30 2424 H 220.941 2.39132 0.95778 0
M  V30 2425 H 220.899 1.79552 2.58086 0
M  V30 2426 N 224.671 0.411399 1.52136 0
M  V30 2427 C 225.919 -0.163322 2.01439 0
M  V30 2428 C 226.24 -1.45453 1.29879 0
M  V30 2429 O 225.51 -1.91225 0.4254 0
M  V30 2430 H 224.09 -0.0633447 0.744309 0
M  V30 2431 H 226.752 0.548161 1.87033 0
M  V30 2432 H 225.848 -0.357817 3.10042 0
M  V30 2433 N 226.149 -1.5696 0.141893 0
M  V30 2434 C 227.396 -1.9596 -0.510492 0
M  V30 2435 C 227.724 -1.02648 -1.65208 0
M  V30 2436 O 226.979 -0.0546947 -1.95624 0
M  V30 2437 C 227.278 -3.41242 -1.06249 0
M  V30 2438 C 226.944 -4.50882 -0.0398791 0
M  V30 2439 C 225.606 -4.80595 0.241247 0
M  V30 2440 C 227.958 -5.17058 0.65578 0
M  V30 2441 C 225.286 -5.73792 1.22393 0
M  V30 2442 C 227.638 -6.11313 1.62724 0
M  V30 2443 C 226.302 -6.39407 1.91612 0
M  V30 2444 H 225.572 -0.717068 -0.186802 0
M  V30 2445 H 228.219 -1.90142 0.227643 0
M  V30 2446 H 226.524 -3.43866 -1.87785 0
M  V30 2447 H 228.221 -3.68742 -1.57576 0
M  V30 2448 H 224.811 -4.27754 -0.269174 0
M  V30 2449 H 228.995 -4.94239 0.451779 0
M  V30 2450 H 224.251 -5.93853 1.45424 0
M  V30 2451 H 228.425 -6.61668 2.17183 0
M  V30 2452 H 226.052 -7.11427 2.6791 0
M  V30 2453 N 227.627 0.131896 -1.57047 0
M  V30 2454 C 228.873 0.843179 -1.84441 0
M  V30 2455 C 229.206 1.80129 -0.725749 0
M  V30 2456 O 228.481 1.92624 0.269469 0
M  V30 2457 C 228.764 1.60442 -3.22382 0
M  V30 2458 C 228.617 0.666782 -4.4483 0
M  V30 2459 C 229.936 2.56354 -3.5773 0
M  V30 2460 H 227.055 0.305081 -0.670891 0
M  V30 2461 H 229.697 0.107839 -1.89694 0
M  V30 2462 H 227.847 2.23128 -3.18035 0
M  V30 2463 H 229.519 0.0497646 -4.61273 0
M  V30 2464 H 227.762 -0.022609 -4.33794 0
M  V30 2465 H 228.433 1.23579 -5.37989 0
M  V30 2466 H 230.909 2.0378 -3.62785 0
M  V30 2467 H 229.785 3.06657 -4.5525 0
M  V30 2468 H 230.046 3.38419 -2.84473 0
M  V30 2469 N 229.106 1.52395 0.401703 0
M  V30 2470 C 230.336 1.70429 1.1678 0
M  V30 2471 C 230.744 0.416702 1.84554 0
M  V30 2472 O 230.087 -0.617697 1.73003 0
M  V30 2473 C 230.149 2.78919 2.26814 0
M  V30 2474 C 229.813 4.20437 1.79113 0
M  V30 2475 C 230.81 5.04028 1.27482 0
M  V30 2476 C 228.495 4.66704 1.85722 0
M  V30 2477 C 230.489 6.31961 0.830913 0
M  V30 2478 C 228.176 5.94625 1.40942 0
M  V30 2479 C 229.174 6.77082 0.897128 0
M  V30 2480 O 228.862 8.02607 0.455822 0
M  V30 2481 H 228.594 0.574272 0.356634 0
M  V30 2482 H 231.148 1.99767 0.477724 0
M  V30 2483 H 229.378 2.44973 2.99207 0
M  V30 2484 H 231.067 2.8548 2.88541 0
M  V30 2485 H 231.833 4.69471 1.21744 0
M  V30 2486 H 227.712 4.0262 2.24539 0
M  V30 2487 H 231.256 6.96271 0.430368 0
M  V30 2488 H 227.153 6.28688 1.46362 0
M  V30 2489 H 227.921 8.16453 0.578457 0
M  V30 2490 N 230.584 -0.659388 1.43143 0
M  V30 2491 C 231.531 -1.77249 1.47822 0
M  V30 2492 C 232.501 -1.62818 0.328558 0
M  V30 2493 O 233.686 -1.83151 0.534838 0
M  V30 2494 C 230.826 -3.15371 1.40126 0
M  V30 2495 C 229.939 -3.4098 2.65249 0
M  V30 2496 C 229.074 -4.68915 2.49584 0
M  V30 2497 C 228.113 -4.87608 3.70006 0
M  V30 2498 N 227.25 -6.06796 3.53189 0
M  V30 2499 H 232.09 -1.72584 2.42938 0
M  V30 2500 H 229.627 -0.842297 1.20598 0
M  V30 2501 H 231.585 -3.9521 1.33659 0
M  V30 2502 H 230.215 -3.19121 0.485964 0
M  V30 2503 H 229.267 -2.55282 2.8202 0
M  V30 2504 H 230.579 -3.50681 3.54717 0
M  V30 2505 H 229.733 -5.56871 2.4079 0
M  V30 2506 H 228.472 -4.61524 1.5763 0
M  V30 2507 H 227.477 -3.9809 3.79215 0
M  V30 2508 H 228.702 -4.96834 4.62961 0
M  V30 2509 H 226.648 -6.00549 2.63965 0
M  V30 2510 H 226.565 -6.17428 4.36255 0
M  V30 2511 H 227.833 -6.9739 3.48236 0
M  V30 2512 N 232.062 -1.29571 -0.897171 0
M  V30 2513 C 233.308 -1.17863 -1.65034 0
M  V30 2514 C 233.641 0.268729 -1.92332 0
M  V30 2515 O 232.916 1.19378 -1.53555 0
M  V30 2516 C 233.199 -1.995 -2.99786 0
M  V30 2517 C 233.052 -3.5239 -2.79538 0
M  V30 2518 C 234.371 -1.82335 -4.00552 0
M  V30 2519 H 231.49 -0.429528 -0.598895 0
M  V30 2520 H 234.132 -1.59072 -1.03905 0
M  V30 2521 H 232.282 -1.64485 -3.51962 0
M  V30 2522 H 233.954 -3.97401 -2.34244 0
M  V30 2523 H 232.197 -3.77187 -2.14273 0
M  V30 2524 H 232.868 -4.04787 -3.75302 0
M  V30 2525 H 235.344 -2.12924 -3.57495 0
M  V30 2526 H 234.22 -2.41801 -4.92771 0
M  V30 2527 H 234.481 -0.779209 -4.35179 0
M  V30 2528 N 233.54 1.10788 -1.12088 0
M  V30 2529 C 234.817 1.79136 -0.785476 0
M  V30 2530 C 235.197 1.98246 0.725377 0
M  V30 2531 O 234.545 1.57258 1.65778 0
M  V30 2532 C 234.755 3.12375 -1.55636 0
M  V30 2533 C 236.103 3.8731 -1.74001 0
M  V30 2534 O 237.127 3.22085 -1.52117 0
M  V30 2535 O 235.986 5.04369 -2.10415 0
M  V30 2536 H 233.08 0.776226 -0.285311 0
M  V30 2537 H 235.626 1.1747 -1.2247 0
M  V30 2538 H 234.398 2.93863 -2.5838 0
M  V30 2539 H 234.021 3.81758 -1.11114 0
M  V30 2540 N 235.018 0.912232 1.28515 0
M  V30 2541 C 235.928 0.404506 2.31086 0
M  V30 2542 C 236.944 -0.50707 1.66448 0
M  V30 2543 O 238.12 -0.393624 1.97516 0
M  V30 2544 C 235.185 -0.348572 3.44943 0
M  V30 2545 C 234.246 0.59604 4.25142 0
M  V30 2546 C 233.479 -0.121194 5.33562 0
M  V30 2547 O 233.702 -1.34317 5.5436 0
M  V30 2548 O 232.636 0.542716 5.99448 0
M  V30 2549 H 236.462 1.25579 2.76521 0
M  V30 2550 H 234.047 0.676998 1.33181 0
M  V30 2551 H 235.929 -0.77395 4.14232 0
M  V30 2552 H 234.604 -1.17571 3.01594 0
M  V30 2553 H 233.511 1.07079 3.58448 0
M  V30 2554 H 234.844 1.38995 4.72167 0
M  V30 2555 N 236.496 -1.42363 0.676048 0
M  V30 2556 C 237.744 -2.01123 0.198437 0
M  V30 2557 C 238.065 -1.53731 -1.19966 0
M  V30 2558 O 237.335 -0.759518 -1.80577 0
M  V30 2559 H 235.915 -0.743678 0.0703721 0
M  V30 2560 H 238.577 -1.74263 0.872837 0
M  V30 2561 H 237.673 -3.11454 0.200686 0
M  V30 2562 N 237.974 -0.419461 -1.51915 0
M  V30 2563 C 239.385 0.0477853 -1.86639 0
M  V30 2564 C 239.736 1.43531 -1.33766 0
M  V30 2565 O 238.861 2.05401 -0.68113 0
M  V30 2566 C 239.456 0.0934885 -3.38671 0
M  V30 2567 C 238.015 0.505097 -3.72996 0
M  V30 2568 C 237.162 -0.313792 -2.75519 0
M  V30 2569 H 240.113 -0.636088 -1.45395 0
M  V30 2570 H 240.134 0.906667 -3.6954 0
M  V30 2571 H 239.646 -0.916501 -3.77123 0
M  V30 2572 H 237.747 1.52135 -3.40126 0
M  V30 2573 H 237.86 0.242309 -4.78487 0
M  V30 2574 H 236.224 0.225363 -2.53701 0
M  V30 2575 H 237.007 -1.32232 -3.16812 0
M  V30 2576 N 239.452 1.56882 -0.150215 0
M  V30 2577 C 240.415 2.1573 0.774157 0
M  V30 2578 C 241.415 1.0999 1.17298 0
M  V30 2579 O 242.605 1.35613 1.09338 0
M  V30 2580 C 239.737 2.72302 2.05096 0
M  V30 2581 H 240.93 2.98752 0.262201 0
M  V30 2582 H 238.483 1.55985 0.099248 0
M  V30 2583 H 239.218 1.92956 2.6065 0
M  V30 2584 H 239.003 3.49665 1.77416 0
M  V30 2585 H 240.493 3.17632 2.71109 0
M  V30 2586 N 240.93 -0.123565 1.57115 0
M  V30 2587 C 242.341 -0.681198 1.73829 0
M  V30 2588 C 242.692 -1.80535 0.768214 0
M  V30 2589 O 241.817 -2.16317 -0.0599103 0
M  V30 2590 C 242.412 -1.24246 3.15196 0
M  V30 2591 C 240.971 -1.74643 3.33432 0
M  V30 2592 C 240.118 -0.644284 2.69711 0
M  V30 2593 H 243.069 0.102315 1.5837 0
M  V30 2594 H 243.09 -2.11216 3.16493 0
M  V30 2595 H 242.602 -0.424062 3.85776 0
M  V30 2596 H 240.703 -2.58974 2.67886 0
M  V30 2597 H 240.816 -1.85902 4.41562 0
M  V30 2598 H 239.18 -1.07676 2.3082 0
M  V30 2599 H 239.963 0.163058 3.42913 0
M  V30 2600 N 242.408 -1.52605 -0.393616 0
M  V30 2601 C 243.685 -1.58001 -1.15304 0
M  V30 2602 C 244.065 -0.370385 -2.07825 0
M  V30 2603 O 243.413 0.641638 -2.19306 0
M  V30 2604 C 243.623 -2.91652 -1.91677 0
M  V30 2605 C 244.971 -3.4522 -2.47201 0
M  V30 2606 O 245.995 -2.93495 -2.01839 0
M  V30 2607 O 244.854 -4.35579 -3.3005 0
M  V30 2608 H 241.948 -0.637068 -0.527327 0
M  V30 2609 H 244.494 -1.64939 -0.399141 0
M  V30 2610 H 243.266 -3.71136 -1.23992 0
M  V30 2611 H 242.889 -2.88077 -2.74039 0
M  V30 2612 N 243.887 0.651787 -1.4349 0
M  V30 2613 C 245.135 1.40888 -1.44897 0
M  V30 2614 C 245.456 1.94856 -0.0749086 0
M  V30 2615 O 244.726 1.74518 0.889956 0
M  V30 2616 H 243.306 0.522887 -0.533478 0
M  V30 2617 H 245.968 0.768609 -1.79104 0
M  V30 2618 H 245.064 2.25052 -2.16236 0
M  V30 2619 N 245.365 1.30045 0.890287 0
M  V30 2620 C 246.275 1.17885 2.02831 0
M  V30 2621 C 247.291 0.0999609 1.73713 0
M  V30 2622 O 248.467 0.313867 1.98939 0
M  V30 2623 C 245.532 0.866079 3.35708 0
M  V30 2624 C 244.593 2.02979 3.78283 0
M  V30 2625 C 243.826 1.73184 5.0482 0
M  V30 2626 O 244.049 0.657237 5.66601 0
M  V30 2627 O 242.983 2.58267 5.43674 0
M  V30 2628 H 246.809 2.13474 2.16015 0
M  V30 2629 H 244.394 1.09587 1.01543 0
M  V30 2630 H 246.276 0.706623 4.15433 0
M  V30 2631 H 244.951 -0.0599443 3.23644 0
M  V30 2632 H 243.858 2.24454 2.99285 0
M  V30 2633 H 245.191 2.93734 3.94944 0
M  V30 2634 N 246.843 -1.10192 1.12674 0
M  V30 2635 C 247.753 -2.20172 0.810026 0
M  V30 2636 C 248.769 -1.72821 -0.202188 0
M  V30 2637 O 249.945 -2.01369 -0.0351691 0
M  V30 2638 C 247.01 -3.45631 0.272007 0
M  V30 2639 C 246.071 -4.07704 1.34447 0
M  V30 2640 C 245.304 -5.27175 0.832029 0
M  V30 2641 O 245.527 -5.69425 -0.333284 0
M  V30 2642 O 244.461 -5.80168 1.60277 0
M  V30 2643 H 248.287 -2.49701 1.72867 0
M  V30 2644 H 245.872 -1.18977 0.903597 0
M  V30 2645 H 247.754 -4.21394 -0.0230219 0
M  V30 2646 H 246.429 -3.17723 -0.619164 0
M  V30 2647 H 245.336 -3.33614 1.6927 0
M  V30 2648 H 246.669 -4.3982 2.2095 0
M  V30 2649 N 248.321 -0.919034 -1.28029 0
M  V30 2650 C 249.551 -0.570143 -1.98577 0
M  V30 2651 C 249.959 0.854172 -1.68821 0
M  V30 2652 O 249.302 1.57807 -0.940351 0
M  V30 2653 C 249.364 -0.705734 -3.52505 0
M  V30 2654 C 249.028 -2.10057 -4.05863 0
M  V30 2655 C 250.025 -3.07385 -4.19298 0
M  V30 2656 C 247.71 -2.41517 -4.40426 0
M  V30 2657 C 249.704 -4.34287 -4.66555 0
M  V30 2658 C 247.391 -3.68657 -4.87376 0
M  V30 2659 C 248.389 -4.64856 -5.00398 0
M  V30 2660 O 248.077 -5.89735 -5.46322 0
M  V30 2661 H 247.809 -0.215592 -0.6407 0
M  V30 2662 H 250.363 -1.23583 -1.64062 0
M  V30 2663 H 248.593 0.0170414 -3.86696 0
M  V30 2664 H 250.282 -0.363172 -4.04272 0
M  V30 2665 H 251.048 -2.84398 -3.92865 0
M  V30 2666 H 246.927 -1.67389 -4.29537 0
M  V30 2667 H 250.471 -5.09377 -4.76635 0
M  V30 2668 H 246.368 -3.91466 -5.13249 0
M  V30 2669 H 247.136 -5.92599 -5.64596 0
M  V30 2670 N 249.799 1.42003 -0.683588 0
M  V30 2671 C 251.046 2.01413 -0.209514 0
M  V30 2672 C 251.374 1.54088 1.1869 0
M  V30 2673 O 250.629 0.737591 1.81268 0
M  V30 2674 C 250.928 3.56827 -0.202357 0
M  V30 2675 C 250.594 4.23617 -1.54464 0
M  V30 2676 C 249.256 4.41577 -1.91215 0
M  V30 2677 C 251.608 4.61178 -2.42826 0
M  V30 2678 C 248.936 4.9437 -3.15935 0
M  V30 2679 C 251.288 5.15355 -3.66867 0
M  V30 2680 C 249.952 5.31528 -4.03776 0
M  V30 2681 H 249.222 0.737023 -0.0766668 0
M  V30 2682 H 251.869 1.70067 -0.880312 0
M  V30 2683 H 250.174 3.87892 0.551969 0
M  V30 2684 H 251.871 4.00588 0.181793 0
M  V30 2685 H 248.461 4.10004 -1.24877 0
M  V30 2686 H 252.645 4.46968 -2.15717 0
M  V30 2687 H 247.901 5.05076 -3.44541 0
M  V30 2688 H 252.075 5.43402 -4.35531 0
M  V30 2689 H 249.702 5.72199 -5.00492 0
M  V30 2690 N 251.277 0.427512 1.51691 0
M  V30 2691 C 252.24 -0.377132 2.26076 0
M  V30 2692 C 253.24 -0.958089 1.29141 0
M  V30 2693 O 254.43 -0.83408 1.52934 0
M  V30 2694 C 251.562 -1.53262 3.04506 0
M  V30 2695 H 252.755 0.27464 2.9864 0
M  V30 2696 H 250.308 0.180445 1.55255 0
M  V30 2697 H 251.043 -2.22072 2.36335 0
M  V30 2698 H 250.828 -1.12232 3.75694 0
M  V30 2699 H 252.318 -2.10135 3.60878 0
M  V30 2700 N 252.755 -1.56801 0.158532 0
M  V30 2701 C 254.002 -1.9649 -0.489679 0
M  V30 2702 C 254.33 -1.04394 -1.6411 0
M  V30 2703 O 253.585 -0.0754401 -1.95555 0
M  V30 2704 C 253.884 -3.4235 -1.02623 0
M  V30 2705 C 253.55 -4.50899 0.00794526 0
M  V30 2706 C 252.212 -4.80312 0.292207 0
M  V30 2707 C 254.564 -5.16333 0.710584 0
M  V30 2708 C 251.892 -5.72461 1.28472 0
M  V30 2709 C 254.244 -6.09553 1.69199 0
M  V30 2710 C 252.908 -6.37339 1.98383 0
M  V30 2711 H 252.178 -0.719009 -0.179186 0
M  V30 2712 H 254.825 -1.8989 0.247798 0
M  V30 2713 H 253.13 -3.45838 -1.84128 0
M  V30 2714 H 254.827 -3.70393 -1.53656 0
M  V30 2715 H 251.417 -4.28015 -0.22379 0
M  V30 2716 H 255.601 -4.93732 0.504174 0
M  V30 2717 H 250.857 -5.92278 1.51714 0
M  V30 2718 H 255.031 -6.59327 2.24189 0
M  V30 2719 H 252.658 -7.08546 2.7544 0
M  V30 2720 N 254.233 0.115231 -1.57178 0
M  V30 2721 C 255.196 1.12526 -1.99676 0
M  V30 2722 C 256.196 1.34095 -0.88742 0
M  V30 2723 O 257.386 1.30548 -1.15337 0
M  V30 2724 C 254.518 2.4789 -2.34015 0
M  V30 2725 H 255.711 0.759912 -2.90113 0
M  V30 2726 H 253.264 0.359648 -1.52106 0
M  V30 2727 H 253.999 2.89339 -1.4647 0
M  V30 2728 H 253.784 2.33588 -3.14927 0
M  V30 2729 H 255.274 3.20575 -2.67622 0
M  V30 2730 N 255.711 1.52812 0.385517 0
M  V30 2731 C 256.641 1.80808 1.47752 0
M  V30 2732 C 257.622 0.660318 1.5676 0
M  V30 2733 O 258.807 0.908246 1.71652 0
M  V30 2734 C 255.937 1.98008 2.85324 0
M  V30 2735 C 254.891 3.13709 2.91154 0
M  V30 2736 C 254.217 3.16169 4.31209 0
M  V30 2737 C 255.517 4.52709 2.60483 0
M  V30 2738 H 257.211 2.72253 1.24573 0
M  V30 2739 H 254.757 1.31003 0.597839 0
M  V30 2740 H 256.71 2.16176 3.61726 0
M  V30 2741 H 255.434 1.03255 3.09848 0
M  V30 2742 H 254.093 2.95329 2.17201 0
M  V30 2743 H 253.741 2.19092 4.52778 0
M  V30 2744 H 253.441 3.93894 4.36029 0
M  V30 2745 H 254.965 3.36496 5.09512 0
M  V30 2746 H 256.379 4.71173 3.26602 0
M  V30 2747 H 254.776 5.32528 2.76648 0
M  V30 2748 H 255.846 4.59186 1.55809 0
M  V30 2749 N 257.189 -0.644168 1.43834 0
M  V30 2750 C 258.119 -1.76814 1.52509 0
M  V30 2751 C 259.1 -1.65823 0.379052 0
M  V30 2752 O 260.285 -1.84781 0.597466 0
M  V30 2753 C 257.415 -3.15288 1.4564 0
M  V30 2754 C 256.369 -3.41053 2.58586 0
M  V30 2755 C 255.695 -4.79421 2.36769 0
M  V30 2756 C 256.995 -3.34902 4.00797 0
M  V30 2757 H 258.689 -1.69812 2.46586 0
M  V30 2758 H 256.235 -0.815542 1.1868 0
M  V30 2759 H 258.188 -3.93681 1.50311 0
M  V30 2760 H 256.912 -3.23043 0.480725 0
M  V30 2761 H 255.571 -2.65035 2.53282 0
M  V30 2762 H 255.219 -4.83863 1.37424 0
M  V30 2763 H 254.919 -4.9762 3.12487 0
M  V30 2764 H 256.443 -5.6006 2.43238 0
M  V30 2765 H 257.857 -4.03218 4.07539 0
M  V30 2766 H 256.254 -3.64637 4.76613 0
M  V30 2767 H 257.324 -2.32928 4.25291 0
M  V30 2768 N 258.668 -1.30515 -0.883378 0
M  V30 2769 C 259.616 -1.16941 -2.01066 0
M  V30 2770 C 260.61 -0.0809148 -1.69207 0
M  V30 2771 O 261.816 -0.241877 -1.78367 0
M  V30 2772 H 258.191 -0.361705 -0.659298 0
M  V30 2773 H 260.162 -2.12344 -2.09649 0
M  V30 2774 C 258.911 -0.879694 -3.36388 0
M  V30 2775 H 258.234 -1.70936 -3.61415 0
M  V30 2776 H 259.674 -0.82483 -4.159 0
M  V30 2777 C 258.133 0.417409 -3.34304 0
M  V30 2778 O 258.663 1.43843 -3.75063 0
M  V30 2779 N 256.869 0.429141 -2.87414 0
M  V30 2780 H 256.416 -0.402222 -2.5444 0
M  V30 2781 H 256.374 1.29696 -2.86403 0
M  V30 2782 N 260.146 1.09593 -1.13257 0
M  V30 2783 C 261.109 2.14359 -0.811358 0
M  V30 2784 C 262.109 1.59808 0.178377 0
M  V30 2785 O 263.299 1.74132 -0.0484911 0
M  V30 2786 C 260.431 3.40269 -0.207276 0
M  V30 2787 H 261.624 2.44284 -1.73969 0
M  V30 2788 H 259.177 1.25102 -0.936973 0
M  V30 2789 H 259.912 3.15969 0.73036 0
M  V30 2790 H 259.697 3.81154 -0.919992 0
M  V30 2791 H 261.187 4.176 0.000667944 0
M  V30 2792 N 261.624 0.925811 1.2754 0
M  V30 2793 C 262.849 0.580924 1.99098 0
M  V30 2794 C 263.274 -0.833555 1.68622 0
M  V30 2795 O 262.632 -1.55903 0.925422 0
M  V30 2796 C 262.68 0.811186 3.51358 0
M  V30 2797 O 261.784 -0.124129 4.12213 0
M  V30 2798 H 261.125 0.223873 0.625122 0
M  V30 2799 H 263.655 1.24455 1.62395 0
M  V30 2800 H 263.665 0.72601 4.01489 0
M  V30 2801 H 262.34 1.84227 3.72872 0
M  V30 2802 H 260.917 0.0108006 3.72898 0
M  V30 2803 N 263.102 -1.41638 0.69111 0
M  V30 2804 C 264.065 -2.29178 0.0319786 0
M  V30 2805 C 265.065 -1.44153 -0.712496 0
M  V30 2806 O 266.255 -1.65354 -0.548053 0
M  V30 2807 C 263.387 -3.26952 -0.965161 0
M  V30 2808 H 264.58 -2.88959 0.802681 0
M  V30 2809 H 262.133 -1.4955 0.454356 0
M  V30 2810 H 262.868 -2.72142 -1.76378 0
M  V30 2811 H 262.653 -3.89685 -0.434522 0
M  V30 2812 H 264.143 -3.92561 -1.42428 0
M  V30 2813 N 264.58 -0.43555 -1.51462 0
M  V30 2814 C 265.996 -0.0877501 -1.59359 0
M  V30 2815 C 266.196 1.4027 -1.4466 0
M  V30 2816 O 265.252 2.17243 -1.28693 0
M  V30 2817 C 266.565 -0.606264 -2.94525 0
M  V30 2818 C 268.113 -0.566548 -3.0783 0
M  V30 2819 C 268.588 -1.06201 -4.45517 0
M  V30 2820 N 270.079 -1.01992 -4.51832 0
M  V30 2821 C 270.814 -1.37417 -5.5669 0
M  V30 2822 N 270.31 -1.80119 -6.68976 0
M  V30 2823 N 272.103 -1.29245 -5.47039 0
M  V30 2824 H 264.254 -1.40533 -1.59261 0
M  V30 2825 H 266.517 -0.578992 -0.750648 0
M  V30 2826 H 266.223 -1.64901 -3.10645 0
M  V30 2827 H 266.097 -0.0302097 -3.77188 0
M  V30 2828 H 268.484 0.467208 -2.91378 0
M  V30 2829 H 268.565 -1.17898 -2.2701 0
M  V30 2830 H 268.209 -2.09422 -4.62715 0
M  V30 2831 H 268.139 -0.426127 -5.24873 0
M  V30 2832 H 270.63 -0.706308 -3.71241 0
M  V30 2833 H 270.943 -2.05392 -7.45006 0
M  V30 2834 H 269.288 -1.84044 -6.70189 0
M  V30 2835 H 272.479 -0.957522 -4.58202 0
M  V30 2836 H 272.652 -1.57182 -6.28648 0
M  V30 2837 N 266.058 1.56714 -0.166846 0
M  V30 2838 C 267.304 1.97813 0.473473 0
M  V30 2839 C 267.659 1.05095 1.61161 0
M  V30 2840 O 266.952 0.0897541 1.9139 0
M  V30 2841 C 267.146 3.42889 1.00806 0
M  V30 2842 C 266.975 4.49635 -0.0767392 0
M  V30 2843 C 265.745 5.02566 -0.524894 0
M  V30 2844 C 267.943 5.06793 -0.875504 0
M  V30 2845 N 265.925 5.9294 -1.59047 0
M  V30 2846 C 267.296 5.93565 -1.79111 0
M  V30 2847 C 269.351 4.89306 -0.921083 0
M  V30 2848 C 268.054 6.64721 -2.74843 0
M  V30 2849 C 270.08 5.61179 -1.86633 0
M  V30 2850 C 269.442 6.47675 -2.76942 0
M  V30 2851 H 265.541 0.769093 0.141489 0
M  V30 2852 H 268.125 1.92874 -0.266031 0
M  V30 2853 H 266.296 3.48382 1.7171 0
M  V30 2854 H 268.028 3.71008 1.61664 0
M  V30 2855 H 264.783 4.73439 -0.123432 0
M  V30 2856 H 265.207 6.42831 -2.12361 0
M  V30 2857 H 269.849 4.22136 -0.23692 0
M  V30 2858 H 267.567 7.31107 -3.44249 0
M  V30 2859 H 271.153 5.49636 -1.90764 0
M  V30 2860 H 270.033 7.02313 -3.48893 0
M  V30 2861 N 267.536 -0.106894 1.57237 0
M  V30 2862 C 268.784 -0.810921 1.85117 0
M  V30 2863 C 269.105 -1.7984 0.753827 0
M  V30 2864 O 268.375 -1.94649 -0.221056 0
M  V30 2865 H 266.955 -0.302466 0.683025 0
M  V30 2866 H 269.617 -0.0913324 1.94686 0
M  V30 2867 H 268.713 -1.34875 2.81452 0
M  V30 2868 N 269.014 -1.53014 -0.377408 0
M  V30 2869 C 269.962 -1.7927 -1.48206 0
M  V30 2870 C 270.956 -0.661195 -1.55963 0
M  V30 2871 O 272.162 -0.843908 -1.58991 0
M  V30 2872 H 268.537 -0.567425 -0.493491 0
M  V30 2873 H 270.508 -2.71753 -1.2326 0
M  V30 2874 C 269.257 -1.98894 -2.85196 0
M  V30 2875 H 268.58 -2.85395 -2.79981 0
M  V30 2876 H 270.02 -2.21249 -3.61698 0
M  V30 2877 C 268.479 -0.764691 -3.28107 0
M  V30 2878 O 269.009 0.0523226 -4.01666 0
M  V30 2879 N 267.215 -0.591493 -2.84517 0
M  V30 2880 H 266.762 -1.25749 -2.24822 0
M  V30 2881 H 266.72 0.226253 -3.13585 0
M  V30 2882 N 270.492 0.636531 -1.44174 0
M  V30 2883 C 271.717 1.42847 -1.50364 0
M  V30 2884 C 272.142 1.87665 -0.127867 0
M  V30 2885 O 271.5 1.58408 0.88185 0
M  V30 2886 C 271.548 2.62854 -2.4686 0
M  V30 2887 O 270.652 3.62501 -1.9664 0
M  V30 2888 H 269.993 0.427642 -0.507955 0
M  V30 2889 H 272.523 0.777422 -1.89255 0
M  V30 2890 H 272.533 3.10465 -2.64718 0
M  V30 2891 H 271.208 2.29578 -3.46795 0
M  V30 2892 H 269.785 3.21735 -1.88523 0
M  V30 2893 N 271.97 1.30982 0.876444 0
M  V30 2894 C 273.218 1.20058 1.62575 0
M  V30 2895 C 273.539 -0.242947 1.93481 0
M  V30 2896 O 272.809 -1.1619 1.57724 0
M  V30 2897 H 271.389 0.44135 0.602677 0
M  V30 2898 H 274.051 1.64222 1.04962 0
M  V30 2899 H 273.147 1.76762 2.57219 0
M  V30 2900 N 273.449 -1.08991 1.13837 0
M  V30 2901 C 274.359 -2.19301 0.833333 0
M  V30 2902 C 275.375 -1.73026 -0.183847 0
M  V30 2903 O 276.551 -2.01395 -0.0138092 0
M  V30 2904 C 273.616 -3.45323 0.308651 0
M  V30 2905 C 272.677 -4.06255 1.38764 0
M  V30 2906 C 271.91 -5.26262 0.887896 0
M  V30 2907 O 272.133 -5.69747 -0.27287 0
M  V30 2908 O 271.067 -5.78435 1.66421 0
M  V30 2909 H 274.893 -2.47854 1.75506 0
M  V30 2910 H 272.478 -1.18012 0.916166 0
M  V30 2911 H 274.36 -4.21394 0.0216739 0
M  V30 2912 H 273.035 -3.18362 -0.585431 0
M  V30 2913 H 271.942 -3.318 1.72799 0
M  V30 2914 H 273.275 -4.37452 2.25602 0
M  V30 2915 N 274.927 -0.932562 -1.27047 0
M  V30 2916 C 276.174 -0.575559 -1.94148 0
M  V30 2917 C 276.502 0.883984 -1.73251 0
M  V30 2918 O 275.757 1.64655 -1.0577 0
M  V30 2919 C 276.056 -0.853713 -3.47054 0
M  V30 2920 C 275.722 -2.29577 -3.88079 0
M  V30 2921 C 274.384 -2.68999 -3.9899 0
M  V30 2922 C 276.736 -3.23331 -4.08787 0
M  V30 2923 C 274.064 -4.01289 -4.28 0
M  V30 2924 C 276.416 -4.55207 -4.39282 0
M  V30 2925 C 275.08 -4.94457 -4.48407 0
M  V30 2926 H 274.35 -0.210612 -0.710439 0
M  V30 2927 H 276.997 -1.17744 -1.51025 0
M  V30 2928 H 275.302 -0.169204 -3.91434 0
M  V30 2929 H 276.999 -0.55639 -3.97121 0
M  V30 2930 H 273.589 -1.97994 -3.80127 0
M  V30 2931 H 277.773 -2.94074 -3.99793 0
M  V30 2932 H 273.029 -4.31374 -4.33275 0
M  V30 2933 H 277.203 -5.27852 -4.54252 0
M  V30 2934 H 274.83 -5.96994 -4.7064 0
M  V30 2935 N 276.405 1.4127 -0.698611 0
M  V30 2936 C 277.353 2.32588 -0.023855 0
M  V30 2937 C 278.347 1.51128 0.765292 0
M  V30 2938 O 279.553 1.67043 0.670571 0
M  V30 2939 H 275.928 0.751918 0.0110871 0
M  V30 2940 H 277.899 2.87167 -0.811031 0
M  V30 2941 C 276.648 3.35947 0.896369 0
M  V30 2942 H 275.971 3.98684 0.298548 0
M  V30 2943 H 277.411 4.02376 1.33676 0
M  V30 2944 C 275.87 2.70076 2.01396 0
M  V30 2945 O 276.4 2.55093 3.10307 0
M  V30 2946 N 274.606 2.28724 1.79259 0
M  V30 2947 H 274.153 2.4111 0.906841 0
M  V30 2948 H 274.111 1.84986 2.54219 0
M  V30 2949 N 277.883 0.443576 1.51229 0
M  V30 2950 C 279.113 -0.119117 2.06256 0
M  V30 2951 C 279.521 -1.36471 1.31043 0
M  V30 2952 O 278.864 -1.80034 0.365151 0
M  V30 2953 C 278.926 -0.500546 3.55998 0
M  V30 2954 C 278.59 0.639125 4.52509 0
M  V30 2955 C 279.587 1.51311 4.97394 0
M  V30 2956 C 277.272 0.821632 4.95535 0
M  V30 2957 C 279.266 2.55425 5.83984 0
M  V30 2958 C 276.953 1.86603 5.81913 0
M  V30 2959 C 277.951 2.73072 6.26036 0
M  V30 2960 O 277.639 3.75718 7.10698 0
M  V30 2961 H 277.371 -0.00857665 0.675946 0
M  V30 2962 H 279.925 0.623288 1.95715 0
M  V30 2963 H 278.155 -1.29575 3.64345 0
M  V30 2964 H 279.844 -0.995116 3.93513 0
M  V30 2965 H 280.61 1.38367 4.64844 0
M  V30 2966 H 276.489 0.158149 4.60729 0
M  V30 2967 H 280.033 3.22949 6.18344 0
M  V30 2968 H 275.93 1.99564 6.13876 0
M  V30 2969 H 276.698 3.72374 7.2889 0
M  V30 2970 N 279.361 -1.56624 0.175154 0
M  V30 2971 C 280.591 -2.01082 -0.474283 0
M  V30 2972 C 280.999 -1.05447 -1.57091 0
M  V30 2973 O 280.342 -0.0480595 -1.83637 0
M  V30 2974 C 280.404 -3.41963 -1.10911 0
M  V30 2975 C 280.068 -4.56742 -0.153666 0
M  V30 2976 C 281.065 -5.16076 0.629448 0
M  V30 2977 C 278.75 -5.02277 -0.0483776 0
M  V30 2978 C 280.744 -6.19377 1.50501 0
M  V30 2979 C 278.431 -6.05427 0.830768 0
M  V30 2980 C 279.429 -6.63849 1.60605 0
M  V30 2981 O 279.117 -7.64998 2.47049 0
M  V30 2982 H 278.849 -0.664261 -0.125432 0
M  V30 2983 H 281.403 -2.03549 0.275163 0
M  V30 2984 H 279.633 -3.36422 -1.90676 0
M  V30 2985 H 281.322 -3.70352 -1.66114 0
M  V30 2986 H 282.088 -4.81776 0.558297 0
M  V30 2987 H 277.967 -4.56513 -0.641611 0
M  V30 2988 H 281.511 -6.64906 2.1106 0
M  V30 2989 H 277.408 -6.39151 0.903107 0
M  V30 2990 H 278.176 -7.82336 2.40607 0
M  V30 2991 N 280.839 0.0985539 -1.57292 0
M  V30 2992 C 281.787 1.1387 -2.02821 0
M  V30 2993 C 282.781 1.41676 -0.928666 0
M  V30 2994 O 283.987 1.41398 -1.11385 0
M  V30 2995 H 280.362 0.384419 -0.646317 0
M  V30 2996 H 282.333 0.728347 -2.89375 0
M  V30 2997 C 281.082 2.45166 -2.46554 0
M  V30 2998 H 280.405 2.24613 -3.3074 0
M  V30 2999 H 281.845 3.16456 -2.8219 0
M  V30 3000 C 280.304 3.09216 -1.33742 0
M  V30 3001 O 280.834 3.96163 -0.66464 0
M  V30 3002 N 279.04 2.69413 -1.08928 0
M  V30 3003 H 278.587 1.98801 -1.63817 0
M  V30 3004 H 278.545 3.12594 -0.336458 0
M  V30 3005 N 282.317 1.53212 0.369288 0
M  V30 3006 C 283.594 1.59815 1.12776 0
M  V30 3007 C 283.974 0.403402 2.0721 0
M  V30 3008 O 283.322 -0.606667 2.20299 0
M  V30 3009 C 283.532 2.94664 1.87013 0
M  V30 3010 C 284.88 3.49109 2.41677 0
M  V30 3011 O 285.904 2.96669 1.97144 0
M  V30 3012 O 284.763 4.40775 3.23079 0
M  V30 3013 H 281.857 0.645376 0.517125 0
M  V30 3014 H 284.403 1.65553 0.37285 0
M  V30 3015 H 283.175 3.73061 1.18071 0
M  V30 3016 H 282.798 2.92401 2.69421 0
M  V30 3017 N 283.795 -0.628877 1.44509 0
M  V30 3018 C 284.758 -1.72263 1.51188 0
M  V30 3019 C 285.758 -1.55907 0.39367 0
M  V30 3020 O 286.948 -1.61361 0.656377 0
M  V30 3021 C 284.08 -3.11365 1.38798 0
M  V30 3022 H 285.273 -1.67714 2.4862 0
M  V30 3023 H 282.826 -0.842737 1.31634 0
M  V30 3024 H 283.561 -3.21507 0.424693 0
M  V30 3025 H 283.346 -3.24644 2.19884 0
M  V30 3026 H 284.836 -3.91075 1.46458 0
M  V30 3027 N 285.273 -1.31445 -0.869486 0
M  V30 3028 C 286.522 -1.20517 -1.61736 0
M  V30 3029 C 286.835 0.235341 -1.94179 0
M  V30 3030 O 288.041 0.466312 -2.67465 0
M  V30 3031 C 286.497 -2.10982 -2.91573 0
M  V30 3032 C 286.105 -3.60032 -2.66611 0
M  V30 3033 C 287.849 -2.08856 -3.69567 0
M  V30 3034 C 285.756 -4.42503 -3.92358 0
M  V30 3035 H 284.686 -0.447493 -0.606849 0
M  V30 3036 H 287.337 -1.56303 -0.96133 0
M  V30 3037 H 285.719 -1.68095 -3.58553 0
M  V30 3038 H 286.893 -4.11167 -2.08035 0
M  V30 3039 H 285.208 -3.64139 -2.0197 0
M  V30 3040 H 287.805 -2.67716 -4.62852 0
M  V30 3041 H 288.148 -1.07582 -4.02159 0
M  V30 3042 H 288.681 -2.49945 -3.09471 0
M  V30 3043 H 285.42 -5.44533 -3.64916 0
M  V30 3044 H 284.94 -3.96125 -4.50383 0
M  V30 3045 H 286.619 -4.54741 -4.60238 0
M  V30 3046 N 286.751 1.08385 -1.14413 0
M  V30 3047 C 287.979 1.84517 -0.936001 0
M  V30 3048 C 288.394 1.81626 0.515503 0
M  V30 3049 O 287.751 1.22008 1.35721 0
M  V30 3050 C 287.802 3.32049 -1.42918 0
M  V30 3051 O 287.523 3.34951 -2.82381 0
M  V30 3052 C 289.024 4.24986 -1.26103 0
M  V30 3053 H 286.244 0.582491 -0.333084 0
M  V30 3054 H 288.788 1.36885 -1.5193 0
M  V30 3055 H 286.943 3.7707 -0.888641 0
M  V30 3056 H 287.357 4.27048 -3.04517 0
M  V30 3057 H 288.831 5.26615 -1.6547 0
M  V30 3058 H 289.308 4.38726 -0.20392 0
M  V30 3059 H 289.914 3.85791 -1.79012 0
M  V30 3060 N 288.23 0.939286 1.26551 0
M  V30 3061 C 289.163 0.391702 2.24813 0
M  V30 3062 C 290.141 -0.518421 1.54114 0
M  V30 3063 O 291.325 -0.456299 1.82894 0
M  V30 3064 C 288.452 -0.437382 3.35864 0
M  V30 3065 C 287.498 0.410946 4.24516 0
M  V30 3066 S 288.331 1.83372 5.03125 0
M  V30 3067 C 289.487 1.01264 6.17654 0
M  V30 3068 H 289.72 1.22448 2.70913 0
M  V30 3069 H 287.253 0.742269 1.35387 0
M  V30 3070 H 289.211 -0.909837 4.0029 0
M  V30 3071 H 287.872 -1.24482 2.8838 0
M  V30 3072 H 287.065 -0.224191 5.03501 0
M  V30 3073 H 286.667 0.818014 3.64945 0
M  V30 3074 H 288.959 0.254023 6.77024 0
M  V30 3075 H 289.902 1.77589 6.85469 0
M  V30 3076 H 290.31 0.549532 5.61819 0
M  V30 3077 N 289.708 -1.40897 0.706093 0
M  V30 3078 C 290.638 -2.33418 0.0620085 0
M  V30 3079 C 291.619 -1.52385 -0.755827 0
M  V30 3080 O 292.804 -1.80886 -0.706674 0
M  V30 3081 C 289.934 -3.36293 -0.867445 0
M  V30 3082 C 288.888 -4.27716 -0.155932 0
M  V30 3083 C 288.214 -5.2105 -1.20046 0
M  V30 3084 C 289.514 -5.12944 0.984149 0
M  V30 3085 H 291.208 -2.87527 0.83477 0
M  V30 3086 H 288.754 -1.38249 0.402875 0
M  V30 3087 H 290.707 -3.99949 -1.32735 0
M  V30 3088 H 289.431 -2.80556 -1.67199 0
M  V30 3089 H 288.09 -3.65498 0.284047 0
M  V30 3090 H 287.738 -4.61624 -1.99781 0
M  V30 3091 H 287.438 -5.83056 -0.729328 0
M  V30 3092 H 288.962 -5.87584 -1.66066 0
M  V30 3093 H 290.376 -5.70109 0.604048 0
M  V30 3094 H 288.773 -5.83945 1.38304 0
M  V30 3095 H 289.843 -4.49485 1.81911 0
M  V30 3096 N 291.186 -0.45159 -1.50991 0
M  V30 3097 C 292.134 0.366864 -2.29689 0
M  V30 3098 C 293.128 1.00809 -1.36139 0
M  V30 3099 O 294.334 0.941427 -1.53418 0
M  V30 3100 H 290.709 0.137133 -0.739391 0
M  V30 3101 H 292.68 -0.317538 -2.96706 0
M  V30 3102 C 291.429 1.44751 -3.16137 0
M  V30 3103 H 290.752 0.963473 -3.88017 0
M  V30 3104 H 292.192 1.99315 -3.74232 0
M  V30 3105 C 290.651 2.43869 -2.32442 0
M  V30 3106 O 291.181 3.4872 -1.99392 0
M  V30 3107 N 289.387 2.15105 -1.95392 0
M  V30 3108 H 288.934 1.29866 -2.22469 0
M  V30 3109 H 288.892 2.81661 -1.39693 0
M  V30 3110 N 292.664 1.56529 -0.183458 0
M  V30 3111 C 293.892 2.01623 0.464285 0
M  V30 3112 C 294.307 1.06366 1.55986 0
M  V30 3113 O 293.664 0.0665398 1.82379 0
M  V30 3114 C 293.715 3.46475 1.03139 0
M  V30 3115 O 293.436 4.38095 -0.0204675 0
M  V30 3116 C 294.937 4.0703 1.75617 0
M  V30 3117 H 292.157 0.660596 0.117704 0
M  V30 3118 H 294.701 2.02451 -0.288751 0
M  V30 3119 H 292.856 3.46383 1.73486 0
M  V30 3120 H 293.27 5.22973 0.399952 0
M  V30 3121 H 294.744 5.10271 2.10542 0
M  V30 3122 H 295.221 3.49819 2.65563 0
M  V30 3123 H 295.827 4.1086 1.09882 0
M  V30 3124 N 294.142 -0.090211 1.57342 0
M  V30 3125 C 295.391 -0.791531 1.8552 0
M  V30 3126 C 295.704 -1.79659 0.773441 0
M  V30 3127 O 296.91 -2.54616 0.942497 0
M  V30 3128 C 295.366 -1.45856 3.2902 0
M  V30 3129 C 294.974 -0.493017 4.45279 0
M  V30 3130 C 296.718 -2.14332 3.66418 0
M  V30 3131 C 294.625 -1.16491 5.79814 0
M  V30 3132 H 293.555 -0.299356 0.692027 0
M  V30 3133 H 296.206 -0.0445343 1.83446 0
M  V30 3134 H 294.588 -2.25318 3.2565 0
M  V30 3135 H 295.762 0.270464 4.60006 0
M  V30 3136 H 294.077 0.0863061 4.16311 0
M  V30 3137 H 296.674 -2.65344 4.64216 0
M  V30 3138 H 297.017 -2.93447 2.95287 0
M  V30 3139 H 297.55 -1.41724 3.71698 0
M  V30 3140 H 294.289 -0.41447 6.54188 0
M  V30 3141 H 293.809 -1.8997 5.68921 0
M  V30 3142 H 295.488 -1.69001 6.24538 0
M  V30 3143 N 295.62 -1.53406 -0.361157 0
M  V30 3144 C 296.567 -1.80156 -1.44265 0
M  V30 3145 C 297.537 -0.646183 -1.53015 0
M  V30 3146 O 298.722 -0.888818 -1.68833 0
M  V30 3147 C 295.862 -2.00116 -2.81154 0
M  V30 3148 C 294.975 -3.27833 -2.81335 0
M  V30 3149 C 294.11 -3.37957 -4.09828 0
M  V30 3150 C 293.149 -4.59689 -4.04168 0
M  V30 3151 N 292.286 -4.66942 -5.24318 0
M  V30 3152 H 297.126 -2.72438 -1.20754 0
M  V30 3153 H 294.663 -1.34954 -0.585296 0
M  V30 3154 H 296.621 -2.09677 -3.60682 0
M  V30 3155 H 295.251 -1.11167 -3.03054 0
M  V30 3156 H 294.303 -3.27204 -1.94014 0
M  V30 3157 H 295.615 -4.17442 -2.73027 0
M  V30 3158 H 294.769 -3.46853 -4.97773 0
M  V30 3159 H 293.508 -2.46372 -4.20894 0
M  V30 3160 H 292.513 -4.50889 -3.14609 0
M  V30 3161 H 293.738 -5.5262 -3.947 0
M  V30 3162 H 291.684 -3.7826 -5.35962 0
M  V30 3163 H 291.601 -5.50462 -5.18197 0
M  V30 3164 H 292.869 -4.80127 -6.14084 0
M  V30 3165 N 297.098 0.621204 -1.44841 0
M  V30 3166 C 298.046 1.75385 -1.52784 0
M  V30 3167 C 299.04 1.64639 -0.398779 0
M  V30 3168 O 300.246 1.70598 -0.574137 0
M  V30 3169 H 296.621 0.579193 -0.479625 0
M  V30 3170 H 298.592 1.6581 -2.48092 0
M  V30 3171 C 297.341 3.13742 -1.4987 0
M  V30 3172 H 296.664 3.22663 -2.36069 0
M  V30 3173 H 298.104 3.92861 -1.59487 0
M  V30 3174 C 296.563 3.36175 -0.220973 0
M  V30 3175 O 297.093 3.95469 0.704782 0
M  V30 3176 N 295.299 2.90348 -0.120963 0
M  V30 3177 H 294.846 2.42278 -0.875162 0
M  V30 3178 H 294.804 3.05732 0.733168 0
M  V30 3179 N 298.576 1.31904 0.862503 0
M  V30 3180 C 299.523 1.20182 1.9704 0
M  V30 3181 C 300.493 0.0858247 1.65878 0
M  V30 3182 O 301.678 0.26 1.8902 0
M  V30 3183 C 298.818 0.922797 3.32533 0
M  V30 3184 C 297.931 2.12284 3.76244 0
M  V30 3185 C 297.066 1.77996 5.00491 0
M  V30 3186 C 296.105 2.94366 5.36671 0
M  V30 3187 N 295.242 2.60223 6.52095 0
M  V30 3188 H 300.082 2.14951 2.06398 0
M  V30 3189 H 297.619 1.06917 1.01031 0
M  V30 3190 H 299.577 0.741548 4.10557 0
M  V30 3191 H 298.207 0.0119227 3.22798 0
M  V30 3192 H 297.259 2.41461 2.9394 0
M  V30 3193 H 298.571 2.99357 3.98982 0
M  V30 3194 H 297.725 1.56377 5.862 0
M  V30 3195 H 296.464 0.881252 4.79672 0
M  V30 3196 H 295.469 3.16625 4.49476 0
M  V30 3197 H 296.694 3.84957 5.59451 0
M  V30 3198 H 294.64 1.72884 6.32809 0
M  V30 3199 H 294.557 3.40827 6.74814 0
M  V30 3200 H 295.825 2.42016 7.40978 0
M  V30 3201 N 300.054 -1.07777 1.14986 0
M  V30 3202 C 300.984 -2.16865 0.865557 0
M  V30 3203 C 301.965 -1.69123 -0.182083 0
M  V30 3204 O 303.15 -1.94164 -0.0373815 0
M  V30 3205 C 300.28 -3.45539 0.349313 0
M  V30 3206 C 299.234 -4.06708 1.33313 0
M  V30 3207 C 298.56 -5.30411 0.675918 0
M  V30 3208 C 299.86 -4.47241 2.69764 0
M  V30 3209 H 301.554 -2.40905 1.77778 0
M  V30 3210 H 299.1 -1.15781 0.856203 0
M  V30 3211 H 301.053 -4.21174 0.137983 0
M  V30 3212 H 299.777 -3.21072 -0.598362 0
M  V30 3213 H 298.436 -3.33112 1.53075 0
M  V30 3214 H 298.084 -5.02232 -0.277767 0
M  V30 3215 H 297.784 -5.72293 1.33244 0
M  V30 3216 H 299.308 -6.08755 0.474262 0
M  V30 3217 H 300.722 -5.14025 2.53873 0
M  V30 3218 H 299.119 -5.00062 3.3175 0
M  V30 3219 H 300.189 -3.58818 3.26156 0
M  V30 3220 N 301.532 -0.945985 -1.26051 0
M  V30 3221 C 302.465 -0.403619 -2.24602 0
M  V30 3222 C 303.443 0.510241 -1.54387 0
M  V30 3223 O 304.627 0.446593 -1.83133 0
M  V30 3224 C 301.754 0.419564 -3.36091 0
M  V30 3225 C 300.8 -0.433454 -4.24292 0
M  V30 3226 S 301.633 -1.86037 -5.02146 0
M  V30 3227 C 302.789 -1.04538 -6.17108 0
M  V30 3228 H 303.022 -1.23883 -2.7026 0
M  V30 3229 H 300.555 -0.749438 -1.34992 0
M  V30 3230 H 302.513 0.888595 -4.00767 0
M  V30 3231 H 301.174 1.22951 -2.89036 0
M  V30 3232 H 300.367 0.197486 -5.03613 0
M  V30 3233 H 299.969 -0.837357 -3.64506 0
M  V30 3234 H 302.261 -0.289923 -6.76879 0
M  V30 3235 H 303.204 -1.81222 -6.84518 0
M  V30 3236 H 303.612 -0.579319 -5.61519 0
M  V30 3237 N 303.011 1.40521 -0.713556 0
M  V30 3238 C 303.921 2.34522 -0.0606667 0
M  V30 3239 C 304.937 1.57193 0.74607 0
M  V30 3240 O 306.113 1.89591 0.679493 0
M  V30 3241 C 303.178 3.36081 0.851491 0
M  V30 3242 C 302.239 4.29286 0.0349339 0
M  V30 3243 C 301.472 5.25994 0.903649 0
M  V30 3244 O 301.695 5.28616 2.14292 0
M  V30 3245 O 300.629 6.00918 0.343723 0
M  V30 3246 H 304.455 2.91968 -0.835972 0
M  V30 3247 H 302.04 1.41681 -0.47402 0
M  V30 3248 H 303.922 3.98369 1.37404 0
M  V30 3249 H 302.597 2.81052 1.60598 0
M  V30 3250 H 301.504 3.70289 -0.532633 0
M  V30 3251 H 302.837 4.87462 -0.681287 0
M  V30 3252 N 304.489 0.459591 1.5075 0
M  V30 3253 C 305.437 -0.354678 2.2988 0
M  V30 3254 C 306.431 -1.00086 1.36672 0
M  V30 3255 O 307.637 -0.933277 1.53915 0
M  V30 3256 H 304.012 -0.13321 0.740107 0
M  V30 3257 H 305.983 0.333269 2.96533 0
M  V30 3258 C 304.732 -1.43073 3.169 0
M  V30 3259 H 304.055 -0.942882 3.88523 0
M  V30 3260 H 305.495 -1.97328 3.75284 0
M  V30 3261 C 303.954 -2.42633 2.33732 0
M  V30 3262 O 304.484 -3.47658 2.01238 0
M  V30 3263 N 302.69 -2.14066 1.9653 0
M  V30 3264 H 302.237 -1.28685 2.23155 0
M  V30 3265 H 302.195 -2.80917 1.41185 0
M  V30 3266 N 305.967 -1.56429 0.191757 0
M  V30 3267 C 306.899 -2.16154 -0.762245 0
M  V30 3268 C 307.912 -1.12247 -1.17917 0
M  V30 3269 O 309.101 -1.39353 -1.11548 0
M  V30 3270 C 306.201 -2.70606 -2.04024 0
M  V30 3271 C 305.374 -3.99381 -1.78364 0
M  V30 3272 C 304.433 -4.38692 -2.90578 0
M  V30 3273 O 303.459 -5.06179 -2.6033 0
M  V30 3274 N 304.661 -4.01922 -4.18854 0
M  V30 3275 H 307.426 -2.98643 -0.251526 0
M  V30 3276 H 304.987 -1.61897 0.00967373 0
M  V30 3277 H 306.979 -2.93891 -2.78227 0
M  V30 3278 H 305.549 -1.9259 -2.46227 0
M  V30 3279 H 304.769 -3.84262 -0.879581 0
M  V30 3280 H 306.057 -4.83445 -1.58614 0
M  V30 3281 H 305.455 -3.47631 -4.46283 0
M  V30 3282 H 304.012 -4.30165 -4.89695 0
M  V30 3283 N 307.445 0.0818655 -1.57387 0
M  V30 3284 C 308.694 0.781681 -1.85937 0
M  V30 3285 C 309.007 1.79246 -0.782957 0
M  V30 3286 O 310.213 2.54112 -0.955987 0
M  V30 3287 C 308.669 1.44109 -3.29789 0
M  V30 3288 C 308.277 0.469396 -4.45534 0
M  V30 3289 C 310.021 2.12386 -3.67549 0
M  V30 3290 C 307.928 1.13415 -5.80423 0
M  V30 3291 H 306.858 0.295682 -0.693605 0
M  V30 3292 H 309.509 0.0348051 -1.83467 0
M  V30 3293 H 307.891 2.23588 -3.2684 0
M  V30 3294 H 309.065 -0.294856 -4.59856 0
M  V30 3295 H 307.38 -0.108383 -4.16259 0
M  V30 3296 H 309.977 2.62878 -4.65617 0
M  V30 3297 H 310.32 2.91877 -2.96839 0
M  V30 3298 H 310.853 1.39751 -3.72444 0
M  V30 3299 H 307.592 0.379771 -6.54399 0
M  V30 3300 H 307.112 1.8695 -5.69921 0
M  V30 3301 H 308.791 1.65686 -6.25426 0
M  V30 3302 N 308.923 1.53595 0.353017 0
M  V30 3303 C 310.172 1.69603 1.09168 0
M  V30 3304 C 310.485 0.460925 1.90092 0
M  V30 3305 O 311.691 0.501774 2.66823 0
M  V30 3306 C 310.147 2.99872 1.9901 0
M  V30 3307 C 309.755 4.30687 1.23339 0
M  V30 3308 C 311.499 3.25246 2.72792 0
M  V30 3309 C 309.406 5.52036 2.12156 0
M  V30 3310 H 308.336 0.631966 0.411261 0
M  V30 3311 H 310.987 1.80096 0.351802 0
M  V30 3312 H 309.369 2.83212 2.7678 0
M  V30 3313 H 310.543 4.58019 0.505456 0
M  V30 3314 H 308.858 4.11853 0.613663 0
M  V30 3315 H 311.455 4.13095 3.39495 0
M  V30 3316 H 311.798 2.41846 3.38846 0
M  V30 3317 H 312.331 3.42638 2.021 0
M  V30 3318 H 309.07 6.37951 1.50659 0
M  V30 3319 H 308.59 5.28966 2.82764 0
M  V30 3320 H 310.269 5.87313 2.71427 0
M  V30 3321 N 310.401 -0.613514 1.45168 0
M  V30 3322 C 311.817 -0.933629 1.29443 0
M  V30 3323 C 312.017 -2.00028 0.243101 0
M  V30 3324 O 311.073 -2.49848 -0.364992 0
M  V30 3325 C 312.386 -1.38018 2.67155 0
M  V30 3326 C 313.934 -1.49471 2.75004 0
M  V30 3327 C 314.409 -1.97503 4.13227 0
M  V30 3328 N 315.9 -2.04746 4.15491 0
M  V30 3329 C 316.635 -2.43121 5.19307 0
M  V30 3330 N 316.131 -2.80506 6.33473 0
M  V30 3331 N 317.924 -2.43408 5.06664 0
M  V30 3332 H 310.075 0.0916097 2.12202 0
M  V30 3333 H 312.338 -0.0216655 0.947752 0
M  V30 3334 H 312.044 -0.670625 3.45247 0
M  V30 3335 H 311.918 -2.34784 2.95222 0
M  V30 3336 H 314.305 -2.19519 1.9722 0
M  V30 3337 H 314.386 -0.510342 2.50657 0
M  V30 3338 H 314.03 -1.28045 4.91495 0
M  V30 3339 H 313.96 -2.96843 4.34962 0
M  V30 3340 H 316.451 -1.78468 3.33103 0
M  V30 3341 H 316.764 -3.08652 7.08487 0
M  V30 3342 H 315.109 -2.78216 6.36884 0
M  V30 3343 H 318.3 -2.13604 4.16523 0
M  V30 3344 H 318.473 -2.72989 5.87691 0
M  V30 3345 N 311.879 -1.3236 -0.855495 0
M  V30 3346 C 313.126 -1.22872 -1.60962 0
M  V30 3347 C 313.454 0.209658 -1.93367 0
M  V30 3348 O 312.709 1.16243 -1.57436 0
M  V30 3349 C 313.008 -2.03275 -2.93963 0
M  V30 3350 C 312.674 -3.5264 -2.80991 0
M  V30 3351 C 311.336 -3.93364 -2.7716 0
M  V30 3352 C 313.688 -4.47626 -2.66983 0
M  V30 3353 C 311.016 -5.27319 -2.572 0
M  V30 3354 C 313.368 -5.81723 -2.48558 0
M  V30 3355 C 312.032 -6.2165 -2.4312 0
M  V30 3356 H 311.302 -0.44962 -0.589001 0
M  V30 3357 H 313.949 -1.63777 -0.992442 0
M  V30 3358 H 312.254 -1.55095 -3.59795 0
M  V30 3359 H 313.951 -1.93303 -3.51333 0
M  V30 3360 H 310.541 -3.20295 -2.84797 0
M  V30 3361 H 314.725 -4.17084 -2.68988 0
M  V30 3362 H 309.981 -5.57311 -2.51424 0
M  V30 3363 H 314.155 -6.5494 -2.36699 0
M  V30 3364 H 311.782 -7.25388 -2.27412 0
M  V30 3365 N 313.357 1.07166 -1.15556 0
M  V30 3366 C 314.582 1.84053 -0.955988 0
M  V30 3367 C 315.007 1.81586 0.490739 0
M  V30 3368 O 314.365 1.21018 1.34997 0
M  V30 3369 C 314.413 3.28957 -1.47714 0
M  V30 3370 O 313.517 4.06795 -0.677593 0
M  V30 3371 H 312.858 0.569842 -0.340847 0
M  V30 3372 H 315.388 1.35178 -1.53584 0
M  V30 3373 H 315.398 3.79788 -1.4908 0
M  V30 3374 H 314.073 3.30068 -2.53037 0
M  V30 3375 H 312.65 3.6561 -0.733721 0
M  V30 3376 N 314.835 0.952656 1.25548 0
M  V30 3377 C 316.246 0.647392 1.75116 0
M  V30 3378 C 316.597 -0.837274 1.77438 0
M  V30 3379 O 315.722 -1.65525 1.39393 0
M  V30 3380 C 316.317 1.16845 3.18014 0
M  V30 3381 C 314.876 0.913382 3.6515 0
M  V30 3382 C 314.023 1.31265 2.44264 0
M  V30 3383 H 316.974 1.12968 1.11462 0
M  V30 3384 H 316.995 0.527606 3.76824 0
M  V30 3385 H 316.507 2.24902 3.16292 0
M  V30 3386 H 314.608 -0.152316 3.72289 0
M  V30 3387 H 314.721 1.54845 4.53387 0
M  V30 3388 H 313.085 0.731028 2.43984 0
M  V30 3389 H 313.868 2.40239 2.45234 0
M  V30 3390 N 316.313 -1.40141 0.720998 0
M  V30 3391 C 317.543 -2.04798 0.27226 0
M  V30 3392 C 317.951 -1.54442 -1.09289 0
M  V30 3393 O 317.294 -0.698342 -1.69908 0
M  V30 3394 C 317.356 -3.59048 0.18027 0
M  V30 3395 C 317.02 -4.32317 1.48159 0
M  V30 3396 C 318.017 -4.59902 2.42458 0
M  V30 3397 C 315.702 -4.71125 1.74202 0
M  V30 3398 C 317.696 -5.25288 3.61042 0
M  V30 3399 C 315.383 -5.36242 2.93066 0
M  V30 3400 C 316.381 -5.63254 3.86308 0
M  V30 3401 O 316.069 -6.27024 5.03086 0
M  V30 3402 H 315.801 -0.665419 0.119139 0
M  V30 3403 H 318.355 -1.80436 0.981432 0
M  V30 3404 H 316.585 -3.82251 -0.58489 0
M  V30 3405 H 318.274 -4.05221 -0.234618 0
M  V30 3406 H 319.04 -4.30379 2.23604 0
M  V30 3407 H 314.919 -4.49466 1.02477 0
M  V30 3408 H 318.463 -5.46289 4.33837 0
M  V30 3409 H 314.36 -5.65185 3.11826 0
M  V30 3410 H 315.128 -6.4552 5.03235 0
M  V30 3411 N 317.792 -0.46758 -1.50504 0
M  V30 3412 C 319.041 0.0902868 -2.01498 0
M  V30 3413 C 319.354 1.411 -1.35463 0
M  V30 3414 O 320.56 2.0536 -1.77594 0
M  V30 3415 C 319.016 0.21142 -3.59278 0
M  V30 3416 C 318.624 -1.10065 -4.34269 0
M  V30 3417 C 320.368 0.721433 -4.18325 0
M  V30 3418 C 318.275 -0.943505 -5.83825 0
M  V30 3419 H 317.205 0.037517 -0.753066 0
M  V30 3420 H 319.856 -0.601943 -1.73346 0
M  V30 3421 H 318.238 0.967352 -3.84003 0
M  V30 3422 H 319.412 -1.86726 -4.21272 0
M  V30 3423 H 317.727 -1.5415 -3.86816 0
M  V30 3424 H 320.324 0.85598 -5.27804 0
M  V30 3425 H 320.667 1.71186 -3.79475 0
M  V30 3426 H 321.2 0.0229843 -3.97793 0
M  V30 3427 H 317.939 -1.90719 -6.27141 0
M  V30 3428 H 317.459 -0.217213 -5.99407 0
M  V30 3429 H 319.138 -0.608715 -6.4413 0
M  V30 3430 N 319.27 1.56325 -0.20005 0
M  V30 3431 C 320.547 1.89484 0.48529 0
M  V30 3432 C 320.927 1.1143 1.79294 0
M  V30 3433 O 320.275 0.216919 2.27468 0
M  V30 3434 C 320.485 3.41923 0.699243 0
M  V30 3435 C 321.833 4.12256 1.01638 0
M  V30 3436 O 322.857 3.47402 0.786792 0
M  V30 3437 O 321.716 5.26887 1.45095 0
M  V30 3438 H 318.81 0.787144 0.253639 0
M  V30 3439 H 321.356 1.67985 -0.240633 0
M  V30 3440 H 320.128 3.90658 -0.224008 0
M  V30 3441 H 319.751 3.69131 1.47744 0
M  V30 3442 N 320.748 -0.0735177 1.57428 0
M  V30 3443 C 321.696 -1.10628 2.04607 0
M  V30 3444 C 322.69 -1.40181 0.951088 0
M  V30 3445 O 323.896 -1.39608 1.1362 0
M  V30 3446 H 320.271 -0.374088 0.652351 0
M  V30 3447 H 322.242 -0.682218 2.90497 0
M  V30 3448 C 320.991 -2.41212 2.50423 0
M  V30 3449 H 320.314 -2.19322 3.34272 0
M  V30 3450 H 321.754 -3.11927 2.87189 0
M  V30 3451 C 320.213 -3.0705 1.38644 0
M  V30 3452 O 320.743 -3.95056 0.727582 0
M  V30 3453 N 318.949 -2.67645 1.132 0
M  V30 3454 H 318.496 -1.96169 1.66959 0
M  V30 3455 H 318.454 -3.1202 0.386147 0
M  V30 3456 N 322.226 -1.5378 -0.344866 0
M  V30 3457 C 323.156 -1.84662 -1.42906 0
M  V30 3458 C 324.137 -0.701648 -1.54955 0
M  V30 3459 O 325.322 -0.953438 -1.69184 0
M  V30 3460 C 322.452 -2.05503 -2.79974 0
M  V30 3461 C 321.406 -3.21318 -2.82734 0
M  V30 3462 C 320.732 -3.2749 -4.22675 0
M  V30 3463 C 322.032 -4.59456 -2.48389 0
M  V30 3464 H 323.726 -2.75461 -1.17311 0
M  V30 3465 H 321.272 -1.32542 -0.562896 0
M  V30 3466 H 323.225 -2.25691 -3.55867 0
M  V30 3467 H 321.949 -1.11434 -3.07002 0
M  V30 3468 H 320.608 -3.00984 -2.09294 0
M  V30 3469 H 320.256 -2.31019 -4.4681 0
M  V30 3470 H 319.956 -4.05316 -4.25433 0
M  V30 3471 H 321.48 -3.49887 -5.00412 0
M  V30 3472 H 322.894 -4.79667 -3.13995 0
M  V30 3473 H 321.291 -5.39675 -2.62432 0
M  V30 3474 H 322.361 -4.63155 -1.4358 0
M  V30 3475 N 323.704 0.605807 -1.45491 0
M  V30 3476 C 324.932 1.39136 -1.5313 0
M  V30 3477 C 325.347 1.88082 -0.164507 0
M  V30 3478 O 324.704 1.62316 0.834247 0
M  V30 3479 C 324.755 2.59463 -2.51716 0
M  V30 3480 O 324.476 2.12551 -3.83084 0
M  V30 3481 C 325.977 3.52301 -2.6907 0
M  V30 3482 H 323.197 0.425849 -0.51855 0
M  V30 3483 H 325.741 0.73865 -1.90694 0
M  V30 3484 H 323.896 3.20772 -2.17219 0
M  V30 3485 H 324.31 2.90744 -4.36541 0
M  V30 3486 H 325.784 4.33271 -3.42024 0
M  V30 3487 H 326.261 4.02757 -1.75167 0
M  V30 3488 H 326.867 2.96845 -3.04571 0
M  V30 3489 N 325.182 1.32811 0.848464 0
M  V30 3490 C 326.459 1.14334 1.58704 0
M  V30 3491 C 326.839 -0.293948 2.09043 0
M  V30 3492 O 326.187 -1.29153 1.88499 0
M  V30 3493 C 326.397 2.17626 2.72837 0
M  V30 3494 C 327.745 2.51282 3.42261 0
M  V30 3495 O 328.769 2.16219 2.83068 0
M  V30 3496 O 327.628 3.11413 4.49093 0
M  V30 3497 H 324.722 0.441601 0.699226 0
M  V30 3498 H 327.268 1.44362 0.892053 0
M  V30 3499 H 326.04 3.14211 2.3321 0
M  V30 3500 H 325.663 1.88628 3.50008 0
M  V30 3501 N 326.66 -1.06551 1.16123 0
M  V30 3502 C 328.071 -1.60768 0.949232 0
M  V30 3503 C 328.422 -1.89523 -0.507508 0
M  V30 3504 O 327.547 -1.66671 -1.38021 0
M  V30 3505 C 328.142 -2.92086 1.71671 0
M  V30 3506 C 326.701 -3.43015 1.54977 0
M  V30 3507 C 325.848 -2.16947 1.72711 0
M  V30 3508 H 328.799 -0.895354 1.31031 0
M  V30 3509 H 328.82 -3.6138 1.19099 0
M  V30 3510 H 328.332 -2.71127 2.7769 0
M  V30 3511 H 326.433 -3.69039 0.513873 0
M  V30 3512 H 326.546 -4.18516 2.33198 0
M  V30 3513 H 324.91 -2.27041 1.15431 0
M  V30 3514 H 325.693 -1.98473 2.80113 0
M  V30 3515 N 328.138 -0.959301 -1.25041 0
M  V30 3516 C 329.363 -0.633507 -1.97488 0
M  V30 3517 C 329.788 0.788555 -1.70773 0
M  V30 3518 O 329.146 1.53394 -0.966431 0
M  V30 3519 C 329.194 -0.904057 -3.49083 0
M  V30 3520 O 328.298 0.0147939 -4.12397 0
M  V30 3521 H 327.639 -0.240368 -0.618966 0
M  V30 3522 H 330.169 -1.28717 -1.59038 0
M  V30 3523 H 330.179 -0.832203 -3.99423 0
M  V30 3524 H 328.854 -1.94048 -3.67856 0
M  V30 3525 H 327.431 -0.109664 -3.72739 0
M  V30 3526 N 329.616 1.39756 -0.72842 0
M  V30 3527 C 330.846 2.04651 -0.283117 0
M  V30 3528 C 331.254 1.5502 1.08469 0
M  V30 3529 O 330.597 0.707343 1.69536 0
M  V30 3530 C 330.659 3.58947 -0.199309 0
M  V30 3531 C 330.323 4.31525 -1.5045 0
M  V30 3532 C 331.32 4.5861 -2.44894 0
M  V30 3533 C 329.005 4.70195 -1.76698 0
M  V30 3534 C 330.999 5.23366 -3.63822 0
M  V30 3535 C 328.686 5.3468 -2.95906 0
M  V30 3536 C 329.684 5.61198 -3.89289 0
M  V30 3537 O 329.372 6.24347 -5.06404 0
M  V30 3538 H 329.104 0.664777 -0.122666 0
M  V30 3539 H 331.658 1.79913 -0.990987 0
M  V30 3540 H 329.888 3.82556 0.56461 0
M  V30 3541 H 331.577 4.0534 0.213125 0
M  V30 3542 H 332.343 4.29187 -2.25883 0
M  V30 3543 H 328.222 4.48916 -1.04859 0
M  V30 3544 H 331.766 5.4398 -4.36728 0
M  V30 3545 H 327.663 5.63524 -3.14819 0
M  V30 3546 H 328.431 6.42842 -5.06652 0
M  V30 3547 N 331.094 0.475555 1.50254 0
M  V30 3548 C 332.044 -0.335025 2.25525 0
M  V30 3549 C 333.028 -0.957625 1.29299 0
M  V30 3550 O 334.22 -0.869436 1.54175 0
M  V30 3551 C 331.349 -1.41385 3.12834 0
M  V30 3552 C 330.435 -0.798762 4.1651 0
M  V30 3553 N 330.826 0.0835815 5.05731 0
M  V30 3554 C 329.124 -1.06221 4.33166 0
M  V30 3555 C 329.825 0.433113 5.80085 0
M  V30 3556 N 328.801 -0.1928 5.43258 0
M  V30 3557 H 332.603 0.344612 2.91873 0
M  V30 3558 H 330.117 0.289986 1.5979 0
M  V30 3559 H 332.114 -2.00777 3.65368 0
M  V30 3560 H 330.774 -2.09543 2.48036 0
M  V30 3561 H 331.785 0.452715 5.15918 0
M  V30 3562 H 328.462 -1.73844 3.79585 0
M  V30 3563 H 329.852 1.15346 6.61925 0
M  V30 3564 N 332.573 -1.56217 0.208337 0
M  V30 3565 C 333.822 -1.97124 -0.427204 0
M  V30 3566 C 334.135 -1.09859 -1.61835 0
M  V30 3567 O 335.341 -1.40606 -2.32255 0
M  V30 3568 C 333.797 -3.50633 -0.811442 0
M  V30 3569 C 333.405 -4.46582 0.35615 0
M  V30 3570 C 335.149 -4.00282 -1.41332 0
M  V30 3571 C 333.056 -5.91379 -0.0497852 0
M  V30 3572 H 331.986 -0.736086 -0.163381 0
M  V30 3573 H 334.637 -1.8099 0.302456 0
M  V30 3574 H 333.019 -3.62319 -1.59815 0
M  V30 3575 H 334.193 -4.46636 1.1337 0
M  V30 3576 H 332.508 -4.07202 0.870396 0
M  V30 3577 H 335.105 -5.0595 -1.72972 0
M  V30 3578 H 335.448 -3.45359 -2.32449 0
M  V30 3579 H 335.981 -3.91764 -0.690323 0
M  V30 3580 H 332.72 -6.50255 0.827529 0
M  V30 3581 H 332.24 -5.94549 -0.791926 0
M  V30 3582 H 333.919 -6.45209 -0.481042 0
M  V30 3583 N 334.051 0.0651679 -1.57465 0
M  V30 3584 C 335.462 0.616213 -1.76238 0
M  V30 3585 C 335.813 1.7756 -0.834689 0
M  V30 3586 O 334.938 2.1639 -0.0204156 0
M  V30 3587 C 335.533 1.12462 -3.1959 0
M  V30 3588 C 334.092 1.62147 -3.39684 0
M  V30 3589 C 333.239 0.543739 -2.71917 0
M  V30 3590 H 336.19 -0.161022 -1.57881 0
M  V30 3591 H 336.211 1.99324 -3.24114 0
M  V30 3592 H 335.723 0.280592 -3.87084 0
M  V30 3593 H 333.824 2.48854 -2.77313 0
M  V30 3594 H 333.937 1.69385 -4.48158 0
M  V30 3595 H 332.301 0.990352 -2.34657 0
M  V30 3596 H 333.084 -0.290216 -3.42071 0
M  V30 3597 N 335.529 1.53961 0.336706 0
M  V30 3598 C 336.492 1.81724 1.39675 0
M  V30 3599 C 337.492 0.688532 1.45313 0
M  V30 3600 O 338.682 0.956829 1.45569 0
M  V30 3601 C 335.814 1.96543 2.78538 0
M  V30 3602 H 337.007 2.76424 1.16318 0
M  V30 3603 H 334.56 1.45478 0.571474 0
M  V30 3604 H 335.295 1.0401 3.07168 0
M  V30 3605 H 335.08 2.78665 2.75841 0
M  V30 3606 H 336.57 2.19516 3.5525 0
M  V30 3607 N 337.007 -0.598083 1.45811 0
M  V30 3608 C 338.254 -1.35681 1.50323 0
M  V30 3609 C 338.582 -1.9393 0.148739 0
M  V30 3610 O 337.837 -1.76094 -0.853787 0
M  V30 3611 C 338.136 -2.51669 2.53766 0
M  V30 3612 C 337.802 -2.11508 3.98215 0
M  V30 3613 C 336.464 -2.0027 4.37545 0
M  V30 3614 C 338.816 -1.80308 4.89018 0
M  V30 3615 C 336.144 -1.56067 5.65562 0
M  V30 3616 C 338.496 -1.37589 6.17456 0
M  V30 3617 C 337.16 -1.24916 6.55708 0
M  V30 3618 H 336.43 -0.496492 0.550069 0
M  V30 3619 H 339.077 -0.675052 1.79207 0
M  V30 3620 H 337.382 -3.25225 2.18486 0
M  V30 3621 H 339.079 -3.09895 2.54492 0
M  V30 3622 H 335.669 -2.21185 3.67117 0
M  V30 3623 H 339.853 -1.87884 4.59362 0
M  V30 3624 H 335.109 -1.44886 5.93985 0
M  V30 3625 H 339.283 -1.12495 6.87254 0
M  V30 3626 H 336.91 -0.904386 7.54801 0
M  V30 3627 N 338.485 -1.33259 -0.841409 0
M  V30 3628 C 339.715 -1.2742 -1.62628 0
M  V30 3629 C 340.123 0.157604 -1.88542 0
M  V30 3630 O 339.466 1.10938 -1.46419 0
M  V30 3631 C 339.528 -1.97797 -3.00194 0
M  V30 3632 C 339.192 -3.47109 -2.97261 0
M  V30 3633 C 340.189 -4.42358 -2.73159 0
M  V30 3634 C 337.874 -3.89247 -3.17478 0
M  V30 3635 C 339.868 -5.77718 -2.69296 0
M  V30 3636 C 337.555 -5.24713 -3.13241 0
M  V30 3637 C 338.553 -6.1876 -2.89181 0
M  V30 3638 O 338.241 -7.51745 -2.84843 0
M  V30 3639 H 337.973 -0.440436 -0.512827 0
M  V30 3640 H 340.527 -1.76153 -1.05638 0
M  V30 3641 H 338.757 -1.43652 -3.59028 0
M  V30 3642 H 340.446 -1.8549 -3.61038 0
M  V30 3643 H 341.212 -4.11127 -2.57294 0
M  V30 3644 H 337.091 -3.16456 -3.35226 0
M  V30 3645 H 340.635 -6.51097 -2.50436 0
M  V30 3646 H 336.532 -5.55569 -3.28654 0
M  V30 3647 H 337.3 -7.61262 -3.00702 0
M  V30 3648 N 339.963 1.05934 -1.16686 0
M  V30 3649 C 341.24 1.75643 -0.860747 0
M  V30 3650 C 341.62 2.01144 0.640641 0
M  V30 3651 O 340.968 1.64147 1.58959 0
M  V30 3652 C 341.178 3.05493 -1.68745 0
M  V30 3653 C 342.526 3.79581 -1.90271 0
M  V30 3654 O 343.55 3.15344 -1.65641 0
M  V30 3655 O 342.409 4.9499 -2.31618 0
M  V30 3656 H 339.503 0.763426 -0.317977 0
M  V30 3657 H 342.049 1.1217 -1.27342 0
M  V30 3658 H 340.821 2.8264 -2.70611 0
M  V30 3659 H 340.444 3.76702 -1.27206 0
M  V30 3660 N 341.441 0.965919 1.2453 0
M  V30 3661 C 342.671 0.643451 1.96324 0
M  V30 3662 C 343.079 -0.790927 1.71875 0
M  V30 3663 O 342.422 -1.54208 0.998273 0
M  V30 3664 C 342.484 0.836078 3.49643 0
M  V30 3665 C 342.148 2.24975 3.97788 0
M  V30 3666 C 343.145 3.22735 4.07601 0
M  V30 3667 C 340.83 2.57697 4.31158 0
M  V30 3668 C 342.824 4.51303 4.50116 0
M  V30 3669 C 340.511 3.86492 4.73357 0
M  V30 3670 C 341.509 4.83107 4.828 0
M  V30 3671 O 341.197 6.09605 5.24058 0
M  V30 3672 H 340.929 0.239223 0.632257 0
M  V30 3673 H 343.483 1.29587 1.59362 0
M  V30 3674 H 341.713 0.12649 3.86493 0
M  V30 3675 H 343.402 0.512965 4.02646 0
M  V30 3676 H 344.168 2.98783 3.82039 0
M  V30 3677 H 340.047 1.83216 4.23028 0
M  V30 3678 H 343.591 5.26716 4.57401 0
M  V30 3679 H 339.488 4.10245 4.98366 0
M  V30 3680 H 340.256 6.13146 5.42213 0
M  V30 3681 N 342.919 -1.39368 0.735821 0
M  V30 3682 C 344.166 -2.00497 0.284123 0
M  V30 3683 C 344.494 -1.58387 -1.12889 0
M  V30 3684 O 343.749 -0.804359 -1.78406 0
M  V30 3685 C 344.048 -3.5583 0.334651 0
M  V30 3686 C 343.714 -4.17593 1.7008 0
M  V30 3687 C 342.376 -4.34176 2.07472 0
M  V30 3688 C 344.728 -4.51848 2.59775 0
M  V30 3689 C 342.056 -4.82304 3.34065 0
M  V30 3690 C 344.408 -5.01384 3.85741 0
M  V30 3691 C 343.072 -5.16175 4.23225 0
M  V30 3692 H 342.342 -0.73367 0.103968 0
M  V30 3693 H 344.989 -1.66683 0.942825 0
M  V30 3694 H 343.294 -3.89674 -0.407625 0
M  V30 3695 H 344.991 -4.00986 -0.0329927 0
M  V30 3696 H 341.581 -4.05087 1.40008 0
M  V30 3697 H 345.765 -4.38653 2.32157 0
M  V30 3698 H 341.021 -4.91941 3.63049 0
M  V30 3699 H 345.195 -5.26863 4.55399 0
M  V30 3700 H 342.822 -5.5323 5.21384 0
M  V30 3701 N 344.397 -0.483516 -1.5 0
M  V30 3702 C 345.36 0.292965 -2.2732 0
M  V30 3703 C 346.36 0.909499 -1.32608 0
M  V30 3704 O 347.55 0.776745 -1.55924 0
M  V30 3705 C 344.682 1.41854 -3.09984 0
M  V30 3706 H 345.875 -0.385289 -2.97415 0
M  V30 3707 H 343.428 -0.237942 -1.54478 0
M  V30 3708 H 344.163 2.13148 -2.44414 0
M  V30 3709 H 343.948 0.982114 -3.79601 0
M  V30 3710 H 345.438 1.96597 -3.68429 0
M  V30 3711 N 345.875 1.56104 -0.216619 0
M  V30 3712 C 346.823 2.21434 0.712036 0
M  V30 3713 C 347.817 1.19218 1.20348 0
M  V30 3714 O 349.023 1.3731 1.16387 0
M  V30 3715 H 345.398 0.70992 0.248026 0
M  V30 3716 H 347.369 2.98083 0.137558 0
M  V30 3717 C 346.118 2.90434 1.91163 0
M  V30 3718 H 345.441 3.68842 1.54258 0
M  V30 3719 H 346.881 3.39552 2.5393 0
M  V30 3720 C 345.34 1.92635 2.76394 0
M  V30 3721 O 345.87 1.44017 3.74996 0
M  V30 3722 N 344.076 1.60392 2.42328 0
M  V30 3723 H 343.623 2.00122 1.622 0
M  V30 3724 H 343.581 0.952159 2.99635 0
M  V30 3725 N 347.353 -0.0568162 1.57498 0
M  V30 3726 C 348.301 -1.08452 2.05769 0
M  V30 3727 C 349.295 -1.39164 0.965903 0
M  V30 3728 O 350.501 -1.38395 1.15095 0
M  V30 3729 H 346.876 -0.367148 0.656282 0
M  V30 3730 H 348.847 -0.651368 2.91204 0
M  V30 3731 C 347.596 -2.38543 2.52968 0
M  V30 3732 H 346.919 -2.15765 3.36579 0
M  V30 3733 H 348.359 -3.08863 2.90481 0
M  V30 3734 C 346.818 -3.05562 1.41893 0
M  V30 3735 O 347.348 -3.94262 0.769442 0
M  V30 3736 N 345.554 -2.6643 1.16032 0
M  V30 3737 H 345.101 -1.94387 1.6903 0
M  V30 3738 H 345.059 -3.11593 0.419219 0
M  V30 3739 N 348.832 -1.54138 -0.328536 0
M  V30 3740 C 350.078 -1.7236 -1.06865 0
M  V30 3741 C 350.411 -0.493231 -1.87832 0
M  V30 3742 O 349.686 0.5098 -1.877 0
M  V30 3743 C 349.969 -2.99621 -1.99747 0
M  V30 3744 C 349.822 -4.32899 -1.22143 0
M  V30 3745 C 351.141 -3.22615 -2.99345 0
M  V30 3746 H 348.26 -0.627151 -0.387105 0
M  V30 3747 H 350.902 -1.86827 -0.345767 0
M  V30 3748 H 349.052 -2.87418 -2.61387 0
M  V30 3749 H 350.724 -4.56978 -0.630017 0
M  V30 3750 H 348.967 -4.30628 -0.523628 0
M  V30 3751 H 349.638 -5.18154 -1.90318 0
M  V30 3752 H 352.114 -3.34248 -2.47826 0
M  V30 3753 H 350.99 -4.13027 -3.61524 0
M  V30 3754 H 351.251 -2.3961 -3.71536 0
M  V30 3755 N 350.31 0.590341 -1.46126 0
M  V30 3756 C 351.538 1.37504 -1.54597 0
M  V30 3757 C 351.953 1.87897 -0.184447 0
M  V30 3758 O 351.31 1.63192 0.816984 0
M  V30 3759 C 351.361 2.56779 -2.54454 0
M  V30 3760 O 351.082 2.08476 -3.85317 0
M  V30 3761 C 352.583 3.49427 -2.72792 0
M  V30 3762 H 349.803 0.420325 -0.523037 0
M  V30 3763 H 352.347 0.718383 -1.91467 0
M  V30 3764 H 350.502 3.1845 -2.20609 0
M  V30 3765 H 350.916 2.86097 -4.396 0
M  V30 3766 H 352.39 4.29619 -3.466 0
M  V30 3767 H 352.867 4.00876 -1.79429 0
M  V30 3768 H 353.473 2.93598 -3.07702 0
M  V30 3769 N 351.788 1.33704 0.83433 0
M  V30 3770 C 352.736 1.24323 1.96587 0
M  V30 3771 C 353.73 0.143659 1.6879 0
M  V30 3772 O 354.936 0.30791 1.77347 0
M  V30 3773 H 351.311 0.385925 0.645419 0
M  V30 3774 H 353.282 2.19978 2.01624 0
M  V30 3775 C 352.031 1.00394 3.32891 0
M  V30 3776 H 351.354 1.84231 3.54822 0
M  V30 3777 H 352.794 0.97862 4.12552 0
M  V30 3778 C 351.253 -0.293047 3.35623 0
M  V30 3779 O 351.783 -1.29823 3.80143 0
M  V30 3780 N 349.989 -0.322174 2.88809 0
M  V30 3781 H 349.536 0.496379 2.52772 0
M  V30 3782 H 349.494 -1.18977 2.91019 0
M  V30 3783 N 353.266 -1.05314 1.17247 0
M  V30 3784 C 354.198 -2.13023 0.845812 0
M  V30 3785 C 355.211 -1.62096 -0.151246 0
M  V30 3786 O 356.4 -1.78343 0.0748818 0
M  V30 3787 C 353.5 -3.38047 0.240292 0
M  V30 3788 C 352.673 -4.18255 1.27991 0
M  V30 3789 C 351.732 -5.21625 0.692375 0
M  V30 3790 O 350.758 -5.52619 1.36385 0
M  V30 3791 N 351.96 -5.78201 -0.516178 0
M  V30 3792 H 354.725 -2.41642 1.77283 0
M  V30 3793 H 352.286 -1.21401 1.07115 0
M  V30 3794 H 354.278 -4.04359 -0.16603 0
M  V30 3795 H 352.848 -3.06972 -0.590487 0
M  V30 3796 H 352.068 -3.47451 1.86203 0
M  V30 3797 H 353.356 -4.68643 1.98119 0
M  V30 3798 H 352.754 -5.55301 -1.07969 0
M  V30 3799 H 351.311 -6.4604 -0.86458 0
M  V30 3800 N 354.744 -0.972509 -1.24016 0
M  V30 3801 C 355.707 -0.511403 -2.23422 0
M  V30 3802 C 356.707 0.394679 -1.55881 0
M  V30 3803 O 357.897 0.189469 -1.73167 0
M  V30 3804 C 355.029 0.258769 -3.39916 0
M  V30 3805 H 356.222 -1.39024 -2.6573 0
M  V30 3806 H 353.775 -0.757585 -1.36713 0
M  V30 3807 H 354.51 1.1545 -3.03054 0
M  V30 3808 H 354.295 -0.391522 -3.9014 0
M  V30 3809 H 355.785 0.570244 -4.13688 0
M  V30 3810 N 356.222 1.38976 -0.743202 0
M  V30 3811 C 357.499 1.94351 -0.220705 0
M  V30 3812 C 357.879 1.67935 1.2791 0
M  V30 3813 O 357.227 1.01211 2.04862 0
M  V30 3814 C 357.437 3.44426 -0.563171 0
M  V30 3815 C 358.785 4.2144 -0.517046 0
M  V30 3816 O 359.809 3.52661 -0.500846 0
M  V30 3817 O 358.668 5.44032 -0.518806 0
M  V30 3818 H 355.762 0.825879 -0.043047 0
M  V30 3819 H 358.308 1.48429 -0.822618 0
M  V30 3820 H 357.08 3.5712 -1.59941 0
M  V30 3821 H 356.703 3.97543 0.0672883 0
M  V30 3822 N 357.7 0.491464 1.49741 0
M  V30 3823 C 358.647 -0.292027 2.28945 0
M  V30 3824 C 359.617 -0.968973 1.34908 0
M  V30 3825 O 360.802 -0.97748 1.6386 0
M  V30 3826 C 357.942 -1.35617 3.17336 0
M  V30 3827 C 357.055 -0.691957 4.26422 0
M  V30 3828 C 356.19 -1.73572 5.02042 0
M  V30 3829 C 355.229 -1.05286 6.02977 0
M  V30 3830 N 354.366 -2.0404 6.71798 0
M  V30 3831 H 359.206 0.389654 2.95442 0
M  V30 3832 H 356.743 0.204003 1.45679 0
M  V30 3833 H 358.701 -1.98502 3.66951 0
M  V30 3834 H 357.331 -2.00674 2.52844 0
M  V30 3835 H 356.383 0.0499523 3.80367 0
M  V30 3836 H 357.695 -0.153946 4.98562 0
M  V30 3837 H 356.849 -2.43987 5.55478 0
M  V30 3838 H 355.588 -2.30757 4.29654 0
M  V30 3839 H 354.593 -0.334446 5.48782 0
M  V30 3840 H 355.818 -0.487636 6.77347 0
M  V30 3841 H 353.764 -2.60205 6.02187 0
M  V30 3842 H 353.681 -1.55279 7.39881 0
M  V30 3843 H 354.949 -2.73772 7.29842 0
M  V30 3844 N 359.178 -1.55987 0.224894 0
M  V30 3845 C 360.126 -2.21808 -0.700283 0
M  V30 3846 C 361.12 -1.19854 -1.19714 0
M  V30 3847 O 362.326 -1.37925 -1.15658 0
M  V30 3848 H 358.701 -0.711226 -0.244258 0
M  V30 3849 H 360.672 -2.98152 -0.121749 0
M  V30 3850 C 359.421 -2.91444 -1.8962 0
M  V30 3851 H 358.744 -3.69655 -1.52299 0
M  V30 3852 H 360.184 -3.40894 -2.52125 0
M  V30 3853 C 358.643 -1.94098 -2.75368 0
M  V30 3854 O 359.173 -1.46004 -3.74227 0
M  V30 3855 N 357.379 -1.61675 -2.41474 0
M  V30 3856 H 356.926 -2.00979 -1.61137 0
M  V30 3857 H 356.884 -0.968036 -2.99126 0
M  V30 3858 N 360.656 0.0484629 -1.57525 0
M  V30 3859 C 361.886 0.754326 -1.92337 0
M  V30 3860 C 362.294 1.70443 -0.82132 0
M  V30 3861 O 361.637 1.82466 0.21254 0
M  V30 3862 C 361.699 1.58231 -3.22805 0
M  V30 3863 C 361.363 0.799074 -4.4996 0
M  V30 3864 C 362.36 0.1079 -5.19788 0
M  V30 3865 C 360.045 0.759345 -4.96527 0
M  V30 3866 C 362.039 -0.612516 -6.3445 0
M  V30 3867 C 359.726 0.0351713 -6.1109 0
M  V30 3868 C 360.724 -0.649537 -6.79904 0
M  V30 3869 O 360.412 -1.36199 -7.92278 0
M  V30 3870 H 360.144 0.218257 -0.639797 0
M  V30 3871 H 362.698 0.0159295 -2.05394 0
M  V30 3872 H 360.928 2.36406 -3.06021 0
M  V30 3873 H 362.617 2.16898 -3.43089 0
M  V30 3874 H 363.383 0.129748 -4.84826 0
M  V30 3875 H 359.262 1.28177 -4.42822 0
M  V30 3876 H 362.806 -1.14751 -6.88097 0
M  V30 3877 H 358.703 0.0113314 -6.45499 0
M  V30 3878 H 359.471 -1.27366 -8.0853 0
M  V30 3879 N 362.134 1.5431 0.320358 0
M  V30 3880 C 363.38 1.73859 1.05568 0
M  V30 3881 C 363.735 0.507807 1.85578 0
M  V30 3882 O 363.028 -0.499789 1.84967 0
M  V30 3883 C 363.222 2.95639 2.00828 0
M  V30 3884 C 363.051 4.30444 1.30186 0
M  V30 3885 C 361.821 4.94544 1.03703 0
M  V30 3886 C 364.019 5.0929 0.716138 0
M  V30 3887 N 362.001 6.13172 0.298846 0
M  V30 3888 C 363.372 6.19903 0.109729 0
M  V30 3889 C 365.427 4.94034 0.619269 0
M  V30 3890 C 364.13 7.16924 -0.584153 0
M  V30 3891 C 366.156 5.91369 -0.0609184 0
M  V30 3892 C 365.518 7.01336 -0.656258 0
M  V30 3893 H 361.617 0.688988 0.36989 0
M  V30 3894 H 364.201 1.9177 0.336494 0
M  V30 3895 H 362.372 2.79188 2.70016 0
M  V30 3896 H 364.104 3.03802 2.6737 0
M  V30 3897 H 360.859 4.54536 1.33019 0
M  V30 3898 H 361.283 6.76977 -0.0561964 0
M  V30 3899 H 365.925 4.0916 1.06526 0
M  V30 3900 H 363.643 8.01354 -1.04197 0
M  V30 3901 H 367.229 5.81642 -0.135552 0
M  V30 3902 H 366.109 7.75359 -1.17423 0
M  V30 3903 N 363.613 -0.582584 1.46437 0
M  V30 3904 C 365.029 -0.905962 1.31394 0
M  V30 3905 C 365.229 -1.99468 0.285476 0
M  V30 3906 O 364.285 -2.50566 -0.311914 0
M  V30 3907 C 365.598 -1.3232 2.70022 0
M  V30 3908 C 367.146 -1.43604 2.78113 0
M  V30 3909 C 367.621 -1.88694 4.17323 0
M  V30 3910 N 369.112 -1.95887 4.19741 0
M  V30 3911 C 369.847 -2.32051 5.24347 0
M  V30 3912 N 369.343 -2.67006 6.39281 0
M  V30 3913 N 371.136 -2.32606 5.11713 0
M  V30 3914 H 363.287 0.1366 2.1196 0
M  V30 3915 H 365.55 -0.00155736 0.947999 0
M  V30 3916 H 365.256 -0.597242 3.46592 0
M  V30 3917 H 365.13 -2.28469 3.00136 0
M  V30 3918 H 367.517 -2.15286 2.01832 0
M  V30 3919 H 367.598 -0.457059 2.51684 0
M  V30 3920 H 367.242 -1.1759 4.941 0
M  V30 3921 H 367.172 -2.8755 4.4116 0
M  V30 3922 H 369.663 -1.71362 3.36814 0
M  V30 3923 H 369.976 -2.93554 7.14875 0
M  V30 3924 H 368.321 -2.64644 6.42642 0
M  V30 3925 H 371.512 -2.04721 4.2096 0
M  V30 3926 H 371.685 -2.60462 5.93349 0
M  V30 3927 N 365.091 -1.34144 -0.827227 0
M  V30 3928 C 366.023 -1.21206 -1.9453 0
M  V30 3929 C 367.036 -0.140176 -1.62195 0
M  V30 3930 O 368.225 -0.391647 -1.7415 0
M  V30 3931 C 365.325 -0.839141 -3.28347 0
M  V30 3932 C 364.498 -2.0051 -3.88734 0
M  V30 3933 C 363.557 -1.61128 -5.00923 0
M  V30 3934 O 362.583 -2.32726 -5.19449 0
M  V30 3935 N 363.785 -0.522958 -5.7814 0
M  V30 3936 H 366.55 -2.17525 -2.06162 0
M  V30 3937 H 364.111 -1.27043 -1.00358 0
M  V30 3938 H 366.103 -0.557556 -4.00841 0
M  V30 3939 H 364.673 0.0337293 -3.12582 0
M  V30 3940 H 363.893 -2.45166 -3.08686 0
M  V30 3941 H 365.181 -2.78498 -4.25812 0
M  V30 3942 H 364.579 0.0723518 -5.65654 0
M  V30 3943 H 363.136 -0.301089 -6.51104 0
M  V30 3944 N 366.569 1.04691 -1.17803 0
M  V30 3945 C 367.815 1.78045 -0.970969 0
M  V30 3946 C 368.148 1.87686 0.498751 0
M  V30 3947 O 367.423 1.38035 1.37027 0
M  V30 3948 C 367.706 3.2166 -1.61884 0
M  V30 3949 C 367.559 3.20001 -3.161 0
M  V30 3950 C 368.878 4.1962 -1.3269 0
M  V30 3951 H 365.997 0.64633 -0.354155 0
M  V30 3952 H 368.639 1.22333 -1.45378 0
M  V30 3953 H 366.789 3.69232 -1.20831 0
M  V30 3954 H 368.461 2.80467 -3.66246 0
M  V30 3955 H 366.704 2.58203 -3.48588 0
M  V30 3956 H 367.375 4.21386 -3.56564 0
M  V30 3957 H 369.851 3.80567 -1.68249 0
M  V30 3958 H 368.727 5.18339 -1.80599 0
M  V30 3959 H 368.988 4.414 -0.248622 0
M  V30 3960 N 368.047 0.979072 1.23499 0
M  V30 3961 C 369.01 0.523244 2.23147 0
M  V30 3962 C 370.01 -0.386406 1.56088 0
M  V30 3963 O 371.2 -0.180283 1.73265 0
M  V30 3964 C 368.332 -0.240739 3.40049 0
M  V30 3965 H 369.525 1.40432 2.64989 0
M  V30 3966 H 367.078 0.764824 1.36309 0
M  V30 3967 H 367.813 -1.13841 3.03662 0
M  V30 3968 H 367.598 0.412207 3.89927 0
M  V30 3969 H 369.088 -0.548297 4.13985 0
M  V30 3970 N 369.525 -1.3858 0.750561 0
M  V30 3971 C 370.753 -2.04471 0.316098 0
M  V30 3972 C 371.168 -1.56606 -1.05452 0
M  V30 3973 O 370.525 -0.737784 -1.66922 0
M  V30 3974 C 370.576 -3.60025 0.326275 0
M  V30 3975 O 370.297 -4.06133 1.6428 0
M  V30 3976 C 371.798 -4.43131 -0.122429 0
M  V30 3977 H 369.018 -0.65717 0.135528 0
M  V30 3978 H 371.562 -1.77329 1.01857 0
M  V30 3979 H 369.717 -3.86014 -0.327431 0
M  V30 3980 H 370.131 -5.00547 1.56693 0
M  V30 3981 H 371.605 -5.51963 -0.0641473 0
M  V30 3982 H 372.082 -4.23333 -1.16988 0
M  V30 3983 H 372.688 -4.22323 0.50229 0
M  V30 3984 N 371.003 -0.499398 -1.49478 0
M  V30 3985 C 371.95 0.279881 -2.29097 0
M  V30 3986 C 372.92 0.961805 -1.3542 0
M  V30 3987 O 374.105 0.968777 -1.64376 0
M  V30 3988 C 371.245 1.33932 -3.18051 0
M  V30 3989 C 370.358 0.669333 -4.26783 0
M  V30 3990 C 369.493 1.70907 -5.02955 0
M  V30 3991 C 368.532 1.02087 -6.03527 0
M  V30 3992 N 367.669 2.00474 -6.7287 0
M  V30 3993 H 372.509 -0.405317 -2.95231 0
M  V30 3994 H 370.046 -0.211726 -1.45568 0
M  V30 3995 H 372.004 1.96553 -3.67998 0
M  V30 3996 H 370.634 1.9933 -2.53904 0
M  V30 3997 H 369.686 -0.0701234 -3.80335 0
M  V30 3998 H 370.998 0.127503 -4.98637 0
M  V30 3999 H 370.152 2.41037 -5.56764 0
M  V30 4000 H 368.891 2.28476 -4.30871 0
M  V30 4001 H 367.896 0.305338 -5.48951 0
M  V30 4002 H 369.121 0.451708 -6.77596 0
M  V30 4003 H 367.067 2.57007 -6.03559 0
M  V30 4004 H 366.984 1.51353 -7.40694 0
M  V30 4005 H 368.252 2.69897 -7.31284 0
M  V30 4006 N 372.481 1.55866 -0.233164 0
M  V30 4007 C 373.706 2.03449 0.402906 0
M  V30 4008 C 374.131 1.11166 1.51736 0
M  V30 4009 O 373.489 0.101996 1.81013 0
M  V30 4010 C 373.537 3.49165 0.9009 0
M  V30 4011 O 372.641 3.60019 2.01147 0
M  V30 4012 H 371.982 0.657913 0.0897025 0
M  V30 4013 H 374.512 2.01493 -0.355201 0
M  V30 4014 H 374.522 3.89716 1.2077 0
M  V30 4015 H 373.197 4.15813 0.0852889 0
M  V30 4016 H 371.774 3.3136 1.71042 0
M  V30 4017 N 373.959 -0.0401083 1.57549 0
M  V30 4018 C 375.375 -0.395556 1.54621 0
M  V30 4019 C 375.575 -1.77281 0.957799 0
M  V30 4020 O 374.631 -2.45888 0.574031 0
M  V30 4021 C 375.944 -0.307535 2.99123 0
M  V30 4022 C 377.492 -0.385425 3.10618 0
M  V30 4023 C 377.967 -0.326973 4.56831 0
M  V30 4024 N 379.458 -0.386102 4.61588 0
M  V30 4025 C 380.193 -0.363591 5.72246 0
M  V30 4026 N 379.689 -0.29402 6.92176 0
M  V30 4027 N 381.482 -0.412503 5.60584 0
M  V30 4028 H 373.633 0.861325 1.94152 0
M  V30 4029 H 375.896 0.326445 0.890021 0
M  V30 4030 H 375.602 0.638461 3.45856 0
M  V30 4031 H 375.476 -1.10552 3.60636 0
M  V30 4032 H 377.863 -1.32185 2.63839 0
M  V30 4033 H 377.944 0.44171 2.51957 0
M  V30 4034 H 377.588 0.605738 5.04275 0
M  V30 4035 H 377.518 -1.17207 5.13391 0
M  V30 4036 H 380.009 -0.442832 3.75296 0
M  V30 4037 H 380.322 -0.28164 7.72287 0
M  V30 4038 H 378.667 -0.260232 6.94513 0
M  V30 4039 H 381.858 -0.464769 4.65787 0
M  V30 4040 H 382.031 -0.391492 6.46816 0
M  V30 4041 N 375.437 -1.54477 -0.31217 0
M  V30 4042 C 376.665 -1.77205 -1.068 0
M  V30 4043 C 377.08 -0.526114 -1.81321 0
M  V30 4044 O 376.437 0.503647 -1.75413 0
M  V30 4045 C 376.488 -2.97253 -2.05725 0
M  V30 4046 O 376.209 -4.1703 -1.34228 0
M  V30 4047 C 377.71 -3.32281 -2.93435 0
M  V30 4048 H 374.93 -0.591287 -0.317208 0
M  V30 4049 H 377.474 -2.01398 -0.354834 0
M  V30 4050 H 375.629 -2.753 -2.72559 0
M  V30 4051 H 376.043 -4.84636 -2.00571 0
M  V30 4052 H 377.517 -4.19551 -3.58721 0
M  V30 4053 H 377.994 -2.49945 -3.61143 0
M  V30 4054 H 378.6 -3.56353 -2.32147 0
M  V30 4055 N 376.915 0.57481 -1.46744 0
M  V30 4056 C 377.845 1.69337 -1.60771 0
M  V30 4057 C 378.826 1.63825 -0.457736 0
M  V30 4058 O 380.011 1.8172 -0.684947 0
M  V30 4059 C 377.141 3.0798 -1.60517 0
M  V30 4060 C 376.095 3.28327 -2.74564 0
M  V30 4061 C 375.421 4.67578 -2.59373 0
M  V30 4062 C 376.721 3.15398 -4.16319 0
M  V30 4063 H 378.415 1.57853 -2.54407 0
M  V30 4064 H 375.961 0.75799 -1.22436 0
M  V30 4065 H 377.914 3.86061 -1.68923 0
M  V30 4066 H 376.638 3.20381 -0.634305 0
M  V30 4067 H 375.297 2.52649 -2.65639 0
M  V30 4068 H 374.945 4.76755 -1.60353 0
M  V30 4069 H 374.645 4.82144 -3.35873 0
M  V30 4070 H 376.169 5.47817 -2.69682 0
M  V30 4071 H 377.583 3.83315 -4.26313 0
M  V30 4072 H 375.98 3.41482 -4.93468 0
M  V30 4073 H 377.05 2.12372 -4.3592 0
M  V30 4074 N 378.394 1.34581 0.820102 0
M  V30 4075 C 379.324 1.29038 1.94606 0
M  V30 4076 C 380.305 0.1673 1.69275 0
M  V30 4077 O 381.49 0.360112 1.90832 0
M  V30 4078 C 378.62 1.04793 3.31113 0
M  V30 4079 C 377.574 2.13597 3.70891 0
M  V30 4080 C 376.9 1.74537 5.05412 0
M  V30 4081 C 378.2 3.55451 3.8269 0
M  V30 4082 H 379.894 2.23248 1.99501 0
M  V30 4083 H 377.44 1.0747 0.958449 0
M  V30 4084 H 379.393 0.995592 4.0947 0
M  V30 4085 H 378.117 0.0702565 3.26524 0
M  V30 4086 H 376.776 2.17905 2.9481 0
M  V30 4087 H 376.424 0.754226 4.97313 0
M  V30 4088 H 376.124 2.47361 5.32997 0
M  V30 4089 H 377.648 1.70803 5.86224 0
M  V30 4090 H 379.062 3.5354 4.51312 0
M  V30 4091 H 377.459 4.26922 4.21732 0
M  V30 4092 H 378.529 3.92587 2.84611 0
M  V30 4093 N 379.872 -1.04064 1.18357 0
M  V30 4094 C 380.819 -2.12077 0.910603 0
M  V30 4095 C 381.789 -1.65421 -0.15 0
M  V30 4096 O 382.974 -1.90797 -0.0103614 0
M  V30 4097 C 380.114 -3.42252 0.442472 0
M  V30 4098 C 379.227 -4.0252 1.5685 0
M  V30 4099 C 378.362 -5.20657 1.05309 0
M  V30 4100 C 377.401 -5.72955 2.1538 0
M  V30 4101 N 376.538 -6.8238 1.65233 0
M  V30 4102 H 381.378 -2.34764 1.83548 0
M  V30 4103 H 378.915 -1.15157 0.915279 0
M  V30 4104 H 380.873 -4.16921 0.152534 0
M  V30 4105 H 379.503 -3.19712 -0.445428 0
M  V30 4106 H 378.555 -3.25178 1.97391 0
M  V30 4107 H 379.867 -4.37362 2.39824 0
M  V30 4108 H 379.021 -6.0244 0.717677 0
M  V30 4109 H 377.76 -4.87318 0.19293 0
M  V30 4110 H 376.765 -4.89793 2.49766 0
M  V30 4111 H 377.99 -6.08337 3.01832 0
M  V30 4112 H 375.936 -6.50917 0.815064 0
M  V30 4113 H 375.853 -7.16286 2.41805 0
M  V30 4114 H 377.121 -7.67788 1.34619 0
M  V30 4115 N 381.35 -0.985608 -1.22978 0
M  V30 4116 C 382.298 -0.522631 -2.26652 0
M  V30 4117 C 383.292 0.422998 -1.64034 0
M  V30 4118 O 384.498 0.296319 -1.77544 0
M  V30 4119 H 380.873 -0.150597 -0.736766 0
M  V30 4120 H 382.844 -1.40863 -2.63059 0
M  V30 4121 C 381.593 0.154238 -3.47358 0
M  V30 4122 H 380.916 -0.564329 -3.95797 0
M  V30 4123 H 382.356 0.441744 -4.21693 0
M  V30 4124 C 380.815 1.38719 -3.07016 0
M  V30 4125 O 381.345 2.48307 -3.15764 0
M  V30 4126 N 379.551 1.25975 -2.61875 0
M  V30 4127 H 379.098 0.368068 -2.54957 0
M  V30 4128 H 379.056 2.08578 -2.3525 0
M  V30 4129 N 382.828 1.3818 -0.7579 0
M  V30 4130 C 383.778 2.27741 -0.108674 0
M  V30 4131 C 384.762 1.45415 0.688709 0
M  V30 4132 O 385.954 1.68108 0.553956 0
M  V30 4133 C 383.083 3.34313 0.780367 0
M  V30 4134 C 382.169 4.24093 -0.0240977 0
M  V30 4135 N 382.56 4.9451 -1.06271 0
M  V30 4136 C 380.858 4.45542 0.202049 0
M  V30 4137 C 381.559 5.60675 -1.54979 0
M  V30 4138 N 380.535 5.36684 -0.864348 0
M  V30 4139 H 384.337 2.79649 -0.904071 0
M  V30 4140 H 381.851 1.51133 -0.594346 0
M  V30 4141 H 383.848 3.97368 1.26114 0
M  V30 4142 H 382.508 2.83962 1.57467 0
M  V30 4143 H 383.519 4.97345 -1.44459 0
M  V30 4144 H 380.196 4.06091 0.96935 0
M  V30 4145 H 381.586 6.26992 -2.41517 0
M  V30 4146 N 384.306 0.507319 1.49211 0
M  V30 4147 C 385.553 -0.0349529 2.0247 0
M  V30 4148 C 385.881 -1.36409 1.38647 0
M  V30 4149 O 385.136 -1.88841 0.513566 0
M  V30 4150 C 385.435 -0.229513 3.56662 0
M  V30 4151 C 385.101 1.02241 4.39156 0
M  V30 4152 C 383.763 1.36557 4.61417 0
M  V30 4153 C 386.115 1.85428 4.871 0
M  V30 4154 C 383.443 2.53999 5.28868 0
M  V30 4155 C 385.795 3.02028 5.55843 0
M  V30 4156 C 384.459 3.36717 5.76349 0
M  V30 4157 H 383.729 -0.0127902 0.74089 0
M  V30 4158 H 386.376 0.668756 1.79443 0
M  V30 4159 H 384.681 -1.0158 3.78403 0
M  V30 4160 H 386.378 -0.663641 3.9547 0
M  V30 4161 H 382.968 0.745124 4.22073 0
M  V30 4162 H 387.152 1.6023 4.69723 0
M  V30 4163 H 382.408 2.81105 5.42946 0
M  V30 4164 H 386.582 3.66808 5.91967 0
M  V30 4165 H 384.209 4.27821 6.28389 0
M  V30 4166 N 385.784 -1.5574 0.241426 0
M  V30 4167 C 387.012 -2.03208 -0.389134 0
M  V30 4168 C 387.427 -1.12082 -1.51931 0
M  V30 4169 O 386.784 -0.134183 -1.82006 0
M  V30 4170 C 386.835 -3.50064 -0.902087 0
M  V30 4171 O 386.556 -4.37717 0.18305 0
M  V30 4172 C 388.057 -4.13268 -1.60389 0
M  V30 4173 H 385.277 -0.664509 -0.0931053 0
M  V30 4174 H 387.821 -2.0124 0.36369 0
M  V30 4175 H 385.976 -3.52583 -1.60511 0
M  V30 4176 H 386.39 -5.24097 -0.205579 0
M  V30 4177 H 387.864 -5.17733 -1.91458 0
M  V30 4178 H 388.341 -3.59434 -2.52397 0
M  V30 4179 H 388.947 -4.14655 -0.945576 0
M  V30 4180 N 387.262 0.0317525 -1.57568 0
M  V30 4181 C 388.209 1.0332 -2.06382 0
M  V30 4182 C 389.179 1.36082 -0.952414 0
M  V30 4183 O 390.364 1.46466 -1.2228 0
M  V30 4184 C 387.504 2.32989 -2.54578 0
M  V30 4185 C 386.617 2.0641 -3.79498 0
M  V30 4186 C 385.752 3.2993 -4.16317 0
M  V30 4187 C 384.791 2.98893 -5.34162 0
M  V30 4188 N 383.928 4.14857 -5.66426 0
M  V30 4189 H 388.768 0.609982 -2.9169 0
M  V30 4190 H 386.305 0.289573 -1.44222 0
M  V30 4191 H 388.263 3.0875 -2.80587 0
M  V30 4192 H 386.893 2.73039 -1.7219 0
M  V30 4193 H 385.945 1.21158 -3.6059 0
M  V30 4194 H 387.257 1.79513 -4.65378 0
M  V30 4195 H 386.411 4.1406 -4.4344 0
M  V30 4196 H 385.15 3.59938 -3.29083 0
M  V30 4197 H 384.155 2.13164 -5.06795 0
M  V30 4198 H 385.38 2.70165 -6.23047 0
M  V30 4199 H 383.326 4.44821 -4.82151 0
M  V30 4200 H 383.243 3.91374 -6.4681 0
M  V30 4201 H 384.511 4.99868 -5.98124 0
M  V30 4202 N 388.74 1.54641 0.303973 0
M  V30 4203 C 389.986 1.74038 1.04109 0
M  V30 4204 C 390.319 0.523051 1.87024 0
M  V30 4205 O 389.594 -0.479874 1.88487 0
M  V30 4206 C 389.877 3.02761 1.94955 0
M  V30 4207 C 389.73 4.34787 1.1524 0
M  V30 4208 C 391.049 3.27336 2.94175 0
M  V30 4209 H 388.168 0.63323 0.377079 0
M  V30 4210 H 390.81 1.87354 0.316001 0
M  V30 4211 H 388.96 2.9154 2.56782 0
M  V30 4212 H 390.632 4.57922 0.557236 0
M  V30 4213 H 388.875 4.31407 0.455053 0
M  V30 4214 H 389.546 5.21116 1.8205 0
M  V30 4215 H 392.022 3.38148 2.42477 0
M  V30 4216 H 390.898 4.18726 3.54908 0
M  V30 4217 H 391.159 2.45491 3.67677 0
M  V30 4218 N 390.218 -0.567019 1.47046 0
M  V30 4219 C 391.443 -1.3551 1.57009 0
M  V30 4220 C 391.868 -1.86841 0.217259 0
M  V30 4221 O 391.226 -1.62435 -0.805268 0
M  V30 4222 C 391.274 -2.50777 2.5912 0
M  V30 4223 O 390.378 -3.52706 2.13711 0
M  V30 4224 H 389.719 -0.402919 0.52778 0
M  V30 4225 H 392.249 -0.686241 1.92748 0
M  V30 4226 H 392.259 -2.97481 2.79229 0
M  V30 4227 H 390.934 -2.12771 3.57353 0
M  V30 4228 H 389.511 -3.12374 2.03659 0
M  V30 4229 N 391.696 -1.35014 -0.812953 0
M  V30 4230 C 392.944 -1.27678 -1.56661 0
M  V30 4231 C 393.265 0.150359 -1.94419 0
M  V30 4232 O 392.535 1.08532 -1.63088 0
M  V30 4233 H 391.115 -0.469602 -0.580933 0
M  V30 4234 H 393.777 -1.69043 -0.970076 0
M  V30 4235 H 392.873 -1.88833 -2.48492 0
M  V30 4236 N 393.175 1.03435 -1.18907 0
M  V30 4237 C 394.4 1.80919 -1.01406 0
M  V30 4238 C 394.825 1.83055 0.432721 0
M  V30 4239 O 394.183 1.25252 1.31079 0
M  V30 4240 C 394.231 3.24091 -1.58105 0
M  V30 4241 O 393.335 4.04434 -0.806669 0
M  V30 4242 H 392.676 0.558709 -0.358803 0
M  V30 4243 H 395.206 1.30223 -1.57807 0
M  V30 4244 H 395.216 3.74853 -1.61087 0
M  V30 4245 H 393.891 3.21851 -2.6341 0
M  V30 4246 H 392.468 3.63091 -0.849666 0
M  V30 4247 N 394.653 0.992116 1.22453 0
M  V30 4248 C 396.064 0.702776 1.72968 0
M  V30 4249 C 396.415 -0.780399 1.80012 0
M  V30 4250 O 395.54 -1.61007 1.44589 0
M  V30 4251 C 396.135 1.26903 3.14135 0
M  V30 4252 C 394.694 1.02909 3.62059 0
M  V30 4253 C 393.841 1.38969 2.39964 0
M  V30 4254 H 396.792 1.16457 1.07812 0
M  V30 4255 H 396.813 0.647223 3.74955 0
M  V30 4256 H 396.325 2.34851 3.08977 0
M  V30 4257 H 394.426 -0.0337979 3.72585 0
M  V30 4258 H 394.539 1.69191 4.48231 0
M  V30 4259 H 392.903 0.808279 2.41535 0
M  V30 4260 H 393.686 2.4792 2.37467 0
M  V30 4261 N 396.131 -1.37776 0.765217 0
M  V30 4262 C 397.081 -2.2768 0.12075 0
M  V30 4263 C 398.065 -1.45778 -0.680988 0
M  V30 4264 O 399.257 -1.684 -0.545033 0
M  V30 4265 C 396.386 -3.34722 -0.762626 0
M  V30 4266 C 395.472 -4.24074 0.0465881 0
M  V30 4267 N 395.863 -4.93939 1.08892 0
M  V30 4268 C 394.161 -4.45643 -0.178418 0
M  V30 4269 C 394.862 -5.59845 1.57951 0
M  V30 4270 N 393.838 -5.36218 0.892797 0
M  V30 4271 H 397.64 -2.79166 0.918889 0
M  V30 4272 H 395.154 -1.50816 0.602353 0
M  V30 4273 H 397.151 -3.98031 -1.24005 0
M  V30 4274 H 395.811 -2.84793 -1.55959 0
M  V30 4275 H 396.822 -4.96572 1.47095 0
M  V30 4276 H 393.499 -4.06599 -0.9478 0
M  V30 4277 H 394.889 -6.25703 2.44838 0
M  V30 4278 N 397.609 -0.515225 -1.4894 0
M  V30 4279 C 398.855 0.016187 -2.03394 0
M  V30 4280 C 399.21 1.33377 -1.38666 0
M  V30 4281 O 398.503 1.84461 -0.518141 0
M  V30 4282 C 398.697 0.210595 -3.56779 0
M  V30 4283 C 398.526 -1.08659 -4.36375 0
M  V30 4284 C 397.296 -1.64237 -4.77864 0
M  V30 4285 C 399.494 -1.9935 -4.74093 0
M  V30 4286 N 397.476 -2.88398 -5.41941 0
M  V30 4287 C 398.847 -3.08088 -5.38035 0
M  V30 4288 C 400.902 -1.99856 -4.56029 0
M  V30 4289 C 399.605 -4.17377 -5.85823 0
M  V30 4290 C 401.631 -3.08129 -5.04787 0
M  V30 4291 C 400.993 -4.15586 -5.68742 0
M  V30 4292 H 397.092 -0.0352107 -0.781207 0
M  V30 4293 H 399.676 -0.693237 -1.8194 0
M  V30 4294 H 397.847 0.889088 -3.78087 0
M  V30 4295 H 399.579 0.740287 -3.97872 0
M  V30 4296 H 396.334 -1.18566 -4.58518 0
M  V30 4297 H 396.758 -3.51572 -5.78555 0
M  V30 4298 H 401.4 -1.18079 -4.05977 0
M  V30 4299 H 399.118 -4.99943 -6.34888 0
M  V30 4300 H 402.704 -3.09557 -4.92611 0
M  V30 4301 H 401.584 -4.97987 -6.05787 0
M  V30 4302 N 399.087 1.5561 -0.249682 0
M  V30 4303 C 400.035 2.22894 0.664906 0
M  V30 4304 C 401.029 1.21743 1.17792 0
M  V30 4305 O 402.235 1.39748 1.13449 0
M  V30 4306 H 398.61 0.715022 0.232912 0
M  V30 4307 H 400.581 2.98307 0.0742998 0
M  V30 4308 C 399.33 2.94424 1.84959 0
M  V30 4309 H 398.653 3.72031 1.46399 0
M  V30 4310 H 400.093 3.44862 2.4667 0
M  V30 4311 C 398.552 1.98454 2.72245 0
M  V30 4312 O 399.082 1.51939 3.71857 0
M  V30 4313 N 397.288 1.65496 2.38871 0
M  V30 4314 H 396.835 2.03517 1.57919 0
M  V30 4315 H 396.793 1.0155 2.97548 0
M  V30 4316 N 400.565 -0.0233959 1.57583 0
M  V30 4317 C 401.495 -1.02162 2.09965 0
M  V30 4318 C 402.476 -1.3735 1.00344 0
M  V30 4319 O 403.661 -1.46135 1.27899 0
M  V30 4320 C 400.791 -2.32081 2.58371 0
M  V30 4321 C 399.745 -2.1112 3.72307 0
M  V30 4322 C 399.071 -3.46848 4.06941 0
M  V30 4323 C 400.371 -1.49276 5.00514 0
M  V30 4324 H 402.065 -0.585557 2.93618 0
M  V30 4325 H 399.611 -0.280218 1.41247 0
M  V30 4326 H 401.564 -3.02249 2.93639 0
M  V30 4327 H 400.288 -2.77758 1.71808 0
M  V30 4328 H 398.947 -1.43384 3.37397 0
M  V30 4329 H 398.595 -3.90184 3.17436 0
M  V30 4330 H 398.295 -3.33646 4.83688 0
M  V30 4331 H 399.819 -4.18369 4.44747 0
M  V30 4332 H 401.233 -2.09368 5.33702 0
M  V30 4333 H 399.63 -1.46632 5.8191 0
M  V30 4334 H 400.7 -0.459217 4.82721 0
M  V30 4335 N 402.043 -1.548 -0.295768 0
M  V30 4336 C 403.454 -1.65274 -0.868411 0
M  V30 4337 C 403.805 -0.56481 -1.87894 0
M  V30 4338 O 402.93 0.29767 -2.14343 0
M  V30 4339 C 403.525 -2.99603 -1.58188 0
M  V30 4340 C 402.084 -3.12181 -2.10286 0
M  V30 4341 C 401.231 -2.6098 -0.93727 0
M  V30 4342 H 404.182 -1.58534 -0.0726422 0
M  V30 4343 H 404.203 -2.91319 -2.44772 0
M  V30 4344 H 403.715 -3.78764 -0.846151 0
M  V30 4345 H 401.816 -2.3775 -2.8689 0
M  V30 4346 H 401.929 -4.18415 -2.33379 0
M  V30 4347 H 400.293 -2.17564 -1.32431 0
M  V30 4348 H 401.076 -3.42623 -0.215414 0
M  V30 4349 N 403.521 0.559213 -1.47345 0
M  V30 4350 C 404.749 1.34194 -1.57479 0
M  V30 4351 C 405.164 1.87463 -0.224261 0
M  V30 4352 O 404.521 1.64888 0.782185 0
M  V30 4353 C 404.572 2.51324 -2.59843 0
M  V30 4354 O 404.293 2.00256 -3.89653 0
M  V30 4355 C 405.794 3.43563 -2.80142 0
M  V30 4356 H 403.014 0.409136 -0.531835 0
M  V30 4357 H 405.558 0.677609 -1.92947 0
M  V30 4358 H 403.713 3.13699 -2.27314 0
M  V30 4359 H 404.127 2.76708 -4.4557 0
M  V30 4360 H 405.601 4.2217 -3.55635 0
M  V30 4361 H 406.078 3.9698 -1.87892 0
M  V30 4362 H 406.684 2.87005 -3.1386 0
M  V30 4363 N 404.999 1.35443 0.805782 0
M  V30 4364 C 406.246 1.28761 1.56291 0
M  V30 4365 C 406.574 -0.137747 1.94012 0
M  V30 4366 O 405.829 -1.1032 1.61642 0
M  V30 4367 C 406.128 2.14045 2.86216 0
M  V30 4368 C 405.794 3.62826 2.67709 0
M  V30 4369 C 404.456 4.0338 2.6237 0
M  V30 4370 C 406.808 4.57227 2.50186 0
M  V30 4371 C 404.136 5.36501 2.37451 0
M  V30 4372 C 406.488 5.90547 2.26797 0
M  V30 4373 C 405.152 6.30245 2.1988 0
M  V30 4374 H 404.422 0.471171 0.571908 0
M  V30 4375 H 407.069 1.67347 0.930974 0
M  V30 4376 H 405.374 1.68342 3.53791 0
M  V30 4377 H 407.071 2.0621 3.43917 0
M  V30 4378 H 403.661 3.30644 2.72713 0
M  V30 4379 H 407.845 4.2678 2.53323 0
M  V30 4380 H 403.101 5.66259 2.30567 0
M  V30 4381 H 407.275 6.63274 2.12228 0
M  V30 4382 H 404.902 7.33328 2.00333 0
M  V30 4383 N 406.477 -1.02803 1.19454 0
M  V30 4384 C 407.407 -2.12999 0.956758 0
M  V30 4385 C 408.388 -1.69743 -0.110188 0
M  V30 4386 O 409.573 -1.94148 0.0450038 0
M  V30 4387 C 406.703 -3.43746 0.495553 0
M  V30 4388 C 405.657 -4.00688 1.50443 0
M  V30 4389 C 404.983 -5.27067 0.900275 0
M  V30 4390 C 406.283 -4.35397 2.8849 0
M  V30 4391 H 407.977 -2.33148 1.87836 0
M  V30 4392 H 405.523 -1.12045 0.904539 0
M  V30 4393 H 407.476 -4.2021 0.316493 0
M  V30 4394 H 406.2 -3.23321 -0.461646 0
M  V30 4395 H 404.859 -3.2632 1.67065 0
M  V30 4396 H 404.507 -5.02959 -0.064503 0
M  V30 4397 H 404.207 -5.66127 1.57397 0
M  V30 4398 H 405.731 -6.06196 0.73203 0
M  V30 4399 H 407.145 -5.02795 2.75446 0
M  V30 4400 H 405.542 -4.85541 3.52661 0
M  V30 4401 H 406.612 -3.44662 3.41081 0
M  V30 4402 N 407.956 -0.998596 -1.21925 0
M  V30 4403 C 409.181 -0.696015 -1.95372 0
M  V30 4404 C 409.606 0.733826 -1.73195 0
M  V30 4405 O 408.964 1.50242 -1.01474 0
M  V30 4406 C 409.012 -1.01466 -3.4603 0
M  V30 4407 O 408.116 -0.116415 -4.12236 0
M  V30 4408 H 407.457 -0.259938 -0.611006 0
M  V30 4409 H 409.987 -1.33711 -1.54863 0
M  V30 4410 H 409.997 -0.958855 -3.96573 0
M  V30 4411 H 408.672 -2.05653 -3.61497 0
M  V30 4412 H 407.249 -0.228193 -3.72201 0
M  V30 4413 N 409.434 1.37368 -0.772513 0
M  V30 4414 C 410.85 1.53059 -0.452231 0
M  V30 4415 C 411.05 1.73065 1.03203 0
M  V30 4416 O 410.106 1.75245 1.81784 0
M  V30 4417 C 411.419 2.72659 -1.26797 0
M  V30 4418 C 412.967 2.86521 -1.25995 0
M  V30 4419 C 413.442 4.09105 -2.05905 0
M  V30 4420 N 414.933 4.16219 -2.03263 0
M  V30 4421 C 415.668 5.10107 -2.61875 0
M  V30 4422 N 415.164 6.09547 -3.29278 0
M  V30 4423 N 416.957 5.02596 -2.51701 0
M  V30 4424 H 409.108 1.22634 -1.7342 0
M  V30 4425 H 411.371 0.597206 -0.736239 0
M  V30 4426 H 411.077 2.64343 -2.31982 0
M  V30 4427 H 410.951 3.66363 -0.897672 0
M  V30 4428 H 413.338 2.94308 -0.216081 0
M  V30 4429 H 413.419 1.93774 -1.66989 0
M  V30 4430 H 413.063 4.0208 -3.10313 0
M  V30 4431 H 412.993 5.00968 -1.62292 0
M  V30 4432 H 415.484 3.45012 -1.54192 0
M  V30 4433 H 415.797 6.77718 -3.71374 0
M  V30 4434 H 414.142 6.09824 -3.33377 0
M  V30 4435 H 417.333 4.23855 -1.98657 0
M  V30 4436 H 417.506 5.75582 -2.97673 0
M  V30 4437 N 410.912 0.523116 1.48665 0
M  V30 4438 C 411.842 -0.23231 2.32342 0
M  V30 4439 C 412.823 -0.941637 1.41659 0
M  V30 4440 O 414.008 -0.928751 1.70552 0
M  V30 4441 C 411.138 -1.28387 3.22698 0
M  V30 4442 C 410.092 -0.693098 4.22351 0
M  V30 4443 C 409.418 -1.8468 5.01794 0
M  V30 4444 C 410.718 0.33063 5.21252 0
M  V30 4445 H 412.412 0.466192 2.95748 0
M  V30 4446 H 409.958 0.225643 1.42221 0
M  V30 4447 H 411.911 -1.82024 3.80059 0
M  V30 4448 H 410.635 -2.01186 2.57278 0
M  V30 4449 H 409.294 -0.178299 3.66166 0
M  V30 4450 H 408.942 -2.56301 4.32804 0
M  V30 4451 H 408.642 -1.45747 5.69238 0
M  V30 4452 H 410.166 -2.38709 5.62006 0
M  V30 4453 H 411.58 -0.118407 5.73178 0
M  V30 4454 H 409.977 0.636974 5.9671 0
M  V30 4455 H 411.047 1.23883 4.68808 0
M  V30 4456 N 412.39 -1.55475 0.257931 0
M  V30 4457 C 413.667 -1.91155 -0.414629 0
M  V30 4458 C 414.047 -1.18008 -1.75035 0
M  V30 4459 O 413.395 -0.301193 -2.26506 0
M  V30 4460 C 413.605 -3.44283 -0.571859 0
M  V30 4461 C 414.953 -4.15744 -0.862678 0
M  V30 4462 O 415.977 -3.50083 -0.657314 0
M  V30 4463 O 414.836 -5.31909 -1.2544 0
M  V30 4464 H 411.93 -0.796016 -0.22425 0
M  V30 4465 H 414.476 -1.66976 0.302814 0
M  V30 4466 H 413.248 -3.89558 0.368844 0
M  V30 4467 H 412.871 -3.7436 -1.33943 0
M  V30 4468 N 413.868 0.0150385 -1.57593 0
M  V30 4469 C 415.116 0.701613 -1.8953 0
M  V30 4470 C 415.437 1.75139 -0.857396 0
M  V30 4471 O 414.707 1.95607 0.107194 0
M  V30 4472 H 413.287 0.26213 -0.699498 0
M  V30 4473 H 415.949 -0.0223304 -1.94887 0
M  V30 4474 H 415.045 1.18236 -2.88837 0
M  V30 4475 N 415.346 1.54954 0.287554 0
M  V30 4476 C 416.571 1.79209 1.04397 0
M  V30 4477 C 416.996 0.556431 1.79682 0
M  V30 4478 O 416.354 -0.493518 1.74454 0
M  V30 4479 C 416.402 3.00739 1.98969 0
M  V30 4480 O 415.506 2.74805 3.075 0
M  V30 4481 H 414.847 0.592755 0.299227 0
M  V30 4482 H 417.377 2.02068 0.320886 0
M  V30 4483 H 417.387 3.29077 2.4119 0
M  V30 4484 H 416.062 3.90329 1.43582 0
M  V30 4485 H 414.639 2.57523 2.69697 0
M  V30 4486 N 416.824 -0.551391 1.4764 0
M  V30 4487 C 418.235 -1.13349 1.48354 0
M  V30 4488 C 418.586 -1.94709 0.241432 0
M  V30 4489 O 417.711 -2.06306 -0.653205 0
M  V30 4490 C 418.306 -2.0623 2.68802 0
M  V30 4491 C 416.865 -2.597 2.72457 0
M  V30 4492 C 416.012 -1.36201 2.41546 0
M  V30 4493 H 418.963 -0.337698 1.55065 0
M  V30 4494 H 418.984 -2.90196 2.46103 0
M  V30 4495 H 418.496 -1.46987 3.59188 0
M  V30 4496 H 416.597 -3.22724 1.86225 0
M  V30 4497 H 416.71 -3.00296 3.73308 0
M  V30 4498 H 415.074 -1.67068 1.9225 0
M  V30 4499 H 415.857 -0.787425 3.34147 0
M  V30 4500 N 418.302 -1.35869 -0.798587 0
M  V30 4501 C 419.548 -1.2978 -1.55836 0
M  V30 4502 C 419.881 0.125322 -1.93795 0
M  V30 4503 O 419.156 1.07658 -1.61987 0
M  V30 4504 C 419.439 -2.21188 -2.84162 0
M  V30 4505 C 419.292 -3.72155 -2.52628 0
M  V30 4506 C 420.611 -2.11545 -3.85923 0
M  V30 4507 H 417.73 -0.472769 -0.565383 0
M  V30 4508 H 420.372 -1.66341 -0.918192 0
M  V30 4509 H 418.522 -1.90139 -3.38791 0
M  V30 4510 H 420.194 -4.13682 -2.04121 0
M  V30 4511 H 418.437 -3.92042 -1.85704 0
M  V30 4512 H 419.108 -4.31511 -3.44242 0
M  V30 4513 H 421.584 -2.38855 -3.40716 0
M  V30 4514 H 420.46 -2.77688 -4.73477 0
M  V30 4515 H 420.721 -1.09987 -4.282 0
M  V30 4516 N 419.78 1.02168 -1.19998 0
M  V30 4517 C 421.029 1.75091 -1.0013 0
M  V30 4518 C 421.342 1.89923 0.467835 0
M  V30 4519 O 422.548 2.59888 0.785515 0
M  V30 4520 C 421.004 3.14892 -1.74273 0
M  V30 4521 C 420.612 3.0809 -3.25245 0
M  V30 4522 C 422.356 3.9206 -1.62755 0
M  V30 4523 C 420.263 4.42867 -3.91948 0
M  V30 4524 H 419.193 0.656394 -0.37103 0
M  V30 4525 H 421.844 1.14284 -1.43567 0
M  V30 4526 H 420.226 3.7621 -1.2362 0
M  V30 4527 H 421.4 2.5611 -3.83072 0
M  V30 4528 H 419.715 2.44416 -3.3712 0
M  V30 4529 H 422.312 4.91764 -2.09934 0
M  V30 4530 H 422.655 4.12199 -0.582894 0
M  V30 4531 H 423.188 3.37359 -2.10793 0
M  V30 4532 H 419.927 4.27931 -4.96543 0
M  V30 4533 H 419.447 4.94874 -3.3891 0
M  V30 4534 H 421.126 5.11728 -3.95909 0
M  V30 4535 N 421.258 1.00505 1.21394 0
M  V30 4536 C 422.506 0.686415 1.90086 0
M  V30 4537 C 422.827 -0.785264 1.7849 0
M  V30 4538 O 422.097 -1.56387 1.17983 0
M  V30 4539 H 420.677 0.2509 0.703604 0
M  V30 4540 H 423.339 1.27417 1.47482 0
M  V30 4541 H 422.435 0.959621 2.96981 0
M  V30 4542 N 422.737 -1.36956 0.779787 0
M  V30 4543 C 423.967 -2.03459 0.358877 0
M  V30 4544 C 424.375 -1.58939 -1.02641 0
M  V30 4545 O 423.718 -0.769777 -1.66794 0
M  V30 4546 C 423.78 -3.5796 0.332393 0
M  V30 4547 C 423.444 -4.25644 1.66362 0
M  V30 4548 C 424.441 -4.49205 2.61746 0
M  V30 4549 C 422.126 -4.63313 1.94027 0
M  V30 4550 C 424.12 -5.09503 3.82996 0
M  V30 4551 C 421.807 -5.2333 3.15546 0
M  V30 4552 C 422.805 -5.46363 4.0985 0
M  V30 4553 O 422.493 -6.05122 5.29228 0
M  V30 4554 H 422.225 -0.659767 0.147254 0
M  V30 4555 H 424.779 -1.76111 1.05708 0
M  V30 4556 H 423.009 -3.84388 -0.422237 0
M  V30 4557 H 424.698 -4.05852 -0.0625389 0
M  V30 4558 H 425.464 -4.20508 2.41657 0
M  V30 4559 H 421.343 -4.44715 1.21448 0
M  V30 4560 H 424.887 -5.27397 4.56617 0
M  V30 4561 H 420.784 -5.51451 3.35517 0
M  V30 4562 H 421.552 -6.23595 5.30161 0
M  V30 4563 N 424.215 -0.530993 -1.48385 0
M  V30 4564 C 425.464 0.00474348 -2.01699 0
M  V30 4565 C 425.777 1.35227 -1.41325 0
M  V30 4566 O 426.983 1.97643 -1.86144 0
M  V30 4567 C 425.439 0.0588473 -3.59852 0
M  V30 4568 C 425.047 -1.28385 -4.2921 0
M  V30 4569 C 426.791 0.543358 -4.21008 0
M  V30 4570 C 424.698 -1.19028 -5.79298 0
M  V30 4571 H 423.628 0.00554317 -0.75398 0
M  V30 4572 H 426.279 -0.674924 -1.70637 0
M  V30 4573 H 424.661 0.803612 -3.8776 0
M  V30 4574 H 425.835 -2.04426 -4.12973 0
M  V30 4575 H 424.15 -1.70418 -3.7993 0
M  V30 4576 H 426.747 0.631351 -5.3096 0
M  V30 4577 H 427.09 1.54937 -3.86394 0
M  V30 4578 H 427.623 -0.145754 -3.97533 0
M  V30 4579 H 424.362 -2.17147 -6.18488 0
M  V30 4580 H 423.882 -0.471246 -5.97946 0
M  V30 4581 H 425.561 -0.881365 -6.40969 0
M  V30 4582 N 425.693 1.55336 -0.266172 0
M  V30 4583 C 426.94 1.99397 0.353158 0
M  V30 4584 C 427.268 1.15451 1.56529 0
M  V30 4585 O 426.523 0.209974 1.9457 0
M  V30 4586 C 426.822 3.48606 0.787957 0
M  V30 4587 C 426.488 4.49773 -0.318541 0
M  V30 4588 C 425.15 4.77158 -0.62239 0
M  V30 4589 C 427.502 5.10212 -1.06459 0
M  V30 4590 C 424.83 5.62251 -1.67602 0
M  V30 4591 C 427.182 5.96449 -2.10788 0
M  V30 4592 C 425.846 6.22158 -2.41817 0
M  V30 4593 H 425.116 0.729644 0.12923 0
M  V30 4594 H 427.763 1.87732 -0.37802 0
M  V30 4595 H 426.068 3.57701 1.59866 0
M  V30 4596 H 427.765 3.80098 1.27775 0
M  V30 4597 H 424.355 4.2854 -0.0715925 0
M  V30 4598 H 428.539 4.89086 -0.843098 0
M  V30 4599 H 423.795 5.80419 -1.92155 0
M  V30 4600 H 427.969 6.42317 -2.69076 0
M  V30 4601 H 425.596 6.87888 -3.23596 0
M  V30 4602 N 427.171 -0.0066808 1.57599 0
M  V30 4603 C 428.119 -1.01851 2.09115 0
M  V30 4604 C 429.113 -1.36021 1.00969 0
M  V30 4605 O 430.319 -1.34663 1.19439 0
M  V30 4606 H 426.694 -0.346083 0.667631 0
M  V30 4607 H 428.665 -0.558394 2.93129 0
M  V30 4608 C 427.414 -2.30374 2.60429 0
M  V30 4609 H 426.737 -2.04947 3.43273 0
M  V30 4610 H 428.177 -2.99466 3.00161 0
M  V30 4611 C 426.636 -3.00893 1.51542 0
M  V30 4612 O 427.166 -3.91614 0.894484 0
M  V30 4613 N 425.372 -2.62603 1.2445 0
M  V30 4614 H 424.919 -1.88911 1.75129 0
M  V30 4615 H 424.877 -3.10101 0.518137 0
M  V30 4616 N 428.649 -1.55105 -0.279332 0
M  V30 4617 C 429.897 -1.75066 -1.00977 0
M  V30 4618 C 430.218 -0.551276 -1.87045 0
M  V30 4619 O 429.488 0.433984 -1.91032 0
M  V30 4620 H 428.068 -0.645578 -0.375816 0
M  V30 4621 H 430.73 -1.92497 -0.305089 0
M  V30 4622 H 429.826 -2.64894 -1.65038 0
M  V30 4623 N 430.127 0.543554 -1.4793 0
M  V30 4624 C 431.059 1.665 -1.57513 0
M  V30 4625 C 432.072 1.56156 -0.460333 0
M  V30 4626 O 433.261 1.62865 -0.730573 0
M  V30 4627 C 430.361 3.05063 -1.47614 0
M  V30 4628 C 429.534 3.41024 -2.739 0
M  V30 4629 C 428.593 4.58809 -2.57645 0
M  V30 4630 O 427.619 4.62707 -3.31498 0
M  V30 4631 N 428.821 5.56149 -1.66368 0
M  V30 4632 H 431.586 1.5872 -2.5422 0
M  V30 4633 H 429.147 0.730517 -1.44482 0
M  V30 4634 H 431.139 3.81712 -1.34455 0
M  V30 4635 H 429.709 3.06994 -0.589359 0
M  V30 4636 H 428.929 2.53687 -3.01723 0
M  V30 4637 H 430.217 3.61831 -3.57709 0
M  V30 4638 H 429.615 5.55767 -1.05543 0
M  V30 4639 H 428.172 6.32071 -1.59154 0
M  V30 4640 N 431.605 1.3629 0.791371 0
M  V30 4641 C 432.568 1.30309 1.88553 0
M  V30 4642 C 433.568 0.211204 1.59407 0
M  V30 4643 O 434.758 0.465865 1.67855 0
M  V30 4644 C 431.89 1.01956 3.25297 0
M  V30 4645 H 433.083 2.27614 1.95273 0
M  V30 4646 H 430.636 1.21035 0.988953 0
M  V30 4647 H 431.371 0.050998 3.2426 0
M  V30 4648 H 431.156 1.80968 3.4784 0
M  V30 4649 H 432.646 1.0037 4.05359 0
M  V30 4650 N 433.083 -1.0153 1.20538 0
M  V30 4651 C 434.031 -2.12215 0.952235 0
M  V30 4652 C 435.025 -1.69123 -0.0968735 0
M  V30 4653 O 436.231 -1.7992 0.0536006 0
M  V30 4654 H 432.606 -0.693576 0.290613 0
M  V30 4655 H 434.577 -2.3075 1.89201 0
M  V30 4656 C 433.326 -3.43755 0.522287 0
M  V30 4657 H 432.649 -3.7734 1.32115 0
M  V30 4658 H 434.089 -4.22254 0.384389 0
M  V30 4659 C 432.548 -3.28088 -0.765489 0
M  V30 4660 O 433.078 -3.57921 -1.8236 0
M  V30 4661 N 431.284 -2.81333 -0.728011 0
M  V30 4662 H 430.831 -2.57255 0.133332 0
M  V30 4663 H 430.789 -2.71232 -1.58999 0
M  V30 4664 N 434.561 -1.01147 -1.20859 0
M  V30 4665 C 435.972 -0.730205 -1.71828 0
M  V30 4666 C 436.323 0.751662 -1.8123 0
M  V30 4667 O 435.448 1.58686 -1.47132 0
M  V30 4668 C 436.043 -1.31885 -3.12077 0
M  V30 4669 C 434.602 -1.08656 -3.60376 0
M  V30 4670 C 433.749 -1.42769 -2.37723 0
M  V30 4671 H 436.7 -1.18158 -1.05945 0
M  V30 4672 H 436.721 -0.706793 -3.73878 0
M  V30 4673 H 436.233 -2.39737 -3.05201 0
M  V30 4674 H 434.334 -0.0254814 -3.72591 0
M  V30 4675 H 434.447 -1.76301 -4.45483 0
M  V30 4676 H 432.811 -0.846603 -2.40218 0
M  V30 4677 H 433.594 -2.51666 -2.33493 0
M  V30 4678 N 436.039 1.36541 -0.78704 0
M  V30 4679 C 437.287 1.98911 -0.357633 0
M  V30 4680 C 437.608 1.62778 1.07371 0
M  V30 4681 O 436.878 0.900612 1.73971 0
M  V30 4682 H 435.458 0.735734 -0.129246 0
M  V30 4683 H 438.12 1.66776 -1.00855 0
M  V30 4684 H 437.216 3.08874 -0.447549 0
M  V30 4685 N 437.518 0.538854 1.48102 0
M  V30 4686 C 438.45 -0.256278 2.27763 0
M  V30 4687 C 439.463 -0.89633 1.35904 0
M  V30 4688 O 440.652 -0.773275 1.60881 0
M  V30 4689 C 437.752 -1.37896 3.09577 0
M  V30 4690 C 436.925 -0.839159 4.29275 0
M  V30 4691 C 435.984 -1.84405 4.9283 0
M  V30 4692 O 435.01 -1.39746 5.51779 0
M  V30 4693 N 436.212 -3.17666 4.85869 0
M  V30 4694 H 438.977 0.426968 2.96643 0
M  V30 4695 H 436.538 0.373747 1.57527 0
M  V30 4696 H 438.53 -2.04955 3.48963 0
M  V30 4697 H 437.1 -1.96572 2.4306 0
M  V30 4698 H 436.32 0.00769287 3.94199 0
M  V30 4699 H 437.608 -0.457548 5.06739 0
M  V30 4700 H 437.006 -3.56609 4.39143 0
M  V30 4701 H 435.563 -3.80334 5.29329 0
M  V30 4702 N 438.996 -1.55193 0.274407 0
M  V30 4703 C 440.242 -2.00604 -0.33608 0
M  V30 4704 C 440.597 -1.15948 -1.53538 0
M  V30 4705 O 439.89 -0.221385 -1.90317 0
M  V30 4706 C 440.084 -3.49019 -0.769458 0
M  V30 4707 C 439.913 -4.48038 0.386301 0
M  V30 4708 C 438.683 -4.97757 0.869854 0
M  V30 4709 C 440.881 -4.99558 1.22254 0
M  V30 4710 N 438.863 -5.80575 1.99515 0
M  V30 4711 C 440.234 -5.79816 2.19575 0
M  V30 4712 C 442.289 -4.81799 1.25597 0
M  V30 4713 C 440.992 -6.44208 3.19981 0
M  V30 4714 C 443.018 -5.46989 2.24848 0
M  V30 4715 C 442.38 -6.27058 3.20901 0
M  V30 4716 H 438.479 -0.777013 -0.088172 0
M  V30 4717 H 441.063 -1.90583 0.398266 0
M  V30 4718 H 439.234 -3.59383 -1.47303 0
M  V30 4719 H 440.966 -3.81263 -1.35722 0
M  V30 4720 H 437.721 -4.71464 0.449281 0
M  V30 4721 H 438.145 -6.26675 2.5614 0
M  V30 4722 H 442.787 -4.19501 0.527158 0
M  V30 4723 H 440.505 -7.05656 3.93796 0
M  V30 4724 H 444.091 -5.35189 2.28174 0
M  V30 4725 H 442.971 -6.7661 3.96445 0
M  V30 4726 N 440.474 -0.00167713 -1.576 0
M  V30 4727 C 441.704 0.692754 -1.94639 0
M  V30 4728 C 442.112 1.67744 -0.87513 0
M  V30 4729 O 441.455 1.8305 0.154382 0
M  V30 4730 C 441.517 1.47881 -3.27676 0
M  V30 4731 C 441.181 0.655518 -4.52274 0
M  V30 4732 C 442.178 -0.0575214 -5.19868 0
M  V30 4733 C 439.863 0.600994 -4.98692 0
M  V30 4734 C 441.857 -0.814052 -6.3218 0
M  V30 4735 C 439.544 -0.15926 -6.10892 0
M  V30 4736 C 440.542 -0.865515 -6.77494 0
M  V30 4737 O 440.23 -1.61336 -7.87544 0
M  V30 4738 H 439.962 0.197792 -0.646417 0
M  V30 4739 H 442.516 -0.049423 -2.05341 0
M  V30 4740 H 440.746 2.2655 -3.13388 0
M  V30 4741 H 442.435 2.05874 -3.49816 0
M  V30 4742 H 443.201 -0.0245611 -4.84994 0
M  V30 4743 H 439.08 1.14025 -4.46676 0
M  V30 4744 H 442.624 -1.36584 -6.84098 0
M  V30 4745 H 438.521 -0.194035 -6.45208 0
M  V30 4746 H 439.289 -1.53025 -8.04068 0
M  V30 4747 N 441.952 1.55251 0.271103 0
M  V30 4748 C 442.862 1.9136 1.35714 0
M  V30 4749 C 443.878 0.811075 1.5394 0
M  V30 4750 O 445.054 1.11031 1.6803 0
M  V30 4751 C 442.119 2.1798 2.69603 0
M  V30 4752 C 441.18 3.4153 2.60107 0
M  V30 4753 C 440.413 3.66871 3.8761 0
M  V30 4754 O 440.636 2.94689 4.8838 0
M  V30 4755 O 439.57 4.60405 3.87699 0
M  V30 4756 H 443.396 2.83815 1.08088 0
M  V30 4757 H 440.981 1.41821 0.469792 0
M  V30 4758 H 442.863 2.36518 3.48765 0
M  V30 4759 H 441.538 1.28708 2.97012 0
M  V30 4760 H 440.445 3.28325 1.79314 0
M  V30 4761 H 441.778 4.31027 2.37647 0
M  V30 4762 N 443.43 -0.535701 1.48216 0
M  V30 4763 C 444.677 -1.29183 1.55942 0
M  V30 4764 C 445.005 -1.93125 0.230857 0
M  V30 4765 O 444.26 -1.79556 -0.778331 0
M  V30 4766 C 444.559 -2.4068 2.64212 0
M  V30 4767 C 444.225 -1.94428 4.06827 0
M  V30 4768 C 442.887 -1.81532 4.45645 0
M  V30 4769 C 445.239 -1.59405 4.96225 0
M  V30 4770 C 442.567 -1.31939 5.71672 0
M  V30 4771 C 444.919 -1.11276 6.22736 0
M  V30 4772 C 443.583 -0.969924 6.60416 0
M  V30 4773 H 442.853 -0.472715 0.570632 0
M  V30 4774 H 445.5 -0.598437 1.81909 0
M  V30 4775 H 443.805 -3.15666 2.32083 0
M  V30 4776 H 445.502 -2.98822 2.67407 0
M  V30 4777 H 442.092 -2.05415 3.76168 0
M  V30 4778 H 446.276 -1.68231 4.66917 0
M  V30 4779 H 441.532 -1.19562 5.99596 0
M  V30 4780 H 445.706 -0.832453 6.91407 0
M  V30 4781 H 443.333 -0.583436 7.57958 0
M  V30 4782 N 444.908 -1.36708 -0.784132 0
M  V30 4783 C 446.185 -1.21776 -1.53069 0
M  V30 4784 C 446.565 0.193876 -2.10208 0
M  V30 4785 O 445.913 1.20012 -1.94446 0
M  V30 4786 C 446.123 -2.30395 -2.62143 0
M  V30 4787 C 447.471 -2.67325 -3.29882 0
M  V30 4788 O 448.495 -2.29478 -2.7243 0
M  V30 4789 O 447.354 -3.32485 -4.33724 0
M  V30 4790 H 444.448 -0.474459 -0.677361 0
M  V30 4791 H 446.994 -1.48454 -0.82216 0
M  V30 4792 H 445.766 -3.2498 -2.17953 0
M  V30 4793 H 445.389 -2.05112 -3.40609 0
M  V30 4794 N 446.386 1.0089 -1.21074 0
M  V30 4795 C 447.349 2.0775 -0.968129 0
M  V30 4796 C 448.349 1.6069 0.0593445 0
M  V30 4797 O 449.539 1.73293 -0.177525 0
M  V30 4798 C 446.671 3.37794 -0.459108 0
M  V30 4799 H 447.864 2.30707 -1.9161 0
M  V30 4800 H 445.417 1.17807 -1.02719 0
M  V30 4801 H 446.152 3.20516 0.49397 0
M  V30 4802 H 445.937 3.7328 -1.20019 0
M  V30 4803 H 447.427 4.16454 -0.309099 0
M  V30 4804 N 447.864 1.01787 1.20321 0
M  V30 4805 C 449.11 0.718699 1.90279 0
M  V30 4806 C 449.465 -0.743669 1.77447 0
M  V30 4807 O 448.758 -1.53345 1.14874 0
M  V30 4808 C 448.952 1.09076 3.40349 0
M  V30 4809 C 448.781 2.58775 3.67784 0
M  V30 4810 C 447.551 3.25578 3.86428 0
M  V30 4811 C 449.749 3.56966 3.70243 0
M  V30 4812 N 447.731 4.64495 4.01395 0
M  V30 4813 C 449.102 4.8145 3.90649 0
M  V30 4814 C 451.157 3.5092 3.53213 0
M  V30 4815 C 449.86 6.00619 3.95789 0
M  V30 4816 C 451.886 4.69493 3.59625 0
M  V30 4817 C 451.248 5.92786 3.80505 0
M  V30 4818 H 447.347 0.31468 0.715891 0
M  V30 4819 H 449.931 1.30295 1.44677 0
M  V30 4820 H 448.102 0.534839 3.847 0
M  V30 4821 H 449.834 0.744997 3.97784 0
M  V30 4822 H 446.589 2.76003 3.84862 0
M  V30 4823 H 447.013 5.36624 4.12752 0
M  V30 4824 H 451.655 2.56593 3.36035 0
M  V30 4825 H 449.373 6.95326 4.11762 0
M  V30 4826 H 452.959 4.66432 3.47754 0
M  V30 4827 H 451.839 6.83003 3.85327 0
M  V30 4828 N 449.342 -1.36122 0.79427 0
M  V30 4829 C 450.758 -1.5232 0.476525 0
M  V30 4830 C 450.958 -1.74685 -1.00436 0
M  V30 4831 O 450.014 -1.78115 -1.78973 0
M  V30 4832 C 451.327 -2.70607 1.31119 0
M  V30 4833 C 452.875 -2.8448 1.30537 0
M  V30 4834 C 453.35 -4.05778 2.12387 0
M  V30 4835 N 454.841 -4.12933 2.09859 0
M  V30 4836 C 455.576 -5.05876 2.69957 0
M  V30 4837 N 455.072 -6.04232 3.38934 0
M  V30 4838 N 456.865 -4.98528 2.59665 0
M  V30 4839 H 449.016 -1.1986 1.75349 0
M  V30 4840 H 451.279 -0.585418 0.745647 0
M  V30 4841 H 450.985 -2.60619 2.36158 0
M  V30 4842 H 450.859 -3.64888 0.955843 0
M  V30 4843 H 453.246 -2.93927 0.262876 0
M  V30 4844 H 453.327 -1.91093 1.70051 0
M  V30 4845 H 452.971 -3.97092 3.1667 0
M  V30 4846 H 452.901 -4.98323 1.70242 0
M  V30 4847 H 455.392 -3.42515 1.59662 0
M  V30 4848 H 455.705 -6.71724 3.82109 0
M  V30 4849 H 454.05 -6.04443 3.43036 0
M  V30 4850 H 457.241 -4.20641 2.05375 0
M  V30 4851 H 457.414 -5.70773 3.06793 0
M  V30 4852 N 450.82 -0.546701 -1.47814 0
M  V30 4853 C 452.066 -0.0187684 -2.02791 0
M  V30 4854 C 452.399 1.32338 -1.42128 0
M  V30 4855 O 451.674 1.85867 -0.573023 0
M  V30 4856 C 451.957 0.0854985 -3.59998 0
M  V30 4857 C 451.81 -1.283 -4.31114 0
M  V30 4858 C 453.129 0.80412 -4.32691 0
M  V30 4859 H 450.248 -0.0082946 -0.736953 0
M  V30 4860 H 452.89 -0.706962 -1.76358 0
M  V30 4861 H 451.04 0.671609 -3.82651 0
M  V30 4862 H 452.712 -1.91151 -4.19832 0
M  V30 4863 H 450.955 -1.86049 -3.91878 0
M  V30 4864 H 451.626 -1.16287 -5.39612 0
M  V30 4865 H 454.102 0.306576 -4.14969 0
M  V30 4866 H 452.978 0.846011 -5.42341 0
M  V30 4867 H 453.239 1.85802 -4.01161 0
M  V30 4868 N 452.299 1.55045 -0.282633 0
M  V30 4869 C 453.548 1.98938 0.332667 0
M  V30 4870 C 453.861 1.17455 1.56409 0
M  V30 4871 O 455.067 1.51527 2.25282 0
M  V30 4872 C 453.523 3.54105 0.643226 0
M  V30 4873 C 453.131 4.44374 -0.568814 0
M  V30 4874 C 454.875 4.06569 1.22074 0
M  V30 4875 C 452.782 5.90943 -0.232426 0
M  V30 4876 H 451.712 0.743043 0.128075 0
M  V30 4877 H 454.363 1.79341 -0.388464 0
M  V30 4878 H 452.745 3.69532 1.42346 0
M  V30 4879 H 453.919 4.40718 -1.34551 0
M  V30 4880 H 452.234 4.02585 -1.06369 0
M  V30 4881 H 454.831 5.13626 1.48635 0
M  V30 4882 H 455.174 3.56057 2.15707 0
M  V30 4883 H 455.707 3.94612 0.502621 0
M  V30 4884 H 452.446 6.45567 -1.13683 0
M  V30 4885 H 451.966 5.9765 0.507357 0
M  V30 4886 H 453.645 6.4677 0.172657 0
M  V30 4887 N 453.777 0.010035 1.57597 0
M  V30 4888 C 454.71 -1.01234 2.04516 0
M  V30 4889 C 455.688 -1.32886 0.937024 0
M  V30 4890 O 456.872 -1.44879 1.20592 0
M  V30 4891 C 453.999 -2.33738 2.45121 0
M  V30 4892 C 453.045 -2.17679 3.66767 0
M  V30 4893 S 453.878 -1.49343 5.14254 0
M  V30 4894 C 455.034 -2.83256 5.58137 0
M  V30 4895 H 455.267 -0.612866 2.90914 0
M  V30 4896 H 452.8 -0.201124 1.53084 0
M  V30 4897 H 454.758 -3.09922 2.69182 0
M  V30 4898 H 453.419 -2.70823 1.59103 0
M  V30 4899 H 452.612 -3.1559 3.92962 0
M  V30 4900 H 452.214 -1.4964 3.42759 0
M  V30 4901 H 454.506 -3.79538 5.6121 0
M  V30 4902 H 455.449 -2.61749 6.57946 0
M  V30 4903 H 455.857 -2.87627 4.85727 0
M  V30 4904 N 455.255 -1.55392 -0.262866 0
M  V30 4905 C 456.203 -1.8977 -1.345 0
M  V30 4906 C 457.197 -0.775063 -1.50629 0
M  V30 4907 O 458.403 -0.959519 -1.52293 0
M  V30 4908 H 454.778 -0.602467 -0.450041 0
M  V30 4909 H 456.749 -2.80147 -1.02762 0
M  V30 4910 C 455.498 -2.19501 -2.69657 0
M  V30 4911 H 454.821 -3.05378 -2.5804 0
M  V30 4912 H 456.261 -2.47469 -3.44289 0
M  V30 4913 C 454.72 -1.00597 -3.21531 0
M  V30 4914 O 455.25 -0.245768 -4.00947 0
M  V30 4915 N 453.456 -0.800911 -2.79345 0
M  V30 4916 H 453.003 -1.42079 -2.14875 0
M  V30 4917 H 452.961 -0.00697996 -3.14399 0
M  V30 4918 N 456.733 0.527833 -1.48498 0
M  V30 4919 C 457.979 1.28545 -1.56857 0
M  V30 4920 C 458.312 1.92678 -0.242651 0
M  V30 4921 O 457.587 1.79394 0.751545 0
M  V30 4922 C 457.87 2.37314 -2.70839 0
M  V30 4923 C 457.723 1.77858 -4.13142 0
M  V30 4924 C 459.042 3.39068 -2.80573 0
M  V30 4925 H 456.161 0.466006 -0.570971 0
M  V30 4926 H 458.803 0.587784 -1.8068 0
M  V30 4927 H 456.953 2.96821 -2.50658 0
M  V30 4928 H 458.625 1.22385 -4.44769 0
M  V30 4929 H 456.868 1.08383 -4.20042 0
M  V30 4930 H 457.539 2.56624 -4.88721 0
M  V30 4931 H 460.015 2.89518 -2.98862 0
M  V30 4932 H 458.891 4.12566 -3.6205 0
M  V30 4933 H 459.152 3.9975 -1.88818 0
M  V30 4934 N 458.211 1.37122 0.776871 0
M  V30 4935 C 459.459 1.31787 1.53221 0
M  V30 4936 C 459.78 -0.0987589 1.9475 0
M  V30 4937 O 459.05 -1.0417 1.65908 0
M  V30 4938 H 457.63 0.484839 0.568278 0
M  V30 4939 H 460.292 1.71556 0.924917 0
M  V30 4940 H 459.388 1.95355 2.43398 0
M  V30 4941 N 459.689 -1.00246 1.21608 0
M  V30 4942 C 460.619 -2.10921 1.00172 0
M  V30 4943 C 461.6 -1.69938 -0.0741587 0
M  V30 4944 O 462.785 -1.94009 0.0861753 0
M  V30 4945 C 459.915 -3.42618 0.568355 0
M  V30 4946 C 458.869 -3.97407 1.58909 0
M  V30 4947 C 458.195 -5.25038 1.01187 0
M  V30 4948 C 459.495 -4.2918 2.97661 0
M  V30 4949 H 461.189 -2.29112 1.92739 0
M  V30 4950 H 458.735 -1.10101 0.928102 0
M  V30 4951 H 460.688 -4.19444 0.405555 0
M  V30 4952 H 459.412 -3.24227 -0.392961 0
M  V30 4953 H 458.071 -3.22703 1.73949 0
M  V30 4954 H 457.719 -5.02982 0.0421965 0
M  V30 4955 H 457.419 -5.62661 1.6937 0
M  V30 4956 H 458.943 -6.04507 0.860448 0
M  V30 4957 H 460.357 -4.96839 2.86049 0
M  V30 4958 H 458.754 -4.77952 3.6288 0
M  V30 4959 H 459.824 -3.3735 3.48315 0
M  V30 4960 N 461.167 -1.02423 -1.1978 0
M  V30 4961 C 462.444 -0.632802 -1.85081 0
M  V30 4962 C 462.824 0.888745 -1.9148 0
M  V30 4963 O 462.172 1.78357 -1.42832 0
M  V30 4964 C 462.382 -1.28947 -3.24305 0
M  V30 4965 C 463.73 -1.40976 -4.00513 0
M  V30 4966 O 464.754 -1.24628 -3.33686 0
M  V30 4967 O 463.613 -1.67467 -5.20209 0
M  V30 4968 H 460.707 -0.219348 -0.79738 0
M  V30 4969 H 463.253 -1.12209 -1.27307 0
M  V30 4970 H 462.025 -2.3288 -3.14456 0
M  V30 4971 H 461.648 -0.787748 -3.89718 0
M  V30 4972 N 462.645 1.35699 -0.801477 0
M  V30 4973 C 463.608 2.28199 -0.213994 0
M  V30 4974 C 464.608 1.49359 0.595691 0
M  V30 4975 O 465.798 1.69186 0.414921 0
M  V30 4976 C 462.93 3.33587 0.702297 0
M  V30 4977 H 464.123 2.81666 -1.02976 0
M  V30 4978 H 461.676 1.45467 -0.571759 0
M  V30 4979 H 462.411 2.85297 1.54195 0
M  V30 4980 H 462.196 3.91906 0.123484 0
M  V30 4981 H 463.686 4.02638 1.10783 0
M  V30 4982 N 464.123 0.554532 1.47522 0
M  V30 4983 C 465.073 -0.215008 2.26984 0
M  V30 4984 C 466.057 -0.88774 1.34194 0
M  V30 4985 O 467.249 -0.786489 1.58567 0
M  V30 4986 C 464.378 -1.24604 3.19889 0
M  V30 4987 C 463.464 -0.576857 4.20159 0
M  V30 4988 N 463.855 0.351541 5.04577 0
M  V30 4989 C 462.153 -0.831104 4.38188 0
M  V30 4990 C 462.854 0.739995 5.76974 0
M  V30 4991 N 461.83 0.0954407 5.43516 0
M  V30 4992 H 465.632 0.498843 2.89636 0
M  V30 4993 H 463.146 0.374279 1.58028 0
M  V30 4994 H 465.143 -1.81128 3.75498 0
M  V30 4995 H 463.803 -1.96101 2.58794 0
M  V30 4996 H 464.814 0.725556 5.12792 0
M  V30 4997 H 461.491 -1.53479 3.88266 0
M  V30 4998 H 462.881 1.50271 6.5488 0
M  V30 4999 N 465.601 -1.54893 0.290851 0
M  V30 5000 C 466.531 -2.26103 -0.583084 0
M  V30 5001 C 467.512 -1.25684 -1.14619 0
M  V30 5002 O 468.697 -1.54436 -1.17741 0
M  V30 5003 C 465.827 -2.99409 -1.75987 0
M  V30 5004 C 464.781 -4.0689 -1.32758 0
M  V30 5005 C 464.107 -4.67856 -2.58872 0
M  V30 5006 C 465.407 -5.20215 -0.46624 0
M  V30 5007 H 467.101 -2.99398 0.0108214 0
M  V30 5008 H 464.647 -1.43998 0.00664468 0
M  V30 5009 H 466.6 -3.47943 -2.37727 0
M  V30 5010 H 465.324 -2.23675 -2.37985 0
M  V30 5011 H 463.983 -3.59191 -0.733299 0
M  V30 5012 H 463.631 -3.88772 -3.19163 0
M  V30 5013 H 463.331 -5.40438 -2.30653 0
M  V30 5014 H 464.855 -5.19147 -3.21433 0
M  V30 5015 H 466.269 -5.64704 -0.989047 0
M  V30 5016 H 464.666 -5.99455 -0.27826 0
M  V30 5017 H 465.736 -4.82198 0.511173 0
M  V30 5018 N 467.08 -0.0183926 -1.57589 0
M  V30 5019 C 468.013 1.00148 -2.0505 0
M  V30 5020 C 468.991 1.32387 -0.944058 0
M  V30 5021 O 470.175 1.44237 -1.21358 0
M  V30 5022 C 467.302 2.32435 -2.46357 0
M  V30 5023 C 466.348 2.15731 -3.67916 0
M  V30 5024 S 467.181 1.46613 -5.15039 0
M  V30 5025 C 468.337 2.80293 -5.59631 0
M  V30 5026 H 468.57 0.597429 -2.91235 0
M  V30 5027 H 466.103 0.193002 -1.53189 0
M  V30 5028 H 468.061 3.0849 -2.70822 0
M  V30 5029 H 466.722 2.69975 -1.60537 0
M  V30 5030 H 465.915 3.13502 -3.9463 0
M  V30 5031 H 465.517 1.4782 -3.43548 0
M  V30 5032 H 467.809 3.76557 -5.63215 0
M  V30 5033 H 468.752 2.58256 -6.59325 0
M  V30 5034 H 469.16 2.85047 -4.87246 0
M  V30 5035 N 468.558 1.5553 0.254621 0
M  V30 5036 C 469.806 1.7665 0.981793 0
M  V30 5037 C 470.127 0.580963 1.86145 0
M  V30 5038 O 469.397 -0.403537 1.91699 0
M  V30 5039 H 467.977 0.651475 0.365498 0
M  V30 5040 H 470.639 1.92958 0.274426 0
M  V30 5041 H 469.735 2.67486 1.60802 0
M  V30 5042 N 470.036 -0.519951 1.48776 0
M  V30 5043 C 470.999 -1.60574 1.6355 0
M  V30 5044 C 471.999 -1.52557 0.508234 0
M  V30 5045 O 473.189 -1.56047 0.774262 0
M  V30 5046 C 470.321 -3.00211 1.61512 0
M  V30 5047 H 471.514 -1.4881 2.60376 0
M  V30 5048 H 469.067 -0.742772 1.37523 0
M  V30 5049 H 469.802 -3.17471 0.662009 0
M  V30 5050 H 469.587 -3.07439 2.43359 0
M  V30 5051 H 471.077 -3.79134 1.75064 0
M  V30 5052 N 471.514 -1.37532 -0.769588 0
M  V30 5053 C 472.446 -1.29347 -1.89214 0
M  V30 5054 C 473.459 -0.208842 -1.61455 0
M  V30 5055 O 474.648 -0.465158 -1.72333 0
M  V30 5056 C 471.748 -0.977649 -3.24492 0
M  V30 5057 C 470.921 -2.16817 -3.7988 0
M  V30 5058 C 469.98 -1.82229 -4.93639 0
M  V30 5059 O 469.006 -2.54548 -5.09111 0
M  V30 5060 N 470.208 -0.767696 -5.75401 0
M  V30 5061 H 472.973 -2.26073 -1.96751 0
M  V30 5062 H 470.534 -1.31185 -0.948795 0
M  V30 5063 H 472.526 -0.727065 -3.98115 0
M  V30 5064 H 471.096 -0.0988777 -3.12444 0
M  V30 5065 H 470.316 -2.58038 -2.9801 0
M  V30 5066 H 471.604 -2.96308 -4.13617 0
M  V30 5067 H 471.002 -0.167626 -5.65452 0
M  V30 5068 H 469.559 -0.576973 -6.49241 0
M  V30 5069 N 472.992 0.995999 -1.22138 0
M  V30 5070 C 473.955 2.06711 -0.990109 0
M  V30 5071 C 474.955 1.60744 0.0422978 0
M  V30 5072 O 476.145 1.73095 -0.195895 0
M  V30 5073 C 473.277 3.37288 -0.49491 0
M  V30 5074 H 474.47 2.28661 -1.94047 0
M  V30 5075 H 472.023 1.16711 -1.03963 0
M  V30 5076 H 472.758 3.21022 0.459948 0
M  V30 5077 H 472.543 3.71986 -1.23971 0
M  V30 5078 H 474.033 4.16103 -0.353253 0
M  V30 5079 N 474.47 1.03057 1.19235 0
M  V30 5080 C 475.716 0.738841 1.89506 0
M  V30 5081 C 476.071 -0.724807 1.78225 0
M  V30 5082 O 475.364 -1.52118 1.16494 0
M  V30 5083 C 475.558 1.1268 3.39172 0
M  V30 5084 C 475.387 2.62662 3.65019 0
M  V30 5085 C 474.157 3.29658 3.82954 0
M  V30 5086 C 476.355 3.60873 3.66436 0
M  V30 5087 N 474.337 4.68726 3.96446 0
M  V30 5088 C 475.708 4.85566 3.8552 0
M  V30 5089 C 477.763 3.54647 3.49471 0
M  V30 5090 C 476.466 6.04783 3.89397 0
M  V30 5091 C 478.492 4.73281 3.54625 0
M  V30 5092 C 477.854 5.96789 3.74196 0
M  V30 5093 H 473.953 0.322256 0.712513 0
M  V30 5094 H 476.537 1.31822 1.43287 0
M  V30 5095 H 474.708 0.575612 3.84111 0
M  V30 5096 H 476.44 0.787145 3.96971 0
M  V30 5097 H 473.195 2.8007 3.81913 0
M  V30 5098 H 473.619 5.40971 4.07037 0
M  V30 5099 H 478.261 2.60143 3.33295 0
M  V30 5100 H 475.979 6.99654 4.04364 0
M  V30 5101 H 479.565 4.70094 3.42787 0
M  V30 5102 H 478.445 6.87051 3.78061 0
M  V30 5103 N 475.948 -1.35272 0.808662 0
M  V30 5104 C 476.898 -2.27181 0.193124 0
M  V30 5105 C 477.882 -1.47871 -0.634265 0
M  V30 5106 O 479.074 -1.70048 -0.491182 0
M  V30 5107 C 476.203 -3.36979 -0.655751 0
M  V30 5108 C 475.289 -4.23712 0.181481 0
M  V30 5109 N 475.68 -4.90225 1.24551 0
M  V30 5110 C 473.978 -4.45985 -0.0365493 0
M  V30 5111 C 474.679 -5.54537 1.75682 0
M  V30 5112 N 473.655 -5.33107 1.06294 0
M  V30 5113 H 477.457 -2.76101 1.00724 0
M  V30 5114 H 474.971 -1.48823 0.650029 0
M  V30 5115 H 476.968 -4.01774 -1.11279 0
M  V30 5116 H 475.628 -2.89611 -1.46819 0
M  V30 5117 H 476.639 -4.91641 1.62818 0
M  V30 5118 H 473.316 -4.09409 -0.817964 0
M  V30 5119 H 474.706 -6.17597 2.64621 0
M  V30 5120 N 477.426 -0.562348 -1.47226 0
M  V30 5121 C 478.373 0.182461 -2.30078 0
M  V30 5122 C 479.343 0.903503 -1.39377 0
M  V30 5123 O 480.528 0.898188 -1.68337 0
M  V30 5124 C 477.668 1.20322 -3.23445 0
M  V30 5125 C 476.781 0.487717 -4.29238 0
M  V30 5126 C 475.916 1.49422 -5.09752 0
M  V30 5127 C 474.955 0.763976 -6.07314 0
M  V30 5128 N 474.092 1.71755 -6.80768 0
M  V30 5129 H 478.932 -0.530169 -2.93246 0
M  V30 5130 H 476.469 -0.273276 -1.44539 0
M  V30 5131 H 478.427 1.80768 -3.76004 0
M  V30 5132 H 477.057 1.88382 -2.6213 0
M  V30 5133 H 476.109 -0.231374 -3.79696 0
M  V30 5134 H 477.421 -0.0841003 -4.98729 0
M  V30 5135 H 476.575 2.17206 -5.66486 0
M  V30 5136 H 475.314 2.09995 -4.40174 0
M  V30 5137 H 474.319 0.0722344 -5.49753 0
M  V30 5138 H 475.544 0.16391 -6.78902 0
M  V30 5139 H 473.49 2.31177 -6.13916 0
M  V30 5140 H 473.407 1.19802 -7.46447 0
M  V30 5141 H 474.675 2.38638 -7.42073 0
M  V30 5142 N 478.904 1.54736 -0.299062 0
M  V30 5143 C 480.129 2.04975 0.316254 0
M  V30 5144 C 480.554 1.17501 1.46885 0
M  V30 5145 O 479.912 0.178678 1.80417 0
M  V30 5146 C 479.96 3.52672 0.751997 0
M  V30 5147 O 479.064 3.68226 1.85697 0
M  V30 5148 H 478.405 0.661126 0.0617175 0
M  V30 5149 H 480.935 1.99805 -0.440341 0
M  V30 5150 H 480.945 3.94488 1.04133 0
M  V30 5151 H 479.62 4.158 -0.0911482 0
M  V30 5152 H 478.197 3.38316 1.56834 0
M  V30 5153 N 480.382 0.0267497 1.57577 0
M  V30 5154 C 481.345 -0.940916 2.08996 0
M  V30 5155 C 482.345 -1.25561 1.00455 0
M  V30 5156 O 483.535 -1.19634 1.26623 0
M  V30 5157 C 480.667 -2.25814 2.55384 0
M  V30 5158 H 481.86 -0.495628 2.95776 0
M  V30 5159 H 479.413 -0.221241 1.54726 0
M  V30 5160 H 480.148 -2.74976 1.71926 0
M  V30 5161 H 479.933 -2.04285 3.34679 0
M  V30 5162 H 481.423 -2.95178 2.95398 0
M  V30 5163 N 481.861 -1.55662 -0.24637 0
M  V30 5164 C 483.107 -1.77782 -0.975779 0
M  V30 5165 C 483.44 -0.592103 -1.84953 0
M  V30 5166 O 482.715 0.409588 -1.90138 0
M  V30 5167 C 482.998 -3.09788 -1.83584 0
M  V30 5168 C 482.851 -4.38764 -0.990241 0
M  V30 5169 C 484.17 -3.38029 -2.81823 0
M  V30 5170 H 481.289 -0.646789 -0.353317 0
M  V30 5171 H 483.931 -1.88398 -0.246248 0
M  V30 5172 H 482.081 -3.00869 -2.45784 0
M  V30 5173 H 483.753 -4.59675 -0.386897 0
M  V30 5174 H 481.996 -4.32798 -0.294626 0
M  V30 5175 H 482.667 -5.27514 -1.62584 0
M  V30 5176 H 485.143 -3.46915 -2.2976 0
M  V30 5177 H 484.019 -4.3161 -3.39122 0
M  V30 5178 H 484.28 -2.58968 -3.58313 0
M  V30 5179 N 483.339 0.512053 -1.4905 0
M  V30 5180 C 484.287 1.63568 -1.65373 0
M  V30 5181 C 485.281 1.61228 -0.519806 0
M  V30 5182 O 486.487 1.65869 -0.699101 0
M  V30 5183 H 482.862 0.542019 -0.521267 0
M  V30 5184 H 484.833 1.4695 -2.59708 0
M  V30 5185 C 483.582 3.01761 -1.7273 0
M  V30 5186 H 482.905 3.04263 -2.59353 0
M  V30 5187 H 484.345 3.79948 -1.8819 0
M  V30 5188 C 482.804 3.33609 -0.46973 0
M  V30 5189 O 483.334 3.99607 0.409492 0
M  V30 5190 N 481.54 2.88651 -0.336003 0
M  V30 5191 H 481.087 2.35119 -1.05247 0
M  V30 5192 H 481.045 3.10328 0.504363 0
M  V30 5193 N 484.817 1.37938 0.762283 0
M  V30 5194 C 485.764 1.34467 1.87583 0
M  V30 5195 C 486.734 0.208633 1.64785 0
M  V30 5196 O 487.919 0.399494 1.86571 0
M  V30 5197 C 485.059 1.16692 3.24772 0
M  V30 5198 C 484.172 2.39608 3.59461 0
M  V30 5199 C 483.307 2.14631 4.85908 0
M  V30 5200 C 482.346 3.33364 5.13357 0
M  V30 5201 N 481.483 3.07877 6.30996 0
M  V30 5202 H 486.323 2.29669 1.89885 0
M  V30 5203 H 483.86 1.14116 0.928219 0
M  V30 5204 H 485.818 1.04405 4.03925 0
M  V30 5205 H 484.448 0.251333 3.2182 0
M  V30 5206 H 483.5 2.626 2.75219 0
M  V30 5207 H 484.812 3.28128 3.75678 0
M  V30 5208 H 483.966 1.99429 5.72986 0
M  V30 5209 H 482.705 1.23463 4.71814 0
M  V30 5210 H 481.71 3.49094 4.24751 0
M  V30 5211 H 482.935 4.25395 5.29354 0
M  V30 5212 H 480.881 2.19348 6.18241 0
M  V30 5213 H 480.798 3.89944 6.47673 0
M  V30 5214 H 482.066 2.96313 7.20985 0
M  V30 5215 N 486.295 -0.989507 1.22664 0
M  V30 5216 C 487.258 -2.06183 1.00106 0
M  V30 5217 C 488.258 -1.60765 -0.0337726 0
M  V30 5218 O 489.448 -1.72989 0.205072 0
M  V30 5219 C 486.58 -3.37021 0.51279 0
M  V30 5220 H 487.773 -2.27629 1.95256 0
M  V30 5221 H 485.326 -1.16158 1.0458 0
M  V30 5222 H 486.061 -3.21261 -0.442917 0
M  V30 5223 H 485.846 -3.71323 1.25942 0
M  V30 5224 H 487.336 -4.1591 0.375315 0
M  V30 5225 N 487.773 -1.03688 -1.18687 0
M  V30 5226 C 488.703 -0.645407 -2.24403 0
M  V30 5227 C 489.684 0.349511 -1.66471 0
M  V30 5228 O 490.869 0.230453 -1.92828 0
M  V30 5229 C 487.999 -0.00365337 -3.473 0
M  V30 5230 C 486.953 -0.921705 -4.17958 0
M  V30 5231 C 486.279 -0.144629 -5.34504 0
M  V30 5232 C 487.579 -2.23909 -4.71871 0
M  V30 5233 H 489.273 -1.52917 -2.57404 0
M  V30 5234 H 486.819 -0.736711 -1.23728 0
M  V30 5235 H 488.772 0.281908 -4.20456 0
M  V30 5236 H 487.496 0.914963 -3.13522 0
M  V30 5237 H 486.155 -1.19159 -3.46694 0
M  V30 5238 H 485.803 0.776274 -4.96974 0
M  V30 5239 H 485.503 -0.756206 -5.82714 0
M  V30 5240 H 487.027 0.134004 -6.10453 0
M  V30 5241 H 488.441 -2.0145 -5.36741 0
M  V30 5242 H 486.838 -2.8033 -5.30599 0
M  V30 5243 H 487.908 -2.88822 -3.895 0
M  V30 5244 N 489.251 1.34841 -0.815825 0
M  V30 5245 C 490.499 1.98107 -0.399744 0
M  V30 5246 C 490.82 1.65019 1.03894 0
M  V30 5247 O 490.09 0.937311 1.72021 0
M  V30 5248 H 488.67 0.732827 -0.144823 0
M  V30 5249 H 491.332 1.64599 -1.0437 0
M  V30 5250 H 490.428 3.07856 -0.512965 0
M  V30 5251 N 490.729 0.570148 1.46925 0
M  V30 5252 C 491.976 0.0509529 2.02436 0
M  V30 5253 C 492.304 -1.30405 1.44308 0
M  V30 5254 O 491.559 -1.86493 0.593198 0
M  V30 5255 C 491.858 -0.0780336 3.57315 0
M  V30 5256 C 491.524 1.20775 4.34424 0
M  V30 5257 C 490.186 1.56004 4.5521 0
M  V30 5258 C 492.538 2.0592 4.78797 0
M  V30 5259 C 489.866 2.76201 5.17619 0
M  V30 5260 C 492.218 3.25332 5.42533 0
M  V30 5261 C 490.882 3.60859 5.61549 0
M  V30 5262 H 490.152 0.018645 0.740765 0
M  V30 5263 H 492.799 0.744262 1.76445 0
M  V30 5264 H 491.104 -0.854394 3.82371 0
M  V30 5265 H 492.801 -0.495312 3.97929 0
M  V30 5266 H 489.391 0.923469 4.18533 0
M  V30 5267 H 493.575 1.80008 4.62505 0
M  V30 5268 H 488.831 3.0388 5.30535 0
M  V30 5269 H 493.005 3.91586 5.75876 0
M  V30 5270 H 490.632 4.54088 6.09678 0
M  V30 5271 N 492.207 -1.54576 0.307264 0
M  V30 5272 C 493.137 -2.26708 -0.55907 0
M  V30 5273 C 494.118 -1.26893 -1.1328 0
M  V30 5274 O 495.303 -1.55677 -1.16097 0
M  V30 5275 C 492.433 -3.01259 -1.72801 0
M  V30 5276 C 491.387 -4.08275 -1.28435 0
M  V30 5277 C 490.713 -4.70575 -2.53895 0
M  V30 5278 C 492.013 -5.2068 -0.411038 0
M  V30 5279 H 493.707 -2.9937 0.042576 0
M  V30 5280 H 491.253 -1.43983 0.0219173 0
M  V30 5281 H 493.206 -3.50444 -2.34023 0
M  V30 5282 H 491.93 -2.26187 -2.356 0
M  V30 5283 H 490.589 -3.59949 -0.695161 0
M  V30 5284 H 490.237 -3.92136 -3.15021 0
M  V30 5285 H 489.937 -5.42854 -2.24908 0
M  V30 5286 H 491.461 -5.22527 -3.15908 0
M  V30 5287 H 492.875 -5.65721 -0.929097 0
M  V30 5288 H 491.272 -5.99716 -0.214664 0
M  V30 5289 H 492.342 -4.81629 0.562287 0
M  V30 5290 N 493.685 -0.035106 -1.57561 0
M  V30 5291 C 494.91 0.655802 -1.96759 0
M  V30 5292 C 495.335 1.64523 -0.911809 0
M  V30 5293 O 494.693 1.80857 0.126673 0
M  V30 5294 C 494.741 1.33326 -3.35047 0
M  V30 5295 O 493.845 2.44866 -3.31835 0
M  V30 5296 H 493.186 0.171807 -0.641388 0
M  V30 5297 H 495.716 -0.0987369 -2.04362 0
M  V30 5298 H 495.726 1.68867 -3.71413 0
M  V30 5299 H 494.401 0.608033 -4.11431 0
M  V30 5300 H 492.978 2.11392 -3.07193 0
M  V30 5301 N 495.163 1.55791 0.238111 0
M  V30 5302 C 496.393 1.81834 0.980809 0
M  V30 5303 C 496.801 0.609741 1.79106 0
M  V30 5304 O 496.144 -0.431073 1.78571 0
M  V30 5305 C 496.206 3.01363 1.96011 0
M  V30 5306 C 495.87 4.37037 1.33597 0
M  V30 5307 C 496.867 5.14692 0.734063 0
M  V30 5308 C 494.552 4.83743 1.3527 0
M  V30 5309 C 496.546 6.37206 0.157208 0
M  V30 5310 C 494.233 6.06204 0.77199 0
M  V30 5311 C 495.231 6.82775 0.175282 0
M  V30 5312 O 494.919 8.02922 -0.396432 0
M  V30 5313 H 494.651 0.6088 0.293834 0
M  V30 5314 H 497.205 2.03702 0.263552 0
M  V30 5315 H 495.435 2.75273 2.71591 0
M  V30 5316 H 497.124 3.14422 2.56697 0
M  V30 5317 H 497.89 4.79722 0.713582 0
M  V30 5318 H 493.769 4.24129 1.80653 0
M  V30 5319 H 497.313 6.96915 -0.30917 0
M  V30 5320 H 493.21 6.4065 0.789828 0
M  V30 5321 H 493.978 8.17989 -0.289145 0
M  V30 5322 N 496.642 -0.504142 1.49319 0
M  V30 5323 C 497.605 -1.5883 1.65244 0
M  V30 5324 C 498.605 -1.52009 0.524386 0
M  V30 5325 O 499.795 -1.55218 0.79077 0
M  V30 5326 C 496.927 -2.98481 1.64687 0
M  V30 5327 H 498.12 -1.4604 2.61939 0
M  V30 5328 H 495.673 -0.728144 1.38303 0
M  V30 5329 H 496.408 -3.16751 0.695644 0
M  V30 5330 H 496.193 -3.0484 2.46607 0
M  V30 5331 H 497.683 -3.77256 1.79075 0
M  V30 5332 N 498.12 -1.38341 -0.754957 0
M  V30 5333 C 499.067 -1.3546 -1.86867 0
M  V30 5334 C 500.037 -0.217369 -1.64672 0
M  V30 5335 O 501.222 -0.409383 -1.86356 0
M  V30 5336 C 498.362 -1.18413 -3.24149 0
M  V30 5337 C 497.475 -2.41511 -3.58185 0
M  V30 5338 C 496.61 -2.17205 -4.84763 0
M  V30 5339 C 495.649 -3.36081 -5.11582 0
M  V30 5340 N 494.786 -3.11219 -6.29354 0
M  V30 5341 H 499.626 -2.30672 -1.88664 0
M  V30 5342 H 497.163 -1.14607 -0.922154 0
M  V30 5343 H 499.121 -1.06545 -4.03366 0
M  V30 5344 H 497.751 -0.268397 -3.21682 0
M  V30 5345 H 496.803 -2.64056 -2.73822 0
M  V30 5346 H 498.115 -3.30115 -3.73932 0
M  V30 5347 H 497.269 -2.02465 -5.7192 0
M  V30 5348 H 496.008 -1.25964 -4.71152 0
M  V30 5349 H 495.013 -3.51341 -4.22894 0
M  V30 5350 H 496.238 -4.28196 -5.27091 0
M  V30 5351 H 494.184 -2.22624 -6.17069 0
M  V30 5352 H 494.101 -3.93373 -6.45596 0
M  V30 5353 H 495.369 -3.00132 -7.19403 0
M  V30 5354 N 499.598 0.982988 -1.23187 0
M  V30 5355 C 500.826 1.75921 -1.08901 0
M  V30 5356 C 501.241 1.85341 0.359719 0
M  V30 5357 O 500.598 1.33072 1.24892 0
M  V30 5358 C 500.649 3.18742 -1.70545 0
M  V30 5359 O 500.37 3.09814 -3.09753 0
M  V30 5360 C 501.871 4.1277 -1.61667 0
M  V30 5361 H 499.091 0.552166 -0.381252 0
M  V30 5362 H 501.635 1.23516 -1.62985 0
M  V30 5363 H 499.79 3.68182 -1.20501 0
M  V30 5364 H 500.204 3.99703 -3.39614 0
M  V30 5365 H 501.678 5.10697 -2.09506 0
M  V30 5366 H 502.155 4.3542 -0.575009 0
M  V30 5367 H 502.761 3.69232 -2.11064 0
M  V30 5368 N 501.076 1.04316 1.18135 0
M  V30 5369 C 502.024 0.630175 2.23901 0
M  V30 5370 C 503.018 -0.344254 1.65865 0
M  V30 5371 O 504.224 -0.211273 1.78756 0
M  V30 5372 H 500.599 0.185578 0.728742 0
M  V30 5373 H 502.57 1.53253 2.56039 0
M  V30 5374 C 501.319 0.011666 3.47698 0
M  V30 5375 H 500.642 0.752526 3.92654 0
M  V30 5376 H 502.082 -0.240046 4.2332 0
M  V30 5377 C 500.541 -1.23913 3.13285 0
M  V30 5378 O 501.071 -2.32959 3.27251 0
M  V30 5379 N 499.277 -1.13338 2.67587 0
M  V30 5380 H 498.824 -0.246006 2.56423 0
M  V30 5381 H 498.782 -1.97116 2.44934 0
M  V30 5382 N 502.554 -1.34406 0.822964 0
M  V30 5383 C 503.502 -2.31428 0.233165 0
M  V30 5384 C 504.496 -1.57404 -0.626118 0
M  V30 5385 O 505.702 -1.72402 -0.517453 0
M  V30 5386 H 502.077 -0.749863 0.0566557 0
M  V30 5387 H 504.048 -2.78699 1.06628 0
M  V30 5388 C 502.797 -3.42653 -0.590264 0
M  V30 5389 H 502.12 -3.99753 0.0616129 0
M  V30 5390 H 503.56 -4.12778 -0.969054 0
M  V30 5391 C 502.019 -2.87112 -1.76262 0
M  V30 5392 O 502.549 -2.81995 -2.8608 0
M  V30 5393 N 500.755 -2.43934 -1.57938 0
M  V30 5394 H 500.302 -2.48296 -0.686078 0
M  V30 5395 H 500.26 -2.07123 -2.36532 0
M  V30 5396 N 504.032 -0.577932 -1.46621 0
M  V30 5397 C 505.257 -0.0652536 -2.07297 0
M  V30 5398 C 505.682 1.22828 -1.4246 0
M  V30 5399 O 505.04 1.74075 -0.506718 0
M  V30 5400 C 505.088 0.0920589 -3.60482 0
M  V30 5401 O 504.192 1.14972 -3.96049 0
M  V30 5402 H 503.533 -0.06065 -0.661224 0
M  V30 5403 H 506.063 -0.799515 -1.88332 0
M  V30 5404 H 506.073 0.299741 -4.06897 0
M  V30 5405 H 504.748 -0.852612 -4.07067 0
M  V30 5406 H 503.325 0.920879 -3.61351 0
M  V30 5407 N 505.51 1.54411 -0.315457 0
M  V30 5408 C 506.457 2.24048 0.554166 0
M  V30 5409 C 507.427 1.2283 1.11812 0
M  V30 5410 O 508.612 1.51491 1.15997 0
M  V30 5411 C 505.752 2.99574 1.71316 0
M  V30 5412 C 504.865 4.15594 1.17922 0
M  V30 5413 C 504 4.78669 2.30324 0
M  V30 5414 C 503.039 5.86807 1.74137 0
M  V30 5415 N 502.176 6.43777 2.8017 0
M  V30 5416 H 507.016 2.97964 -0.0462602 0
M  V30 5417 H 504.553 1.47059 -0.0346009 0
M  V30 5418 H 506.511 3.41604 2.39505 0
M  V30 5419 H 505.141 2.28008 2.285 0
M  V30 5420 H 504.193 3.78404 0.389136 0
M  V30 5421 H 505.505 4.93459 0.728012 0
M  V30 5422 H 504.659 5.23626 3.06433 0
M  V30 5423 H 503.398 4.00168 2.78778 0
M  V30 5424 H 502.403 5.41261 0.965236 0
M  V30 5425 H 503.628 6.67201 1.2657 0
M  V30 5426 H 501.574 5.68153 3.2793 0
M  V30 5427 H 501.491 7.17031 2.39588 0
M  V30 5428 H 502.759 6.9339 3.56132 0
M  V30 5429 N 506.988 0.0434614 1.5754 0
M  V30 5430 C 507.936 -0.951465 2.1225 0
M  V30 5431 C 508.93 -1.3274 1.05245 0
M  V30 5432 O 510.136 -1.30795 1.23663 0
M  V30 5433 H 506.511 -0.324667 0.678303 0
M  V30 5434 H 508.482 -0.464855 2.94757 0
M  V30 5435 C 507.231 -2.21972 2.67626 0
M  V30 5436 H 506.554 -1.93923 3.4962 0
M  V30 5437 H 507.994 -2.89765 3.09536 0
M  V30 5438 C 506.453 -2.95919 1.61038 0
M  V30 5439 O 506.983 -3.8857 1.01862 0
M  V30 5440 N 505.189 -2.58511 1.32741 0
M  V30 5441 H 504.736 -1.83244 1.81051 0
M  V30 5442 H 504.694 -3.08296 0.616531 0
M  V30 5443 N 508.466 -1.55915 -0.229846 0
M  V30 5444 C 509.706 -1.80314 -0.962614 0
M  V30 5445 C 510.07 -0.61568 -1.81861 0
M  V30 5446 O 511.271 -0.738795 -2.58448 0
M  V30 5447 C 509.542 -3.0956 -1.78627 0
M  V30 5448 S 511.101 -3.55243 -2.57581 0
M  V30 5449 H 507.919 -0.633142 -0.323499 0
M  V30 5450 H 510.521 -1.94155 -0.228919 0
M  V30 5451 H 509.225 -3.94033 -1.14742 0
M  V30 5452 H 508.756 -2.98503 -2.56241 0
M  V30 5453 H 510.771 -3.17924 -3.80971 0
M  V30 5454 N 509.944 0.496216 -1.49584 0
M  V30 5455 C 511.174 1.27209 -1.62793 0
M  V30 5456 C 511.582 1.86799 -0.300476 0
M  V30 5457 O 510.925 1.68802 0.724674 0
M  V30 5458 C 510.987 2.43812 -2.64189 0
M  V30 5459 C 510.651 2.05055 -4.08414 0
M  V30 5460 C 511.648 1.58752 -4.9507 0
M  V30 5461 C 509.333 2.14543 -4.54177 0
M  V30 5462 C 511.327 1.22448 -6.25528 0
M  V30 5463 C 509.014 1.77851 -5.84647 0
M  V30 5464 C 510.012 1.31878 -6.70147 0
M  V30 5465 O 509.7 0.956834 -7.98185 0
M  V30 5466 H 509.432 0.391848 -0.550846 0
M  V30 5467 H 511.986 0.601712 -1.96389 0
M  V30 5468 H 510.216 3.13941 -2.25783 0
M  V30 5469 H 511.905 3.05829 -2.66877 0
M  V30 5470 H 512.671 1.50863 -4.60939 0
M  V30 5471 H 508.55 2.49277 -3.87791 0
M  V30 5472 H 512.094 0.864933 -6.92217 0
M  V30 5473 H 507.991 1.8539 -6.18305 0
M  V30 5474 H 508.759 1.08789 -8.11238 0
M  V30 5475 N 511.423 1.38739 0.74761 0
M  V30 5476 C 512.333 1.38696 1.89211 0
M  V30 5477 C 513.349 0.283303 1.71678 0
M  V30 5478 O 514.525 0.522713 1.94498 0
M  V30 5479 C 511.59 1.21662 3.24653 0
M  V30 5480 C 510.651 2.41886 3.54669 0
M  V30 5481 C 509.884 2.25655 4.83648 0
M  V30 5482 O 510.107 1.25339 5.56459 0
M  V30 5483 O 509.041 3.14372 5.13277 0
M  V30 5484 H 512.867 2.35143 1.92202 0
M  V30 5485 H 510.452 1.19721 0.893708 0
M  V30 5486 H 512.334 1.14246 4.05618 0
M  V30 5487 H 511.009 0.283024 3.2246 0
M  V30 5488 H 509.916 2.54877 2.73841 0
M  V30 5489 H 511.249 3.33895 3.61628 0
M  V30 5490 N 512.901 -0.976442 1.23707 0
M  V30 5491 C 513.833 -2.07212 0.979574 0
M  V30 5492 C 514.846 -1.6273 -0.0478528 0
M  V30 5493 O 516.035 -1.77506 0.18815 0
M  V30 5494 C 513.135 -3.35835 0.45479 0
M  V30 5495 C 512.308 -4.09268 1.54331 0
M  V30 5496 C 511.367 -5.16166 1.02271 0
M  V30 5497 O 510.393 -5.42827 1.71254 0
M  V30 5498 N 511.595 -5.80313 -0.147419 0
M  V30 5499 H 514.36 -2.29878 1.92292 0
M  V30 5500 H 511.921 -1.14343 1.14618 0
M  V30 5501 H 513.913 -4.04597 0.0914631 0
M  V30 5502 H 512.483 -3.10106 -0.394068 0
M  V30 5503 H 511.703 -3.34906 2.07923 0
M  V30 5504 H 512.991 -4.55095 2.27522 0
M  V30 5505 H 512.389 -5.61043 -0.724353 0
M  V30 5506 H 510.946 -6.50231 -0.451972 0
M  V30 5507 N 514.379 -1.04941 -1.1758 0
M  V30 5508 C 515.625 -0.759112 -1.88057 0
M  V30 5509 C 515.958 0.711918 -1.8068 0
M  V30 5510 O 515.233 1.52035 -1.21308 0
M  V30 5511 C 515.516 -1.237 -3.38187 0
M  V30 5512 C 515.369 -2.77078 -3.54327 0
M  V30 5513 C 516.688 -0.834014 -4.32125 0
M  V30 5514 H 513.807 -0.277237 -0.682868 0
M  V30 5515 H 516.449 -1.30296 -1.38286 0
M  V30 5516 H 514.599 -0.774337 -3.80705 0
M  V30 5517 H 516.271 -3.31449 -3.20842 0
M  V30 5518 H 514.514 -3.16477 -2.96689 0
M  V30 5519 H 515.185 -3.05577 -4.59703 0
M  V30 5520 H 517.661 -1.23228 -3.97434 0
M  V30 5521 H 516.537 -1.19603 -5.35711 0
M  V30 5522 H 516.798 0.262195 -4.41322 0
M  V30 5523 N 515.857 1.33968 -0.830081 0
M  V30 5524 C 517.087 2.01987 -0.434142 0
M  V30 5525 C 517.495 1.62639 0.96671 0
M  V30 5526 O 516.838 0.831151 1.63822 0
M  V30 5527 C 516.9 3.5648 -0.465018 0
M  V30 5528 C 516.564 4.19176 -1.82045 0
M  V30 5529 C 517.561 4.39181 -2.78237 0
M  V30 5530 C 515.246 4.55792 -2.11089 0
M  V30 5531 C 517.24 4.94937 -4.01642 0
M  V30 5532 C 514.927 5.11258 -3.34752 0
M  V30 5533 C 515.925 5.30775 -4.29845 0
M  V30 5534 O 515.613 5.85064 -5.51322 0
M  V30 5535 H 515.345 0.653847 -0.171639 0
M  V30 5536 H 517.899 1.72066 -1.12171 0
M  V30 5537 H 516.129 3.8569 0.279284 0
M  V30 5538 H 517.818 4.05804 -0.0881334 0
M  V30 5539 H 518.584 4.11249 -2.57097 0
M  V30 5540 H 514.463 4.39901 -1.3787 0
M  V30 5541 H 518.007 5.10086 -4.75876 0
M  V30 5542 H 513.904 5.38619 -3.55753 0
M  V30 5543 H 514.672 6.03489 -5.5294 0
M  V30 5544 N 517.335 0.585699 1.46312 0
M  V30 5545 C 518.56 0.0762461 2.0726 0
M  V30 5546 C 518.985 -1.22071 1.43109 0
M  V30 5547 O 518.343 -1.73804 0.515942 0
M  V30 5548 C 518.391 -0.0729404 3.60526 0
M  V30 5549 O 517.495 -1.1287 3.96654 0
M  V30 5550 H 516.836 0.0641558 0.660893 0
M  V30 5551 H 519.366 0.809492 1.87905 0
M  V30 5552 H 519.376 -0.278158 4.07051 0
M  V30 5553 H 518.051 0.874188 4.06609 0
M  V30 5554 H 516.628 -0.901703 3.61834 0
M  V30 5555 N 518.813 -1.54241 0.323641 0
M  V30 5556 C 520.043 -2.04687 -0.280464 0
M  V30 5557 C 520.451 -1.19939 -1.46326 0
M  V30 5558 O 519.794 -0.222872 -1.82343 0
M  V30 5559 C 519.856 -3.50978 -0.778123 0
M  V30 5560 C 519.52 -4.56127 0.282371 0
M  V30 5561 C 520.517 -5.07726 1.11847 0
M  V30 5562 C 518.202 -5.00451 0.430582 0
M  V30 5563 C 520.196 -6.02212 2.08851 0
M  V30 5564 C 517.883 -5.94752 1.40404 0
M  V30 5565 C 518.881 -6.45519 2.23147 0
M  V30 5566 O 518.569 -7.37968 3.1884 0
M  V30 5567 H 518.301 -0.673192 -0.0615473 0
M  V30 5568 H 520.855 -1.99999 0.467921 0
M  V30 5569 H 519.085 -3.53064 -1.57742 0
M  V30 5570 H 520.774 -3.84499 -1.30058 0
M  V30 5571 H 521.54 -4.74261 1.01496 0
M  V30 5572 H 517.419 -4.6055 -0.203569 0
M  V30 5573 H 520.963 -6.41761 2.73474 0
M  V30 5574 H 516.86 -6.27633 1.5082 0
M  V30 5575 H 517.628 -7.55841 3.14079 0
M  V30 5576 N 520.291 -0.0518155 -1.57515 0
M  V30 5577 C 521.539 0.620595 -1.92336 0
M  V30 5578 C 521.86 1.71345 -0.930907 0
M  V30 5579 O 521.13 1.95885 0.0241341 0
M  V30 5580 H 519.71 0.232226 -0.709986 0
M  V30 5581 H 522.372 -0.104969 -1.94617 0
M  V30 5582 H 521.468 1.05879 -2.93592 0
M  V30 5583 N 521.769 1.56035 0.221574 0
M  V30 5584 C 523.017 1.78693 0.944102 0
M  V30 5585 C 523.338 0.620317 1.8487 0
M  V30 5586 O 522.608 -0.362784 1.92512 0
M  V30 5587 H 521.188 0.659082 0.351597 0
M  V30 5588 H 523.85 1.93497 0.233435 0
M  V30 5589 H 522.946 2.70837 1.55093 0
M  V30 5590 N 523.247 -0.488276 1.49845 0
M  V30 5591 C 524.21 -1.57069 1.66919 0
M  V30 5592 C 525.21 -1.51445 0.540479 0
M  V30 5593 O 526.4 -1.5437 0.807188 0
M  V30 5594 C 523.532 -2.96718 1.67844 0
M  V30 5595 H 524.725 -1.43254 2.63474 0
M  V30 5596 H 522.278 -0.713435 1.39068 0
M  V30 5597 H 523.013 -3.15996 0.7292 0
M  V30 5598 H 522.798 -3.02208 2.49826 0
M  V30 5599 H 524.288 -3.75335 1.83066 0
M  V30 5600 N 524.725 -1.39134 -0.740242 0
M  V30 5601 C 525.657 -1.33332 -1.86428 0
M  V30 5602 C 526.67 -0.243042 -1.60976 0
M  V30 5603 O 527.859 -0.501608 -1.71307 0
M  V30 5604 C 524.959 -1.04626 -3.22346 0
M  V30 5605 C 524.132 -2.24826 -3.75196 0
M  V30 5606 C 523.191 -1.92659 -4.89662 0
M  V30 5607 O 522.217 -2.6529 -5.03597 0
M  V30 5608 N 523.419 -0.889575 -5.73643 0
M  V30 5609 H 526.184 -2.30196 -1.91911 0
M  V30 5610 H 523.745 -1.33168 -0.920756 0
M  V30 5611 H 525.737 -0.811347 -3.96484 0
M  V30 5612 H 524.307 -0.165129 -3.12164 0
M  V30 5613 H 523.527 -2.64301 -2.9247 0
M  V30 5614 H 524.815 -3.05015 -4.07239 0
M  V30 5615 H 524.213 -0.287529 -5.64969 0
M  V30 5616 H 522.77 -0.714557 -6.47871 0
M  V30 5617 N 526.204 0.969867 -1.24223 0
M  V30 5618 C 527.152 2.08535 -1.03034 0
M  V30 5619 C 528.146 1.69366 0.0340379 0
M  V30 5620 O 529.352 1.79597 -0.12034 0
M  V30 5621 H 525.727 0.682313 -0.316154 0
M  V30 5622 H 527.698 2.23569 -1.97635 0
M  V30 5623 C 526.447 3.4158 -0.649509 0
M  V30 5624 H 525.77 3.72177 -1.46028 0
M  V30 5625 H 527.21 4.20536 -0.540841 0
M  V30 5626 C 525.669 3.30703 0.643194 0
M  V30 5627 O 526.199 3.64443 1.68951 0
M  V30 5628 N 524.405 2.83841 0.623095 0
M  V30 5629 H 523.952 2.56583 -0.228719 0
M  V30 5630 H 523.91 2.76946 1.48823 0
M  V30 5631 N 527.682 1.05563 1.17022 0
M  V30 5632 C 529.098 0.777684 1.39371 0
M  V30 5633 C 529.298 -0.626269 1.91521 0
M  V30 5634 O 528.354 -1.38806 2.10924 0
M  V30 5635 C 529.667 1.83642 2.3811 0
M  V30 5636 C 531.215 1.85907 2.51809 0
M  V30 5637 C 531.69 2.90813 3.53824 0
M  V30 5638 N 533.181 2.898 3.61345 0
M  V30 5639 C 533.916 3.6762 4.40049 0
M  V30 5640 N 533.412 4.55237 5.22237 0
M  V30 5641 N 535.205 3.56044 4.34959 0
M  V30 5642 H 527.356 1.9614 0.815047 0
M  V30 5643 H 529.619 0.849527 0.420722 0
M  V30 5644 H 529.325 2.84425 2.06871 0
M  V30 5645 H 529.199 1.6812 3.37662 0
M  V30 5646 H 531.586 0.857865 2.82356 0
M  V30 5647 H 531.667 2.05506 1.52318 0
M  V30 5648 H 531.311 3.91122 3.24015 0
M  V30 5649 H 531.241 2.68465 4.53028 0
M  V30 5650 H 533.732 2.26274 3.02669 0
M  V30 5651 H 534.045 5.11291 5.79484 0
M  V30 5652 H 532.39 4.59296 5.21605 0
M  V30 5653 H 535.581 2.86986 3.69806 0
M  V30 5654 H 535.754 4.16938 4.96051 0
M  V30 5655 N 529.16 -1.33526 0.837174 0
M  V30 5656 C 530.408 -1.97446 0.431211 0
M  V30 5657 C 530.729 -1.6665 -1.01255 0
M  V30 5658 O 529.999 -0.964559 -1.70508 0
M  V30 5659 H 528.579 -0.73043 0.156463 0
M  V30 5660 H 531.241 -1.62918 1.06976 0
M  V30 5661 H 530.337 -3.07001 0.561877 0
M  V30 5662 N 530.638 -0.59345 -1.46 0
M  V30 5663 C 531.878 -0.0859747 -2.04219 0
M  V30 5664 C 532.242 1.25432 -1.45364 0
M  V30 5665 O 533.443 1.85168 -1.9485 0
M  V30 5666 C 531.714 -0.0324314 -3.57385 0
M  V30 5667 S 533.273 0.415908 -4.36824 0
M  V30 5668 H 530.091 -0.0426872 -0.709717 0
M  V30 5669 H 532.693 -0.788369 -1.78899 0
M  V30 5670 H 531.397 -1.01166 -3.97735 0
M  V30 5671 H 530.928 0.6924 -3.87259 0
M  V30 5672 H 532.943 1.66844 -4.67309 0
M  V30 5673 N 532.116 1.54067 -0.331816 0
M  V30 5674 C 533.079 2.23275 0.517768 0
M  V30 5675 C 534.079 1.22897 1.03697 0
M  V30 5676 O 535.269 1.47419 0.928084 0
M  V30 5677 C 532.401 2.94326 1.72004 0
M  V30 5678 H 533.594 2.99773 -0.0873507 0
M  V30 5679 H 531.147 1.56079 -0.0830042 0
M  V30 5680 H 531.882 2.21986 2.36417 0
M  V30 5681 H 531.667 3.67941 1.35507 0
M  V30 5682 H 533.157 3.47031 2.32291 0
M  V30 5683 N 533.594 0.0601682 1.57485 0
M  V30 5684 C 534.842 -0.610386 1.92662 0
M  V30 5685 C 535.163 -1.70849 0.939981 0
M  V30 5686 O 534.433 -1.95895 -0.0137455 0
M  V30 5687 H 533.013 -0.228457 0.711208 0
M  V30 5688 H 535.675 0.115288 1.94559 0
M  V30 5689 H 534.771 -1.0432 2.94149 0
M  V30 5690 N 535.072 -1.5615 -0.213296 0
M  V30 5691 C 535.982 -1.96265 -1.28519 0
M  V30 5692 C 536.998 -0.86765 -1.50824 0
M  V30 5693 O 538.174 -1.17191 -1.63793 0
M  V30 5694 C 535.239 -2.27836 -2.61327 0
M  V30 5695 C 534.3 -3.50949 -2.47252 0
M  V30 5696 C 533.533 -3.81004 -3.73727 0
M  V30 5697 O 533.756 -3.12612 -4.77106 0
M  V30 5698 O 532.69 -4.74477 -3.70344 0
M  V30 5699 H 536.516 -2.87631 -0.974795 0
M  V30 5700 H 534.101 -1.43467 -0.416832 0
M  V30 5701 H 535.983 -2.49299 -3.39747 0
M  V30 5702 H 534.658 -1.39643 -2.9203 0
M  V30 5703 H 533.565 -3.34754 -1.67004 0
M  V30 5704 H 534.898 -4.39551 -2.21486 0
M  V30 5705 N 536.55 0.480323 -1.50102 0
M  V30 5706 C 537.798 1.23063 -1.60312 0
M  V30 5707 C 538.119 1.92659 -0.301226 0
M  V30 5708 O 537.389 1.83691 0.680753 0
M  V30 5709 H 535.969 0.457231 -0.590719 0
M  V30 5710 H 538.631 0.554893 -1.86834 0
M  V30 5711 H 537.727 1.9835 -2.40964 0
M  V30 5712 N 538.028 1.39524 0.732853 0
M  V30 5713 C 538.96 1.34318 1.85718 0
M  V30 5714 C 539.973 0.251576 1.60844 0
M  V30 5715 O 541.162 0.510685 1.71039 0
M  V30 5716 C 538.262 1.06334 3.21786 0
M  V30 5717 C 537.435 2.26813 3.73998 0
M  V30 5718 C 536.494 1.95253 4.88634 0
M  V30 5719 O 535.52 2.67957 5.02183 0
M  V30 5720 N 536.722 0.919984 5.73164 0
M  V30 5721 H 539.487 2.3121 1.90688 0
M  V30 5722 H 537.048 1.33654 0.91368 0
M  V30 5723 H 539.04 0.832363 3.96048 0
M  V30 5724 H 537.61 0.181682 3.12072 0
M  V30 5725 H 536.83 2.65849 2.91064 0
M  V30 5726 H 538.118 3.0717 4.05616 0
M  V30 5727 H 537.516 0.317487 5.64808 0
M  V30 5728 H 536.073 0.748905 6.47483 0
M  V30 5729 N 539.506 -0.963266 1.24736 0
M  V30 5730 C 540.453 -2.05857 1.04363 0
M  V30 5731 C 541.423 -1.6604 -0.0444951 0
M  V30 5732 O 542.608 -1.90477 0.110999 0
M  V30 5733 C 539.748 -3.38745 0.659235 0
M  V30 5734 C 538.861 -3.9173 1.82131 0
M  V30 5735 C 537.996 -5.12906 1.38208 0
M  V30 5736 C 537.035 -5.58098 2.51382 0
M  V30 5737 N 536.172 -6.7049 2.08295 0
M  V30 5738 H 541.012 -2.22616 1.98107 0
M  V30 5739 H 538.549 -1.09103 0.986661 0
M  V30 5740 H 540.507 -4.15107 0.417371 0
M  V30 5741 H 539.137 -3.21898 -0.241201 0
M  V30 5742 H 538.189 -3.11966 2.17672 0
M  V30 5743 H 539.501 -4.21225 2.67153 0
M  V30 5744 H 538.655 -5.96657 1.09935 0
M  V30 5745 H 537.394 -4.85105 0.502456 0
M  V30 5746 H 536.399 -4.72917 2.80409 0
M  V30 5747 H 537.624 -5.87911 3.39909 0
M  V30 5748 H 535.57 -6.44416 1.22737 0
M  V30 5749 H 535.487 -6.99458 2.86869 0
M  V30 5750 H 536.755 -7.57672 1.83175 0
M  V30 5751 N 540.985 -1.06182 -1.16461 0
M  V30 5752 C 541.948 -0.675723 -2.19013 0
M  V30 5753 C 542.948 0.277963 -1.58379 0
M  V30 5754 O 544.138 0.0604962 -1.74095 0
M  V30 5755 C 541.27 0.00591459 -3.40899 0
M  V30 5756 H 542.463 -1.58353 -2.54685 0
M  V30 5757 H 540.016 -0.856908 -1.30716 0
M  V30 5758 H 540.751 0.92652 -3.10783 0
M  V30 5759 H 540.536 -0.67984 -3.86161 0
M  V30 5760 H 542.026 0.26181 -4.16778 0
M  V30 5761 N 542.463 1.3308 -0.844243 0
M  V30 5762 C 543.426 2.27403 -0.286485 0
M  V30 5763 C 544.426 1.51179 0.547872 0
M  V30 5764 O 545.616 1.70421 0.360886 0
M  V30 5765 C 542.748 3.35653 0.595813 0
M  V30 5766 H 543.941 2.78248 -1.11885 0
M  V30 5767 H 541.494 1.43574 -0.617749 0
M  V30 5768 H 542.229 2.90058 1.4504 0
M  V30 5769 H 542.014 3.921 -0.00125994 0
M  V30 5770 H 543.504 4.05958 0.979168 0
M  V30 5771 N 543.941 0.601185 1.45683 0
M  V30 5772 C 544.889 -0.133955 2.32214 0
M  V30 5773 C 545.883 -0.866034 1.45589 0
M  V30 5774 O 547.089 -0.782326 1.6211 0
M  V30 5775 H 543.464 -0.0620613 0.749435 0
M  V30 5776 H 545.435 0.614389 2.92007 0
M  V30 5777 C 544.184 -1.12216 3.29094 0
M  V30 5778 H 543.507 -0.568273 3.95741 0
M  V30 5779 H 544.947 -1.60659 3.92383 0
M  V30 5780 C 543.406 -2.19251 2.55794 0
M  V30 5781 O 543.936 -3.26894 2.33459 0
M  V30 5782 N 542.142 -1.9436 2.16039 0
M  V30 5783 H 541.689 -1.06829 2.34404 0
M  V30 5784 H 541.647 -2.66181 1.67318 0
M  V30 5785 N 545.419 -1.53889 0.339982 0
M  V30 5786 C 546.382 -2.23547 -0.50592 0
M  V30 5787 C 547.382 -1.23445 -1.03044 0
M  V30 5788 O 548.572 -1.47909 -0.920253 0
M  V30 5789 C 545.704 -2.95234 -1.7044 0
M  V30 5790 H 546.897 -2.99722 0.103247 0
M  V30 5791 H 544.45 -1.56033 0.0912804 0
M  V30 5792 H 545.185 -2.23236 -2.35236 0
M  V30 5793 H 544.97 -3.68654 -1.33553 0
M  V30 5794 H 546.46 -3.48258 -2.30447 0
M  V30 5795 N 546.897 -0.0685191 -1.57451 0
M  V30 5796 C 548.143 0.602239 -1.93652 0
M  V30 5797 C 548.476 1.6946 -0.948526 0
M  V30 5798 O 547.751 1.94487 0.022782 0
M  V30 5799 C 548.034 1.18223 -3.4014 0
M  V30 5800 C 547.887 0.0967431 -4.49696 0
M  V30 5801 C 549.206 2.08872 -3.87377 0
M  V30 5802 H 546.325 0.217453 -0.70419 0
M  V30 5803 H 548.967 -0.133821 -1.89528 0
M  V30 5804 H 547.117 1.80953 -3.43785 0
M  V30 5805 H 548.789 -0.536155 -4.58174 0
M  V30 5806 H 547.032 -0.573063 -4.29998 0
M  V30 5807 H 547.703 0.542894 -5.49324 0
M  V30 5808 H 550.179 1.56081 -3.85717 0
M  V30 5809 H 549.055 2.46389 -4.90493 0
M  V30 5810 H 549.316 2.99572 -3.25129 0
M  V30 5811 N 548.375 1.56261 0.205012 0
M  V30 5812 C 549.338 1.92908 1.23771 0
M  V30 5813 C 550.338 0.809208 1.38955 0
M  V30 5814 O 551.528 1.07676 1.36936 0
M  V30 5815 C 548.66 2.19442 2.60879 0
M  V30 5816 H 549.853 2.85287 0.924728 0
M  V30 5817 H 547.406 1.49798 0.446125 0
M  V30 5818 H 548.141 1.29668 2.97248 0
M  V30 5819 H 547.926 3.0104 2.51232 0
M  V30 5820 H 549.416 2.48833 3.35368 0
M  V30 5821 N 549.853 -0.472356 1.50355 0
M  V30 5822 C 550.783 -1.57859 1.72055 0
M  V30 5823 C 551.764 -1.60283 0.569505 0
M  V30 5824 O 552.949 -1.7657 0.808503 0
M  V30 5825 C 550.079 -2.96191 1.81351 0
M  V30 5826 C 549.033 -3.08633 2.96529 0
M  V30 5827 C 548.359 -4.486 2.90968 0
M  V30 5828 C 549.659 -2.85969 4.37057 0
M  V30 5829 H 551.353 -1.39953 2.64676 0
M  V30 5830 H 548.899 -0.671846 1.27367 0
M  V30 5831 H 550.852 -3.73507 1.95117 0
M  V30 5832 H 549.576 -3.15251 0.853502 0
M  V30 5833 H 548.235 -2.33749 2.82413 0
M  V30 5834 H 547.883 -4.64577 1.92815 0
M  V30 5835 H 547.583 -4.57861 3.68289 0
M  V30 5836 H 549.107 -5.27938 3.0678 0
M  V30 5837 H 550.521 -3.53036 4.51706 0
M  V30 5838 H 548.918 -3.06677 5.15819 0
M  V30 5839 H 549.988 -1.81838 4.49514 0
M  V30 5840 N 551.331 -1.39911 -0.725443 0
M  V30 5841 C 552.261 -1.42138 -1.85254 0
M  V30 5842 C 553.242 -0.283513 -1.67721 0
M  V30 5843 O 554.427 -0.490717 -1.87898 0
M  V30 5844 C 551.557 -1.27354 -3.23107 0
M  V30 5845 C 550.511 -2.3864 -3.55296 0
M  V30 5846 C 549.837 -2.08939 -4.92188 0
M  V30 5847 C 551.137 -3.8097 -3.57295 0
M  V30 5848 H 552.831 -2.36461 -1.83648 0
M  V30 5849 H 550.377 -1.13817 -0.882138 0
M  V30 5850 H 552.33 -1.2753 -4.01639 0
M  V30 5851 H 551.054 -0.295025 -3.25265 0
M  V30 5852 H 549.713 -2.37696 -2.79099 0
M  V30 5853 H 549.361 -1.09502 -4.90936 0
M  V30 5854 H 549.061 -2.83491 -5.14691 0
M  V30 5855 H 550.585 -2.10781 -5.73065 0
M  V30 5856 H 551.999 -3.8379 -4.25885 0
M  V30 5857 H 550.396 -4.5496 -3.9132 0
M  V30 5858 H 551.466 -4.11261 -2.5689 0
M  V30 5859 N 552.809 0.956637 -1.25245 0
M  V30 5860 C 553.772 2.03457 -1.05537 0
M  V30 5861 C 554.772 1.60798 -0.00886317 0
M  V30 5862 O 555.962 1.72384 -0.250865 0
M  V30 5863 C 553.094 3.35543 -0.601965 0
M  V30 5864 H 554.287 2.22372 -2.01223 0
M  V30 5865 H 551.84 1.13344 -1.07623 0
M  V30 5866 H 552.575 3.22323 0.357584 0
M  V30 5867 H 552.36 3.67854 -1.35743 0
M  V30 5868 H 553.85 4.14769 -0.485454 0
M  V30 5869 N 554.287 1.06798 1.15896 0
M  V30 5870 C 555.512 0.808739 1.90982 0
M  V30 5871 C 555.937 -0.6316 1.77179 0
M  V30 5872 O 555.295 -1.4407 1.10061 0
M  V30 5873 C 555.343 1.21468 3.39526 0
M  V30 5874 O 554.447 0.356562 4.10856 0
M  V30 5875 H 553.788 0.29512 0.594811 0
M  V30 5876 H 556.318 1.42513 1.46804 0
M  V30 5877 H 556.328 1.18844 3.90308 0
M  V30 5878 H 555.003 2.26379 3.48891 0
M  V30 5879 H 553.58 0.444808 3.70238 0
M  V30 5880 N 555.766 -1.3263 0.851289 0
M  V30 5881 C 556.994 -2.01563 0.466899 0
M  V30 5882 C 557.409 -1.63996 -0.935447 0
M  V30 5883 O 556.766 -0.85957 -1.6099 0
M  V30 5884 C 556.817 -3.56613 0.592433 0
M  V30 5885 O 556.538 -3.92828 1.93954 0
M  V30 5886 C 558.039 -4.42818 0.206612 0
M  V30 5887 H 555.259 -0.645307 0.183902 0
M  V30 5888 H 557.803 -1.69285 1.1473 0
M  V30 5889 H 555.958 -3.87379 -0.0401936 0
M  V30 5890 H 556.372 -4.87545 1.9339 0
M  V30 5891 H 557.846 -5.50918 0.345462 0
M  V30 5892 H 558.323 -4.30844 -0.85264 0
M  V30 5893 H 558.929 -4.17434 0.814176 0
M  V30 5894 N 557.244 -0.608902 -1.45362 0
M  V30 5895 C 558.192 0.121639 -2.32282 0
M  V30 5896 C 559.186 0.858301 -1.46046 0
M  V30 5897 O 560.392 0.773718 -1.62523 0
M  V30 5898 H 556.767 0.058086 -0.749753 0
M  V30 5899 H 558.738 -0.629866 -2.91677 0
M  V30 5900 C 557.487 1.1047 -3.29684 0
M  V30 5901 H 556.81 0.547278 -3.96036 0
M  V30 5902 H 558.25 1.58576 -3.9323 0
M  V30 5903 C 556.709 2.17891 -2.56954 0
M  V30 5904 O 557.239 3.25652 -2.35189 0
M  V30 5905 N 555.445 1.93211 -2.17066 0
M  V30 5906 H 554.992 1.05584 -2.34967 0
M  V30 5907 H 554.95 2.6529 -1.68727 0
M  V30 5908 N 558.722 1.53707 -0.348139 0
M  V30 5909 C 559.685 2.23812 0.494058 0
M  V30 5910 C 560.685 1.23989 1.02388 0
M  V30 5911 O 561.875 1.48395 0.912396 0
M  V30 5912 C 559.007 2.96133 1.68872 0
M  V30 5913 H 560.2 2.99663 -0.119141 0
M  V30 5914 H 557.753 1.55983 -0.0995539 0
M  V30 5915 H 558.488 2.24481 2.34049 0
M  V30 5916 H 558.273 3.69357 1.31596 0
M  V30 5917 H 559.763 3.49475 2.28597 0
M  V30 5918 N 560.2 0.0768682 1.57412 0
M  V30 5919 C 561.448 -0.589918 1.93299 0
M  V30 5920 C 561.769 -1.69842 0.958049 0
M  V30 5921 O 561.039 -1.95899 0.00703261 0
M  V30 5922 H 559.619 -0.220901 0.713591 0
M  V30 5923 H 562.281 0.135917 1.94425 0
M  V30 5924 H 561.377 -1.01195 2.95239 0
M  V30 5925 N 561.678 -1.56367 -0.196722 0
M  V30 5926 C 562.61 -1.90941 -1.26784 0
M  V30 5927 C 563.623 -0.799928 -1.41792 0
M  V30 5928 O 564.812 -1.07833 -1.42247 0
M  V30 5929 C 561.912 -2.12477 -2.6402 0
M  V30 5930 C 561.085 -3.43616 -2.70641 0
M  V30 5931 C 560.144 -3.54284 -3.89062 0
M  V30 5932 O 559.17 -4.2712 -3.76241 0
M  V30 5933 N 560.372 -2.87252 -5.04447 0
M  V30 5934 H 563.137 -2.83417 -0.974417 0
M  V30 5935 H 560.698 -1.57215 -0.386649 0
M  V30 5936 H 562.69 -2.16904 -3.41665 0
M  V30 5937 H 561.26 -1.26508 -2.85857 0
M  V30 5938 H 560.48 -3.51072 -1.79283 0
M  V30 5939 H 561.768 -4.29958 -2.72054 0
M  V30 5940 H 561.166 -2.27901 -5.17762 0
M  V30 5941 H 559.723 -2.97308 -5.80044 0
M  V30 5942 N 563.156 0.464375 -1.50603 0
M  V30 5943 C 564.119 1.54393 -1.69397 0
M  V30 5944 C 565.119 1.50566 -0.564504 0
M  V30 5945 O 566.309 1.53066 -0.831645 0
M  V30 5946 C 563.441 2.9401 -1.72543 0
M  V30 5947 H 564.634 1.39044 -2.65719 0
M  V30 5948 H 562.187 0.69122 -1.40185 0
M  V30 5949 H 562.922 3.14795 -0.77938 0
M  V30 5950 H 562.707 2.98195 -2.54602 0
M  V30 5951 H 564.197 3.72375 -1.89015 0
M  V30 5952 N 564.634 1.40294 0.718013 0
M  V30 5953 C 565.582 1.40536 1.85344 0
M  V30 5954 C 566.576 0.286192 1.66965 0
M  V30 5955 O 567.782 0.457105 1.74099 0
M  V30 5956 H 564.157 0.439236 0.61039 0
M  V30 5957 H 566.128 2.36275 1.82255 0
M  V30 5958 C 564.877 1.28245 3.23185 0
M  V30 5959 H 564.2 2.1364 3.37932 0
M  V30 5960 H 565.64 1.32474 4.02774 0
M  V30 5961 C 564.099 -0.0075503 3.36899 0
M  V30 5962 O 564.629 -0.971391 3.89778 0
M  V30 5963 N 562.835 -0.0762479 2.905 0
M  V30 5964 H 562.382 0.708819 2.47656 0
M  V30 5965 H 562.34 -0.938846 3.00055 0
M  V30 5966 N 566.112 -0.949982 1.2575 0
M  V30 5967 C 567.022 -2.08109 1.08295 0
M  V30 5968 C 568.038 -1.7399 0.0188181 0
M  V30 5969 O 569.214 -2.00187 0.220724 0
M  V30 5970 C 566.279 -3.39383 0.708534 0
M  V30 5971 C 565.34 -3.8734 1.85111 0
M  V30 5972 C 564.573 -5.12349 1.49447 0
M  V30 5973 O 564.796 -5.6905 0.392212 0
M  V30 5974 O 563.73 -5.5513 2.32624 0
M  V30 5975 H 567.556 -2.25738 2.03165 0
M  V30 5976 H 565.141 -1.06545 1.04731 0
M  V30 5977 H 567.023 -4.18277 0.512061 0
M  V30 5978 H 565.698 -3.23013 -0.210854 0
M  V30 5979 H 564.605 -3.09429 2.10248 0
M  V30 5980 H 565.938 -4.08216 2.74991 0
M  V30 5981 N 567.59 -1.07411 -1.15328 0
M  V30 5982 C 568.837 -0.797649 -1.86128 0
M  V30 5983 C 569.165 0.676298 -1.82364 0
M  V30 5984 O 568.42 1.51223 -1.24218 0
M  V30 5985 C 568.719 -1.25191 -3.34757 0
M  V30 5986 C 568.385 -2.73191 -3.58716 0
M  V30 5987 C 567.047 -3.13616 -3.64964 0
M  V30 5988 C 569.399 -3.68718 -3.6837 0
M  V30 5989 C 566.727 -4.48383 -3.78377 0
M  V30 5990 C 569.079 -5.03248 -3.83306 0
M  V30 5991 C 567.743 -5.43293 -3.878 0
M  V30 5992 H 567.013 -0.29188 -0.681092 0
M  V30 5993 H 569.66 -1.34524 -1.36292 0
M  V30 5994 H 567.965 -0.623712 -3.86804 0
M  V30 5995 H 569.662 -1.01489 -3.87945 0
M  V30 5996 H 566.252 -2.40898 -3.54494 0
M  V30 5997 H 570.436 -3.38614 -3.62842 0
M  V30 5998 H 565.692 -4.78877 -3.80114 0
M  V30 5999 H 569.866 -5.77142 -3.89718 0
M  V30 6000 H 567.493 -6.47721 -3.97946 0
M  V30 6001 N 569.068 1.32177 -0.85831 0
M  V30 6002 C 570.315 1.97125 -0.463484 0
M  V30 6003 C 570.643 1.67907 0.981705 0
M  V30 6004 O 569.898 0.961717 1.70439 0
M  V30 6005 C 570.197 3.51372 -0.653658 0
M  V30 6006 C 569.863 4.00584 -2.06987 0
M  V30 6007 C 568.525 4.13733 -2.4572 0
M  V30 6008 C 570.877 4.26624 -2.99402 0
M  V30 6009 C 568.205 4.50268 -3.76132 0
M  V30 6010 C 570.557 4.64618 -4.29316 0
M  V30 6011 C 569.221 4.75975 -4.67979 0
M  V30 6012 H 568.491 0.72133 -0.169601 0
M  V30 6013 H 571.138 1.57517 -1.08907 0
M  V30 6014 H 569.443 3.91761 0.0551328 0
M  V30 6015 H 571.14 3.99655 -0.328163 0
M  V30 6016 H 567.73 3.90837 -1.75911 0
M  V30 6017 H 571.914 4.1597 -2.70708 0
M  V30 6018 H 567.17 4.57256 -4.05865 0
M  V30 6019 H 571.344 4.83722 -5.00985 0
M  V30 6020 H 568.971 5.04041 -5.69076 0
M  V30 6021 N 570.547 0.616602 1.45037 0
M  V30 6022 C 571.495 -0.109318 2.32343 0
M  V30 6023 C 572.489 -0.850543 1.465 0
M  V30 6024 O 573.695 -0.765088 1.62931 0
M  V30 6025 H 570.07 -0.0541091 0.750051 0
M  V30 6026 H 572.041 0.645326 2.91338 0
M  V30 6027 C 570.79 -1.0872 3.30266 0
M  V30 6028 H 570.113 -0.526267 3.96321 0
M  V30 6029 H 571.553 -1.56489 3.94065 0
M  V30 6030 C 570.012 -2.16525 2.58105 0
M  V30 6031 O 570.542 -3.244 2.36913 0
M  V30 6032 N 568.748 -1.92057 2.18088 0
M  V30 6033 H 568.295 -1.04337 2.35524 0
M  V30 6034 H 568.253 -2.64391 1.70131 0
M  V30 6035 N 572.025 -1.5352 0.356285 0
M  V30 6036 C 572.935 -2.29151 -0.502712 0
M  V30 6037 C 573.951 -1.34753 -1.1008 0
M  V30 6038 O 575.127 -1.67803 -1.11374 0
M  V30 6039 C 572.192 -3.05911 -1.63154 0
M  V30 6040 C 571.253 -4.15958 -1.06194 0
M  V30 6041 C 570.486 -4.8905 -2.13696 0
M  V30 6042 O 570.709 -4.61919 -3.34645 0
M  V30 6043 O 569.643 -5.75202 -1.77275 0
M  V30 6044 H 573.469 -3.03492 0.112466 0
M  V30 6045 H 571.054 -1.4891 0.120942 0
M  V30 6046 H 572.936 -3.53874 -2.28804 0
M  V30 6047 H 571.611 -2.34415 -2.23229 0
M  V30 6048 H 570.518 -3.7227 -0.369603 0
M  V30 6049 H 571.851 -4.89593 -0.505872 0
M  V30 6050 N 573.503 -0.0852151 -1.57369 0
M  V30 6051 C 574.75 0.580806 -1.93992 0
M  V30 6052 C 575.078 1.68801 -0.966252 0
M  V30 6053 O 574.333 1.95694 0.0158649 0
M  V30 6054 C 574.632 1.18482 -3.3719 0
M  V30 6055 C 574.298 0.2024 -4.50446 0
M  V30 6056 C 572.96 -0.0678318 -4.81152 0
M  V30 6057 C 575.312 -0.46895 -5.19086 0
M  V30 6058 C 572.64 -1.01627 -5.77831 0
M  V30 6059 C 574.992 -1.4058 -6.16782 0
M  V30 6060 C 573.656 -1.68436 -6.45899 0
M  V30 6061 H 572.926 0.212532 -0.709867 0
M  V30 6062 H 575.573 -0.158947 -1.90839 0
M  V30 6063 H 573.878 2.0006 -3.36873 0
M  V30 6064 H 575.575 1.70767 -3.62822 0
M  V30 6065 H 572.165 0.423208 -4.26505 0
M  V30 6066 H 576.349 -0.273307 -4.95547 0
M  V30 6067 H 571.605 -1.2392 -5.9871 0
M  V30 6068 H 575.779 -1.93188 -6.69068 0
M  V30 6069 H 573.406 -2.42088 -7.20623 0
M  V30 6070 N 574.981 1.5647 0.188427 0
M  V30 6071 C 576.227 1.82181 0.904534 0
M  V30 6072 C 576.582 0.663258 1.80606 0
M  V30 6073 O 575.875 -0.341231 1.88537 0
M  V30 6074 C 576.069 3.11596 1.7505 0
M  V30 6075 C 575.898 4.39928 0.932372 0
M  V30 6076 C 574.668 5.01554 0.61417 0
M  V30 6077 C 576.866 5.13527 0.281936 0
M  V30 6078 N 574.848 6.13499 -0.221896 0
M  V30 6079 C 576.219 6.18603 -0.416037 0
M  V30 6080 C 578.274 4.97505 0.198345 0
M  V30 6081 C 576.977 7.09394 -1.18965 0
M  V30 6082 C 579.003 5.88725 -0.561887 0
M  V30 6083 C 578.365 6.93251 -1.24828 0
M  V30 6084 H 574.464 0.717858 0.310168 0
M  V30 6085 H 577.048 1.93932 0.172757 0
M  V30 6086 H 575.219 3.01068 2.45383 0
M  V30 6087 H 576.951 3.25369 2.4066 0
M  V30 6088 H 573.706 4.64174 0.940187 0
M  V30 6089 H 574.13 6.74065 -0.629735 0
M  V30 6090 H 578.772 4.16716 0.714665 0
M  V30 6091 H 576.49 7.8964 -1.71737 0
M  V30 6092 H 580.076 5.78401 -0.628009 0
M  V30 6093 H 578.956 7.62618 -1.82712 0
M  V30 6094 N 576.459 -0.456382 1.50847 0
M  V30 6095 C 577.684 -1.2349 1.66628 0
M  V30 6096 C 578.109 -1.84715 0.355254 0
M  V30 6097 O 577.467 -1.67961 -0.682559 0
M  V30 6098 C 577.515 -2.30865 2.77009 0
M  V30 6099 O 576.619 -3.35882 2.39285 0
M  V30 6100 H 575.96 -0.36266 0.556214 0
M  V30 6101 H 578.49 -0.541374 1.97308 0
M  V30 6102 H 578.5 -2.75949 3.00526 0
M  V30 6103 H 577.175 -1.85677 3.72152 0
M  V30 6104 H 575.752 -2.96406 2.26269 0
M  V30 6105 N 577.937 -1.40673 -0.710563 0
M  V30 6106 C 578.867 -1.44095 -1.83736 0
M  V30 6107 C 579.848 -0.301286 -1.67411 0
M  V30 6108 O 581.033 -0.510618 -1.87367 0
M  V30 6109 C 578.163 -1.30773 -3.21738 0
M  V30 6110 C 577.117 -2.42395 -3.52745 0
M  V30 6111 C 576.443 -2.14147 -4.89944 0
M  V30 6112 C 577.743 -3.84738 -3.53234 0
M  V30 6113 H 579.437 -2.38396 -1.81129 0
M  V30 6114 H 576.983 -1.14746 -0.870017 0
M  V30 6115 H 578.936 -1.31783 -4.00264 0
M  V30 6116 H 577.66 -0.329507 -3.24934 0
M  V30 6117 H 576.319 -2.40643 -2.76562 0
M  V30 6118 H 575.967 -1.14703 -4.89747 0
M  V30 6119 H 575.667 -2.88934 -5.11655 0
M  V30 6120 H 577.191 -2.16848 -5.70797 0
M  V30 6121 H 578.605 -3.88286 -4.2179 0
M  V30 6122 H 577.002 -4.59085 -3.86473 0
M  V30 6123 H 578.072 -4.13962 -2.52514 0
M  V30 6124 N 579.415 0.9433 -1.26252 0
M  V30 6125 C 580.64 1.72898 -1.14547 0
M  V30 6126 C 581.065 1.85761 0.295743 0
M  V30 6127 O 580.423 1.3463 1.21427 0
M  V30 6128 C 580.471 3.11471 -1.8171 0
M  V30 6129 O 579.575 3.97336 -1.10445 0
M  V30 6130 H 578.916 0.530555 -0.399259 0
M  V30 6131 H 581.446 1.18159 -1.67032 0
M  V30 6132 H 581.456 3.61872 -1.88449 0
M  V30 6133 H 580.131 3.01425 -2.86558 0
M  V30 6134 H 578.708 3.55788 -1.11666 0
M  V30 6135 N 580.893 1.08022 1.14757 0
M  V30 6136 C 581.825 0.664566 2.19354 0
M  V30 6137 C 582.838 -0.286374 1.60261 0
M  V30 6138 O 584.027 -0.0746362 1.78344 0
M  V30 6139 C 581.127 -0.0434634 3.38872 0
M  V30 6140 C 580.3 0.925381 4.27499 0
M  V30 6141 C 579.359 0.253398 5.2559 0
M  V30 6142 O 578.385 0.896581 5.62094 0
M  V30 6143 N 579.587 -0.998263 5.71852 0
M  V30 6144 H 582.352 1.56438 2.55631 0
M  V30 6145 H 579.913 0.965788 1.29939 0
M  V30 6146 H 581.905 -0.503857 4.01551 0
M  V30 6147 H 580.475 -0.845321 3.00954 0
M  V30 6148 H 579.695 1.56472 3.61815 0
M  V30 6149 H 580.983 1.58203 4.8358 0
M  V30 6150 H 580.381 -1.54063 5.44317 0
M  V30 6151 H 578.938 -1.40222 6.36538 0
M  V30 6152 N 582.371 -1.3172 0.865308 0
M  V30 6153 C 583.782 -1.79104 0.527126 0
M  V30 6154 C 584.133 -1.7135 -0.955695 0
M  V30 6155 O 583.258 -1.27845 -1.74598 0
M  V30 6156 C 583.853 -3.25207 0.950061 0
M  V30 6157 C 582.412 -3.70504 0.663611 0
M  V30 6158 C 581.559 -2.52605 1.14395 0
M  V30 6159 H 584.51 -1.18868 1.05148 0
M  V30 6160 H 584.531 -3.79535 0.270805 0
M  V30 6161 H 584.043 -3.30818 2.02931 0
M  V30 6162 H 582.144 -3.70398 -0.404474 0
M  V30 6163 H 582.257 -4.62845 1.23737 0
M  V30 6164 H 580.621 -2.4838 0.563859 0
M  V30 6165 H 581.404 -2.60964 2.23053 0
M  V30 6166 N 583.85 -0.624285 -1.44708 0
M  V30 6167 C 585.077 -0.132919 -2.06473 0
M  V30 6168 C 585.493 1.18967 -1.46602 0
M  V30 6169 O 584.85 1.72824 -0.586341 0
M  V30 6170 C 584.901 -0.00465418 -3.615 0
M  V30 6171 O 584.622 -1.27494 -4.19138 0
M  V30 6172 C 586.123 0.516213 -4.40284 0
M  V30 6173 H 583.343 -0.0765201 -0.666623 0
M  V30 6174 H 585.887 -0.856751 -1.85688 0
M  V30 6175 H 584.042 0.669583 -3.8157 0
M  V30 6176 H 584.456 -1.11536 -5.12504 0
M  V30 6177 H 585.93 0.554994 -5.49203 0
M  V30 6178 H 586.407 1.5419 -4.11245 0
M  V30 6179 H 587.013 -0.124542 -4.25118 0
M  V30 6180 N 585.328 1.53329 -0.364422 0
M  V30 6181 C 586.576 2.00842 0.225189 0
M  V30 6182 C 586.897 1.25345 1.49378 0
M  V30 6183 O 586.167 0.366396 1.92443 0
M  V30 6184 H 584.747 0.742009 0.0862027 0
M  V30 6185 H 587.409 1.8863 -0.490389 0
M  V30 6186 H 586.505 3.08795 0.452987 0
M  V30 6187 N 586.806 0.0935595 1.57322 0
M  V30 6188 C 588.083 -0.612692 1.85756 0
M  V30 6189 C 588.463 -1.86439 0.99013 0
M  V30 6190 O 587.811 -2.28416 0.0621362 0
M  V30 6191 C 588.021 -0.929547 3.36393 0
M  V30 6192 C 589.369 -1.29366 4.04413 0
M  V30 6193 O 590.393 -1.02061 3.41265 0
M  V30 6194 O 589.252 -1.80498 5.15832 0
M  V30 6195 H 586.346 -0.306444 0.768128 0
M  V30 6196 H 588.892 0.126141 1.69231 0
M  V30 6197 H 587.664 -0.0414766 3.91278 0
M  V30 6198 H 587.287 -1.72441 3.5826 0
M  V30 6199 N 588.284 -1.56567 -0.180126 0
M  V30 6200 C 589.514 -1.85349 -0.912647 0
M  V30 6201 C 589.922 -0.675795 -1.76719 0
M  V30 6202 O 589.265 0.3645 -1.80047 0
M  V30 6203 C 589.327 -3.08431 -1.84691 0
M  V30 6204 C 588.991 -4.41694 -1.17284 0
M  V30 6205 C 589.988 -5.17062 -0.542532 0
M  V30 6206 C 587.673 -4.8843 -1.17223 0
M  V30 6207 C 589.667 -6.37351 0.0793953 0
M  V30 6208 C 587.354 -6.08652 -0.54647 0
M  V30 6209 C 588.352 -6.82955 0.0782458 0
M  V30 6210 O 588.04 -8.00897 0.694158 0
M  V30 6211 H 587.772 -0.619286 -0.271036 0
M  V30 6212 H 590.326 -2.0454 -0.187768 0
M  V30 6213 H 588.556 -2.85163 -2.61188 0
M  V30 6214 H 590.245 -3.23733 -2.44851 0
M  V30 6215 H 591.011 -4.8204 -0.535045 0
M  V30 6216 H 586.89 -4.30542 -1.64788 0
M  V30 6217 H 590.434 -6.95287 0.567612 0
M  V30 6218 H 586.331 -6.4314 -0.55151 0
M  V30 6219 H 587.099 -8.16352 0.592537 0
M  V30 6220 N 589.762 0.448376 -1.51087 0
M  V30 6221 C 591.178 0.783984 -1.39017 0
M  V30 6222 C 591.378 1.96087 -0.463904 0
M  V30 6223 O 590.434 2.52357 0.0850534 0
M  V30 6224 C 591.747 1.07471 -2.80839 0
M  V30 6225 C 593.295 1.17981 -2.89913 0
M  V30 6226 C 593.77 1.50354 -4.32617 0
M  V30 6227 N 595.261 1.57301 -4.35673 0
M  V30 6228 C 595.996 1.839 -5.4311 0
M  V30 6229 N 595.492 2.08365 -6.60724 0
M  V30 6230 N 597.285 1.8559 -5.30578 0
M  V30 6231 H 589.436 -0.326881 -2.0987 0
M  V30 6232 H 591.699 -0.0838006 -0.944289 0
M  V30 6233 H 591.405 0.282768 -3.50561 0
M  V30 6234 H 591.279 2.00519 -3.19487 0
M  V30 6235 H 593.666 1.9624 -2.20395 0
M  V30 6236 H 593.747 0.228603 -2.54776 0
M  V30 6237 H 593.391 0.726273 -5.0268 0
M  V30 6238 H 593.321 2.46663 -4.65258 0
M  V30 6239 H 595.812 1.40342 -3.50874 0
M  V30 6240 H 596.125 2.27999 -7.38401 0
M  V30 6241 H 594.47 2.0571 -6.63859 0
M  V30 6242 H 597.661 1.65989 -4.37682 0
M  V30 6243 H 597.834 2.05983 -6.1439 0
M  V30 6244 N 591.24 1.41047 0.703093 0
M  V30 6245 C 592.47 1.43133 1.48985 0
M  V30 6246 C 592.878 0.0328537 1.89171 0
M  V30 6247 O 592.221 -0.956469 1.56835 0
M  V30 6248 C 592.283 2.26991 2.78775 0
M  V30 6249 C 591.947 3.7525 2.60837 0
M  V30 6250 C 592.944 4.67591 2.27276 0
M  V30 6251 C 590.629 4.19208 2.76712 0
M  V30 6252 C 592.623 6.01877 2.09817 0
M  V30 6253 C 590.31 5.53561 2.5887 0
M  V30 6254 C 591.308 6.4471 2.25472 0
M  V30 6255 O 590.996 7.76584 2.07778 0
M  V30 6256 H 590.728 0.489788 0.465922 0
M  V30 6257 H 593.282 1.85886 0.873822 0
M  V30 6258 H 591.512 1.79038 3.42757 0
M  V30 6259 H 593.201 2.20867 3.40547 0
M  V30 6260 H 593.967 4.34923 2.14633 0
M  V30 6261 H 589.846 3.48572 3.01693 0
M  V30 6262 H 593.39 6.72986 1.83671 0
M  V30 6263 H 589.287 5.85811 2.71102 0
M  V30 6264 H 590.055 7.87649 2.22601 0
M  V30 6265 N 592.718 -0.936591 1.26751 0
M  V30 6266 C 593.948 -1.71509 1.15188 0
M  V30 6267 C 594.356 -1.86885 -0.295037 0
M  V30 6268 O 593.699 -1.37915 -1.21347 0
M  V30 6269 C 593.761 -3.13853 1.75318 0
M  V30 6270 C 593.425 -3.21845 3.24445 0
M  V30 6271 C 594.422 -3.04771 4.21201 0
M  V30 6272 C 592.107 -3.45088 3.64992 0
M  V30 6273 C 594.101 -3.10816 5.56482 0
M  V30 6274 C 591.788 -3.50767 5.00405 0
M  V30 6275 C 592.786 -3.33648 5.9596 0
M  V30 6276 O 592.474 -3.39045 7.28906 0
M  V30 6277 H 592.206 -0.543658 0.401761 0
M  V30 6278 H 594.76 -1.18234 1.67958 0
M  V30 6279 H 592.99 -3.6857 1.17016 0
M  V30 6280 H 594.679 -3.73634 1.58596 0
M  V30 6281 H 595.445 -2.86665 3.91214 0
M  V30 6282 H 591.324 -3.57467 2.91098 0
M  V30 6283 H 594.868 -2.97372 6.31043 0
M  V30 6284 H 590.765 -3.68396 5.30052 0
M  V30 6285 H 591.533 -3.55558 7.37238 0
M  V30 6286 N 594.196 -1.08629 -1.14182 0
M  V30 6287 C 595.144 -0.71284 -2.21408 0
M  V30 6288 C 596.138 0.282457 -1.67029 0
M  V30 6289 O 597.344 0.144783 -1.79417 0
M  V30 6290 H 593.719 -0.212497 -0.721352 0
M  V30 6291 H 595.69 -1.6265 -2.50175 0
M  V30 6292 C 594.439 -0.140704 -3.47415 0
M  V30 6293 H 593.762 -0.897739 -3.8959 0
M  V30 6294 H 595.202 0.0827677 -4.23919 0
M  V30 6295 C 593.661 1.122 -3.17668 0
M  V30 6296 O 594.191 2.20652 -3.35672 0
M  V30 6297 N 592.397 1.03328 -2.71609 0
M  V30 6298 H 591.944 0.150666 -2.57159 0
M  V30 6299 H 591.902 1.8789 -2.52081 0
M  V30 6300 N 595.674 1.31259 -0.872281 0
M  V30 6301 C 596.922 1.96233 -0.483409 0
M  V30 6302 C 597.243 1.69276 0.968012 0
M  V30 6303 O 596.513 1.00943 1.67891 0
M  V30 6304 H 595.093 0.726025 -0.175774 0
M  V30 6305 H 597.755 1.60024 -1.11258 0
M  V30 6306 H 596.851 3.05403 -0.643075 0
M  V30 6307 N 597.152 0.631951 1.44375 0
M  V30 6308 C 598.377 0.142146 2.06912 0
M  V30 6309 C 598.802 -1.17456 1.4692 0
M  V30 6310 O 598.16 -1.72074 0.570975 0
M  V30 6311 C 598.208 0.0417952 3.60576 0
M  V30 6312 O 597.312 -1.00194 4.00044 0
M  V30 6313 H 596.653 0.0851491 0.658518 0
M  V30 6314 H 599.183 0.868863 1.85235 0
M  V30 6315 H 599.193 -0.148517 4.0773 0
M  V30 6316 H 597.868 1.0031 4.03622 0
M  V30 6317 H 596.445 -0.786131 3.64519 0
M  V30 6318 N 598.631 -1.53133 0.372548 0
M  V30 6319 C 599.561 -2.28876 -0.462412 0
M  V30 6320 C 600.542 -1.31583 -1.07796 0
M  V30 6321 O 601.727 -1.60461 -1.09389 0
M  V30 6322 C 598.857 -3.08317 -1.59868 0
M  V30 6323 C 597.811 -4.13355 -1.11003 0
M  V30 6324 C 597.137 -4.8092 -2.33708 0
M  V30 6325 C 598.437 -5.21955 -0.18983 0
M  V30 6326 H 600.131 -2.9892 0.169511 0
M  V30 6327 H 597.677 -1.43761 0.0829658 0
M  V30 6328 H 599.63 -3.60055 -2.18949 0
M  V30 6329 H 598.354 -2.35976 -2.25794 0
M  V30 6330 H 597.013 -3.62573 -0.541869 0
M  V30 6331 H 596.661 -4.05144 -2.98106 0
M  V30 6332 H 596.361 -5.51904 -2.01682 0
M  V30 6333 H 597.885 -5.35455 -2.93462 0
M  V30 6334 H 599.299 -5.69153 -0.688319 0
M  V30 6335 H 597.696 -6.00087 0.0398887 0
M  V30 6336 H 598.766 -4.78811 0.766057 0
M  V30 6337 N 600.109 -0.101901 -1.5727 0
M  V30 6338 C 601.339 0.567568 -1.98651 0
M  V30 6339 C 601.747 1.61839 -0.980037 0
M  V30 6340 O 601.09 1.83661 0.0376564 0
M  V30 6341 C 601.152 1.26742 -3.36417 0
M  V30 6342 C 600.816 0.366561 -4.55528 0
M  V30 6343 C 601.813 -0.388022 -5.1845 0
M  V30 6344 C 599.498 0.282629 -5.01504 0
M  V30 6345 C 601.492 -1.21445 -6.25724 0
M  V30 6346 C 599.179 -0.547443 -6.08643 0
M  V30 6347 C 600.177 -1.29462 -6.70618 0
M  V30 6348 O 599.865 -2.11095 -7.7569 0
M  V30 6349 H 599.597 0.156282 -0.657687 0
M  V30 6350 H 602.151 -0.179912 -2.04611 0
M  V30 6351 H 600.381 2.06162 -3.27161 0
M  V30 6352 H 602.07 1.8321 -3.622 0
M  V30 6353 H 602.836 -0.332949 -4.83856 0
M  V30 6354 H 598.715 0.853868 -4.53023 0
M  V30 6355 H 602.259 -1.79814 -6.74027 0
M  V30 6356 H 598.156 -0.603971 -6.42668 0
M  V30 6357 H 598.924 -2.03851 -7.92709 0
M  V30 6358 N 601.587 1.56661 0.17182 0
M  V30 6359 C 602.52 1.91474 1.24149 0
M  V30 6360 C 603.498 0.777485 1.42807 0
M  V30 6361 O 604.682 1.03075 1.57822 0
M  V30 6362 C 601.809 2.16523 2.60453 0
M  V30 6363 C 600.855 3.39209 2.58533 0
M  V30 6364 S 601.688 4.93594 2.07665 0
M  V30 6365 C 602.844 5.21737 3.45747 0
M  V30 6366 H 603.077 2.81903 0.944346 0
M  V30 6367 H 600.61 1.49743 0.376364 0
M  V30 6368 H 602.568 2.31635 3.38903 0
M  V30 6369 H 601.229 1.26802 2.87368 0
M  V30 6370 H 600.422 3.53935 3.58812 0
M  V30 6371 H 600.024 3.2321 1.88178 0
M  V30 6372 H 602.316 5.13684 4.41741 0
M  V30 6373 H 603.259 6.23361 3.35896 0
M  V30 6374 H 603.667 4.49307 3.41736 0
M  V30 6375 N 603.065 -0.440357 1.51323 0
M  V30 6376 C 603.995 -1.54174 1.75364 0
M  V30 6377 C 604.976 -1.59039 0.603375 0
M  V30 6378 O 606.161 -1.74815 0.845774 0
M  V30 6379 C 603.291 -2.92277 1.87593 0
M  V30 6380 C 602.245 -3.02274 3.03009 0
M  V30 6381 C 601.571 -4.42327 3.00418 0
M  V30 6382 C 602.871 -2.76634 4.43024 0
M  V30 6383 H 604.565 -1.34307 2.67585 0
M  V30 6384 H 602.111 -0.644678 1.28763 0
M  V30 6385 H 604.064 -3.69284 2.02995 0
M  V30 6386 H 602.788 -3.13369 0.920179 0
M  V30 6387 H 601.447 -2.27706 2.87307 0
M  V30 6388 H 601.095 -4.60382 2.02626 0
M  V30 6389 H 600.795 -4.49946 3.77918 0
M  V30 6390 H 602.319 -5.21312 3.17909 0
M  V30 6391 H 603.733 -3.43376 4.59093 0
M  V30 6392 H 602.13 -2.95666 5.22208 0
M  V30 6393 H 603.2 -1.72262 4.5327 0
M  V30 6394 N 604.543 -1.41418 -0.695603 0
M  V30 6395 C 605.506 -1.42988 -1.79129 0
M  V30 6396 C 606.506 -0.320514 -1.57573 0
M  V30 6397 O 607.696 -0.58039 -1.64247 0
M  V30 6398 C 604.828 -1.24122 -3.175 0
M  V30 6399 H 606.021 -2.40526 -1.7913 0
M  V30 6400 H 603.574 -1.2756 -0.903225 0
M  V30 6401 H 604.309 -0.274253 -3.23138 0
M  V30 6402 H 604.094 -2.045 -3.34547 0
M  V30 6403 H 605.584 -1.28056 -3.97481 0
M  V30 6404 N 606.021 0.929856 -1.27246 0
M  V30 6405 C 606.954 2.03069 -1.04106 0
M  V30 6406 C 607.932 1.62556 0.0378417 0
M  V30 6407 O 609.116 1.88197 -0.106869 0
M  V30 6408 C 606.243 3.33718 -0.578778 0
M  V30 6409 C 605.289 3.93209 -1.65193 0
M  V30 6410 S 606.122 4.26068 -3.24386 0
M  V30 6411 C 607.278 5.598 -2.79954 0
M  V30 6412 H 607.511 2.22386 -1.97311 0
M  V30 6413 H 605.044 1.07269 -1.11053 0
M  V30 6414 H 607.002 4.09261 -0.31874 0
M  V30 6415 H 605.663 3.12328 0.333182 0
M  V30 6416 H 604.856 4.87482 -1.27973 0
M  V30 6417 H 604.458 3.24243 -1.86393 0
M  V30 6418 H 606.75 6.39004 -2.25123 0
M  V30 6419 H 607.693 6.01917 -3.72963 0
M  V30 6420 H 608.101 5.20219 -2.19164 0
M  V30 6421 N 607.499 1.09233 1.13605 0
M  V30 6422 C 608.429 0.751738 2.21068 0
M  V30 6423 C 609.41 -0.269688 1.67948 0
M  V30 6424 O 610.595 -0.13819 1.93708 0
M  V30 6425 C 607.725 0.16935 3.46887 0
M  V30 6426 C 606.679 1.12007 4.13084 0
M  V30 6427 C 606.005 0.399483 5.33206 0
M  V30 6428 C 607.305 2.46168 4.6065 0
M  V30 6429 H 608.999 1.65024 2.49815 0
M  V30 6430 H 606.545 0.794905 1.20072 0
M  V30 6431 H 608.498 -0.0809824 4.21322 0
M  V30 6432 H 607.222 -0.764335 3.1753 0
M  V30 6433 H 605.881 1.35564 3.40614 0
M  V30 6434 H 605.529 -0.538277 5.00112 0
M  V30 6435 H 605.229 1.03337 5.78442 0
M  V30 6436 H 606.753 0.157403 6.10397 0
M  V30 6437 H 608.167 2.26829 5.26518 0
M  V30 6438 H 606.564 3.05326 5.1662 0
M  V30 6439 H 607.634 3.07076 3.75276 0
M  V30 6440 N 608.977 -1.30795 0.87923 0
M  V30 6441 C 609.927 -2.25838 0.313276 0
M  V30 6442 C 610.911 -1.51025 -0.55499 0
M  V30 6443 O 612.103 -1.72413 -0.400353 0
M  V30 6444 C 609.232 -3.39981 -0.476204 0
M  V30 6445 C 608.318 -4.22154 0.405826 0
M  V30 6446 N 608.709 -4.82934 1.50362 0
M  V30 6447 C 607.007 -4.45552 0.199909 0
M  V30 6448 C 607.708 -5.44444 2.0483 0
M  V30 6449 N 606.684 -5.26723 1.34403 0
M  V30 6450 H 610.486 -2.70374 1.15218 0
M  V30 6451 H 608 -1.45168 0.728003 0
M  V30 6452 H 609.997 -4.07108 -0.898251 0
M  V30 6453 H 608.657 -2.96986 -1.31261 0
M  V30 6454 H 609.668 -4.82319 1.8865 0
M  V30 6455 H 606.345 -4.13169 -0.599795 0
M  V30 6456 H 607.735 -6.02701 2.96986 0
M  V30 6457 N 610.455 -0.639598 -1.44038 0
M  V30 6458 C 611.701 -0.147698 -2.02261 0
M  V30 6459 C 612.034 1.23031 -1.50256 0
M  V30 6460 O 611.309 1.81847 -0.690068 0
M  V30 6461 C 611.592 -0.14362 -3.59813 0
M  V30 6462 C 611.445 -1.55458 -4.22082 0
M  V30 6463 C 612.764 0.527317 -4.36929 0
M  V30 6464 H 609.883 -0.0551453 -0.734934 0
M  V30 6465 H 612.525 -0.817688 -1.71505 0
M  V30 6466 H 610.675 0.426898 -3.86147 0
M  V30 6467 H 612.347 -2.17464 -4.06826 0
M  V30 6468 H 610.59 -2.10594 -3.79253 0
M  V30 6469 H 611.261 -1.50369 -5.31124 0
M  V30 6470 H 613.737 0.0420504 -4.16079 0
M  V30 6471 H 612.613 0.499389 -5.46624 0
M  V30 6472 H 612.874 1.59914 -4.12165 0
M  V30 6473 N 611.933 1.52934 -0.380664 0
M  V30 6474 C 613.158 2.06363 0.207157 0
M  V30 6475 C 613.583 1.25122 1.4045 0
M  V30 6476 O 612.941 0.274062 1.79217 0
M  V30 6477 C 612.989 3.56162 0.563996 0
M  V30 6478 O 612.093 3.77552 1.65917 0
M  V30 6479 H 611.434 0.663468 0.0265859 0
M  V30 6480 H 613.964 1.9719 -0.545635 0
M  V30 6481 H 613.974 3.99453 0.830752 0
M  V30 6482 H 612.649 4.14732 -0.311427 0
M  V30 6483 H 611.226 3.46154 1.3868 0
M  V30 6484 N 613.412 0.11024 1.57214 0
M  V30 6485 C 614.66 -0.548783 1.94506 0
M  V30 6486 C 614.981 -1.67772 0.99386 0
M  V30 6487 O 614.251 -1.9584 0.0485841 0
M  V30 6488 H 612.831 -0.205715 0.718116 0
M  V30 6489 H 615.493 0.177127 1.94093 0
M  V30 6490 H 614.589 -0.949096 2.97319 0
M  V30 6491 N 614.89 -1.56749 -0.16351 0
M  V30 6492 C 615.838 -1.97939 -1.22159 0
M  V30 6493 C 616.832 -0.869288 -1.45395 0
M  V30 6494 O 618.038 -1.05443 -1.45883 0
M  V30 6495 H 614.413 -0.629869 -0.410815 0
M  V30 6496 H 616.384 -2.86115 -0.847381 0
M  V30 6497 C 615.133 -2.36206 -2.55151 0
M  V30 6498 H 614.456 -3.2117 -2.38097 0
M  V30 6499 H 615.896 -2.68863 -3.27854 0
M  V30 6500 C 614.355 -1.20841 -3.14482 0
M  V30 6501 O 614.885 -0.500258 -3.98573 0
M  V30 6502 N 613.091 -0.976943 -2.73686 0
M  V30 6503 H 612.638 -1.55457 -2.05404 0
M  V30 6504 H 612.596 -0.206912 -3.13718 0
M  V30 6505 N 616.368 0.432326 -1.51554 0
M  V30 6506 C 617.615 1.18134 -1.64471 0
M  V30 6507 C 617.943 1.91076 -0.363349 0
M  V30 6508 O 617.198 1.84492 0.65279 0
M  V30 6509 C 617.497 2.21907 -2.80164 0
M  V30 6510 C 617.163 1.65941 -4.19255 0
M  V30 6511 C 615.825 1.50401 -4.57092 0
M  V30 6512 C 618.177 1.24843 -5.06027 0
M  V30 6513 C 615.505 0.922443 -5.79403 0
M  V30 6514 C 617.857 0.68113 -6.28922 0
M  V30 6515 C 616.521 0.512673 -6.65528 0
M  V30 6516 H 615.791 0.432283 -0.601841 0
M  V30 6517 H 618.438 0.471701 -1.856 0
M  V30 6518 H 616.743 2.98928 -2.53277 0
M  V30 6519 H 618.44 2.79691 -2.87357 0
M  V30 6520 H 615.03 1.79014 -3.89425 0
M  V30 6521 H 619.214 1.35667 -4.77397 0
M  V30 6522 H 614.47 0.779733 -6.06408 0
M  V30 6523 H 618.644 0.35418 -6.95499 0
M  V30 6524 H 616.271 0.0599084 -7.60176 0
M  V30 6525 N 617.846 1.41785 0.688094 0
M  V30 6526 C 618.793 1.44221 1.80191 0
M  V30 6527 C 619.763 0.295688 1.63447 0
M  V30 6528 O 620.948 0.49783 1.84191 0
M  V30 6529 C 618.088 1.33743 3.1813 0
M  V30 6530 C 617.201 2.58325 3.46254 0
M  V30 6531 C 616.336 2.40086 4.73848 0
M  V30 6532 C 615.375 3.60107 4.94964 0
M  V30 6533 N 614.512 3.40892 6.13789 0
M  V30 6534 H 619.352 2.39411 1.77444 0
M  V30 6535 H 616.889 1.18876 0.866423 0
M  V30 6536 H 618.847 1.25669 3.97823 0
M  V30 6537 H 617.477 0.42157 3.20035 0
M  V30 6538 H 616.529 2.7682 2.60912 0
M  V30 6539 H 617.841 3.4758 3.57756 0
M  V30 6540 H 616.995 2.29522 5.61609 0
M  V30 6541 H 615.734 1.483 4.64606 0
M  V30 6542 H 614.739 3.71118 4.05649 0
M  V30 6543 H 615.964 4.52857 5.06061 0
M  V30 6544 H 613.91 2.51812 6.05745 0
M  V30 6545 H 613.827 4.23727 6.26092 0
M  V30 6546 H 615.095 3.34114 7.04264 0
M  V30 6547 N 619.324 -0.923095 1.27737 0
M  V30 6548 C 620.571 -1.67127 1.14345 0
M  V30 6549 C 620.899 -1.92017 -0.30982 0
M  V30 6550 O 620.154 -1.51185 -1.24264 0
M  V30 6551 C 620.453 -3.04125 1.8773 0
M  V30 6552 C 620.119 -2.98929 3.37568 0
M  V30 6553 C 618.781 -2.9722 3.78436 0
M  V30 6554 C 621.133 -2.89875 4.33154 0
M  V30 6555 C 618.461 -2.84244 5.13247 0
M  V30 6556 C 620.813 -2.7844 5.68026 0
M  V30 6557 C 619.477 -2.75083 6.08182 0
M  V30 6558 H 618.747 -0.611562 0.418417 0
M  V30 6559 H 621.394 -1.07618 1.584 0
M  V30 6560 H 619.699 -3.67366 1.36196 0
M  V30 6561 H 621.396 -3.609 1.74792 0
M  V30 6562 H 617.986 -3.0105 3.05069 0
M  V30 6563 H 622.17 -2.9029 4.02548 0
M  V30 6564 H 617.426 -2.80034 5.43499 0
M  V30 6565 H 621.6 -2.70401 6.4176 0
M  V30 6566 H 619.227 -2.64786 7.12596 0
M  V30 6567 N 620.802 -1.09834 -1.13024 0
M  V30 6568 C 622.032 -0.857657 -1.87957 0
M  V30 6569 C 622.44 0.595008 -1.796 0
M  V30 6570 O 621.783 1.42158 -1.16347 0
M  V30 6571 C 621.845 -1.21949 -3.38185 0
M  V30 6572 C 621.509 -2.67791 -3.7032 0
M  V30 6573 C 622.506 -3.66036 -3.69207 0
M  V30 6574 C 620.191 -3.04019 -3.99847 0
M  V30 6575 C 622.185 -4.98533 -3.9717 0
M  V30 6576 C 619.872 -4.36706 -4.27471 0
M  V30 6577 C 620.87 -5.33772 -4.26118 0
M  V30 6578 O 620.558 -6.64072 -4.53061 0
M  V30 6579 H 620.29 -0.308009 -0.601753 0
M  V30 6580 H 622.844 -1.46496 -1.43973 0
M  V30 6581 H 621.074 -0.555249 -3.82693 0
M  V30 6582 H 622.763 -0.957281 -3.9445 0
M  V30 6583 H 623.529 -3.39392 -3.46465 0
M  V30 6584 H 619.408 -2.29096 -4.00045 0
M  V30 6585 H 622.952 -5.74288 -3.96029 0
M  V30 6586 H 618.849 -4.63091 -4.49685 0
M  V30 6587 H 619.617 -6.69608 -4.7071 0
M  V30 6588 N 622.28 1.30327 -0.886154 0
M  V30 6589 C 623.228 2.30052 -0.343317 0
M  V30 6590 C 624.222 1.60212 0.550305 0
M  V30 6591 O 625.428 1.74674 0.434609 0
M  V30 6592 H 621.803 0.746306 -0.0923681 0
M  V30 6593 H 623.774 2.73294 -1.19804 0
M  V30 6594 C 622.523 3.45079 0.426107 0
M  V30 6595 H 621.846 3.99003 -0.25227 0
M  V30 6596 H 623.286 4.16931 0.771009 0
M  V30 6597 C 621.745 2.95195 1.62363 0
M  V30 6598 O 622.275 2.95323 2.723 0
M  V30 6599 N 620.481 2.51192 1.4612 0
M  V30 6600 H 620.028 2.51286 0.566832 0
M  V30 6601 H 619.986 2.18173 2.2638 0
M  V30 6602 N 623.758 0.647228 1.43697 0
M  V30 6603 C 624.706 -0.0600105 2.32523 0
M  V30 6604 C 625.7 -0.819277 1.48271 0
M  V30 6605 O 626.906 -0.730356 1.64517 0
M  V30 6606 H 623.281 -0.0381872 0.75103 0
M  V30 6607 H 625.252 0.706978 2.89904 0
M  V30 6608 C 624.001 -1.0169 3.32497 0
M  V30 6609 H 623.324 -0.442083 3.97348 0
M  V30 6610 H 624.764 -1.48095 3.97296 0
M  V30 6611 C 623.223 -2.11002 2.6264 0
M  V30 6612 O 623.753 -3.19302 2.4374 0
M  V30 6613 N 621.959 -1.87388 2.22113 0
M  V30 6614 H 621.506 -0.993174 2.37684 0
M  V30 6615 H 621.464 -2.60723 1.75701 0
M  V30 6616 N 625.236 -1.5273 0.388769 0
M  V30 6617 C 626.464 -2.05992 -0.193677 0
M  V30 6618 C 626.879 -1.26053 -1.40557 0
M  V30 6619 O 626.236 -0.307049 -1.79898 0
M  V30 6620 C 626.287 -3.57068 -0.564321 0
M  V30 6621 O 626.008 -4.3398 0.599422 0
M  V30 6622 C 627.509 -4.26674 -1.20269 0
M  V30 6623 H 624.729 -0.670358 -0.0293445 0
M  V30 6624 H 627.273 -1.96857 0.553844 0
M  V30 6625 H 625.428 -3.66277 -1.26174 0
M  V30 6626 H 625.842 -5.2367 0.294895 0
M  V30 6627 H 627.316 -5.33625 -1.4124 0
M  V30 6628 H 627.793 -3.81854 -2.16989 0
M  V30 6629 H 628.399 -4.2178 -0.546047 0
M  V30 6630 N 626.714 -0.118576 -1.57153 0
M  V30 6631 C 627.961 0.539526 -1.9518 0
M  V30 6632 C 628.289 1.66714 -1.00184 0
M  V30 6633 O 627.544 1.95683 -0.0256482 0
M  V30 6634 C 627.843 1.11303 -3.39627 0
M  V30 6635 C 627.509 0.106809 -4.50773 0
M  V30 6636 C 626.171 -0.169876 -4.809 0
M  V30 6637 C 628.523 -0.57895 -5.17975 0
M  V30 6638 C 625.851 -1.13861 -5.75545 0
M  V30 6639 C 628.203 -1.53631 -6.13661 0
M  V30 6640 C 626.867 -1.82099 -6.42181 0
M  V30 6641 H 626.137 0.197427 -0.714215 0
M  V30 6642 H 628.784 -0.199391 -1.90459 0
M  V30 6643 H 627.089 1.92869 -3.4104 0
M  V30 6644 H 628.786 1.63032 -3.66363 0
M  V30 6645 H 625.376 0.332645 -4.27307 0
M  V30 6646 H 629.56 -0.378359 -4.94856 0
M  V30 6647 H 624.816 -1.36592 -5.95947 0
M  V30 6648 H 628.99 -2.07337 -6.64819 0
M  V30 6649 H 626.617 -2.57319 -7.15326 0
M  V30 6650 N 628.193 1.56834 0.155195 0
M  V30 6651 C 629.141 1.98584 1.21107 0
M  V30 6652 C 630.135 0.876987 1.44932 0
M  V30 6653 O 631.341 1.06215 1.45322 0
M  V30 6654 H 627.716 0.632039 0.407469 0
M  V30 6655 H 629.687 2.86561 0.832195 0
M  V30 6656 C 628.436 2.37555 2.53895 0
M  V30 6657 H 627.759 3.22428 2.3639 0
M  V30 6658 H 629.199 2.70598 3.26424 0
M  V30 6659 C 627.658 1.22507 3.13837 0
M  V30 6660 O 628.188 0.521388 3.98302 0
M  V30 6661 N 626.394 0.991444 2.73164 0
M  V30 6662 H 625.941 1.56544 2.04577 0
M  V30 6663 H 625.899 0.223546 3.13604 0
M  V30 6664 O 629.71 -0.29999 1.58689 0
M  V30 6665 H 630.401 -0.947015 1.68971 0
M  V30 END ATOM
M  V30 BEGIN BOND
M  V30 END BOND
M  V30 END CTAB
M  END
$$$$
