drugbank_target|P17931 Galectin-3 (DB01827; DB04465)
 OpenBabel12092119523D

  0  0  0     0  0            999 V3000
M  V30 BEGIN CTAB
M  V30 COUNTS 3633 3701 0 0 0
M  V30 BEGIN ATOM
M  V30 1 H -0.908 1.98254 -0.117106 0
M  V30 2 N 0 1.576 0 0
M  V30 3 C 0.933 2.03868 1.02534 0
M  V30 4 C 1.911 0.928543 1.3348 0
M  V30 5 O 3.095 1.19667 1.45644 0
M  V30 6 C 0.222 2.43627 2.35294 0
M  V30 7 C -0.732 3.65373 2.2001 0
M  V30 8 S 0.101 5.13292 1.52614 0
M  V30 9 C 1.257 5.56322 2.86805 0
M  V30 10 H 1.49 2.90518 0.631377 0
M  V30 11 H -0.977 1.52953 0.210867 0
M  V30 12 H 0.981 2.67203 3.11629 0
M  V30 13 H -0.358 1.57376 2.7183 0
M  V30 14 H -1.165 3.90944 3.18086 0
M  V30 15 H -1.563 3.418 1.51819 0
M  V30 16 H 0.729 5.58782 3.83104 0
M  V30 17 H 1.672 6.56266 2.65933 0
M  V30 18 H 2.08 4.83886 2.90714 0
M  V30 19 N 1.4781 -0.272755 1.55222 0
M  V30 20 C 2.4411 -1.32041 1.87344 0
M  V30 21 C 3.4411 -1.42342 0.74803 0
M  V30 22 O 4.6311 -1.41488 1.0162 0
M  V30 23 C 1.7631 -2.70173 2.07893 0
M  V30 24 H 2.9561 -1.04789 2.80997 0
M  V30 25 H 0.5091 -0.51083 1.47717 0
M  V30 26 H 1.2441 -3.02605 1.16622 0
M  V30 27 H 1.0291 -2.64082 2.89833 0
M  V30 28 H 2.5191 -3.45869 2.34017 0
M  V30 29 N 2.9562 -1.48159 -0.537278 0
M  V30 30 C 4.2332 -1.46291 -1.29839 0
M  V30 31 C 4.6132 -0.170613 -2.10409 0
M  V30 32 O 3.9612 0.847746 -2.12192 0
M  V30 33 C 4.1712 -2.72055 -2.18603 0
M  V30 34 C 5.5192 -3.20087 -2.7898 0
M  V30 35 O 6.5432 -2.72921 -2.28894 0
M  V30 36 O 5.4022 -4.02138 -3.70064 0
M  V30 37 H 2.4962 -0.583906 -0.585647 0
M  V30 38 H 5.0422 -1.60384 -0.554534 0
M  V30 39 H 3.8142 -3.57628 -1.58801 0
M  V30 40 H 3.4372 -2.60646 -3.00249 0
M  V30 41 N 4.4343 0.785586 -1.36625 0
M  V30 42 C 5.3823 1.91978 -1.31329 0
M  V30 43 C 6.3763 1.68162 -0.204416 0
M  V30 44 O 7.5823 1.76122 -0.371645 0
M  V30 45 H 3.9573 0.631087 -0.408942 0
M  V30 46 H 5.9283 1.93562 -2.27104 0
M  V30 47 C 4.6773 3.29055 -1.12329 0
M  V30 48 H 4.0003 3.4795 -1.96903 0
M  V30 49 H 5.4403 4.08756 -1.12671 0
M  V30 50 C 3.8993 3.36461 0.171861 0
M  V30 51 O 4.4293 3.84576 1.16035 0
M  V30 52 N 2.6353 2.89782 0.217846 0
M  V30 53 H 2.1823 2.50819 -0.587183 0
M  V30 54 H 2.1403 2.95119 1.08408 0
M  V30 55 N 5.9124 1.20967 1.01018 0
M  V30 56 C 7.1594 1.02374 1.74716 0
M  V30 57 C 7.4874 -0.443375 1.89379 0
M  V30 58 O 6.7424 -1.34535 1.42123 0
M  V30 59 C 7.0414 1.65997 3.16512 0
M  V30 60 C 6.7074 3.15831 3.2181 0
M  V30 61 C 5.3694 3.56719 3.22963 0
M  V30 62 C 7.7214 4.11816 3.19464 0
M  V30 63 C 5.0494 4.92107 3.19449 0
M  V30 64 C 7.4014 5.47158 3.17491 0
M  V30 65 C 6.0654 5.87451 3.16951 0
M  V30 66 H 5.3354 0.374614 0.639332 0
M  V30 67 H 7.9824 1.50485 1.18434 0
M  V30 68 H 6.2874 1.10166 3.75993 0
M  V30 69 H 7.9844 1.49119 3.72242 0
M  V30 70 H 4.5744 2.83263 3.21652 0
M  V30 71 H 8.7584 3.81257 3.17737 0
M  V30 72 H 4.0144 5.22579 3.17366 0
M  V30 73 H 8.1884 6.21274 3.14629 0
M  V30 74 H 5.8154 6.92329 3.13983 0
M  V30 75 N 7.3905 -1.2043 1.01659 0
M  V30 76 C 8.6155 -1.94318 0.724942 0
M  V30 77 C 9.0405 -1.74266 -0.708034 0
M  V30 78 O 8.3985 -1.03694 -1.48719 0
M  V30 79 C 8.4465 -3.44486 1.06591 0
M  V30 80 O 7.5505 -4.12017 0.177599 0
M  V30 81 H 6.8915 -0.60708 0.26898 0
M  V30 82 H 9.4215 -1.52861 1.35995 0
M  V30 83 H 9.4315 -3.95106 1.01762 0
M  V30 84 H 8.1065 -3.58404 2.10997 0
M  V30 85 H 6.6835 -3.71821 0.283421 0
M  V30 86 N 8.8686 -0.792821 -1.36206 0
M  V30 87 C 9.7986 -0.207853 -2.32573 0
M  V30 88 C 10.7796 0.659055 -1.56813 0
M  V30 89 O 11.9646 0.592176 -1.84951 0
M  V30 90 C 9.0946 0.655449 -3.41059 0
M  V30 91 C 8.0486 -0.111842 -4.27854 0
M  V30 92 C 7.3746 0.872274 -5.27537 0
M  V30 93 C 8.6746 -1.30299 -5.05786 0
M  V30 94 H 10.3686 -1.01294 -2.81744 0
M  V30 95 H 7.9146 -0.48854 -1.3546 0
M  V30 96 H 9.8676 1.07464 -4.07467 0
M  V30 97 H 8.5916 1.49328 -2.90463 0
M  V30 98 H 7.2506 -0.512053 -3.63006 0
M  V30 99 H 6.8986 1.70523 -4.73214 0
M  V30 100 H 6.5986 0.363291 -5.86476 0
M  V30 101 H 8.1226 1.28996 -5.96818 0
M  V30 102 H 9.5366 -0.959379 -5.65216 0
M  V30 103 H 7.9336 -1.7455 -5.74154 0
M  V30 104 H 9.0036 -2.09663 -4.37229 0
M  V30 105 N 10.3467 1.47872 -0.545128 0
M  V30 106 C 11.2967 2.26842 0.229456 0
M  V30 107 C 12.2807 1.33626 0.896267 0
M  V30 108 O 13.4727 1.58063 0.79657 0
M  V30 109 C 10.6017 3.19089 1.26638 0
M  V30 110 C 9.6877 4.19783 0.603598 0
M  V30 111 N 10.0787 5.0479 -0.319405 0
M  V30 112 C 8.3767 4.3765 0.858989 0
M  V30 113 C 9.0777 5.77433 -0.703241 0
M  V30 114 N 8.0537 5.43566 -0.0608309 0
M  V30 115 H 11.8557 2.89947 -0.480391 0
M  V30 116 H 9.3697 1.58263 -0.364209 0
M  V30 117 H 11.3667 3.74337 1.83515 0
M  V30 118 H 10.0267 2.5754 1.97745 0
M  V30 119 H 11.0377 5.13244 -0.692889 0
M  V30 120 H 7.7147 3.87281 1.55948 0
M  V30 121 H 9.1047 6.55824 -1.46098 0
M  V30 122 N 11.8248 0.280983 1.55075 0
M  V30 123 C 13.1018 -0.386207 1.91749 0
M  V30 124 C 13.4818 -1.73264 1.20594 0
M  V30 125 O 12.8298 -2.26034 0.334784 0
M  V30 126 C 13.0398 -0.520687 3.45094 0
M  V30 127 C 14.3878 -0.800865 4.16979 0
M  V30 128 O 15.4118 -0.605271 3.5102 0
M  V30 129 O 14.2708 -1.1753 5.33712 0
M  V30 130 H 11.3648 -0.212408 0.799257 0
M  V30 131 H 13.9108 0.327568 1.66509 0
M  V30 132 H 12.6828 0.426633 3.88967 0
M  V30 133 H 12.3058 -1.2837 3.76307 0
M  V30 134 N 13.3029 -1.57598 0.00835791 0
M  V30 135 C 14.2659 -2.07884 -0.965242 0
M  V30 136 C 15.2659 -0.989825 -1.26725 0
M  V30 137 O 16.4559 -1.25218 -1.21104 0
M  V30 138 C 13.5879 -2.52731 -2.28779 0
M  V30 139 H 14.7809 -2.95178 -0.530112 0
M  V30 140 H 12.3339 -1.54458 -0.239283 0
M  V30 141 H 13.0689 -1.68705 -2.76964 0
M  V30 142 H 12.8539 -3.32272 -2.08177 0
M  V30 143 H 14.3439 -2.91933 -2.98605 0
M  V30 144 N 14.781 0.264519 -1.55364 0
M  V30 145 C 15.711 1.33121 -1.91836 0
M  V30 146 C 16.692 1.51101 -0.781192 0
M  V30 147 O 17.877 1.64003 -1.04003 0
M  V30 148 C 15.007 2.68921 -2.19769 0
M  V30 149 C 13.961 2.65661 -3.35571 0
M  V30 150 C 13.287 4.05093 -3.49004 0
M  V30 151 C 14.587 2.24187 -4.71739 0
M  V30 152 H 16.281 1.02844 -2.81182 0
M  V30 153 H 13.827 0.493286 -1.35287 0
M  V30 154 H 15.78 3.43663 -2.43872 0
M  V30 155 H 14.504 3.00799 -1.27231 0
M  V30 156 H 13.163 1.93377 -3.1145 0
M  V30 157 H 12.811 4.34206 -2.53917 0
M  V30 158 H 12.511 4.03804 -4.26868 0
M  V30 159 H 14.035 4.81561 -3.75408 0
M  V30 160 H 15.449 2.88654 -4.9533 0
M  V30 161 H 13.846 2.34044 -5.52579 0
M  V30 162 H 14.916 1.19327 -4.69988 0
M  V30 163 N 16.2591 1.48442 0.529413 0
M  V30 164 C 17.4841 1.60406 1.31471 0
M  V30 165 C 17.9091 0.264738 1.86228 0
M  V30 166 O 17.2671 -0.763668 1.64432 0
M  V30 167 C 17.3151 2.65419 2.44101 0
M  V30 168 O 16.4191 2.22618 3.47153 0
M  V30 169 H 15.7601 0.537863 0.389357 0
M  V30 170 H 18.2901 1.94432 0.636965 0
M  V30 171 H 18.3001 2.86709 2.90279 0
M  V30 172 H 16.9751 3.62652 2.03608 0
M  V30 173 H 15.5521 2.11543 3.0709 0
M  V30 174 N 17.7372 -0.778329 1.37039 0
M  V30 175 C 18.9852 -1.53361 1.31623 0
M  V30 176 C 19.3062 -1.94739 -0.100831 0
M  V30 177 O 18.5762 -1.65797 -1.04347 0
M  V30 178 H 17.1562 -0.568794 0.484234 0
M  V30 179 H 19.8182 -0.926742 1.71457 0
M  V30 180 H 18.9142 -2.43606 1.95096 0
M  V30 181 N 19.2153 -1.21501 -1.00376 0
M  V30 182 C 20.4403 -1.05977 -1.78279 0
M  V30 183 C 20.8653 0.385994 -1.84097 0
M  V30 184 O 20.2233 1.27849 -1.28547 0
M  V30 185 C 20.2713 -1.66302 -3.19963 0
M  V30 186 O 19.3753 -0.909333 -4.0225 0
M  V30 187 H 18.7163 -0.372906 -0.549397 0
M  V30 188 H 21.2463 -1.6107 -1.26165 0
M  V30 189 H 21.2563 -1.70574 -3.70632 0
M  V30 190 H 19.9313 -2.71515 -3.15043 0
M  V30 191 H 18.5083 -0.941795 -3.60811 0
M  V30 192 N 20.6934 1.19889 -1.02296 0
M  V30 193 C 21.9414 1.89046 -0.714558 0
M  V30 194 C 22.2624 1.79636 0.758681 0
M  V30 195 O 21.5324 1.20292 1.54618 0
M  V30 196 H 20.1124 0.699802 -0.261317 0
M  V30 197 H 22.7744 1.45574 -1.29592 0
M  V30 198 H 21.8704 2.95524 -1.0036 0
M  V30 199 N 22.1715 0.800033 1.35784 0
M  V30 200 C 23.1195 0.193851 2.31791 0
M  V30 201 C 24.1135 -0.652744 1.56319 0
M  V30 202 O 25.3195 -0.546641 1.71499 0
M  V30 203 H 21.6945 0.04392 0.750716 0
M  V30 204 H 23.6655 1.01883 2.80468 0
M  V30 205 C 22.4145 -0.648338 3.41602 0
M  V30 206 H 21.7375 -0.00624665 3.998 0
M  V30 207 H 23.1775 -1.03898 4.11073 0
M  V30 208 C 21.6365 -1.8111 2.84079 0
M  V30 209 O 22.1665 -2.90825 2.77099 0
M  V30 210 N 20.3725 -1.62056 2.41218 0
M  V30 211 H 19.9195 -0.728123 2.47095 0
M  V30 212 H 19.8775 -2.40013 2.03079 0
M  V30 213 N 23.6496 -1.47581 0.552962 0
M  V30 214 C 25.0606 -1.86324 0.118463 0
M  V30 215 C 25.4116 -1.46006 -1.3106 0
M  V30 216 O 24.5366 -0.861182 -1.98526 0
M  V30 217 C 25.1316 -3.3816 0.20821 0
M  V30 218 C 23.6906 -3.7601 -0.171226 0
M  V30 219 C 22.8376 -2.71634 0.557686 0
M  V30 220 H 25.7886 -1.39159 0.762928 0
M  V30 221 H 25.8096 -3.76141 -0.574278 0
M  V30 222 H 25.3216 -3.67473 1.24841 0
M  V30 223 H 23.4226 -3.52313 -1.21269 0
M  V30 224 H 23.5356 -4.78745 0.184379 0
M  V30 225 H 21.8996 -2.547 0.00125792 0
M  V30 226 H 22.6826 -3.0379 1.59896 0
M  V30 227 N 25.1277 -0.289203 -1.54924 0
M  V30 228 C 26.0757 0.607966 -2.24514 0
M  V30 229 C 27.0697 1.14655 -1.24702 0
M  V30 230 O 28.2757 1.09856 -1.4259 0
M  V30 231 H 24.6507 0.21464 -0.720718 0
M  V30 232 H 26.6217 -0.00164182 -2.984 0
M  V30 233 C 25.3707 1.77406 -2.99036 0
M  V30 234 H 24.6937 1.36884 -3.75637 0
M  V30 235 H 26.1337 2.37814 -3.51028 0
M  V30 236 C 24.5927 2.67107 -2.05318 0
M  V30 237 O 25.1227 3.6787 -1.61353 0
M  V30 238 N 23.3287 2.34582 -1.71521 0
M  V30 239 H 22.8757 1.52688 -2.07471 0
M  V30 240 H 22.8337 2.94867 -1.0909 0
M  V30 241 N 26.6058 1.57591 -0.0167156 0
M  V30 242 C 28.0168 1.79201 0.523834 0
M  V30 243 C 28.3678 0.925796 1.72984 0
M  V30 244 O 27.4928 0.132792 2.15992 0
M  V30 245 C 28.0878 3.25 0.957091 0
M  V30 246 C 26.6468 3.47648 1.44283 0
M  V30 247 C 25.7938 2.74374 0.401757 0
M  V30 248 H 28.7448 1.56831 -0.242816 0
M  V30 249 H 28.7658 3.34031 1.82219 0
M  V30 250 H 28.2778 3.88019 0.0791415 0
M  V30 251 H 26.3788 2.89866 2.34113 0
M  V30 252 H 26.4918 4.56352 1.45877 0
M  V30 253 H 24.8558 2.39485 0.867121 0
M  V30 254 H 25.6388 3.40102 -0.467513 0
M  V30 255 N 28.0839 -0.256276 1.55502 0
M  V30 256 C 29.0159 -1.33981 1.85962 0
M  V30 257 C 30.0289 -1.44743 0.745212 0
M  V30 258 O 31.2179 -1.4626 1.02324 0
M  V30 259 C 28.3179 -2.7194 2.02242 0
M  V30 260 C 27.4909 -2.83562 3.33033 0
M  V30 261 C 26.5499 -4.02304 3.39172 0
M  V30 262 O 25.5759 -3.92273 4.12444 0
M  V30 263 N 26.7779 -5.15045 2.67784 0
M  V30 264 H 29.5429 -1.08191 2.7949 0
M  V30 265 H 27.1039 -0.446388 1.55624 0
M  V30 266 H 29.0959 -3.49697 2.03701 0
M  V30 267 H 27.6659 -2.90479 1.15502 0
M  V30 268 H 26.8859 -1.92555 3.43971 0
M  V30 269 H 28.1739 -2.88271 4.19258 0
M  V30 270 H 27.5719 -5.26085 2.07968 0
M  V30 271 H 26.1289 -5.90972 2.74947 0
M  V30 272 N 29.562 -1.4872 -0.521534 0
M  V30 273 C 30.81 -1.56857 -1.27437 0
M  V30 274 C 31.131 -0.247982 -1.93417 0
M  V30 275 O 30.401 0.731151 -1.81744 0
M  V30 276 H 28.981 -0.577885 -0.473347 0
M  V30 277 H 31.643 -1.85233 -0.606205 0
M  V30 278 H 30.739 -2.35402 -2.0492 0
M  V30 279 N 31.0401 0.771051 -1.3745 0
M  V30 280 C 32.2861 1.53109 -1.339 0
M  V30 281 C 32.6411 1.9225 0.0758401 0
M  V30 282 O 31.9341 1.61264 1.03463 0
M  V30 283 C 32.1281 2.80676 -2.2126 0
M  V30 284 C 31.9571 2.54003 -3.71096 0
M  V30 285 C 30.7271 2.48097 -4.402 0
M  V30 286 C 32.9251 2.21953 -4.63941 0
M  V30 287 N 30.9071 2.13515 -5.75573 0
M  V30 288 C 32.2781 1.97516 -5.87697 0
M  V30 289 C 34.3331 2.08114 -4.5232 0
M  V30 290 C 33.0361 1.60638 -7.01133 0
M  V30 291 C 35.0621 1.72636 -5.65642 0
M  V30 292 C 34.4241 1.4906 -6.88448 0
M  V30 293 H 30.5231 0.56055 -0.54526 0
M  V30 294 H 33.1071 0.899472 -1.72678 0
M  V30 295 H 31.2781 3.41674 -1.84698 0
M  V30 296 H 33.0101 3.46578 -2.08963 0
M  V30 297 H 29.7651 2.63974 -3.93211 0
M  V30 298 H 30.1891 1.98919 -6.47117 0
M  V30 299 H 34.8311 2.25024 -3.57944 0
M  V30 300 H 32.5491 1.42467 -7.95443 0
M  V30 301 H 36.1351 1.62586 -5.58621 0
M  V30 302 H 35.0151 1.22014 -7.7465 0
M  V30 303 N 32.5182 1.22032 0.997298 0
M  V30 304 C 33.9292 1.0397 1.55071 0
M  V30 305 C 34.2802 -0.398192 1.92117 0
M  V30 306 O 33.4052 -1.28254 1.74298 0
M  V30 307 C 34.0002 1.88109 2.81781 0
M  V30 308 C 32.5592 1.74357 3.33581 0
M  V30 309 C 31.7062 1.84846 2.06706 0
M  V30 310 H 34.6572 1.35941 0.818883 0
M  V30 311 H 34.6782 1.39589 3.53971 0
M  V30 312 H 34.1902 2.92754 2.54787 0
M  V30 313 H 32.2912 0.72427 3.65493 0
M  V30 314 H 32.4042 2.56772 4.04481 0
M  V30 315 H 30.7682 1.28238 2.20062 0
M  V30 316 H 31.5512 2.91014 1.82114 0
M  V30 317 N 33.9963 -1.19345 1.0293 0
M  V30 318 C 35.2443 -1.88665 0.724574 0
M  V30 319 C 35.5653 -1.80036 -0.749144 0
M  V30 320 O 34.8353 -1.2111 -1.53978 0
M  V30 321 H 33.4153 -0.698406 0.265025 0
M  V30 322 H 36.0773 -1.44885 1.30362 0
M  V30 323 H 35.1733 -2.94987 1.01926 0
M  V30 324 N 35.4744 -0.807222 -1.35358 0
M  V30 325 C 36.4374 -0.223665 -2.28106 0
M  V30 326 C 37.4374 0.589354 -1.4961 0
M  V30 327 O 38.6274 0.407745 -1.69361 0
M  V30 328 C 35.7594 0.688149 -3.33882 0
M  V30 329 H 36.9524 -1.04169 -2.81227 0
M  V30 330 H 34.5054 -0.577921 -1.45223 0
M  V30 331 H 35.2404 1.52984 -2.85948 0
M  V30 332 H 35.0254 0.10687 -3.91954 0
M  V30 333 H 36.5154 1.09075 -4.03104 0
M  V30 334 N 36.9525 1.47285 -0.560781 0
M  V30 335 C 38.1985 2.03347 -0.0463654 0
M  V30 336 C 38.5535 1.42702 1.2905 0
M  V30 337 O 37.8465 0.574619 1.8278 0
M  V30 338 C 38.0405 3.57258 0.100784 0
M  V30 339 C 37.8695 4.32827 -1.22027 0
M  V30 340 C 36.6395 4.72588 -1.78854 0
M  V30 341 C 38.8375 4.67739 -2.13834 0
M  V30 342 N 36.8195 5.32816 -3.04927 0
M  V30 343 C 38.1905 5.28307 -3.24487 0
M  V30 344 C 40.2455 4.49667 -2.13784 0
M  V30 345 C 38.9485 5.72711 -4.35194 0
M  V30 346 C 40.9745 4.95073 -3.23506 0
M  V30 347 C 40.3365 5.55693 -4.32879 0
M  V30 348 H 36.4355 0.779755 -0.0592166 0
M  V30 349 H 39.0195 1.79723 -0.748857 0
M  V30 350 H 37.1905 3.80642 0.772404 0
M  V30 351 H 38.9225 3.9996 0.617589 0
M  V30 352 H 35.6775 4.54656 -1.32609 0
M  V30 353 H 36.1015 5.67471 -3.69197 0
M  V30 354 H 40.7435 4.02154 -1.30507 0
M  V30 355 H 38.4615 6.19214 -5.1923 0
M  V30 356 H 42.0475 4.82859 -3.24559 0
M  V30 357 H 40.9275 5.90188 -5.1638 0
M  V30 358 N 38.4306 0.297415 1.54768 0
M  V30 359 C 39.6786 -0.312295 1.99673 0
M  V30 360 C 39.9996 -1.54686 1.18732 0
M  V30 361 O 39.2696 -1.93854 0.282382 0
M  V30 362 H 37.8496 -0.118381 0.73756 0
M  V30 363 H 40.5116 0.407915 1.90583 0
M  V30 364 H 39.6076 -0.586813 3.06534 0
M  V30 365 N 39.9087 -1.5758 0.0250728 0
M  V30 366 C 40.8567 -2.11125 -0.97617 0
M  V30 367 C 41.8507 -1.03689 -1.33959 0
M  V30 368 O 43.0567 -1.22128 -1.3223 0
M  V30 369 H 39.4317 -0.674468 -0.332561 0
M  V30 370 H 41.4027 -2.94194 -0.499223 0
M  V30 371 C 40.1517 -2.65017 -2.2508 0
M  V30 372 H 39.4747 -3.47333 -1.9799 0
M  V30 373 H 40.9147 -3.06133 -2.93357 0
M  V30 374 C 39.3737 -1.57574 -2.97779 0
M  V30 375 O 39.9037 -0.973203 -3.89733 0
M  V30 376 N 38.1097 -1.29716 -2.60043 0
M  V30 377 H 37.6567 -1.789 -1.85345 0
M  V30 378 H 37.6147 -0.58051 -3.08994 0
M  V30 379 N 41.3868 0.248026 -1.55636 0
M  V30 380 C 42.3188 1.32993 -1.8667 0
M  V30 381 C 43.3318 1.44345 -0.752877 0
M  V30 382 O 44.5208 1.45715 -1.03098 0
M  V30 383 C 41.6208 2.70863 -2.03682 0
M  V30 384 C 40.7938 2.81792 -3.34532 0
M  V30 385 C 39.8528 4.005 -3.41301 0
M  V30 386 O 38.8788 3.9008 -4.14519 0
M  V30 387 N 40.0808 5.13618 -2.70512 0
M  V30 388 H 42.8458 1.06707 -2.8006 0
M  V30 389 H 40.4068 0.438129 -1.55859 0
M  V30 390 H 42.3988 3.48612 -2.05553 0
M  V30 391 H 40.9688 2.89862 -1.17041 0
M  V30 392 H 40.1888 1.90729 -3.44987 0
M  V30 393 H 41.4768 2.86043 -4.20781 0
M  V30 394 H 40.8748 5.24975 -2.10755 0
M  V30 395 H 39.4318 5.89505 -2.78077 0
M  V30 396 N 42.8649 1.48995 0.513639 0
M  V30 397 C 44.2759 1.5119 1.09537 0
M  V30 398 C 44.6269 0.290906 1.94031 0
M  V30 399 O 43.7519 -0.60049 2.07902 0
M  V30 400 C 44.3469 2.73964 1.99322 0
M  V30 401 C 42.9059 2.78978 2.52682 0
M  V30 402 C 42.0529 2.44934 1.30009 0
M  V30 403 H 45.0039 1.55875 0.298125 0
M  V30 404 H 45.0249 2.53409 2.83838 0
M  V30 405 H 44.5369 3.62813 1.37799 0
M  V30 406 H 42.6379 1.94378 3.1788 0
M  V30 407 H 42.7509 3.8083 2.90698 0
M  V30 408 H 41.1149 1.9644 1.62122 0
M  V30 409 H 41.8979 3.36043 0.702131 0
M  V30 410 N 44.343 -0.763751 1.37857 0
M  V30 411 C 45.306 -1.85889 1.34081 0
M  V30 412 C 46.306 -1.58949 0.243277 0
M  V30 413 O 47.496 -1.66882 0.499589 0
M  V30 414 C 44.628 -3.23176 1.08489 0
M  V30 415 H 45.821 -1.90648 2.31502 0
M  V30 416 H 43.374 -0.964367 1.23003 0
M  V30 417 H 44.109 -3.24091 0.116318 0
M  V30 418 H 43.894 -3.44124 1.8794 0
M  V30 419 H 45.384 -4.03254 1.08517 0
M  V30 420 N 45.8211 -1.22559 -0.990812 0
M  V30 421 C 47.0691 -1.04933 -1.72724 0
M  V30 422 C 47.3901 0.416158 -1.90508 0
M  V30 423 O 46.6601 1.29918 -1.46622 0
M  V30 424 H 45.2401 -0.385296 -0.639965 0
M  V30 425 H 47.9021 -1.54105 -1.19322 0
M  V30 426 H 46.9981 -1.52886 -2.72089 0
M  V30 427 N 47.2992 1.18797 -1.03562 0
M  V30 428 C 48.2622 2.20464 -0.626769 0
M  V30 429 C 49.2622 1.57721 0.313173 0
M  V30 430 O 50.4522 1.73917 0.0992615 0
M  V30 431 C 47.5842 3.40802 0.0818498 0
M  V30 432 H 48.7772 2.58149 -1.5264 0
M  V30 433 H 46.3302 1.32593 -0.827578 0
M  V30 434 H 47.0652 3.08642 0.995518 0
M  V30 435 H 46.8502 3.8758 -0.593652 0
M  V30 436 H 48.3402 4.16092 0.354584 0
M  V30 437 N 48.7773 0.814389 1.34928 0
M  V30 438 C 50.0253 0.397636 1.9815 0
M  V30 439 C 50.3463 -1.04069 1.64908 0
M  V30 440 O 49.6163 -1.72121 0.93548 0
M  V30 441 H 48.1963 0.144043 0.732981 0
M  V30 442 H 50.8583 1.04195 1.6471 0
M  V30 443 H 49.9543 0.509688 3.0791 0
M  V30 444 N 50.2554 -1.46986 0.568584 0
M  V30 445 C 51.5034 -2.02041 0.0487022 0
M  V30 446 C 51.8244 -1.44408 -1.31039 0
M  V30 447 O 51.0944 -0.623477 -1.85714 0
M  V30 448 H 49.6744 -0.746849 0.015014 0
M  V30 449 H 52.3364 -1.80257 0.741168 0
M  V30 450 H 51.4324 -3.12085 -0.0308961 0
M  V30 451 N 51.7335 -0.305618 -1.54608 0
M  V30 452 C 52.9635 0.304333 -2.04346 0
M  V30 453 C 53.3715 1.47715 -1.18224 0
M  V30 454 O 52.7145 1.82591 -0.201577 0
M  V30 455 C 52.7765 0.819031 -3.50046 0
M  V30 456 C 52.4405 -0.22912 -4.56425 0
M  V30 457 C 53.4375 -1.05914 -5.08997 0
M  V30 458 C 51.1225 -0.372148 -5.0092 0
M  V30 459 C 53.1165 -2.01809 -6.04609 0
M  V30 460 C 50.8035 -1.33454 -5.9635 0
M  V30 461 C 51.8015 -2.15599 -6.48079 0
M  V30 462 O 51.4895 -3.10205 -7.41639 0
M  V30 463 H 51.2215 0.0693996 -0.672428 0
M  V30 464 H 53.7755 -0.444548 -2.00532 0
M  V30 465 H 52.0055 1.61852 -3.51199 0
M  V30 466 H 53.6945 1.34537 -3.82955 0
M  V30 467 H 54.4605 -0.959538 -4.75413 0
M  V30 468 H 50.3395 0.257304 -4.60281 0
M  V30 469 H 53.8835 -2.65966 -6.44909 0
M  V30 470 H 49.7805 -1.43485 -6.29351 0
M  V30 471 H 50.5485 -3.05237 -7.59455 0
M  V30 472 N 53.2116 1.57565 -0.0334293 0
M  V30 473 C 54.6226 1.79746 0.504798 0
M  V30 474 C 54.9736 0.944091 1.71992 0
M  V30 475 O 54.0986 0.155694 2.15839 0
M  V30 476 C 54.6936 3.25997 0.922567 0
M  V30 477 C 53.2526 3.49159 1.40588 0
M  V30 478 C 52.3996 2.74785 0.372633 0
M  V30 479 H 55.3506 1.56565 -0.259436 0
M  V30 480 H 55.3716 3.35945 1.78666 0
M  V30 481 H 54.8836 3.88081 0.0379825 0
M  V30 482 H 52.9846 2.92332 2.31025 0
M  V30 483 H 53.0976 4.57873 1.41028 0
M  V30 484 H 51.4616 2.40391 0.841672 0
M  V30 485 H 52.2446 3.39587 -0.503559 0
M  V30 486 N 54.6897 -0.239769 1.55765 0
M  V30 487 C 55.9377 -0.964892 1.77579 0
M  V30 488 C 56.2587 -1.85582 0.598699 0
M  V30 489 O 55.5287 -1.92075 -0.385226 0
M  V30 490 H 54.1087 -0.359265 0.654933 0
M  V30 491 H 56.7707 -0.256001 1.93211 0
M  V30 492 H 55.8667 -1.58243 2.69009 0
M  V30 493 N 56.1678 -1.49265 -0.50573 0
M  V30 494 C 57.1308 -1.65075 -1.59006 0
M  V30 495 C 58.1308 -0.522768 -1.52065 0
M  V30 496 O 59.3208 -0.789117 -1.55302 0
M  V30 497 C 56.4528 -1.64369 -2.98656 0
M  V30 498 H 57.6458 -2.61784 -1.46319 0
M  V30 499 H 55.1988 -1.38226 -0.729616 0
M  V30 500 H 55.9338 -0.692272 -3.16825 0
M  V30 501 H 55.7188 -2.46282 -3.05103 0
M  V30 502 H 57.2088 -1.78674 -3.77446 0
M  V30 503 N 57.6459 0.756429 -1.3826 0
M  V30 504 C 58.8709 1.55077 -1.37717 0
M  V30 505 C 59.2959 1.88073 0.03164 0
M  V30 506 O 58.6539 1.50364 1.01293 0
M  V30 507 C 58.7019 2.8283 -2.23695 0
M  V30 508 O 57.8059 3.77862 -1.6521 0
M  V30 509 H 57.1469 0.469152 -0.469885 0
M  V30 510 H 59.6769 0.935019 -1.81985 0
M  V30 511 H 59.6869 3.31783 -2.37453 0
M  V30 512 H 58.3619 2.58144 -3.2609 0
M  V30 513 H 56.9389 3.36555 -1.60578 0
M  V30 514 N 59.124 1.23083 0.984299 0
M  V30 515 C 60.354 1.08556 1.75781 0
M  V30 516 C 60.762 -0.366171 1.85623 0
M  V30 517 O 60.105 -1.26524 1.33182 0
M  V30 518 C 60.167 1.63208 3.20318 0
M  V30 519 C 59.831 3.11922 3.33997 0
M  V30 520 C 60.828 4.09259 3.2063 0
M  V30 521 C 58.513 3.51552 3.58771 0
M  V30 522 C 60.507 5.4421 3.31835 0
M  V30 523 C 58.194 4.86649 3.69616 0
M  V30 524 C 59.192 5.82787 3.56157 0
M  V30 525 O 58.88 7.15431 3.66626 0
M  V30 526 H 58.612 0.380713 0.5586 0
M  V30 527 H 61.166 1.63321 1.2456 0
M  V30 528 H 59.396 1.0286 3.72769 0
M  V30 529 H 61.085 1.44216 3.79416 0
M  V30 530 H 61.851 3.79984 3.01392 0
M  V30 531 H 57.73 2.77239 3.6832 0
M  V30 532 H 61.274 6.1923 3.21247 0
M  V30 533 H 57.171 5.15601 3.88363 0
M  V30 534 H 57.939 7.23127 3.83445 0
M  V30 535 N 60.6021 -1.18246 1.0419 0
M  V30 536 C 62.0131 -1.69914 0.773698 0
M  V30 537 C 62.3641 -1.83085 -0.705297 0
M  V30 538 O 61.4891 -1.51123 -1.5489 0
M  V30 539 C 62.0841 -3.08619 1.39784 0
M  V30 540 C 60.6431 -3.57494 1.17792 0
M  V30 541 C 59.7901 -2.34013 1.48773 0
M  V30 542 H 62.7411 -1.02904 1.20816 0
M  V30 543 H 62.7621 -3.71958 0.801714 0
M  V30 544 H 62.2741 -2.99001 2.47426 0
M  V30 545 H 60.3751 -3.72406 0.120295 0
M  V30 546 H 60.4881 -4.40852 1.87581 0
M  V30 547 H 58.8521 -2.37986 0.907463 0
M  V30 548 H 59.6351 -2.27013 2.57527 0
M  V30 549 N 62.0802 -0.821533 -1.34494 0
M  V30 550 C 63.3282 -0.408139 -1.97936 0
M  V30 551 C 63.6492 1.03193 -1.65457 0
M  V30 552 O 62.9192 1.71622 -0.944595 0
M  V30 553 H 61.4992 -0.147928 -0.732206 0
M  V30 554 H 64.1612 -1.05067 -1.64155 0
M  V30 555 H 63.2572 -0.52601 -3.07635 0
M  V30 556 N 63.5583 1.46682 -0.576371 0
M  V30 557 C 64.5213 2.28707 0.150239 0
M  V30 558 C 65.5213 1.38035 0.824794 0
M  V30 559 O 66.7113 1.60476 0.677719 0
M  V30 560 C 63.8433 3.18248 1.22192 0
M  V30 561 H 65.0363 2.94423 -0.570521 0
M  V30 562 H 62.5893 1.52688 -0.334078 0
M  V30 563 H 63.3243 2.57265 1.97447 0
M  V30 564 H 63.1093 3.85 0.742812 0
M  V30 565 H 64.5993 3.80001 1.73172 0
M  V30 566 N 65.0364 0.313813 1.54444 0
M  V30 567 C 66.2664 -0.293491 2.04505 0
M  V30 568 C 66.6744 -1.47086 1.19005 0
M  V30 569 O 66.0174 -1.82481 0.211257 0
M  V30 570 C 66.0794 -0.800455 3.50475 0
M  V30 571 C 65.7434 0.253322 4.56297 0
M  V30 572 C 66.7404 1.08612 5.08428 0
M  V30 573 C 64.4254 0.398708 5.00715 0
M  V30 574 C 66.4194 2.05013 6.0353 0
M  V30 575 C 64.1064 1.36614 5.95634 0
M  V30 576 C 65.1044 2.19033 6.46926 0
M  V30 577 O 64.7924 3.14134 7.39983 0
M  V30 578 H 64.5244 -0.0658325 0.672787 0
M  V30 579 H 67.0784 0.455177 2.00293 0
M  V30 580 H 65.3084 -1.59987 3.52053 0
M  V30 581 H 66.9974 -1.32504 3.83663 0
M  V30 582 H 67.7634 0.984736 4.74898 0
M  V30 583 H 63.6424 -0.23289 4.60411 0
M  V30 584 H 67.1864 2.69382 6.4349 0
M  V30 585 H 63.0834 1.4682 6.28581 0
M  V30 586 H 63.8514 3.0926 7.57826 0
M  V30 587 N 66.5145 -1.57545 0.0417849 0
M  V30 588 C 67.9255 -1.80011 -0.495259 0
M  V30 589 C 68.2765 -0.953199 -1.71489 0
M  V30 590 O 67.4015 -0.167138 -2.15754 0
M  V30 591 C 67.9965 -3.26482 -0.905265 0
M  V30 592 C 66.5555 -3.499 -1.38734 0
M  V30 593 C 65.7025 -2.74979 -0.358056 0
M  V30 594 H 68.6535 -1.56425 0.267736 0
M  V30 595 H 68.6745 -3.36887 -1.76882 0
M  V30 596 H 68.1865 -3.88096 -0.017401 0
M  V30 597 H 66.2875 -2.93553 -2.29471 0
M  V30 598 H 66.4005 -4.58615 -1.38598 0
M  V30 599 H 64.7645 -2.40834 -0.828912 0
M  V30 600 H 65.5475 -3.39315 0.521561 0
M  V30 601 N 67.9926 0.231505 -1.5589 0
M  V30 602 C 69.2406 0.955461 -1.78088 0
M  V30 603 C 69.5616 1.85262 -0.608533 0
M  V30 604 O 68.8316 1.92277 0.375035 0
M  V30 605 H 67.4116 0.355787 -0.656829 0
M  V30 606 H 70.0736 0.245751 -1.93344 0
M  V30 607 H 69.1696 1.56814 -2.69844 0
M  V30 608 N 69.4707 1.49531 0.497807 0
M  V30 609 C 70.4027 1.62559 1.61578 0
M  V30 610 C 71.4157 0.508134 1.54667 0
M  V30 611 O 72.6047 0.780309 1.60541 0
M  V30 612 C 69.7047 1.56925 3.00379 0
M  V30 613 C 68.8777 2.84257 3.3244 0
M  V30 614 C 67.9367 2.71632 4.50669 0
M  V30 615 O 66.9627 3.4557 4.52294 0
M  V30 616 N 68.1647 1.83391 5.5077 0
M  V30 617 H 70.9297 2.58981 1.50828 0
M  V30 618 H 68.4907 1.4666 0.685743 0
M  V30 619 H 70.4827 1.46129 3.77397 0
M  V30 620 H 69.0527 0.683483 3.05037 0
M  V30 621 H 68.2727 3.09381 2.44289 0
M  V30 622 H 69.5607 3.68666 3.5066 0
M  V30 623 H 68.9587 1.22583 5.52259 0
M  V30 624 H 67.5157 1.78515 6.26878 0
M  V30 625 N 70.9488 -0.749086 1.3866 0
M  V30 626 C 71.9118 -1.84457 1.36045 0
M  V30 627 C 72.9118 -1.58682 0.260122 0
M  V30 628 O 74.1018 -1.66343 0.517261 0
M  V30 629 C 71.2338 -3.22008 1.11911 0
M  V30 630 H 72.4268 -1.88182 2.33512 0
M  V30 631 H 69.9798 -0.951266 1.24019 0
M  V30 632 H 70.7148 -3.2395 0.150686 0
M  V30 633 H 70.4998 -3.42111 1.91579 0
M  V30 634 H 71.9898 -4.0208 1.12788 0
M  V30 635 N 72.4269 -1.23603 -0.977757 0
M  V30 636 C 73.8379 -1.06424 -1.53398 0
M  V30 637 C 74.1889 0.367578 -1.92726 0
M  V30 638 O 73.3139 1.25465 -1.76316 0
M  V30 639 C 73.9089 -1.92568 -2.78753 0
M  V30 640 C 72.4679 -1.79642 -3.30765 0
M  V30 641 C 71.6149 -1.88111 -2.03739 0
M  V30 642 H 74.5659 -1.37227 -0.797152 0
M  V30 643 H 74.5869 -1.45203 -3.51705 0
M  V30 644 H 74.0989 -2.96771 -2.50098 0
M  V30 645 H 72.1999 -0.782325 -3.64294 0
M  V30 646 H 72.3129 -2.63174 -4.00345 0
M  V30 647 H 70.6769 -1.31723 -2.17994 0
M  V30 648 H 71.4599 -2.93875 -1.77461 0
M  V30 649 N 73.905 1.17692 -1.04816 0
M  V30 650 C 75.316 1.69501 -0.782698 0
M  V30 651 C 75.667 1.83456 0.695577 0
M  V30 652 O 74.792 1.51942 1.54086 0
M  V30 653 C 75.387 3.07874 -1.41419 0
M  V30 654 C 73.946 3.56864 -1.19686 0
M  V30 655 C 73.093 2.3322 -1.50012 0
M  V30 656 H 76.044 1.02262 -1.2136 0
M  V30 657 H 76.065 3.71528 -0.821428 0
M  V30 658 H 75.577 2.97685 -2.49009 0
M  V30 659 H 73.678 3.72337 -0.140043 0
M  V30 660 H 73.791 4.39851 -1.89916 0
M  V30 661 H 72.155 2.37501 -0.920071 0
M  V30 662 H 72.938 2.25644 -2.58727 0
M  V30 663 N 75.3831 0.828654 1.34056 0
M  V30 664 C 76.6311 0.41863 1.97717 0
M  V30 665 C 76.9521 -1.02314 1.66002 0
M  V30 666 O 76.2221 -1.71119 0.953683 0
M  V30 667 H 74.8021 0.151809 0.731412 0
M  V30 668 H 77.4641 1.05936 1.63596 0
M  V30 669 H 76.5601 0.542318 3.07352 0
M  V30 670 N 76.8612 -1.46375 0.584142 0
M  V30 671 C 77.8242 -2.28784 -0.138108 0
M  V30 672 C 78.8242 -1.38471 -0.817462 0
M  V30 673 O 80.0142 -1.60833 -0.669199 0
M  V30 674 C 77.1462 -3.18892 -1.20503 0
M  V30 675 H 78.3392 -2.94117 0.586127 0
M  V30 676 H 75.8922 -1.52509 0.342171 0
M  V30 677 H 76.6272 -2.58309 -1.96079 0
M  V30 678 H 76.4122 -3.85388 -0.722384 0
M  V30 679 H 77.9022 -3.80914 -1.71155 0
M  V30 680 N 78.3393 -0.321999 -1.54275 0
M  V30 681 C 79.5693 0.282642 -2.04658 0
M  V30 682 C 79.9773 1.46453 -1.19784 0
M  V30 683 O 79.3203 1.82367 -0.220932 0
M  V30 684 C 79.3823 0.781857 -3.50895 0
M  V30 685 C 79.0463 -0.277517 -4.56157 0
M  V30 686 C 80.0433 -1.11307 -5.07845 0
M  V30 687 C 77.7283 -0.425256 -5.00497 0
M  V30 688 C 79.7223 -2.08211 -6.02434 0
M  V30 689 C 77.4093 -1.39771 -5.94901 0
M  V30 690 C 78.4073 -2.2246 -6.45756 0
M  V30 691 O 78.0953 -3.18054 -7.38307 0
M  V30 692 H 77.8273 0.0622636 -0.673126 0
M  V30 693 H 80.3813 -0.465792 -2.00049 0
M  V30 694 H 78.6113 1.58118 -3.52896 0
M  V30 695 H 80.3003 1.30467 -3.84361 0
M  V30 696 H 81.0663 -1.00991 -4.74369 0
M  V30 697 H 76.9453 0.20847 -4.60528 0
M  V30 698 H 80.4893 -2.72791 -6.42052 0
M  V30 699 H 76.3863 -1.50152 -6.27794 0
M  V30 700 H 77.1543 -3.13275 -7.56175 0
M  V30 701 N 79.8174 1.5752 -0.0501392 0
M  V30 702 C 81.2284 1.80271 0.485705 0
M  V30 703 C 81.5794 0.96228 1.70981 0
M  V30 704 O 80.7044 0.178578 2.15662 0
M  V30 705 C 81.2994 3.26957 0.887938 0
M  V30 706 C 79.8584 3.5063 1.36877 0
M  V30 707 C 79.0054 2.75165 0.343468 0
M  V30 708 H 81.9564 1.56281 -0.276028 0
M  V30 709 H 81.9774 3.37821 1.75093 0
M  V30 710 H 81.4894 3.881 -0.0031809 0
M  V30 711 H 79.5904 2.94766 2.27911 0
M  V30 712 H 79.7034 4.59343 1.36164 0
M  V30 713 H 78.0674 2.4127 0.816128 0
M  V30 714 H 78.8504 3.39034 -0.539548 0
M  V30 715 N 81.2955 -0.223234 1.56011 0
M  V30 716 C 82.5435 -0.946003 1.78592 0
M  V30 717 C 82.8645 -1.84936 0.618349 0
M  V30 718 O 82.1345 -1.92473 -0.364833 0
M  V30 719 H 80.7145 -0.352298 0.658707 0
M  V30 720 H 83.3765 -0.235494 1.93472 0
M  V30 721 H 82.4725 -1.55381 2.70672 0
M  V30 722 N 82.7736 -1.49793 -0.48987 0
M  V30 723 C 83.7056 -1.63413 -1.60713 0
M  V30 724 C 84.7186 -0.516329 -1.54395 0
M  V30 725 O 85.9076 -0.788812 -1.60125 0
M  V30 726 C 83.0076 -1.58516 -2.99543 0
M  V30 727 C 82.1806 -2.86016 -3.30928 0
M  V30 728 C 81.2396 -2.74018 -4.49222 0
M  V30 729 O 80.2656 -3.47964 -4.50455 0
M  V30 730 N 81.4676 -1.86309 -5.4979 0
M  V30 731 H 84.2326 -2.59777 -1.49452 0
M  V30 732 H 81.7936 -1.47022 -0.677955 0
M  V30 733 H 83.7856 -1.48128 -3.76617 0
M  V30 734 H 82.3556 -0.69965 -3.0467 0
M  V30 735 H 81.5756 -3.10672 -2.42645 0
M  V30 736 H 82.8636 -3.70521 -3.487 0
M  V30 737 H 82.2616 -1.2551 -5.51601 0
M  V30 738 H 80.8186 -1.81837 -6.25922 0
M  V30 739 N 84.2517 0.741722 -1.39055 0
M  V30 740 C 85.2147 1.83733 -1.37021 0
M  V30 741 C 86.2147 1.58542 -0.268534 0
M  V30 742 O 87.4047 1.66067 -0.526076 0
M  V30 743 C 84.5367 3.2141 -1.13617 0
M  V30 744 H 85.7297 1.86941 -2.34506 0
M  V30 745 H 83.2827 0.944676 -1.24521 0
M  V30 746 H 84.0177 3.23865 -0.167863 0
M  V30 747 H 83.8027 3.4109 -1.93391 0
M  V30 748 H 85.2927 4.01477 -1.14918 0
M  V30 749 N 85.7298 1.2412 0.971189 0
M  V30 750 C 87.1408 1.07236 1.52831 0
M  V30 751 C 87.4918 -0.357352 1.92918 0
M  V30 752 O 86.6168 -1.24528 1.76979 0
M  V30 753 C 87.2118 1.94043 2.77728 0
M  V30 754 C 85.7708 1.81394 3.29808 0
M  V30 755 C 84.9178 1.89189 2.02738 0
M  V30 756 H 87.8688 1.37648 0.789864 0
M  V30 757 H 87.8898 1.47066 3.5093 0
M  V30 758 H 87.4018 2.98093 2.4852 0
M  V30 759 H 85.5028 0.801634 3.63874 0
M  V30 760 H 85.6158 2.65294 3.98944 0
M  V30 761 H 83.9798 1.32877 2.17292 0
M  V30 762 H 84.7628 2.94812 1.759 0
M  V30 763 N 87.2079 -1.17134 1.05439 0
M  V30 764 C 88.6189 -1.69084 0.791676 0
M  V30 765 C 88.9699 -1.83822 -0.685839 0
M  V30 766 O 88.0949 -1.52757 -1.53278 0
M  V30 767 C 88.6899 -3.07119 1.4305 0
M  V30 768 C 87.2489 -3.56225 1.21577 0
M  V30 769 C 86.3959 -2.32421 1.51247 0
M  V30 770 H 89.3469 -1.01617 1.219 0
M  V30 771 H 89.3679 -3.71087 0.84112 0
M  V30 772 H 88.8799 -2.9636 2.50584 0
M  V30 773 H 86.9809 -3.72257 0.159787 0
M  V30 774 H 87.0939 -4.38837 1.92246 0
M  V30 775 H 85.4579 -2.3701 0.932653 0
M  V30 776 H 86.2409 -2.24268 2.5992 0
M  V30 777 N 88.686 -0.835752 -1.33615 0
M  V30 778 C 89.934 -0.429109 -1.97492 0
M  V30 779 C 90.255 1.01433 -1.66543 0
M  V30 780 O 89.525 1.70611 -0.962744 0
M  V30 781 H 88.105 -0.155686 -0.730596 0
M  V30 782 H 90.767 -1.06802 -1.63031 0
M  V30 783 H 89.863 -0.55861 -3.0706 0
M  V30 784 N 90.1641 1.46063 -0.591896 0
M  V30 785 C 91.1271 2.28854 0.125973 0
M  V30 786 C 92.1271 1.38903 0.810107 0
M  V30 787 O 93.3171 1.61186 0.66066 0
M  V30 788 C 90.4491 3.19526 1.1881 0
M  V30 789 H 91.6421 2.93802 -0.601717 0
M  V30 790 H 89.1951 1.52325 -0.350254 0
M  V30 791 H 89.9301 2.59345 1.94707 0
M  V30 792 H 89.7151 3.85766 0.701936 0
M  V30 793 H 91.2051 3.81817 1.69132 0
M  V30 794 N 91.6422 0.330177 1.54103 0
M  V30 795 C 92.8722 -0.271784 2.04805 0
M  V30 796 C 93.2802 -1.45816 1.20559 0
M  V30 797 O 92.6232 -1.82247 0.2306 0
M  V30 798 C 92.6852 -0.763238 3.51305 0
M  V30 799 C 92.3492 0.301705 4.56003 0
M  V30 800 C 93.3462 1.13999 5.07248 0
M  V30 801 C 91.0312 0.451793 5.00264 0
M  V30 802 C 93.0252 2.11402 6.01322 0
M  V30 803 C 90.7122 1.42924 5.94151 0
M  V30 804 C 91.7102 2.25882 6.44567 0
M  V30 805 O 91.3982 3.21965 7.3661 0
M  V30 806 H 91.1302 -0.058693 0.673447 0
M  V30 807 H 93.6842 0.476395 1.99799 0
M  V30 808 H 91.9142 -1.56244 3.5373 0
M  V30 809 H 93.6032 -1.28427 3.85047 0
M  V30 810 H 94.3692 1.03505 4.73827 0
M  V30 811 H 90.2482 -0.184044 4.60632 0
M  V30 812 H 93.7922 2.76192 6.40596 0
M  V30 813 H 89.6892 1.53479 6.26988 0
M  V30 814 H 90.4572 3.17281 7.54503 0
M  V30 815 N 93.1203 -1.57491 0.0584922 0
M  V30 816 C 94.5313 -1.80526 -0.476138 0
M  V30 817 C 94.8823 -0.971334 -1.70469 0
M  V30 818 O 94.0073 -0.190012 -2.15564 0
M  V30 819 C 94.6023 -3.27424 -0.870587 0
M  V30 820 C 93.1613 -3.51351 -1.35015 0
M  V30 821 C 92.3083 -2.75343 -0.32887 0
M  V30 822 H 95.2593 -1.56133 0.284312 0
M  V30 823 H 95.2803 -3.38745 -1.73299 0
M  V30 824 H 94.7923 -3.88093 0.0237627 0
M  V30 825 H 92.8933 -2.95971 -2.26345 0
M  V30 826 H 93.0063 -4.60059 -1.33726 0
M  V30 827 H 91.3703 -2.417 -0.803321 0
M  V30 828 H 92.1533 -3.38743 0.557521 0
M  V30 829 N 94.5984 0.214957 -1.56127 0
M  V30 830 C 95.8464 0.936518 -1.79091 0
M  V30 831 C 96.1674 1.84606 -0.628148 0
M  V30 832 O 95.4374 1.92664 0.35462 0
M  V30 833 H 94.0174 0.3488 -0.660566 0
M  V30 834 H 96.6794 0.22523 -1.93594 0
M  V30 835 H 95.7754 1.53943 -2.71492 0
M  V30 836 N 96.0765 1.50051 0.48192 0
M  V30 837 C 97.0395 1.67584 1.5636 0
M  V30 838 C 98.0395 0.546894 1.51214 0
M  V30 839 O 99.2295 0.813725 1.54026 0
M  V30 840 C 96.3615 1.691 2.96003 0
M  V30 841 H 97.5545 2.64078 1.42136 0
M  V30 842 H 95.1075 1.39369 0.707533 0
M  V30 843 H 95.8425 0.742589 3.15684 0
M  V30 844 H 95.6275 2.51105 3.01146 0
M  V30 845 H 97.1175 1.84656 3.74556 0
M  V30 846 N 97.5546 -0.734337 1.39446 0
M  V30 847 C 98.9656 -1.31264 1.32766 0
M  V30 848 C 99.3166 -1.96198 -0.00767497 0
M  V30 849 O 98.4416 -1.96346 -0.909796 0
M  V30 850 C 99.0366 -2.38682 2.4045 0
M  V30 851 C 97.5956 -2.92184 2.37288 0
M  V30 852 C 96.7426 -1.6576 2.22304 0
M  V30 853 H 99.6936 -0.531799 1.49525 0
M  V30 854 H 99.7146 -3.19087 2.07276 0
M  V30 855 H 99.2266 -1.91392 3.37625 0
M  V30 856 H 97.3276 -3.43752 1.43754 0
M  V30 857 H 97.4406 -3.45253 3.3217 0
M  V30 858 H 95.8046 -1.9012 1.69489 0
M  V30 859 H 96.5876 -1.20521 3.21449 0
M  V30 860 N 99.0327 -1.24633 -0.964593 0
M  V30 861 C 100.281 -1.08573 -1.70459 0
M  V30 862 C 100.602 0.375655 -1.91347 0
M  V30 863 O 99.8717 1.26779 -1.49345 0
M  V30 864 H 98.4517 -0.398784 -0.631649 0
M  V30 865 H 101.114 -1.56601 -1.16026 0
M  V30 866 H 100.21 -1.58623 -2.68785 0
M  V30 867 N 100.511 1.16574 -1.06058 0
M  V30 868 C 101.474 2.19085 -0.673392 0
M  V30 869 C 102.474 1.5835 0.279648 0
M  V30 870 O 103.664 1.74088 0.0623488 0
M  V30 871 C 100.796 3.40899 0.00954234 0
M  V30 872 H 101.989 2.54853 -1.58081 0
M  V30 873 H 99.5418 1.30808 -0.855516 0
M  V30 874 H 100.277 3.10684 0.929826 0
M  V30 875 H 100.062 3.86233 -0.67573 0
M  V30 876 H 101.552 4.1675 0.266245 0
M  V30 877 N 101.989 0.842826 1.3317 0
M  V30 878 C 103.219 0.453397 2.01564 0
M  V30 879 C 103.627 -0.951147 1.63554 0
M  V30 880 O 102.97 -1.63021 0.846746 0
M  V30 881 C 103.032 0.499013 3.5602 0
M  V30 882 C 102.696 1.86037 4.1742 0
M  V30 883 C 103.693 2.82416 4.36506 0
M  V30 884 C 101.378 2.15428 4.53757 0
M  V30 885 C 103.372 4.06346 4.91082 0
M  V30 886 C 101.059 3.39615 5.0804 0
M  V30 887 C 102.057 4.3489 5.26649 0
M  V30 888 O 101.745 5.5688 5.79776 0
M  V30 889 H 101.477 0.177871 0.652179 0
M  V30 890 H 104.031 1.13808 1.70988 0
M  V30 891 H 102.261 -0.242467 3.85939 0
M  V30 892 H 103.95 0.126852 4.05702 0
M  V30 893 H 104.716 2.6101 4.08777 0
M  V30 894 H 100.595 1.42061 4.38565 0
M  V30 895 H 104.139 4.80722 5.05522 0
M  V30 896 H 100.036 3.60876 5.352 0
M  V30 897 H 100.804 5.58674 5.98185 0
M  V30 898 N 103.467 -1.45747 0.599634 0
M  V30 899 C 104.878 -1.85853 0.177681 0
M  V30 900 C 105.229 -1.50102 -1.26348 0
M  V30 901 O 104.354 -0.923905 -1.95686 0
M  V30 902 C 104.949 -3.37326 0.315688 0
M  V30 903 C 103.508 -3.76365 -0.0515144 0
M  V30 904 C 102.655 -2.69722 0.643822 0
M  V30 905 H 105.606 -1.36661 0.806814 0
M  V30 906 H 105.627 -3.77778 -0.454321 0
M  V30 907 H 105.139 -3.63315 1.36468 0
M  V30 908 H 103.24 -3.55993 -1.09999 0
M  V30 909 H 103.353 -4.77916 0.336594 0
M  V30 910 H 101.717 -2.54567 0.0822881 0
M  V30 911 H 102.5 -2.98549 1.6948 0
M  V30 912 N 104.945 -0.338344 -1.53925 0
M  V30 913 C 106.193 0.259245 -2.0043 0
M  V30 914 C 106.514 1.51484 -1.22791 0
M  V30 915 O 105.784 1.93037 -0.33368 0
M  V30 916 H 104.364 0.0987845 -0.740439 0
M  V30 917 H 107.026 -0.458302 -1.89435 0
M  V30 918 H 106.122 0.505334 -3.07982 0
M  V30 919 N 106.423 1.57458 -0.0668435 0
M  V30 920 C 107.386 2.11323 0.887422 0
M  V30 921 C 108.386 1.03618 1.22964 0
M  V30 922 O 109.576 1.29626 1.16373 0
M  V30 923 C 106.708 2.61048 2.19242 0
M  V30 924 H 107.901 2.96942 0.420194 0
M  V30 925 H 105.454 1.55239 0.181793 0
M  V30 926 H 106.189 1.78868 2.70512 0
M  V30 927 H 105.974 3.39769 1.95702 0
M  V30 928 H 107.464 3.02814 2.87565 0
M  V30 929 N 107.901 -0.206675 1.56239 0
M  V30 930 C 109.312 -0.772383 1.69974 0
M  V30 931 C 109.663 -1.84353 0.671436 0
M  V30 932 O 108.788 -2.15695 -0.174491 0
M  V30 933 C 109.383 -1.40779 3.08167 0
M  V30 934 C 107.942 -1.92072 3.23706 0
M  V30 935 C 107.089 -0.786347 2.65917 0
M  V30 936 H 110.04 0.0182223 1.5869 0
M  V30 937 H 110.061 -2.27696 3.04852 0
M  V30 938 H 109.573 -0.627958 3.82986 0
M  V30 939 H 107.674 -2.7281 2.53782 0
M  V30 940 H 107.787 -2.09046 4.31087 0
M  V30 941 H 106.151 -1.1976 2.24788 0
M  V30 942 H 106.934 -0.0189416 3.43295 0
M  V30 943 N 109.379 -1.50304 -0.473955 0
M  V30 944 C 110.342 -1.6841 -1.55469 0
M  V30 945 C 111.342 -0.554905 -1.50922 0
M  V30 946 O 112.532 -0.821882 -1.53593 0
M  V30 947 C 109.664 -1.70667 -2.95102 0
M  V30 948 H 110.857 -2.64828 -1.40733 0
M  V30 949 H 108.41 -1.39742 -0.700132 0
M  V30 950 H 109.145 -0.75932 -3.15285 0
M  V30 951 H 108.93 -2.52698 -2.9981 0
M  V30 952 H 110.42 -1.8664 -3.73571 0
M  V30 953 N 110.857 0.726932 -1.39834 0
M  V30 954 C 112.268 1.30558 -1.3346 0
M  V30 955 C 112.619 1.962 -0.00273003 0
M  V30 956 O 111.744 1.96826 0.899371 0
M  V30 957 C 112.339 2.37404 -2.41713 0
M  V30 958 C 110.898 2.90921 -2.38835 0
M  V30 959 C 110.045 1.64578 -2.2318 0
M  V30 960 H 112.996 0.523862 -1.49804 0
M  V30 961 H 113.017 3.17984 -2.08966 0
M  V30 962 H 112.529 1.89599 -3.38635 0
M  V30 963 H 110.63 3.42985 -1.45575 0
M  V30 964 H 110.743 3.43487 -3.33997 0
M  V30 965 H 109.107 1.89219 -1.70494 0
M  V30 966 H 109.89 1.18814 -3.22084 0
M  V30 967 N 112.336 1.25143 0.95797 0
M  V30 968 C 113.584 1.09476 1.69881 0
M  V30 969 C 113.905 -0.365502 1.91544 0
M  V30 970 O 113.175 -1.25985 1.50015 0
M  V30 971 H 111.755 0.402128 0.629525 0
M  V30 972 H 114.417 1.57214 1.15194 0
M  V30 973 H 113.513 1.60046 2.6794 0
M  V30 974 N 113.814 -1.1601 1.06675 0
M  V30 975 C 115.06 -1.86909 0.786945 0
M  V30 976 C 115.393 -1.81717 -0.685018 0
M  V30 977 O 114.668 -1.23551 -1.50218 0
M  V30 978 C 114.951 -3.36313 1.28707 0
M  V30 979 C 114.804 -3.50175 2.82308 0
M  V30 980 C 116.123 -4.3084 0.898071 0
M  V30 981 H 113.242 -0.678677 0.287343 0
M  V30 982 H 115.884 -1.36336 1.32334 0
M  V30 983 H 114.034 -3.79513 0.830768 0
M  V30 984 H 115.706 -3.15886 3.36175 0
M  V30 985 H 113.949 -2.91959 3.20847 0
M  V30 986 H 114.62 -4.55116 3.12368 0
M  V30 987 H 117.096 -3.95561 1.29114 0
M  V30 988 H 115.972 -5.33876 1.27543 0
M  V30 989 H 116.233 -4.41662 -0.196651 0
M  V30 990 N 115.292 -0.849877 -1.32721 0
M  V30 991 C 116.522 -0.46408 -2.0132 0
M  V30 992 C 116.93 0.94246 -1.64056 0
M  V30 993 O 116.273 1.6257 -0.855379 0
M  V30 994 C 116.335 -0.517887 -3.5575 0
M  V30 995 C 115.999 -1.88248 -4.16427 0
M  V30 996 C 116.996 -2.84726 -4.35002 0
M  V30 997 C 114.681 -2.17832 -4.52609 0
M  V30 998 C 116.675 -4.08945 -4.8892 0
M  V30 999 C 114.362 -3.42304 -5.06232 0
M  V30 1000 C 115.36 -4.37677 -5.24335 0
M  V30 1001 O 115.048 -5.59946 -5.76815 0
M  V30 1002 H 114.78 -0.181327 -0.651227 0
M  V30 1003 H 117.334 -1.14713 -1.70382 0
M  V30 1004 H 115.564 0.221997 -3.86062 0
M  V30 1005 H 117.253 -0.148366 -4.05629 0
M  V30 1006 H 118.019 -2.63174 -4.07388 0
M  V30 1007 H 113.898 -1.44385 -4.37806 0
M  V30 1008 H 117.442 -4.83396 -5.02966 0
M  V30 1009 H 113.339 -3.63709 -5.33278 0
M  V30 1010 H 114.107 -5.61838 -5.95214 0
M  V30 1011 N 116.77 1.45427 -0.607355 0
M  V30 1012 C 118.181 1.85756 -0.187535 0
M  V30 1013 C 118.532 1.5077 1.25551 0
M  V30 1014 O 117.657 0.93427 1.95193 0
M  V30 1015 C 118.252 3.37154 -0.333572 0
M  V30 1016 C 116.811 3.76387 0.0315542 0
M  V30 1017 C 115.958 2.69377 -0.658117 0
M  V30 1018 H 118.909 1.36231 -0.81405 0
M  V30 1019 H 118.93 3.78014 0.43428 0
M  V30 1020 H 118.442 3.62586 -1.38393 0
M  V30 1021 H 116.543 3.56571 1.0811 0
M  V30 1022 H 116.656 4.77731 -0.361935 0
M  V30 1023 H 115.02 2.5452 -0.0957873 0
M  V30 1024 H 115.803 2.97646 -1.7106 0
M  V30 1025 N 118.248 0.346503 1.53744 0
M  V30 1026 C 119.496 -0.248612 2.00565 0
M  V30 1027 C 119.817 -1.5083 1.23593 0
M  V30 1028 O 119.087 -1.92858 0.343912 0
M  V30 1029 H 117.667 -0.0948564 0.740953 0
M  V30 1030 H 120.329 0.468341 1.89189 0
M  V30 1031 H 119.425 -0.488994 3.08245 0
M  V30 1032 N 119.726 -1.57421 0.075193 0
M  V30 1033 C 121.137 -1.81021 -0.456964 0
M  V30 1034 C 121.488 -0.98936 -1.69429 0
M  V30 1035 O 120.613 -0.212865 -2.15351 0
M  V30 1036 C 121.208 -3.28329 -0.83581 0
M  V30 1037 C 119.767 -3.52764 -1.31281 0
M  V30 1038 C 118.914 -2.75676 -0.299648 0
M  V30 1039 H 121.865 -1.55822 0.300856 0
M  V30 1040 H 121.886 -3.40564 -1.69696 0
M  V30 1041 H 121.398 -3.88046 0.0649238 0
M  V30 1042 H 119.499 -2.98355 -2.23193 0
M  V30 1043 H 119.612 -4.61451 -1.28839 0
M  V30 1044 H 117.976 -2.42538 -0.777641 0
M  V30 1045 H 118.759 -3.38132 0.593417 0
M  V30 1046 N 121.204 0.198386 -1.56346 0
M  V30 1047 C 122.615 0.763358 -1.70381 0
M  V30 1048 C 122.966 1.83995 -0.681203 0
M  V30 1049 O 122.091 2.15785 0.16305 0
M  V30 1050 C 122.686 1.39143 -3.08909 0
M  V30 1051 C 121.245 1.90352 -3.2472 0
M  V30 1052 C 120.392 0.772233 -2.6633 0
M  V30 1053 H 123.343 -0.0266377 -1.58678 0
M  V30 1054 H 123.364 2.26076 -3.06055 0
M  V30 1055 H 122.876 0.607638 -3.83314 0
M  V30 1056 H 120.977 2.71461 -2.55225 0
M  V30 1057 H 121.09 2.06757 -4.3219 0
M  V30 1058 H 119.454 1.18566 -2.2542 0
M  V30 1059 H 120.237 0.00073556 -3.433 0
M  V30 1060 N 122.682 1.50554 0.465978 0
M  V30 1061 C 123.907 1.65838 1.24549 0
M  V30 1062 C 124.332 0.343486 1.84937 0
M  V30 1063 O 123.69 -0.69324 1.67523 0
M  V30 1064 C 123.738 2.75533 2.32624 0
M  V30 1065 O 122.842 2.37142 3.37398 0
M  V30 1066 H 122.183 0.553893 0.366194 0
M  V30 1067 H 124.713 1.96959 0.553927 0
M  V30 1068 H 124.723 2.98763 2.77857 0
M  V30 1069 H 123.398 3.70962 1.88043 0
M  V30 1070 H 121.975 2.24377 2.97841 0
M  V30 1071 N 124.16 -0.719506 1.40217 0
M  V30 1072 C 125.408 -1.47641 1.3801 0
M  V30 1073 C 125.729 -1.94992 -0.018145 0
M  V30 1074 O 124.999 -1.70073 -0.972207 0
M  V30 1075 H 123.579 -0.547744 0.507923 0
M  V30 1076 H 126.241 -0.853187 1.75233 0
M  V30 1077 H 125.337 -2.35112 2.05253 0
M  V30 1078 N 125.638 -1.25649 -0.95132 0
M  V30 1079 C 127.049 -1.09654 -1.51106 0
M  V30 1080 C 127.4 0.326615 -1.93462 0
M  V30 1081 O 126.525 1.21697 -1.78938 0
M  V30 1082 C 127.12 -1.98437 -2.74605 0
M  V30 1083 C 125.679 -1.86618 -3.2688 0
M  V30 1084 C 124.826 -1.9239 -1.99703 0
M  V30 1085 H 127.777 -1.38887 -0.767865 0
M  V30 1086 H 127.798 -1.5263 -3.48546 0
M  V30 1087 H 127.31 -3.02009 -2.43746 0
M  V30 1088 H 125.411 -0.859421 -3.62553 0
M  V30 1089 H 125.524 -2.71607 -3.94673 0
M  V30 1090 H 123.888 -1.36317 -2.15151 0
M  V30 1091 H 124.671 -2.97573 -1.71188 0
M  V30 1092 N 127.117 1.15442 -1.07289 0
M  V30 1093 C 128.365 1.85845 -0.794096 0
M  V30 1094 C 128.686 1.82692 0.681809 0
M  V30 1095 O 127.956 1.26741 1.49377 0
M  V30 1096 H 126.536 0.688089 -0.290763 0
M  V30 1097 H 129.198 1.39947 -1.3565 0
M  V30 1098 H 128.294 2.91001 -1.12804 0
M  V30 1099 N 128.595 0.856903 1.32268 0
M  V30 1100 C 129.558 0.308171 2.27119 0
M  V30 1101 C 130.558 -0.533421 1.51695 0
M  V30 1102 O 131.748 -0.344607 1.70757 0
M  V30 1103 C 128.88 -0.563757 3.36206 0
M  V30 1104 H 130.073 1.14535 2.77167 0
M  V30 1105 H 127.626 0.631421 1.42978 0
M  V30 1106 H 128.361 -1.42266 2.91429 0
M  V30 1107 H 128.146 0.0386749 3.92081 0
M  V30 1108 H 129.636 -0.940386 4.06874 0
M  V30 1109 N 130.073 -1.45103 0.615059 0
M  V30 1110 C 131.303 -2.06254 0.119596 0
M  V30 1111 C 131.711 -1.4591 -1.20445 0
M  V30 1112 O 131.054 -0.570384 -1.7462 0
M  V30 1113 C 131.116 -3.59396 -0.0865591 0
M  V30 1114 C 130.78 -4.42116 1.15683 0
M  V30 1115 C 131.777 -4.7662 2.07676 0
M  V30 1116 C 129.462 -4.82749 1.38775 0
M  V30 1117 C 131.456 -5.50622 3.21082 0
M  V30 1118 C 129.143 -5.56504 2.52481 0
M  V30 1119 C 130.141 -5.90358 3.43463 0
M  V30 1120 O 129.829 -6.62615 4.55189 0
M  V30 1121 H 129.561 -0.672423 0.0694512 0
M  V30 1122 H 132.115 -1.87219 0.844885 0
M  V30 1123 H 130.345 -3.76859 -0.866823 0
M  V30 1124 H 132.034 -4.02365 -0.534555 0
M  V30 1125 H 132.8 -4.4578 1.91063 0
M  V30 1126 H 128.679 -4.55829 0.688545 0
M  V30 1127 H 132.223 -5.76965 3.92119 0
M  V30 1128 H 128.12 -5.86759 2.69043 0
M  V30 1129 H 128.888 -6.81071 4.53966 0
M  V30 1130 N 131.551 -0.354651 -1.53558 0
M  V30 1131 C 132.962 0.126902 -1.86268 0
M  V30 1132 C 133.313 1.49075 -1.27558 0
M  V30 1133 O 132.438 2.08105 -0.5934 0
M  V30 1134 C 133.033 0.237046 -3.3797 0
M  V30 1135 C 131.592 0.662842 -3.70518 0
M  V30 1136 C 130.739 -0.196652 -2.76602 0
M  V30 1137 H 133.69 -0.573849 -1.47962 0
M  V30 1138 H 133.711 1.06259 -3.65362 0
M  V30 1139 H 133.223 -0.755725 -3.80671 0
M  V30 1140 H 131.324 1.66424 -3.33367 0
M  V30 1141 H 131.437 0.445034 -4.77029 0
M  V30 1142 H 129.801 0.332763 -2.52517 0
M  V30 1143 H 130.584 -1.18676 -3.22135 0
M  V30 1144 N 133.029 1.57378 -0.0835403 0
M  V30 1145 C 134.254 1.98682 0.594987 0
M  V30 1146 C 134.679 0.961969 1.61641 0
M  V30 1147 O 134.037 -0.0709989 1.81161 0
M  V30 1148 C 134.085 3.38988 1.2296 0
M  V30 1149 O 133.189 3.39208 2.34546 0
M  V30 1150 H 132.53 0.646368 0.152002 0
M  V30 1151 H 135.06 2.03961 -0.161533 0
M  V30 1152 H 135.07 3.76431 1.57366 0
M  V30 1153 H 133.745 4.13107 0.481228 0
M  V30 1154 H 132.322 3.13548 2.01846 0
M  V30 1155 N 134.507 -0.190092 1.56449 0
M  V30 1156 C 135.732 -0.929864 1.85387 0
M  V30 1157 C 136.157 -1.7585 0.667704 0
M  V30 1158 O 135.515 -1.77198 -0.383459 0
M  V30 1159 C 135.563 -1.79773 3.12593 0
M  V30 1160 O 134.667 -2.89713 2.93496 0
M  V30 1161 H 134.008 -0.261574 0.610307 0
M  V30 1162 H 136.538 -0.193896 2.03679 0
M  V30 1163 H 136.548 -2.20139 3.43515 0
M  V30 1164 H 135.223 -1.18892 3.98544 0
M  V30 1165 H 133.8 -2.53065 2.73884 0
M  V30 1166 N 135.985 -1.50799 -0.457987 0
M  V30 1167 C 137.233 -1.62121 -1.2067 0
M  V30 1168 C 137.554 -0.329793 -1.92191 0
M  V30 1169 O 136.824 0.653409 -1.84682 0
M  V30 1170 H 135.404 -0.597441 -0.448411 0
M  V30 1171 H 138.066 -1.87637 -0.527096 0
M  V30 1172 H 137.162 -2.43882 -1.94751 0
M  V30 1173 N 137.463 0.71206 -1.40597 0
M  V30 1174 C 138.395 1.83704 -1.37061 0
M  V30 1175 C 139.408 1.60453 -0.275426 0
M  V30 1176 O 140.597 1.70262 -0.53602 0
M  V30 1177 C 137.697 3.20172 -1.11099 0
M  V30 1178 C 136.87 3.7059 -2.3234 0
M  V30 1179 C 135.929 4.85681 -2.02485 0
M  V30 1180 O 134.955 4.9815 -2.75382 0
M  V30 1181 N 136.157 5.71735 -1.00497 0
M  V30 1182 H 138.922 1.87235 -2.34016 0
M  V30 1183 H 136.483 0.893739 -1.34996 0
M  V30 1184 H 138.475 3.94768 -0.891064 0
M  V30 1185 H 137.045 3.11767 -0.227989 0
M  V30 1186 H 136.265 2.87085 -2.7014 0
M  V30 1187 H 137.553 4.01011 -3.13157 0
M  V30 1188 H 136.951 5.64275 -0.401298 0
M  V30 1189 H 135.508 6.463 -0.844942 0
M  V30 1190 N 138.941 1.26152 0.944643 0
M  V30 1191 C 140.352 1.10454 1.50522 0
M  V30 1192 C 140.703 -0.31635 1.93633 0
M  V30 1193 O 139.828 -1.20746 1.79581 0
M  V30 1194 C 140.423 1.99891 2.73549 0
M  V30 1195 C 138.982 1.88348 3.25886 0
M  V30 1196 C 138.129 1.93447 1.9868 0
M  V30 1197 H 141.08 1.39292 0.760489 0
M  V30 1198 H 141.101 1.54477 3.47732 0
M  V30 1199 H 140.613 3.03297 2.42141 0
M  V30 1200 H 138.714 0.878636 3.62092 0
M  V30 1201 H 138.827 2.73696 3.93227 0
M  V30 1202 H 137.191 1.37456 2.14425 0
M  V30 1203 H 137.974 2.98476 1.69607 0
M  V30 1204 N 140.419 -1.14872 1.07899 0
M  V30 1205 C 141.644 -1.90202 0.826926 0
M  V30 1206 C 142.069 -1.77774 -0.614664 0
M  V30 1207 O 141.427 -1.11431 -1.43013 0
M  V30 1208 C 141.475 -3.38352 1.24702 0
M  V30 1209 O 140.579 -4.10497 0.39575 0
M  V30 1210 H 139.92 -0.591968 0.300782 0
M  V30 1211 H 142.45 -1.45437 1.43907 0
M  V30 1212 H 142.46 -3.89156 1.22563 0
M  V30 1213 H 141.135 -3.46715 2.29698 0
M  V30 1214 H 139.712 -3.69796 0.480117 0
M  V30 1215 N 141.898 -0.863906 -1.31812 0
M  V30 1216 C 142.861 -0.320212 -2.26952 0
M  V30 1217 C 143.861 0.525369 -1.51975 0
M  V30 1218 O 145.051 0.335547 -1.70938 0
M  V30 1219 C 142.183 0.545919 -3.365 0
M  V30 1220 H 143.376 -1.16004 -2.76556 0
M  V30 1221 H 140.929 -0.638995 -1.42641 0
M  V30 1222 H 141.664 1.40718 -2.92179 0
M  V30 1223 H 141.449 -0.0594674 -3.92055 0
M  V30 1224 H 142.939 0.918796 -4.07367 0
M  V30 1225 N 143.376 1.44774 -0.622745 0
M  V30 1226 C 144.604 2.06487 -0.130722 0
M  V30 1227 C 145.019 1.46476 1.19123 0
M  V30 1228 O 144.376 0.584502 1.72887 0
M  V30 1229 C 144.427 3.615 -0.000807207 0
M  V30 1230 O 144.148 4.19274 -1.27048 0
M  V30 1231 C 145.649 4.40229 0.520898 0
M  V30 1232 H 142.869 0.666704 -0.0758106 0
M  V30 1233 H 145.413 1.85779 -0.854774 0
M  V30 1234 H 143.568 3.81498 0.673643 0
M  V30 1235 H 143.982 5.12622 -1.1099 0
M  V30 1236 H 145.456 5.49144 0.560838 0
M  V30 1237 H 145.933 4.1108 1.54627 0
M  V30 1238 H 146.539 4.25131 -0.120018 0
M  V30 1239 N 144.854 0.36279 1.53368 0
M  V30 1240 C 146.102 -0.227326 2.00817 0
M  V30 1241 C 146.423 -1.49511 1.25186 0
M  V30 1242 O 145.693 -1.92482 0.364348 0
M  V30 1243 H 144.273 -0.0869923 0.741917 0
M  V30 1244 H 146.935 0.488381 1.88682 0
M  V30 1245 H 146.031 -0.456273 3.08747 0
M  V30 1246 N 146.332 -1.57332 0.0918853 0
M  V30 1247 C 147.295 -2.12708 -0.85369 0
M  V30 1248 C 148.295 -1.05561 -1.213 0
M  V30 1249 O 149.485 -1.31461 -1.14296 0
M  V30 1250 C 146.617 -2.64503 -2.15061 0
M  V30 1251 H 147.81 -2.97573 -0.3729 0
M  V30 1252 H 145.363 -1.55509 -0.157072 0
M  V30 1253 H 146.098 -1.83149 -2.67632 0
M  V30 1254 H 145.883 -3.4284 -1.90272 0
M  V30 1255 H 147.373 -3.07351 -2.82711 0
M  V30 1256 N 147.81 0.181792 -1.56548 0
M  V30 1257 C 149.04 0.914618 -1.85252 0
M  V30 1258 C 149.448 1.76791 -0.673914 0
M  V30 1259 O 148.791 1.80009 0.366416 0
M  V30 1260 C 148.853 1.85019 -3.08234 0
M  V30 1261 C 148.517 1.17754 -4.41569 0
M  V30 1262 C 149.514 0.548035 -5.17003 0
M  V30 1263 C 147.199 1.17742 -4.88305 0
M  V30 1264 C 149.193 -0.0726128 -6.37359 0
M  V30 1265 C 146.88 0.552946 -6.08593 0
M  V30 1266 C 147.878 -0.070978 -6.82963 0
M  V30 1267 O 147.566 -0.685635 -8.00971 0
M  V30 1268 H 147.298 0.271695 -0.618998 0
M  V30 1269 H 149.852 0.189944 -2.0452 0
M  V30 1270 H 148.082 2.61491 -2.84885 0
M  V30 1271 H 149.771 2.45195 -3.23472 0
M  V30 1272 H 150.537 0.540174 -4.81982 0
M  V30 1273 H 146.416 1.65246 -4.30366 0
M  V30 1274 H 149.96 -0.560213 -6.95347 0
M  V30 1275 H 145.857 0.558354 -6.43081 0
M  V30 1276 H 146.625 -0.58385 -8.16415 0
M  V30 1277 N 149.288 1.51039 0.449983 0
M  V30 1278 C 150.699 1.557 1.03026 0
M  V30 1279 C 151.05 0.372939 1.92623 0
M  V30 1280 O 150.175 -0.511771 2.10261 0
M  V30 1281 C 150.77 2.82171 1.87523 0
M  V30 1282 C 149.329 2.89444 2.40622 0
M  V30 1283 C 148.476 2.50228 1.19504 0
M  V30 1284 H 151.427 1.56999 0.231745 0
M  V30 1285 H 151.448 2.65219 2.72835 0
M  V30 1286 H 150.96 3.68331 1.22286 0
M  V30 1287 H 149.061 2.07685 3.0935 0
M  V30 1288 H 149.174 3.92816 2.74285 0
M  V30 1289 H 147.538 2.03139 1.53644 0
M  V30 1290 H 148.321 3.38719 0.558972 0
M  V30 1291 N 150.766 -0.704594 1.40972 0
M  V30 1292 C 151.729 -1.80035 1.41845 0
M  V30 1293 C 152.729 -1.57774 0.310474 0
M  V30 1294 O 153.919 -1.64613 0.56992 0
M  V30 1295 C 151.051 -3.18284 1.22098 0
M  V30 1296 H 152.244 -1.80658 2.3938 0
M  V30 1297 H 149.797 -0.911329 1.26982 0
M  V30 1298 H 150.532 -3.23306 0.253672 0
M  V30 1299 H 150.317 -3.35843 2.02366 0
M  V30 1300 H 151.807 -3.98289 1.25522 0
M  V30 1301 N 152.244 -1.26651 -0.937939 0
M  V30 1302 C 153.472 -1.15173 -1.7188 0
M  V30 1303 C 153.887 0.292668 -1.86518 0
M  V30 1304 O 153.244 1.20014 -1.37488 0
M  V30 1305 C 153.295 -1.81925 -3.12387 0
M  V30 1306 O 153.016 -3.2072 -2.98446 0
M  V30 1307 C 154.517 -1.76442 -4.06673 0
M  V30 1308 H 151.737 -0.400911 -0.538063 0
M  V30 1309 H 154.281 -1.67332 -1.1756 0
M  V30 1310 H 152.436 -1.33696 -3.63599 0
M  V30 1311 H 152.85 -3.53802 -3.872 0
M  V30 1312 H 154.324 -2.27781 -5.02812 0
M  V30 1313 H 154.801 -0.731608 -4.33064 0
M  V30 1314 H 155.407 -2.24238 -3.61382 0
M  V30 1315 N 153.722 1.14298 -1.08507 0
M  V30 1316 C 154.97 1.84993 -0.813763 0
M  V30 1317 C 155.291 1.83405 0.662393 0
M  V30 1318 O 154.561 1.28319 1.48024 0
M  V30 1319 H 153.141 0.684966 -0.298045 0
M  V30 1320 H 155.803 1.385 -1.37126 0
M  V30 1321 H 154.899 2.89788 -1.15884 0
M  V30 1322 N 155.201 0.870884 1.31352 0
M  V30 1323 C 156.612 0.534714 1.78879 0
M  V30 1324 C 156.963 -0.948423 1.71754 0
M  V30 1325 O 156.088 -1.74055 1.28584 0
M  V30 1326 C 156.683 0.963839 3.24801 0
M  V30 1327 C 155.242 0.679311 3.70219 0
M  V30 1328 C 154.389 1.15465 2.52117 0
M  V30 1329 H 157.34 1.05651 1.18421 0
M  V30 1330 H 157.361 0.286892 3.79417 0
M  V30 1331 H 156.873 2.04332 3.29955 0
M  V30 1332 H 154.974 -0.388769 3.70566 0
M  V30 1333 H 155.087 1.25698 4.62317 0
M  V30 1334 H 153.451 0.574383 2.48139 0
M  V30 1335 H 154.234 2.24157 2.60016 0
M  V30 1336 N 156.679 -1.44442 0.630414 0
M  V30 1337 C 157.909 -2.06115 0.141465 0
M  V30 1338 C 158.317 -1.47179 -1.1889 0
M  V30 1339 O 157.66 -0.588873 -1.74006 0
M  V30 1340 C 157.722 -3.59467 -0.0484355 0
M  V30 1341 C 157.386 -4.40864 1.20366 0
M  V30 1342 C 158.383 -4.74391 2.12719 0
M  V30 1343 C 156.068 -4.8125 1.43887 0
M  V30 1344 C 158.062 -5.47186 3.26904 0
M  V30 1345 C 155.749 -5.53795 2.5837 0
M  V30 1346 C 156.747 -5.86682 3.49705 0
M  V30 1347 O 156.435 -6.57749 4.62191 0
M  V30 1348 H 156.167 -0.671648 0.0765792 0
M  V30 1349 H 158.721 -1.86312 0.864695 0
M  V30 1350 H 156.951 -3.77758 -0.826803 0
M  V30 1351 H 158.64 -4.02909 -0.491849 0
M  V30 1352 H 159.406 -4.43728 1.95781 0
M  V30 1353 H 155.285 -4.55073 0.736853 0
M  V30 1354 H 158.829 -5.72773 3.98217 0
M  V30 1355 H 154.726 -5.83872 2.75251 0
M  V30 1356 H 155.494 -6.76217 4.61164 0
M  V30 1357 N 158.157 -0.370918 -1.53173 0
M  V30 1358 C 159.405 0.216673 -2.00935 0
M  V30 1359 C 159.726 1.48845 -1.25977 0
M  V30 1360 O 158.996 1.92286 -0.374551 0
M  V30 1361 H 157.576 0.0830565 -0.742368 0
M  V30 1362 H 160.238 -0.49838 -1.8842 0
M  V30 1363 H 159.334 0.439893 -3.08984 0
M  V30 1364 N 159.635 1.57281 -0.100228 0
M  V30 1365 C 160.598 2.13158 0.842398 0
M  V30 1366 C 161.598 1.06202 1.20738 0
M  V30 1367 O 162.788 1.32066 1.13597 0
M  V30 1368 C 159.92 2.65639 2.13655 0
M  V30 1369 H 161.113 2.97766 0.357114 0
M  V30 1370 H 158.666 1.5559 0.148823 0
M  V30 1371 H 159.401 1.84566 2.66657 0
M  V30 1372 H 159.186 3.43844 1.88451 0
M  V30 1373 H 160.676 3.08846 2.81077 0
M  V30 1374 N 161.113 -0.173488 1.56642 0
M  V30 1375 C 162.524 -0.736155 1.71574 0
M  V30 1376 C 162.875 -1.82888 0.710389 0
M  V30 1377 O 162 -2.16017 -0.1287 0
M  V30 1378 C 162.595 -1.34211 3.11083 0
M  V30 1379 C 161.154 -1.85162 3.27707 0
M  V30 1380 C 160.301 -0.729765 2.67525 0
M  V30 1381 H 163.252 0.0518786 1.58615 0
M  V30 1382 H 163.273 -2.21178 3.09613 0
M  V30 1383 H 162.785 -0.546579 3.84232 0
M  V30 1384 H 160.886 -2.67366 2.59512 0
M  V30 1385 H 160.999 -1.99855 4.35425 0
M  V30 1386 H 159.363 -1.14965 2.27278 0
M  V30 1387 H 160.146 0.0538806 3.43258 0
M  V30 1388 N 162.591 -1.51276 -0.441967 0
M  V30 1389 C 163.554 -1.7167 -1.51862 0
M  V30 1390 C 164.554 -0.586793 -1.49711 0
M  V30 1391 O 165.744 -0.854276 -1.51815 0
M  V30 1392 C 162.876 -1.76889 -2.91416 0
M  V30 1393 H 164.069 -2.67754 -1.35084 0
M  V30 1394 H 161.622 -1.41196 -0.670333 0
M  V30 1395 H 162.357 -0.826026 -3.13604 0
M  V30 1396 H 162.142 -2.59001 -2.94382 0
M  V30 1397 H 163.632 -1.94522 -3.69528 0
M  V30 1398 N 164.069 0.697108 -1.41344 0
M  V30 1399 C 165.317 1.45426 -1.40341 0
M  V30 1400 C 165.638 1.94996 -0.0128787 0
M  V30 1401 O 164.908 1.71599 0.945027 0
M  V30 1402 H 163.488 0.539594 -0.516573 0
M  V30 1403 H 166.15 0.825201 -1.76569 0
M  V30 1404 H 165.246 2.31817 -2.08967 0
M  V30 1405 N 165.547 1.27147 0.931209 0
M  V30 1406 C 166.958 1.12044 1.49342 0
M  V30 1407 C 167.309 -0.295795 1.93957 0
M  V30 1408 O 166.434 -1.18835 1.80852 0
M  V30 1409 C 167.029 2.02781 2.71414 0
M  V30 1410 C 165.588 1.91794 3.2387 0
M  V30 1411 C 164.735 1.95543 1.96617 0
M  V30 1412 H 167.686 1.40091 0.745672 0
M  V30 1413 H 167.707 1.58156 3.46074 0
M  V30 1414 H 167.219 3.05848 2.38911 0
M  V30 1415 H 165.32 0.916992 3.6114 0
M  V30 1416 H 165.433 2.77852 3.90302 0
M  V30 1417 H 163.797 1.39722 2.12955 0
M  V30 1418 H 164.58 3.00259 1.66432 0
M  V30 1419 N 167.025 -1.13721 1.09112 0
M  V30 1420 C 167.955 -2.21148 0.749385 0
M  V30 1421 C 168.936 -1.6792 -0.271475 0
M  V30 1422 O 170.121 -1.93693 -0.140251 0
M  V30 1423 C 167.251 -3.46905 0.165659 0
M  V30 1424 C 166.205 -4.13203 1.11567 0
M  V30 1425 C 165.531 -5.33248 0.393809 0
M  V30 1426 C 166.831 -4.60912 2.45678 0
M  V30 1427 H 168.525 -2.4999 1.64758 0
M  V30 1428 H 166.071 -1.20156 0.793626 0
M  V30 1429 H 168.024 -4.21313 -0.085466 0
M  V30 1430 H 166.748 -3.17449 -0.767714 0
M  V30 1431 H 165.407 -3.40758 1.35202 0
M  V30 1432 H 165.055 -5.00054 -0.543599 0
M  V30 1433 H 164.755 -5.78552 1.02721 0
M  V30 1434 H 166.279 -6.10413 0.150908 0
M  V30 1435 H 167.693 -5.26759 2.26269 0
M  V30 1436 H 166.09 -5.16944 3.04776 0
M  V30 1437 H 167.16 -3.75603 3.06677 0
M  V30 1438 N 168.503 -0.877838 -1.30888 0
M  V30 1439 C 169.752 -0.488793 -1.95688 0
M  V30 1440 C 170.065 0.965485 -1.70111 0
M  V30 1441 O 171.271 1.46104 -2.28836 0
M  V30 1442 C 169.727 -0.823201 -3.50359 0
M  V30 1443 C 169.335 -2.29477 -3.84765 0
M  V30 1444 C 171.079 -0.503009 -4.21509 0
M  V30 1445 C 168.986 -2.57118 -5.32583 0
M  V30 1446 H 167.916 -0.179062 -0.732429 0
M  V30 1447 H 170.567 -1.07183 -1.48943 0
M  V30 1448 H 168.949 -0.169331 -3.95638 0
M  V30 1449 H 170.123 -2.99236 -3.5042 0
M  V30 1450 H 168.438 -2.58178 -3.267 0
M  V30 1451 H 171.035 -0.68665 -5.30273 0
M  V30 1452 H 171.378 0.557109 -4.12555 0
M  V30 1453 H 171.911 -1.11376 -3.8189 0
M  V30 1454 H 168.65 -3.61843 -5.4658 0
M  V30 1455 H 168.17 -1.91961 -5.68253 0
M  V30 1456 H 169.849 -2.42251 -5.99936 0
M  V30 1457 N 169.982 1.44106 -0.638065 0
M  V30 1458 C 171.228 2.02277 -0.145546 0
M  V30 1459 C 171.561 1.50125 1.23191 0
M  V30 1460 O 170.836 0.688133 1.8192 0
M  V30 1461 C 171.119 3.59829 -0.139791 0
M  V30 1462 C 170.972 4.22247 -1.55008 0
M  V30 1463 C 172.291 4.36873 0.531966 0
M  V30 1464 H 169.41 0.734992 -0.0543632 0
M  V30 1465 H 172.052 1.71592 -0.815863 0
M  V30 1466 H 170.202 3.86102 0.431007 0
M  V30 1467 H 171.874 4.07057 -2.1703 0
M  V30 1468 H 170.117 3.79476 -2.10191 0
M  V30 1469 H 170.788 5.31284 -1.49804 0
M  V30 1470 H 173.264 4.16074 0.0464781 0
M  V30 1471 H 172.14 5.4657 0.505206 0
M  V30 1472 H 172.401 4.11995 1.60352 0
M  V30 1473 N 171.46 0.379036 1.52974 0
M  V30 1474 C 172.871 -0.0972525 1.86447 0
M  V30 1475 C 173.222 -1.47027 1.29914 0
M  V30 1476 O 172.347 -2.07135 0.626433 0
M  V30 1477 C 172.942 -0.183248 3.38304 0
M  V30 1478 C 171.501 -0.603812 3.71525 0
M  V30 1479 C 170.648 0.240632 2.76254 0
M  V30 1480 H 173.599 0.597316 1.4703 0
M  V30 1481 H 173.62 -1.00432 3.67006 0
M  V30 1482 H 173.132 0.816191 3.79421 0
M  V30 1483 H 171.233 -1.61099 3.35973 0
M  V30 1484 H 171.346 -0.369086 4.77676 0
M  V30 1485 H 169.71 -0.292548 2.53014 0
M  V30 1486 H 170.493 1.23786 3.20206 0
M  V30 1487 N 172.938 -1.57226 0.108567 0
M  V30 1488 C 174.168 -1.9889 -0.559142 0
M  V30 1489 C 174.576 -0.986889 -1.61422 0
M  V30 1490 O 173.919 0.0298705 -1.83676 0
M  V30 1491 C 173.981 -3.36952 -1.25315 0
M  V30 1492 C 173.645 -4.55679 -0.347248 0
M  V30 1493 C 174.642 -5.18281 0.409996 0
M  V30 1494 C 172.327 -5.0162 -0.261367 0
M  V30 1495 C 174.321 -6.25203 1.24096 0
M  V30 1496 C 172.008 -6.08405 0.573238 0
M  V30 1497 C 173.006 -6.70063 1.32304 0
M  V30 1498 O 172.694 -7.74788 2.14381 0
M  V30 1499 H 172.426 -0.658343 -0.153492 0
M  V30 1500 H 174.98 -2.04532 0.188584 0
M  V30 1501 H 173.21 -3.28032 -2.04773 0
M  V30 1502 H 174.899 -3.62974 -1.81673 0
M  V30 1503 H 175.665 -4.8371 0.353457 0
M  V30 1504 H 171.544 -4.53381 -0.834656 0
M  V30 1505 H 175.088 -6.73259 1.82669 0
M  V30 1506 H 170.985 -6.42406 0.631208 0
M  V30 1507 H 171.753 -7.91837 2.07209 0
M  V30 1508 N 174.416 0.165178 -1.56732 0
M  V30 1509 C 175.364 1.22369 -1.97809 0
M  V30 1510 C 176.358 1.45488 -0.867741 0
M  V30 1511 O 177.564 1.45995 -1.05288 0
M  V30 1512 H 173.939 0.411486 -0.629431 0
M  V30 1513 H 175.91 0.850425 -2.86025 0
M  V30 1514 C 174.659 2.55403 -2.35934 0
M  V30 1515 H 173.982 2.38438 -3.20916 0
M  V30 1516 H 175.422 3.2814 -2.68514 0
M  V30 1517 C 173.881 3.14611 -1.20506 0
M  V30 1518 O 174.411 3.98626 -0.496016 0
M  V30 1519 N 172.617 2.7379 -0.97403 0
M  V30 1520 H 172.164 2.0557 -1.55238 0
M  V30 1521 H 172.122 3.1374 -0.203573 0
M  V30 1522 N 175.894 1.51508 0.433938 0
M  V30 1523 C 176.824 1.76016 1.53429 0
M  V30 1524 C 177.805 0.610112 1.58782 0
M  V30 1525 O 178.99 0.853177 1.74455 0
M  V30 1526 C 176.12 1.88831 2.9148 0
M  V30 1527 C 175.074 3.04288 3.00987 0
M  V30 1528 C 174.4 3.0229 4.4105 0
M  V30 1529 C 175.7 4.44193 2.74754 0
M  V30 1530 H 177.394 2.68152 1.33171 0
M  V30 1531 H 174.94 1.29035 0.639214 0
M  V30 1532 H 176.893 2.04559 3.6842 0
M  V30 1533 H 175.617 0.933455 3.12976 0
M  V30 1534 H 174.276 2.8827 2.26486 0
M  V30 1535 H 173.924 2.04576 4.59519 0
M  V30 1536 H 173.624 3.79822 4.4834 0
M  V30 1537 H 175.148 3.20116 5.1996 0
M  V30 1538 H 176.562 4.60544 3.41426 0
M  V30 1539 H 174.959 5.23457 2.9345 0
M  V30 1540 H 176.029 4.53996 1.70339 0
M  V30 1541 N 177.372 -0.689602 1.41712 0
M  V30 1542 C 178.783 -1.26973 1.36875 0
M  V30 1543 C 179.134 -1.96124 0.054748 0
M  V30 1544 O 178.259 -1.99141 -0.84687 0
M  V30 1545 C 178.854 -2.30912 2.47922 0
M  V30 1546 C 177.413 -2.84486 2.46464 0
M  V30 1547 C 176.56 -1.58603 2.27465 0
M  V30 1548 H 179.511 -0.48396 1.51141 0
M  V30 1549 H 179.532 -3.12331 2.17323 0
M  V30 1550 H 179.044 -1.80554 3.43543 0
M  V30 1551 H 177.145 -3.39005 1.54617 0
M  V30 1552 H 177.258 -3.34511 3.42986 0
M  V30 1553 H 175.622 -1.84632 1.75451 0
M  V30 1554 H 176.405 -1.10233 3.25121 0
M  V30 1555 N 178.85 -1.27639 -0.924453 0
M  V30 1556 C 179.78 -1.13166 -2.04244 0
M  V30 1557 C 180.761 -0.032256 -1.70069 0
M  V30 1558 O 181.946 -0.207328 -1.9309 0
M  V30 1559 C 179.076 -0.781496 -3.38393 0
M  V30 1560 C 178.03 -1.83449 -3.86692 0
M  V30 1561 C 177.356 -1.33822 -5.17683 0
M  V30 1562 C 178.656 -3.23917 -4.09726 0
M  V30 1563 H 180.35 -2.06689 -2.1661 0
M  V30 1564 H 177.896 -0.995136 -1.04082 0
M  V30 1565 H 179.849 -0.667057 -4.16087 0
M  V30 1566 H 178.573 0.189439 -3.2605 0
M  V30 1567 H 177.232 -1.93789 -3.11193 0
M  V30 1568 H 176.88 -0.35665 -5.01734 0
M  V30 1569 H 176.58 -2.04224 -5.50968 0
M  V30 1570 H 178.104 -1.23679 -5.97943 0
M  V30 1571 H 179.518 -3.16559 -4.77978 0
M  V30 1572 H 177.915 -3.92059 -4.54324 0
M  V30 1573 H 178.985 -3.68729 -3.14908 0
M  V30 1574 N 180.328 1.1314 -1.09713 0
M  V30 1575 C 181.739 1.66029 -0.853885 0
M  V30 1576 C 182.09 1.86241 0.617142 0
M  V30 1577 O 181.215 1.5834 1.47503 0
M  V30 1578 C 181.81 3.01599 -1.5435 0
M  V30 1579 C 180.369 3.51467 -1.34714 0
M  V30 1580 C 179.516 2.26648 -1.59769 0
M  V30 1581 H 182.467 0.970226 -1.25588 0
M  V30 1582 H 182.488 3.67709 -0.978267 0
M  V30 1583 H 182 2.86856 -2.6141 0
M  V30 1584 H 180.101 3.71408 -0.297838 0
M  V30 1585 H 180.214 4.314 -2.08401 0
M  V30 1586 H 178.578 2.33385 -1.01998 0
M  V30 1587 H 179.361 2.14467 -2.68065 0
M  V30 1588 N 181.806 0.884767 1.30421 0
M  V30 1589 C 183.054 0.502112 1.95763 0
M  V30 1590 C 183.375 -0.951815 1.70192 0
M  V30 1591 O 182.645 -1.6692 1.0254 0
M  V30 1592 H 181.225 0.182694 0.724315 0
M  V30 1593 H 183.887 1.1278 1.58955 0
M  V30 1594 H 182.983 0.672188 3.04775 0
M  V30 1595 N 183.284 -1.43765 0.645699 0
M  V30 1596 C 184.532 -2.01499 0.155731 0
M  V30 1597 C 184.853 -1.51151 -1.232 0
M  V30 1598 O 184.123 -0.721044 -1.82148 0
M  V30 1599 H 182.703 -0.745003 0.0545817 0
M  V30 1600 H 185.365 -1.76075 0.835677 0
M  V30 1601 H 184.461 -3.1181 0.134577 0
M  V30 1602 N 184.763 -0.387143 -1.52771 0
M  V30 1603 C 186.009 0.196025 -2.0185 0
M  V30 1604 C 186.342 1.46641 -1.27319 0
M  V30 1605 O 185.617 1.90889 -0.373032 0
M  V30 1606 C 185.9 0.466136 -3.5707 0
M  V30 1607 C 185.753 -0.819385 -4.42274 0
M  V30 1608 C 187.072 1.25768 -4.21747 0
M  V30 1609 H 184.191 0.0697708 -0.73369 0
M  V30 1610 H 186.833 -0.516286 -1.82851 0
M  V30 1611 H 184.983 1.07293 -3.7339 0
M  V30 1612 H 186.655 -1.4563 -4.37709 0
M  V30 1613 H 184.898 -1.43517 -4.09372 0
M  V30 1614 H 185.569 -0.585065 -5.48891 0
M  V30 1615 H 188.045 0.744167 -4.09391 0
M  V30 1616 H 186.921 1.41541 -5.30337 0
M  V30 1617 H 187.182 2.27228 -3.79236 0
M  V30 1618 N 186.241 1.57166 -0.116904 0
M  V30 1619 C 187.487 1.95412 0.542405 0
M  V30 1620 C 187.82 1.00019 1.66463 0
M  V30 1621 O 187.095 0.0370346 1.94465 0
M  V30 1622 C 187.378 3.43615 1.07708 0
M  V30 1623 C 187.231 4.49781 -0.0415868 0
M  V30 1624 C 188.55 3.93616 1.96861 0
M  V30 1625 H 185.669 0.710543 0.195696 0
M  V30 1626 H 188.311 1.89027 -0.192038 0
M  V30 1627 H 186.461 3.49187 1.70296 0
M  V30 1628 H 188.133 4.56308 -0.676793 0
M  V30 1629 H 186.376 4.28033 -0.705019 0
M  V30 1630 H 187.047 5.50733 0.373717 0
M  V30 1631 H 189.523 3.90335 1.44146 0
M  V30 1632 H 188.399 4.97838 2.3119 0
M  V30 1633 H 188.66 3.34188 2.89432 0
M  V30 1634 N 187.719 -0.156864 1.56817 0
M  V30 1635 C 189.13 -0.717916 1.72345 0
M  V30 1636 C 189.481 -1.82124 0.729747 0
M  V30 1637 O 188.606 -2.16141 -0.105781 0
M  V30 1638 C 189.201 -1.30904 3.12489 0
M  V30 1639 C 187.76 -1.81676 3.29653 0
M  V30 1640 C 186.907 -0.701349 2.68284 0
M  V30 1641 H 189.858 0.0686989 1.58551 0
M  V30 1642 H 189.879 -2.17882 3.11942 0
M  V30 1643 H 189.391 -0.505796 3.8479 0
M  V30 1644 H 187.492 -2.64598 2.62333 0
M  V30 1645 H 187.605 -1.95226 4.3752 0
M  V30 1646 H 185.969 -1.12548 2.28484 0
M  V30 1647 H 186.752 0.0902846 3.43181 0
M  V30 1648 N 189.197 -1.51736 -0.425897 0
M  V30 1649 C 190.613 -1.40166 -0.76326 0
M  V30 1650 C 190.813 -0.492962 -1.95377 0
M  V30 1651 O 189.869 0.0475815 -2.52455 0
M  V30 1652 C 191.182 -2.82403 -1.03291 0
M  V30 1653 C 192.73 -2.91632 -1.13665 0
M  V30 1654 C 193.205 -4.34801 -1.43916 0
M  V30 1655 N 194.696 -4.3796 -1.50816 0
M  V30 1656 C 195.431 -5.4578 -1.75817 0
M  V30 1657 N 194.927 -6.63744 -1.98534 0
M  V30 1658 N 196.72 -5.33274 -1.77694 0
M  V30 1659 H 188.871 -2.09361 0.358 0
M  V30 1660 H 191.134 -0.942941 0.0978094 0
M  V30 1661 H 190.84 -3.50943 -0.230696 0
M  V30 1662 H 190.714 -3.22428 -1.95754 0
M  V30 1663 H 193.101 -2.23284 -1.92947 0
M  V30 1664 H 193.182 -2.55088 -0.190756 0
M  V30 1665 H 192.826 -5.03703 -0.65157 0
M  V30 1666 H 192.756 -4.68868 -2.39729 0
M  V30 1667 H 195.247 -3.52919 -1.35118 0
M  V30 1668 H 195.56 -7.41704 -2.17013 0
M  V30 1669 H 193.905 -6.66839 -1.95832 0
M  V30 1670 H 197.096 -4.40098 -1.59473 0
M  V30 1671 H 197.269 -6.1738 -1.9684 0
M  V30 1672 N 190.675 0.682077 -1.42076 0
M  V30 1673 C 191.608 1.80666 -1.3941 0
M  V30 1674 C 192.586 1.60518 -0.25939 0
M  V30 1675 O 193.77 1.83088 -0.448456 0
M  V30 1676 C 190.897 3.17556 -1.17796 0
M  V30 1677 C 189.943 3.56468 -2.34164 0
M  V30 1678 S 190.776 3.59729 -3.96681 0
M  V30 1679 C 191.932 4.99323 -3.77395 0
M  V30 1680 H 192.165 1.82652 -2.34575 0
M  V30 1681 H 189.698 0.852062 -1.2876 0
M  V30 1682 H 191.656 3.96575 -1.06012 0
M  V30 1683 H 190.317 3.13164 -0.242279 0
M  V30 1684 H 189.51 4.5595 -2.1477 0
M  V30 1685 H 189.112 2.84792 -2.42425 0
M  V30 1686 H 191.404 5.87202 -3.37935 0
M  V30 1687 H 192.347 5.23763 -4.76527 0
M  V30 1688 H 192.755 4.71498 -3.10403 0
M  V30 1689 N 192.153 1.28127 0.917671 0
M  V30 1690 C 193.083 1.14248 2.03641 0
M  V30 1691 C 194.064 0.0412748 1.7005 0
M  V30 1692 O 195.249 0.217566 1.92977 0
M  V30 1693 C 192.379 0.799431 3.37974 0
M  V30 1694 C 191.333 1.85497 3.85713 0
M  V30 1695 C 190.659 1.36565 5.16966 0
M  V30 1696 C 191.959 3.26085 4.08002 0
M  V30 1697 H 193.653 2.07835 2.15511 0
M  V30 1698 H 191.199 1.00064 1.03553 0
M  V30 1699 H 193.152 0.689114 4.15727 0
M  V30 1700 H 191.876 -0.172145 3.26146 0
M  V30 1701 H 190.535 1.95437 3.10161 0
M  V30 1702 H 190.183 0.383253 5.01538 0
M  V30 1703 H 189.883 2.07143 5.49878 0
M  V30 1704 H 191.407 1.26848 5.97279 0
M  V30 1705 H 192.821 3.19089 4.76293 0
M  V30 1706 H 191.218 3.94462 4.52238 0
M  V30 1707 H 192.288 3.70394 3.12948 0
M  V30 1708 N 193.631 -1.12557 1.10312 0
M  V30 1709 C 194.88 -1.83395 0.839588 0
M  V30 1710 C 195.193 -1.84939 -0.636929 0
M  V30 1711 O 196.399 -2.51761 -1.01631 0
M  V30 1712 C 194.855 -3.29303 1.45215 0
M  V30 1713 C 194.463 -3.36122 2.96186 0
M  V30 1714 C 196.207 -4.05121 1.26796 0
M  V30 1715 C 194.114 -4.76357 3.50483 0
M  V30 1716 H 193.044 -0.687133 0.310425 0
M  V30 1717 H 195.695 -1.26746 1.32694 0
M  V30 1718 H 194.077 -3.85812 0.892469 0
M  V30 1719 H 195.251 -2.89559 3.58458 0
M  V30 1720 H 193.566 -2.73776 3.13745 0
M  V30 1721 H 196.163 -5.08668 1.64806 0
M  V30 1722 H 196.506 -4.15773 0.209409 0
M  V30 1723 H 197.039 -3.54967 1.79563 0
M  V30 1724 H 193.778 -4.70899 4.55998 0
M  V30 1725 H 193.298 -5.23377 2.92978 0
M  V30 1726 H 194.977 -5.45294 3.48228 0
M  V30 1727 N 195.109 -0.891671 -1.2995 0
M  V30 1728 C 196.337 -0.52866 -2.00032 0
M  V30 1729 C 196.752 0.884574 -1.66795 0
M  V30 1730 O 196.109 1.5827 -0.908669 0
M  V30 1731 C 196.16 -0.701814 -3.54622 0
M  V30 1732 O 195.881 -2.05942 -3.86678 0
M  V30 1733 C 197.382 -0.342683 -4.41973 0
M  V30 1734 H 194.602 -0.203659 -0.639347 0
M  V30 1735 H 197.146 -1.19881 -1.65677 0
M  V30 1736 H 195.301 -0.0789468 -3.8732 0
M  V30 1737 H 195.715 -2.08291 -4.81368 0
M  V30 1738 H 197.189 -0.514709 -5.49595 0
M  V30 1739 H 197.666 0.71975 -4.33262 0
M  V30 1740 H 198.272 -0.942154 -4.14733 0
M  V30 1741 N 196.587 1.43421 -0.653314 0
M  V30 1742 C 197.836 2.01032 -0.164076 0
M  V30 1743 C 198.149 1.52147 1.22926 0
M  V30 1744 O 199.355 2.02031 1.81371 0
M  V30 1745 C 197.811 3.59082 -0.24252 0
M  V30 1746 C 197.419 4.1696 -1.63855 0
M  V30 1747 C 199.163 4.24079 0.18911 0
M  V30 1748 C 197.07 5.67304 -1.67092 0
M  V30 1749 H 196 0.751798 -0.0575769 0
M  V30 1750 H 198.651 1.6439 -0.815362 0
M  V30 1751 H 197.033 3.93125 0.476276 0
M  V30 1752 H 198.207 3.94416 -2.38271 0
M  V30 1753 H 196.522 3.64335 -2.01616 0
M  V30 1754 H 199.119 5.34381 0.184775 0
M  V30 1755 H 199.462 3.98005 1.22056 0
M  V30 1756 H 199.995 3.94918 -0.477938 0
M  V30 1757 H 196.734 5.98145 -2.68146 0
M  V30 1758 H 196.254 5.91904 -0.970014 0
M  V30 1759 H 197.933 6.31344 -1.4147 0
M  V30 1760 N 198.065 0.39524 1.52563 0
M  V30 1761 C 198.995 -0.428384 2.29537 0
M  V30 1762 C 199.976 -1.05831 1.33169 0
M  V30 1763 O 201.161 -1.06995 1.62067 0
M  V30 1764 C 198.291 -1.55274 3.10656 0
M  V30 1765 C 197.245 -1.04855 4.14957 0
M  V30 1766 C 196.571 -2.26543 4.84337 0
M  V30 1767 C 197.871 -0.112324 5.22179 0
M  V30 1768 H 199.565 0.213867 2.98635 0
M  V30 1769 H 197.111 0.104298 1.43622 0
M  V30 1770 H 199.064 -2.1358 3.63265 0
M  V30 1771 H 197.788 -2.22266 2.39302 0
M  V30 1772 H 196.447 -0.487985 3.63338 0
M  V30 1773 H 196.095 -2.92059 4.09525 0
M  V30 1774 H 195.795 -1.93466 5.54837 0
M  V30 1775 H 197.319 -2.85481 5.39753 0
M  V30 1776 H 198.733 -0.603752 5.70112 0
M  V30 1777 H 197.13 0.128968 5.99961 0
M  V30 1778 H 198.2 0.837052 4.77621 0
M  V30 1779 N 199.544 -1.57102 0.125237 0
M  V30 1780 C 200.792 -1.95021 -0.530198 0
M  V30 1781 C 201.113 -1.00982 -1.66816 0
M  V30 1782 O 200.383 -0.0672693 -1.95784 0
M  V30 1783 H 198.963 -0.720046 -0.198853 0
M  V30 1784 H 201.625 -1.93916 0.19564 0
M  V30 1785 H 200.721 -2.98211 -0.920681 0
M  V30 1786 N 201.022 0.148545 -1.56898 0
M  V30 1787 C 202.25 0.876389 -1.87422 0
M  V30 1788 C 202.665 1.74809 -0.713256 0
M  V30 1789 O 202.022 1.79725 0.317025 0
M  V30 1790 C 202.073 1.73438 -3.17178 0
M  V30 1791 O 201.794 0.897809 -4.28802 0
M  V30 1792 C 203.295 2.56993 -3.61205 0
M  V30 1793 H 200.515 0.253489 -0.621277 0
M  V30 1794 H 203.059 0.141798 -2.04008 0
M  V30 1795 H 201.214 2.42205 -3.0235 0
M  V30 1796 H 201.628 1.48672 -5.02988 0
M  V30 1797 H 203.102 3.12773 -4.54838 0
M  V30 1798 H 203.579 3.32958 -2.86419 0
M  V30 1799 H 204.185 1.9352 -3.78722 0
M  V30 1800 N 202.5 1.5196 0.417844 0
M  V30 1801 C 203.746 1.65836 1.16732 0
M  V30 1802 C 204.079 0.382881 1.90388 0
M  V30 1803 O 203.354 -0.618368 1.84408 0
M  V30 1804 C 203.637 2.87466 2.16876 0
M  V30 1805 C 203.49 4.25041 1.47174 0
M  V30 1806 C 204.809 3.04613 3.17646 0
M  V30 1807 H 201.928 0.603515 0.423011 0
M  V30 1808 H 204.57 1.84494 0.454105 0
M  V30 1809 H 202.72 2.71689 2.777 0
M  V30 1810 H 204.392 4.52527 0.895376 0
M  V30 1811 H 202.635 4.26843 0.773806 0
M  V30 1812 H 203.306 5.06176 2.20204 0
M  V30 1813 H 205.782 3.1923 2.66892 0
M  V30 1814 H 204.658 3.91247 3.8499 0
M  V30 1815 H 204.919 2.17541 3.84874 0
M  V30 1816 N 203.978 -0.674533 1.42435 0
M  V30 1817 C 204.925 -1.78807 1.45934 0
M  V30 1818 C 205.895 -1.63157 0.311271 0
M  V30 1819 O 207.08 -1.83707 0.515383 0
M  V30 1820 C 204.22 -3.16839 1.36773 0
M  V30 1821 C 203.333 -3.43774 2.61617 0
M  V30 1822 C 202.468 -4.71536 2.44597 0
M  V30 1823 C 201.507 -4.91505 3.64814 0
M  V30 1824 N 200.644 -6.10508 3.46734 0
M  V30 1825 H 205.484 -1.75151 2.41093 0
M  V30 1826 H 203.021 -0.85504 1.19697 0
M  V30 1827 H 204.979 -3.96606 1.29459 0
M  V30 1828 H 203.609 -3.19619 0.452089 0
M  V30 1829 H 202.661 -2.58259 2.79297 0
M  V30 1830 H 203.973 -3.54423 3.50978 0
M  V30 1831 H 203.127 -5.59393 2.3487 0
M  V30 1832 H 201.866 -4.6317 1.52726 0
M  V30 1833 H 200.871 -4.0209 3.74972 0
M  V30 1834 H 202.096 -5.01716 4.57665 0
M  V30 1835 H 200.042 -6.03315 2.5758 0
M  V30 1836 H 199.959 -6.2202 4.29682 0
M  V30 1837 H 201.227 -7.01044 3.40819 0
M  V30 1838 N 205.456 -1.28612 -0.910864 0
M  V30 1839 C 206.867 -1.14406 -1.47541 0
M  V30 1840 C 207.218 0.264901 -1.94403 0
M  V30 1841 O 206.343 1.15942 -1.82719 0
M  V30 1842 C 206.938 -2.07073 -2.68153 0
M  V30 1843 C 205.497 -1.96923 -3.20778 0
M  V30 1844 C 204.644 -1.98646 -1.93481 0
M  V30 1845 H 207.595 -1.41259 -0.723291 0
M  V30 1846 H 207.616 -1.63642 -3.43514 0
M  V30 1847 H 207.128 -3.09611 -2.34015 0
M  V30 1848 H 205.229 -0.97433 -3.59635 0
M  V30 1849 H 205.342 -2.84026 -3.85832 0
M  V30 1850 H 203.706 -1.43093 -2.10705 0
M  V30 1851 H 204.489 -3.02868 -1.61634 0
M  V30 1852 N 206.934 1.1197 -1.10907 0
M  V30 1853 C 207.882 2.19927 -0.757303 0
M  V30 1854 C 208.876 1.67564 0.248747 0
M  V30 1855 O 210.082 1.79672 0.108605 0
M  V30 1856 H 206.457 0.716925 -0.226987 0
M  V30 1857 H 208.428 2.46847 -1.67658 0
M  V30 1858 C 207.177 3.47061 -0.210671 0
M  V30 1859 H 206.5 3.87703 -0.976049 0
M  V30 1860 H 207.94 4.24 -0.0026584 0
M  V30 1861 C 206.399 3.19864 1.05777 0
M  V30 1862 O 206.929 3.40049 2.13845 0
M  V30 1863 N 205.135 2.73636 0.978349 0
M  V30 1864 H 204.682 2.5741 0.0988246 0
M  V30 1865 H 204.64 2.55815 1.82773 0
M  V30 1866 N 208.412 0.89855 1.29475 0
M  V30 1867 C 209.375 0.380272 2.26023 0
M  V30 1868 C 210.375 -0.484891 1.53315 0
M  V30 1869 O 211.565 -0.290108 1.71767 0
M  V30 1870 C 208.697 -0.45651 3.3783 0
M  V30 1871 H 209.89 1.23295 2.73383 0
M  V30 1872 H 207.443 0.676589 1.40897 0
M  V30 1873 H 208.178 -1.32922 2.95808 0
M  V30 1874 H 207.963 0.163393 3.91759 0
M  V30 1875 H 209.453 -0.810466 4.0966 0
M  V30 1876 N 209.89 -1.43072 0.660911 0
M  V30 1877 C 210.838 -2.32569 -0.0378199 0
M  V30 1878 C 211.832 -1.49046 -0.805092 0
M  V30 1879 O 213.038 -1.65206 -0.714624 0
M  V30 1880 H 209.413 -0.75136 -0.031019 0
M  V30 1881 H 211.384 -2.89216 0.734609 0
M  V30 1882 C 210.133 -3.33453 -0.985124 0
M  V30 1883 H 209.456 -3.97752 -0.404147 0
M  V30 1884 H 210.896 -3.98691 -1.44297 0
M  V30 1885 C 209.355 -2.64642 -2.08486 0
M  V30 1886 O 209.885 -2.46776 -3.16961 0
M  V30 1887 N 208.091 -2.23891 -1.8526 0
M  V30 1888 H 207.638 -2.38621 -0.970449 0
M  V30 1889 H 207.596 -1.78181 -2.59034 0
M  V30 1890 N 211.368 -0.403325 -1.52352 0
M  V30 1891 C 212.784 -0.0539281 -1.59509 0
M  V30 1892 C 212.984 1.43307 -1.41652 0
M  V30 1893 O 212.04 2.19924 -1.24056 0
M  V30 1894 C 213.353 -0.543654 -2.95745 0
M  V30 1895 C 214.901 -0.501125 -3.08962 0
M  V30 1896 C 215.376 -0.967267 -4.47669 0
M  V30 1897 N 216.867 -0.923849 -4.53893 0
M  V30 1898 C 217.602 -1.25578 -5.5948 0
M  V30 1899 N 217.098 -1.65889 -6.72646 0
M  V30 1900 N 218.891 -1.17613 -5.49658 0
M  V30 1901 H 211.042 -1.37123 -1.62206 0
M  V30 1902 H 213.305 -0.56294 -0.76276 0
M  V30 1903 H 213.011 -1.58275 -3.14073 0
M  V30 1904 H 212.885 0.0498042 -3.77167 0
M  V30 1905 H 215.272 0.528909 -2.90321 0
M  V30 1906 H 215.353 -1.13056 -2.2946 0
M  V30 1907 H 214.997 -1.9956 -4.67053 0
M  V30 1908 H 214.927 -0.314698 -5.25659 0
M  V30 1909 H 217.418 -0.627403 -3.72655 0
M  V30 1910 H 217.731 -1.89543 -7.49195 0
M  V30 1911 H 216.076 -1.69787 -6.73942 0
M  V30 1912 H 219.267 -0.860115 -4.6013 0
M  V30 1913 H 219.44 -1.43812 -6.3184 0
M  V30 1914 N 212.846 1.57033 -0.133567 0
M  V30 1915 C 214.095 1.94861 0.520768 0
M  V30 1916 C 214.408 1.02012 1.66892 0
M  V30 1917 O 215.614 1.29365 2.38699 0
M  V30 1918 C 214.07 3.46362 0.977809 0
M  V30 1919 C 213.678 4.47773 -0.142674 0
M  V30 1920 C 215.422 3.93083 1.60269 0
M  V30 1921 C 213.329 5.90468 0.331883 0
M  V30 1922 H 212.259 0.727453 0.198315 0
M  V30 1923 H 214.91 1.82227 -0.215759 0
M  V30 1924 H 213.292 3.54282 1.7692 0
M  V30 1925 H 214.466 4.51536 -0.919317 0
M  V30 1926 H 212.781 4.10891 -0.675124 0
M  V30 1927 H 215.378 4.97121 1.96914 0
M  V30 1928 H 215.721 3.33876 2.48662 0
M  V30 1929 H 216.254 3.88025 0.876453 0
M  V30 1930 H 212.993 6.53463 -0.516341 0
M  V30 1931 H 212.513 5.90094 1.07469 0
M  V30 1932 H 214.192 6.42179 0.788332 0
M  V30 1933 N 214.325 -0.140222 1.56975 0
M  V30 1934 C 215.288 -1.15689 1.97861 0
M  V30 1935 C 216.288 -1.3549 0.865974 0
M  V30 1936 O 217.478 -1.32367 1.13246 0
M  V30 1937 C 214.61 -2.51582 2.30042 0
M  V30 1938 H 215.803 -0.805971 2.88867 0
M  V30 1939 H 213.356 -0.383801 1.51515 0
M  V30 1940 H 214.091 -2.91632 1.41849 0
M  V30 1941 H 213.876 -2.38569 3.11171 0
M  V30 1942 H 215.366 -3.24792 2.62488 0
M  V30 1943 N 215.803 -1.52179 -0.40978 0
M  V30 1944 C 216.733 -1.78435 -1.5061 0
M  V30 1945 C 217.714 -0.635295 -1.57791 0
M  V30 1946 O 218.899 -0.880823 -1.73076 0
M  V30 1947 C 216.029 -1.93444 -2.88439 0
M  V30 1948 C 214.983 -3.09038 -2.96108 0
M  V30 1949 C 214.309 -3.09268 -4.36185 0
M  V30 1950 C 215.609 -4.48508 -2.67652 0
M  V30 1951 H 217.303 -2.70237 -1.28889 0
M  V30 1952 H 214.849 -1.30036 -0.618605 0
M  V30 1953 H 216.802 -2.10394 -3.65119 0
M  V30 1954 H 215.526 -0.983129 -3.11452 0
M  V30 1955 H 214.185 -2.91837 -2.21872 0
M  V30 1956 H 213.833 -2.11861 -4.56206 0
M  V30 1957 H 213.533 -3.86907 -4.42241 0
M  V30 1958 H 215.057 -3.28348 -5.14801 0
M  V30 1959 H 216.471 -4.65918 -3.34056 0
M  V30 1960 H 214.868 -5.28059 -2.85085 0
M  V30 1961 H 215.938 -4.56649 -1.63095 0
M  V30 1962 N 217.281 0.66697 -1.42791 0
M  V30 1963 C 218.558 1.4234 -1.34159 0
M  V30 1964 C 218.938 2.11093 0.0172729 0
M  V30 1965 O 218.286 2.03808 1.03318 0
M  V30 1966 C 218.496 2.41942 -2.51526 0
M  V30 1967 C 219.844 3.06353 -2.93995 0
M  V30 1968 O 220.868 2.52269 -2.51473 0
M  V30 1969 O 219.727 4.04376 -3.67617 0
M  V30 1970 H 216.821 0.635277 -0.529483 0
M  V30 1971 H 219.367 0.695034 -1.54814 0
M  V30 1972 H 218.139 1.89991 -3.42081 0
M  V30 1973 H 217.762 3.22249 -2.32898 0
M  V30 1974 N 218.759 1.29093 0.90403 0
M  V30 1975 C 220.006 1.16813 1.65411 0
M  V30 1976 C 220.334 -0.28128 1.92455 0
M  V30 1977 O 219.589 -1.22006 1.53013 0
M  V30 1978 C 219.888 1.92224 3.01305 0
M  V30 1979 C 219.554 3.41968 2.93885 0
M  V30 1980 C 218.216 3.82807 2.91569 0
M  V30 1981 C 220.568 4.37409 2.83413 0
M  V30 1982 C 217.896 5.1741 2.76594 0
M  V30 1983 C 220.248 5.72097 2.69977 0
M  V30 1984 C 218.912 6.12199 2.66024 0
M  V30 1985 H 218.182 0.42745 0.605283 0
M  V30 1986 H 220.829 1.59981 1.05254 0
M  V30 1987 H 219.134 1.41635 3.65304 0
M  V30 1988 H 220.831 1.80131 3.58265 0
M  V30 1989 H 217.421 3.09504 2.96488 0
M  V30 1990 H 221.605 4.06813 2.84283 0
M  V30 1991 H 216.861 5.47596 2.71935 0
M  V30 1992 H 221.035 6.45704 2.60844 0
M  V30 1993 H 218.662 7.16448 2.54178 0
M  V30 1994 N 220.237 -1.11381 1.11499 0
M  V30 1995 C 221.169 -2.17207 0.731704 0
M  V30 1996 C 222.182 -1.61066 -0.236957 0
M  V30 1997 O 223.371 -1.78489 -0.0197591 0
M  V30 1998 C 220.471 -3.38846 0.0607624 0
M  V30 1999 C 219.644 -4.24451 1.0564 0
M  V30 2000 C 218.703 -5.24562 0.4149 0
M  V30 2001 O 217.729 -5.59071 1.069 0
M  V30 2002 N 218.931 -5.74651 -0.821943 0
M  V30 2003 H 221.696 -2.50699 1.64225 0
M  V30 2004 H 219.257 -1.26908 1.00529 0
M  V30 2005 H 221.249 -4.02911 -0.380139 0
M  V30 2006 H 219.819 -3.03411 -0.752376 0
M  V30 2007 H 219.039 -3.56833 1.67524 0
M  V30 2008 H 220.327 -4.78486 1.72998 0
M  V30 2009 H 219.725 -5.48797 -1.37252 0
M  V30 2010 H 218.282 -6.40549 -1.20582 0
M  V30 2011 N 221.715 -0.905404 -1.28997 0
M  V30 2012 C 223.131 -0.60233 -1.47798 0
M  V30 2013 C 223.331 0.854645 -1.82478 0
M  V30 2014 O 222.387 1.63439 -1.92468 0
M  V30 2015 C 223.7 -1.53306 -2.58685 0
M  V30 2016 C 225.248 -1.53887 -2.72558 0
M  V30 2017 C 225.723 -2.45602 -3.86579 0
M  V30 2018 N 227.214 -2.43681 -3.93921 0
M  V30 2019 C 227.949 -3.11347 -4.81509 0
M  V30 2020 N 227.445 -3.88313 -5.73746 0
M  V30 2021 N 229.238 -3.00476 -4.75048 0
M  V30 2022 H 221.389 -1.84765 -1.04764 0
M  V30 2023 H 223.652 -0.792025 -0.520961 0
M  V30 2024 H 223.358 -2.57141 -2.39941 0
M  V30 2025 H 223.232 -1.25787 -3.55609 0
M  V30 2026 H 225.619 -0.507941 -2.90696 0
M  V30 2027 H 225.7 -1.85447 -1.76191 0
M  V30 2028 H 225.344 -3.48792 -3.69197 0
M  V30 2029 H 225.274 -2.11349 -4.82327 0
M  V30 2030 H 227.765 -1.87767 -3.27951 0
M  V30 2031 H 228.078 -4.36985 -6.37389 0
M  V30 2032 H 226.423 -3.92419 -5.73614 0
M  V30 2033 H 229.614 -2.39858 -4.01977 0
M  V30 2034 H 229.787 -3.53485 -5.43095 0
M  V30 2035 N 223.193 1.4272 -0.668489 0
M  V30 2036 C 224.441 2.01226 -0.187769 0
M  V30 2037 C 224.762 1.53092 1.2078 0
M  V30 2038 O 224.032 0.74993 1.80977 0
M  V30 2039 H 222.612 0.744041 -0.0664272 0
M  V30 2040 H 225.274 1.74723 -0.863583 0
M  V30 2041 H 224.37 3.11556 -0.184166 0
M  V30 2042 N 224.671 0.411399 1.52136 0
M  V30 2043 C 225.619 -0.427633 2.28635 0
M  V30 2044 C 226.613 -1.04383 1.33419 0
M  V30 2045 O 227.819 -0.981772 1.50868 0
M  V30 2046 H 224.194 -0.156689 0.735495 0
M  V30 2047 H 226.165 0.238761 2.97443 0
M  V30 2048 C 224.914 -1.53082 3.12188 0
M  V30 2049 H 224.237 -1.06601 3.85326 0
M  V30 2050 H 225.677 -2.09167 3.68816 0
M  V30 2051 C 224.136 -2.49946 2.25895 0
M  V30 2052 O 224.666 -3.53884 1.90076 0
M  V30 2053 N 222.872 -2.2021 1.8962 0
M  V30 2054 H 222.419 -1.35719 2.18948 0
M  V30 2055 H 222.377 -2.85266 1.32176 0
M  V30 2056 N 226.149 -1.5696 0.141893 0
M  V30 2057 C 227.426 -1.87553 -0.555281 0
M  V30 2058 C 227.806 -1.04699 -1.83306 0
M  V30 2059 O 227.154 -0.132346 -2.28116 0
M  V30 2060 C 227.364 -3.39093 -0.825664 0
M  V30 2061 C 228.712 -4.08199 -1.16869 0
M  V30 2062 O 229.736 -3.44242 -0.915185 0
M  V30 2063 O 228.595 -5.21139 -1.6455 0
M  V30 2064 H 225.689 -0.777188 -0.282679 0
M  V30 2065 H 228.235 -1.68763 0.17812 0
M  V30 2066 H 227.007 -3.91221 0.0788633 0
M  V30 2067 H 226.63 -3.63393 -1.61343 0
M  V30 2068 N 227.627 0.131896 -1.57047 0
M  V30 2069 C 228.873 0.843179 -1.84441 0
M  V30 2070 C 229.206 1.80129 -0.725749 0
M  V30 2071 O 228.481 1.92624 0.269469 0
M  V30 2072 C 228.764 1.60442 -3.22382 0
M  V30 2073 C 228.617 0.666782 -4.4483 0
M  V30 2074 C 229.936 2.56354 -3.5773 0
M  V30 2075 H 227.055 0.305081 -0.670891 0
M  V30 2076 H 229.697 0.107839 -1.89694 0
M  V30 2077 H 227.847 2.23128 -3.18035 0
M  V30 2078 H 229.519 0.0497646 -4.61273 0
M  V30 2079 H 227.762 -0.022609 -4.33794 0
M  V30 2080 H 228.433 1.23579 -5.37989 0
M  V30 2081 H 230.909 2.0378 -3.62785 0
M  V30 2082 H 229.785 3.06657 -4.5525 0
M  V30 2083 H 230.046 3.38419 -2.84473 0
M  V30 2084 N 229.106 1.52395 0.401703 0
M  V30 2085 C 230.069 1.75636 1.47257 0
M  V30 2086 C 231.069 0.62628 1.48103 0
M  V30 2087 O 232.259 0.894227 1.49497 0
M  V30 2088 C 229.391 1.84553 2.86624 0
M  V30 2089 H 230.584 2.71241 1.27938 0
M  V30 2090 H 228.137 1.42923 0.632662 0
M  V30 2091 H 228.872 0.908882 3.11303 0
M  V30 2092 H 228.657 2.66715 2.87412 0
M  V30 2093 H 230.147 2.04251 3.64241 0
M  V30 2094 N 230.584 -0.659388 1.43143 0
M  V30 2095 C 231.831 -1.41935 1.44433 0
M  V30 2096 C 232.159 -1.94387 0.0663522 0
M  V30 2097 O 231.414 -1.72314 -0.927706 0
M  V30 2098 C 231.713 -2.62206 2.42864 0
M  V30 2099 C 231.379 -2.28208 3.88886 0
M  V30 2100 C 230.041 -2.18647 4.28657 0
M  V30 2101 C 232.393 -2.00887 4.8093 0
M  V30 2102 C 229.721 -1.79914 5.58433 0
M  V30 2103 C 232.073 -1.63653 6.11065 0
M  V30 2104 C 230.737 -1.52614 6.49819 0
M  V30 2105 H 230.007 -0.519376 0.528517 0
M  V30 2106 H 232.654 -0.750453 1.76183 0
M  V30 2107 H 230.959 -3.34199 2.04495 0
M  V30 2108 H 232.656 -3.2041 2.41119 0
M  V30 2109 H 229.246 -2.36557 3.57406 0
M  V30 2110 H 233.43 -2.07198 4.5098 0
M  V30 2111 H 228.686 -1.69948 5.87305 0
M  V30 2112 H 232.86 -1.41543 6.81864 0
M  V30 2113 H 230.487 -1.22371 7.50286 0
M  V30 2114 N 232.062 -1.29571 -0.897171 0
M  V30 2115 C 233.012 -1.11539 -1.98855 0
M  V30 2116 C 233.996 -0.0340716 -1.60864 0
M  V30 2117 O 235.188 -0.256062 -1.75138 0
M  V30 2118 C 232.317 -0.796603 -3.3393 0
M  V30 2119 C 231.403 -1.91758 -3.78272 0
M  V30 2120 N 231.794 -3.16143 -3.94826 0
M  V30 2121 C 230.092 -1.81119 -4.07568 0
M  V30 2122 C 230.793 -3.89293 -4.32233 0
M  V30 2123 N 229.769 -3.17255 -4.41419 0
M  V30 2124 H 233.571 -2.05894 -2.09726 0
M  V30 2125 H 231.085 -1.20732 -1.08616 0
M  V30 2126 H 233.082 -0.648459 -4.11826 0
M  V30 2127 H 231.742 0.139003 -3.24402 0
M  V30 2128 H 232.753 -3.5157 -3.80288 0
M  V30 2129 H 229.43 -0.948461 -4.06584 0
M  V30 2130 H 230.82 -4.9635 -4.52865 0
M  V30 2131 N 233.54 1.10788 -1.12088 0
M  V30 2132 C 234.787 1.82671 -0.873931 0
M  V30 2133 C 235.115 1.85004 0.600311 0
M  V30 2134 O 234.37 1.30365 1.45957 0
M  V30 2135 C 234.669 3.29294 -1.38926 0
M  V30 2136 C 234.335 3.47113 -2.87791 0
M  V30 2137 C 232.997 3.51684 -3.28439 0
M  V30 2138 C 235.349 3.52808 -3.83635 0
M  V30 2139 C 232.677 3.59513 -4.63646 0
M  V30 2140 C 235.029 3.62169 -5.18668 0
M  V30 2141 C 233.693 3.65003 -5.58864 0
M  V30 2142 H 232.963 0.668441 -0.319794 0
M  V30 2143 H 235.61 1.30613 -1.40045 0
M  V30 2144 H 233.915 3.83894 -0.783122 0
M  V30 2145 H 235.612 3.83416 -1.17443 0
M  V30 2146 H 232.202 3.4423 -2.5535 0
M  V30 2147 H 236.386 3.4853 -3.53328 0
M  V30 2148 H 231.642 3.59987 -4.94185 0
M  V30 2149 H 235.816 3.6552 -5.92763 0
M  V30 2150 H 233.443 3.70822 -6.63623 0
M  V30 2151 N 235.018 0.912232 1.28515 0
M  V30 2152 C 235.966 0.389597 2.29314 0
M  V30 2153 C 236.96 -0.517915 1.61289 0
M  V30 2154 O 238.166 -0.399328 1.75515 0
M  V30 2155 H 234.541 0.107386 0.744293 0
M  V30 2156 H 236.512 1.25286 2.70825 0
M  V30 2157 C 235.261 -0.356496 3.45868 0
M  V30 2158 H 234.584 0.332608 3.98414 0
M  V30 2159 H 236.024 -0.686851 4.184 0
M  V30 2160 C 234.483 -1.56383 2.98406 0
M  V30 2161 O 235.013 -2.66294 3.00749 0
M  V30 2162 N 233.219 -1.41029 2.54085 0
M  V30 2163 H 232.766 -0.516089 2.52377 0
M  V30 2164 H 232.724 -2.21939 2.22689 0
M  V30 2165 N 236.496 -1.42363 0.676048 0
M  V30 2166 C 237.907 -1.84649 0.275948 0
M  V30 2167 C 238.258 -1.56588 -1.18214 0
M  V30 2168 O 237.383 -1.02634 -1.90513 0
M  V30 2169 C 237.978 -3.35178 0.494053 0
M  V30 2170 C 236.537 -3.76109 0.148061 0
M  V30 2171 C 235.684 -2.65931 0.785891 0
M  V30 2172 H 238.635 -1.32192 0.878121 0
M  V30 2173 H 238.656 -3.79655 -0.25343 0
M  V30 2174 H 238.168 -3.55571 1.55535 0
M  V30 2175 H 236.269 -3.61323 -0.909742 0
M  V30 2176 H 236.382 -4.7546 0.589454 0
M  V30 2177 H 234.746 -2.53773 0.217113 0
M  V30 2178 H 235.529 -2.89146 1.85067 0
M  V30 2179 N 237.974 -0.419461 -1.51915 0
M  V30 2180 C 239.39 -0.0708431 -1.59443 0
M  V30 2181 C 239.59 1.41796 -1.43164 0
M  V30 2182 O 238.646 2.18596 -1.26381 0
M  V30 2183 C 239.959 -0.574991 -2.95151 0
M  V30 2184 C 241.507 -0.533867 -3.08413 0
M  V30 2185 C 241.982 -1.01469 -4.46618 0
M  V30 2186 N 243.473 -0.971939 -4.52888 0
M  V30 2187 C 244.208 -1.31505 -5.58116 0
M  V30 2188 N 243.704 -1.73014 -6.70849 0
M  V30 2189 N 245.497 -1.23436 -5.48379 0
M  V30 2190 H 237.648 -1.38836 -1.60743 0
M  V30 2191 H 239.911 -0.570998 -0.756747 0
M  V30 2192 H 239.617 -1.61597 -3.12377 0
M  V30 2193 H 239.491 0.00979777 -3.77199 0
M  V30 2194 H 241.878 0.498086 -2.90866 0
M  V30 2195 H 241.959 -1.15484 -2.28248 0
M  V30 2196 H 241.603 -2.04502 -4.6491 0
M  V30 2197 H 241.533 -0.370433 -5.25295 0
M  V30 2198 H 244.024 -0.666893 -3.71969 0
M  V30 2199 H 244.337 -1.97479 -7.47143 0
M  V30 2200 H 242.682 -1.76926 -6.72103 0
M  V30 2201 H 245.873 -0.908869 -4.59192 0
M  V30 2202 H 246.046 -1.50506 -6.30279 0
M  V30 2203 N 239.452 1.56882 -0.150215 0
M  V30 2204 C 240.699 1.96228 0.500093 0
M  V30 2205 C 241.027 1.03522 1.64661 0
M  V30 2206 O 240.282 0.0650683 1.95592 0
M  V30 2207 C 240.581 3.41801 1.04437 0
M  V30 2208 C 240.247 4.50897 0.0159671 0
M  V30 2209 C 238.909 4.8046 -0.266731 0
M  V30 2210 C 241.261 5.16703 -0.683192 0
M  V30 2211 C 238.589 5.73135 -1.25434 0
M  V30 2212 C 240.941 6.10441 -1.65964 0
M  V30 2213 C 239.605 6.38382 -1.95 0
M  V30 2214 H 238.875 0.718048 0.182997 0
M  V30 2215 H 241.522 1.90019 -0.237724 0
M  V30 2216 H 239.827 3.44857 1.85959 0
M  V30 2217 H 241.524 3.69573 1.55618 0
M  V30 2218 H 238.114 4.27891 0.246485 0
M  V30 2219 H 242.298 4.93993 -0.477983 0
M  V30 2220 H 237.554 5.93074 -1.48571 0
M  V30 2221 H 241.728 6.60507 -2.20689 0
M  V30 2222 H 239.355 7.09996 -2.71679 0
M  V30 2223 N 240.93 -0.123565 1.57115 0
M  V30 2224 C 241.878 -1.17082 2.00984 0
M  V30 2225 C 242.872 -1.43136 0.906009 0
M  V30 2226 O 244.078 -1.43152 1.09121 0
M  V30 2227 H 240.453 -0.394653 0.64012 0
M  V30 2228 H 242.424 -0.774292 2.88179 0
M  V30 2229 C 241.173 -2.49057 2.42623 0
M  V30 2230 H 240.496 -2.29846 3.27125 0
M  V30 2231 H 241.936 -3.20906 2.7712 0
M  V30 2232 C 240.395 -3.11305 1.28805 0
M  V30 2233 O 240.925 -3.97171 0.60153 0
M  V30 2234 N 239.131 -2.71111 1.04628 0
M  V30 2235 H 238.678 -2.01382 1.60634 0
M  V30 2236 H 238.636 -3.1309 0.286685 0
M  V30 2237 N 242.408 -1.52605 -0.393616 0
M  V30 2238 C 243.318 -1.79971 -1.50492 0
M  V30 2239 C 244.334 -0.686181 -1.59899 0
M  V30 2240 O 245.51 -0.973274 -1.76322 0
M  V30 2241 C 242.575 -1.95867 -2.86072 0
M  V30 2242 C 241.636 -3.19781 -2.86424 0
M  V30 2243 C 240.869 -3.34909 -4.15538 0
M  V30 2244 O 241.092 -2.54948 -5.10253 0
M  V30 2245 O 240.026 -4.28141 -4.23059 0
M  V30 2246 H 243.852 -2.74328 -1.30299 0
M  V30 2247 H 241.437 -1.3764 -0.581005 0
M  V30 2248 H 243.319 -2.08056 -3.66457 0
M  V30 2249 H 241.994 -1.04699 -3.063 0
M  V30 2250 H 240.901 -3.13038 -2.04837 0
M  V30 2251 H 242.234 -4.1078 -2.71147 0
M  V30 2252 N 243.887 0.651787 -1.4349 0
M  V30 2253 C 244.835 1.78586 -1.49029 0
M  V30 2254 C 245.829 1.65448 -0.363767 0
M  V30 2255 O 247.035 1.71777 -0.537821 0
M  V30 2256 H 243.41 0.589236 -0.467231 0
M  V30 2257 H 245.381 1.71035 -2.44519 0
M  V30 2258 C 244.13 3.16851 -1.43181 0
M  V30 2259 H 243.453 3.27598 -2.29171 0
M  V30 2260 H 244.893 3.96156 -1.51118 0
M  V30 2261 C 243.352 3.36568 -0.149616 0
M  V30 2262 O 243.882 3.93885 0.788509 0
M  V30 2263 N 242.088 2.90539 -0.0593484 0
M  V30 2264 H 241.635 2.4408 -0.823575 0
M  V30 2265 H 241.593 3.04108 0.797853 0
M  V30 2266 N 245.365 1.30045 0.890287 0
M  V30 2267 C 246.313 1.15873 2.01683 0
M  V30 2268 C 247.307 0.0719403 1.69247 0
M  V30 2269 O 248.513 0.232414 1.78493 0
M  V30 2270 H 244.888 0.358203 0.661207 0
M  V30 2271 H 246.859 2.11229 2.10772 0
M  V30 2272 C 245.608 0.861842 3.36849 0
M  V30 2273 H 244.931 1.69016 3.62317 0
M  V30 2274 H 246.371 0.802762 4.16331 0
M  V30 2275 C 244.83 -0.435132 3.34078 0
M  V30 2276 O 245.36 -1.4583 3.74295 0
M  V30 2277 N 243.566 -0.444377 2.87182 0
M  V30 2278 H 243.113 0.388723 2.5465 0
M  V30 2279 H 243.071 -1.31213 2.85711 0
M  V30 2280 N 246.843 -1.10192 1.12674 0
M  V30 2281 C 248.259 -1.34235 0.863317 0
M  V30 2282 C 248.459 -1.95062 -0.505277 0
M  V30 2283 O 247.515 -2.19192 -1.25345 0
M  V30 2284 C 248.828 -2.2616 1.98172 0
M  V30 2285 C 250.376 -2.3969 2.0129 0
M  V30 2286 C 250.851 -3.34946 3.1237 0
M  V30 2287 N 252.342 -3.42515 3.11829 0
M  V30 2288 C 253.077 -4.16199 3.94419 0
M  V30 2289 N 252.573 -4.92747 4.87004 0
M  V30 2290 N 254.366 -4.11843 3.82547 0
M  V30 2291 H 246.517 -0.690798 2.00853 0
M  V30 2292 H 248.78 -0.366774 0.874174 0
M  V30 2293 H 248.486 -1.8868 2.96804 0
M  V30 2294 H 248.36 -3.26488 1.88906 0
M  V30 2295 H 250.747 -2.76438 1.03276 0
M  V30 2296 H 250.828 -1.39169 2.14629 0
M  V30 2297 H 250.472 -2.98923 4.10619 0
M  V30 2298 H 250.402 -4.35353 2.96269 0
M  V30 2299 H 252.893 -2.87926 2.44759 0
M  V30 2300 H 253.206 -5.46376 5.46528 0
M  V30 2301 H 251.551 -4.91862 4.91016 0
M  V30 2302 H 254.742 -3.51136 3.0955 0
M  V30 2303 H 254.915 -4.69007 4.47142 0
M  V30 2304 N 248.321 -0.919034 -1.28029 0
M  V30 2305 C 249.737 -0.617972 -1.4715 0
M  V30 2306 C 249.937 0.835242 -1.83374 0
M  V30 2307 O 248.993 1.61388 -1.94191 0
M  V30 2308 C 250.306 -1.56041 -2.57044 0
M  V30 2309 C 251.854 -1.56769 -2.7091 0
M  V30 2310 C 252.329 -2.49688 -3.83953 0
M  V30 2311 N 253.82 -2.47845 -3.91314 0
M  V30 2312 C 254.555 -3.16437 -4.78179 0
M  V30 2313 N 254.051 -3.94376 -5.69596 0
M  V30 2314 N 255.844 -3.05498 -4.71834 0
M  V30 2315 H 247.995 -1.85866 -1.02798 0
M  V30 2316 H 250.258 -0.797506 -0.512531 0
M  V30 2317 H 249.964 -2.59671 -2.372 0
M  V30 2318 H 249.838 -1.29551 -3.54255 0
M  V30 2319 H 252.225 -0.538745 -2.90141 0
M  V30 2320 H 252.306 -1.87305 -1.74214 0
M  V30 2321 H 251.95 -3.52688 -3.65477 0
M  V30 2322 H 251.88 -2.16453 -4.80058 0
M  V30 2323 H 254.371 -1.91234 -3.25941 0
M  V30 2324 H 254.684 -4.43721 -6.32718 0
M  V30 2325 H 253.029 -3.98481 -5.69419 0
M  V30 2326 H 256.22 -2.44108 -3.99411 0
M  V30 2327 H 256.393 -3.59225 -5.39316 0
M  V30 2328 N 249.799 1.42003 -0.683588 0
M  V30 2329 C 251.045 2.01712 -0.209825 0
M  V30 2330 C 251.378 1.53968 1.18353 0
M  V30 2331 O 250.653 0.745661 1.79639 0
M  V30 2332 C 250.936 3.59202 -0.254197 0
M  V30 2333 C 250.789 4.17102 -1.68363 0
M  V30 2334 C 252.108 4.38344 0.392709 0
M  V30 2335 H 249.227 0.732891 -0.0777189 0
M  V30 2336 H 251.869 1.68909 -0.87004 0
M  V30 2337 H 250.019 3.87278 0.307954 0
M  V30 2338 H 251.691 3.99946 -2.29871 0
M  V30 2339 H 249.934 3.72597 -2.22157 0
M  V30 2340 H 250.605 5.26249 -1.6663 0
M  V30 2341 H 253.081 4.16011 -0.0859162 0
M  V30 2342 H 251.957 5.47901 0.331063 0
M  V30 2343 H 252.218 4.16887 1.47164 0
M  V30 2344 N 251.277 0.427512 1.51691 0
M  V30 2345 C 252.526 -0.143679 2.01188 0
M  V30 2346 C 252.839 -1.44642 1.31674 0
M  V30 2347 O 254.045 -2.09997 1.72086 0
M  V30 2348 C 252.501 -0.306602 3.58592 0
M  V30 2349 C 252.109 0.985125 4.37035 0
M  V30 2350 C 253.853 -0.832091 4.16265 0
M  V30 2351 C 251.76 0.788382 5.86122 0
M  V30 2352 H 250.69 -0.0574701 0.751807 0
M  V30 2353 H 253.341 0.555772 1.74881 0
M  V30 2354 H 251.723 -1.06882 3.81303 0
M  V30 2355 H 252.897 1.75492 4.26074 0
M  V30 2356 H 251.212 1.4384 3.90767 0
M  V30 2357 H 253.809 -0.995617 5.25349 0
M  V30 2358 H 254.152 -1.81186 3.74803 0
M  V30 2359 H 254.685 -0.128444 3.97593 0
M  V30 2360 H 251.424 1.74025 6.31978 0
M  V30 2361 H 250.944 0.0582143 5.99772 0
M  V30 2362 H 252.623 0.437722 6.45518 0
M  V30 2363 N 252.755 -1.56801 0.158532 0
M  V30 2364 C 254.001 -1.96781 -0.490405 0
M  V30 2365 C 254.334 -1.04397 -1.63753 0
M  V30 2366 O 253.609 -0.0885805 -1.94298 0
M  V30 2367 C 253.892 -3.4635 -0.985594 0
M  V30 2368 C 253.745 -4.49512 0.160824 0
M  V30 2369 C 255.064 -3.98697 -1.86355 0
M  V30 2370 H 252.183 -0.715482 -0.176788 0
M  V30 2371 H 254.825 -1.88451 0.242088 0
M  V30 2372 H 252.975 -3.53579 -1.60978 0
M  V30 2373 H 254.647 -4.54353 0.797537 0
M  V30 2374 H 252.89 -4.26013 0.818256 0
M  V30 2375 H 253.561 -5.51531 -0.227569 0
M  V30 2376 H 256.037 -3.94019 -1.33746 0
M  V30 2377 H 254.913 -5.03792 -2.17909 0
M  V30 2378 H 255.174 -3.41744 -2.8047 0
M  V30 2379 N 254.233 0.115231 -1.57178 0
M  V30 2380 C 255.473 0.828199 -1.8687 0
M  V30 2381 C 255.837 1.76873 -0.747002 0
M  V30 2382 O 257.038 2.52354 -0.925785 0
M  V30 2383 C 255.309 1.55515 -3.21792 0
M  V30 2384 S 256.868 2.30917 -3.73125 0
M  V30 2385 H 253.686 0.27634 -0.655101 0
M  V30 2386 H 256.288 0.0863469 -1.95309 0
M  V30 2387 H 254.992 0.856248 -4.01368 0
M  V30 2388 H 254.523 2.3373 -3.16439 0
M  V30 2389 H 256.538 3.56705 -3.44929 0
M  V30 2390 N 255.711 1.52812 0.385517 0
M  V30 2391 C 256.659 1.78482 1.49155 0
M  V30 2392 C 257.653 0.652914 1.56312 0
M  V30 2393 O 258.859 0.835464 1.59436 0
M  V30 2394 H 255.234 0.5648 0.496493 0
M  V30 2395 H 257.205 2.71095 1.24699 0
M  V30 2396 C 255.954 1.97378 2.86247 0
M  V30 2397 H 255.277 2.83907 2.81491 0
M  V30 2398 H 256.717 2.19327 3.62866 0
M  V30 2399 C 255.176 0.74728 3.28508 0
M  V30 2400 O 255.706 -0.0736232 4.01633 0
M  V30 2401 N 253.912 0.576396 2.84826 0
M  V30 2402 H 253.459 1.24555 2.25486 0
M  V30 2403 H 253.417 -0.24288 3.1346 0
M  V30 2404 N 257.189 -0.644168 1.43834 0
M  V30 2405 C 258.417 -1.43147 1.49387 0
M  V30 2406 C 258.832 -1.88452 0.114583 0
M  V30 2407 O 258.189 -1.60047 -0.876989 0
M  V30 2408 C 258.24 -2.66046 2.44748 0
M  V30 2409 O 257.961 -2.22633 3.77314 0
M  V30 2410 C 259.462 -3.59311 2.59635 0
M  V30 2411 H 256.682 -0.439447 0.507077 0
M  V30 2412 H 259.226 -0.78895 1.88669 0
M  V30 2413 H 257.381 -3.26418 2.08638 0
M  V30 2414 H 257.795 -3.02216 4.28679 0
M  V30 2415 H 259.269 -4.42187 3.30416 0
M  V30 2416 H 259.746 -4.07259 1.64427 0
M  V30 2417 H 260.352 -3.04816 2.96593 0
M  V30 2418 N 258.668 -1.30515 -0.883378 0
M  V30 2419 C 259.615 -1.17032 -1.98927 0
M  V30 2420 C 260.585 -0.0594241 -1.65994 0
M  V30 2421 O 261.77 -0.229895 -1.8941 0
M  V30 2422 C 258.91 -0.869777 -3.33959 0
M  V30 2423 C 258.023 -2.06271 -3.79574 0
M  V30 2424 C 257.158 -1.70011 -5.03259 0
M  V30 2425 C 256.197 -2.8579 -5.41286 0
M  V30 2426 N 255.334 -2.49816 -6.56153 0
M  V30 2427 H 260.174 -2.1164 -2.09792 0
M  V30 2428 H 257.711 -1.05296 -1.02719 0
M  V30 2429 H 259.669 -0.676138 -4.11685 0
M  V30 2430 H 258.299 0.0394332 -3.22776 0
M  V30 2431 H 257.351 -2.36755 -2.97744 0
M  V30 2432 H 258.663 -2.92971 -4.03694 0
M  V30 2433 H 257.817 -1.47032 -5.88614 0
M  V30 2434 H 256.556 -0.804829 -4.81013 0
M  V30 2435 H 255.561 -3.09434 -4.54456 0
M  V30 2436 H 256.786 -3.76008 -5.65504 0
M  V30 2437 H 254.732 -1.62795 -6.35479 0
M  V30 2438 H 254.649 -3.30048 -6.8015 0
M  V30 2439 H 255.917 -2.30197 -7.44735 0
M  V30 2440 N 260.146 1.09593 -1.13257 0
M  V30 2441 C 261.076 2.18214 -0.830946 0
M  V30 2442 C 262.057 1.68812 0.208966 0
M  V30 2443 O 263.242 1.9408 0.0682666 0
M  V30 2444 C 260.372 3.46051 -0.294296 0
M  V30 2445 C 259.326 4.08778 -1.26826 0
M  V30 2446 C 258.652 5.31419 -0.591449 0
M  V30 2447 C 259.952 4.51476 -2.62615 0
M  V30 2448 H 261.646 2.43703 -1.73923 0
M  V30 2449 H 259.192 1.17128 -0.837675 0
M  V30 2450 H 261.145 4.2134 -0.0709606 0
M  V30 2451 H 259.869 3.20079 0.649366 0
M  V30 2452 H 258.528 3.35505 -1.47756 0
M  V30 2453 H 258.176 5.01727 0.357633 0
M  V30 2454 H 257.876 5.74341 -1.24123 0
M  V30 2455 H 259.4 6.09433 -0.377355 0
M  V30 2456 H 260.814 5.17999 -2.45663 0
M  V30 2457 H 259.211 5.05277 -3.23752 0
M  V30 2458 H 260.281 3.63962 -3.20406 0
M  V30 2459 N 261.624 0.925811 1.2754 0
M  V30 2460 C 262.901 0.483726 1.89524 0
M  V30 2461 C 263.281 -1.03809 1.83812 0
M  V30 2462 O 262.629 -1.89143 1.28207 0
M  V30 2463 C 262.839 1.02769 3.33526 0
M  V30 2464 C 264.187 1.08703 4.10449 0
M  V30 2465 O 265.211 0.977175 3.42534 0
M  V30 2466 O 264.07 1.25599 5.31871 0
M  V30 2467 H 261.164 0.15529 0.812289 0
M  V30 2468 H 263.71 1.01738 1.35822 0
M  V30 2469 H 262.482 2.07155 3.31967 0
M  V30 2470 H 262.105 0.475567 3.94746 0
M  V30 2471 N 263.102 -1.41638 0.69111 0
M  V30 2472 C 264.05 -2.32597 0.0115199 0
M  V30 2473 C 265.044 -1.5072 -0.773296 0
M  V30 2474 O 266.25 -1.66685 -0.67942 0
M  V30 2475 H 262.625 -0.751849 -0.0150746 0
M  V30 2476 H 264.596 -2.87593 0.795791 0
M  V30 2477 C 263.345 -3.35467 -0.914172 0
M  V30 2478 H 262.668 -3.9852 -0.319687 0
M  V30 2479 H 264.108 -4.01662 -1.35808 0
M  V30 2480 C 262.567 -2.69004 -2.02826 0
M  V30 2481 O 263.097 -2.53444 -3.11655 0
M  V30 2482 N 261.303 -2.2777 -1.80469 0
M  V30 2483 H 260.85 -2.40626 -0.919615 0
M  V30 2484 H 260.808 -1.83635 -2.55197 0
M  V30 2485 N 264.58 -0.43555 -1.51462 0
M  V30 2486 C 265.528 0.391205 -2.29287 0
M  V30 2487 C 266.522 1.02247 -1.35062 0
M  V30 2488 O 267.728 0.957646 -1.52411 0
M  V30 2489 H 264.103 0.144968 -0.737895 0
M  V30 2490 H 266.074 -0.286051 -2.97026 0
M  V30 2491 C 264.823 1.48096 -3.14583 0
M  V30 2492 H 264.146 1.00457 -3.86973 0
M  V30 2493 H 265.586 2.03273 -3.72097 0
M  V30 2494 C 264.045 2.46321 -2.29843 0
M  V30 2495 O 264.575 3.50815 -1.95682 0
M  V30 2496 N 262.781 2.17166 -1.931 0
M  V30 2497 H 262.328 1.32218 -2.21079 0
M  V30 2498 H 262.286 2.83127 -1.36698 0
M  V30 2499 N 266.058 1.56714 -0.166846 0
M  V30 2500 C 267.304 1.97813 0.473473 0
M  V30 2501 C 267.659 1.05095 1.61161 0
M  V30 2502 O 266.952 0.0897541 1.9139 0
M  V30 2503 C 267.146 3.42889 1.00806 0
M  V30 2504 C 266.975 4.49635 -0.0767392 0
M  V30 2505 C 265.745 5.02566 -0.524894 0
M  V30 2506 C 267.943 5.06793 -0.875504 0
M  V30 2507 N 265.925 5.9294 -1.59047 0
M  V30 2508 C 267.296 5.93565 -1.79111 0
M  V30 2509 C 269.351 4.89306 -0.921083 0
M  V30 2510 C 268.054 6.64721 -2.74843 0
M  V30 2511 C 270.08 5.61179 -1.86633 0
M  V30 2512 C 269.442 6.47675 -2.76942 0
M  V30 2513 H 265.541 0.769093 0.141489 0
M  V30 2514 H 268.125 1.92874 -0.266031 0
M  V30 2515 H 266.296 3.48382 1.7171 0
M  V30 2516 H 268.028 3.71008 1.61664 0
M  V30 2517 H 264.783 4.73439 -0.123432 0
M  V30 2518 H 265.207 6.42831 -2.12361 0
M  V30 2519 H 269.849 4.22136 -0.23692 0
M  V30 2520 H 267.567 7.31107 -3.44249 0
M  V30 2521 H 271.153 5.49636 -1.90764 0
M  V30 2522 H 270.033 7.02313 -3.48893 0
M  V30 2523 N 267.536 -0.106894 1.57237 0
M  V30 2524 C 268.784 -0.810921 1.85117 0
M  V30 2525 C 269.105 -1.7984 0.753827 0
M  V30 2526 O 268.375 -1.94649 -0.221056 0
M  V30 2527 H 266.955 -0.302466 0.683025 0
M  V30 2528 H 269.617 -0.0913324 1.94686 0
M  V30 2529 H 268.713 -1.34875 2.81452 0
M  V30 2530 N 269.014 -1.53014 -0.377408 0
M  V30 2531 C 270.43 -1.42523 -0.718281 0
M  V30 2532 C 270.63 -0.55487 -1.9371 0
M  V30 2533 O 269.686 -0.0327593 -2.52479 0
M  V30 2534 C 270.999 -2.85546 -0.942539 0
M  V30 2535 C 272.547 -2.95101 -1.04329 0
M  V30 2536 C 273.022 -4.3916 -1.3001 0
M  V30 2537 N 274.513 -4.42536 -1.36806 0
M  V30 2538 C 275.248 -5.51097 -1.58364 0
M  V30 2539 N 274.744 -6.69724 -1.77317 0
M  V30 2540 N 276.537 -5.38657 -1.60638 0
M  V30 2541 H 268.688 -2.08116 0.424426 0
M  V30 2542 H 270.951 -0.939352 0.127759 0
M  V30 2543 H 270.657 -3.51499 -0.118929 0
M  V30 2544 H 270.531 -3.28493 -1.85397 0
M  V30 2545 H 272.918 -2.29309 -1.85745 0
M  V30 2546 H 272.999 -2.55566 -0.109505 0
M  V30 2547 H 272.643 -5.05521 -0.490991 0
M  V30 2548 H 272.573 -4.76258 -2.24691 0
M  V30 2549 H 275.064 -3.57039 -1.23821 0
M  V30 2550 H 275.377 -7.48233 -1.93306 0
M  V30 2551 H 273.722 -6.72732 -1.74518 0
M  V30 2552 H 276.913 -4.44948 -1.45391 0
M  V30 2553 H 277.086 -6.2333 -1.77098 0
M  V30 2554 N 270.492 0.636531 -1.44174 0
M  V30 2555 C 271.402 1.77754 -1.53103 0
M  V30 2556 C 272.418 1.68928 -0.417034 0
M  V30 2557 O 273.594 1.89801 -0.6736 0
M  V30 2558 C 270.659 3.14115 -1.46741 0
M  V30 2559 C 269.72 3.34612 -2.68948 0
M  V30 2560 C 268.953 4.64467 -2.6288 0
M  V30 2561 O 269.176 5.44919 -1.68581 0
M  V30 2562 O 268.11 4.87049 -3.53648 0
M  V30 2563 H 271.936 1.73174 -2.49489 0
M  V30 2564 H 269.521 0.79709 -1.2636 0
M  V30 2565 H 271.403 3.95412 -1.45696 0
M  V30 2566 H 270.078 3.19249 -0.534975 0
M  V30 2567 H 268.985 2.53014 -2.75562 0
M  V30 2568 H 270.318 3.34336 -3.61221 0
M  V30 2569 N 271.97 1.30982 0.876444 0
M  V30 2570 C 272.88 1.2003 2.01569 0
M  V30 2571 C 273.896 0.11838 1.73597 0
M  V30 2572 O 275.072 0.33495 1.98595 0
M  V30 2573 C 272.137 0.901637 3.34771 0
M  V30 2574 C 271.198 2.06979 3.76109 0
M  V30 2575 C 270.431 1.78529 5.02954 0
M  V30 2576 O 270.654 0.717296 5.65872 0
M  V30 2577 O 269.588 2.64019 5.40905 0
M  V30 2578 H 273.414 2.15753 2.13739 0
M  V30 2579 H 270.999 1.10658 1.00375 0
M  V30 2580 H 272.881 0.750645 4.1466 0
M  V30 2581 H 271.556 -0.0256141 3.2369 0
M  V30 2582 H 270.463 2.27616 2.96887 0
M  V30 2583 H 271.796 2.97907 3.91807 0
M  V30 2584 N 273.449 -1.08991 1.13837 0
M  V30 2585 C 274.865 -1.33312 0.877506 0
M  V30 2586 C 275.065 -1.95587 -0.48456 0
M  V30 2587 O 274.121 -2.20509 -1.23013 0
M  V30 2588 C 275.434 -2.24045 2.0056 0
M  V30 2589 C 276.982 -2.37542 2.03821 0
M  V30 2590 C 277.457 -3.31614 3.15905 0
M  V30 2591 N 278.948 -3.39189 3.15445 0
M  V30 2592 C 279.683 -4.11992 3.98811 0
M  V30 2593 N 279.179 -4.87553 4.92203 0
M  V30 2594 N 280.972 -4.07762 3.86894 0
M  V30 2595 H 273.123 -0.669456 2.01574 0
M  V30 2596 H 275.386 -0.357482 0.878015 0
M  V30 2597 H 275.092 -1.85521 2.98789 0
M  V30 2598 H 274.966 -3.24466 1.92359 0
M  V30 2599 H 277.353 -2.75327 1.06202 0
M  V30 2600 H 277.434 -1.36884 2.16093 0
M  V30 2601 H 277.078 -2.94551 4.13766 0
M  V30 2602 H 277.008 -4.32186 3.0087 0
M  V30 2603 H 279.499 -2.85314 2.47799 0
M  V30 2604 H 279.812 -5.40549 5.52292 0
M  V30 2605 H 278.157 -4.86627 4.96205 0
M  V30 2606 H 281.348 -3.47833 3.13257 0
M  V30 2607 H 281.521 -4.64238 4.52092 0
M  V30 2608 N 274.927 -0.932562 -1.27047 0
M  V30 2609 C 275.859 -0.392734 -2.2581 0
M  V30 2610 C 276.872 0.479241 -1.55586 0
M  V30 2611 O 278.061 0.291078 -1.76111 0
M  V30 2612 C 275.161 0.455456 -3.35826 0
M  V30 2613 C 274.334 -0.398355 -4.35582 0
M  V30 2614 C 273.393 0.387985 -5.24768 0
M  V30 2615 O 272.419 -0.206003 -5.68827 0
M  V30 2616 N 273.621 1.68664 -5.55457 0
M  V30 2617 H 276.386 -1.24173 -2.72766 0
M  V30 2618 H 273.947 -0.800511 -1.40725 0
M  V30 2619 H 275.939 0.988692 -3.92437 0
M  V30 2620 H 274.509 1.20522 -2.88432 0
M  V30 2621 H 273.729 -1.11286 -3.78165 0
M  V30 2622 H 275.017 -0.981889 -4.99236 0
M  V30 2623 H 274.415 2.19147 -5.21528 0
M  V30 2624 H 272.972 2.1663 -6.14748 0
M  V30 2625 N 276.405 1.4127 -0.698611 0
M  V30 2626 C 277.63 2.06024 -0.238512 0
M  V30 2627 C 278.055 1.5224 1.10475 0
M  V30 2628 O 277.413 0.650623 1.69223 0
M  V30 2629 C 277.461 3.59988 -0.209952 0
M  V30 2630 O 276.565 4.04282 0.814235 0
M  V30 2631 H 275.906 0.653829 -0.115775 0
M  V30 2632 H 278.436 1.8098 -0.954326 0
M  V30 2633 H 278.446 4.07979 -0.0418436 0
M  V30 2634 H 277.121 3.98503 -1.1903 0
M  V30 2635 H 275.698 3.6779 0.615234 0
M  V30 2636 N 277.883 0.443576 1.51229 0
M  V30 2637 C 279.129 -0.120975 2.02439 0
M  V30 2638 C 279.462 -1.41815 1.32674 0
M  V30 2639 O 278.737 -1.89373 0.443622 0
M  V30 2640 C 279.02 -0.333291 3.58554 0
M  V30 2641 C 278.873 0.982968 4.38928 0
M  V30 2642 C 280.192 -1.10028 4.26124 0
M  V30 2643 H 277.311 -0.0424923 0.735774 0
M  V30 2644 H 279.953 0.583794 1.80809 0
M  V30 2645 H 278.103 -0.933614 3.77115 0
M  V30 2646 H 279.775 1.61775 4.32003 0
M  V30 2647 H 278.018 1.58611 4.03763 0
M  V30 2648 H 278.689 0.788379 5.46341 0
M  V30 2649 H 281.165 -0.591711 4.11871 0
M  V30 2650 H 280.041 -1.21761 5.35225 0
M  V30 2651 H 280.302 -2.12996 3.87408 0
M  V30 2652 N 279.361 -1.56624 0.175154 0
M  V30 2653 C 280.608 -1.96999 -0.468811 0
M  V30 2654 C 280.936 -1.06129 -1.62994 0
M  V30 2655 O 280.191 -0.0961771 -1.95464 0
M  V30 2656 C 280.49 -3.43419 -0.989864 0
M  V30 2657 C 280.156 -4.50866 0.0557687 0
M  V30 2658 C 278.818 -4.79975 0.343134 0
M  V30 2659 C 281.17 -5.15551 0.765308 0
M  V30 2660 C 278.498 -5.71066 1.34536 0
M  V30 2661 C 280.85 -6.07724 1.75654 0
M  V30 2662 C 279.514 -6.35199 2.05132 0
M  V30 2663 H 278.784 -0.720869 -0.17155 0
M  V30 2664 H 281.431 -1.89616 0.267924 0
M  V30 2665 H 279.736 -3.47772 -1.80449 0
M  V30 2666 H 281.433 -3.72002 -1.49719 0
M  V30 2667 H 278.023 -4.28229 -0.178381 0
M  V30 2668 H 282.207 -4.9317 0.556513 0
M  V30 2669 H 277.463 -5.90635 1.57988 0
M  V30 2670 H 281.637 -6.56912 2.31169 0
M  V30 2671 H 279.264 -7.05584 2.8294 0
M  V30 2672 N 280.839 0.0985539 -1.57292 0
M  V30 2673 C 282.25 0.653457 -1.74891 0
M  V30 2674 C 282.601 1.7929 -0.796838 0
M  V30 2675 O 281.726 2.16385 0.0254886 0
M  V30 2676 C 282.321 1.19216 -3.17133 0
M  V30 2677 C 280.88 1.69316 -3.36168 0
M  V30 2678 C 280.027 0.601294 -2.70702 0
M  V30 2679 H 282.978 -0.127497 -1.58187 0
M  V30 2680 H 282.999 2.06154 -3.19814 0
M  V30 2681 H 282.511 0.362635 -3.86402 0
M  V30 2682 H 280.612 2.5468 -2.71972 0
M  V30 2683 H 280.725 1.78853 -4.44464 0
M  V30 2684 H 279.089 1.0399 -2.32504 0
M  V30 2685 H 279.872 -0.217592 -3.4261 0
M  V30 2686 N 282.317 1.53212 0.369288 0
M  V30 2687 C 283.564 1.69215 1.11232 0
M  V30 2688 C 283.892 0.442048 1.8941 0
M  V30 2689 O 283.147 -0.575944 1.87033 0
M  V30 2690 C 283.446 2.89101 2.10132 0
M  V30 2691 C 283.112 4.25758 1.48463 0
M  V30 2692 C 281.774 4.6292 1.31372 0
M  V30 2693 C 284.126 5.10757 1.03811 0
M  V30 2694 C 281.454 5.82722 0.68207 0
M  V30 2695 C 283.806 6.31201 0.420487 0
M  V30 2696 C 282.47 6.67079 0.237038 0
M  V30 2697 H 281.74 0.619201 0.407027 0
M  V30 2698 H 284.387 1.87391 0.394552 0
M  V30 2699 H 282.692 2.65421 2.88199 0
M  V30 2700 H 284.389 2.98676 2.6757 0
M  V30 2701 H 280.979 3.96494 1.62758 0
M  V30 2702 H 285.163 4.82599 1.1581 0
M  V30 2703 H 280.419 6.09113 0.528316 0
M  V30 2704 H 284.593 6.96368 0.0662874 0
M  V30 2705 H 282.22 7.59774 -0.254477 0
M  V30 2706 N 283.795 -0.628877 1.44509 0
M  V30 2707 C 284.705 -1.7694 1.54044 0
M  V30 2708 C 285.721 -1.68705 0.425987 0
M  V30 2709 O 286.897 -1.89442 0.683656 0
M  V30 2710 C 283.962 -3.13332 1.48405 0
M  V30 2711 C 283.023 -3.33181 2.70719 0
M  V30 2712 C 282.256 -4.63067 2.6534 0
M  V30 2713 O 282.479 -5.44017 1.71469 0
M  V30 2714 O 281.413 -4.85167 3.56226 0
M  V30 2715 H 285.239 -1.71848 2.50403 0
M  V30 2716 H 282.824 -0.790378 1.26781 0
M  V30 2717 H 284.706 -3.94634 1.47791 0
M  V30 2718 H 283.381 -3.1896 0.551898 0
M  V30 2719 H 282.288 -2.51549 2.769 0
M  V30 2720 H 283.621 -3.32416 3.62988 0
M  V30 2721 N 285.273 -1.31445 -0.869486 0
M  V30 2722 C 286.498 -1.24256 -1.66058 0
M  V30 2723 C 286.923 0.188928 -1.87149 0
M  V30 2724 O 286.281 1.13522 -1.4136 0
M  V30 2725 C 286.329 -1.9924 -3.00559 0
M  V30 2726 O 285.433 -1.33007 -3.90362 0
M  V30 2727 H 284.774 -0.428973 -0.506831 0
M  V30 2728 H 287.304 -1.73521 -1.08404 0
M  V30 2729 H 287.314 -2.08854 -3.50491 0
M  V30 2730 H 285.989 -3.03342 -2.84528 0
M  V30 2731 H 284.566 -1.31848 -3.48813 0
M  V30 2732 N 286.751 1.08385 -1.14413 0
M  V30 2733 C 287.999 1.80419 -0.910679 0
M  V30 2734 C 288.32 1.86658 0.564243 0
M  V30 2735 O 287.59 1.35985 1.41014 0
M  V30 2736 H 286.17 0.668204 -0.333934 0
M  V30 2737 H 288.832 1.31037 -1.44275 0
M  V30 2738 H 287.928 2.83238 -1.31082 0
M  V30 2739 N 288.23 0.939286 1.26551 0
M  V30 2740 C 289.177 0.446088 2.26448 0
M  V30 2741 C 290.147 -0.493234 1.58608 0
M  V30 2742 O 291.332 -0.409857 1.86346 0
M  V30 2743 C 288.472 -0.284375 3.43926 0
M  V30 2744 C 287.585 0.690399 4.26448 0
M  V30 2745 C 286.72 -0.0610712 5.31165 0
M  V30 2746 C 285.759 0.905649 6.05363 0
M  V30 2747 N 284.896 0.186055 7.01853 0
M  V30 2748 H 289.736 1.30291 2.68008 0
M  V30 2749 H 287.273 0.65371 1.31776 0
M  V30 2750 H 289.231 -0.724313 4.10864 0
M  V30 2751 H 287.861 -1.10535 3.03285 0
M  V30 2752 H 286.913 1.24885 3.59316 0
M  V30 2753 H 288.225 1.42873 4.779 0
M  V30 2754 H 287.379 -0.56038 6.04106 0
M  V30 2755 H 286.118 -0.832297 4.80546 0
M  V30 2756 H 285.123 1.4161 5.3125 0
M  V30 2757 H 286.348 1.67685 6.58072 0
M  V30 2758 H 284.294 -0.566714 6.53548 0
M  V30 2759 H 284.211 0.863752 7.51049 0
M  V30 2760 H 285.479 -0.292221 7.78952 0
M  V30 2761 N 289.708 -1.40897 0.706093 0
M  V30 2762 C 291.119 -1.84023 0.315052 0
M  V30 2763 C 291.47 -1.5906 -1.14866 0
M  V30 2764 O 290.595 -1.06651 -1.88293 0
M  V30 2765 C 291.19 -3.34055 0.565038 0
M  V30 2766 C 289.749 -3.7571 0.227806 0
M  V30 2767 C 288.896 -2.64204 0.842122 0
M  V30 2768 H 291.847 -1.303 0.905963 0
M  V30 2769 H 291.868 -3.80107 -0.172843 0
M  V30 2770 H 291.38 -3.52192 1.63042 0
M  V30 2771 H 289.481 -3.63172 -0.832895 0
M  V30 2772 H 289.594 -4.74103 0.690174 0
M  V30 2773 H 287.958 -2.53255 0.270893 0
M  V30 2774 H 288.741 -2.85155 1.91158 0
M  V30 2775 N 291.186 -0.45159 -1.50991 0
M  V30 2776 C 292.433 0.110074 -2.02201 0
M  V30 2777 C 292.761 1.4146 -1.33489 0
M  V30 2778 O 292.016 1.90617 -0.443125 0
M  V30 2779 C 292.315 0.361728 -3.55565 0
M  V30 2780 C 291.981 -0.858717 -4.42648 0
M  V30 2781 C 290.643 -1.19338 -4.66167 0
M  V30 2782 C 292.995 -1.67221 -4.93646 0
M  V30 2783 C 290.323 -2.34195 -5.37931 0
M  V30 2784 C 292.675 -2.8119 -5.6667 0
M  V30 2785 C 291.339 -3.15094 -5.88449 0
M  V30 2786 H 290.609 0.040279 -0.739904 0
M  V30 2787 H 293.256 -0.601696 -1.81802 0
M  V30 2788 H 291.561 1.15554 -3.74372 0
M  V30 2789 H 293.258 0.80996 -3.92735 0
M  V30 2790 H 289.848 -0.58796 -4.24548 0
M  V30 2791 H 294.032 -1.42686 -4.75347 0
M  V30 2792 H 289.288 -2.6076 -5.53005 0
M  V30 2793 H 293.462 -3.44585 -6.05173 0
M  V30 2794 H 291.089 -4.04204 -6.43835 0
M  V30 2795 N 292.664 1.56529 -0.183458 0
M  V30 2796 C 293.611 2.18546 0.742055 0
M  V30 2797 C 294.581 1.12912 1.2182 0
M  V30 2798 O 295.766 1.41115 1.28418 0
M  V30 2799 C 292.906 2.83977 1.96089 0
M  V30 2800 C 292.019 4.04105 1.52719 0
M  V30 2801 C 291.154 4.57427 2.70063 0
M  V30 2802 C 290.193 5.69938 2.23243 0
M  V30 2803 N 289.33 6.17717 3.33722 0
M  V30 2804 H 294.17 2.97284 0.206432 0
M  V30 2805 H 291.707 1.46823 0.0901571 0
M  V30 2806 H 293.665 3.20077 2.67594 0
M  V30 2807 H 292.295 2.07822 2.47002 0
M  V30 2808 H 291.347 3.73745 0.708436 0
M  V30 2809 H 292.659 4.85513 1.1436 0
M  V30 2810 H 291.813 4.95772 3.49708 0
M  V30 2811 H 290.552 3.75101 3.11689 0
M  V30 2812 H 289.557 5.31133 1.42048 0
M  V30 2813 H 290.782 6.54073 1.82661 0
M  V30 2814 H 288.728 5.38317 3.74902 0
M  V30 2815 H 288.645 6.94146 2.99495 0
M  V30 2816 H 289.913 6.60713 4.13616 0
M  V30 2817 N 294.142 -0.090211 1.57342 0
M  V30 2818 C 295.391 -0.791531 1.8552 0
M  V30 2819 C 295.704 -1.79659 0.773441 0
M  V30 2820 O 296.91 -2.54616 0.942497 0
M  V30 2821 C 295.366 -1.45856 3.2902 0
M  V30 2822 C 294.974 -0.493017 4.45279 0
M  V30 2823 C 296.718 -2.14332 3.66418 0
M  V30 2824 C 294.625 -1.16491 5.79814 0
M  V30 2825 H 293.555 -0.299356 0.692027 0
M  V30 2826 H 296.206 -0.0445343 1.83446 0
M  V30 2827 H 294.588 -2.25318 3.2565 0
M  V30 2828 H 295.762 0.270464 4.60006 0
M  V30 2829 H 294.077 0.0863061 4.16311 0
M  V30 2830 H 296.674 -2.65344 4.64216 0
M  V30 2831 H 297.017 -2.93447 2.95287 0
M  V30 2832 H 297.55 -1.41724 3.71698 0
M  V30 2833 H 294.289 -0.41447 6.54188 0
M  V30 2834 H 293.809 -1.8997 5.68921 0
M  V30 2835 H 295.488 -1.69001 6.24538 0
M  V30 2836 N 295.62 -1.53406 -0.361157 0
M  V30 2837 C 296.552 -1.76446 -1.46286 0
M  V30 2838 C 297.565 -0.645322 -1.49464 0
M  V30 2839 O 298.754 -0.921681 -1.52864 0
M  V30 2840 C 295.854 -1.83332 -2.85031 0
M  V30 2841 C 295.027 -3.13033 -3.05498 0
M  V30 2842 C 294.086 -3.11104 -4.24383 0
M  V30 2843 O 293.112 -3.84888 -4.19344 0
M  V30 2844 N 294.314 -2.32234 -5.32022 0
M  V30 2845 H 297.079 -2.71508 -1.26899 0
M  V30 2846 H 294.64 -1.52238 -0.550915 0
M  V30 2847 H 296.632 -1.79514 -3.62708 0
M  V30 2848 H 295.202 -0.955342 -2.97644 0
M  V30 2849 H 294.422 -3.30119 -2.15442 0
M  V30 2850 H 295.71 -3.9874 -3.16044 0
M  V30 2851 H 295.108 -1.71807 -5.38979 0
M  V30 2852 H 293.665 -2.3423 -6.08259 0
M  V30 2853 N 297.098 0.621204 -1.44841 0
M  V30 2854 C 298.344 1.3826 -1.48365 0
M  V30 2855 C 298.677 1.93831 -0.119624 0
M  V30 2856 O 297.952 1.74251 0.864111 0
M  V30 2857 C 298.235 2.54058 -2.55199 0
M  V30 2858 C 298.088 2.03772 -4.00995 0
M  V30 2859 C 299.407 3.56225 -2.58442 0
M  V30 2860 H 296.526 0.501374 -0.540179 0
M  V30 2861 H 299.168 0.7015 -1.76576 0
M  V30 2862 H 297.318 3.12162 -2.31274 0
M  V30 2863 H 298.99 1.50423 -4.36086 0
M  V30 2864 H 297.233 1.34876 -4.12299 0
M  V30 2865 H 297.904 2.87185 -4.71411 0
M  V30 2866 H 300.38 3.07939 -2.79844 0
M  V30 2867 H 299.256 4.34756 -3.3508 0
M  V30 2868 H 299.517 4.10949 -1.63013 0
M  V30 2869 N 298.576 1.31904 0.862503 0
M  V30 2870 C 299.506 1.22782 1.98612 0
M  V30 2871 C 300.487 0.113362 1.69722 0
M  V30 2872 O 301.672 0.299218 1.91881 0
M  V30 2873 C 298.802 0.942058 3.34279 0
M  V30 2874 C 297.756 2.0169 3.77499 0
M  V30 2875 C 297.082 1.58369 5.10709 0
M  V30 2876 C 298.382 3.43096 3.93805 0
M  V30 2877 H 300.076 2.16788 2.06502 0
M  V30 2878 H 297.622 1.04366 0.992154 0
M  V30 2879 H 299.575 0.864818 4.1243 0
M  V30 2880 H 298.299 -0.0336603 3.26583 0
M  V30 2881 H 296.958 2.08416 3.01593 0
M  V30 2882 H 296.606 0.595628 4.99461 0
M  V30 2883 H 296.306 2.30279 5.40597 0
M  V30 2884 H 297.83 1.52067 5.91361 0
M  V30 2885 H 299.244 3.39003 4.62331 0
M  V30 2886 H 297.641 4.13288 4.35101 0
M  V30 2887 H 298.711 3.83334 2.96957 0
M  V30 2888 N 300.054 -1.07777 1.14986 0
M  V30 2889 C 301.3 -1.80557 0.923422 0
M  V30 2890 C 301.633 -1.86298 -0.548337 0
M  V30 2891 O 300.908 -1.34354 -1.40639 0
M  V30 2892 C 301.191 -3.25839 1.53299 0
M  V30 2893 C 301.044 -3.28269 3.07505 0
M  V30 2894 C 302.363 -4.22991 1.21518 0
M  V30 2895 H 299.482 -0.655493 0.336894 0
M  V30 2896 H 302.124 -1.26144 1.42083 0
M  V30 2897 H 300.274 -3.72306 1.10999 0
M  V30 2898 H 301.946 -2.90079 3.58681 0
M  V30 2899 H 300.189 -2.67355 3.4162 0
M  V30 2900 H 300.86 -4.30691 3.45266 0
M  V30 2901 H 303.336 -3.84894 1.581 0
M  V30 2902 H 302.212 -5.22945 1.66793 0
M  V30 2903 H 302.473 -4.41904 0.131505 0
M  V30 2904 N 301.532 -0.945985 -1.26051 0
M  V30 2905 C 302.442 -0.465633 -2.29933 0
M  V30 2906 C 303.458 0.462761 -1.67733 0
M  V30 2907 O 304.634 0.341118 -1.9849 0
M  V30 2908 C 301.699 0.256994 -3.45746 0
M  V30 2909 C 300.76 -0.708549 -4.23412 0
M  V30 2910 C 299.993 -0.0203135 -5.33696 0
M  V30 2911 O 300.216 1.19571 -5.57726 0
M  V30 2912 O 299.15 -0.701459 -5.97799 0
M  V30 2913 H 302.976 -1.32866 -2.73094 0
M  V30 2914 H 300.561 -0.712071 -1.31339 0
M  V30 2915 H 302.443 0.663852 -4.16138 0
M  V30 2916 H 301.118 1.09533 -3.04605 0
M  V30 2917 H 300.025 -1.16545 -3.55483 0
M  V30 2918 H 301.358 -1.51465 -4.68315 0
M  V30 2919 N 303.011 1.40521 -0.713556 0
M  V30 2920 C 304.422 1.83853 -0.324807 0
M  V30 2921 C 304.773 1.59667 1.14021 0
M  V30 2922 O 303.898 1.07649 1.87725 0
M  V30 2923 C 304.493 3.33751 -0.582746 0
M  V30 2924 C 303.052 3.75584 -0.247727 0
M  V30 2925 C 302.199 2.63753 -0.856121 0
M  V30 2926 H 305.15 1.29817 -0.91286 0
M  V30 2927 H 305.171 3.80194 0.152682 0
M  V30 2928 H 304.683 3.51322 -1.64908 0
M  V30 2929 H 302.784 3.63608 0.813624 0
M  V30 2930 H 302.897 4.7373 -0.715307 0
M  V30 2931 H 301.261 2.53108 -0.28432 0
M  V30 2932 H 302.044 2.84137 -1.92668 0
M  V30 2933 N 304.489 0.459591 1.5075 0
M  V30 2934 C 305.766 -0.160371 1.94941 0
M  V30 2935 C 306.146 -1.58048 1.39943 0
M  V30 2936 O 305.494 -2.206 0.595629 0
M  V30 2937 C 305.704 -0.115432 3.48809 0
M  V30 2938 C 307.052 -0.310026 4.23467 0
M  V30 2939 O 308.076 -0.192543 3.55679 0
M  V30 2940 O 306.935 -0.546031 5.43765 0
M  V30 2941 H 304.029 -0.117925 0.818549 0
M  V30 2942 H 306.575 0.519169 1.61563 0
M  V30 2943 H 305.347 0.87652 3.81357 0
M  V30 2944 H 304.97 -0.836928 3.88692 0
M  V30 2945 N 305.967 -1.56429 0.191757 0
M  V30 2946 C 306.917 -2.15548 -0.743184 0
M  V30 2947 C 307.901 -1.09531 -1.17863 0
M  V30 2948 O 309.093 -1.35602 -1.13759 0
M  V30 2949 C 306.222 -2.81577 -1.96391 0
M  V30 2950 C 305.308 -3.9478 -1.54951 0
M  V30 2951 N 305.699 -4.98677 -0.845876 0
M  V30 2952 C 303.997 -4.06319 -1.83905 0
M  V30 2953 C 304.698 -5.78183 -0.638724 0
M  V30 2954 N 303.674 -5.30495 -1.18643 0
M  V30 2955 H 307.476 -2.9324 -0.196839 0
M  V30 2956 H 304.99 -1.62398 -0.0081603 0
M  V30 2957 H 306.987 -3.22321 -2.64415 0
M  V30 2958 H 305.647 -2.05371 -2.51501 0
M  V30 2959 H 306.658 -5.15464 -0.501704 0
M  V30 2960 H 303.335 -3.41238 -2.40548 0
M  V30 2961 H 304.725 -6.71851 -0.0807929 0
M  V30 2962 N 307.445 0.0818655 -1.57387 0
M  V30 2963 C 308.692 0.782914 -1.86753 0
M  V30 2964 C 309.02 1.78082 -0.782118 0
M  V30 2965 O 308.275 1.94426 0.22295 0
M  V30 2966 C 308.574 1.53513 -3.22752 0
M  V30 2967 C 308.24 0.678134 -4.45771 0
M  V30 2968 C 306.902 0.441929 -4.79166 0
M  V30 2969 C 309.254 0.0832243 -5.21134 0
M  V30 2970 C 306.582 -0.398833 -5.85343 0
M  V30 2971 C 308.934 -0.744935 -6.28199 0
M  V30 2972 C 307.598 -0.991107 -6.60101 0
M  V30 2973 H 306.868 0.286489 -0.683378 0
M  V30 2974 H 309.515 0.0439808 -1.91449 0
M  V30 2975 H 307.82 2.34599 -3.138 0
M  V30 2976 H 309.517 2.08218 -3.42705 0
M  V30 2977 H 306.107 0.872357 -4.19628 0
M  V30 2978 H 310.291 0.252847 -4.95655 0
M  V30 2979 H 305.547 -0.598405 -6.08465 0
M  V30 2980 H 309.721 -1.21271 -6.8576 0
M  V30 2981 H 307.348 -1.64437 -7.42202 0
M  V30 2982 N 308.923 1.53595 0.353017 0
M  V30 2983 C 309.87 1.80919 1.43308 0
M  V30 2984 C 310.84 0.654288 1.5267 0
M  V30 2985 O 312.025 0.897759 1.6836 0
M  V30 2986 C 309.165 2.01605 2.80089 0
M  V30 2987 C 308.278 3.29321 2.79593 0
M  V30 2988 C 307.413 3.40125 4.0803 0
M  V30 2989 C 306.452 4.61826 4.01725 0
M  V30 2990 N 305.589 4.69716 5.21834 0
M  V30 2991 H 310.429 2.73074 1.19308 0
M  V30 2992 H 307.966 1.35263 0.578131 0
M  V30 2993 H 309.924 2.11586 3.59565 0
M  V30 2994 H 308.554 1.12772 3.0246 0
M  V30 2995 H 307.606 3.28229 1.92276 0
M  V30 2996 H 308.918 4.18884 2.70809 0
M  V30 2997 H 308.072 3.49488 4.95927 0
M  V30 2998 H 306.811 2.48601 4.19582 0
M  V30 2999 H 305.816 4.52552 3.12213 0
M  V30 3000 H 307.041 5.54705 3.91764 0
M  V30 3001 H 304.987 3.81097 5.33948 0
M  V30 3002 H 304.904 5.53202 5.1527 0
M  V30 3003 H 306.172 4.83376 6.11529 0
M  V30 3004 N 310.401 -0.613514 1.45168 0
M  V30 3005 C 311.647 -1.37471 1.49096 0
M  V30 3006 C 311.98 -1.93765 0.129901 0
M  V30 3007 O 311.255 -1.74707 -0.854858 0
M  V30 3008 C 311.538 -2.52701 2.56542 0
M  V30 3009 C 311.391 -2.01643 4.0207 0
M  V30 3010 C 312.71 -3.54849 2.60327 0
M  V30 3011 H 309.829 -0.498502 0.54283 0
M  V30 3012 H 312.471 -0.692125 1.76945 0
M  V30 3013 H 310.621 -3.10931 2.32926 0
M  V30 3014 H 312.293 -1.48108 4.36877 0
M  V30 3015 H 310.536 -1.32688 4.13009 0
M  V30 3016 H 311.207 -2.84681 4.72928 0
M  V30 3017 H 313.683 -3.0645 2.81474 0
M  V30 3018 H 312.559 -4.32973 3.37381 0
M  V30 3019 H 312.82 -4.10079 1.6519 0
M  V30 3020 N 311.879 -1.3236 -0.855495 0
M  V30 3021 C 312.842 -1.21164 -1.94556 0
M  V30 3022 C 313.842 -0.134908 -1.60233 0
M  V30 3023 O 315.032 -0.385249 -1.69887 0
M  V30 3024 C 312.164 -0.863192 -3.29791 0
M  V30 3025 H 313.357 -2.18038 -2.05911 0
M  V30 3026 H 310.91 -1.16179 -1.04557 0
M  V30 3027 H 311.645 0.103769 -3.24134 0
M  V30 3028 H 311.43 -1.64166 -3.56078 0
M  V30 3029 H 312.92 -0.809156 -4.09686 0
M  V30 3030 N 313.357 1.07166 -1.15556 0
M  V30 3031 C 314.603 1.80065 -0.932984 0
M  V30 3032 C 314.936 1.86586 0.53845 0
M  V30 3033 O 314.211 1.35098 1.39924 0
M  V30 3034 C 314.494 3.25022 -1.55025 0
M  V30 3035 C 314.347 3.26634 -3.09242 0
M  V30 3036 C 315.666 4.22341 -1.2376 0
M  V30 3037 H 312.785 0.653697 -0.340366 0
M  V30 3038 H 315.427 1.25389 -1.4275 0
M  V30 3039 H 313.577 3.71712 -1.12972 0
M  V30 3040 H 315.249 2.88173 -3.60214 0
M  V30 3041 H 313.492 2.65539 -3.43033 0
M  V30 3042 H 314.163 4.28854 -3.47546 0
M  V30 3043 H 316.639 3.8405 -1.60139 0
M  V30 3044 H 315.515 5.22053 -1.69564 0
M  V30 3045 H 315.776 4.41828 -0.154938 0
M  V30 3046 N 314.835 0.952656 1.25548 0
M  V30 3047 C 315.783 0.462354 2.27958 0
M  V30 3048 C 316.777 -0.46634 1.62855 0
M  V30 3049 O 317.983 -0.343287 1.76696 0
M  V30 3050 H 314.358 0.13101 0.7405 0
M  V30 3051 H 316.329 1.33839 2.66702 0
M  V30 3052 C 315.078 -0.24628 3.46827 0
M  V30 3053 H 314.401 0.459192 3.97154 0
M  V30 3054 H 315.841 -0.553393 4.20373 0
M  V30 3055 C 314.3 -1.4681 3.0323 0
M  V30 3056 O 314.83 -2.56591 3.09069 0
M  V30 3057 N 313.036 -1.32874 2.58443 0
M  V30 3058 H 312.583 -0.435536 2.53891 0
M  V30 3059 H 312.541 -2.14742 2.29637 0
M  V30 3060 N 316.313 -1.40141 0.720998 0
M  V30 3061 C 317.59 -1.94677 0.189757 0
M  V30 3062 C 317.97 -1.65879 -1.30566 0
M  V30 3063 O 317.318 -0.979391 -2.06447 0
M  V30 3064 C 317.528 -3.45279 0.508304 0
M  V30 3065 C 318.876 -4.22209 0.449934 0
M  V30 3066 O 319.9 -3.53413 0.444677 0
M  V30 3067 O 318.759 -5.44788 0.432189 0
M  V30 3068 H 315.853 -0.826459 0.0299026 0
M  V30 3069 H 318.399 -1.49719 0.7989 0
M  V30 3070 H 317.171 -3.59619 1.54239 0
M  V30 3071 H 316.794 -3.97386 -0.130525 0
M  V30 3072 N 317.792 -0.46758 -1.50504 0
M  V30 3073 C 318.755 0.317059 -2.26996 0
M  V30 3074 C 319.755 0.923513 -1.31635 0
M  V30 3075 O 320.945 0.793239 -1.55091 0
M  V30 3076 C 318.077 1.45134 -3.08462 0
M  V30 3077 H 319.27 -0.353723 -2.97807 0
M  V30 3078 H 316.823 -0.221545 -1.54722 0
M  V30 3079 H 317.558 2.15728 -2.4214 0
M  V30 3080 H 317.343 1.02232 -3.78538 0
M  V30 3081 H 318.833 2.00493 -3.66323 0
M  V30 3082 N 319.27 1.56325 -0.20005 0
M  V30 3083 C 320.22 2.15939 0.731743 0
M  V30 3084 C 321.204 1.10154 1.17281 0
M  V30 3085 O 322.396 1.36203 1.13038 0
M  V30 3086 C 319.525 2.82614 1.94895 0
M  V30 3087 C 318.611 3.95596 1.52855 0
M  V30 3088 N 319.002 4.99118 0.819418 0
M  V30 3089 C 317.3 4.07288 1.81748 0
M  V30 3090 C 318.001 5.78513 0.608053 0
M  V30 3091 N 316.977 5.31117 1.15828 0
M  V30 3092 H 320.779 2.9334 0.181285 0
M  V30 3093 H 318.293 1.624 -0.000452172 0
M  V30 3094 H 320.29 3.23718 2.62702 0
M  V30 3095 H 318.95 2.06702 2.50408 0
M  V30 3096 H 319.961 5.15723 0.47436 0
M  V30 3097 H 316.638 3.42509 2.38734 0
M  V30 3098 H 318.028 6.71885 0.0451619 0
M  V30 3099 N 320.748 -0.0735177 1.57428 0
M  V30 3100 C 321.678 -1.0879 2.06608 0
M  V30 3101 C 322.659 -1.40473 0.959237 0
M  V30 3102 O 323.844 -1.5013 1.23185 0
M  V30 3103 C 320.974 -2.40183 2.50857 0
M  V30 3104 C 319.928 -2.22858 3.65402 0
M  V30 3105 C 319.254 -3.59619 3.957 0
M  V30 3106 C 320.554 -1.65123 4.95511 0
M  V30 3107 H 322.248 -0.678673 2.91607 0
M  V30 3108 H 319.794 -0.325013 1.40284 0
M  V30 3109 H 321.747 -3.11437 2.83874 0
M  V30 3110 H 320.471 -2.83083 1.62885 0
M  V30 3111 H 319.13 -1.54045 3.32664 0
M  V30 3112 H 318.778 -4.00086 3.04861 0
M  V30 3113 H 318.478 -3.48866 4.72828 0
M  V30 3114 H 320.002 -4.32306 4.31212 0
M  V30 3115 H 321.416 -2.26241 5.26771 0
M  V30 3116 H 319.813 -1.65071 5.7695 0
M  V30 3117 H 320.883 -0.612559 4.81015 0
M  V30 3118 N 322.226 -1.5378 -0.344866 0
M  V30 3119 C 323.156 -1.84662 -1.42906 0
M  V30 3120 C 324.137 -0.701648 -1.54955 0
M  V30 3121 O 325.322 -0.953438 -1.69184 0
M  V30 3122 C 322.452 -2.05503 -2.79974 0
M  V30 3123 C 321.406 -3.21318 -2.82734 0
M  V30 3124 C 320.732 -3.2749 -4.22675 0
M  V30 3125 C 322.032 -4.59456 -2.48389 0
M  V30 3126 H 323.726 -2.75461 -1.17311 0
M  V30 3127 H 321.272 -1.32542 -0.562896 0
M  V30 3128 H 323.225 -2.25691 -3.55867 0
M  V30 3129 H 321.949 -1.11434 -3.07002 0
M  V30 3130 H 320.608 -3.00984 -2.09294 0
M  V30 3131 H 320.256 -2.31019 -4.4681 0
M  V30 3132 H 319.956 -4.05316 -4.25433 0
M  V30 3133 H 321.48 -3.49887 -5.00412 0
M  V30 3134 H 322.894 -4.79667 -3.13995 0
M  V30 3135 H 321.291 -5.39675 -2.62432 0
M  V30 3136 H 322.361 -4.63155 -1.4358 0
M  V30 3137 N 323.704 0.605807 -1.45491 0
M  V30 3138 C 324.636 1.73031 -1.5031 0
M  V30 3139 C 325.649 1.57968 -0.393687 0
M  V30 3140 O 326.838 1.65817 -0.660839 0
M  V30 3141 C 323.938 3.11049 -1.34543 0
M  V30 3142 C 323.111 3.52334 -2.59189 0
M  V30 3143 C 322.17 4.69323 -2.37954 0
M  V30 3144 O 321.196 4.7635 -3.11575 0
M  V30 3145 N 322.398 5.62705 -1.4263 0
M  V30 3146 H 325.163 1.6936 -2.4726 0
M  V30 3147 H 322.724 0.79114 -1.41254 0
M  V30 3148 H 324.716 3.87071 -1.18144 0
M  V30 3149 H 323.286 3.09217 -0.458623 0
M  V30 3150 H 322.506 2.66256 -2.90691 0
M  V30 3151 H 323.794 3.76677 -3.42041 0
M  V30 3152 H 323.192 5.59744 -0.818758 0
M  V30 3153 H 321.749 6.38252 -1.32202 0
M  V30 3154 N 325.182 1.32811 0.848464 0
M  V30 3155 C 326.412 1.26556 1.63301 0
M  V30 3156 C 326.82 -0.1676 1.88456 0
M  V30 3157 O 326.163 -1.11713 1.45828 0
M  V30 3158 C 326.225 1.96202 3.01239 0
M  V30 3159 C 325.889 3.45528 2.99098 0
M  V30 3160 C 326.886 4.40903 2.75501 0
M  V30 3161 C 324.571 3.87558 3.19537 0
M  V30 3162 C 326.565 5.76282 2.72356 0
M  V30 3163 C 324.252 5.23044 3.16019 0
M  V30 3164 C 325.25 6.17217 2.92458 0
M  V30 3165 O 324.938 7.50223 2.88825 0
M  V30 3166 H 324.67 0.43771 0.515156 0
M  V30 3167 H 327.224 1.7559 1.0657 0
M  V30 3168 H 325.454 1.41746 3.59785 0
M  V30 3169 H 327.143 1.83573 3.62016 0
M  V30 3170 H 327.909 4.09756 2.5947 0
M  V30 3171 H 323.788 3.14674 3.369 0
M  V30 3172 H 327.332 6.4976 2.53886 0
M  V30 3173 H 323.229 5.53818 3.31596 0
M  V30 3174 H 323.997 7.59657 3.04735 0
M  V30 3175 N 326.66 -1.06551 1.16123 0
M  V30 3176 C 327.608 -2.16063 0.861371 0
M  V30 3177 C 328.602 -1.6856 -0.168517 0
M  V30 3178 O 329.808 -1.79986 -0.0227579 0
M  V30 3179 H 326.183 -0.705278 0.260934 0
M  V30 3180 H 328.154 -2.38567 1.79244 0
M  V30 3181 C 326.903 -3.45661 0.376018 0
M  V30 3182 H 326.226 -3.82604 1.15992 0
M  V30 3183 H 327.666 -4.23504 0.204951 0
M  V30 3184 C 326.125 -3.24546 -0.903954 0
M  V30 3185 O 326.655 -3.49865 -1.97377 0
M  V30 3186 N 324.861 -2.77992 -0.846679 0
M  V30 3187 H 324.408 -2.57589 0.0241017 0
M  V30 3188 H 324.366 -2.64244 -1.70359 0
M  V30 3189 N 328.138 -0.959301 -1.25041 0
M  V30 3190 C 329.088 -0.453888 -2.23436 0
M  V30 3191 C 330.072 0.459461 -1.542 0
M  V30 3192 O 331.264 0.291752 -1.74579 0
M  V30 3193 C 328.393 0.262667 -3.42294 0
M  V30 3194 C 327.479 -0.669022 -4.1879 0
M  V30 3195 N 327.87 -1.80267 -4.72586 0
M  V30 3196 C 326.168 -0.47814 -4.4343 0
M  V30 3197 C 326.869 -2.38475 -5.3057 0
M  V30 3198 N 325.845 -1.67078 -5.17287 0
M  V30 3199 H 329.647 -1.319 -2.6264 0
M  V30 3200 H 327.161 -0.817358 -1.40332 0
M  V30 3201 H 329.158 0.641911 -4.11929 0
M  V30 3202 H 327.818 1.12432 -3.04613 0
M  V30 3203 H 328.829 -2.18442 -4.69578 0
M  V30 3204 H 325.506 0.340249 -4.16111 0
M  V30 3205 H 326.896 -3.34094 -5.8295 0
M  V30 3206 N 329.616 1.39756 -0.72842 0
M  V30 3207 C 331.032 1.5442 -0.403308 0
M  V30 3208 C 331.232 1.69694 1.08656 0
M  V30 3209 O 330.288 1.69373 1.87267 0
M  V30 3210 C 331.601 2.76555 -1.18058 0
M  V30 3211 C 333.149 2.90384 -1.16815 0
M  V30 3212 C 333.624 4.15449 -1.92785 0
M  V30 3213 N 335.115 4.22475 -1.89918 0
M  V30 3214 C 335.85 5.1818 -2.45514 0
M  V30 3215 N 335.346 6.19714 -3.09719 0
M  V30 3216 N 337.139 5.1035 -2.35584 0
M  V30 3217 H 329.29 1.28089 -1.69431 0
M  V30 3218 H 331.553 0.620327 -0.716867 0
M  V30 3219 H 331.259 2.7159 -2.23455 0
M  V30 3220 H 331.133 3.69033 -0.780662 0
M  V30 3221 H 333.52 2.94846 -0.12234 0
M  V30 3222 H 333.601 1.98988 -1.6074 0
M  V30 3223 H 333.245 4.11749 -2.97364 0
M  V30 3224 H 333.175 5.05877 -1.46272 0
M  V30 3225 H 335.666 3.49743 -1.43138 0
M  V30 3226 H 335.979 6.8919 -3.49625 0
M  V30 3227 H 334.324 6.20121 -3.13807 0
M  V30 3228 H 337.515 4.2996 -1.85072 0
M  V30 3229 H 337.688 5.84761 -2.79211 0
M  V30 3230 N 331.094 0.475555 1.50254 0
M  V30 3231 C 332.34 -0.0780073 2.0265 0
M  V30 3232 C 332.673 -1.38968 1.35652 0
M  V30 3233 O 331.948 -1.8839 0.483691 0
M  V30 3234 C 332.231 -0.257161 3.59181 0
M  V30 3235 C 332.084 1.07585 4.36744 0
M  V30 3236 C 333.403 -1.00965 4.28362 0
M  V30 3237 H 330.522 -0.0268758 0.73651 0
M  V30 3238 H 333.164 0.622015 1.7953 0
M  V30 3239 H 331.314 -0.853412 3.79011 0
M  V30 3240 H 332.986 1.70902 4.28474 0
M  V30 3241 H 331.229 1.6714 4.00308 0
M  V30 3242 H 331.9 0.904088 5.44546 0
M  V30 3243 H 334.376 -0.504214 4.13034 0
M  V30 3244 H 333.252 -1.10381 5.37687 0
M  V30 3245 H 333.513 -2.04731 3.91839 0
M  V30 3246 N 332.573 -1.56217 0.208337 0
M  V30 3247 C 333.52 -2.19699 -0.707192 0
M  V30 3248 C 334.49 -1.14836 -1.20008 0
M  V30 3249 O 335.675 -1.4314 -1.26157 0
M  V30 3250 C 332.815 -2.87061 -1.91546 0
M  V30 3251 C 331.928 -4.06483 -1.46271 0
M  V30 3252 C 331.063 -4.61665 -2.62752 0
M  V30 3253 C 330.102 -5.73417 -2.14147 0
M  V30 3254 N 329.239 -6.22948 -3.23853 0
M  V30 3255 H 334.079 -2.97575 -0.159111 0
M  V30 3256 H 331.616 -1.46948 -0.0667874 0
M  V30 3257 H 333.574 -3.24294 -2.62468 0
M  V30 3258 H 332.204 -2.11725 -2.43664 0
M  V30 3259 H 331.256 -3.74825 -0.648886 0
M  V30 3260 H 332.568 -4.87271 -1.06622 0
M  V30 3261 H 331.722 -5.01272 -3.41776 0
M  V30 3262 H 330.461 -3.80013 -3.05682 0
M  V30 3263 H 329.466 -5.33326 -1.33581 0
M  V30 3264 H 330.691 -6.56897 -1.72232 0
M  V30 3265 H 328.637 -5.44213 -3.6629 0
M  V30 3266 H 328.554 -6.98823 -2.88414 0
M  V30 3267 H 329.822 -6.6721 -4.03052 0
M  V30 3268 N 334.051 0.0651679 -1.57465 0
M  V30 3269 C 334.998 1.07675 -2.04144 0
M  V30 3270 C 335.968 1.38071 -0.923335 0
M  V30 3271 O 337.153 1.49026 -1.19146 0
M  V30 3272 C 334.293 2.38337 -2.49579 0
M  V30 3273 C 333.406 2.14413 -3.75035 0
M  V30 3274 C 332.541 3.38686 -4.09225 0
M  V30 3275 C 331.58 3.10156 -5.27702 0
M  V30 3276 N 330.717 4.26778 -5.57499 0
M  V30 3277 H 335.557 0.671716 -2.90331 0
M  V30 3278 H 333.094 0.3201 -1.43575 0
M  V30 3279 H 335.052 3.14632 -2.73975 0
M  V30 3280 H 333.682 2.7663 -1.6636 0
M  V30 3281 H 332.734 1.2878 -3.57939 0
M  V30 3282 H 334.046 1.89344 -4.61466 0
M  V30 3283 H 333.2 4.23373 -4.34558 0
M  V30 3284 H 331.939 3.66837 -3.21374 0
M  V30 3285 H 330.944 2.23866 -5.02159 0
M  V30 3286 H 332.169 2.8332 -6.17176 0
M  V30 3287 H 330.115 4.54948 -4.72608 0
M  V30 3288 H 330.032 4.05005 -6.38362 0
M  V30 3289 H 331.3 5.12443 -5.87386 0
M  V30 3290 N 335.529 1.53961 0.336706 0
M  V30 3291 C 336.459 1.85417 1.41925 0
M  V30 3292 C 337.44 0.709856 1.5458 0
M  V30 3293 O 338.625 0.962396 1.68676 0
M  V30 3294 C 335.755 2.06985 2.78881 0
M  V30 3295 C 334.709 3.22813 2.81026 0
M  V30 3296 C 334.035 3.29727 4.20932 0
M  V30 3297 C 335.335 4.60767 2.45949 0
M  V30 3298 H 337.029 2.76079 1.15848 0
M  V30 3299 H 334.575 1.32839 0.555859 0
M  V30 3300 H 336.528 2.27575 3.54665 0
M  V30 3301 H 335.252 1.13061 3.06406 0
M  V30 3302 H 333.911 3.0209 2.07695 0
M  V30 3303 H 333.559 2.33385 4.45579 0
M  V30 3304 H 333.259 4.07566 4.23277 0
M  V30 3305 H 334.783 3.52536 4.98549 0
M  V30 3306 H 336.197 4.81325 3.11446 0
M  V30 3307 H 334.594 5.4106 2.59566 0
M  V30 3308 H 335.664 4.6391 1.41122 0
M  V30 3309 N 337.007 -0.598083 1.45811 0
M  V30 3310 C 337.955 -1.72932 1.55555 0
M  V30 3311 C 338.949 -1.63984 0.424921 0
M  V30 3312 O 340.155 -1.69663 0.601205 0
M  V30 3313 H 336.53 -0.571489 0.488779 0
M  V30 3314 H 338.501 -1.61842 2.50699 0
M  V30 3315 C 337.25 -3.11318 1.54843 0
M  V30 3316 H 336.573 -3.18867 2.41172 0
M  V30 3317 H 338.013 -3.90274 1.65717 0
M  V30 3318 C 336.472 -3.3578 0.274427 0
M  V30 3319 O 337.002 -3.9654 -0.641778 0
M  V30 3320 N 335.208 -2.90119 0.167139 0
M  V30 3321 H 334.755 -2.40855 0.913596 0
M  V30 3322 H 334.713 -3.0686 -0.684435 0
M  V30 3323 N 338.485 -1.33259 -0.841409 0
M  V30 3324 C 339.395 -1.25332 -1.98316 0
M  V30 3325 C 340.411 -0.164364 -1.73222 0
M  V30 3326 O 341.587 -0.387486 -1.97637 0
M  V30 3327 C 338.652 -0.990078 -3.32262 0
M  V30 3328 C 337.713 -2.16879 -3.70489 0
M  V30 3329 C 336.946 -1.91801 -4.98044 0
M  V30 3330 O 337.169 -0.867075 -5.63771 0
M  V30 3331 O 336.103 -2.78267 -5.33714 0
M  V30 3332 H 339.929 -2.21344 -2.07944 0
M  V30 3333 H 337.514 -1.1328 -0.974058 0
M  V30 3334 H 339.396 -0.860321 -4.12524 0
M  V30 3335 H 338.071 -0.0602155 -3.23644 0
M  V30 3336 H 336.978 -2.35407 -2.90748 0
M  V30 3337 H 338.311 -3.0819 -3.8377 0
M  V30 3338 N 339.963 1.05934 -1.16686 0
M  V30 3339 C 341.212 1.78188 -0.945085 0
M  V30 3340 C 341.525 1.88338 0.528021 0
M  V30 3341 O 342.731 2.57258 0.867799 0
M  V30 3342 C 341.187 3.20277 -1.64167 0
M  V30 3343 C 340.795 3.18281 -3.15279 0
M  V30 3344 C 342.539 3.97039 -1.502 0
M  V30 3345 C 340.446 4.55112 -3.7766 0
M  V30 3346 H 339.376 0.667866 -0.349959 0
M  V30 3347 H 342.027 1.18794 -1.39858 0
M  V30 3348 H 340.409 3.79952 -1.11589 0
M  V30 3349 H 341.583 2.68167 -3.74731 0
M  V30 3350 H 339.898 2.55018 -3.29173 0
M  V30 3351 H 342.495 4.98194 -1.94183 0
M  V30 3352 H 342.838 4.13845 -0.451461 0
M  V30 3353 H 343.371 3.43894 -1.99954 0
M  V30 3354 H 340.11 4.43512 -4.82677 0
M  V30 3355 H 339.63 5.05406 -3.22994 0
M  V30 3356 H 341.309 5.24064 -3.79428 0
M  V30 3357 N 341.441 0.965919 1.2453 0
M  V30 3358 C 342.666 0.643971 1.97149 0
M  V30 3359 C 343.091 -0.779487 1.71189 0
M  V30 3360 O 342.449 -1.5288 0.974553 0
M  V30 3361 C 342.497 0.922557 3.48599 0
M  V30 3362 O 341.601 0.00707672 4.12399 0
M  V30 3363 H 340.942 0.243647 0.617683 0
M  V30 3364 H 343.472 1.29558 1.58353 0
M  V30 3365 H 343.482 0.853373 3.98976 0
M  V30 3366 H 342.157 1.95996 3.66822 0
M  V30 3367 H 340.734 0.12943 3.72675 0
M  V30 3368 N 342.919 -1.39368 0.735821 0
M  V30 3369 C 343.866 -2.30599 0.0963825 0
M  V30 3370 C 344.836 -1.49257 -0.728794 0
M  V30 3371 O 346.021 -1.77941 -0.688588 0
M  V30 3372 C 343.161 -3.35596 -0.804305 0
M  V30 3373 C 342.274 -4.31987 0.0335761 0
M  V30 3374 C 341.409 -5.24053 -0.868461 0
M  V30 3375 C 340.448 -6.12095 -0.0258776 0
M  V30 3376 N 339.585 -6.96514 -0.883893 0
M  V30 3377 H 344.425 -2.8471 0.880002 0
M  V30 3378 H 341.962 -1.40188 0.445619 0
M  V30 3379 H 343.92 -3.95062 -1.34096 0
M  V30 3380 H 342.55 -2.82938 -1.55389 0
M  V30 3381 H 341.602 -3.74133 0.68766 0
M  V30 3382 H 342.914 -4.94074 0.685036 0
M  V30 3383 H 342.068 -5.88549 -1.47293 0
M  V30 3384 H 340.807 -4.62289 -1.5537 0
M  V30 3385 H 339.812 -5.4661 0.591386 0
M  V30 3386 H 341.037 -6.75923 0.656156 0
M  V30 3387 H 338.983 -6.37318 -1.55441 0
M  V30 3388 H 338.9 -7.55448 -0.288931 0
M  V30 3389 H 340.168 -7.65439 -1.4739 0
M  V30 3390 N 344.397 -0.483516 -1.5 0
M  V30 3391 C 345.327 0.293829 -2.31644 0
M  V30 3392 C 346.308 0.978864 -1.39112 0
M  V30 3393 O 347.493 0.973644 -1.68029 0
M  V30 3394 C 344.623 1.36897 -3.19181 0
M  V30 3395 C 343.577 0.804833 -4.20365 0
M  V30 3396 C 342.903 1.9792 -4.96721 0
M  V30 3397 C 344.203 -0.192313 -5.21946 0
M  V30 3398 H 345.897 -0.387616 -2.9688 0
M  V30 3399 H 343.443 -0.187856 -1.42769 0
M  V30 3400 H 345.396 1.92037 -3.751 0
M  V30 3401 H 344.12 2.07936 -2.51853 0
M  V30 3402 H 342.779 0.275319 -3.65565 0
M  V30 3403 H 342.427 2.67686 -4.25856 0
M  V30 3404 H 342.127 1.60789 -5.65173 0
M  V30 3405 H 343.651 2.53526 -5.55479 0
M  V30 3406 H 345.065 0.270333 -5.72662 0
M  V30 3407 H 343.462 -0.478543 -5.98189 0
M  V30 3408 H 344.532 -1.11409 -4.71928 0
M  V30 3409 N 345.875 1.56104 -0.216619 0
M  V30 3410 C 347.123 1.97781 0.415593 0
M  V30 3411 C 347.444 1.10536 1.60645 0
M  V30 3412 O 346.714 0.181303 1.95059 0
M  V30 3413 H 345.294 0.730415 0.156534 0
M  V30 3414 H 347.956 1.92445 -0.308366 0
M  V30 3415 H 347.052 3.03072 0.74525 0
M  V30 3416 N 347.353 -0.0568162 1.57498 0
M  V30 3417 C 348.602 -0.752001 1.87157 0
M  V30 3418 C 348.915 -1.77978 0.811375 0
M  V30 3419 O 350.121 -2.52559 0.996293 0
M  V30 3420 C 348.577 -1.38844 3.3204 0
M  V30 3421 C 348.185 -0.398456 4.46225 0
M  V30 3422 C 349.929 -2.06512 3.70882 0
M  V30 3423 C 347.836 -1.04166 5.82154 0
M  V30 3424 H 346.766 -0.28461 0.698222 0
M  V30 3425 H 349.417 -0.00561272 1.83499 0
M  V30 3426 H 347.799 -2.1836 3.30356 0
M  V30 3427 H 348.973 0.367977 4.59328 0
M  V30 3428 H 347.288 0.174592 4.16034 0
M  V30 3429 H 349.885 -2.55437 4.6974 0
M  V30 3430 H 350.228 -2.87117 3.01445 0
M  V30 3431 H 350.761 -1.33808 3.7462 0
M  V30 3432 H 347.5 -0.275614 6.5492 0
M  V30 3433 H 347.02 -1.7786 5.72823 0
M  V30 3434 H 348.699 -1.55715 6.27982 0
M  V30 3435 N 348.832 -1.54138 -0.328536 0
M  V30 3436 C 350.057 -1.76378 -1.09112 0
M  V30 3437 C 350.482 -0.508596 -1.81094 0
M  V30 3438 O 349.84 0.539598 -1.73084 0
M  V30 3439 C 349.888 -2.95358 -2.06872 0
M  V30 3440 O 348.992 -2.66556 -3.14677 0
M  V30 3441 H 348.333 -0.584614 -0.314838 0
M  V30 3442 H 350.863 -2.01146 -0.374348 0
M  V30 3443 H 350.873 -3.22566 -2.4983 0
M  V30 3444 H 349.548 -3.86385 -1.5388 0
M  V30 3445 H 348.125 -2.50282 -2.7643 0
M  V30 3446 N 350.31 0.590341 -1.46126 0
M  V30 3447 C 351.558 1.34616 -1.50742 0
M  V30 3448 C 351.879 1.94363 -0.157486 0
M  V30 3449 O 351.149 1.78136 0.815136 0
M  V30 3450 H 349.729 0.499789 -0.555175 0
M  V30 3451 H 352.391 0.691953 -1.82203 0
M  V30 3452 H 351.487 2.15678 -2.25587 0
M  V30 3453 N 351.788 1.33704 0.83433 0
M  V30 3454 C 353.065 1.16011 1.57483 0
M  V30 3455 C 353.445 -0.27176 2.09343 0
M  V30 3456 O 352.793 -1.27146 1.89858 0
M  V30 3457 C 353.003 2.20507 2.70514 0
M  V30 3458 C 354.351 2.54898 3.39577 0
M  V30 3459 O 355.375 2.19209 2.80759 0
M  V30 3460 O 354.234 3.16158 4.45765 0
M  V30 3461 H 351.328 0.448992 0.694503 0
M  V30 3462 H 353.874 1.453 0.876691 0
M  V30 3463 H 352.646 3.16667 2.29865 0
M  V30 3464 H 352.269 1.92329 3.47987 0
M  V30 3465 N 353.266 -1.05314 1.17247 0
M  V30 3466 C 354.515 -1.77685 0.954521 0
M  V30 3467 C 354.828 -1.88616 -0.518025 0
M  V30 3468 O 356.034 -2.57714 -0.854144 0
M  V30 3469 C 354.49 -3.19402 1.65863 0
M  V30 3470 C 354.098 -3.16605 3.16963 0
M  V30 3471 C 355.842 -3.96237 1.52303 0
M  V30 3472 C 353.749 -4.53103 3.80068 0
M  V30 3473 H 352.679 -0.666 0.353496 0
M  V30 3474 H 355.33 -1.1805 1.40486 0
M  V30 3475 H 353.712 -3.79355 1.13602 0
M  V30 3476 H 354.886 -2.66176 3.76148 0
M  V30 3477 H 353.201 -2.53268 3.30521 0
M  V30 3478 H 355.798 -4.97157 1.96822 0
M  V30 3479 H 356.141 -4.136 0.473401 0
M  V30 3480 H 356.674 -3.42829 2.01775 0
M  V30 3481 H 353.413 -4.40946 4.85023 0
M  V30 3482 H 352.933 -5.03686 3.2567 0
M  V30 3483 H 354.612 -5.22045 3.82202 0
M  V30 3484 N 354.744 -0.972509 -1.24016 0
M  V30 3485 C 356.021 -0.553733 -1.87598 0
M  V30 3486 C 356.401 0.969158 -1.87538 0
M  V30 3487 O 355.749 1.84255 -1.35139 0
M  V30 3488 C 355.959 -1.15076 -3.29482 0
M  V30 3489 C 357.307 -1.23862 -4.06132 0
M  V30 3490 O 358.331 -1.10363 -3.38672 0
M  V30 3491 O 357.19 -1.45252 -5.26844 0
M  V30 3492 H 354.284 -0.185331 -0.805966 0
M  V30 3493 H 356.83 -1.06709 -1.31952 0
M  V30 3494 H 355.602 -2.19333 -3.2405 0
M  V30 3495 H 355.225 -0.621746 -3.92709 0
M  V30 3496 N 356.222 1.38976 -0.743202 0
M  V30 3497 C 357.152 2.33171 -0.123873 0
M  V30 3498 C 358.133 1.54336 0.71516 0
M  V30 3499 O 359.318 1.82696 0.658467 0
M  V30 3500 C 356.448 3.38474 0.777978 0
M  V30 3501 C 355.402 4.27979 0.0424758 0
M  V30 3502 C 354.728 5.2405 1.06189 0
M  V30 3503 C 356.028 5.10155 -1.1198 0
M  V30 3504 H 357.722 2.85213 -0.910709 0
M  V30 3505 H 355.268 1.37133 -0.439388 0
M  V30 3506 H 357.221 4.03328 1.22084 0
M  V30 3507 H 355.945 2.84891 1.59702 0
M  V30 3508 H 354.604 3.64616 -0.380853 0
M  V30 3509 H 354.252 4.66758 1.87472 0
M  V30 3510 H 353.952 5.84785 0.574485 0
M  V30 3511 H 355.476 5.9178 1.50428 0
M  V30 3512 H 356.89 5.68307 -0.75499 0
M  V30 3513 H 355.287 5.80073 -1.53738 0
M  V30 3514 H 356.357 4.44504 -1.93764 0
M  V30 3515 N 357.7 0.491464 1.49741 0
M  V30 3516 C 358.928 -0.0535151 2.06831 0
M  V30 3517 C 359.343 -1.31683 1.35296 0
M  V30 3518 O 358.7 -1.77402 0.42836 0
M  V30 3519 C 358.751 -0.320835 3.60073 0
M  V30 3520 O 358.472 0.892394 4.28915 0
M  V30 3521 C 359.973 -0.910519 4.33848 0
M  V30 3522 H 357.193 0.0161909 0.670805 0
M  V30 3523 H 359.737 0.68609 1.92647 0
M  V30 3524 H 357.892 -1.0104 3.73991 0
M  V30 3525 H 358.306 0.649401 5.20464 0
M  V30 3526 H 359.78 -1.04721 5.41976 0
M  V30 3527 H 360.257 -1.90589 3.95692 0
M  V30 3528 H 360.863 -0.258712 4.24512 0
M  V30 3529 N 359.178 -1.55987 0.224894 0
M  V30 3530 C 360.403 -2.03232 -0.41369 0
M  V30 3531 C 360.828 -1.10359 -1.52323 0
M  V30 3532 O 360.186 -0.092395 -1.81064 0
M  V30 3533 C 360.234 -3.48682 -0.919405 0
M  V30 3534 O 359.338 -3.58947 -2.03054 0
M  V30 3535 H 358.679 -0.657428 -0.0931903 0
M  V30 3536 H 361.209 -2.01679 0.34451 0
M  V30 3537 H 361.219 -3.8907 -1.22835 0
M  V30 3538 H 359.894 -4.15761 -0.107339 0
M  V30 3539 H 358.471 -3.30448 -1.72796 0
M  V30 3540 N 360.656 0.0484629 -1.57525 0
M  V30 3541 C 361.619 1.03956 -2.04269 0
M  V30 3542 C 362.619 1.30211 -0.943496 0
M  V30 3543 O 363.809 1.25539 -1.20771 0
M  V30 3544 C 360.941 2.37742 -2.44319 0
M  V30 3545 H 362.134 0.636182 -2.93075 0
M  V30 3546 H 359.687 0.294811 -1.53494 0
M  V30 3547 H 360.422 2.82866 -1.5861 0
M  V30 3548 H 360.207 2.20021 -3.24551 0
M  V30 3549 H 361.697 3.08936 -2.80978 0
M  V30 3550 N 362.134 1.5431 0.320358 0
M  V30 3551 C 363.359 1.76954 1.08175 0
M  V30 3552 C 363.784 0.518193 1.80821 0
M  V30 3553 O 363.142 -0.530411 1.73368 0
M  V30 3554 C 363.19 2.96451 2.05303 0
M  V30 3555 O 362.294 2.68221 3.13259 0
M  V30 3556 H 361.635 0.586275 0.311733 0
M  V30 3557 H 364.165 2.01342 0.363676 0
M  V30 3558 H 364.175 3.23887 2.48116 0
M  V30 3559 H 362.85 3.87196 1.51829 0
M  V30 3560 H 361.427 2.51744 2.75099 0
M  V30 3561 N 363.613 -0.582584 1.46437 0
M  V30 3562 C 364.843 -1.36484 1.55099 0
M  V30 3563 C 365.251 -1.88233 0.191056 0
M  V30 3564 O 364.594 -1.6429 -0.821858 0
M  V30 3565 C 364.656 -2.588 2.49525 0
M  V30 3566 C 364.32 -2.28517 3.95764 0
M  V30 3567 C 365.317 -1.87346 4.84972 0
M  V30 3568 C 363.002 -2.40658 4.40896 0
M  V30 3569 C 364.996 -1.5871 6.17325 0
M  V30 3570 C 362.683 -2.11635 5.73284 0
M  V30 3571 C 363.681 -1.70725 6.61318 0
M  V30 3572 O 363.369 -1.42057 7.91249 0
M  V30 3573 H 363.101 -0.423297 0.527063 0
M  V30 3574 H 365.655 -0.715188 1.92547 0
M  V30 3575 H 363.885 -3.26571 2.07095 0
M  V30 3576 H 365.574 -3.20868 2.48593 0
M  V30 3577 H 366.34 -1.77481 4.5136 0
M  V30 3578 H 362.219 -2.71463 3.72598 0
M  V30 3579 H 365.763 -1.26704 6.85997 0
M  V30 3580 H 361.66 -2.21124 6.06444 0
M  V30 3581 H 362.428 -1.55901 8.03515 0
M  V30 3582 N 365.091 -1.34144 -0.827227 0
M  V30 3583 C 366.319 -1.29325 -1.61501 0
M  V30 3584 C 366.734 0.13354 -1.88327 0
M  V30 3585 O 366.091 1.0793 -1.47164 0
M  V30 3586 C 366.142 -2.07746 -2.95844 0
M  V30 3587 O 365.863 -3.4486 -2.70191 0
M  V30 3588 C 367.364 -2.10273 -3.90256 0
M  V30 3589 H 364.584 -0.445069 -0.50215 0
M  V30 3590 H 367.128 -1.76693 -1.02955 0
M  V30 3591 H 365.283 -1.6403 -3.5096 0
M  V30 3592 H 365.697 -3.85345 -3.55822 0
M  V30 3593 H 367.171 -2.69575 -4.81698 0
M  V30 3594 H 367.648 -1.096 -4.25305 0
M  V30 3595 H 368.254 -2.54059 -3.41078 0
M  V30 3596 N 366.569 1.04691 -1.17803 0
M  V30 3597 C 367.502 2.12068 -0.842765 0
M  V30 3598 C 368.48 1.61455 0.192608 0
M  V30 3599 O 369.664 1.88359 0.072995 0
M  V30 3600 C 366.791 3.37715 -0.258063 0
M  V30 3601 C 365.837 4.07164 -1.26962 0
M  V30 3602 S 366.67 4.55047 -2.82299 0
M  V30 3603 C 367.826 5.83935 -2.25323 0
M  V30 3604 H 368.059 2.4018 -1.75217 0
M  V30 3605 H 365.592 1.17366 -1.00323 0
M  V30 3606 H 367.55 4.10435 0.0727935 0
M  V30 3607 H 366.211 3.0773 0.629357 0
M  V30 3608 H 365.404 4.9746 -0.809263 0
M  V30 3609 H 365.006 3.40533 -1.54639 0
M  V30 3610 H 367.298 6.57552 -1.63192 0
M  V30 3611 H 368.241 6.34725 -3.13894 0
M  V30 3612 H 368.649 5.3874 -1.68582 0
M  V30 3613 N 368.047 0.979072 1.23499 0
M  V30 3614 C 369.296 0.642751 1.91185 0
M  V30 3615 C 369.609 -0.827253 1.77245 0
M  V30 3616 O 370.815 -1.27458 2.39722 0
M  V30 3617 C 369.271 1.09901 3.42709 0
M  V30 3618 C 368.879 2.59327 3.65313 0
M  V30 3619 C 370.623 0.836371 4.16179 0
M  V30 3620 C 368.53 2.98627 5.10467 0
M  V30 3621 H 367.46 0.236698 0.715884 0
M  V30 3622 H 370.111 1.1868 1.39955 0
M  V30 3623 H 368.493 0.48319 3.93041 0
M  V30 3624 H 369.667 3.26136 3.25533 0
M  V30 3625 H 367.982 2.83323 3.05151 0
M  V30 3626 H 370.579 1.10586 5.23139 0
M  V30 3627 H 370.922 -0.227509 4.15678 0
M  V30 3628 H 371.455 1.41371 3.71832 0
M  V30 3629 H 368.194 4.04133 5.16098 0
M  V30 3630 H 367.714 2.3651 5.51201 0
M  V30 3631 H 369.393 2.89159 5.78788 0
M  V30 3632 O 369.564 -1.34901 0.887919 0
M  V30 3633 H 370.255 -1.87283 0.494443 0
M  V30 END ATOM
M  V30 BEGIN BOND
M  V30 END BOND
M  V30 END CTAB
M  END
$$$$
